MMK.pdb
     RDKit          3D

 26 25  0  0  1  0  0  0  0  0999 V2000
   25.9681  -19.3779  -19.8237 C   0  0  0  0  0  0  0  0  0  0  0  0
   27.6958  -18.8920  -19.5727 S   0  0  0  0  0  0  0  0  0  0  0  0
   28.5050  -19.9199  -18.3330 C   0  0  0  0  0  0  0  0  0  0  0  0
   27.4445  -20.4602  -17.4004 C   0  0  0  0  0  0  0  0  0  0  0  0
   28.0834  -21.2452  -16.2542 C   0  0  2  0  0  0  0  0  0  0  0  0
   28.5169  -22.5044  -16.8773 N   0  0  0  0  0  0  0  0  0  0  0  0
   27.0720  -21.5928  -15.2324 C   0  0  0  0  0  0  0  0  0  0  0  0
   26.3178  -22.5694  -15.3855 O   0  0  0  0  0  0  0  0  0  0  0  0
   24.4955  -20.8909   -7.6844 C   0  0  0  0  0  0  0  0  0  0  0  0
   25.7904  -20.5279   -8.9052 S   0  0  0  0  0  0  0  0  0  0  0  0
   25.3432  -21.0478  -10.5585 C   0  0  0  0  0  0  0  0  0  0  0  0
   26.3375  -20.7602  -11.6165 C   0  0  0  0  0  0  0  0  0  0  0  0
   25.9731  -21.1459  -13.0109 C   0  0  2  0  0  0  0  0  0  0  0  0
   26.9196  -20.8188  -14.0230 N   0  0  0  0  0  0  0  0  0  0  0  0
   24.5837  -20.7001  -13.3645 C   0  0  0  0  0  0  0  0  0  0  0  0
   24.3289  -19.4925  -13.6111 O   0  0  0  0  0  0  0  0  0  0  0  0
   23.4922  -21.6022  -13.4405 N   0  0  0  0  0  0  0  0  0  0  0  0
   22.1327  -21.1766  -13.7711 C   0  0  1  0  0  0  0  0  0  0  0  0
   21.2740  -22.3310  -14.1377 C   0  0  0  0  0  0  0  0  0  0  0  0
   19.8592  -21.8918  -14.3887 C   0  0  0  0  0  0  0  0  0  0  0  0
   18.9854  -23.1366  -14.6549 C   0  0  0  0  0  0  0  0  0  0  0  0
   17.5749  -22.6488  -14.9012 C   0  0  0  0  0  0  0  0  0  0  0  0
   16.6454  -23.7428  -14.9644 N   0  0  0  0  0  0  0  0  0  0  0  0
   21.5893  -20.4872  -12.5835 C   0  0  0  0  0  0  0  0  0  0  0  0
   20.8536  -19.2986  -12.7770 O   0  0  0  0  0  0  0  0  0  0  0  0
   21.7080  -20.8422  -11.3985 O   0  0  0  0  0  0  0  0  0  0  0  0
  2  1  1  0
  3  2  1  0
  4  3  1  0
  4  5  1  0
  5  7  1  0
  5  6  1  6
  7 14  1  0
  8  7  2  0
 10  9  1  0
 11 10  1  0
 13 12  1  1
 12 11  1  0
 14 13  1  0
 15 17  1  0
 15 13  1  0
 16 15  2  0
 18 17  1  0
 18 24  1  0
 18 19  1  1
 20 19  1  0
 21 20  1  0
 22 21  1  0
 23 22  1  0
 24 25  1  0
 26 24  2  0
M  END
$$$$
