MMK.pdb
     RDKit          3D

 26 25  0  0  1  0  0  0  0  0999 V2000
   21.7142  -21.9205   -8.9477 C   0  0  0  0  0  0  0  0  0  0  0  0
   22.7682  -21.2756   -7.6221 S   0  0  0  0  0  0  0  0  0  0  0  0
   24.4277  -20.8956   -8.2137 C   0  0  0  0  0  0  0  0  0  0  0  0
   24.3660  -20.7157   -9.7137 C   0  0  0  0  0  0  0  0  0  0  0  0
   25.7734  -20.6626  -10.3091 C   0  0  2  0  0  0  0  0  0  0  0  0
   26.3623  -19.4443   -9.7339 N   0  0  0  0  0  0  0  0  0  0  0  0
   25.7134  -20.4654  -11.7737 C   0  0  0  0  0  0  0  0  0  0  0  0
   25.4069  -19.3621  -12.2584 O   0  0  0  0  0  0  0  0  0  0  0  0
   29.7773  -23.0335  -16.3277 C   0  0  0  0  0  0  0  0  0  0  0  0
   28.2430  -22.8052  -17.2726 S   0  0  0  0  0  0  0  0  0  0  0  0
   27.0007  -21.8962  -16.3594 C   0  0  0  0  0  0  0  0  0  0  0  0
   27.0212  -22.0735  -14.8900 C   0  0  0  0  0  0  0  0  0  0  0  0
   25.9588  -21.3756  -14.1090 C   0  0  2  0  0  0  0  0  0  0  0  0
   26.0067  -21.5376  -12.6953 N   0  0  0  0  0  0  0  0  0  0  0  0
   24.5917  -21.6460  -14.6677 C   0  0  0  0  0  0  0  0  0  0  0  0
   23.9207  -22.6439  -14.2960 O   0  0  0  0  0  0  0  0  0  0  0  0
   23.9849  -20.8035  -15.6335 N   0  0  0  0  0  0  0  0  0  0  0  0
   22.6479  -21.0493  -16.1727 C   0  0  1  0  0  0  0  0  0  0  0  0
   21.6615  -20.0690  -15.6525 C   0  0  0  0  0  0  0  0  0  0  0  0
   20.3275  -20.2398  -16.3222 C   0  0  0  0  0  0  0  0  0  0  0  0
   19.2383  -20.4038  -15.2401 C   0  0  0  0  0  0  0  0  0  0  0  0
   17.9773  -20.8598  -15.9401 C   0  0  0  0  0  0  0  0  0  0  0  0
   17.5815  -19.9326  -16.9640 N   0  0  0  0  0  0  0  0  0  0  0  0
   22.7445  -20.9516  -17.6431 C   0  0  0  0  0  0  0  0  0  0  0  0
   21.8824  -21.7492  -18.4256 O   0  0  0  0  0  0  0  0  0  0  0  0
   23.5195  -20.2277  -18.2909 O   0  0  0  0  0  0  0  0  0  0  0  0
  2  1  1  0
  3  2  1  0
  4  3  1  0
  4  5  1  0
  5  7  1  0
  5  6  1  1
  7 14  1  0
  8  7  2  0
 10  9  1  0
 11 10  1  0
 13 12  1  6
 12 11  1  0
 14 13  1  0
 15 17  1  0
 15 13  1  0
 16 15  2  0
 18 17  1  0
 18 24  1  0
 18 19  1  1
 20 19  1  0
 21 20  1  0
 22 21  1  0
 23 22  1  0
 24 25  1  0
 26 24  2  0
M  END
$$$$
