MMK.pdb
     RDKit          3D

 26 25  0  0  1  0  0  0  0  0999 V2000
   22.0076  -17.3302  -16.5386 C   0  0  0  0  0  0  0  0  0  0  0  0
   20.7413  -18.2297  -15.6051 S   0  0  0  0  0  0  0  0  0  0  0  0
   19.7975  -17.1319  -14.5317 C   0  0  0  0  0  0  0  0  0  0  0  0
   19.3407  -15.9460  -15.3510 C   0  0  0  0  0  0  0  0  0  0  0  0
   18.5603  -14.9587  -14.4824 C   0  0  2  0  0  0  0  0  0  0  0  0
   17.3095  -15.6651  -14.1686 N   0  0  0  0  0  0  0  0  0  0  0  0
   18.1950  -13.7550  -15.2603 C   0  0  0  0  0  0  0  0  0  0  0  0
   17.2556  -13.7805  -16.0745 O   0  0  0  0  0  0  0  0  0  0  0  0
   14.4089   -7.7578  -16.9114 C   0  0  0  0  0  0  0  0  0  0  0  0
   14.8899   -9.2503  -15.9949 S   0  0  0  0  0  0  0  0  0  0  0  0
   16.6080   -9.6867  -16.2426 C   0  0  0  0  0  0  0  0  0  0  0  0
   17.0505  -10.9501  -15.6109 C   0  0  0  0  0  0  0  0  0  0  0  0
   18.4952  -11.3004  -15.7374 C   0  0  2  0  0  0  0  0  0  0  0  0
   18.9081  -12.5087  -15.1075 N   0  0  0  0  0  0  0  0  0  0  0  0
   19.3803  -10.1410  -15.3816 C   0  0  0  0  0  0  0  0  0  0  0  0
   19.5527   -9.7953  -14.1837 O   0  0  0  0  0  0  0  0  0  0  0  0
   20.0647   -9.3783  -16.3618 N   0  0  0  0  0  0  0  0  0  0  0  0
   21.0096   -8.3150  -16.0224 C   0  0  1  0  0  0  0  0  0  0  0  0
   21.7964   -7.8864  -17.2063 C   0  0  0  0  0  0  0  0  0  0  0  0
   22.7929   -6.8249  -16.8355 C   0  0  0  0  0  0  0  0  0  0  0  0
   23.7012   -6.5403  -18.0513 C   0  0  0  0  0  0  0  0  0  0  0  0
   24.7250   -5.5159  -17.6148 C   0  0  0  0  0  0  0  0  0  0  0  0
   25.6546   -5.2212  -18.6702 N   0  0  0  0  0  0  0  0  0  0  0  0
   20.2229   -7.1842  -15.4901 C   0  0  0  0  0  0  0  0  0  0  0  0
   20.7423   -6.4640  -14.3933 O   0  0  0  0  0  0  0  0  0  0  0  0
   19.1241   -6.7810  -15.9079 O   0  0  0  0  0  0  0  0  0  0  0  0
  2  1  1  0
  3  2  1  0
  4  3  1  0
  4  5  1  0
  5  7  1  0
  5  6  1  6
  7 14  1  0
  8  7  2  0
 10  9  1  0
 11 10  1  0
 13 12  1  1
 12 11  1  0
 14 13  1  0
 15 17  1  0
 15 13  1  0
 16 15  2  0
 18 17  1  0
 18 24  1  0
 18 19  1  6
 20 19  1  0
 21 20  1  0
 22 21  1  0
 23 22  1  0
 24 25  1  0
 26 24  2  0
M  END
$$$$
