MMK.pdb
     RDKit          3D

 26 25  0  0  1  0  0  0  0  0999 V2000
   26.1617  -17.8908  -18.8799 C   0  0  0  0  0  0  0  0  0  0  0  0
   27.6997  -17.3344  -18.0994 S   0  0  0  0  0  0  0  0  0  0  0  0
   28.4735  -18.6478  -17.1379 C   0  0  0  0  0  0  0  0  0  0  0  0
   27.3939  -19.3607  -16.3552 C   0  0  0  0  0  0  0  0  0  0  0  0
   28.0010  -20.4413  -15.4599 C   0  0  2  0  0  0  0  0  0  0  0  0
   28.3253  -21.5364  -16.3859 N   0  0  0  0  0  0  0  0  0  0  0  0
   26.9921  -20.9605  -14.5110 C   0  0  0  0  0  0  0  0  0  0  0  0
   26.1722  -21.8275  -14.8603 O   0  0  0  0  0  0  0  0  0  0  0  0
   24.0322  -21.0637   -7.0351 C   0  0  0  0  0  0  0  0  0  0  0  0
   25.4153  -20.6144   -8.1231 S   0  0  0  0  0  0  0  0  0  0  0  0
   25.0899  -20.9917   -9.8422 C   0  0  0  0  0  0  0  0  0  0  0  0
   26.1717  -20.6520  -10.7936 C   0  0  0  0  0  0  0  0  0  0  0  0
   25.9058  -20.9049  -12.2396 C   0  0  2  0  0  0  0  0  0  0  0  0
   26.9179  -20.4861  -13.1492 N   0  0  0  0  0  0  0  0  0  0  0  0
   24.5418  -20.4258  -12.6448 C   0  0  0  0  0  0  0  0  0  0  0  0
   24.2775  -19.1975  -12.7202 O   0  0  0  0  0  0  0  0  0  0  0  0
   23.4860  -21.3177  -12.9622 N   0  0  0  0  0  0  0  0  0  0  0  0
   22.1453  -20.8620  -13.3276 C   0  0  1  0  0  0  0  0  0  0  0  0
   21.6071  -21.6225  -14.4836 C   0  0  0  0  0  0  0  0  0  0  0  0
   22.3529  -21.2866  -15.7439 C   0  0  0  0  0  0  0  0  0  0  0  0
   21.7294  -22.0673  -16.9211 C   0  0  0  0  0  0  0  0  0  0  0  0
   22.5768  -21.7872  -18.1424 C   0  0  0  0  0  0  0  0  0  0  0  0
   22.0302  -22.4133  -19.3146 N   0  0  0  0  0  0  0  0  0  0  0  0
   21.2827  -21.0466  -12.1432 C   0  0  0  0  0  0  0  0  0  0  0  0
   20.1534  -20.2125  -12.0002 O   0  0  0  0  0  0  0  0  0  0  0  0
   21.4401  -21.8754  -11.2306 O   0  0  0  0  0  0  0  0  0  0  0  0
  2  1  1  0
  3  2  1  0
  4  3  1  0
  4  5  1  0
  5  7  1  0
  5  6  1  6
  7 14  1  0
  8  7  2  0
 10  9  1  0
 11 10  1  0
 13 12  1  1
 12 11  1  0
 14 13  1  0
 15 17  1  0
 15 13  1  0
 16 15  2  0
 18 17  1  0
 18 24  1  0
 18 19  1  6
 20 19  1  0
 21 20  1  0
 22 21  1  0
 23 22  1  0
 24 25  1  0
 26 24  2  0
M  END
$$$$
