MMK.pdb
     RDKit          3D

 26 25  0  0  1  0  0  0  0  0999 V2000
   27.4462  -18.4575  -17.3824 C   0  0  0  0  0  0  0  0  0  0  0  0
   28.4873  -19.9232  -17.6100 S   0  0  0  0  0  0  0  0  0  0  0  0
   27.5016  -21.4022  -17.9090 C   0  0  0  0  0  0  0  0  0  0  0  0
   26.4251  -21.4759  -16.8498 C   0  0  0  0  0  0  0  0  0  0  0  0
   26.7958  -22.4972  -15.7739 C   0  0  2  0  0  0  0  0  0  0  0  0
   26.4748  -23.7960  -16.3839 N   0  0  0  0  0  0  0  0  0  0  0  0
   25.9232  -22.3473  -14.5892 C   0  0  0  0  0  0  0  0  0  0  0  0
   24.7692  -22.8100  -14.5822 O   0  0  0  0  0  0  0  0  0  0  0  0
   24.9377  -20.2408   -6.9302 C   0  0  0  0  0  0  0  0  0  0  0  0
   26.0992  -20.4324   -8.3132 S   0  0  0  0  0  0  0  0  0  0  0  0
   25.2715  -20.7398   -9.8701 C   0  0  0  0  0  0  0  0  0  0  0  0
   26.1536  -20.9332  -11.0429 C   0  0  0  0  0  0  0  0  0  0  0  0
   25.5001  -21.3337  -12.3228 C   0  0  2  0  0  0  0  0  0  0  0  0
   26.3718  -21.6628  -13.3995 N   0  0  0  0  0  0  0  0  0  0  0  0
   24.4343  -20.3579  -12.7304 C   0  0  0  0  0  0  0  0  0  0  0  0
   24.7255  -19.2732  -13.2985 O   0  0  0  0  0  0  0  0  0  0  0  0
   23.0556  -20.5989  -12.5022 N   0  0  0  0  0  0  0  0  0  0  0  0
   21.9970  -19.8966  -13.2266 C   0  0  1  0  0  0  0  0  0  0  0  0
   22.0905  -20.1297  -14.6900 C   0  0  0  0  0  0  0  0  0  0  0  0
   20.9397  -19.4885  -15.4124 C   0  0  0  0  0  0  0  0  0  0  0  0
   21.0824  -19.7579  -16.9260 C   0  0  0  0  0  0  0  0  0  0  0  0
   19.9569  -19.0228  -17.6194 C   0  0  0  0  0  0  0  0  0  0  0  0
   19.9282  -19.3148  -19.0260 N   0  0  0  0  0  0  0  0  0  0  0  0
   20.7072  -20.3944  -12.7074 C   0  0  0  0  0  0  0  0  0  0  0  0
   19.5221  -19.7603  -13.1375 O   0  0  0  0  0  0  0  0  0  0  0  0
   20.5388  -21.3344  -11.9121 O   0  0  0  0  0  0  0  0  0  0  0  0
  2  1  1  0
  3  2  1  0
  4  3  1  0
  4  5  1  0
  5  7  1  0
  5  6  1  6
  7 14  1  0
  8  7  2  0
 10  9  1  0
 11 10  1  0
 13 12  1  1
 12 11  1  0
 14 13  1  0
 15 17  1  0
 15 13  1  0
 16 15  2  0
 18 17  1  0
 18 24  1  0
 18 19  1  6
 20 19  1  0
 21 20  1  0
 22 21  1  0
 23 22  1  0
 24 25  1  0
 26 24  2  0
M  END
$$$$
