MMK.pdb
     RDKit          3D

 26 25  0  0  1  0  0  0  0  0999 V2000
   19.0270  -23.5063  -12.8388 C   0  0  0  0  0  0  0  0  0  0  0  0
   19.0089  -23.3820  -14.6466 S   0  0  0  0  0  0  0  0  0  0  0  0
   20.5527  -22.7054  -15.2847 C   0  0  0  0  0  0  0  0  0  0  0  0
   20.7712  -21.3483  -14.6548 C   0  0  0  0  0  0  0  0  0  0  0  0
   20.9557  -21.4790  -13.1425 C   0  0  2  0  0  0  0  0  0  0  0  0
   19.8685  -20.6677  -12.5753 N   0  0  0  0  0  0  0  0  0  0  0  0
   22.2283  -20.8572  -12.7164 C   0  0  0  0  0  0  0  0  0  0  0  0
   22.4220  -19.6369  -12.8558 O   0  0  0  0  0  0  0  0  0  0  0  0
   27.5319  -19.3128   -7.8540 C   0  0  0  0  0  0  0  0  0  0  0  0
   26.1513  -20.3399   -8.4350 S   0  0  0  0  0  0  0  0  0  0  0  0
   26.4255  -20.9973  -10.0770 C   0  0  0  0  0  0  0  0  0  0  0  0
   25.2933  -21.7430  -10.6711 C   0  0  0  0  0  0  0  0  0  0  0  0
   24.5588  -21.0813  -11.7884 C   0  0  2  0  0  0  0  0  0  0  0  0
   23.2909  -21.6353  -12.1244 N   0  0  0  0  0  0  0  0  0  0  0  0
   25.4350  -20.8917  -12.9928 C   0  0  0  0  0  0  0  0  0  0  0  0
   25.7295  -21.8577  -13.7440 O   0  0  0  0  0  0  0  0  0  0  0  0
   25.9743  -19.6295  -13.3493 N   0  0  0  0  0  0  0  0  0  0  0  0
   26.7572  -19.4164  -14.5660 C   0  0  1  0  0  0  0  0  0  0  0  0
   27.2314  -18.0132  -14.6704 C   0  0  0  0  0  0  0  0  0  0  0  0
   28.0493  -17.8121  -15.9146 C   0  0  0  0  0  0  0  0  0  0  0  0
   28.4533  -16.3254  -16.0165 C   0  0  0  0  0  0  0  0  0  0  0  0
   29.2538  -16.1656  -17.2900 C   0  0  0  0  0  0  0  0  0  0  0  0
   28.3960  -16.0326  -18.4351 N   0  0  0  0  0  0  0  0  0  0  0  0
   27.9042  -20.3452  -14.5164 C   0  0  0  0  0  0  0  0  0  0  0  0
   28.2689  -21.0232  -15.6992 O   0  0  0  0  0  0  0  0  0  0  0  0
   28.6064  -20.6073  -13.5251 O   0  0  0  0  0  0  0  0  0  0  0  0
  2  1  1  0
  3  2  1  0
  4  3  1  0
  4  5  1  0
  5  7  1  0
  5  6  1  1
  7 14  1  0
  8  7  2  0
 10  9  1  0
 11 10  1  0
 13 12  1  1
 12 11  1  0
 14 13  1  0
 15 17  1  0
 15 13  1  0
 16 15  2  0
 18 17  1  0
 18 24  1  0
 18 19  1  1
 20 19  1  0
 21 20  1  0
 22 21  1  0
 23 22  1  0
 24 25  1  0
 26 24  2  0
M  END
$$$$
