MMK.pdb
     RDKit          3D

 26 25  0  0  1  0  0  0  0  0999 V2000
   30.9748  -30.2043  -22.3409 C   0  0  0  0  0  0  0  0  0  0  0  0
   31.9190  -30.6498  -20.8597 S   0  0  0  0  0  0  0  0  0  0  0  0
   31.1446  -32.0037  -19.9566 C   0  0  0  0  0  0  0  0  0  0  0  0
   29.9065  -31.4696  -19.2725 C   0  0  0  0  0  0  0  0  0  0  0  0
   30.2692  -30.7997  -17.9467 C   0  0  2  0  0  0  0  0  0  0  0  0
   30.6449  -31.9178  -17.0688 N   0  0  0  0  0  0  0  0  0  0  0  0
   29.0812  -30.1563  -17.3449 C   0  0  0  0  0  0  0  0  0  0  0  0
   28.3860  -30.7548  -16.5056 O   0  0  0  0  0  0  0  0  0  0  0  0
   29.9373  -23.2899  -16.1343 C   0  0  0  0  0  0  0  0  0  0  0  0
   28.5885  -24.1583  -16.9859 S   0  0  0  0  0  0  0  0  0  0  0  0
   28.5830  -25.9168  -16.6527 C   0  0  0  0  0  0  0  0  0  0  0  0
   27.4864  -26.6890  -17.2788 C   0  0  0  0  0  0  0  0  0  0  0  0
   27.5411  -28.1738  -17.1440 C   0  0  2  0  0  0  0  0  0  0  0  0
   28.6821  -28.8158  -17.7037 N   0  0  0  0  0  0  0  0  0  0  0  0
   26.2556  -28.8177  -17.5763 C   0  0  0  0  0  0  0  0  0  0  0  0
   26.2387  -29.7079  -18.4659 O   0  0  0  0  0  0  0  0  0  0  0  0
   25.0022  -28.4650  -17.0146 N   0  0  0  0  0  0  0  0  0  0  0  0
   23.8607  -29.3787  -16.9852 C   0  0  1  0  0  0  0  0  0  0  0  0
   24.1586  -30.5981  -16.1921 C   0  0  0  0  0  0  0  0  0  0  0  0
   22.9259  -31.4378  -16.0114 C   0  0  0  0  0  0  0  0  0  0  0  0
   23.1368  -32.7985  -16.7099 C   0  0  0  0  0  0  0  0  0  0  0  0
   21.7903  -33.4853  -16.7675 C   0  0  0  0  0  0  0  0  0  0  0  0
   21.8869  -34.7771  -17.3893 N   0  0  0  0  0  0  0  0  0  0  0  0
   22.7265  -28.6426  -16.3913 C   0  0  0  0  0  0  0  0  0  0  0  0
   21.4490  -29.2415  -16.4228 O   0  0  0  0  0  0  0  0  0  0  0  0
   22.7670  -27.5241  -15.8513 O   0  0  0  0  0  0  0  0  0  0  0  0
  2  1  1  0
  3  2  1  0
  4  3  1  0
  4  5  1  0
  5  7  1  0
  5  6  1  1
  7 14  1  0
  8  7  2  0
 10  9  1  0
 11 10  1  0
 13 12  1  6
 12 11  1  0
 14 13  1  0
 15 17  1  0
 15 13  1  0
 16 15  2  0
 18 17  1  0
 18 24  1  0
 18 19  1  1
 20 19  1  0
 21 20  1  0
 22 21  1  0
 23 22  1  0
 24 25  1  0
 26 24  2  0
M  END
$$$$
