MMK.pdb
     RDKit          3D

 26 25  0  0  1  0  0  0  0  0999 V2000
   18.9622  -16.0171  -13.7337 C   0  0  0  0  0  0  0  0  0  0  0  0
   17.9223  -16.8109  -14.9878 S   0  0  0  0  0  0  0  0  0  0  0  0
   16.6944  -15.6727  -15.6548 C   0  0  0  0  0  0  0  0  0  0  0  0
   17.3872  -14.3705  -15.9874 C   0  0  0  0  0  0  0  0  0  0  0  0
   16.3804  -13.3386  -16.4969 C   0  0  2  0  0  0  0  0  0  0  0  0
   15.9855  -13.8432  -17.8203 N   0  0  0  0  0  0  0  0  0  0  0  0
   17.0365  -12.0303  -16.7099 C   0  0  0  0  0  0  0  0  0  0  0  0
   17.5940  -11.7625  -17.7885 O   0  0  0  0  0  0  0  0  0  0  0  0
   17.0761   -4.2296  -15.7373 C   0  0  0  0  0  0  0  0  0  0  0  0
   16.2886   -5.8325  -15.4066 S   0  0  0  0  0  0  0  0  0  0  0  0
   17.3572   -7.2166  -15.7886 C   0  0  0  0  0  0  0  0  0  0  0  0
   16.7500   -8.5590  -15.6473 C   0  0  0  0  0  0  0  0  0  0  0  0
   17.6422   -9.7330  -15.8744 C   0  0  2  0  0  0  0  0  0  0  0  0
   17.0564  -11.0163  -15.6820 N   0  0  0  0  0  0  0  0  0  0  0  0
   18.9469   -9.5871  -15.1460 C   0  0  0  0  0  0  0  0  0  0  0  0
   19.0297   -9.7962  -13.9076 O   0  0  0  0  0  0  0  0  0  0  0  0
   20.1461   -9.2105  -15.8026 N   0  0  0  0  0  0  0  0  0  0  0  0
   21.4403   -9.1599  -15.1234 C   0  0  1  0  0  0  0  0  0  0  0  0
   22.5084   -9.7931  -15.9375 C   0  0  0  0  0  0  0  0  0  0  0  0
   23.8202   -9.7852  -15.2052 C   0  0  0  0  0  0  0  0  0  0  0  0
   24.9266  -10.3047  -16.1486 C   0  0  0  0  0  0  0  0  0  0  0  0
   26.1956  -10.4138  -15.3327 C   0  0  0  0  0  0  0  0  0  0  0  0
   27.2810  -10.9331  -16.1182 N   0  0  0  0  0  0  0  0  0  0  0  0
   21.7522   -7.7368  -14.8819 C   0  0  0  0  0  0  0  0  0  0  0  0
   22.3974   -7.3876  -13.6764 O   0  0  0  0  0  0  0  0  0  0  0  0
   21.5053   -6.7827  -15.6389 O   0  0  0  0  0  0  0  0  0  0  0  0
  2  1  1  0
  3  2  1  0
  4  3  1  0
  4  5  1  0
  5  7  1  0
  5  6  1  6
  7 14  1  0
  8  7  2  0
 10  9  1  0
 11 10  1  0
 13 12  1  1
 12 11  1  0
 14 13  1  0
 15 17  1  0
 15 13  1  0
 16 15  2  0
 18 17  1  0
 18 24  1  0
 18 19  1  6
 20 19  1  0
 21 20  1  0
 22 21  1  0
 23 22  1  0
 24 25  1  0
 26 24  2  0
M  END
$$$$
