MMK.pdb
     RDKit          3D

 26 25  0  0  1  0  0  0  0  0999 V2000
   27.1788  -16.4335  -17.0554 C   0  0  0  0  0  0  0  0  0  0  0  0
   28.2341  -17.3792  -18.1849 S   0  0  0  0  0  0  0  0  0  0  0  0
   28.7779  -18.9315  -17.4481 C   0  0  0  0  0  0  0  0  0  0  0  0
   27.6538  -19.4683  -16.5910 C   0  0  0  0  0  0  0  0  0  0  0  0
   28.1140  -20.6964  -15.8049 C   0  0  2  0  0  0  0  0  0  0  0  0
   28.2007  -21.7601  -16.8163 N   0  0  0  0  0  0  0  0  0  0  0  0
   27.0814  -21.1087  -14.8296 C   0  0  0  0  0  0  0  0  0  0  0  0
   26.1877  -21.9132  -15.1460 O   0  0  0  0  0  0  0  0  0  0  0  0
   24.4997  -21.3061   -7.2369 C   0  0  0  0  0  0  0  0  0  0  0  0
   25.7921  -20.7615   -8.3910 S   0  0  0  0  0  0  0  0  0  0  0  0
   25.3625  -21.0692  -10.1011 C   0  0  0  0  0  0  0  0  0  0  0  0
   26.4171  -20.7697  -11.0955 C   0  0  0  0  0  0  0  0  0  0  0  0
   26.0598  -20.9410  -12.5338 C   0  0  2  0  0  0  0  0  0  0  0  0
   27.0683  -20.5987  -13.4788 N   0  0  0  0  0  0  0  0  0  0  0  0
   24.7378  -20.3066  -12.8562 C   0  0  0  0  0  0  0  0  0  0  0  0
   24.6151  -19.0561  -12.9311 O   0  0  0  0  0  0  0  0  0  0  0  0
   23.5660  -21.0695  -13.0923 N   0  0  0  0  0  0  0  0  0  0  0  0
   22.2711  -20.4613  -13.3957 C   0  0  1  0  0  0  0  0  0  0  0  0
   21.6830  -21.0222  -14.6384 C   0  0  0  0  0  0  0  0  0  0  0  0
   20.3464  -20.4010  -14.9301 C   0  0  0  0  0  0  0  0  0  0  0  0
   19.7625  -21.0402  -16.2085 C   0  0  0  0  0  0  0  0  0  0  0  0
   18.5103  -20.2690  -16.5624 C   0  0  0  0  0  0  0  0  0  0  0  0
   17.9285  -20.7471  -17.7863 N   0  0  0  0  0  0  0  0  0  0  0  0
   21.3848  -20.7217  -12.2435 C   0  0  0  0  0  0  0  0  0  0  0  0
   20.4050  -19.7587  -11.9208 O   0  0  0  0  0  0  0  0  0  0  0  0
   21.4018  -21.7195  -11.5029 O   0  0  0  0  0  0  0  0  0  0  0  0
  2  1  1  0
  3  2  1  0
  4  3  1  0
  4  5  1  0
  5  7  1  0
  5  6  1  6
  7 14  1  0
  8  7  2  0
 10  9  1  0
 11 10  1  0
 13 12  1  1
 12 11  1  0
 14 13  1  0
 15 17  1  0
 15 13  1  0
 16 15  2  0
 18 17  1  0
 18 24  1  0
 18 19  1  6
 20 19  1  0
 21 20  1  0
 22 21  1  0
 23 22  1  0
 24 25  1  0
 26 24  2  0
M  END
$$$$
