SMC.pdb
     RDKit          3D

 21 20  0  0  1  0  0  0  0  0999 V2000
    7.9963  -17.4749   20.4657 O   0  0  0  0  0  0  0  0  0  0  0  0
    7.0417  -16.5017   20.1618 C   0  0  0  0  0  0  0  0  0  0  0  0
    7.6649  -15.1140   20.2407 C   0  0  2  0  0  0  0  0  0  0  0  0
    8.7172  -14.9989   19.2777 N   0  0  0  0  0  0  0  0  0  0  0  0
    8.1452  -14.9236   21.6377 C   0  0  0  0  0  0  0  0  0  0  0  0
    9.3783  -15.0692   21.9177 O   0  0  0  0  0  0  0  0  0  0  0  0
    7.9056  -11.6558   28.1176 C   0  0  0  0  0  0  0  0  0  0  0  0
    7.6276  -12.0962   26.3816 S   0  0  0  0  0  0  0  0  0  0  0  0
    6.7368  -13.6884   26.2691 C   0  0  0  0  0  0  0  0  0  0  0  0
    6.5022  -13.9540   24.8101 C   0  0  0  0  0  0  0  0  0  0  0  0
    7.7298  -14.4124   24.0961 C   0  0  2  0  0  0  0  0  0  0  0  0
    7.2871  -14.5833   22.6883 N   0  0  0  0  0  0  0  0  0  0  0  0
    8.3913  -15.6111   24.5732 C   0  0  0  0  0  0  0  0  0  0  0  0
    7.8472  -16.7296   24.2632 O   0  0  0  0  0  0  0  0  0  0  0  0
    9.5681  -15.7280   25.3383 N   0  0  0  0  0  0  0  0  0  0  0  0
   10.1327  -16.9973   25.7595 C   0  0  1  0  0  0  0  0  0  0  0  0
   11.4942  -17.1873   25.1309 C   0  0  0  0  0  0  0  0  0  0  0  0
   12.3218  -18.6569   25.7593 S   0  0  0  0  0  0  0  0  0  0  0  0
   10.3087  -17.0573   27.2334 C   0  0  0  0  0  0  0  0  0  0  0  0
   10.5727  -15.8683   27.8957 O   0  0  0  0  0  0  0  0  0  0  0  0
   10.2149  -18.1543   27.8152 O   0  0  0  0  0  0  0  0  0  0  0  0
  2  3  1  0
  2  1  1  0
  3  4  1  6
  3  5  1  0
  5 12  1  0
  5  6  2  0
  7  8  1  0
  8  9  1  0
  9 10  1  0
 11 10  1  1
 11 13  1  0
 12 11  1  0
 13 15  1  0
 13 14  2  0
 15 16  1  0
 16 19  1  0
 16 17  1  6
 18 17  1  0
 19 20  1  0
 21 19  2  0
M  END
$$$$
