SMC.pdb
     RDKit          3D

 21 20  0  0  1  0  0  0  0  0999 V2000
    7.7226  -18.3039   20.6359 O   0  0  0  0  0  0  0  0  0  0  0  0
    6.6642  -17.4091   20.4620 C   0  0  0  0  0  0  0  0  0  0  0  0
    7.1998  -16.0225   20.1297 C   0  0  2  0  0  0  0  0  0  0  0  0
    7.9874  -16.0794   18.9361 N   0  0  0  0  0  0  0  0  0  0  0  0
    7.9816  -15.5559   21.3085 C   0  0  0  0  0  0  0  0  0  0  0  0
    9.2536  -15.6014   21.2938 O   0  0  0  0  0  0  0  0  0  0  0  0
    6.9426  -11.5803   28.0681 C   0  0  0  0  0  0  0  0  0  0  0  0
    6.3451  -12.3112   26.5208 S   0  0  0  0  0  0  0  0  0  0  0  0
    7.6411  -13.3650   25.7786 C   0  0  0  0  0  0  0  0  0  0  0  0
    7.1140  -13.8357   24.4539 C   0  0  0  0  0  0  0  0  0  0  0  0
    8.1232  -14.5988   23.6626 C   0  0  2  0  0  0  0  0  0  0  0  0
    7.3733  -15.0559   22.4644 N   0  0  0  0  0  0  0  0  0  0  0  0
    8.7933  -15.7139   24.3025 C   0  0  0  0  0  0  0  0  0  0  0  0
    8.0949  -16.7721   24.4917 O   0  0  0  0  0  0  0  0  0  0  0  0
   10.1252  -15.8072   24.7514 N   0  0  0  0  0  0  0  0  0  0  0  0
   10.6871  -16.9961   25.3661 C   0  0  1  0  0  0  0  0  0  0  0  0
   12.1800  -17.0378   25.1329 C   0  0  0  0  0  0  0  0  0  0  0  0
   12.9544  -18.4113   26.0009 S   0  0  0  0  0  0  0  0  0  0  0  0
   10.4636  -17.0123   26.8347 C   0  0  0  0  0  0  0  0  0  0  0  0
   10.4375  -18.2469   27.4648 O   0  0  0  0  0  0  0  0  0  0  0  0
   10.3098  -15.9353   27.4407 O   0  0  0  0  0  0  0  0  0  0  0  0
  2  3  1  0
  2  1  1  0
  3  4  1  6
  3  5  1  0
  5 12  1  0
  5  6  2  0
  7  8  1  0
  8  9  1  0
  9 10  1  0
 11 10  1  1
 11 13  1  0
 12 11  1  0
 13 15  1  0
 13 14  2  0
 15 16  1  0
 16 19  1  0
 16 17  1  1
 18 17  1  0
 19 20  1  0
 21 19  2  0
M  END
$$$$
