SMC.pdb
     RDKit          3D

 21 20  0  0  1  0  0  0  0  0999 V2000
    8.1535  -18.0278   21.0149 O   0  0  0  0  0  0  0  0  0  0  0  0
    7.2440  -16.9972   20.7668 C   0  0  0  0  0  0  0  0  0  0  0  0
    7.9756  -15.6646   20.6716 C   0  0  2  0  0  0  0  0  0  0  0  0
    8.9593  -15.7238   19.6338 N   0  0  0  0  0  0  0  0  0  0  0  0
    8.5716  -15.3905   22.0089 C   0  0  0  0  0  0  0  0  0  0  0  0
    9.8029  -15.6308   22.2241 O   0  0  0  0  0  0  0  0  0  0  0  0
    6.3948  -11.2545   25.6026 C   0  0  0  0  0  0  0  0  0  0  0  0
    7.0749  -12.0920   27.0591 S   0  0  0  0  0  0  0  0  0  0  0  0
    7.5525  -13.8050   26.6365 C   0  0  0  0  0  0  0  0  0  0  0  0
    7.2630  -13.9899   25.1749 C   0  0  0  0  0  0  0  0  0  0  0  0
    8.3566  -14.7001   24.4492 C   0  0  2  0  0  0  0  0  0  0  0  0
    7.8271  -14.8678   23.0712 N   0  0  0  0  0  0  0  0  0  0  0  0
    8.8168  -15.9692   24.9779 C   0  0  0  0  0  0  0  0  0  0  0  0
    8.1004  -16.9976   24.7085 O   0  0  0  0  0  0  0  0  0  0  0  0
    9.9590  -16.2425   25.7555 N   0  0  0  0  0  0  0  0  0  0  0  0
   10.3215  -17.5706   26.2162 C   0  0  1  0  0  0  0  0  0  0  0  0
   11.4996  -18.0857   25.4214 C   0  0  0  0  0  0  0  0  0  0  0  0
   12.1320  -19.6327   26.0896 S   0  0  0  0  0  0  0  0  0  0  0  0
   10.7163  -17.5657   27.6483 C   0  0  0  0  0  0  0  0  0  0  0  0
   10.9982  -18.7880   28.2388 O   0  0  0  0  0  0  0  0  0  0  0  0
   10.7799  -16.4832   28.2604 O   0  0  0  0  0  0  0  0  0  0  0  0
  2  3  1  0
  2  1  1  0
  3  4  1  6
  3  5  1  0
  5 12  1  0
  5  6  2  0
  7  8  1  0
  8  9  1  0
  9 10  1  0
 11 10  1  1
 11 13  1  0
 12 11  1  0
 13 15  1  0
 13 14  2  0
 15 16  1  0
 16 19  1  0
 16 17  1  6
 18 17  1  0
 19 20  1  0
 21 19  2  0
M  END
$$$$
