SMC.pdb
     RDKit          3D

 21 20  0  0  1  0  0  0  0  0999 V2000
    7.7494  -17.6305   20.7290 O   0  0  0  0  0  0  0  0  0  0  0  0
    6.6044  -16.8324   20.6755 C   0  0  0  0  0  0  0  0  0  0  0  0
    6.9941  -15.3644   20.5603 C   0  0  2  0  0  0  0  0  0  0  0  0
    7.6908  -15.1420   19.3302 N   0  0  0  0  0  0  0  0  0  0  0  0
    7.8207  -15.0311   21.7537 C   0  0  0  0  0  0  0  0  0  0  0  0
    9.0898  -14.9920   21.6646 O   0  0  0  0  0  0  0  0  0  0  0  0
    6.0560  -10.8262   26.4083 C   0  0  0  0  0  0  0  0  0  0  0  0
    6.4215  -12.3532   27.3138 S   0  0  0  0  0  0  0  0  0  0  0  0
    7.6866  -13.3272   26.4240 C   0  0  0  0  0  0  0  0  0  0  0  0
    7.1168  -13.6506   25.0731 C   0  0  0  0  0  0  0  0  0  0  0  0
    8.0555  -14.4327   24.2163 C   0  0  2  0  0  0  0  0  0  0  0  0
    7.2588  -14.7508   23.0034 N   0  0  0  0  0  0  0  0  0  0  0  0
    8.6462  -15.6355   24.7699 C   0  0  0  0  0  0  0  0  0  0  0  0
    7.8803  -16.6588   24.8684 O   0  0  0  0  0  0  0  0  0  0  0  0
    9.9637  -15.8486   25.2201 N   0  0  0  0  0  0  0  0  0  0  0  0
   10.4542  -17.1274   25.7011 C   0  0  1  0  0  0  0  0  0  0  0  0
   11.9270  -17.2627   25.3887 C   0  0  0  0  0  0  0  0  0  0  0  0
   12.2658  -17.0078   23.6394 S   0  0  0  0  0  0  0  0  0  0  0  0
   10.2956  -17.2576   27.1724 C   0  0  0  0  0  0  0  0  0  0  0  0
   10.6818  -18.4552   27.7545 O   0  0  0  0  0  0  0  0  0  0  0  0
    9.8293  -16.3037   27.8229 O   0  0  0  0  0  0  0  0  0  0  0  0
  2  3  1  0
  2  1  1  0
  3  4  1  6
  3  5  1  0
  5 12  1  0
  5  6  2  0
  7  8  1  0
  8  9  1  0
  9 10  1  0
 11 10  1  1
 11 13  1  0
 12 11  1  0
 13 15  1  0
 13 14  2  0
 15 16  1  0
 16 19  1  0
 16 17  1  1
 18 17  1  0
 19 20  1  0
 21 19  2  0
M  END
$$$$
