SMC.pdb
     RDKit          3D

 21 20  0  0  1  0  0  0  0  0999 V2000
    8.2678  -17.8337   20.6106 O   0  0  0  0  0  0  0  0  0  0  0  0
    7.4907  -16.7687   20.1490 C   0  0  0  0  0  0  0  0  0  0  0  0
    8.2958  -15.4764   20.1902 C   0  0  2  0  0  0  0  0  0  0  0  0
    9.3806  -15.5502   19.2596 N   0  0  0  0  0  0  0  0  0  0  0  0
    8.7584  -15.2879   21.5934 C   0  0  0  0  0  0  0  0  0  0  0  0
    9.9525  -15.5833   21.9206 O   0  0  0  0  0  0  0  0  0  0  0  0
    6.9860  -10.5462   26.2409 C   0  0  0  0  0  0  0  0  0  0  0  0
    6.3705  -12.2143   26.5929 S   0  0  0  0  0  0  0  0  0  0  0  0
    7.5986  -13.4635   26.0710 C   0  0  0  0  0  0  0  0  0  0  0  0
    7.3222  -13.7693   24.6272 C   0  0  0  0  0  0  0  0  0  0  0  0
    8.3090  -14.7179   24.0329 C   0  0  2  0  0  0  0  0  0  0  0  0
    7.9250  -14.7887   22.5995 N   0  0  0  0  0  0  0  0  0  0  0  0
    8.4079  -16.0478   24.6019 C   0  0  0  0  0  0  0  0  0  0  0  0
    7.9307  -17.0094   23.9012 O   0  0  0  0  0  0  0  0  0  0  0  0
    8.9653  -16.4449   25.8329 N   0  0  0  0  0  0  0  0  0  0  0  0
    9.9551  -17.4982   25.9672 C   0  0  1  0  0  0  0  0  0  0  0  0
   11.1972  -17.1382   25.1845 C   0  0  0  0  0  0  0  0  0  0  0  0
   12.2995  -18.5482   24.9935 S   0  0  0  0  0  0  0  0  0  0  0  0
   10.3600  -17.6934   27.3831 C   0  0  0  0  0  0  0  0  0  0  0  0
   10.9883  -16.6349   28.0210 O   0  0  0  0  0  0  0  0  0  0  0  0
   10.1259  -18.7820   27.9405 O   0  0  0  0  0  0  0  0  0  0  0  0
  2  3  1  0
  2  1  1  0
  3  4  1  6
  3  5  1  0
  5 12  1  0
  5  6  2  0
  7  8  1  0
  8  9  1  0
  9 10  1  0
 11 10  1  1
 11 13  1  0
 12 11  1  0
 13 15  1  0
 13 14  2  0
 15 16  1  0
 16 19  1  0
 16 17  1  6
 18 17  1  0
 19 20  1  0
 21 19  2  0
M  END
$$$$
