SMC.pdb
     RDKit          3D

 21 20  0  0  1  0  0  0  0  0999 V2000
    7.7358  -17.2304   20.3048 O   0  0  0  0  0  0  0  0  0  0  0  0
    6.6578  -16.3499   20.4222 C   0  0  0  0  0  0  0  0  0  0  0  0
    7.1581  -14.9118   20.4618 C   0  0  2  0  0  0  0  0  0  0  0  0
    8.0149  -14.6647   19.3425 N   0  0  0  0  0  0  0  0  0  0  0  0
    7.8519  -14.7205   21.7659 C   0  0  0  0  0  0  0  0  0  0  0  0
    9.1234  -14.7322   21.8240 O   0  0  0  0  0  0  0  0  0  0  0  0
    6.1207  -11.0676   26.7771 C   0  0  0  0  0  0  0  0  0  0  0  0
    7.5784  -12.1247   26.9839 S   0  0  0  0  0  0  0  0  0  0  0  0
    7.1491  -13.8670   26.6359 C   0  0  0  0  0  0  0  0  0  0  0  0
    6.7280  -13.9326   25.1962 C   0  0  0  0  0  0  0  0  0  0  0  0
    7.8176  -14.4013   24.2907 C   0  0  2  0  0  0  0  0  0  0  0  0
    7.1590  -14.5230   22.9646 N   0  0  0  0  0  0  0  0  0  0  0  0
    8.5103  -15.6285   24.6320 C   0  0  0  0  0  0  0  0  0  0  0  0
    7.8412  -16.7162   24.5197 O   0  0  0  0  0  0  0  0  0  0  0  0
    9.8364  -15.8033   25.0735 N   0  0  0  0  0  0  0  0  0  0  0  0
   10.4150  -17.0951   25.3954 C   0  0  1  0  0  0  0  0  0  0  0  0
   11.8450  -17.1525   24.9091 C   0  0  0  0  0  0  0  0  0  0  0  0
   11.9570  -16.9033   23.1301 S   0  0  0  0  0  0  0  0  0  0  0  0
   10.4311  -17.3393   26.8607 C   0  0  0  0  0  0  0  0  0  0  0  0
    9.9066  -16.3516   27.6801 O   0  0  0  0  0  0  0  0  0  0  0  0
   10.9067  -18.4042   27.2969 O   0  0  0  0  0  0  0  0  0  0  0  0
  2  3  1  0
  2  1  1  0
  3  4  1  6
  3  5  1  0
  5 12  1  0
  5  6  2  0
  7  8  1  0
  8  9  1  0
  9 10  1  0
 11 10  1  1
 11 13  1  0
 12 11  1  0
 13 15  1  0
 13 14  2  0
 15 16  1  0
 16 19  1  0
 16 17  1  1
 18 17  1  0
 19 20  1  0
 21 19  2  0
M  END
$$$$
