SMC.pdb
     RDKit          3D

 21 20  0  0  1  0  0  0  0  0999 V2000
    5.4742  -17.1106   20.5520 O   0  0  0  0  0  0  0  0  0  0  0  0
    6.8536  -16.9561   20.3960 C   0  0  0  0  0  0  0  0  0  0  0  0
    7.2130  -15.4766   20.3492 C   0  0  2  0  0  0  0  0  0  0  0  0
    7.8736  -15.1762   19.1157 N   0  0  0  0  0  0  0  0  0  0  0  0
    8.0638  -15.1902   21.5377 C   0  0  0  0  0  0  0  0  0  0  0  0
    9.3045  -15.4740   21.5221 O   0  0  0  0  0  0  0  0  0  0  0  0
    5.3617  -12.2422   26.5828 C   0  0  0  0  0  0  0  0  0  0  0  0
    7.1127  -11.8655   26.8611 S   0  0  0  0  0  0  0  0  0  0  0  0
    8.1645  -13.1401   26.0800 C   0  0  0  0  0  0  0  0  0  0  0  0
    7.5234  -13.4897   24.7680 C   0  0  0  0  0  0  0  0  0  0  0  0
    8.3433  -14.4316   23.9511 C   0  0  2  0  0  0  0  0  0  0  0  0
    7.5558  -14.6088   22.7039 N   0  0  0  0  0  0  0  0  0  0  0  0
    8.6850  -15.7175   24.5270 C   0  0  0  0  0  0  0  0  0  0  0  0
    7.8576  -16.6756   24.3251 O   0  0  0  0  0  0  0  0  0  0  0  0
    9.8159  -16.0750   25.2867 N   0  0  0  0  0  0  0  0  0  0  0  0
   10.1854  -17.4467   25.5855 C   0  0  1  0  0  0  0  0  0  0  0  0
   10.9355  -18.0426   24.4163 C   0  0  0  0  0  0  0  0  0  0  0  0
   12.3848  -17.0666   23.9840 S   0  0  0  0  0  0  0  0  0  0  0  0
   11.0723  -17.5295   26.7744 C   0  0  0  0  0  0  0  0  0  0  0  0
   11.4292  -16.3401   27.3909 O   0  0  0  0  0  0  0  0  0  0  0  0
   11.4591  -18.6447   27.1710 O   0  0  0  0  0  0  0  0  0  0  0  0
  2  3  1  0
  2  1  1  0
  3  4  1  6
  3  5  1  0
  5 12  1  0
  5  6  2  0
  7  8  1  0
  8  9  1  0
  9 10  1  0
 11 10  1  1
 11 13  1  0
 12 11  1  0
 13 15  1  0
 13 14  2  0
 15 16  1  0
 16 19  1  0
 16 17  1  6
 18 17  1  0
 19 20  1  0
 21 19  2  0
M  END
$$$$
