SMC.pdb
     RDKit          3D

 21 20  0  0  1  0  0  0  0  0999 V2000
    9.2303  -18.0432   21.0047 O   0  0  0  0  0  0  0  0  0  0  0  0
    8.2397  -17.2097   20.4803 C   0  0  0  0  0  0  0  0  0  0  0  0
    8.6960  -15.7573   20.5318 C   0  0  2  0  0  0  0  0  0  0  0  0
    9.7627  -15.5502   19.6004 N   0  0  0  0  0  0  0  0  0  0  0  0
    9.0999  -15.4700   21.9364 C   0  0  0  0  0  0  0  0  0  0  0  0
   10.3268  -15.5119   22.2726 O   0  0  0  0  0  0  0  0  0  0  0  0
    6.9194  -10.9563   26.6086 C   0  0  0  0  0  0  0  0  0  0  0  0
    6.2090  -12.6155   26.7742 S   0  0  0  0  0  0  0  0  0  0  0  0
    7.4627  -13.8824   26.3687 C   0  0  0  0  0  0  0  0  0  0  0  0
    7.3635  -14.1363   24.8922 C   0  0  0  0  0  0  0  0  0  0  0  0
    8.5430  -14.8694   24.3461 C   0  0  2  0  0  0  0  0  0  0  0  0
    8.1744  -15.1474   22.9341 N   0  0  0  0  0  0  0  0  0  0  0  0
    8.9617  -16.0860   25.0142 C   0  0  0  0  0  0  0  0  0  0  0  0
    8.1873  -17.1010   24.8981 O   0  0  0  0  0  0  0  0  0  0  0  0
   10.1183  -16.3208   25.7832 N   0  0  0  0  0  0  0  0  0  0  0  0
   10.4523  -17.6086   26.3640 C   0  0  1  0  0  0  0  0  0  0  0  0
   11.9333  -17.8708   26.2139 C   0  0  0  0  0  0  0  0  0  0  0  0
   12.4755  -17.6870   24.5074 S   0  0  0  0  0  0  0  0  0  0  0  0
   10.1349  -17.6552   27.8145 C   0  0  0  0  0  0  0  0  0  0  0  0
   10.4223  -18.8281   28.4954 O   0  0  0  0  0  0  0  0  0  0  0  0
    9.6302  -16.6568   28.3614 O   0  0  0  0  0  0  0  0  0  0  0  0
  2  3  1  0
  2  1  1  0
  3  4  1  6
  3  5  1  0
  5 12  1  0
  5  6  2  0
  7  8  1  0
  8  9  1  0
  9 10  1  0
 11 10  1  1
 11 13  1  0
 12 11  1  0
 13 15  1  0
 13 14  2  0
 15 16  1  0
 16 19  1  0
 16 17  1  1
 18 17  1  0
 19 20  1  0
 21 19  2  0
M  END
$$$$
