SMC.pdb
     RDKit          3D

 21 20  0  0  1  0  0  0  0  0999 V2000
    7.0176  -19.8493   23.4214 O   0  0  0  0  0  0  0  0  0  0  0  0
    5.8207  -19.1297   23.4479 C   0  0  0  0  0  0  0  0  0  0  0  0
    5.9491  -17.8684   22.6037 C   0  0  2  0  0  0  0  0  0  0  0  0
    6.2036  -18.2206   21.2401 N   0  0  0  0  0  0  0  0  0  0  0  0
    7.0429  -17.0491   23.1960 C   0  0  0  0  0  0  0  0  0  0  0  0
    8.2010  -17.0468   22.6679 O   0  0  0  0  0  0  0  0  0  0  0  0
    6.1748  -11.4716   26.2476 C   0  0  0  0  0  0  0  0  0  0  0  0
    7.1421  -12.3790   27.4830 S   0  0  0  0  0  0  0  0  0  0  0  0
    8.1633  -13.6584   26.6697 C   0  0  0  0  0  0  0  0  0  0  0  0
    7.2376  -14.4783   25.8182 C   0  0  0  0  0  0  0  0  0  0  0  0
    7.9502  -15.5091   25.0079 C   0  0  2  0  0  0  0  0  0  0  0  0
    6.8584  -16.2591   24.3353 N   0  0  0  0  0  0  0  0  0  0  0  0
    8.8478  -16.4180   25.6936 C   0  0  0  0  0  0  0  0  0  0  0  0
    8.3050  -17.3820   26.3411 O   0  0  0  0  0  0  0  0  0  0  0  0
   10.2551  -16.3980   25.7501 N   0  0  0  0  0  0  0  0  0  0  0  0
   11.0484  -17.3993   26.4395 C   0  0  1  0  0  0  0  0  0  0  0  0
   12.4556  -17.4086   25.8876 C   0  0  0  0  0  0  0  0  0  0  0  0
   12.4698  -17.5654   24.0946 S   0  0  0  0  0  0  0  0  0  0  0  0
   11.1411  -17.1189   27.8954 C   0  0  0  0  0  0  0  0  0  0  0  0
   11.8951  -17.9886   28.6681 O   0  0  0  0  0  0  0  0  0  0  0  0
   10.5490  -16.1294   28.3654 O   0  0  0  0  0  0  0  0  0  0  0  0
  2  3  1  0
  2  1  1  0
  3  4  1  6
  3  5  1  0
  5 12  1  0
  5  6  2  0
  7  8  1  0
  8  9  1  0
  9 10  1  0
 11 10  1  1
 11 13  1  0
 12 11  1  0
 13 15  1  0
 13 14  2  0
 15 16  1  0
 16 19  1  0
 16 17  1  6
 18 17  1  0
 19 20  1  0
 21 19  2  0
M  END
$$$$
