SMC.pdb
     RDKit          3D

 21 20  0  0  1  0  0  0  0  0999 V2000
    8.8119  -17.9929   20.8493 O   0  0  0  0  0  0  0  0  0  0  0  0
    8.1227  -16.9070   20.3044 C   0  0  0  0  0  0  0  0  0  0  0  0
    8.9334  -15.6297   20.4818 C   0  0  2  0  0  0  0  0  0  0  0  0
   10.1907  -15.7554   19.8098 N   0  0  0  0  0  0  0  0  0  0  0  0
    9.0879  -15.4035   21.9458 C   0  0  0  0  0  0  0  0  0  0  0  0
   10.2201  -15.5660   22.5043 O   0  0  0  0  0  0  0  0  0  0  0  0
    8.0046  -12.0021   28.1123 C   0  0  0  0  0  0  0  0  0  0  0  0
    8.1025  -12.5707   26.3940 S   0  0  0  0  0  0  0  0  0  0  0  0
    6.7626  -13.7646   26.0470 C   0  0  0  0  0  0  0  0  0  0  0  0
    6.8531  -14.1089   24.5884 C   0  0  0  0  0  0  0  0  0  0  0  0
    8.1506  -14.7468   24.2192 C   0  0  2  0  0  0  0  0  0  0  0  0
    8.0229  -15.0103   22.7627 N   0  0  0  0  0  0  0  0  0  0  0  0
    8.5461  -15.9506   24.9238 C   0  0  0  0  0  0  0  0  0  0  0  0
    7.9994  -17.0455   24.5422 O   0  0  0  0  0  0  0  0  0  0  0  0
    9.4628  -16.0957   25.9833 N   0  0  0  0  0  0  0  0  0  0  0  0
    9.9932  -17.3741   26.4209 C   0  0  1  0  0  0  0  0  0  0  0  0
   11.1640  -17.7692   25.5502 C   0  0  0  0  0  0  0  0  0  0  0  0
   11.9817  -19.2516   26.1614 S   0  0  0  0  0  0  0  0  0  0  0  0
   10.4790  -17.3155   27.8235 C   0  0  0  0  0  0  0  0  0  0  0  0
   10.3945  -18.4747   28.5793 O   0  0  0  0  0  0  0  0  0  0  0  0
   10.9381  -16.2460   28.2664 O   0  0  0  0  0  0  0  0  0  0  0  0
  2  3  1  0
  2  1  1  0
  3  4  1  6
  3  5  1  0
  5 12  1  0
  5  6  2  0
  7  8  1  0
  8  9  1  0
  9 10  1  0
 11 10  1  1
 11 13  1  0
 12 11  1  0
 13 15  1  0
 13 14  2  0
 15 16  1  0
 16 19  1  0
 16 17  1  6
 18 17  1  0
 19 20  1  0
 21 19  2  0
M  END
$$$$
