SMC.pdb
     RDKit          3D

 21 20  0  0  1  0  0  0  0  0999 V2000
    9.6770  -17.8253   20.8548 O   0  0  0  0  0  0  0  0  0  0  0  0
    8.5073  -17.0728   20.7255 C   0  0  0  0  0  0  0  0  0  0  0  0
    8.8137  -15.5923   20.9105 C   0  0  2  0  0  0  0  0  0  0  0  0
    9.9309  -15.2222   20.0961 N   0  0  0  0  0  0  0  0  0  0  0  0
    9.0661  -15.3707   22.3616 C   0  0  0  0  0  0  0  0  0  0  0  0
   10.2503  -15.1731   22.7842 O   0  0  0  0  0  0  0  0  0  0  0  0
    7.0720  -10.9504   26.6938 C   0  0  0  0  0  0  0  0  0  0  0  0
    7.4858  -12.7140   26.6313 S   0  0  0  0  0  0  0  0  0  0  0  0
    6.5471  -13.5356   25.2953 C   0  0  0  0  0  0  0  0  0  0  0  0
    6.9133  -14.9911   25.3373 C   0  0  0  0  0  0  0  0  0  0  0  0
    8.2681  -15.2680   24.7763 C   0  0  2  0  0  0  0  0  0  0  0  0
    8.0397  -15.3684   23.3118 N   0  0  0  0  0  0  0  0  0  0  0  0
    8.9856  -16.4301   25.2627 C   0  0  0  0  0  0  0  0  0  0  0  0
    8.4151  -17.5667   25.1013 O   0  0  0  0  0  0  0  0  0  0  0  0
   10.2426  -16.4939   25.8950 N   0  0  0  0  0  0  0  0  0  0  0  0
   10.8429  -17.7263   26.3726 C   0  0  1  0  0  0  0  0  0  0  0  0
   12.3413  -17.6758   26.1799 C   0  0  0  0  0  0  0  0  0  0  0  0
   12.7840  -17.2097   24.4987 S   0  0  0  0  0  0  0  0  0  0  0  0
   10.5854  -17.9369   27.8205 C   0  0  0  0  0  0  0  0  0  0  0  0
   11.1446  -19.0583   28.4137 O   0  0  0  0  0  0  0  0  0  0  0  0
    9.8882  -17.1138   28.4425 O   0  0  0  0  0  0  0  0  0  0  0  0
  2  3  1  0
  2  1  1  0
  3  4  1  6
  3  5  1  0
  5 12  1  0
  5  6  2  0
  7  8  1  0
  8  9  1  0
  9 10  1  0
 11 10  1  1
 11 13  1  0
 12 11  1  0
 13 15  1  0
 13 14  2  0
 15 16  1  0
 16 19  1  0
 16 17  1  1
 18 17  1  0
 19 20  1  0
 21 19  2  0
M  END
$$$$
