SMC.pdb
     RDKit          3D

 21 20  0  0  1  0  0  0  0  0999 V2000
    7.2737  -17.9358   21.2689 O   0  0  0  0  0  0  0  0  0  0  0  0
    7.9403  -17.3161   20.2092 C   0  0  0  0  0  0  0  0  0  0  0  0
    7.8475  -15.8019   20.3460 C   0  0  2  0  0  0  0  0  0  0  0  0
    8.5211  -15.1733   19.2509 N   0  0  0  0  0  0  0  0  0  0  0  0
    8.4386  -15.4397   21.6644 C   0  0  0  0  0  0  0  0  0  0  0  0
    9.7013  -15.4461   21.8250 O   0  0  0  0  0  0  0  0  0  0  0  0
    6.7632  -10.8163   26.8085 C   0  0  0  0  0  0  0  0  0  0  0  0
    6.1127  -12.5076   26.7707 S   0  0  0  0  0  0  0  0  0  0  0  0
    7.4073  -13.6694   26.2091 C   0  0  0  0  0  0  0  0  0  0  0  0
    7.1021  -14.0025   24.7772 C   0  0  0  0  0  0  0  0  0  0  0  0
    8.2132  -14.7320   24.0988 C   0  0  2  0  0  0  0  0  0  0  0  0
    7.6558  -15.0826   22.7670 N   0  0  0  0  0  0  0  0  0  0  0  0
    8.7584  -15.9070   24.7502 C   0  0  0  0  0  0  0  0  0  0  0  0
    7.9712  -16.9107   24.8773 O   0  0  0  0  0  0  0  0  0  0  0  0
   10.0515  -16.1114   25.2698 N   0  0  0  0  0  0  0  0  0  0  0  0
   10.5038  -17.3702   25.8337 C   0  0  1  0  0  0  0  0  0  0  0  0
   11.9883  -17.5334   25.6000 C   0  0  0  0  0  0  0  0  0  0  0  0
   12.4057  -17.4295   23.8523 S   0  0  0  0  0  0  0  0  0  0  0  0
   10.2731  -17.4290   27.3000 C   0  0  0  0  0  0  0  0  0  0  0  0
    9.6975  -16.3209   27.9025 O   0  0  0  0  0  0  0  0  0  0  0  0
   10.5984  -18.4535   27.9286 O   0  0  0  0  0  0  0  0  0  0  0  0
  2  3  1  0
  2  1  1  0
  3  4  1  6
  3  5  1  0
  5 12  1  0
  5  6  2  0
  7  8  1  0
  8  9  1  0
  9 10  1  0
 11 10  1  1
 11 13  1  0
 12 11  1  0
 13 15  1  0
 13 14  2  0
 15 16  1  0
 16 19  1  0
 16 17  1  1
 18 17  1  0
 19 20  1  0
 21 19  2  0
M  END
$$$$
