SMC.pdb
     RDKit          3D

 21 20  0  0  1  0  0  0  0  0999 V2000
    8.6495  -21.2633   20.2299 O   0  0  0  0  0  0  0  0  0  0  0  0
    7.4495  -20.6086   19.9429 C   0  0  0  0  0  0  0  0  0  0  0  0
    7.6717  -19.5570   18.8636 C   0  0  2  0  0  0  0  0  0  0  0  0
    8.2492  -20.1656   17.7042 N   0  0  0  0  0  0  0  0  0  0  0  0
    8.5433  -18.5001   19.4484 C   0  0  0  0  0  0  0  0  0  0  0  0
    9.8085  -18.5738   19.3303 O   0  0  0  0  0  0  0  0  0  0  0  0
    6.7153  -12.2355   19.8976 C   0  0  0  0  0  0  0  0  0  0  0  0
    7.2911  -12.6589   21.5632 S   0  0  0  0  0  0  0  0  0  0  0  0
    8.5745  -13.9576   21.4763 C   0  0  0  0  0  0  0  0  0  0  0  0
    7.9287  -15.1680   20.8663 C   0  0  0  0  0  0  0  0  0  0  0  0
    8.8691  -16.3168   20.7152 C   0  0  2  0  0  0  0  0  0  0  0  0
    8.0290  -17.3990   20.1406 N   0  0  0  0  0  0  0  0  0  0  0  0
    9.5712  -16.7857   21.8938 C   0  0  0  0  0  0  0  0  0  0  0  0
    8.9341  -17.5933   22.6588 O   0  0  0  0  0  0  0  0  0  0  0  0
   10.8764  -16.4808   22.3267 N   0  0  0  0  0  0  0  0  0  0  0  0
   11.5046  -17.0905   23.4847 C   0  0  1  0  0  0  0  0  0  0  0  0
   11.7712  -18.5534   23.2133 C   0  0  0  0  0  0  0  0  0  0  0  0
   11.8690  -19.5091   24.7354 S   0  0  0  0  0  0  0  0  0  0  0  0
   12.8068  -16.4505   23.8031 C   0  0  0  0  0  0  0  0  0  0  0  0
   13.3977  -16.7700   25.0159 O   0  0  0  0  0  0  0  0  0  0  0  0
   13.3158  -15.6619   22.9847 O   0  0  0  0  0  0  0  0  0  0  0  0
  2  3  1  0
  2  1  1  0
  3  4  1  6
  3  5  1  0
  5 12  1  0
  5  6  2  0
  7  8  1  0
  8  9  1  0
  9 10  1  0
 11 10  1  1
 11 13  1  0
 12 11  1  0
 13 15  1  0
 13 14  2  0
 15 16  1  0
 16 19  1  0
 16 17  1  6
 18 17  1  0
 19 20  1  0
 21 19  2  0
M  END
$$$$
