AQA.pdb
     RDKit          3D

 20 19  0  0  1  0  0  0  0  0999 V2000
   16.4955  -14.2520   18.8632 C   0  0  0  0  0  0  0  0  0  0  0  0
   15.5060  -14.3702   17.7193 C   0  0  2  0  0  0  0  0  0  0  0  0
   15.5018  -13.2294   16.8604 N   0  0  0  0  0  0  0  0  0  0  0  0
   14.1783  -14.6606   18.3104 C   0  0  0  0  0  0  0  0  0  0  0  0
   13.4348  -13.6533   18.5343 O   0  0  0  0  0  0  0  0  0  0  0  0
    9.1695  -19.3488   17.5768 N   0  0  0  0  0  0  0  0  0  0  0  0
   10.0590  -19.2797   18.6892 C   0  0  0  0  0  0  0  0  0  0  0  0
   10.3980  -20.3564   19.2372 O   0  0  0  0  0  0  0  0  0  0  0  0
   10.5323  -17.9491   19.1351 C   0  0  0  0  0  0  0  0  0  0  0  0
   11.8859  -17.5927   18.6511 C   0  0  0  0  0  0  0  0  0  0  0  0
   12.3900  -16.2331   19.1149 C   0  0  2  0  0  0  0  0  0  0  0  0
   13.7306  -15.9752   18.6211 N   0  0  0  0  0  0  0  0  0  0  0  0
   12.4309  -16.3102   20.5940 C   0  0  0  0  0  0  0  0  0  0  0  0
   13.4841  -16.7145   21.1351 O   0  0  0  0  0  0  0  0  0  0  0  0
   10.3122  -15.3162   23.4914 C   0  0  0  0  0  0  0  0  0  0  0  0
   11.5274  -15.9500   22.8625 C   0  0  2  0  0  0  0  0  0  0  0  0
   11.3444  -15.9519   21.4272 N   0  0  0  0  0  0  0  0  0  0  0  0
   11.7557  -17.3300   23.3599 C   0  0  0  0  0  0  0  0  0  0  0  0
   12.4859  -17.5943   24.4940 O   0  0  0  0  0  0  0  0  0  0  0  0
   11.2619  -18.2932   22.7189 O   0  0  0  0  0  0  0  0  0  0  0  0
  2  1  1  1
  2  3  1  0
  4  5  2  0
  4  2  1  0
  6  7  1  0
  7  9  1  0
  7  8  2  0
  9 10  1  0
 11 10  1  6
 11 12  1  0
 12  4  1  0
 13 11  1  0
 14 13  2  0
 16 15  1  1
 16 18  1  0
 16 17  1  0
 17 13  1  0
 18 19  1  0
 20 18  2  0
M  END
$$$$
