AQA.pdb
     RDKit          3D

 20 19  0  0  1  0  0  0  0  0999 V2000
    7.5531  -20.1084   18.1247 C   0  0  0  0  0  0  0  0  0  0  0  0
    7.4664  -18.8033   17.3563 C   0  0  2  0  0  0  0  0  0  0  0  0
    8.0531  -18.8770   16.0564 N   0  0  0  0  0  0  0  0  0  0  0  0
    8.0644  -17.7476   18.2074 C   0  0  0  0  0  0  0  0  0  0  0  0
    9.3233  -17.5964   18.1071 O   0  0  0  0  0  0  0  0  0  0  0  0
    7.6722  -12.6771   19.1551 N   0  0  0  0  0  0  0  0  0  0  0  0
    7.8893  -12.6940   20.5644 C   0  0  0  0  0  0  0  0  0  0  0  0
    8.4524  -11.7000   21.0834 O   0  0  0  0  0  0  0  0  0  0  0  0
    7.4408  -13.8764   21.3352 C   0  0  0  0  0  0  0  0  0  0  0  0
    6.8868  -14.9692   20.5031 C   0  0  0  0  0  0  0  0  0  0  0  0
    7.9263  -15.9224   19.9300 C   0  0  2  0  0  0  0  0  0  0  0  0
    7.3051  -16.9339   19.0944 N   0  0  0  0  0  0  0  0  0  0  0  0
    8.5452  -16.5837   21.1026 C   0  0  0  0  0  0  0  0  0  0  0  0
    7.8690  -17.4309   21.7276 O   0  0  0  0  0  0  0  0  0  0  0  0
   11.9097  -17.0060   22.5724 C   0  0  0  0  0  0  0  0  0  0  0  0
   10.4055  -17.0864   22.6449 C   0  0  2  0  0  0  0  0  0  0  0  0
    9.8583  -16.3095   21.5538 N   0  0  0  0  0  0  0  0  0  0  0  0
    9.8841  -16.5963   23.9455 C   0  0  0  0  0  0  0  0  0  0  0  0
    9.0767  -15.4884   24.0467 O   0  0  0  0  0  0  0  0  0  0  0  0
   10.1931  -17.2187   24.9941 O   0  0  0  0  0  0  0  0  0  0  0  0
  2  1  1  1
  2  3  1  0
  4  5  2  0
  4  2  1  0
  6  7  1  0
  7  9  1  0
  7  8  2  0
  9 10  1  0
 11 10  1  1
 11 12  1  0
 12  4  1  0
 13 11  1  0
 14 13  2  0
 16 15  1  1
 16 18  1  0
 16 17  1  0
 17 13  1  0
 18 19  1  0
 20 18  2  0
M  END
$$$$
