AQA.pdb
     RDKit          3D

 20 19  0  0  1  0  0  0  0  0999 V2000
    7.2386  -14.4863   21.7090 C   0  0  0  0  0  0  0  0  0  0  0  0
    8.2754  -15.1640   20.8332 C   0  0  2  0  0  0  0  0  0  0  0  0
    7.7087  -16.0937   19.9091 N   0  0  0  0  0  0  0  0  0  0  0  0
    9.2832  -15.7751   21.7317 C   0  0  0  0  0  0  0  0  0  0  0  0
    9.0151  -16.9429   22.1586 O   0  0  0  0  0  0  0  0  0  0  0  0
   15.6969  -15.8122   22.1837 N   0  0  0  0  0  0  0  0  0  0  0  0
   14.3962  -15.7898   21.5997 C   0  0  0  0  0  0  0  0  0  0  0  0
   14.0838  -16.7278   20.8269 O   0  0  0  0  0  0  0  0  0  0  0  0
   13.4894  -14.6679   21.9347 C   0  0  0  0  0  0  0  0  0  0  0  0
   12.6922  -14.8782   23.1651 C   0  0  0  0  0  0  0  0  0  0  0  0
   11.4624  -15.7571   22.9841 C   0  0  2  0  0  0  0  0  0  0  0  0
   10.4887  -15.1227   22.1141 N   0  0  0  0  0  0  0  0  0  0  0  0
   10.8753  -15.8988   24.3372 C   0  0  0  0  0  0  0  0  0  0  0  0
   10.6113  -14.8571   24.9781 O   0  0  0  0  0  0  0  0  0  0  0  0
    8.7292  -17.7683   26.3054 C   0  0  0  0  0  0  0  0  0  0  0  0
   10.1163  -17.1766   26.3077 C   0  0  2  0  0  0  0  0  0  0  0  0
   10.5973  -17.1470   24.9435 N   0  0  0  0  0  0  0  0  0  0  0  0
   11.0476  -17.9451   27.1714 C   0  0  0  0  0  0  0  0  0  0  0  0
   12.1663  -18.5716   26.6761 O   0  0  0  0  0  0  0  0  0  0  0  0
   10.8032  -18.0255   28.4028 O   0  0  0  0  0  0  0  0  0  0  0  0
  2  1  1  1
  2  3  1  0
  4  5  2  0
  4  2  1  0
  6  7  1  0
  7  9  1  0
  7  8  2  0
  9 10  1  0
 11 10  1  1
 11 12  1  0
 12  4  1  0
 13 11  1  0
 14 13  2  0
 16 15  1  6
 16 18  1  0
 16 17  1  0
 17 13  1  0
 18 19  1  0
 20 18  2  0
M  END
$$$$
