AQA.pdb
     RDKit          3D

 20 19  0  0  1  0  0  0  0  0999 V2000
    7.3891  -12.7199   19.5272 C   0  0  0  0  0  0  0  0  0  0  0  0
    8.4951  -13.4839   20.2305 C   0  0  2  0  0  0  0  0  0  0  0  0
    8.9599  -14.6108   19.4866 N   0  0  0  0  0  0  0  0  0  0  0  0
    7.9981  -13.8405   21.5803 C   0  0  0  0  0  0  0  0  0  0  0  0
    7.5431  -12.8801   22.2792 O   0  0  0  0  0  0  0  0  0  0  0  0
    7.1901  -19.7437   23.9922 N   0  0  0  0  0  0  0  0  0  0  0  0
    6.6655  -18.9092   25.0226 C   0  0  0  0  0  0  0  0  0  0  0  0
    6.1518  -19.4652   26.0234 O   0  0  0  0  0  0  0  0  0  0  0  0
    6.7550  -17.4402   24.8576 C   0  0  0  0  0  0  0  0  0  0  0  0
    7.2829  -17.0078   23.5431 C   0  0  0  0  0  0  0  0  0  0  0  0
    7.4195  -15.5008   23.3766 C   0  0  2  0  0  0  0  0  0  0  0  0
    8.0141  -15.1672   22.0950 N   0  0  0  0  0  0  0  0  0  0  0  0
    8.3349  -15.0651   24.4573 C   0  0  0  0  0  0  0  0  0  0  0  0
    9.5586  -15.2862   24.3191 O   0  0  0  0  0  0  0  0  0  0  0  0
    8.3421  -12.6459   27.1892 C   0  0  0  0  0  0  0  0  0  0  0  0
    8.8870  -13.9061   26.5653 C   0  0  2  0  0  0  0  0  0  0  0  0
    7.9007  -14.4133   25.6361 N   0  0  0  0  0  0  0  0  0  0  0  0
    9.2184  -14.9333   27.5845 C   0  0  0  0  0  0  0  0  0  0  0  0
   10.2312  -14.7659   28.4987 O   0  0  0  0  0  0  0  0  0  0  0  0
    8.5468  -15.9966   27.6120 O   0  0  0  0  0  0  0  0  0  0  0  0
  2  1  1  6
  2  3  1  0
  4  5  2  0
  4  2  1  0
  6  7  1  0
  7  9  1  0
  7  8  2  0
  9 10  1  0
 11 10  1  6
 11 12  1  0
 12  4  1  0
 13 11  1  0
 14 13  2  0
 16 15  1  1
 16 18  1  0
 16 17  1  0
 17 13  1  0
 18 19  1  0
 20 18  2  0
M  END
$$$$
