AQA.pdb
     RDKit          3D

 20 19  0  0  1  0  0  0  0  0999 V2000
    7.6136  -12.6619   20.0750 C   0  0  0  0  0  0  0  0  0  0  0  0
    8.1091  -13.1643   18.7320 C   0  0  2  0  0  0  0  0  0  0  0  0
    7.0534  -13.5709   17.8604 N   0  0  0  0  0  0  0  0  0  0  0  0
    9.0937  -14.2398   18.9973 C   0  0  0  0  0  0  0  0  0  0  0  0
    8.6692  -15.4310   18.8616 O   0  0  0  0  0  0  0  0  0  0  0  0
   15.3569  -13.7679   18.3800 N   0  0  0  0  0  0  0  0  0  0  0  0
   15.2027  -15.1368   18.7487 C   0  0  0  0  0  0  0  0  0  0  0  0
   16.2240  -15.8657   18.7388 O   0  0  0  0  0  0  0  0  0  0  0  0
   13.8539  -15.6215   19.1217 C   0  0  0  0  0  0  0  0  0  0  0  0
   12.8115  -14.5694   19.1300 C   0  0  0  0  0  0  0  0  0  0  0  0
   11.4172  -15.0581   19.4971 C   0  0  2  0  0  0  0  0  0  0  0  0
   10.4408  -13.9899   19.3823 N   0  0  0  0  0  0  0  0  0  0  0  0
   11.5057  -15.4757   20.9160 C   0  0  0  0  0  0  0  0  0  0  0  0
   11.7003  -14.5921   21.7803 O   0  0  0  0  0  0  0  0  0  0  0  0
   10.8041  -18.5206   22.9271 C   0  0  0  0  0  0  0  0  0  0  0  0
   11.2764  -17.0979   22.7620 C   0  0  2  0  0  0  0  0  0  0  0  0
   11.3822  -16.8183   21.3464 N   0  0  0  0  0  0  0  0  0  0  0  0
   12.5769  -16.8614   23.4377 C   0  0  0  0  0  0  0  0  0  0  0  0
   12.6763  -16.6425   24.7911 O   0  0  0  0  0  0  0  0  0  0  0  0
   13.6271  -16.8614   22.7452 O   0  0  0  0  0  0  0  0  0  0  0  0
  2  1  1  1
  2  3  1  0
  4  5  2  0
  4  2  1  0
  6  7  1  0
  7  9  1  0
  7  8  2  0
  9 10  1  0
 11 10  1  1
 11 12  1  0
 12  4  1  0
 13 11  1  0
 14 13  2  0
 16 15  1  6
 16 18  1  0
 16 17  1  0
 17 13  1  0
 18 19  1  0
 20 18  2  0
M  END
$$$$
