AQA.pdb
     RDKit          3D

 20 19  0  0  1  0  0  0  0  0999 V2000
    7.6558  -18.6425   17.0081 C   0  0  0  0  0  0  0  0  0  0  0  0
    8.5350  -17.4343   17.2707 C   0  0  2  0  0  0  0  0  0  0  0  0
    9.3349  -17.0669   16.1463 N   0  0  0  0  0  0  0  0  0  0  0  0
    9.3334  -17.7232   18.4854 C   0  0  0  0  0  0  0  0  0  0  0  0
    8.6728  -18.0390   19.5254 O   0  0  0  0  0  0  0  0  0  0  0  0
   15.6534  -18.7490   18.6654 N   0  0  0  0  0  0  0  0  0  0  0  0
   15.2437  -19.0987   19.9858 C   0  0  0  0  0  0  0  0  0  0  0  0
   16.1197  -19.5185   20.7801 O   0  0  0  0  0  0  0  0  0  0  0  0
   13.8153  -18.9481   20.3466 C   0  0  0  0  0  0  0  0  0  0  0  0
   12.9924  -18.2892   19.3063 C   0  0  0  0  0  0  0  0  0  0  0  0
   11.5168  -18.1516   19.6546 C   0  0  2  0  0  0  0  0  0  0  0  0
   10.7547  -17.6603   18.5209 N   0  0  0  0  0  0  0  0  0  0  0  0
   11.4596  -17.1467   20.7420 C   0  0  0  0  0  0  0  0  0  0  0  0
   12.0545  -16.0591   20.5725 O   0  0  0  0  0  0  0  0  0  0  0  0
    9.3893  -16.1691   23.5200 C   0  0  0  0  0  0  0  0  0  0  0  0
   10.7835  -16.3054   22.9617 C   0  0  2  0  0  0  0  0  0  0  0  0
   10.7694  -17.3500   21.9607 N   0  0  0  0  0  0  0  0  0  0  0  0
   11.7790  -16.6118   24.0195 C   0  0  0  0  0  0  0  0  0  0  0  0
   12.4385  -17.8160   24.0859 O   0  0  0  0  0  0  0  0  0  0  0  0
   12.0280  -15.7359   24.8875 O   0  0  0  0  0  0  0  0  0  0  0  0
  2  1  1  6
  2  3  1  0
  4  5  2  0
  4  2  1  0
  6  7  1  0
  7  9  1  0
  7  8  2  0
  9 10  1  0
 11 10  1  6
 11 12  1  0
 12  4  1  0
 13 11  1  0
 14 13  2  0
 16 15  1  1
 16 18  1  0
 16 17  1  0
 17 13  1  0
 18 19  1  0
 20 18  2  0
M  END
$$$$
