AQA.pdb
     RDKit          3D

 20 19  0  0  1  0  0  0  0  0999 V2000
    6.6608  -20.5890   19.3655 C   0  0  0  0  0  0  0  0  0  0  0  0
    6.4386  -19.3471   20.2079 C   0  0  2  0  0  0  0  0  0  0  0  0
    5.5353  -18.4169   19.6095 N   0  0  0  0  0  0  0  0  0  0  0  0
    7.7700  -18.7640   20.4971 C   0  0  0  0  0  0  0  0  0  0  0  0
    8.5991  -19.5296   21.0837 O   0  0  0  0  0  0  0  0  0  0  0  0
   10.3460  -13.4326   18.0662 N   0  0  0  0  0  0  0  0  0  0  0  0
   11.3670  -13.9004   18.9450 C   0  0  0  0  0  0  0  0  0  0  0  0
   12.4737  -13.3094   18.9260 O   0  0  0  0  0  0  0  0  0  0  0  0
   11.0679  -15.0512   19.8279 C   0  0  0  0  0  0  0  0  0  0  0  0
    9.7301  -15.6494   19.6135 C   0  0  0  0  0  0  0  0  0  0  0  0
    9.4494  -16.8946   20.4432 C   0  0  2  0  0  0  0  0  0  0  0  0
    8.1322  -17.4314   20.1529 N   0  0  0  0  0  0  0  0  0  0  0  0
    9.4829  -16.4447   21.8546 C   0  0  0  0  0  0  0  0  0  0  0  0
    8.5197  -15.7701   22.2821 O   0  0  0  0  0  0  0  0  0  0  0  0
    9.3256  -17.0156   24.7862 C   0  0  0  0  0  0  0  0  0  0  0  0
   10.4594  -16.2816   24.1155 C   0  0  2  0  0  0  0  0  0  0  0  0
   10.5440  -16.7363   22.7446 N   0  0  0  0  0  0  0  0  0  0  0  0
   11.7513  -16.4947   24.8151 C   0  0  0  0  0  0  0  0  0  0  0  0
   12.0228  -15.9476   26.0465 O   0  0  0  0  0  0  0  0  0  0  0  0
   12.6303  -17.2027   24.2595 O   0  0  0  0  0  0  0  0  0  0  0  0
  2  1  1  6
  2  3  1  0
  4  5  2  0
  4  2  1  0
  6  7  1  0
  7  9  1  0
  7  8  2  0
  9 10  1  0
 11 10  1  6
 11 12  1  0
 12  4  1  0
 13 11  1  0
 14 13  2  0
 16 15  1  1
 16 18  1  0
 16 17  1  0
 17 13  1  0
 18 19  1  0
 20 18  2  0
M  END
$$$$
