AQA.pdb
     RDKit          3D

 20 19  0  0  1  0  0  0  0  0999 V2000
    8.1411  -12.1785   19.7518 C   0  0  0  0  0  0  0  0  0  0  0  0
    8.2207  -13.6815   19.5615 C   0  0  2  0  0  0  0  0  0  0  0  0
    7.3638  -14.1625   18.5254 N   0  0  0  0  0  0  0  0  0  0  0  0
    7.9546  -14.3093   20.8773 C   0  0  0  0  0  0  0  0  0  0  0  0
    6.7334  -14.5368   21.1504 O   0  0  0  0  0  0  0  0  0  0  0  0
   11.1330  -19.0295   23.4897 N   0  0  0  0  0  0  0  0  0  0  0  0
   10.5722  -18.3780   24.6274 C   0  0  0  0  0  0  0  0  0  0  0  0
   10.9944  -18.7105   25.7613 O   0  0  0  0  0  0  0  0  0  0  0  0
    9.5282  -17.3501   24.4110 C   0  0  0  0  0  0  0  0  0  0  0  0
    9.7483  -16.5034   23.2159 C   0  0  0  0  0  0  0  0  0  0  0  0
    8.7048  -15.4148   23.0064 C   0  0  2  0  0  0  0  0  0  0  0  0
    8.9800  -14.6502   21.8035 N   0  0  0  0  0  0  0  0  0  0  0  0
    8.8260  -14.5199   24.1811 C   0  0  0  0  0  0  0  0  0  0  0  0
    9.9050  -13.9090   24.3488 O   0  0  0  0  0  0  0  0  0  0  0  0
    6.6161  -12.7369   26.4840 C   0  0  0  0  0  0  0  0  0  0  0  0
    7.9649  -13.3313   26.1654 C   0  0  2  0  0  0  0  0  0  0  0  0
    7.7888  -14.3188   25.1227 N   0  0  0  0  0  0  0  0  0  0  0  0
    8.5994  -13.9433   27.3599 C   0  0  0  0  0  0  0  0  0  0  0  0
    9.0847  -13.1925   28.4040 O   0  0  0  0  0  0  0  0  0  0  0  0
    8.6964  -15.1962   27.4180 O   0  0  0  0  0  0  0  0  0  0  0  0
  2  1  1  1
  2  3  1  0
  4  5  2  0
  4  2  1  0
  6  7  1  0
  7  9  1  0
  7  8  2  0
  9 10  1  0
 11 10  1  1
 11 12  1  0
 12  4  1  0
 13 11  1  0
 14 13  2  0
 16 15  1  1
 16 18  1  0
 16 17  1  0
 17 13  1  0
 18 19  1  0
 20 18  2  0
M  END
$$$$
