AQA.pdb
     RDKit          3D

 20 19  0  0  1  0  0  0  0  0999 V2000
   13.1831  -27.4201   27.3964 C   0  0  0  0  0  0  0  0  0  0  0  0
   14.3285  -27.0296   28.3113 C   0  0  2  0  0  0  0  0  0  0  0  0
   14.6740  -28.0521   29.2464 N   0  0  0  0  0  0  0  0  0  0  0  0
   13.9617  -25.7474   28.9578 C   0  0  0  0  0  0  0  0  0  0  0  0
   13.7491  -24.7683   28.1744 O   0  0  0  0  0  0  0  0  0  0  0  0
    9.8728  -24.6548   33.2447 N   0  0  0  0  0  0  0  0  0  0  0  0
   10.4548  -25.8658   32.7670 C   0  0  0  0  0  0  0  0  0  0  0  0
    9.9023  -26.9471   33.0837 O   0  0  0  0  0  0  0  0  0  0  0  0
   11.6721  -25.7829   31.9278 C   0  0  0  0  0  0  0  0  0  0  0  0
   12.1653  -24.4038   31.7078 C   0  0  0  0  0  0  0  0  0  0  0  0
   13.4926  -24.3131   30.9678 C   0  0  2  0  0  0  0  0  0  0  0  0
   13.8454  -25.5866   30.3670 N   0  0  0  0  0  0  0  0  0  0  0  0
   14.4992  -23.9760   32.0016 C   0  0  0  0  0  0  0  0  0  0  0  0
   14.8002  -24.8539   32.8408 O   0  0  0  0  0  0  0  0  0  0  0  0
   16.8488  -21.2147   32.8325 C   0  0  0  0  0  0  0  0  0  0  0  0
   16.1060  -22.4900   33.1426 C   0  0  2  0  0  0  0  0  0  0  0  0
   15.1380  -22.7163   32.0914 N   0  0  0  0  0  0  0  0  0  0  0  0
   15.4345  -22.4352   34.4654 C   0  0  0  0  0  0  0  0  0  0  0  0
   16.0791  -22.7627   35.6345 O   0  0  0  0  0  0  0  0  0  0  0  0
   14.2302  -22.0754   34.5178 O   0  0  0  0  0  0  0  0  0  0  0  0
  2  1  1  1
  2  3  1  0
  4  5  2  0
  4  2  1  0
  6  7  1  0
  7  9  1  0
  7  8  2  0
  9 10  1  0
 11 10  1  1
 11 12  1  0
 12  4  1  0
 13 11  1  0
 14 13  2  0
 16 15  1  6
 16 18  1  0
 16 17  1  0
 17 13  1  0
 18 19  1  0
 20 18  2  0
M  END
$$$$
