AQA.pdb
     RDKit          3D

 20 19  0  0  1  0  0  0  0  0999 V2000
    8.2932  -12.4215   19.4453 C   0  0  0  0  0  0  0  0  0  0  0  0
    8.4709  -13.9280   19.4700 C   0  0  2  0  0  0  0  0  0  0  0  0
    7.9530  -14.5735   18.3062 N   0  0  0  0  0  0  0  0  0  0  0  0
    7.8684  -14.4245   20.7296 C   0  0  0  0  0  0  0  0  0  0  0  0
    6.6461  -14.7701   20.6653 O   0  0  0  0  0  0  0  0  0  0  0  0
   11.7082  -17.2753   25.4695 N   0  0  0  0  0  0  0  0  0  0  0  0
   10.9550  -17.2782   24.2587 C   0  0  0  0  0  0  0  0  0  0  0  0
   10.9750  -18.3186   23.5576 O   0  0  0  0  0  0  0  0  0  0  0  0
   10.1938  -16.0606   23.8961 C   0  0  0  0  0  0  0  0  0  0  0  0
    8.7547  -16.2983   23.6388 C   0  0  0  0  0  0  0  0  0  0  0  0
    7.9849  -15.0777   23.1541 C   0  0  2  0  0  0  0  0  0  0  0  0
    8.5855  -14.5218   21.9550 N   0  0  0  0  0  0  0  0  0  0  0  0
    8.0907  -14.0837   24.2478 C   0  0  0  0  0  0  0  0  0  0  0  0
    9.1571  -13.4385   24.3580 O   0  0  0  0  0  0  0  0  0  0  0  0
    5.9131  -12.2305   26.5492 C   0  0  0  0  0  0  0  0  0  0  0  0
    7.2547  -12.8231   26.1981 C   0  0  2  0  0  0  0  0  0  0  0  0
    7.0522  -13.8247   25.1738 N   0  0  0  0  0  0  0  0  0  0  0  0
    7.9274  -13.4167   27.3808 C   0  0  0  0  0  0  0  0  0  0  0  0
    8.2875  -14.7421   27.4371 O   0  0  0  0  0  0  0  0  0  0  0  0
    8.1770  -12.6786   28.3684 O   0  0  0  0  0  0  0  0  0  0  0  0
  2  1  1  6
  2  3  1  0
  4  5  2  0
  4  2  1  0
  6  7  1  0
  7  9  1  0
  7  8  2  0
  9 10  1  0
 11 10  1  1
 11 12  1  0
 12  4  1  0
 13 11  1  0
 14 13  2  0
 16 15  1  1
 16 18  1  0
 16 17  1  0
 17 13  1  0
 18 19  1  0
 20 18  2  0
M  END
$$$$
