AQA.pdb
     RDKit          3D

 20 19  0  0  1  0  0  0  0  0999 V2000
   10.1875  -20.7388   18.0967 C   0  0  0  0  0  0  0  0  0  0  0  0
   10.0475  -19.4251   17.3509 C   0  0  2  0  0  0  0  0  0  0  0  0
   10.6833  -19.4348   16.0723 N   0  0  0  0  0  0  0  0  0  0  0  0
   10.5485  -18.3534   18.2436 C   0  0  0  0  0  0  0  0  0  0  0  0
   11.7940  -18.1056   18.1736 O   0  0  0  0  0  0  0  0  0  0  0  0
    6.8416  -14.1636   21.0718 N   0  0  0  0  0  0  0  0  0  0  0  0
    7.3860  -13.9432   19.7724 C   0  0  0  0  0  0  0  0  0  0  0  0
    6.8174  -13.1044   19.0325 O   0  0  0  0  0  0  0  0  0  0  0  0
    8.5861  -14.7112   19.3685 C   0  0  0  0  0  0  0  0  0  0  0  0
    9.1052  -15.6215   20.4153 C   0  0  0  0  0  0  0  0  0  0  0  0
   10.2270  -16.5433   19.9577 C   0  0  2  0  0  0  0  0  0  0  0  0
    9.7138  -17.6256   19.1375 N   0  0  0  0  0  0  0  0  0  0  0  0
   10.8009  -17.1137   21.1990 C   0  0  0  0  0  0  0  0  0  0  0  0
   10.1245  -17.9573   21.8287 O   0  0  0  0  0  0  0  0  0  0  0  0
   13.2797  -18.6300   22.5827 C   0  0  0  0  0  0  0  0  0  0  0  0
   12.5343  -17.3680   22.9375 C   0  0  2  0  0  0  0  0  0  0  0  0
   12.0712  -16.7566   21.7107 N   0  0  0  0  0  0  0  0  0  0  0  0
   13.3800  -16.4194   23.7048 C   0  0  0  0  0  0  0  0  0  0  0  0
   13.7631  -16.6564   25.0035 O   0  0  0  0  0  0  0  0  0  0  0  0
   13.7600  -15.3589   23.1449 O   0  0  0  0  0  0  0  0  0  0  0  0
  2  1  1  1
  2  3  1  0
  4  5  2  0
  4  2  1  0
  6  7  1  0
  7  9  1  0
  7  8  2  0
  9 10  1  0
 11 10  1  1
 11 12  1  0
 12  4  1  0
 13 11  1  0
 14 13  2  0
 16 15  1  6
 16 18  1  0
 16 17  1  0
 17 13  1  0
 18 19  1  0
 20 18  2  0
M  END
$$$$
