YHF.pdb
     RDKit          3D

 34 36  0  0  1  0  0  0  0  0999 V2000
   13.2437  -10.5709  -19.7332 O   0  0  0  0  0  0  0  0  0  0  0  0
   14.5346  -10.7990  -19.2721 C   0  0  0  0  0  0  0  0  0  0  0  0
   14.7794  -11.4530  -18.0852 C   0  0  0  0  0  0  0  0  0  0  0  0
   16.0450  -11.6951  -17.6000 C   0  0  0  0  0  0  0  0  0  0  0  0
   17.1546  -11.2708  -18.3202 C   0  0  0  0  0  0  0  0  0  0  0  0
   18.5298  -11.4784  -17.8666 C   0  0  0  0  0  0  0  0  0  0  0  0
   19.2830  -12.5501  -18.5841 C   0  0  2  0  0  0  0  0  0  0  0  0
   18.7384  -13.8275  -18.1417 N   0  0  0  0  0  0  0  0  0  0  0  0
   20.7186  -12.4364  -18.2872 C   0  0  0  0  0  0  0  0  0  0  0  0
   21.1650  -13.0065  -17.2495 O   0  0  0  0  0  0  0  0  0  0  0  0
   16.9172  -10.6155  -19.5090 C   0  0  0  0  0  0  0  0  0  0  0  0
   15.6434  -10.3823  -19.9785 C   0  0  0  0  0  0  0  0  0  0  0  0
   21.6434  -11.7399  -19.0687 N   0  0  0  0  0  0  0  0  0  0  0  0
   23.0883  -11.6364  -18.7481 C   0  0  1  0  0  0  0  0  0  0  0  0
   23.7612  -11.5489  -20.0630 C   0  0  0  0  0  0  0  0  0  0  0  0
   25.2193  -11.4916  -20.0825 C   0  0  0  0  0  0  0  0  0  0  0  0
   26.1852  -11.5105  -19.1337 C   0  0  0  0  0  0  0  0  0  0  0  0
   27.3867  -11.4753  -19.7701 N   0  0  0  0  0  0  0  0  0  0  0  0
   27.1751  -11.4361  -21.0946 C   0  0  0  0  0  0  0  0  0  0  0  0
   25.8690  -11.4460  -21.2859 N   0  0  0  0  0  0  0  0  0  0  0  0
   23.1927  -10.3203  -18.0733 C   0  0  0  0  0  0  0  0  0  0  0  0
   22.3169   -9.4617  -18.2387 O   0  0  0  0  0  0  0  0  0  0  0  0
   24.2779  -10.0139  -17.2361 N   0  0  0  0  0  0  0  0  0  0  0  0
   24.3613   -8.6883  -16.6238 C   0  0  1  0  0  0  0  0  0  0  0  0
   25.0412   -8.8153  -15.2747 C   0  0  0  0  0  0  0  0  0  0  0  0
   26.2284   -9.6725  -15.3161 C   0  0  0  0  0  0  0  0  0  0  0  0
   26.1990  -10.9355  -14.7251 C   0  0  0  0  0  0  0  0  0  0  0  0
   27.2954  -11.7597  -14.7622 C   0  0  0  0  0  0  0  0  0  0  0  0
   28.4434  -11.3466  -15.3868 C   0  0  0  0  0  0  0  0  0  0  0  0
   28.4969  -10.1141  -15.9729 C   0  0  0  0  0  0  0  0  0  0  0  0
   27.3961   -9.2968  -15.9311 C   0  0  0  0  0  0  0  0  0  0  0  0
   24.9998   -7.7179  -17.5143 C   0  0  0  0  0  0  0  0  0  0  0  0
   25.6622   -8.1247  -18.4993 O   0  0  0  0  0  0  0  0  0  0  0  0
   24.9181   -6.3378  -17.3353 O   0  0  0  0  0  0  0  0  0  0  0  0
  2  1  1  0
  3  2  2  0
  4  3  1  0
  5 11  1  0
  5  4  2  0
  6  5  1  0
  7  6  1  0
  7  8  1  1
  9  7  1  0
  9 13  1  0
 10  9  2  0
 11 12  2  0
 12  2  1  0
 14 15  1  6
 14 13  1  0
 14 21  1  0
 16 15  1  0
 17 16  2  0
 18 17  1  0
 19 18  1  0
 19 20  2  0
 20 16  1  0
 21 22  2  0
 23 21  1  0
 23 24  1  0
 24 32  1  0
 24 25  1  1
 26 31  1  0
 26 25  1  0
 27 26  2  0
 28 29  2  0
 28 27  1  0
 29 30  1  0
 30 31  2  0
 32 34  1  0
 33 32  2  0
M  END
$$$$
