YHF.pdb
     RDKit          3D

 34 36  0  0  1  0  0  0  0  0999 V2000
   25.7971  -17.7653  -32.3465 O   0  0  0  0  0  0  0  0  0  0  0  0
   25.3989  -17.9348  -31.0260 C   0  0  0  0  0  0  0  0  0  0  0  0
   24.5753  -17.0315  -30.3918 C   0  0  0  0  0  0  0  0  0  0  0  0
   24.1622  -17.1694  -29.0856 C   0  0  0  0  0  0  0  0  0  0  0  0
   24.5796  -18.2649  -28.3402 C   0  0  0  0  0  0  0  0  0  0  0  0
   24.1952  -18.4761  -26.9446 C   0  0  0  0  0  0  0  0  0  0  0  0
   24.9228  -17.6342  -25.9484 C   0  0  2  0  0  0  0  0  0  0  0  0
   26.2992  -18.1116  -25.9065 N   0  0  0  0  0  0  0  0  0  0  0  0
   24.2691  -17.7366  -24.6353 C   0  0  0  0  0  0  0  0  0  0  0  0
   24.9990  -17.8046  -23.6039 O   0  0  0  0  0  0  0  0  0  0  0  0
   25.4041  -19.1729  -28.9684 C   0  0  0  0  0  0  0  0  0  0  0  0
   25.8070  -19.0182  -30.2765 C   0  0  0  0  0  0  0  0  0  0  0  0
   22.8877  -17.7654  -24.4306 N   0  0  0  0  0  0  0  0  0  0  0  0
   22.2497  -17.8805  -23.0961 C   0  0  1  0  0  0  0  0  0  0  0  0
   22.5805  -16.6123  -22.4092 C   0  0  0  0  0  0  0  0  0  0  0  0
   23.8907  -16.4991  -21.7764 C   0  0  0  0  0  0  0  0  0  0  0  0
   25.1234  -16.1319  -22.1996 C   0  0  0  0  0  0  0  0  0  0  0  0
   25.9573  -16.1802  -21.1262 N   0  0  0  0  0  0  0  0  0  0  0  0
   25.2570  -16.5701  -20.0500 C   0  0  0  0  0  0  0  0  0  0  0  0
   24.0104  -16.7628  -20.4391 N   0  0  0  0  0  0  0  0  0  0  0  0
   20.8010  -17.8852  -23.4118 C   0  0  0  0  0  0  0  0  0  0  0  0
   20.3885  -17.3777  -24.4624 O   0  0  0  0  0  0  0  0  0  0  0  0
   19.8655  -18.4596  -22.5358 N   0  0  0  0  0  0  0  0  0  0  0  0
   18.4609  -18.5388  -22.9357 C   0  0  1  0  0  0  0  0  0  0  0  0
   18.3228  -17.9969  -24.3448 C   0  0  0  0  0  0  0  0  0  0  0  0
   16.9311  -17.9453  -24.7991 C   0  0  0  0  0  0  0  0  0  0  0  0
   16.0965  -16.9104  -24.3773 C   0  0  0  0  0  0  0  0  0  0  0  0
   14.7932  -16.8358  -24.7996 C   0  0  0  0  0  0  0  0  0  0  0  0
   14.2918  -17.7872  -25.6494 C   0  0  0  0  0  0  0  0  0  0  0  0
   15.0894  -18.8104  -26.0766 C   0  0  0  0  0  0  0  0  0  0  0  0
   16.3911  -18.8771  -25.6494 C   0  0  0  0  0  0  0  0  0  0  0  0
   17.9248  -19.8909  -22.7712 C   0  0  0  0  0  0  0  0  0  0  0  0
   18.6868  -20.8179  -22.4044 O   0  0  0  0  0  0  0  0  0  0  0  0
   16.5908  -20.2239  -23.0010 O   0  0  0  0  0  0  0  0  0  0  0  0
  2  1  1  0
  3  2  2  0
  4  3  1  0
  5 11  1  0
  5  4  2  0
  6  5  1  0
  7  6  1  0
  7  8  1  1
  9  7  1  0
  9 13  1  0
 10  9  2  0
 11 12  2  0
 12  2  1  0
 14 15  1  1
 14 13  1  0
 14 21  1  0
 16 15  1  0
 17 16  2  0
 18 17  1  0
 19 18  1  0
 19 20  2  0
 20 16  1  0
 21 22  2  0
 23 21  1  0
 23 24  1  0
 24 32  1  0
 24 25  1  6
 26 31  1  0
 26 25  1  0
 27 26  2  0
 28 29  2  0
 28 27  1  0
 29 30  1  0
 30 31  2  0
 32 34  1  0
 33 32  2  0
M  END
$$$$
