YHF.pdb
     RDKit          3D

 34 36  0  0  1  0  0  0  0  0999 V2000
   21.6846  -15.5903  -19.6537 O   0  0  0  0  0  0  0  0  0  0  0  0
   21.8429  -16.3945  -18.5316 C   0  0  0  0  0  0  0  0  0  0  0  0
   21.1226  -17.5556  -18.3600 C   0  0  0  0  0  0  0  0  0  0  0  0
   21.2553  -18.3747  -17.2612 C   0  0  0  0  0  0  0  0  0  0  0  0
   22.1534  -18.0419  -16.2549 C   0  0  0  0  0  0  0  0  0  0  0  0
   22.3429  -18.8522  -15.0518 C   0  0  0  0  0  0  0  0  0  0  0  0
   23.5377  -18.5002  -14.2275 C   0  0  2  0  0  0  0  0  0  0  0  0
   24.7019  -18.5868  -15.1001 N   0  0  0  0  0  0  0  0  0  0  0  0
   23.6434  -19.4177  -13.0835 C   0  0  0  0  0  0  0  0  0  0  0  0
   22.5916  -19.6978  -12.4381 O   0  0  0  0  0  0  0  0  0  0  0  0
   22.8777  -16.8812  -16.4199 C   0  0  0  0  0  0  0  0  0  0  0  0
   22.7314  -16.0741  -17.5265 C   0  0  0  0  0  0  0  0  0  0  0  0
   24.8277  -20.0143  -12.6444 N   0  0  0  0  0  0  0  0  0  0  0  0
   24.9048  -20.9666  -11.5094 C   0  0  1  0  0  0  0  0  0  0  0  0
   25.5723  -22.1640  -12.0664 C   0  0  0  0  0  0  0  0  0  0  0  0
   24.7939  -23.0366  -12.9396 C   0  0  0  0  0  0  0  0  0  0  0  0
   23.4933  -23.0959  -13.3114 C   0  0  0  0  0  0  0  0  0  0  0  0
   23.3664  -24.1176  -14.2002 N   0  0  0  0  0  0  0  0  0  0  0  0
   24.5681  -24.6866  -14.3815 C   0  0  0  0  0  0  0  0  0  0  0  0
   25.4309  -24.0366  -13.6228 N   0  0  0  0  0  0  0  0  0  0  0  0
   25.8361  -20.2987  -10.5688 C   0  0  0  0  0  0  0  0  0  0  0  0
   26.6253  -19.4370  -10.9765 O   0  0  0  0  0  0  0  0  0  0  0  0
   25.8492  -20.6224   -9.2022 N   0  0  0  0  0  0  0  0  0  0  0  0
   27.1243  -20.8988   -8.5413 C   0  0  1  0  0  0  0  0  0  0  0  0
   27.8829  -19.5964   -8.3792 C   0  0  0  0  0  0  0  0  0  0  0  0
   27.9920  -19.1735   -6.9808 C   0  0  0  0  0  0  0  0  0  0  0  0
   27.4857  -17.9360   -6.5837 C   0  0  0  0  0  0  0  0  0  0  0  0
   27.5664  -17.5248   -5.2773 C   0  0  0  0  0  0  0  0  0  0  0  0
   28.1516  -18.3338   -4.3382 C   0  0  0  0  0  0  0  0  0  0  0  0
   28.6548  -19.5502   -4.7025 C   0  0  0  0  0  0  0  0  0  0  0  0
   28.5697  -19.9533   -6.0108 C   0  0  0  0  0  0  0  0  0  0  0  0
   26.9385  -21.6305   -7.2871 C   0  0  0  0  0  0  0  0  0  0  0  0
   25.7794  -21.9307   -6.9121 O   0  0  0  0  0  0  0  0  0  0  0  0
   27.9909  -22.0249   -6.4623 O   0  0  0  0  0  0  0  0  0  0  0  0
  2  1  1  0
  3  2  2  0
  4  3  1  0
  5 11  1  0
  5  4  2  0
  6  5  1  0
  7  6  1  0
  7  8  1  6
  9  7  1  0
  9 13  1  0
 10  9  2  0
 11 12  2  0
 12  2  1  0
 14 15  1  6
 14 13  1  0
 14 21  1  0
 16 15  1  0
 17 16  2  0
 18 17  1  0
 19 18  1  0
 19 20  2  0
 20 16  1  0
 21 22  2  0
 23 21  1  0
 23 24  1  0
 24 32  1  0
 24 25  1  1
 26 31  1  0
 26 25  1  0
 27 26  2  0
 28 29  2  0
 28 27  1  0
 29 30  1  0
 30 31  2  0
 32 34  1  0
 33 32  2  0
M  END
$$$$
