YHF.pdb
     RDKit          3D

 34 36  0  0  1  0  0  0  0  0999 V2000
   26.2727  -11.7478  -23.8109 O   0  0  0  0  0  0  0  0  0  0  0  0
   25.4149  -11.1376  -22.9038 C   0  0  0  0  0  0  0  0  0  0  0  0
   24.8215   -9.9229  -23.1659 C   0  0  0  0  0  0  0  0  0  0  0  0
   23.9675   -9.2915  -22.2897 C   0  0  0  0  0  0  0  0  0  0  0  0
   23.6674   -9.8831  -21.0691 C   0  0  0  0  0  0  0  0  0  0  0  0
   22.7804   -9.2708  -20.0800 C   0  0  0  0  0  0  0  0  0  0  0  0
   21.7668  -10.1879  -19.4782 C   0  0  2  0  0  0  0  0  0  0  0  0
   20.9185  -10.6624  -20.5642 N   0  0  0  0  0  0  0  0  0  0  0  0
   20.9923   -9.4729  -18.4530 C   0  0  0  0  0  0  0  0  0  0  0  0
   19.9866   -8.7986  -18.8205 O   0  0  0  0  0  0  0  0  0  0  0  0
   24.2576  -11.0989  -20.7999 C   0  0  0  0  0  0  0  0  0  0  0  0
   25.1098  -11.7156  -21.6892 C   0  0  0  0  0  0  0  0  0  0  0  0
   21.2805   -9.4774  -17.0862 N   0  0  0  0  0  0  0  0  0  0  0  0
   20.4860   -8.7457  -16.0691 C   0  0  1  0  0  0  0  0  0  0  0  0
   20.1056   -9.7744  -15.0759 C   0  0  0  0  0  0  0  0  0  0  0  0
   18.9204  -10.5816  -15.3473 C   0  0  0  0  0  0  0  0  0  0  0  0
   17.9790  -10.5927  -16.3205 C   0  0  0  0  0  0  0  0  0  0  0  0
   17.1313  -11.6240  -16.0601 N   0  0  0  0  0  0  0  0  0  0  0  0
   17.5369  -12.2476  -14.9432 C   0  0  0  0  0  0  0  0  0  0  0  0
   18.6157  -11.6212  -14.5113 N   0  0  0  0  0  0  0  0  0  0  0  0
   21.4805   -7.8354  -15.4522 C   0  0  0  0  0  0  0  0  0  0  0  0
   22.6729   -8.1607  -15.3919 O   0  0  0  0  0  0  0  0  0  0  0  0
   21.1007   -6.5908  -14.9236 N   0  0  0  0  0  0  0  0  0  0  0  0
   22.0882   -5.7817  -14.2099 C   0  0  1  0  0  0  0  0  0  0  0  0
   22.6264   -4.7238  -15.1529 C   0  0  0  0  0  0  0  0  0  0  0  0
   21.6127   -3.7394  -15.5394 C   0  0  0  0  0  0  0  0  0  0  0  0
   21.4544   -2.5707  -14.7949 C   0  0  0  0  0  0  0  0  0  0  0  0
   20.5194   -1.6297  -15.1456 C   0  0  0  0  0  0  0  0  0  0  0  0
   19.7226   -1.8298  -16.2427 C   0  0  0  0  0  0  0  0  0  0  0  0
   19.8587   -2.9664  -16.9879 C   0  0  0  0  0  0  0  0  0  0  0  0
   20.7959   -3.9018  -16.6300 C   0  0  0  0  0  0  0  0  0  0  0  0
   21.5458   -5.2371  -12.9641 C   0  0  0  0  0  0  0  0  0  0  0  0
   20.3355   -5.4160  -12.6861 O   0  0  0  0  0  0  0  0  0  0  0  0
   22.3047   -4.5151  -12.0443 O   0  0  0  0  0  0  0  0  0  0  0  0
  2  1  1  0
  3  2  2  0
  4  3  1  0
  5 11  1  0
  5  4  2  0
  6  5  1  0
  7  6  1  0
  7  8  1  6
  9  7  1  0
  9 13  1  0
 10  9  2  0
 11 12  2  0
 12  2  1  0
 14 15  1  1
 14 13  1  0
 14 21  1  0
 16 15  1  0
 17 16  2  0
 18 17  1  0
 19 18  1  0
 19 20  2  0
 20 16  1  0
 21 22  2  0
 23 21  1  0
 23 24  1  0
 24 32  1  0
 24 25  1  6
 26 31  1  0
 26 25  1  0
 27 26  2  0
 28 29  2  0
 28 27  1  0
 29 30  1  0
 30 31  2  0
 32 34  1  0
 33 32  2  0
M  END
$$$$
