YHF.pdb
     RDKit          3D

 34 36  0  0  1  0  0  0  0  0999 V2000
   35.0182  -26.8735  -22.0461 O   0  0  0  0  0  0  0  0  0  0  0  0
   33.9875  -26.9523  -21.1174 C   0  0  0  0  0  0  0  0  0  0  0  0
   32.7037  -26.5555  -21.4185 C   0  0  0  0  0  0  0  0  0  0  0  0
   31.6603  -26.6203  -20.5225 C   0  0  0  0  0  0  0  0  0  0  0  0
   31.8796  -27.1062  -19.2395 C   0  0  0  0  0  0  0  0  0  0  0  0
   30.8273  -27.1948  -18.2271 C   0  0  0  0  0  0  0  0  0  0  0  0
   30.4304  -25.8964  -17.6047 C   0  0  2  0  0  0  0  0  0  0  0  0
   31.5910  -25.3954  -16.8793 N   0  0  0  0  0  0  0  0  0  0  0  0
   29.2772  -26.1004  -16.7157 C   0  0  0  0  0  0  0  0  0  0  0  0
   29.3057  -25.5770  -15.5640 O   0  0  0  0  0  0  0  0  0  0  0  0
   33.1620  -27.5051  -18.9311 C   0  0  0  0  0  0  0  0  0  0  0  0
   34.1935  -27.4328  -19.8411 C   0  0  0  0  0  0  0  0  0  0  0  0
   28.1357  -26.8358  -17.0436 N   0  0  0  0  0  0  0  0  0  0  0  0
   26.7513  -26.3167  -16.9198 C   0  0  1  0  0  0  0  0  0  0  0  0
   26.6949  -25.1671  -17.8497 C   0  0  0  0  0  0  0  0  0  0  0  0
   26.7365  -23.8242  -17.2799 C   0  0  0  0  0  0  0  0  0  0  0  0
   26.7492  -23.3243  -16.0216 C   0  0  0  0  0  0  0  0  0  0  0  0
   26.8415  -21.9707  -16.1183 N   0  0  0  0  0  0  0  0  0  0  0  0
   26.8867  -21.6306  -17.4156 C   0  0  0  0  0  0  0  0  0  0  0  0
   26.8237  -22.7463  -18.1184 N   0  0  0  0  0  0  0  0  0  0  0  0
   25.9258  -27.4164  -17.4742 C   0  0  0  0  0  0  0  0  0  0  0  0
   26.0525  -27.7582  -18.6568 O   0  0  0  0  0  0  0  0  0  0  0  0
   24.9855  -28.0939  -16.6808 N   0  0  0  0  0  0  0  0  0  0  0  0
   24.1116  -29.0919  -17.2967 C   0  0  1  0  0  0  0  0  0  0  0  0
   24.4368  -30.4527  -16.7131 C   0  0  0  0  0  0  0  0  0  0  0  0
   25.7290  -30.9714  -17.1684 C   0  0  0  0  0  0  0  0  0  0  0  0
   26.8638  -30.8158  -16.3726 C   0  0  0  0  0  0  0  0  0  0  0  0
   28.0817  -31.3040  -16.7738 C   0  0  0  0  0  0  0  0  0  0  0  0
   28.1978  -31.9566  -17.9735 C   0  0  0  0  0  0  0  0  0  0  0  0
   27.1010  -32.1215  -18.7706 C   0  0  0  0  0  0  0  0  0  0  0  0
   25.8874  -31.6303  -18.3615 C   0  0  0  0  0  0  0  0  0  0  0  0
   22.6997  -28.7243  -17.1786 C   0  0  0  0  0  0  0  0  0  0  0  0
   22.3795  -27.7010  -16.5268 O   0  0  0  0  0  0  0  0  0  0  0  0
   21.6626  -29.4545  -17.7569 O   0  0  0  0  0  0  0  0  0  0  0  0
  2  1  1  0
  3  2  2  0
  4  3  1  0
  5 11  1  0
  5  4  2  0
  6  5  1  0
  7  6  1  0
  7  8  1  1
  9  7  1  0
  9 13  1  0
 10  9  2  0
 11 12  2  0
 12  2  1  0
 14 15  1  6
 14 13  1  0
 14 21  1  0
 16 15  1  0
 17 16  2  0
 18 17  1  0
 19 18  1  0
 19 20  2  0
 20 16  1  0
 21 22  2  0
 23 21  1  0
 23 24  1  0
 24 32  1  0
 24 25  1  1
 26 31  1  0
 26 25  1  0
 27 26  2  0
 28 29  2  0
 28 27  1  0
 29 30  1  0
 30 31  2  0
 32 34  1  0
 33 32  2  0
M  END
$$$$
