YHF.pdb
     RDKit          3D

 34 36  0  0  1  0  0  0  0  0999 V2000
   18.7946  -15.1196  -17.1215 O   0  0  0  0  0  0  0  0  0  0  0  0
   19.5926  -16.0732  -16.5012 C   0  0  0  0  0  0  0  0  0  0  0  0
   19.0599  -17.0629  -15.7055 C   0  0  0  0  0  0  0  0  0  0  0  0
   19.8216  -18.0224  -15.0769 C   0  0  0  0  0  0  0  0  0  0  0  0
   21.2021  -18.0207  -15.2323 C   0  0  0  0  0  0  0  0  0  0  0  0
   22.0807  -18.9972  -14.5882 C   0  0  0  0  0  0  0  0  0  0  0  0
   22.9008  -19.8287  -15.5192 C   0  0  2  0  0  0  0  0  0  0  0  0
   21.9725  -20.5836  -16.3515 N   0  0  0  0  0  0  0  0  0  0  0  0
   23.7875  -20.7135  -14.7494 C   0  0  0  0  0  0  0  0  0  0  0  0
   23.2802  -21.7186  -14.1718 O   0  0  0  0  0  0  0  0  0  0  0  0
   21.7422  -17.0331  -16.0272 C   0  0  0  0  0  0  0  0  0  0  0  0
   20.9639  -16.0813  -16.6483 C   0  0  0  0  0  0  0  0  0  0  0  0
   25.1647  -20.5325  -14.6015 N   0  0  0  0  0  0  0  0  0  0  0  0
   26.0397  -21.4359  -13.8145 C   0  0  1  0  0  0  0  0  0  0  0  0
   27.0723  -21.8897  -14.7722 C   0  0  0  0  0  0  0  0  0  0  0  0
   26.7369  -22.9920  -15.6679 C   0  0  0  0  0  0  0  0  0  0  0  0
   25.6272  -23.7363  -15.8869 C   0  0  0  0  0  0  0  0  0  0  0  0
   25.9065  -24.6023  -16.8978 N   0  0  0  0  0  0  0  0  0  0  0  0
   27.1695  -24.4017  -17.3044 C   0  0  0  0  0  0  0  0  0  0  0  0
   27.6726  -23.4310  -16.5646 N   0  0  0  0  0  0  0  0  0  0  0  0
   26.6723  -20.5240  -12.8314 C   0  0  0  0  0  0  0  0  0  0  0  0
   26.6058  -19.2976  -12.9833 O   0  0  0  0  0  0  0  0  0  0  0  0
   27.3585  -21.0214  -11.7114 N   0  0  0  0  0  0  0  0  0  0  0  0
   27.9864  -20.0856  -10.7793 C   0  0  1  0  0  0  0  0  0  0  0  0
   26.9278  -19.1368  -10.2524 C   0  0  0  0  0  0  0  0  0  0  0  0
   25.9502  -19.8014   -9.3871 C   0  0  0  0  0  0  0  0  0  0  0  0
   26.2148  -19.9593   -8.0268 C   0  0  0  0  0  0  0  0  0  0  0  0
   25.3085  -20.5680   -7.1958 C   0  0  0  0  0  0  0  0  0  0  0  0
   24.1209  -21.0325   -7.6984 C   0  0  0  0  0  0  0  0  0  0  0  0
   23.8387  -20.8896   -9.0271 C   0  0  0  0  0  0  0  0  0  0  0  0
   24.7505  -20.2797   -9.8505 C   0  0  0  0  0  0  0  0  0  0  0  0
   28.7271  -20.7824   -9.7265 C   0  0  0  0  0  0  0  0  0  0  0  0
   28.6857  -22.0351   -9.6666 O   0  0  0  0  0  0  0  0  0  0  0  0
   29.4940  -20.1294   -8.7628 O   0  0  0  0  0  0  0  0  0  0  0  0
  2  1  1  0
  3  2  2  0
  4  3  1  0
  5 11  1  0
  5  4  2  0
  6  5  1  0
  7  6  1  0
  7  8  1  1
  9  7  1  0
  9 13  1  0
 10  9  2  0
 11 12  2  0
 12  2  1  0
 14 15  1  6
 14 13  1  0
 14 21  1  0
 16 15  1  0
 17 16  2  0
 18 17  1  0
 19 18  1  0
 19 20  2  0
 20 16  1  0
 21 22  2  0
 23 21  1  0
 23 24  1  0
 24 32  1  0
 24 25  1  1
 26 31  1  0
 26 25  1  0
 27 26  2  0
 28 29  2  0
 28 27  1  0
 29 30  1  0
 30 31  2  0
 32 34  1  0
 33 32  2  0
M  END
$$$$
