YHF.pdb
     RDKit          3D

 34 36  0  0  1  0  0  0  0  0999 V2000
   18.2520  -24.5557  -15.3838 O   0  0  0  0  0  0  0  0  0  0  0  0
   19.5931  -24.4118  -15.0494 C   0  0  0  0  0  0  0  0  0  0  0  0
   20.5563  -25.2811  -15.5110 C   0  0  0  0  0  0  0  0  0  0  0  0
   21.8925  -25.1672  -15.1991 C   0  0  0  0  0  0  0  0  0  0  0  0
   22.3254  -24.1331  -14.3785 C   0  0  0  0  0  0  0  0  0  0  0  0
   23.7244  -23.9515  -13.9912 C   0  0  0  0  0  0  0  0  0  0  0  0
   24.3892  -22.7379  -14.5532 C   0  0  2  0  0  0  0  0  0  0  0  0
   24.5588  -22.9645  -15.9829 N   0  0  0  0  0  0  0  0  0  0  0  0
   25.6770  -22.5163  -13.8790 C   0  0  0  0  0  0  0  0  0  0  0  0
   26.7410  -22.7117  -14.5355 O   0  0  0  0  0  0  0  0  0  0  0  0
   21.3669  -23.2594  -13.9128 C   0  0  0  0  0  0  0  0  0  0  0  0
   20.0342  -23.3893  -14.2357 C   0  0  0  0  0  0  0  0  0  0  0  0
   25.8238  -22.1015  -12.5533 N   0  0  0  0  0  0  0  0  0  0  0  0
   26.8244  -21.1027  -12.1032 C   0  0  1  0  0  0  0  0  0  0  0  0
   26.3355  -19.8121  -12.6368 C   0  0  0  0  0  0  0  0  0  0  0  0
   26.9611  -19.2922  -13.8485 C   0  0  0  0  0  0  0  0  0  0  0  0
   27.8995  -19.7541  -14.7084 C   0  0  0  0  0  0  0  0  0  0  0  0
   28.0429  -18.8293  -15.6954 N   0  0  0  0  0  0  0  0  0  0  0  0
   27.2072  -17.8069  -15.4566 C   0  0  0  0  0  0  0  0  0  0  0  0
   26.5534  -18.0834  -14.3436 N   0  0  0  0  0  0  0  0  0  0  0  0
   26.6612  -21.0992  -10.6296 C   0  0  0  0  0  0  0  0  0  0  0  0
   25.5450  -20.9244  -10.1246 O   0  0  0  0  0  0  0  0  0  0  0  0
   27.7581  -21.2918   -9.7738 N   0  0  0  0  0  0  0  0  0  0  0  0
   27.5989  -21.0608   -8.3384 C   0  0  1  0  0  0  0  0  0  0  0  0
   28.9247  -20.5964   -7.7684 C   0  0  0  0  0  0  0  0  0  0  0  0
   28.8319  -20.2097   -6.3585 C   0  0  0  0  0  0  0  0  0  0  0  0
   29.0377  -21.1600   -5.3585 C   0  0  0  0  0  0  0  0  0  0  0  0
   28.9673  -20.8175   -4.0318 C   0  0  0  0  0  0  0  0  0  0  0  0
   28.6912  -19.5245   -3.6706 C   0  0  0  0  0  0  0  0  0  0  0  0
   28.4858  -18.5757   -4.6315 C   0  0  0  0  0  0  0  0  0  0  0  0
   28.5582  -18.9270   -5.9554 C   0  0  0  0  0  0  0  0  0  0  0  0
   26.4869  -20.1523   -8.0546 C   0  0  0  0  0  0  0  0  0  0  0  0
   25.5974  -20.4990   -7.2404 O   0  0  0  0  0  0  0  0  0  0  0  0
   26.3483  -18.8967   -8.6440 O   0  0  0  0  0  0  0  0  0  0  0  0
  2  1  1  0
  3  2  2  0
  4  3  1  0
  5 11  1  0
  5  4  2  0
  6  5  1  0
  7  6  1  0
  7  8  1  6
  9  7  1  0
  9 13  1  0
 10  9  2  0
 11 12  2  0
 12  2  1  0
 14 15  1  6
 14 13  1  0
 14 21  1  0
 16 15  1  0
 17 16  2  0
 18 17  1  0
 19 18  1  0
 19 20  2  0
 20 16  1  0
 21 22  2  0
 23 21  1  0
 23 24  1  0
 24 32  1  0
 24 25  1  6
 26 31  1  0
 26 25  1  0
 27 26  2  0
 28 29  2  0
 28 27  1  0
 29 30  1  0
 30 31  2  0
 32 34  1  0
 33 32  2  0
M  END
$$$$
