YHF.pdb
     RDKit          3D

 34 36  0  0  1  0  0  0  0  0999 V2000
   20.6847  -11.8135  -16.9853 O   0  0  0  0  0  0  0  0  0  0  0  0
   20.8876  -13.1782  -16.8200 C   0  0  0  0  0  0  0  0  0  0  0  0
   21.6916  -13.6794  -15.8205 C   0  0  0  0  0  0  0  0  0  0  0  0
   21.9137  -15.0247  -15.6292 C   0  0  0  0  0  0  0  0  0  0  0  0
   21.3107  -15.9517  -16.4702 C   0  0  0  0  0  0  0  0  0  0  0  0
   21.5065  -17.3956  -16.3403 C   0  0  0  0  0  0  0  0  0  0  0  0
   22.9132  -17.8665  -16.5138 C   0  0  2  0  0  0  0  0  0  0  0  0
   23.2898  -17.5943  -17.8953 N   0  0  0  0  0  0  0  0  0  0  0  0
   23.0034  -19.2991  -16.1955 C   0  0  0  0  0  0  0  0  0  0  0  0
   22.6606  -20.1348  -17.0817 O   0  0  0  0  0  0  0  0  0  0  0  0
   20.5048  -15.4573  -17.4727 C   0  0  0  0  0  0  0  0  0  0  0  0
   20.2944  -14.1075  -17.6487 C   0  0  0  0  0  0  0  0  0  0  0  0
   23.4433  -19.8206  -14.9766 N   0  0  0  0  0  0  0  0  0  0  0  0
   23.4380  -21.2664  -14.6433 C   0  0  1  0  0  0  0  0  0  0  0  0
   24.7571  -21.5148  -14.0208 C   0  0  0  0  0  0  0  0  0  0  0  0
   25.9231  -21.5877  -14.8955 C   0  0  0  0  0  0  0  0  0  0  0  0
   26.1137  -21.5238  -16.2345 C   0  0  0  0  0  0  0  0  0  0  0  0
   27.4518  -21.6076  -16.4633 N   0  0  0  0  0  0  0  0  0  0  0  0
   28.0869  -21.7210  -15.2866 C   0  0  0  0  0  0  0  0  0  0  0  0
   27.1675  -21.7090  -14.3394 N   0  0  0  0  0  0  0  0  0  0  0  0
   22.3925  -21.3695  -13.5971 C   0  0  0  0  0  0  0  0  0  0  0  0
   22.6042  -20.9372  -12.4570 O   0  0  0  0  0  0  0  0  0  0  0  0
   21.1452  -21.9556  -13.8676 N   0  0  0  0  0  0  0  0  0  0  0  0
   20.1883  -22.1442  -12.7778 C   0  0  1  0  0  0  0  0  0  0  0  0
   19.0902  -21.1070  -12.9070 C   0  0  0  0  0  0  0  0  0  0  0  0
   19.5592  -19.7467  -12.6317 C   0  0  0  0  0  0  0  0  0  0  0  0
   19.7781  -19.3359  -11.3169 C   0  0  0  0  0  0  0  0  0  0  0  0
   20.2285  -18.0706  -11.0368 C   0  0  0  0  0  0  0  0  0  0  0  0
   20.4708  -17.1871  -12.0563 C   0  0  0  0  0  0  0  0  0  0  0  0
   20.2641  -17.5659  -13.3522 C   0  0  0  0  0  0  0  0  0  0  0  0
   19.8137  -18.8329  -13.6231 C   0  0  0  0  0  0  0  0  0  0  0  0
   19.6928  -23.5204  -12.7221 C   0  0  0  0  0  0  0  0  0  0  0  0
   19.0001  -23.8893  -11.7431 O   0  0  0  0  0  0  0  0  0  0  0  0
   19.9465  -24.4710  -13.7097 O   0  0  0  0  0  0  0  0  0  0  0  0
  2  1  1  0
  3  2  2  0
  4  3  1  0
  5 11  1  0
  5  4  2  0
  6  5  1  0
  7  6  1  0
  7  8  1  6
  9  7  1  0
  9 13  1  0
 10  9  2  0
 11 12  2  0
 12  2  1  0
 14 15  1  1
 14 13  1  0
 14 21  1  0
 16 15  1  0
 17 16  2  0
 18 17  1  0
 19 18  1  0
 19 20  2  0
 20 16  1  0
 21 22  2  0
 23 21  1  0
 23 24  1  0
 24 32  1  0
 24 25  1  6
 26 31  1  0
 26 25  1  0
 27 26  2  0
 28 29  2  0
 28 27  1  0
 29 30  1  0
 30 31  2  0
 32 34  1  0
 33 32  2  0
M  END
$$$$
