YHF.pdb
     RDKit          3D

 34 36  0  0  1  0  0  0  0  0999 V2000
   16.7660  -16.1957  -12.8670 O   0  0  0  0  0  0  0  0  0  0  0  0
   17.7774  -17.0985  -12.5621 C   0  0  0  0  0  0  0  0  0  0  0  0
   17.5100  -18.4099  -12.2378 C   0  0  0  0  0  0  0  0  0  0  0  0
   18.4878  -19.3295  -11.9308 C   0  0  0  0  0  0  0  0  0  0  0  0
   19.8235  -18.9476  -11.9393 C   0  0  0  0  0  0  0  0  0  0  0  0
   20.9185  -19.8610  -11.6128 C   0  0  0  0  0  0  0  0  0  0  0  0
   21.9033  -20.0943  -12.7113 C   0  0  2  0  0  0  0  0  0  0  0  0
   21.1780  -20.7123  -13.8141 N   0  0  0  0  0  0  0  0  0  0  0  0
   22.9965  -20.9510  -12.2287 C   0  0  0  0  0  0  0  0  0  0  0  0
   22.7717  -22.1877  -12.0825 O   0  0  0  0  0  0  0  0  0  0  0  0
   20.0986  -17.6367  -12.2629 C   0  0  0  0  0  0  0  0  0  0  0  0
   19.1067  -16.7307  -12.5674 C   0  0  0  0  0  0  0  0  0  0  0  0
   24.2820  -20.5045  -11.9137 N   0  0  0  0  0  0  0  0  0  0  0  0
   25.4047  -21.4023  -11.5467 C   0  0  1  0  0  0  0  0  0  0  0  0
   26.3308  -21.3387  -12.6991 C   0  0  0  0  0  0  0  0  0  0  0  0
   26.1246  -22.2803  -13.7947 C   0  0  0  0  0  0  0  0  0  0  0  0
   25.2383  -23.2738  -14.0417 C   0  0  0  0  0  0  0  0  0  0  0  0
   25.5204  -23.7793  -15.2724 N   0  0  0  0  0  0  0  0  0  0  0  0
   26.5651  -23.1120  -15.7864 C   0  0  0  0  0  0  0  0  0  0  0  0
   26.9313  -22.2074  -14.8976 N   0  0  0  0  0  0  0  0  0  0  0  0
   26.0313  -20.7091  -10.3956 C   0  0  0  0  0  0  0  0  0  0  0  0
   25.4931  -19.7120   -9.8979 O   0  0  0  0  0  0  0  0  0  0  0  0
   27.2416  -21.1596   -9.8435 N   0  0  0  0  0  0  0  0  0  0  0  0
   27.8340  -20.4329   -8.7211 C   0  0  1  0  0  0  0  0  0  0  0  0
   26.8392  -20.4053   -7.5775 C   0  0  0  0  0  0  0  0  0  0  0  0
   27.3989  -19.8291   -6.3523 C   0  0  0  0  0  0  0  0  0  0  0  0
   27.7769  -20.6609   -5.2985 C   0  0  0  0  0  0  0  0  0  0  0  0
   28.3141  -20.1439   -4.1468 C   0  0  0  0  0  0  0  0  0  0  0  0
   28.4870  -18.7903   -4.0176 C   0  0  0  0  0  0  0  0  0  0  0  0
   28.1245  -17.9550   -5.0357 C   0  0  0  0  0  0  0  0  0  0  0  0
   27.5883  -18.4806   -6.1836 C   0  0  0  0  0  0  0  0  0  0  0  0
   29.1407  -20.9784   -8.3500 C   0  0  0  0  0  0  0  0  0  0  0  0
   29.4292  -22.1590   -8.6619 O   0  0  0  0  0  0  0  0  0  0  0  0
   30.1087  -20.2543   -7.6558 O   0  0  0  0  0  0  0  0  0  0  0  0
  2  1  1  0
  3  2  2  0
  4  3  1  0
  5 11  1  0
  5  4  2  0
  6  5  1  0
  7  6  1  0
  7  8  1  6
  9  7  1  0
  9 13  1  0
 10  9  2  0
 11 12  2  0
 12  2  1  0
 14 15  1  6
 14 13  1  0
 14 21  1  0
 16 15  1  0
 17 16  2  0
 18 17  1  0
 19 18  1  0
 19 20  2  0
 20 16  1  0
 21 22  2  0
 23 21  1  0
 23 24  1  0
 24 32  1  0
 24 25  1  1
 26 31  1  0
 26 25  1  0
 27 26  2  0
 28 29  2  0
 28 27  1  0
 29 30  1  0
 30 31  2  0
 32 34  1  0
 33 32  2  0
M  END
$$$$
