YHF.pdb
     RDKit          3D

 34 36  0  0  1  0  0  0  0  0999 V2000
   14.6958  -24.7844   -1.2521 O   0  0  0  0  0  0  0  0  0  0  0  0
   15.3508  -23.8253   -0.4893 C   0  0  0  0  0  0  0  0  0  0  0  0
   15.8127  -24.0946    0.7798 C   0  0  0  0  0  0  0  0  0  0  0  0
   16.4651  -23.1679    1.5617 C   0  0  0  0  0  0  0  0  0  0  0  0
   16.6852  -21.8852    1.0756 C   0  0  0  0  0  0  0  0  0  0  0  0
   17.3586  -20.8415    1.8486 C   0  0  0  0  0  0  0  0  0  0  0  0
   16.9076  -20.7066    3.2660 C   0  0  2  0  0  0  0  0  0  0  0  0
   15.5354  -20.2161    3.2352 N   0  0  0  0  0  0  0  0  0  0  0  0
   17.7996  -19.7880    3.9888 C   0  0  0  0  0  0  0  0  0  0  0  0
   19.0471  -19.9917    3.9315 O   0  0  0  0  0  0  0  0  0  0  0  0
   16.2255  -21.6085   -0.1937 C   0  0  0  0  0  0  0  0  0  0  0  0
   15.5747  -22.5489   -0.9614 C   0  0  0  0  0  0  0  0  0  0  0  0
   17.3758  -18.6925    4.7449 N   0  0  0  0  0  0  0  0  0  0  0  0
   18.2950  -17.7753    5.4626 C   0  0  1  0  0  0  0  0  0  0  0  0
   17.5086  -16.5391    5.6698 C   0  0  0  0  0  0  0  0  0  0  0  0
   18.0641  -15.2842    5.1735 C   0  0  0  0  0  0  0  0  0  0  0  0
   19.1544  -14.9486    4.4441 C   0  0  0  0  0  0  0  0  0  0  0  0
   19.1217  -13.6025    4.2522 N   0  0  0  0  0  0  0  0  0  0  0  0
   18.0285  -13.1054    4.8509 C   0  0  0  0  0  0  0  0  0  0  0  0
   17.3887  -14.1173    5.4071 N   0  0  0  0  0  0  0  0  0  0  0  0
   18.4849  -18.4422    6.7731 C   0  0  0  0  0  0  0  0  0  0  0  0
   17.5326  -18.5710    7.5529 O   0  0  0  0  0  0  0  0  0  0  0  0
   19.7387  -18.9409    7.1629 N   0  0  0  0  0  0  0  0  0  0  0  0
   20.6141  -18.1146    7.9935 C   0  0  1  0  0  0  0  0  0  0  0  0
   21.2991  -17.0892    7.1116 C   0  0  0  0  0  0  0  0  0  0  0  0
   22.0973  -16.1269    7.8751 C   0  0  0  0  0  0  0  0  0  0  0  0
   21.6748  -14.8024    7.9876 C   0  0  0  0  0  0  0  0  0  0  0  0
   22.4004  -13.8871    8.7074 C   0  0  0  0  0  0  0  0  0  0  0  0
   23.5604  -14.2680    9.3303 C   0  0  0  0  0  0  0  0  0  0  0  0
   23.9949  -15.5594    9.2348 C   0  0  0  0  0  0  0  0  0  0  0  0
   23.2632  -16.4678    8.5132 C   0  0  0  0  0  0  0  0  0  0  0  0
   19.8945  -17.5288    9.1255 C   0  0  0  0  0  0  0  0  0  0  0  0
   19.0230  -16.6505    8.9167 O   0  0  0  0  0  0  0  0  0  0  0  0
   20.1196  -17.8917   10.4525 O   0  0  0  0  0  0  0  0  0  0  0  0
  2  1  1  0
  3  2  2  0
  4  3  1  0
  5 11  1  0
  5  4  2  0
  6  5  1  0
  7  6  1  0
  7  8  1  6
  9  7  1  0
  9 13  1  0
 10  9  2  0
 11 12  2  0
 12  2  1  0
 14 15  1  1
 14 13  1  0
 14 21  1  0
 16 15  1  0
 17 16  2  0
 18 17  1  0
 19 18  1  0
 19 20  2  0
 20 16  1  0
 21 22  2  0
 23 21  1  0
 23 24  1  0
 24 32  1  0
 24 25  1  6
 26 31  1  0
 26 25  1  0
 27 26  2  0
 28 29  2  0
 28 27  1  0
 29 30  1  0
 30 31  2  0
 32 34  1  0
 33 32  2  0
M  END
$$$$
