YHF.pdb
     RDKit          3D

 34 36  0  0  1  0  0  0  0  0999 V2000
   28.0897  -29.8374  -19.7865 O   0  0  0  0  0  0  0  0  0  0  0  0
   28.0441  -28.7223  -18.9586 C   0  0  0  0  0  0  0  0  0  0  0  0
   27.3461  -27.5865  -19.3039 C   0  0  0  0  0  0  0  0  0  0  0  0
   27.2806  -26.4654  -18.5073 C   0  0  0  0  0  0  0  0  0  0  0  0
   27.9413  -26.4456  -17.2854 C   0  0  0  0  0  0  0  0  0  0  0  0
   27.9305  -25.2897  -16.3888 C   0  0  0  0  0  0  0  0  0  0  0  0
   28.5373  -24.0442  -16.9469 C   0  0  2  0  0  0  0  0  0  0  0  0
   29.9680  -24.2871  -17.0822 N   0  0  0  0  0  0  0  0  0  0  0  0
   28.2582  -22.9093  -16.0547 C   0  0  0  0  0  0  0  0  0  0  0  0
   29.1914  -22.4830  -15.3140 O   0  0  0  0  0  0  0  0  0  0  0  0
   28.6419  -27.5788  -16.9333 C   0  0  0  0  0  0  0  0  0  0  0  0
   28.6961  -28.6914  -17.7436 C   0  0  0  0  0  0  0  0  0  0  0  0
   27.0287  -22.2536  -15.9566 N   0  0  0  0  0  0  0  0  0  0  0  0
   26.7954  -21.0501  -15.1209 C   0  0  1  0  0  0  0  0  0  0  0  0
   26.4186  -19.9904  -16.0823 C   0  0  0  0  0  0  0  0  0  0  0  0
   27.4906  -19.2306  -16.7172 C   0  0  0  0  0  0  0  0  0  0  0  0
   28.8426  -19.2491  -16.6441 C   0  0  0  0  0  0  0  0  0  0  0  0
   29.3140  -18.3212  -17.5197 N   0  0  0  0  0  0  0  0  0  0  0  0
   28.2738  -17.7334  -18.1307 C   0  0  0  0  0  0  0  0  0  0  0  0
   27.1730  -18.2800  -17.6489 N   0  0  0  0  0  0  0  0  0  0  0  0
   25.5991  -21.4163  -14.3252 C   0  0  0  0  0  0  0  0  0  0  0  0
   24.6420  -21.9881  -14.8624 O   0  0  0  0  0  0  0  0  0  0  0  0
   25.5190  -21.1268  -12.9533 N   0  0  0  0  0  0  0  0  0  0  0  0
   24.3216  -21.5110  -12.2065 C   0  0  1  0  0  0  0  0  0  0  0  0
   24.7427  -22.0668  -10.8604 C   0  0  0  0  0  0  0  0  0  0  0  0
   25.5173  -21.1085  -10.0680 C   0  0  0  0  0  0  0  0  0  0  0  0
   24.8633  -20.2000   -9.2360 C   0  0  0  0  0  0  0  0  0  0  0  0
   25.5691  -19.3017   -8.4762 C   0  0  0  0  0  0  0  0  0  0  0  0
   26.9387  -19.2870   -8.5268 C   0  0  0  0  0  0  0  0  0  0  0  0
   27.6021  -20.1668   -9.3340 C   0  0  0  0  0  0  0  0  0  0  0  0
   26.8885  -21.0614  -10.0901 C   0  0  0  0  0  0  0  0  0  0  0  0
   23.3629  -20.4088  -12.1130 C   0  0  0  0  0  0  0  0  0  0  0  0
   22.2033  -20.6320  -11.6888 O   0  0  0  0  0  0  0  0  0  0  0  0
   23.6614  -19.0956  -12.4732 O   0  0  0  0  0  0  0  0  0  0  0  0
  2  1  1  0
  3  2  2  0
  4  3  1  0
  5 11  1  0
  5  4  2  0
  6  5  1  0
  7  6  1  0
  7  8  1  1
  9  7  1  0
  9 13  1  0
 10  9  2  0
 11 12  2  0
 12  2  1  0
 14 15  1  6
 14 13  1  0
 14 21  1  0
 16 15  1  0
 17 16  2  0
 18 17  1  0
 19 18  1  0
 19 20  2  0
 20 16  1  0
 21 22  2  0
 23 21  1  0
 23 24  1  0
 24 32  1  0
 24 25  1  1
 26 31  1  0
 26 25  1  0
 27 26  2  0
 28 29  2  0
 28 27  1  0
 29 30  1  0
 30 31  2  0
 32 34  1  0
 33 32  2  0
M  END
$$$$
