YHF.pdb
     RDKit          3D

 34 36  0  0  1  0  0  0  0  0999 V2000
   20.8156  -27.9895  -17.1158 O   0  0  0  0  0  0  0  0  0  0  0  0
   21.5282  -26.7966  -17.1104 C   0  0  0  0  0  0  0  0  0  0  0  0
   22.2607  -26.3806  -18.1998 C   0  0  0  0  0  0  0  0  0  0  0  0
   22.9774  -25.2053  -18.2276 C   0  0  0  0  0  0  0  0  0  0  0  0
   22.9832  -24.3724  -17.1156 C   0  0  0  0  0  0  0  0  0  0  0  0
   23.7289  -23.1150  -17.0621 C   0  0  0  0  0  0  0  0  0  0  0  0
   25.2124  -23.2570  -16.9631 C   0  0  2  0  0  0  0  0  0  0  0  0
   25.4936  -23.9716  -15.7244 N   0  0  0  0  0  0  0  0  0  0  0  0
   25.8439  -21.9294  -16.9830 C   0  0  0  0  0  0  0  0  0  0  0  0
   26.1931  -21.4130  -15.8817 O   0  0  0  0  0  0  0  0  0  0  0  0
   22.2524  -24.7824  -16.0217 C   0  0  0  0  0  0  0  0  0  0  0  0
   21.5413  -25.9620  -16.0124 C   0  0  0  0  0  0  0  0  0  0  0  0
   26.0935  -21.1804  -18.1353 N   0  0  0  0  0  0  0  0  0  0  0  0
   26.7838  -19.8671  -18.1371 C   0  0  1  0  0  0  0  0  0  0  0  0
   27.8935  -20.0255  -19.1029 C   0  0  0  0  0  0  0  0  0  0  0  0
   28.6981  -18.8496  -19.4188 C   0  0  0  0  0  0  0  0  0  0  0  0
   28.6925  -17.5567  -19.0167 C   0  0  0  0  0  0  0  0  0  0  0  0
   29.7307  -16.9305  -19.6329 N   0  0  0  0  0  0  0  0  0  0  0  0
   30.3750  -17.8177  -20.4065 C   0  0  0  0  0  0  0  0  0  0  0  0
   29.7546  -18.9759  -20.2792 N   0  0  0  0  0  0  0  0  0  0  0  0
   25.7730  -18.9533  -18.7214 C   0  0  0  0  0  0  0  0  0  0  0  0
   24.7503  -19.4079  -19.2496 O   0  0  0  0  0  0  0  0  0  0  0  0
   25.9463  -17.5598  -18.6928 N   0  0  0  0  0  0  0  0  0  0  0  0
   24.9693  -16.7003  -19.3604 C   0  0  1  0  0  0  0  0  0  0  0  0
   23.5973  -16.9756  -18.7772 C   0  0  0  0  0  0  0  0  0  0  0  0
   22.5476  -16.1528  -19.3831 C   0  0  0  0  0  0  0  0  0  0  0  0
   21.9597  -16.5446  -20.5856 C   0  0  0  0  0  0  0  0  0  0  0  0
   20.9668  -15.7955  -21.1648 C   0  0  0  0  0  0  0  0  0  0  0  0
   20.5372  -14.6420  -20.5619 C   0  0  0  0  0  0  0  0  0  0  0  0
   21.0974  -14.2373  -19.3838 C   0  0  0  0  0  0  0  0  0  0  0  0
   22.0895  -14.9923  -18.8118 C   0  0  0  0  0  0  0  0  0  0  0  0
   25.3589  -15.2904  -19.3051 C   0  0  0  0  0  0  0  0  0  0  0  0
   26.0771  -14.8838  -18.3599 O   0  0  0  0  0  0  0  0  0  0  0  0
   24.9749  -14.3472  -20.2570 O   0  0  0  0  0  0  0  0  0  0  0  0
  2  1  1  0
  3  2  2  0
  4  3  1  0
  5 11  1  0
  5  4  2  0
  6  5  1  0
  7  6  1  0
  7  8  1  1
  9  7  1  0
  9 13  1  0
 10  9  2  0
 11 12  2  0
 12  2  1  0
 14 15  1  6
 14 13  1  0
 14 21  1  0
 16 15  1  0
 17 16  2  0
 18 17  1  0
 19 18  1  0
 19 20  2  0
 20 16  1  0
 21 22  2  0
 23 21  1  0
 23 24  1  0
 24 32  1  0
 24 25  1  1
 26 31  1  0
 26 25  1  0
 27 26  2  0
 28 29  2  0
 28 27  1  0
 29 30  1  0
 30 31  2  0
 32 34  1  0
 33 32  2  0
M  END
$$$$
