YHF.pdb
     RDKit          3D

 34 36  0  0  1  0  0  0  0  0999 V2000
   11.6755  -11.1253    3.1975 O   0  0  0  0  0  0  0  0  0  0  0  0
   11.6223  -12.5119    3.1234 C   0  0  0  0  0  0  0  0  0  0  0  0
   10.4624  -13.2108    3.3736 C   0  0  0  0  0  0  0  0  0  0  0  0
   10.3755  -14.5835    3.3089 C   0  0  0  0  0  0  0  0  0  0  0  0
   11.4974  -15.3326    2.9768 C   0  0  0  0  0  0  0  0  0  0  0  0
   11.4895  -16.7934    2.8996 C   0  0  0  0  0  0  0  0  0  0  0  0
   11.1908  -17.3590    1.5499 C   0  0  2  0  0  0  0  0  0  0  0  0
    9.8033  -17.0329    1.2452 N   0  0  0  0  0  0  0  0  0  0  0  0
   11.4220  -18.8110    1.5542 C   0  0  0  0  0  0  0  0  0  0  0  0
   10.5293  -19.5607    2.0464 O   0  0  0  0  0  0  0  0  0  0  0  0
   12.6617  -14.6398    2.7253 C   0  0  0  0  0  0  0  0  0  0  0  0
   12.7295  -13.2658    2.7949 C   0  0  0  0  0  0  0  0  0  0  0  0
   12.5638  -19.4397    1.0520 N   0  0  0  0  0  0  0  0  0  0  0  0
   12.7751  -20.9082    1.0651 C   0  0  1  0  0  0  0  0  0  0  0  0
   12.8152  -21.2963   -0.3622 C   0  0  0  0  0  0  0  0  0  0  0  0
   11.5492  -21.3827   -1.0831 C   0  0  0  0  0  0  0  0  0  0  0  0
   10.2586  -21.1121   -0.7755 C   0  0  0  0  0  0  0  0  0  0  0  0
    9.5131  -21.3479   -1.8884 N   0  0  0  0  0  0  0  0  0  0  0  0
   10.3246  -21.7582   -2.8753 C   0  0  0  0  0  0  0  0  0  0  0  0
   11.5531  -21.7798   -2.3925 N   0  0  0  0  0  0  0  0  0  0  0  0
   14.1370  -21.0500    1.6338 C   0  0  0  0  0  0  0  0  0  0  0  0
   15.0395  -20.2737    1.2959 O   0  0  0  0  0  0  0  0  0  0  0  0
   14.4382  -22.0598    2.5623 N   0  0  0  0  0  0  0  0  0  0  0  0
   15.7754  -22.1185    3.1518 C   0  0  1  0  0  0  0  0  0  0  0  0
   15.6706  -21.8097    4.6322 C   0  0  0  0  0  0  0  0  0  0  0  0
   15.2434  -20.4334    4.8960 C   0  0  0  0  0  0  0  0  0  0  0  0
   13.8902  -20.1431    5.0688 C   0  0  0  0  0  0  0  0  0  0  0  0
   13.4687  -18.8634    5.3284 C   0  0  0  0  0  0  0  0  0  0  0  0
   14.3822  -17.8458    5.4218 C   0  0  0  0  0  0  0  0  0  0  0  0
   15.7131  -18.1050    5.2565 C   0  0  0  0  0  0  0  0  0  0  0  0
   16.1254  -19.3872    4.9973 C   0  0  0  0  0  0  0  0  0  0  0  0
   16.4411  -23.3896    2.8625 C   0  0  0  0  0  0  0  0  0  0  0  0
   15.8152  -24.2913    2.2546 O   0  0  0  0  0  0  0  0  0  0  0  0
   17.7570  -23.6704    3.2270 O   0  0  0  0  0  0  0  0  0  0  0  0
  2  1  1  0
  3  2  2  0
  4  3  1  0
  5 11  1  0
  5  4  2  0
  6  5  1  0
  7  6  1  0
  7  8  1  1
  9  7  1  0
  9 13  1  0
 10  9  2  0
 11 12  2  0
 12  2  1  0
 14 15  1  6
 14 13  1  0
 14 21  1  0
 16 15  1  0
 17 16  2  0
 18 17  1  0
 19 18  1  0
 19 20  2  0
 20 16  1  0
 21 22  2  0
 23 21  1  0
 23 24  1  0
 24 32  1  0
 24 25  1  1
 26 31  1  0
 26 25  1  0
 27 26  2  0
 28 29  2  0
 28 27  1  0
 29 30  1  0
 30 31  2  0
 32 34  1  0
 33 32  2  0
M  END
$$$$
