IMG.pdb
     RDKit          3D

 21 20  0  0  1  0  0  0  0  0999 V2000
   11.0232  -14.5947   30.4815 C   0  0  0  0  0  0  0  0  0  0  0  0
   10.4766  -15.8086   29.8044 C   0  0  0  0  0  0  0  0  0  0  0  0
   10.1518  -15.5642   28.3379 C   0  0  2  0  0  0  0  0  0  0  0  0
    9.5550  -14.2150   28.1199 C   0  0  0  0  0  0  0  0  0  0  0  0
    9.1885  -16.6530   27.9346 C   0  0  2  0  0  0  0  0  0  0  0  0
    9.8456  -17.9689   28.1498 N   0  0  0  0  0  0  0  0  0  0  0  0
    8.8736  -16.5875   26.4941 C   0  0  0  0  0  0  0  0  0  0  0  0
    8.6071  -17.6605   25.8507 O   0  0  0  0  0  0  0  0  0  0  0  0
    5.2411  -11.5760   26.2942 C   0  0  0  0  0  0  0  0  0  0  0  0
    6.6556  -11.9990   25.2639 S   0  0  0  0  0  0  0  0  0  0  0  0
    6.5961  -13.7832   24.8651 C   0  0  0  0  0  0  0  0  0  0  0  0
    7.8228  -14.0710   24.0560 C   0  0  0  0  0  0  0  0  0  0  0  0
    8.4125  -15.4252   24.3119 C   0  0  2  0  0  0  0  0  0  0  0  0
    8.8341  -15.4088   25.7364 N   0  0  0  0  0  0  0  0  0  0  0  0
    9.5224  -15.8498   23.5060 C   0  0  0  0  0  0  0  0  0  0  0  0
    9.3301  -16.0696   22.2577 O   0  0  0  0  0  0  0  0  0  0  0  0
   10.8662  -16.0605   23.9466 N   0  0  0  0  0  0  0  0  0  0  0  0
   11.8987  -16.5324   23.0539 C   0  0  0  0  0  0  0  0  0  0  0  0
   12.8849  -15.4708   22.8264 C   0  0  0  0  0  0  0  0  0  0  0  0
   13.4528  -14.9268   23.8042 O   0  0  0  0  0  0  0  0  0  0  0  0
   13.2025  -15.0543   21.5185 O   0  0  0  0  0  0  0  0  0  0  0  0
  2  1  1  0
  3  2  1  0
  3  5  1  0
  3  4  1  1
  5  7  1  0
  5  6  1  6
  7  8  2  0
  9 10  1  0
 10 11  1  0
 11 12  1  0
 13 12  1  6
 14 13  1  0
 14  7  1  0
 15 17  1  0
 15 13  1  0
 16 15  2  0
 18 17  1  0
 19 18  1  0
 19 21  1  0
 20 19  2  0
M  END
$$$$
