IMG.pdb
     RDKit          3D

 21 20  0  0  1  0  0  0  0  0999 V2000
    7.6648  -12.0355   19.2132 C   0  0  0  0  0  0  0  0  0  0  0  0
    7.2890  -13.0329   20.2596 C   0  0  0  0  0  0  0  0  0  0  0  0
    7.7678  -14.4386   19.9266 C   0  0  2  0  0  0  0  0  0  0  0  0
    7.2384  -14.9077   18.6137 C   0  0  0  0  0  0  0  0  0  0  0  0
    7.2868  -15.3226   21.0505 C   0  0  2  0  0  0  0  0  0  0  0  0
    5.8181  -15.1458   21.1954 N   0  0  0  0  0  0  0  0  0  0  0  0
    7.8736  -14.9183   22.3430 C   0  0  0  0  0  0  0  0  0  0  0  0
    7.6484  -13.7475   22.8067 O   0  0  0  0  0  0  0  0  0  0  0  0
    6.3250  -11.3881   26.7975 C   0  0  0  0  0  0  0  0  0  0  0  0
    6.7557  -13.1344   26.7175 S   0  0  0  0  0  0  0  0  0  0  0  0
    7.7750  -13.4341   25.2285 C   0  0  0  0  0  0  0  0  0  0  0  0
    8.2097  -14.8651   25.3016 C   0  0  0  0  0  0  0  0  0  0  0  0
    9.3344  -15.2043   24.3702 C   0  0  2  0  0  0  0  0  0  0  0  0
    8.6846  -15.7342   23.1439 N   0  0  0  0  0  0  0  0  0  0  0  0
   10.3260  -16.1443   24.8114 C   0  0  0  0  0  0  0  0  0  0  0  0
    9.9441  -17.2975   25.2207 O   0  0  0  0  0  0  0  0  0  0  0  0
   11.7407  -15.9397   24.8458 N   0  0  0  0  0  0  0  0  0  0  0  0
   12.6524  -16.9718   25.2808 C   0  0  0  0  0  0  0  0  0  0  0  0
   14.0369  -16.5162   25.1162 C   0  0  0  0  0  0  0  0  0  0  0  0
   14.2678  -15.3944   24.6035 O   0  0  0  0  0  0  0  0  0  0  0  0
   15.1132  -17.3265   25.5285 O   0  0  0  0  0  0  0  0  0  0  0  0
  2  1  1  0
  3  2  1  0
  3  5  1  0
  3  4  1  6
  5  7  1  0
  5  6  1  1
  7  8  2  0
  9 10  1  0
 10 11  1  0
 11 12  1  0
 13 12  1  1
 14 13  1  0
 14  7  1  0
 15 17  1  0
 15 13  1  0
 16 15  2  0
 18 17  1  0
 19 18  1  0
 19 21  1  0
 20 19  2  0
M  END
$$$$
