IMG.pdb
     RDKit          3D

 21 20  0  0  1  0  0  0  0  0999 V2000
    9.4685  -16.8691   19.0136 C   0  0  0  0  0  0  0  0  0  0  0  0
    9.2412  -15.4901   19.5406 C   0  0  0  0  0  0  0  0  0  0  0  0
    7.7728  -15.0911   19.5211 C   0  0  2  0  0  0  0  0  0  0  0  0
    7.2193  -15.0820   18.1363 C   0  0  0  0  0  0  0  0  0  0  0  0
    7.7033  -13.7170   20.1401 C   0  0  2  0  0  0  0  0  0  0  0  0
    8.6827  -12.8376   19.4495 N   0  0  0  0  0  0  0  0  0  0  0  0
    8.1114  -13.7435   21.5582 C   0  0  0  0  0  0  0  0  0  0  0  0
    9.2454  -13.2632   21.9041 O   0  0  0  0  0  0  0  0  0  0  0  0
    7.5485  -11.5732   28.1639 C   0  0  0  0  0  0  0  0  0  0  0  0
    7.3543  -11.9474   26.4136 S   0  0  0  0  0  0  0  0  0  0  0  0
    6.6275  -13.6163   26.2332 C   0  0  0  0  0  0  0  0  0  0  0  0
    6.4466  -13.8358   24.7630 C   0  0  0  0  0  0  0  0  0  0  0  0
    7.7299  -14.0661   24.0231 C   0  0  2  0  0  0  0  0  0  0  0  0
    7.3369  -14.2640   22.6042 N   0  0  0  0  0  0  0  0  0  0  0  0
    8.5647  -15.1615   24.4290 C   0  0  0  0  0  0  0  0  0  0  0  0
    9.0435  -15.1648   25.6182 O   0  0  0  0  0  0  0  0  0  0  0  0
    8.9355  -16.2918   23.6357 N   0  0  0  0  0  0  0  0  0  0  0  0
    9.6789  -17.4013   24.1854 C   0  0  0  0  0  0  0  0  0  0  0  0
   11.1178  -17.1653   24.0263 C   0  0  0  0  0  0  0  0  0  0  0  0
   11.7144  -16.3936   24.8157 O   0  0  0  0  0  0  0  0  0  0  0  0
   11.8392  -17.7973   22.9943 O   0  0  0  0  0  0  0  0  0  0  0  0
  2  1  1  0
  3  2  1  0
  3  5  1  0
  3  4  1  6
  5  7  1  0
  5  6  1  6
  7  8  2  0
  9 10  1  0
 10 11  1  0
 11 12  1  0
 13 12  1  1
 14 13  1  0
 14  7  1  0
 15 17  1  0
 15 13  1  0
 16 15  2  0
 18 17  1  0
 19 18  1  0
 19 21  1  0
 20 19  2  0
M  END
$$$$
