IMG.pdb
     RDKit          3D

 21 20  0  0  1  0  0  0  0  0999 V2000
    7.1336  -12.6252   18.5048 C   0  0  0  0  0  0  0  0  0  0  0  0
    7.6240  -13.8243   19.2481 C   0  0  0  0  0  0  0  0  0  0  0  0
    7.9512  -13.5177   20.7023 C   0  0  2  0  0  0  0  0  0  0  0  0
    9.0181  -12.4829   20.8240 C   0  0  0  0  0  0  0  0  0  0  0  0
    8.3915  -14.8231   21.3173 C   0  0  2  0  0  0  0  0  0  0  0  0
    7.3378  -15.8417   21.0691 N   0  0  0  0  0  0  0  0  0  0  0  0
    8.5127  -14.7139   22.7842 C   0  0  0  0  0  0  0  0  0  0  0  0
    8.9123  -13.6188   23.3109 O   0  0  0  0  0  0  0  0  0  0  0  0
    5.8523  -11.6914   27.3009 C   0  0  0  0  0  0  0  0  0  0  0  0
    7.2905  -12.5868   26.6917 S   0  0  0  0  0  0  0  0  0  0  0  0
    6.7973  -13.6125   25.2597 C   0  0  0  0  0  0  0  0  0  0  0  0
    7.0735  -15.0319   25.6484 C   0  0  0  0  0  0  0  0  0  0  0  0
    8.3903  -15.5497   25.1532 C   0  0  2  0  0  0  0  0  0  0  0  0
    8.2140  -15.7407   23.6905 N   0  0  0  0  0  0  0  0  0  0  0  0
    8.9025  -16.7654   25.7200 C   0  0  0  0  0  0  0  0  0  0  0  0
    9.1134  -16.8163   26.9834 O   0  0  0  0  0  0  0  0  0  0  0  0
    9.2131  -17.9708   25.0165 N   0  0  0  0  0  0  0  0  0  0  0  0
   10.2772  -18.0353   24.0422 C   0  0  0  0  0  0  0  0  0  0  0  0
   11.5659  -18.2066   24.7216 C   0  0  0  0  0  0  0  0  0  0  0  0
   11.9017  -17.4111   25.6320 O   0  0  0  0  0  0  0  0  0  0  0  0
   12.4329  -19.2572   24.3620 O   0  0  0  0  0  0  0  0  0  0  0  0
  2  1  1  0
  3  2  1  0
  3  5  1  0
  3  4  1  6
  5  7  1  0
  5  6  1  1
  7  8  2  0
  9 10  1  0
 10 11  1  0
 11 12  1  0
 13 12  1  1
 14 13  1  0
 14  7  1  0
 15 17  1  0
 15 13  1  0
 16 15  2  0
 18 17  1  0
 19 18  1  0
 19 21  1  0
 20 19  2  0
M  END
$$$$
