IMG.pdb
     RDKit          3D

 21 20  0  0  1  0  0  0  0  0999 V2000
    7.1507  -12.4905   18.5363 C   0  0  0  0  0  0  0  0  0  0  0  0
    7.5550  -13.7463   19.2367 C   0  0  0  0  0  0  0  0  0  0  0  0
    7.9791  -13.5019   20.6776 C   0  0  2  0  0  0  0  0  0  0  0  0
    9.0972  -12.5191   20.7670 C   0  0  0  0  0  0  0  0  0  0  0  0
    8.3945  -14.8446   21.2260 C   0  0  2  0  0  0  0  0  0  0  0  0
    7.2294  -15.7649   21.1554 N   0  0  0  0  0  0  0  0  0  0  0  0
    8.7548  -14.7551   22.6545 C   0  0  0  0  0  0  0  0  0  0  0  0
    9.8708  -14.2332   22.9988 O   0  0  0  0  0  0  0  0  0  0  0  0
    7.3407  -11.2381   27.3528 C   0  0  0  0  0  0  0  0  0  0  0  0
    6.0048  -12.2925   26.7654 S   0  0  0  0  0  0  0  0  0  0  0  0
    6.5797  -13.2334   25.3059 C   0  0  0  0  0  0  0  0  0  0  0  0
    7.1196  -14.5280   25.8302 C   0  0  0  0  0  0  0  0  0  0  0  0
    8.3571  -14.9970   25.1261 C   0  0  2  0  0  0  0  0  0  0  0  0
    7.9517  -15.2042   23.7121 N   0  0  0  0  0  0  0  0  0  0  0  0
    9.0029  -16.1881   25.6014 C   0  0  0  0  0  0  0  0  0  0  0  0
    9.3086  -16.2706   26.8436 O   0  0  0  0  0  0  0  0  0  0  0  0
    9.3547  -17.3362   24.8251 N   0  0  0  0  0  0  0  0  0  0  0  0
    9.8723  -18.5403   25.4317 C   0  0  0  0  0  0  0  0  0  0  0  0
   11.3137  -18.6452   25.1810 C   0  0  0  0  0  0  0  0  0  0  0  0
   11.9332  -17.6730   24.6853 O   0  0  0  0  0  0  0  0  0  0  0  0
   12.0121  -19.8287   25.4916 O   0  0  0  0  0  0  0  0  0  0  0  0
  2  1  1  0
  3  2  1  0
  3  5  1  0
  3  4  1  6
  5  7  1  0
  5  6  1  1
  7  8  2  0
  9 10  1  0
 10 11  1  0
 11 12  1  0
 13 12  1  1
 14 13  1  0
 14  7  1  0
 15 17  1  0
 15 13  1  0
 16 15  2  0
 18 17  1  0
 19 18  1  0
 19 21  1  0
 20 19  2  0
M  END
$$$$
