IMG.pdb
     RDKit          3D

 21 20  0  0  1  0  0  0  0  0999 V2000
    6.9972  -12.8387   18.7836 C   0  0  0  0  0  0  0  0  0  0  0  0
    7.4278  -14.0417   19.5571 C   0  0  0  0  0  0  0  0  0  0  0  0
    8.2278  -13.6820   20.8007 C   0  0  2  0  0  0  0  0  0  0  0  0
    9.4757  -12.9394   20.4612 C   0  0  0  0  0  0  0  0  0  0  0  0
    8.5453  -14.9874   21.4872 C   0  0  2  0  0  0  0  0  0  0  0  0
    7.3757  -15.8935   21.3437 N   0  0  0  0  0  0  0  0  0  0  0  0
    8.7378  -14.8002   22.9385 C   0  0  0  0  0  0  0  0  0  0  0  0
    9.6712  -14.0360   23.3641 O   0  0  0  0  0  0  0  0  0  0  0  0
    6.3427  -11.1203   27.1954 C   0  0  0  0  0  0  0  0  0  0  0  0
    7.2500  -12.6727   27.1035 S   0  0  0  0  0  0  0  0  0  0  0  0
    6.4101  -13.7904   25.9240 C   0  0  0  0  0  0  0  0  0  0  0  0
    7.0379  -15.1375   26.1064 C   0  0  0  0  0  0  0  0  0  0  0  0
    8.3316  -15.3072   25.3682 C   0  0  2  0  0  0  0  0  0  0  0  0
    7.9571  -15.4042   23.9338 N   0  0  0  0  0  0  0  0  0  0  0  0
    9.1679  -16.4249   25.7045 C   0  0  0  0  0  0  0  0  0  0  0  0
    9.3835  -16.6840   26.9413 O   0  0  0  0  0  0  0  0  0  0  0  0
    9.8088  -17.3173   24.7896 N   0  0  0  0  0  0  0  0  0  0  0  0
   10.6408  -18.4080   25.2410 C   0  0  0  0  0  0  0  0  0  0  0  0
   11.1526  -19.1556   24.0875 C   0  0  0  0  0  0  0  0  0  0  0  0
   10.4877  -20.1106   23.6182 O   0  0  0  0  0  0  0  0  0  0  0  0
   12.3859  -18.8121   23.4992 O   0  0  0  0  0  0  0  0  0  0  0  0
  2  1  1  0
  3  2  1  0
  3  5  1  0
  3  4  1  6
  5  7  1  0
  5  6  1  1
  7  8  2  0
  9 10  1  0
 10 11  1  0
 11 12  1  0
 13 12  1  1
 14 13  1  0
 14  7  1  0
 15 17  1  0
 15 13  1  0
 16 15  2  0
 18 17  1  0
 19 18  1  0
 19 21  1  0
 20 19  2  0
M  END
$$$$
