IMG.pdb
     RDKit          3D

 21 20  0  0  1  0  0  0  0  0999 V2000
    7.7861  -12.6927   18.0882 C   0  0  0  0  0  0  0  0  0  0  0  0
    7.3011  -13.6564   19.1211 C   0  0  0  0  0  0  0  0  0  0  0  0
    8.2141  -13.7191   20.3370 C   0  0  2  0  0  0  0  0  0  0  0  0
    9.5872  -14.1754   19.9760 C   0  0  0  0  0  0  0  0  0  0  0  0
    7.5620  -14.6781   21.3020 C   0  0  2  0  0  0  0  0  0  0  0  0
    6.0970  -14.4269   21.3005 N   0  0  0  0  0  0  0  0  0  0  0  0
    8.0132  -14.4391   22.6869 C   0  0  0  0  0  0  0  0  0  0  0  0
    8.2321  -13.2445   23.0885 O   0  0  0  0  0  0  0  0  0  0  0  0
    5.9037  -11.0008   27.1570 C   0  0  0  0  0  0  0  0  0  0  0  0
    6.0915  -12.7837   26.9910 S   0  0  0  0  0  0  0  0  0  0  0  0
    7.5298  -13.1389   25.9182 C   0  0  0  0  0  0  0  0  0  0  0  0
    7.5891  -14.6288   25.7797 C   0  0  0  0  0  0  0  0  0  0  0  0
    8.7656  -15.1166   24.9891 C   0  0  2  0  0  0  0  0  0  0  0  0
    8.2284  -15.4416   23.6427 N   0  0  0  0  0  0  0  0  0  0  0  0
    9.4962  -16.2503   25.4816 C   0  0  0  0  0  0  0  0  0  0  0  0
    9.9405  -16.2233   26.6837 O   0  0  0  0  0  0  0  0  0  0  0  0
    9.7943  -17.4509   24.7645 N   0  0  0  0  0  0  0  0  0  0  0  0
   10.4881  -18.5576   25.3807 C   0  0  0  0  0  0  0  0  0  0  0  0
   11.9274  -18.4524   25.1183 C   0  0  0  0  0  0  0  0  0  0  0  0
   12.4015  -17.3851   24.6594 O   0  0  0  0  0  0  0  0  0  0  0  0
   12.7855  -19.5395   25.3767 O   0  0  0  0  0  0  0  0  0  0  0  0
  2  1  1  0
  3  2  1  0
  3  5  1  0
  3  4  1  6
  5  7  1  0
  5  6  1  1
  7  8  2  0
  9 10  1  0
 10 11  1  0
 11 12  1  0
 13 12  1  1
 14 13  1  0
 14  7  1  0
 15 17  1  0
 15 13  1  0
 16 15  2  0
 18 17  1  0
 19 18  1  0
 19 21  1  0
 20 19  2  0
M  END
$$$$
