IMG.pdb
     RDKit          3D

 21 20  0  0  1  0  0  0  0  0999 V2000
    3.6746  -21.2750   23.4165 C   0  0  0  0  0  0  0  0  0  0  0  0
    5.0412  -20.9155   23.9005 C   0  0  0  0  0  0  0  0  0  0  0  0
    5.5400  -19.6001   23.3200 C   0  0  2  0  0  0  0  0  0  0  0  0
    5.5426  -19.6180   21.8288 C   0  0  0  0  0  0  0  0  0  0  0  0
    6.9348  -19.4053   23.8608 C   0  0  2  0  0  0  0  0  0  0  0  0
    6.9301  -19.7346   25.3103 N   0  0  0  0  0  0  0  0  0  0  0  0
    7.3570  -17.9941   23.7668 C   0  0  0  0  0  0  0  0  0  0  0  0
    7.5589  -17.4644   22.6200 O   0  0  0  0  0  0  0  0  0  0  0  0
    5.7303  -11.2240   26.6371 C   0  0  0  0  0  0  0  0  0  0  0  0
    6.6324  -12.7395   26.9990 S   0  0  0  0  0  0  0  0  0  0  0  0
    6.7220  -13.7614   25.4845 C   0  0  0  0  0  0  0  0  0  0  0  0
    7.4954  -14.9890   25.8547 C   0  0  0  0  0  0  0  0  0  0  0  0
    8.0277  -15.7472   24.6761 C   0  0  2  0  0  0  0  0  0  0  0  0
    7.5614  -17.1452   24.8634 N   0  0  0  0  0  0  0  0  0  0  0  0
    9.4465  -15.7584   24.4560 C   0  0  0  0  0  0  0  0  0  0  0  0
   10.0363  -14.6552   24.1763 O   0  0  0  0  0  0  0  0  0  0  0  0
   10.3110  -16.8957   24.5177 N   0  0  0  0  0  0  0  0  0  0  0  0
   11.7385  -16.7823   24.3309 C   0  0  0  0  0  0  0  0  0  0  0  0
   12.3680  -18.0981   24.4854 C   0  0  0  0  0  0  0  0  0  0  0  0
   12.3912  -18.8961   23.5172 O   0  0  0  0  0  0  0  0  0  0  0  0
   12.9482  -18.4768   25.7121 O   0  0  0  0  0  0  0  0  0  0  0  0
  2  1  1  0
  3  2  1  0
  3  5  1  0
  3  4  1  6
  5  7  1  0
  5  6  1  1
  7  8  2  0
  9 10  1  0
 10 11  1  0
 11 12  1  0
 13 12  1  1
 14 13  1  0
 14  7  1  0
 15 17  1  0
 15 13  1  0
 16 15  2  0
 18 17  1  0
 19 18  1  0
 19 21  1  0
 20 19  2  0
M  END
$$$$
