IMG.pdb
     RDKit          3D

 21 20  0  0  1  0  0  0  0  0999 V2000
    6.8877  -22.1505   23.2968 C   0  0  0  0  0  0  0  0  0  0  0  0
    6.1650  -20.9522   23.8191 C   0  0  0  0  0  0  0  0  0  0  0  0
    6.9961  -19.6808   23.7251 C   0  0  2  0  0  0  0  0  0  0  0  0
    8.3018  -19.8189   24.4323 C   0  0  0  0  0  0  0  0  0  0  0  0
    6.1602  -18.5868   24.3419 C   0  0  2  0  0  0  0  0  0  0  0  0
    4.8361  -18.5661   23.6668 N   0  0  0  0  0  0  0  0  0  0  0  0
    6.7557  -17.2568   24.1080 C   0  0  0  0  0  0  0  0  0  0  0  0
    6.6875  -16.7233   22.9473 O   0  0  0  0  0  0  0  0  0  0  0  0
    7.1395  -11.5839   27.0176 C   0  0  0  0  0  0  0  0  0  0  0  0
    5.6682  -12.5959   26.7889 S   0  0  0  0  0  0  0  0  0  0  0  0
    6.0461  -13.9496   25.6181 C   0  0  0  0  0  0  0  0  0  0  0  0
    7.5143  -14.2146   25.7467 C   0  0  0  0  0  0  0  0  0  0  0  0
    8.0435  -15.1908   24.7396 C   0  0  2  0  0  0  0  0  0  0  0  0
    7.4122  -16.4914   25.0817 N   0  0  0  0  0  0  0  0  0  0  0  0
    9.4645  -15.3759   24.6496 C   0  0  0  0  0  0  0  0  0  0  0  0
   10.1970  -14.3773   24.3187 O   0  0  0  0  0  0  0  0  0  0  0  0
   10.1853  -16.5854   24.8981 N   0  0  0  0  0  0  0  0  0  0  0  0
   10.7583  -17.3679   23.8280 C   0  0  0  0  0  0  0  0  0  0  0  0
   12.1159  -16.8954   23.5362 C   0  0  0  0  0  0  0  0  0  0  0  0
   12.6716  -16.0781   24.3093 O   0  0  0  0  0  0  0  0  0  0  0  0
   12.8045  -17.3504   22.3944 O   0  0  0  0  0  0  0  0  0  0  0  0
  2  1  1  0
  3  2  1  0
  3  5  1  0
  3  4  1  1
  5  7  1  0
  5  6  1  6
  7  8  2  0
  9 10  1  0
 10 11  1  0
 11 12  1  0
 13 12  1  1
 14 13  1  0
 14  7  1  0
 15 17  1  0
 15 13  1  0
 16 15  2  0
 18 17  1  0
 19 18  1  0
 19 21  1  0
 20 19  2  0
M  END
$$$$
