IMG.pdb
     RDKit          3D

 21 20  0  0  1  0  0  0  0  0999 V2000
    8.1992  -11.9838   19.4001 C   0  0  0  0  0  0  0  0  0  0  0  0
    7.6222  -13.1223   20.1759 C   0  0  0  0  0  0  0  0  0  0  0  0
    8.4041  -14.4143   19.9877 C   0  0  2  0  0  0  0  0  0  0  0  0
    8.2823  -14.9380   18.5967 C   0  0  0  0  0  0  0  0  0  0  0  0
    7.8402  -15.3949   20.9859 C   0  0  2  0  0  0  0  0  0  0  0  0
    6.3857  -15.5528   20.7234 N   0  0  0  0  0  0  0  0  0  0  0  0
    7.9502  -14.8827   22.3657 C   0  0  0  0  0  0  0  0  0  0  0  0
    7.6873  -13.6554   22.6127 O   0  0  0  0  0  0  0  0  0  0  0  0
    7.1286  -11.4790   27.9017 C   0  0  0  0  0  0  0  0  0  0  0  0
    7.1503  -12.2433   26.2718 S   0  0  0  0  0  0  0  0  0  0  0  0
    6.6927  -14.0073   26.4294 C   0  0  0  0  0  0  0  0  0  0  0  0
    6.9138  -14.6178   25.0801 C   0  0  0  0  0  0  0  0  0  0  0  0
    8.3225  -15.0737   24.8457 C   0  0  2  0  0  0  0  0  0  0  0  0
    8.3277  -15.6500   23.4764 N   0  0  0  0  0  0  0  0  0  0  0  0
    8.8900  -16.0312   25.7527 C   0  0  0  0  0  0  0  0  0  0  0  0
    8.1976  -17.0605   26.0760 O   0  0  0  0  0  0  0  0  0  0  0  0
   10.1845  -15.9718   26.3569 N   0  0  0  0  0  0  0  0  0  0  0  0
   10.6511  -16.9909   27.2676 C   0  0  0  0  0  0  0  0  0  0  0  0
   11.0614  -18.1817   26.5158 C   0  0  0  0  0  0  0  0  0  0  0  0
   10.2352  -18.7669   25.7746 O   0  0  0  0  0  0  0  0  0  0  0  0
   12.3765  -18.6768   26.6172 O   0  0  0  0  0  0  0  0  0  0  0  0
  2  1  1  0
  3  2  1  0
  3  5  1  0
  3  4  1  6
  5  7  1  0
  5  6  1  6
  7  8  2  0
  9 10  1  0
 10 11  1  0
 11 12  1  0
 13 12  1  1
 14 13  1  0
 14  7  1  0
 15 17  1  0
 15 13  1  0
 16 15  2  0
 18 17  1  0
 19 18  1  0
 19 21  1  0
 20 19  2  0
M  END
$$$$
