IMG.pdb
     RDKit          3D

 21 20  0  0  1  0  0  0  0  0999 V2000
    8.6118  -14.6085   17.3553 C   0  0  0  0  0  0  0  0  0  0  0  0
    7.7197  -14.2156   18.4870 C   0  0  0  0  0  0  0  0  0  0  0  0
    8.3563  -14.4632   19.8469 C   0  0  2  0  0  0  0  0  0  0  0  0
    8.8100  -15.8758   19.9973 C   0  0  0  0  0  0  0  0  0  0  0  0
    7.3029  -14.1217   20.8715 C   0  0  2  0  0  0  0  0  0  0  0  0
    6.6941  -12.8158   20.5062 N   0  0  0  0  0  0  0  0  0  0  0  0
    7.8946  -13.9331   22.2104 C   0  0  0  0  0  0  0  0  0  0  0  0
    8.6881  -12.9527   22.4241 O   0  0  0  0  0  0  0  0  0  0  0  0
    7.1563  -12.0780   27.8539 C   0  0  0  0  0  0  0  0  0  0  0  0
    6.8998  -11.8978   26.0811 S   0  0  0  0  0  0  0  0  0  0  0  0
    6.1141  -13.4161   25.4304 C   0  0  0  0  0  0  0  0  0  0  0  0
    7.1143  -14.5152   25.6145 C   0  0  0  0  0  0  0  0  0  0  0  0
    8.2540  -14.4655   24.6420 C   0  0  2  0  0  0  0  0  0  0  0  0
    7.6537  -14.7610   23.3157 N   0  0  0  0  0  0  0  0  0  0  0  0
    9.3690  -15.3456   24.8516 C   0  0  0  0  0  0  0  0  0  0  0  0
    9.9967  -15.2913   25.9680 O   0  0  0  0  0  0  0  0  0  0  0  0
    9.8779  -16.3129   23.9298 N   0  0  0  0  0  0  0  0  0  0  0  0
   10.9926  -17.1702   24.2586 C   0  0  0  0  0  0  0  0  0  0  0  0
   11.3052  -18.0407   23.1202 C   0  0  0  0  0  0  0  0  0  0  0  0
   10.6821  -17.9028   22.0398 O   0  0  0  0  0  0  0  0  0  0  0  0
   12.3001  -19.0326   23.2268 O   0  0  0  0  0  0  0  0  0  0  0  0
  2  1  1  0
  3  2  1  0
  3  5  1  0
  3  4  1  6
  5  7  1  0
  5  6  1  6
  7  8  2  0
  9 10  1  0
 10 11  1  0
 11 12  1  0
 13 12  1  1
 14 13  1  0
 14  7  1  0
 15 17  1  0
 15 13  1  0
 16 15  2  0
 18 17  1  0
 19 18  1  0
 19 21  1  0
 20 19  2  0
M  END
$$$$
