QHE.pdb
     RDKit          3D

 29 29  0  0  1  0  0  0  0  0999 V2000
   10.2994  -22.3543   15.9891 N   0  0  0  0  0  0  0  0  0  0  0  0
   11.2483  -21.9290   15.0190 C   0  0  0  0  0  0  0  0  0  0  0  0
   11.5696  -22.7303   14.1240 O   0  0  0  0  0  0  0  0  0  0  0  0
   11.7960  -20.5469   15.1402 C   0  0  0  0  0  0  0  0  0  0  0  0
   11.2069  -19.9560   16.4014 C   0  0  0  0  0  0  0  0  0  0  0  0
   10.2271  -18.8550   16.1196 C   0  0  2  0  0  0  0  0  0  0  0  0
   10.4036  -18.3154   14.7949 N   0  0  0  0  0  0  0  0  0  0  0  0
   10.3340  -17.7364   17.0830 C   0  0  0  0  0  0  0  0  0  0  0  0
   11.4762  -17.3490   17.4293 O   0  0  0  0  0  0  0  0  0  0  0  0
    9.2082  -17.0857   17.6298 N   0  0  0  0  0  0  0  0  0  0  0  0
    9.3675  -15.9362   18.5752 C   0  0  1  0  0  0  0  0  0  0  0  0
    8.0615  -15.2380   18.6679 C   0  0  0  0  0  0  0  0  0  0  0  0
    7.9431  -14.0943   19.5695 C   0  0  0  0  0  0  0  0  0  0  0  0
    7.3123  -14.0024   20.7838 C   0  0  0  0  0  0  0  0  0  0  0  0
    7.3975  -12.7438   21.2795 N   0  0  0  0  0  0  0  0  0  0  0  0
    8.0874  -12.0373   20.3698 C   0  0  0  0  0  0  0  0  0  0  0  0
    8.4193  -12.8342   19.3423 N   0  0  0  0  0  0  0  0  0  0  0  0
   10.0394  -16.3864   19.7578 C   0  0  0  0  0  0  0  0  0  0  0  0
    9.8591  -17.5976   20.1530 O   0  0  0  0  0  0  0  0  0  0  0  0
   10.9166  -15.6308   20.5675 N   0  0  0  0  0  0  0  0  0  0  0  0
   11.6293  -16.2433   21.6846 C   0  0  1  0  0  0  0  0  0  0  0  0
   12.9670  -15.5362   21.8326 C   0  0  0  0  0  0  0  0  0  0  0  0
   13.8240  -16.0756   22.9191 C   0  0  0  0  0  0  0  0  0  0  0  0
   15.1381  -15.4130   23.0538 C   0  0  0  0  0  0  0  0  0  0  0  0
   15.4052  -14.3744   22.4120 O   0  0  0  0  0  0  0  0  0  0  0  0
   10.8931  -16.0025   22.9312 C   0  0  0  0  0  0  0  0  0  0  0  0
   11.2511  -16.5057   24.0399 O   0  0  0  0  0  0  0  0  0  0  0  0
   16.1175  -15.9197   23.8950 O   0  0  0  0  0  0  0  0  0  0  0  0
    9.7719  -15.2100   22.9422 O   0  0  0  0  0  0  0  0  0  0  0  0
  2  1  1  0
  2  3  2  0
  4  2  1  0
  5  4  1  0
  6  7  1  6
  6  5  1  0
  8  6  1  0
  9  8  2  0
 10  8  1  0
 11 18  1  0
 11 10  1  0
 11 12  1  1
 13 12  1  0
 13 14  2  0
 15 14  1  0
 16 15  1  0
 17 16  2  0
 17 13  1  0
 18 19  2  0
 20 18  1  0
 21 20  1  0
 21 22  1  1
 23 22  1  0
 24 25  2  0
 24 23  1  0
 26 29  1  0
 26 21  1  0
 27 26  2  0
 28 24  1  0
M  END
$$$$
