QHE.pdb
     RDKit          3D

 29 29  0  0  1  0  0  0  0  0999 V2000
    8.8498  -13.1848   16.7132 N   0  0  0  0  0  0  0  0  0  0  0  0
    7.8911  -14.2069   16.9552 C   0  0  0  0  0  0  0  0  0  0  0  0
    7.9030  -15.2073   16.2166 O   0  0  0  0  0  0  0  0  0  0  0  0
    6.9331  -14.0103   18.0814 C   0  0  0  0  0  0  0  0  0  0  0  0
    7.7370  -13.4785   19.2467 C   0  0  0  0  0  0  0  0  0  0  0  0
    8.4487  -14.5640   19.9997 C   0  0  2  0  0  0  0  0  0  0  0  0
    7.7727  -15.8301   19.8687 N   0  0  0  0  0  0  0  0  0  0  0  0
    8.5774  -14.2657   21.4437 C   0  0  0  0  0  0  0  0  0  0  0  0
    8.5300  -13.0684   21.8165 O   0  0  0  0  0  0  0  0  0  0  0  0
    8.7513  -15.2682   22.4208 N   0  0  0  0  0  0  0  0  0  0  0  0
    8.7838  -14.9257   23.8775 C   0  0  1  0  0  0  0  0  0  0  0  0
    7.5714  -14.1274   24.1852 C   0  0  0  0  0  0  0  0  0  0  0  0
    7.4200  -13.5769   25.5302 C   0  0  0  0  0  0  0  0  0  0  0  0
    8.2320  -13.7170   26.6266 C   0  0  0  0  0  0  0  0  0  0  0  0
    7.7077  -13.0798   27.7019 N   0  0  0  0  0  0  0  0  0  0  0  0
    6.5561  -12.5341   27.2791 C   0  0  0  0  0  0  0  0  0  0  0  0
    6.3729  -12.8245   25.9817 N   0  0  0  0  0  0  0  0  0  0  0  0
    9.0928  -16.1031   24.6332 C   0  0  0  0  0  0  0  0  0  0  0  0
    8.3615  -17.1506   24.4798 O   0  0  0  0  0  0  0  0  0  0  0  0
   10.1513  -16.2579   25.5560 N   0  0  0  0  0  0  0  0  0  0  0  0
   10.3503  -17.5138   26.2731 C   0  0  1  0  0  0  0  0  0  0  0  0
   11.7912  -17.9510   26.0638 C   0  0  0  0  0  0  0  0  0  0  0  0
   12.1737  -18.1258   24.6394 C   0  0  0  0  0  0  0  0  0  0  0  0
   13.5705  -18.5588   24.4252 C   0  0  0  0  0  0  0  0  0  0  0  0
   13.8311  -19.6918   23.9669 O   0  0  0  0  0  0  0  0  0  0  0  0
   10.1904  -17.2896   27.7147 C   0  0  0  0  0  0  0  0  0  0  0  0
   10.0033  -16.1346   28.2062 O   0  0  0  0  0  0  0  0  0  0  0  0
   14.6372  -17.7245   24.7248 O   0  0  0  0  0  0  0  0  0  0  0  0
   10.2378  -18.3399   28.5978 O   0  0  0  0  0  0  0  0  0  0  0  0
  2  1  1  0
  2  3  2  0
  4  2  1  0
  5  4  1  0
  6  7  1  1
  6  5  1  0
  8  6  1  0
  9  8  2  0
 10  8  1  0
 11 18  1  0
 11 10  1  0
 11 12  1  1
 13 12  1  0
 13 14  2  0
 15 14  1  0
 16 15  1  0
 17 16  2  0
 17 13  1  0
 18 19  2  0
 20 18  1  0
 21 20  1  0
 21 22  1  1
 23 22  1  0
 24 25  2  0
 24 23  1  0
 26 29  1  0
 26 21  1  0
 27 26  2  0
 28 24  1  0
M  END
$$$$
