QHE.pdb
     RDKit          3D

 29 29  0  0  1  0  0  0  0  0999 V2000
    9.1348  -21.7136   18.4190 N   0  0  0  0  0  0  0  0  0  0  0  0
   10.0494  -21.0815   17.5323 C   0  0  0  0  0  0  0  0  0  0  0  0
   10.9041  -21.7891   16.9708 O   0  0  0  0  0  0  0  0  0  0  0  0
    9.9221  -19.6086   17.3344 C   0  0  0  0  0  0  0  0  0  0  0  0
    8.6826  -19.1757   18.0849 C   0  0  0  0  0  0  0  0  0  0  0  0
    8.4120  -17.7057   17.9526 C   0  0  2  0  0  0  0  0  0  0  0  0
    9.1715  -17.1224   16.8755 N   0  0  0  0  0  0  0  0  0  0  0  0
    8.7272  -16.9547   19.1884 C   0  0  0  0  0  0  0  0  0  0  0  0
    9.9089  -16.5766   19.3769 O   0  0  0  0  0  0  0  0  0  0  0  0
    7.7577  -16.6444   20.1650 N   0  0  0  0  0  0  0  0  0  0  0  0
    8.1191  -15.8565   21.3852 C   0  0  1  0  0  0  0  0  0  0  0  0
    6.8603  -15.3769   22.0074 C   0  0  0  0  0  0  0  0  0  0  0  0
    6.9334  -14.7010   23.3008 C   0  0  0  0  0  0  0  0  0  0  0  0
    6.3948  -15.0668   24.5079 C   0  0  0  0  0  0  0  0  0  0  0  0
    6.6578  -14.1360   25.4573 N   0  0  0  0  0  0  0  0  0  0  0  0
    7.3678  -13.1762   24.8431 C   0  0  0  0  0  0  0  0  0  0  0  0
    7.5392  -13.5027   23.5527 N   0  0  0  0  0  0  0  0  0  0  0  0
    9.0794  -16.5903   22.1546 C   0  0  0  0  0  0  0  0  0  0  0  0
    9.0378  -17.8763   22.1387 O   0  0  0  0  0  0  0  0  0  0  0  0
   10.1113  -16.0478   22.9526 N   0  0  0  0  0  0  0  0  0  0  0  0
   11.0681  -16.9107   23.6388 C   0  0  1  0  0  0  0  0  0  0  0  0
   12.4576  -16.3295   23.4314 C   0  0  0  0  0  0  0  0  0  0  0  0
   13.5283  -17.0259   24.1894 C   0  0  0  0  0  0  0  0  0  0  0  0
   14.8871  -16.4864   23.9729 C   0  0  0  0  0  0  0  0  0  0  0  0
   15.5798  -16.0805   24.9306 O   0  0  0  0  0  0  0  0  0  0  0  0
   10.8159  -16.8758   25.0842 C   0  0  0  0  0  0  0  0  0  0  0  0
   10.0293  -16.0342   25.6167 O   0  0  0  0  0  0  0  0  0  0  0  0
   15.4387  -16.4123   22.7025 O   0  0  0  0  0  0  0  0  0  0  0  0
   11.4322  -17.7685   25.9260 O   0  0  0  0  0  0  0  0  0  0  0  0
  2  1  1  0
  2  3  2  0
  4  2  1  0
  5  4  1  0
  6  7  1  6
  6  5  1  0
  8  6  1  0
  9  8  2  0
 10  8  1  0
 11 18  1  0
 11 10  1  0
 11 12  1  1
 13 12  1  0
 13 14  2  0
 15 14  1  0
 16 15  1  0
 17 16  2  0
 17 13  1  0
 18 19  2  0
 20 18  1  0
 21 20  1  0
 21 22  1  1
 23 22  1  0
 24 25  2  0
 24 23  1  0
 26 29  1  0
 26 21  1  0
 27 26  2  0
 28 24  1  0
M  END
$$$$
