QHE.pdb
     RDKit          3D

 29 29  0  0  1  0  0  0  0  0999 V2000
    6.9443  -21.2043   19.0541 N   0  0  0  0  0  0  0  0  0  0  0  0
    7.8518  -21.3835   17.9739 C   0  0  0  0  0  0  0  0  0  0  0  0
    8.1990  -22.5427   17.6873 O   0  0  0  0  0  0  0  0  0  0  0  0
    8.3277  -20.1662   17.2552 C   0  0  0  0  0  0  0  0  0  0  0  0
    8.8407  -19.2123   18.3107 C   0  0  0  0  0  0  0  0  0  0  0  0
    8.3296  -17.8142   18.1221 C   0  0  2  0  0  0  0  0  0  0  0  0
    8.8325  -17.2260   16.9063 N   0  0  0  0  0  0  0  0  0  0  0  0
    8.6927  -16.9186   19.2432 C   0  0  0  0  0  0  0  0  0  0  0  0
    9.8766  -16.5113   19.3276 O   0  0  0  0  0  0  0  0  0  0  0  0
    7.7665  -16.5019   20.2222 N   0  0  0  0  0  0  0  0  0  0  0  0
    8.1959  -15.6479   21.3740 C   0  0  1  0  0  0  0  0  0  0  0  0
    6.9853  -15.0019   21.9387 C   0  0  0  0  0  0  0  0  0  0  0  0
    7.0846  -14.3508   23.2429 C   0  0  0  0  0  0  0  0  0  0  0  0
    7.6905  -13.1685   23.5838 C   0  0  0  0  0  0  0  0  0  0  0  0
    7.5946  -12.9421   24.9167 N   0  0  0  0  0  0  0  0  0  0  0  0
    6.9229  -13.9904   25.4193 C   0  0  0  0  0  0  0  0  0  0  0  0
    6.6124  -14.8399   24.4278 N   0  0  0  0  0  0  0  0  0  0  0  0
    9.0815  -16.3979   22.2142 C   0  0  0  0  0  0  0  0  0  0  0  0
    8.8193  -17.6360   22.4464 O   0  0  0  0  0  0  0  0  0  0  0  0
   10.2581  -15.9222   22.8349 N   0  0  0  0  0  0  0  0  0  0  0  0
   11.0330  -16.7708   23.7351 C   0  0  1  0  0  0  0  0  0  0  0  0
   12.5013  -16.4124   23.5706 C   0  0  0  0  0  0  0  0  0  0  0  0
   13.4201  -17.1974   24.4342 C   0  0  0  0  0  0  0  0  0  0  0  0
   14.8567  -16.9668   24.1749 C   0  0  0  0  0  0  0  0  0  0  0  0
   15.3578  -15.8277   24.2897 O   0  0  0  0  0  0  0  0  0  0  0  0
   10.6844  -16.4617   25.1269 C   0  0  0  0  0  0  0  0  0  0  0  0
   10.0140  -15.4328   25.4471 O   0  0  0  0  0  0  0  0  0  0  0  0
   15.6958  -18.0041   23.7963 O   0  0  0  0  0  0  0  0  0  0  0  0
   11.0774  -17.2897   26.1493 O   0  0  0  0  0  0  0  0  0  0  0  0
  2  1  1  0
  2  3  2  0
  4  2  1  0
  5  4  1  0
  6  7  1  6
  6  5  1  0
  8  6  1  0
  9  8  2  0
 10  8  1  0
 11 18  1  0
 11 10  1  0
 11 12  1  1
 13 12  1  0
 13 14  2  0
 15 14  1  0
 16 15  1  0
 17 16  2  0
 17 13  1  0
 18 19  2  0
 20 18  1  0
 21 20  1  0
 21 22  1  1
 23 22  1  0
 24 25  2  0
 24 23  1  0
 26 29  1  0
 26 21  1  0
 27 26  2  0
 28 24  1  0
M  END
$$$$
