QHE.pdb
     RDKit          3D

 29 29  0  0  1  0  0  0  0  0999 V2000
    9.9995  -21.1482   20.3727 N   0  0  0  0  0  0  0  0  0  0  0  0
   11.0022  -20.1506   20.2253 C   0  0  0  0  0  0  0  0  0  0  0  0
   12.1679  -20.4402   20.5477 O   0  0  0  0  0  0  0  0  0  0  0  0
   10.5880  -18.8204   19.6925 C   0  0  0  0  0  0  0  0  0  0  0  0
    9.5315  -18.2863   20.6336 C   0  0  0  0  0  0  0  0  0  0  0  0
    9.2354  -16.8333   20.4035 C   0  0  2  0  0  0  0  0  0  0  0  0
   10.0832  -16.2758   19.3800 N   0  0  0  0  0  0  0  0  0  0  0  0
    9.4037  -16.0168   21.6265 C   0  0  0  0  0  0  0  0  0  0  0  0
   10.5642  -15.6944   21.9786 O   0  0  0  0  0  0  0  0  0  0  0  0
    8.3168  -15.5843   22.4149 N   0  0  0  0  0  0  0  0  0  0  0  0
    8.5404  -14.8009   23.6705 C   0  0  1  0  0  0  0  0  0  0  0  0
    7.3539  -13.9362   23.8856 C   0  0  0  0  0  0  0  0  0  0  0  0
    7.2874  -13.1313   25.1033 C   0  0  0  0  0  0  0  0  0  0  0  0
    6.3897  -13.1882   26.1386 C   0  0  0  0  0  0  0  0  0  0  0  0
    6.6539  -12.2313   27.0615 N   0  0  0  0  0  0  0  0  0  0  0  0
    7.7266  -11.5664   26.6035 C   0  0  0  0  0  0  0  0  0  0  0  0
    8.1148  -12.0954   25.4328 N   0  0  0  0  0  0  0  0  0  0  0  0
    8.9967  -15.6831   24.7031 C   0  0  0  0  0  0  0  0  0  0  0  0
    8.4644  -16.8501   24.8047 O   0  0  0  0  0  0  0  0  0  0  0  0
   10.0066  -15.4155   25.6542 N   0  0  0  0  0  0  0  0  0  0  0  0
   10.4391  -16.4362   26.6039 C   0  0  1  0  0  0  0  0  0  0  0  0
   11.9565  -16.5142   26.5510 C   0  0  0  0  0  0  0  0  0  0  0  0
   12.4838  -17.3957   25.4782 C   0  0  0  0  0  0  0  0  0  0  0  0
   13.9361  -17.2690   25.2350 C   0  0  0  0  0  0  0  0  0  0  0  0
   14.4154  -16.2376   24.7171 O   0  0  0  0  0  0  0  0  0  0  0  0
   10.0929  -16.0195   27.9680 C   0  0  0  0  0  0  0  0  0  0  0  0
    9.5286  -14.9105   28.2172 O   0  0  0  0  0  0  0  0  0  0  0  0
   14.8145  -18.2880   25.5723 O   0  0  0  0  0  0  0  0  0  0  0  0
   10.3716  -16.8294   29.0412 O   0  0  0  0  0  0  0  0  0  0  0  0
  2  1  1  0
  2  3  2  0
  4  2  1  0
  5  4  1  0
  6  7  1  6
  6  5  1  0
  8  6  1  0
  9  8  2  0
 10  8  1  0
 11 18  1  0
 11 10  1  0
 11 12  1  1
 13 12  1  0
 13 14  2  0
 15 14  1  0
 16 15  1  0
 17 16  2  0
 17 13  1  0
 18 19  2  0
 20 18  1  0
 21 20  1  0
 21 22  1  1
 23 22  1  0
 24 25  2  0
 24 23  1  0
 26 29  1  0
 26 21  1  0
 27 26  2  0
 28 24  1  0
M  END
$$$$
