QHE.pdb
     RDKit          3D

 29 29  0  0  1  0  0  0  0  0999 V2000
    9.5236  -14.2417   16.3192 N   0  0  0  0  0  0  0  0  0  0  0  0
    8.1317  -13.9550   16.2663 C   0  0  0  0  0  0  0  0  0  0  0  0
    7.5462  -14.0950   15.1781 O   0  0  0  0  0  0  0  0  0  0  0  0
    7.4654  -13.5043   17.5224 C   0  0  0  0  0  0  0  0  0  0  0  0
    8.4895  -13.6351   18.6274 C   0  0  0  0  0  0  0  0  0  0  0  0
    8.2924  -14.8723   19.4533 C   0  0  2  0  0  0  0  0  0  0  0  0
    6.9506  -15.3836   19.3290 N   0  0  0  0  0  0  0  0  0  0  0  0
    8.5602  -14.6463   20.8913 C   0  0  0  0  0  0  0  0  0  0  0  0
    9.7100  -14.2825   21.2384 O   0  0  0  0  0  0  0  0  0  0  0  0
    7.5798  -14.8217   21.8904 N   0  0  0  0  0  0  0  0  0  0  0  0
    7.8914  -14.5546   23.3298 C   0  0  1  0  0  0  0  0  0  0  0  0
    6.7709  -13.7664   23.9000 C   0  0  0  0  0  0  0  0  0  0  0  0
    6.8574  -13.3362   25.2936 C   0  0  0  0  0  0  0  0  0  0  0  0
    7.8478  -13.5597   26.2157 C   0  0  0  0  0  0  0  0  0  0  0  0
    7.5203  -13.0246   27.4172 N   0  0  0  0  0  0  0  0  0  0  0  0
    6.3139  -12.4596   27.2503 C   0  0  0  0  0  0  0  0  0  0  0  0
    5.9068  -12.6393   25.9842 N   0  0  0  0  0  0  0  0  0  0  0  0
    8.3194  -15.7709   23.9544 C   0  0  0  0  0  0  0  0  0  0  0  0
    7.7383  -16.8731   23.6335 O   0  0  0  0  0  0  0  0  0  0  0  0
    9.3493  -15.9090   24.9116 N   0  0  0  0  0  0  0  0  0  0  0  0
    9.7189  -17.2189   25.4394 C   0  0  1  0  0  0  0  0  0  0  0  0
   10.8528  -17.7659   24.5872 C   0  0  0  0  0  0  0  0  0  0  0  0
   12.0656  -16.9088   24.5644 C   0  0  0  0  0  0  0  0  0  0  0  0
   13.1873  -17.4495   23.7683 C   0  0  0  0  0  0  0  0  0  0  0  0
   13.3017  -17.1839   22.5525 O   0  0  0  0  0  0  0  0  0  0  0  0
   10.2556  -17.0702   26.7974 C   0  0  0  0  0  0  0  0  0  0  0  0
   10.4157  -15.9364   27.3445 O   0  0  0  0  0  0  0  0  0  0  0  0
   14.1488  -18.2681   24.3418 O   0  0  0  0  0  0  0  0  0  0  0  0
   10.6088  -18.1719   27.5369 O   0  0  0  0  0  0  0  0  0  0  0  0
  2  1  1  0
  2  3  2  0
  4  2  1  0
  5  4  1  0
  6  7  1  1
  6  5  1  0
  8  6  1  0
  9  8  2  0
 10  8  1  0
 11 18  1  0
 11 10  1  0
 11 12  1  1
 13 12  1  0
 13 14  2  0
 15 14  1  0
 16 15  1  0
 17 16  2  0
 17 13  1  0
 18 19  2  0
 20 18  1  0
 21 20  1  0
 21 22  1  6
 23 22  1  0
 24 25  2  0
 24 23  1  0
 26 29  1  0
 26 21  1  0
 27 26  2  0
 28 24  1  0
M  END
$$$$
