QHE.pdb
     RDKit          3D

 29 29  0  0  1  0  0  0  0  0999 V2000
   11.4956  -21.3620   17.3666 N   0  0  0  0  0  0  0  0  0  0  0  0
   12.6652  -20.6667   17.7797 C   0  0  0  0  0  0  0  0  0  0  0  0
   13.5880  -21.3253   18.2909 O   0  0  0  0  0  0  0  0  0  0  0  0
   12.7074  -19.1902   17.5719 C   0  0  0  0  0  0  0  0  0  0  0  0
   11.3886  -18.8034   16.9410 C   0  0  0  0  0  0  0  0  0  0  0  0
   11.2532  -17.3212   16.7499 C   0  0  2  0  0  0  0  0  0  0  0  0
   12.2612  -16.8083   15.8565 N   0  0  0  0  0  0  0  0  0  0  0  0
   11.3508  -16.5712   18.0222 C   0  0  0  0  0  0  0  0  0  0  0  0
   12.4341  -16.0037   18.3035 O   0  0  0  0  0  0  0  0  0  0  0  0
   10.2795  -16.4658   18.9338 N   0  0  0  0  0  0  0  0  0  0  0  0
   10.4394  -15.7302   20.2276 C   0  0  1  0  0  0  0  0  0  0  0  0
    9.0927  -15.2962   20.6745 C   0  0  0  0  0  0  0  0  0  0  0  0
    8.3974  -14.2692   19.9019 C   0  0  0  0  0  0  0  0  0  0  0  0
    8.8271  -13.5581   18.8108 C   0  0  0  0  0  0  0  0  0  0  0  0
    7.8889  -12.6629   18.4163 N   0  0  0  0  0  0  0  0  0  0  0  0
    6.8601  -12.8115   19.2660 C   0  0  0  0  0  0  0  0  0  0  0  0
    7.1523  -13.7695   20.1593 N   0  0  0  0  0  0  0  0  0  0  0  0
   11.2885  -16.4863   21.0994 C   0  0  0  0  0  0  0  0  0  0  0  0
   11.1231  -17.7598   21.1786 O   0  0  0  0  0  0  0  0  0  0  0  0
   12.3314  -15.9800   21.9069 N   0  0  0  0  0  0  0  0  0  0  0  0
   13.1846  -16.8724   22.6858 C   0  0  1  0  0  0  0  0  0  0  0  0
   14.6288  -16.5990   22.2973 C   0  0  0  0  0  0  0  0  0  0  0  0
   14.9915  -15.1589   22.2762 C   0  0  0  0  0  0  0  0  0  0  0  0
   16.3977  -14.8830   21.9147 C   0  0  0  0  0  0  0  0  0  0  0  0
   16.6832  -14.2327   20.8864 O   0  0  0  0  0  0  0  0  0  0  0  0
   13.0699  -16.5448   24.1118 C   0  0  0  0  0  0  0  0  0  0  0  0
   13.7196  -17.1675   25.0066 O   0  0  0  0  0  0  0  0  0  0  0  0
   17.4460  -15.3352   22.7022 O   0  0  0  0  0  0  0  0  0  0  0  0
   12.2418  -15.5348   24.5354 O   0  0  0  0  0  0  0  0  0  0  0  0
  2  1  1  0
  2  3  2  0
  4  2  1  0
  5  4  1  0
  6  7  1  6
  6  5  1  0
  8  6  1  0
  9  8  2  0
 10  8  1  0
 11 18  1  0
 11 10  1  0
 11 12  1  1
 13 12  1  0
 13 14  2  0
 15 14  1  0
 16 15  1  0
 17 16  2  0
 17 13  1  0
 18 19  2  0
 20 18  1  0
 21 20  1  0
 21 22  1  6
 23 22  1  0
 24 25  2  0
 24 23  1  0
 26 29  1  0
 26 21  1  0
 27 26  2  0
 28 24  1  0
M  END
$$$$
