QHE.pdb
     RDKit          3D

 29 29  0  0  1  0  0  0  0  0999 V2000
   15.4698  -12.2951   15.4565 N   0  0  0  0  0  0  0  0  0  0  0  0
   15.9697  -13.5321   14.9644 C   0  0  0  0  0  0  0  0  0  0  0  0
   16.8672  -13.5001   14.1041 O   0  0  0  0  0  0  0  0  0  0  0  0
   15.3830  -14.7884   15.5143 C   0  0  0  0  0  0  0  0  0  0  0  0
   14.2419  -14.3754   16.4166 C   0  0  0  0  0  0  0  0  0  0  0  0
   13.5777  -15.5463   17.0794 C   0  0  2  0  0  0  0  0  0  0  0  0
   12.4818  -16.0498   16.2903 N   0  0  0  0  0  0  0  0  0  0  0  0
   13.0549  -15.2185   18.4248 C   0  0  0  0  0  0  0  0  0  0  0  0
   13.7550  -14.5059   19.1842 O   0  0  0  0  0  0  0  0  0  0  0  0
   11.8035  -15.6719   18.8922 N   0  0  0  0  0  0  0  0  0  0  0  0
   11.2831  -15.2503   20.2308 C   0  0  1  0  0  0  0  0  0  0  0  0
    9.8019  -15.2105   20.1521 C   0  0  0  0  0  0  0  0  0  0  0  0
    9.1784  -14.3536   19.1462 C   0  0  0  0  0  0  0  0  0  0  0  0
    9.0524  -12.9881   19.1204 C   0  0  0  0  0  0  0  0  0  0  0  0
    8.3638  -12.5861   18.0244 N   0  0  0  0  0  0  0  0  0  0  0  0
    8.0537  -13.7076   17.3545 C   0  0  0  0  0  0  0  0  0  0  0  0
    8.5355  -14.7715   18.0155 N   0  0  0  0  0  0  0  0  0  0  0  0
   11.9389  -16.0098   21.2534 C   0  0  0  0  0  0  0  0  0  0  0  0
   11.9608  -17.2928   21.1583 O   0  0  0  0  0  0  0  0  0  0  0  0
   12.5967  -15.4960   22.3933 N   0  0  0  0  0  0  0  0  0  0  0  0
   13.2202  -16.3840   23.3698 C   0  0  1  0  0  0  0  0  0  0  0  0
   14.5864  -15.8148   23.7174 C   0  0  0  0  0  0  0  0  0  0  0  0
   15.7210  -16.5070   23.0546 C   0  0  0  0  0  0  0  0  0  0  0  0
   16.9533  -15.6992   22.9398 C   0  0  0  0  0  0  0  0  0  0  0  0
   17.2698  -15.1561   21.8597 O   0  0  0  0  0  0  0  0  0  0  0  0
   12.4396  -16.3765   24.6127 C   0  0  0  0  0  0  0  0  0  0  0  0
   12.7329  -17.1127   25.6039 O   0  0  0  0  0  0  0  0  0  0  0  0
   17.7985  -15.5167   24.0242 O   0  0  0  0  0  0  0  0  0  0  0  0
   11.3458  -15.5578   24.7495 O   0  0  0  0  0  0  0  0  0  0  0  0
  2  1  1  0
  2  3  2  0
  4  2  1  0
  5  4  1  0
  6  7  1  6
  6  5  1  0
  8  6  1  0
  9  8  2  0
 10  8  1  0
 11 18  1  0
 11 10  1  0
 11 12  1  6
 13 12  1  0
 13 14  2  0
 15 14  1  0
 16 15  1  0
 17 16  2  0
 17 13  1  0
 18 19  2  0
 20 18  1  0
 21 20  1  0
 21 22  1  1
 23 22  1  0
 24 25  2  0
 24 23  1  0
 26 29  1  0
 26 21  1  0
 27 26  2  0
 28 24  1  0
M  END
$$$$
