QHE.pdb
     RDKit          3D

 29 29  0  0  1  0  0  0  0  0999 V2000
    8.3853  -12.6565   17.1199 N   0  0  0  0  0  0  0  0  0  0  0  0
    7.3643  -13.6452   17.1670 C   0  0  0  0  0  0  0  0  0  0  0  0
    6.3909  -13.5183   16.4034 O   0  0  0  0  0  0  0  0  0  0  0  0
    7.5293  -14.7711   18.1313 C   0  0  0  0  0  0  0  0  0  0  0  0
    8.8206  -14.5180   18.8765 C   0  0  0  0  0  0  0  0  0  0  0  0
    9.1275  -15.5908   19.8798 C   0  0  2  0  0  0  0  0  0  0  0  0
    8.1983  -16.6881   19.7826 N   0  0  0  0  0  0  0  0  0  0  0  0
    9.0975  -15.0932   21.2735 C   0  0  0  0  0  0  0  0  0  0  0  0
    9.8462  -14.1357   21.5858 O   0  0  0  0  0  0  0  0  0  0  0  0
    8.2641  -15.6475   22.2675 N   0  0  0  0  0  0  0  0  0  0  0  0
    8.3565  -15.1930   23.6906 C   0  0  1  0  0  0  0  0  0  0  0  0
    7.0189  -14.6964   24.0982 C   0  0  0  0  0  0  0  0  0  0  0  0
    6.9062  -13.9282   25.3360 C   0  0  0  0  0  0  0  0  0  0  0  0
    7.8708  -13.6151   26.2592 C   0  0  0  0  0  0  0  0  0  0  0  0
    7.3417  -12.9194   27.2952 N   0  0  0  0  0  0  0  0  0  0  0  0
    6.0332  -12.7935   27.0220 C   0  0  0  0  0  0  0  0  0  0  0  0
    5.7604  -13.3929   25.8527 N   0  0  0  0  0  0  0  0  0  0  0  0
    9.0294  -16.1940   24.4638 C   0  0  0  0  0  0  0  0  0  0  0  0
    8.6843  -17.4256   24.3227 O   0  0  0  0  0  0  0  0  0  0  0  0
   10.0728  -15.9811   25.3922 N   0  0  0  0  0  0  0  0  0  0  0  0
   10.6292  -17.0846   26.1692 C   0  0  1  0  0  0  0  0  0  0  0  0
   12.1339  -17.0997   25.9526 C   0  0  0  0  0  0  0  0  0  0  0  0
   12.5434  -17.1335   24.5253 C   0  0  0  0  0  0  0  0  0  0  0  0
   14.0018  -17.2271   24.3047 C   0  0  0  0  0  0  0  0  0  0  0  0
   14.7495  -16.2478   24.5139 O   0  0  0  0  0  0  0  0  0  0  0  0
   10.4189  -16.8358   27.6002 C   0  0  0  0  0  0  0  0  0  0  0  0
    9.9097  -15.7578   28.0350 O   0  0  0  0  0  0  0  0  0  0  0  0
   14.5889  -18.4019   23.8592 O   0  0  0  0  0  0  0  0  0  0  0  0
   10.7713  -17.7774   28.5354 O   0  0  0  0  0  0  0  0  0  0  0  0
  2  1  1  0
  2  3  2  0
  4  2  1  0
  5  4  1  0
  6  7  1  1
  6  5  1  0
  8  6  1  0
  9  8  2  0
 10  8  1  0
 11 18  1  0
 11 10  1  0
 11 12  1  1
 13 12  1  0
 13 14  2  0
 15 14  1  0
 16 15  1  0
 17 16  2  0
 17 13  1  0
 18 19  2  0
 20 18  1  0
 21 20  1  0
 21 22  1  1
 23 22  1  0
 24 25  2  0
 24 23  1  0
 26 29  1  0
 26 21  1  0
 27 26  2  0
 28 24  1  0
M  END
$$$$
