AMK.pdb
     RDKit          3D

 23 22  0  0  1  0  0  0  0  0999 V2000
    6.1351  -20.4835   23.8098 C   0  0  0  0  0  0  0  0  0  0  0  0
    5.7248  -19.2780   22.9851 C   0  0  2  0  0  0  0  0  0  0  0  0
    5.7215  -19.6932   21.6004 N   0  0  0  0  0  0  0  0  0  0  0  0
    6.6828  -18.1429   23.1484 C   0  0  0  0  0  0  0  0  0  0  0  0
    7.6124  -18.0344   22.3350 O   0  0  0  0  0  0  0  0  0  0  0  0
    7.6179  -11.3867   27.1562 C   0  0  0  0  0  0  0  0  0  0  0  0
    6.5279  -12.7926   26.7885 S   0  0  0  0  0  0  0  0  0  0  0  0
    7.4919  -14.0123   25.7994 C   0  0  0  0  0  0  0  0  0  0  0  0
    6.6015  -15.1448   25.4154 C   0  0  0  0  0  0  0  0  0  0  0  0
    7.3660  -16.1194   24.5324 C   0  0  2  0  0  0  0  0  0  0  0  0
    6.5236  -17.2201   24.2089 N   0  0  0  0  0  0  0  0  0  0  0  0
    8.6137  -16.5083   25.1859 C   0  0  0  0  0  0  0  0  0  0  0  0
    9.3817  -15.5860   25.6175 O   0  0  0  0  0  0  0  0  0  0  0  0
    9.0463  -17.8365   25.3819 N   0  0  0  0  0  0  0  0  0  0  0  0
   10.3277  -18.1848   25.9983 C   0  0  1  0  0  0  0  0  0  0  0  0
   11.4751  -17.9979   25.0844 C   0  0  0  0  0  0  0  0  0  0  0  0
   12.8415  -18.1542   25.6247 C   0  0  0  0  0  0  0  0  0  0  0  0
   13.4721  -19.5055   25.4051 C   0  0  0  0  0  0  0  0  0  0  0  0
   14.8698  -19.4359   25.9938 C   0  0  0  0  0  0  0  0  0  0  0  0
   15.4570  -20.7540   25.8364 N   0  0  0  0  0  0  0  0  0  0  0  0
   10.4383  -17.5596   27.3315 C   0  0  0  0  0  0  0  0  0  0  0  0
   10.9708  -16.2959   27.5247 O   0  0  0  0  0  0  0  0  0  0  0  0
   10.0443  -18.1657   28.3605 O   0  0  0  0  0  0  0  0  0  0  0  0
  2  1  1  1
  2  3  1  0
  4  2  1  0
  4  5  2  0
  7  8  1  0
  7  6  1  0
  8  9  1  0
 10  9  1  1
 10 12  1  0
 10 11  1  0
 11  4  1  0
 12 14  1  0
 13 12  2  0
 14 15  1  0
 15 21  1  0
 15 16  1  6
 17 16  1  0
 18 17  1  0
 19 18  1  0
 20 19  1  0
 21 23  2  0
 21 22  1  0
M  END
$$$$
