AMK.pdb
     RDKit          3D

 23 22  0  0  1  0  0  0  0  0999 V2000
    7.0746  -14.7614   19.3724 C   0  0  0  0  0  0  0  0  0  0  0  0
    7.4835  -13.4716   20.0586 C   0  0  2  0  0  0  0  0  0  0  0  0
    8.4601  -12.8300   19.2074 N   0  0  0  0  0  0  0  0  0  0  0  0
    8.0992  -13.7264   21.3960 C   0  0  0  0  0  0  0  0  0  0  0  0
    9.3097  -13.9901   21.4472 O   0  0  0  0  0  0  0  0  0  0  0  0
    6.3812  -10.9652   27.3426 C   0  0  0  0  0  0  0  0  0  0  0  0
    7.7665  -12.0145   26.8137 S   0  0  0  0  0  0  0  0  0  0  0  0
    7.0744  -13.6333   26.2695 C   0  0  0  0  0  0  0  0  0  0  0  0
    6.6039  -13.5158   24.8597 C   0  0  0  0  0  0  0  0  0  0  0  0
    7.7378  -13.8737   23.9109 C   0  0  2  0  0  0  0  0  0  0  0  0
    7.3107  -13.6658   22.5692 N   0  0  0  0  0  0  0  0  0  0  0  0
    8.1964  -15.2355   24.1759 C   0  0  0  0  0  0  0  0  0  0  0  0
    7.4389  -16.2039   23.8368 O   0  0  0  0  0  0  0  0  0  0  0  0
    9.4235  -15.5736   24.7839 N   0  0  0  0  0  0  0  0  0  0  0  0
    9.8821  -16.9523   24.9627 C   0  0  1  0  0  0  0  0  0  0  0  0
   10.9510  -17.3305   24.0134 C   0  0  0  0  0  0  0  0  0  0  0  0
   11.5807  -18.6602   24.1514 C   0  0  0  0  0  0  0  0  0  0  0  0
   12.5402  -19.0376   23.0520 C   0  0  0  0  0  0  0  0  0  0  0  0
   13.1226  -20.3889   23.4257 C   0  0  0  0  0  0  0  0  0  0  0  0
   14.0599  -20.7460   22.3765 N   0  0  0  0  0  0  0  0  0  0  0  0
   10.1437  -17.2210   26.3909 C   0  0  0  0  0  0  0  0  0  0  0  0
   10.4184  -18.4883   26.8770 O   0  0  0  0  0  0  0  0  0  0  0  0
   10.1259  -16.2884   27.2343 O   0  0  0  0  0  0  0  0  0  0  0  0
  2  1  1  6
  2  3  1  0
  4  2  1  0
  4  5  2  0
  7  8  1  0
  7  6  1  0
  8  9  1  0
 10  9  1  1
 10 12  1  0
 10 11  1  0
 11  4  1  0
 12 14  1  0
 13 12  2  0
 14 15  1  0
 15 21  1  0
 15 16  1  6
 17 16  1  0
 18 17  1  0
 19 18  1  0
 20 19  1  0
 21 23  2  0
 21 22  1  0
M  END
$$$$
