AMK.pdb
     RDKit          3D

 23 22  0  0  1  0  0  0  0  0999 V2000
    6.8221  -17.6087   20.0534 C   0  0  0  0  0  0  0  0  0  0  0  0
    7.1506  -16.1287   19.9946 C   0  0  2  0  0  0  0  0  0  0  0  0
    7.9374  -15.9165   18.8005 N   0  0  0  0  0  0  0  0  0  0  0  0
    7.9441  -15.6897   21.1822 C   0  0  0  0  0  0  0  0  0  0  0  0
    9.1673  -15.8929   21.1818 O   0  0  0  0  0  0  0  0  0  0  0  0
    7.1189  -11.6270   27.9399 C   0  0  0  0  0  0  0  0  0  0  0  0
    6.2962  -12.2707   26.4537 S   0  0  0  0  0  0  0  0  0  0  0  0
    7.5087  -13.3200   25.5456 C   0  0  0  0  0  0  0  0  0  0  0  0
    6.8864  -13.8042   24.2802 C   0  0  0  0  0  0  0  0  0  0  0  0
    7.9029  -14.6113   23.4871 C   0  0  2  0  0  0  0  0  0  0  0  0
    7.3050  -15.0583   22.2752 N   0  0  0  0  0  0  0  0  0  0  0  0
    8.4321  -15.6937   24.3137 C   0  0  0  0  0  0  0  0  0  0  0  0
    7.6606  -16.6690   24.5971 O   0  0  0  0  0  0  0  0  0  0  0  0
    9.7428  -15.7513   24.8320 N   0  0  0  0  0  0  0  0  0  0  0  0
   10.3109  -16.9466   25.4578 C   0  0  1  0  0  0  0  0  0  0  0  0
   11.4801  -17.4787   24.7254 C   0  0  0  0  0  0  0  0  0  0  0  0
   11.2618  -18.1035   23.4042 C   0  0  0  0  0  0  0  0  0  0  0  0
   12.4995  -18.6383   22.7304 C   0  0  0  0  0  0  0  0  0  0  0  0
   12.0811  -19.0869   21.3416 C   0  0  0  0  0  0  0  0  0  0  0  0
   13.2760  -19.5835   20.6838 N   0  0  0  0  0  0  0  0  0  0  0  0
   10.4848  -16.7287   26.9078 C   0  0  0  0  0  0  0  0  0  0  0  0
   10.7622  -17.7575   27.7923 O   0  0  0  0  0  0  0  0  0  0  0  0
   10.3850  -15.5763   27.4013 O   0  0  0  0  0  0  0  0  0  0  0  0
  2  1  1  1
  2  3  1  0
  4  2  1  0
  4  5  2  0
  7  8  1  0
  7  6  1  0
  8  9  1  0
 10  9  1  1
 10 12  1  0
 10 11  1  0
 11  4  1  0
 12 14  1  0
 13 12  2  0
 14 15  1  0
 15 21  1  0
 15 16  1  6
 17 16  1  0
 18 17  1  0
 19 18  1  0
 20 19  1  0
 21 23  2  0
 21 22  1  0
M  END
$$$$
