AMK.pdb
     RDKit          3D

 23 22  0  0  1  0  0  0  0  0999 V2000
    6.6832  -17.2741   19.8845 C   0  0  0  0  0  0  0  0  0  0  0  0
    6.9704  -15.7847   19.8618 C   0  0  2  0  0  0  0  0  0  0  0  0
    7.7167  -15.5155   18.6532 N   0  0  0  0  0  0  0  0  0  0  0  0
    7.7857  -15.3595   21.0396 C   0  0  0  0  0  0  0  0  0  0  0  0
    9.0214  -15.4159   20.9525 O   0  0  0  0  0  0  0  0  0  0  0  0
    7.0114  -11.5507   27.9278 C   0  0  0  0  0  0  0  0  0  0  0  0
    6.1516  -12.2898   26.5086 S   0  0  0  0  0  0  0  0  0  0  0  0
    7.3952  -13.2171   25.5140 C   0  0  0  0  0  0  0  0  0  0  0  0
    6.7388  -13.7573   24.2893 C   0  0  0  0  0  0  0  0  0  0  0  0
    7.7761  -14.4452   23.4147 C   0  0  2  0  0  0  0  0  0  0  0  0
    7.1528  -14.9052   22.2205 N   0  0  0  0  0  0  0  0  0  0  0  0
    8.4430  -15.5018   24.1723 C   0  0  0  0  0  0  0  0  0  0  0  0
    7.7688  -16.5388   24.4833 O   0  0  0  0  0  0  0  0  0  0  0  0
    9.7885  -15.4705   24.5947 N   0  0  0  0  0  0  0  0  0  0  0  0
   10.4824  -16.6273   25.1636 C   0  0  1  0  0  0  0  0  0  0  0  0
   11.8286  -16.8313   24.5868 C   0  0  0  0  0  0  0  0  0  0  0  0
   12.1301  -18.1232   23.9360 C   0  0  0  0  0  0  0  0  0  0  0  0
   13.5074  -18.2373   23.3344 C   0  0  0  0  0  0  0  0  0  0  0  0
   13.5613  -19.5746   22.6177 C   0  0  0  0  0  0  0  0  0  0  0  0
   14.8775  -19.6738   22.0138 N   0  0  0  0  0  0  0  0  0  0  0  0
   10.3939  -16.6002   26.6373 C   0  0  0  0  0  0  0  0  0  0  0  0
   10.8183  -17.6512   27.4330 O   0  0  0  0  0  0  0  0  0  0  0  0
    9.9199  -15.6002   27.2347 O   0  0  0  0  0  0  0  0  0  0  0  0
  2  1  1  1
  2  3  1  0
  4  2  1  0
  4  5  2  0
  7  8  1  0
  7  6  1  0
  8  9  1  0
 10  9  1  1
 10 12  1  0
 10 11  1  0
 11  4  1  0
 12 14  1  0
 13 12  2  0
 14 15  1  0
 15 21  1  0
 15 16  1  1
 17 16  1  0
 18 17  1  0
 19 18  1  0
 20 19  1  0
 21 23  2  0
 21 22  1  0
M  END
$$$$
