AMK.pdb
     RDKit          3D

 23 22  0  0  1  0  0  0  0  0999 V2000
    7.7775  -13.0157   19.4191 C   0  0  0  0  0  0  0  0  0  0  0  0
    7.8380  -14.3950   20.0479 C   0  0  2  0  0  0  0  0  0  0  0  0
    6.4832  -14.8969   20.0993 N   0  0  0  0  0  0  0  0  0  0  0  0
    8.3901  -14.3476   21.4356 C   0  0  0  0  0  0  0  0  0  0  0  0
    9.6176  -14.2458   21.5785 O   0  0  0  0  0  0  0  0  0  0  0  0
    6.5712  -10.7854   27.5986 C   0  0  0  0  0  0  0  0  0  0  0  0
    6.2832  -12.4779   27.0052 S   0  0  0  0  0  0  0  0  0  0  0  0
    6.9661  -12.6029   25.2983 C   0  0  0  0  0  0  0  0  0  0  0  0
    6.7007  -13.9689   24.7633 C   0  0  0  0  0  0  0  0  0  0  0  0
    7.8860  -14.4302   23.9288 C   0  0  2  0  0  0  0  0  0  0  0  0
    7.5242  -14.4180   22.5522 N   0  0  0  0  0  0  0  0  0  0  0  0
    8.3498  -15.7326   24.4016 C   0  0  0  0  0  0  0  0  0  0  0  0
    7.5425  -16.7182   24.3431 O   0  0  0  0  0  0  0  0  0  0  0  0
    9.6333  -15.9949   24.9248 N   0  0  0  0  0  0  0  0  0  0  0  0
   10.1151  -17.3402   25.2428 C   0  0  1  0  0  0  0  0  0  0  0  0
   11.0103  -17.8912   24.2028 C   0  0  0  0  0  0  0  0  0  0  0  0
   11.6257  -19.2154   24.4293 C   0  0  0  0  0  0  0  0  0  0  0  0
   12.4832  -19.7304   23.3018 C   0  0  0  0  0  0  0  0  0  0  0  0
   13.0748  -21.0479   23.7699 C   0  0  0  0  0  0  0  0  0  0  0  0
   13.7725  -21.6214   22.6336 N   0  0  0  0  0  0  0  0  0  0  0  0
   10.6116  -17.3882   26.6326 C   0  0  0  0  0  0  0  0  0  0  0  0
   11.4542  -16.4246   27.1611 O   0  0  0  0  0  0  0  0  0  0  0  0
   10.2795  -18.3260   27.4019 O   0  0  0  0  0  0  0  0  0  0  0  0
  2  1  1  1
  2  3  1  0
  4  2  1  0
  4  5  2  0
  7  8  1  0
  7  6  1  0
  8  9  1  0
 10  9  1  1
 10 12  1  0
 10 11  1  0
 11  4  1  0
 12 14  1  0
 13 12  2  0
 14 15  1  0
 15 21  1  0
 15 16  1  6
 17 16  1  0
 18 17  1  0
 19 18  1  0
 20 19  1  0
 21 23  2  0
 21 22  1  0
M  END
$$$$
