AMK.pdb
     RDKit          3D

 23 22  0  0  1  0  0  0  0  0999 V2000
    7.7284  -12.6899   19.7675 C   0  0  0  0  0  0  0  0  0  0  0  0
    7.8509  -14.1183   20.2637 C   0  0  2  0  0  0  0  0  0  0  0  0
    6.5160  -14.6723   20.2936 N   0  0  0  0  0  0  0  0  0  0  0  0
    8.4319  -14.1793   21.6390 C   0  0  0  0  0  0  0  0  0  0  0  0
    9.6390  -13.9335   21.7806 O   0  0  0  0  0  0  0  0  0  0  0  0
    6.7790  -10.6727   26.8747 C   0  0  0  0  0  0  0  0  0  0  0  0
    7.2060  -12.4318   26.7235 S   0  0  0  0  0  0  0  0  0  0  0  0
    6.4645  -13.0615   25.1585 C   0  0  0  0  0  0  0  0  0  0  0  0
    6.7987  -14.5062   25.0046 C   0  0  0  0  0  0  0  0  0  0  0  0
    8.0155  -14.6562   24.1040 C   0  0  2  0  0  0  0  0  0  0  0  0
    7.6153  -14.5106   22.7459 N   0  0  0  0  0  0  0  0  0  0  0  0
    8.6882  -15.9226   24.3845 C   0  0  0  0  0  0  0  0  0  0  0  0
    8.0106  -16.9991   24.2922 O   0  0  0  0  0  0  0  0  0  0  0  0
   10.0430  -16.0562   24.7540 N   0  0  0  0  0  0  0  0  0  0  0  0
   10.7180  -17.3481   24.8908 C   0  0  1  0  0  0  0  0  0  0  0  0
   12.0090  -17.4013   24.1719 C   0  0  0  0  0  0  0  0  0  0  0  0
   12.7684  -18.6690   24.1760 C   0  0  0  0  0  0  0  0  0  0  0  0
   14.1145  -18.6176   23.5000 C   0  0  0  0  0  0  0  0  0  0  0  0
   14.6719  -20.0295   23.5293 C   0  0  0  0  0  0  0  0  0  0  0  0
   15.9665  -19.9828   22.8746 N   0  0  0  0  0  0  0  0  0  0  0  0
   10.7343  -17.7669   26.3067 C   0  0  0  0  0  0  0  0  0  0  0  0
   10.3004  -16.9477   27.3355 O   0  0  0  0  0  0  0  0  0  0  0  0
   11.1516  -18.9067   26.6353 O   0  0  0  0  0  0  0  0  0  0  0  0
  2  1  1  1
  2  3  1  0
  4  2  1  0
  4  5  2  0
  7  8  1  0
  7  6  1  0
  8  9  1  0
 10  9  1  1
 10 12  1  0
 10 11  1  0
 11  4  1  0
 12 14  1  0
 13 12  2  0
 14 15  1  0
 15 21  1  0
 15 16  1  1
 17 16  1  0
 18 17  1  0
 19 18  1  0
 20 19  1  0
 21 23  2  0
 21 22  1  0
M  END
$$$$
