AMK.pdb
     RDKit          3D

 23 22  0  0  1  0  0  0  0  0999 V2000
    8.0734  -19.7600   18.2829 C   0  0  0  0  0  0  0  0  0  0  0  0
    8.4993  -18.4530   17.6408 C   0  0  2  0  0  0  0  0  0  0  0  0
    9.3121  -18.7897   16.4937 N   0  0  0  0  0  0  0  0  0  0  0  0
    9.3062  -17.6129   18.5767 C   0  0  0  0  0  0  0  0  0  0  0  0
   10.5197  -17.8456   18.6806 O   0  0  0  0  0  0  0  0  0  0  0  0
    8.0981  -11.2527   20.9133 C   0  0  0  0  0  0  0  0  0  0  0  0
    7.3387  -12.2132   19.5715 S   0  0  0  0  0  0  0  0  0  0  0  0
    8.3801  -13.7062   19.2851 C   0  0  0  0  0  0  0  0  0  0  0  0
    8.4189  -14.5229   20.5318 C   0  0  0  0  0  0  0  0  0  0  0  0
    9.2894  -15.7508   20.3114 C   0  0  2  0  0  0  0  0  0  0  0  0
    8.6903  -16.5797   19.3215 N   0  0  0  0  0  0  0  0  0  0  0  0
    9.5205  -16.4309   21.5839 C   0  0  0  0  0  0  0  0  0  0  0  0
    8.5352  -17.0174   22.1423 O   0  0  0  0  0  0  0  0  0  0  0  0
   10.7592  -16.4940   22.2559 N   0  0  0  0  0  0  0  0  0  0  0  0
   10.9761  -17.2739   23.4757 C   0  0  1  0  0  0  0  0  0  0  0  0
   11.0061  -18.7315   23.2286 C   0  0  0  0  0  0  0  0  0  0  0  0
   12.0321  -19.2720   22.3128 C   0  0  0  0  0  0  0  0  0  0  0  0
   12.0514  -20.7730   22.1783 C   0  0  0  0  0  0  0  0  0  0  0  0
   13.1446  -21.1078   21.1794 C   0  0  0  0  0  0  0  0  0  0  0  0
   13.1579  -22.5527   21.0411 N   0  0  0  0  0  0  0  0  0  0  0  0
   12.1044  -16.7125   24.2453 C   0  0  0  0  0  0  0  0  0  0  0  0
   12.4529  -17.1692   25.5054 O   0  0  0  0  0  0  0  0  0  0  0  0
   12.8036  -15.7798   23.7734 O   0  0  0  0  0  0  0  0  0  0  0  0
  2  1  1  1
  2  3  1  0
  4  2  1  0
  4  5  2  0
  7  8  1  0
  7  6  1  0
  8  9  1  0
 10  9  1  1
 10 12  1  0
 10 11  1  0
 11  4  1  0
 12 14  1  0
 13 12  2  0
 14 15  1  0
 15 21  1  0
 15 16  1  6
 17 16  1  0
 18 17  1  0
 19 18  1  0
 20 19  1  0
 21 23  2  0
 21 22  1  0
M  END
$$$$
