AMK.pdb
     RDKit          3D

 23 22  0  0  1  0  0  0  0  0999 V2000
    6.9213  -19.0855   22.6977 C   0  0  0  0  0  0  0  0  0  0  0  0
    7.1514  -17.7069   22.1076 C   0  0  2  0  0  0  0  0  0  0  0  0
    7.7824  -17.8969   20.8208 N   0  0  0  0  0  0  0  0  0  0  0  0
    8.0477  -16.8779   22.9691 C   0  0  0  0  0  0  0  0  0  0  0  0
    9.2737  -17.0298   22.8623 O   0  0  0  0  0  0  0  0  0  0  0  0
    5.5674  -11.7139   25.8614 C   0  0  0  0  0  0  0  0  0  0  0  0
    6.8408  -12.0298   27.1178 S   0  0  0  0  0  0  0  0  0  0  0  0
    7.9781  -13.3210   26.4583 C   0  0  0  0  0  0  0  0  0  0  0  0
    7.2462  -14.1572   25.4645 C   0  0  0  0  0  0  0  0  0  0  0  0
    8.1958  -15.1797   24.8587 C   0  0  2  0  0  0  0  0  0  0  0  0
    7.5000  -15.9453   23.8812 N   0  0  0  0  0  0  0  0  0  0  0  0
    8.7970  -15.9878   25.9173 C   0  0  0  0  0  0  0  0  0  0  0  0
    8.0983  -16.9210   26.4346 O   0  0  0  0  0  0  0  0  0  0  0  0
   10.1035  -15.8199   26.4222 N   0  0  0  0  0  0  0  0  0  0  0  0
   10.7294  -16.7491   27.3645 C   0  0  1  0  0  0  0  0  0  0  0  0
   11.9473  -17.3870   26.8200 C   0  0  0  0  0  0  0  0  0  0  0  0
   12.6497  -18.3901   27.6471 C   0  0  0  0  0  0  0  0  0  0  0  0
   13.9140  -18.9504   27.0476 C   0  0  0  0  0  0  0  0  0  0  0  0
   14.4171  -20.0148   28.0060 C   0  0  0  0  0  0  0  0  0  0  0  0
   15.6505  -20.5351   27.4447 N   0  0  0  0  0  0  0  0  0  0  0  0
   10.8537  -16.1193   28.6943 C   0  0  0  0  0  0  0  0  0  0  0  0
   11.0875  -16.8468   29.8492 O   0  0  0  0  0  0  0  0  0  0  0  0
   10.7493  -14.8732   28.8278 O   0  0  0  0  0  0  0  0  0  0  0  0
  2  1  1  1
  2  3  1  0
  4  2  1  0
  4  5  2  0
  7  8  1  0
  7  6  1  0
  8  9  1  0
 10  9  1  1
 10 12  1  0
 10 11  1  0
 11  4  1  0
 12 14  1  0
 13 12  2  0
 14 15  1  0
 15 21  1  0
 15 16  1  6
 17 16  1  0
 18 17  1  0
 19 18  1  0
 20 19  1  0
 21 23  2  0
 21 22  1  0
M  END
$$$$
