AMK.pdb
     RDKit          3D

 23 22  0  0  1  0  0  0  0  0999 V2000
    8.1243  -14.4680   19.1984 C   0  0  0  0  0  0  0  0  0  0  0  0
    8.1965  -15.5978   20.2085 C   0  0  2  0  0  0  0  0  0  0  0  0
    6.8452  -16.0682   20.4151 N   0  0  0  0  0  0  0  0  0  0  0  0
    8.7546  -15.1374   21.5159 C   0  0  0  0  0  0  0  0  0  0  0  0
    9.9456  -14.7952   21.5608 O   0  0  0  0  0  0  0  0  0  0  0  0
    6.8702  -11.1593   27.5768 C   0  0  0  0  0  0  0  0  0  0  0  0
    6.1505  -12.6266   26.7839 S   0  0  0  0  0  0  0  0  0  0  0  0
    7.5265  -13.5982   26.0367 C   0  0  0  0  0  0  0  0  0  0  0  0
    7.1329  -14.0297   24.6650 C   0  0  0  0  0  0  0  0  0  0  0  0
    8.3117  -14.7098   23.9853 C   0  0  2  0  0  0  0  0  0  0  0  0
    7.9350  -15.0969   22.6684 N   0  0  0  0  0  0  0  0  0  0  0  0
    8.7878  -15.8190   24.8087 C   0  0  0  0  0  0  0  0  0  0  0  0
    7.9514  -16.7193   25.1503 O   0  0  0  0  0  0  0  0  0  0  0  0
   10.1132  -15.9797   25.2642 N   0  0  0  0  0  0  0  0  0  0  0  0
   10.5912  -17.1836   25.9464 C   0  0  1  0  0  0  0  0  0  0  0  0
   11.8200  -17.7389   25.3397 C   0  0  0  0  0  0  0  0  0  0  0  0
   11.7036  -18.4999   24.0784 C   0  0  0  0  0  0  0  0  0  0  0  0
   12.8031  -18.2602   23.0757 C   0  0  0  0  0  0  0  0  0  0  0  0
   12.3971  -18.9800   21.8022 C   0  0  0  0  0  0  0  0  0  0  0  0
   13.3616  -18.6066   20.7838 N   0  0  0  0  0  0  0  0  0  0  0  0
   10.6178  -16.9649   27.4065 C   0  0  0  0  0  0  0  0  0  0  0  0
   10.7491  -18.0001   28.3170 O   0  0  0  0  0  0  0  0  0  0  0  0
   10.5201  -15.8061   27.8850 O   0  0  0  0  0  0  0  0  0  0  0  0
  2  1  1  6
  2  3  1  0
  4  2  1  0
  4  5  2  0
  7  8  1  0
  7  6  1  0
  8  9  1  0
 10  9  1  1
 10 12  1  0
 10 11  1  0
 11  4  1  0
 12 14  1  0
 13 12  2  0
 14 15  1  0
 15 21  1  0
 15 16  1  6
 17 16  1  0
 18 17  1  0
 19 18  1  0
 20 19  1  0
 21 23  2  0
 21 22  1  0
M  END
$$$$
