AMK.pdb
     RDKit          3D

 23 22  0  0  1  0  0  0  0  0999 V2000
    6.7760  -17.0766   20.1240 C   0  0  0  0  0  0  0  0  0  0  0  0
    7.6465  -15.8345   20.0925 C   0  0  2  0  0  0  0  0  0  0  0  0
    8.6816  -16.0674   19.1105 N   0  0  0  0  0  0  0  0  0  0  0  0
    8.2856  -15.5719   21.4174 C   0  0  0  0  0  0  0  0  0  0  0  0
    9.4204  -16.0266   21.6250 O   0  0  0  0  0  0  0  0  0  0  0  0
    7.1928  -11.2744   27.9747 C   0  0  0  0  0  0  0  0  0  0  0  0
    6.4565  -11.8624   26.4217 S   0  0  0  0  0  0  0  0  0  0  0  0
    7.5886  -13.1253   25.7014 C   0  0  0  0  0  0  0  0  0  0  0  0
    7.0756  -13.5367   24.3633 C   0  0  0  0  0  0  0  0  0  0  0  0
    8.0544  -14.5049   23.7163 C   0  0  2  0  0  0  0  0  0  0  0  0
    7.6035  -14.8215   22.4039 N   0  0  0  0  0  0  0  0  0  0  0  0
    8.2350  -15.6752   24.5724 C   0  0  0  0  0  0  0  0  0  0  0  0
    7.2754  -16.5106   24.6627 O   0  0  0  0  0  0  0  0  0  0  0  0
    9.3975  -15.9626   25.3179 N   0  0  0  0  0  0  0  0  0  0  0  0
    9.6731  -17.2732   25.9091 C   0  0  1  0  0  0  0  0  0  0  0  0
   10.3069  -18.2113   24.9579 C   0  0  0  0  0  0  0  0  0  0  0  0
   10.6827  -19.5575   25.4375 C   0  0  0  0  0  0  0  0  0  0  0  0
   11.4163  -20.4169   24.4401 C   0  0  0  0  0  0  0  0  0  0  0  0
   11.6153  -21.7723   25.0946 C   0  0  0  0  0  0  0  0  0  0  0  0
   12.4138  -22.5667   24.1790 N   0  0  0  0  0  0  0  0  0  0  0  0
   10.3378  -17.1121   27.2177 C   0  0  0  0  0  0  0  0  0  0  0  0
   10.5996  -15.8729   27.7778 O   0  0  0  0  0  0  0  0  0  0  0  0
   10.6974  -18.1161   27.8842 O   0  0  0  0  0  0  0  0  0  0  0  0
  2  1  1  1
  2  3  1  0
  4  2  1  0
  4  5  2  0
  7  8  1  0
  7  6  1  0
  8  9  1  0
 10  9  1  1
 10 12  1  0
 10 11  1  0
 11  4  1  0
 12 14  1  0
 13 12  2  0
 14 15  1  0
 15 21  1  0
 15 16  1  6
 17 16  1  0
 18 17  1  0
 19 18  1  0
 20 19  1  0
 21 23  2  0
 21 22  1  0
M  END
$$$$
