AMK.pdb
     RDKit          3D

 23 22  0  0  1  0  0  0  0  0999 V2000
    7.0459  -14.8586   19.6585 C   0  0  0  0  0  0  0  0  0  0  0  0
    7.4128  -13.5186   20.2680 C   0  0  2  0  0  0  0  0  0  0  0  0
    8.2837  -12.8497   19.3277 N   0  0  0  0  0  0  0  0  0  0  0  0
    8.1340  -13.6794   21.5667 C   0  0  0  0  0  0  0  0  0  0  0  0
    9.3720  -13.7483   21.5490 O   0  0  0  0  0  0  0  0  0  0  0  0
    5.8510  -11.4926   27.9201 C   0  0  0  0  0  0  0  0  0  0  0  0
    7.2468  -11.5566   26.7594 S   0  0  0  0  0  0  0  0  0  0  0  0
    6.6225  -12.2263   25.1602 C   0  0  0  0  0  0  0  0  0  0  0  0
    6.8614  -13.6973   25.1186 C   0  0  0  0  0  0  0  0  0  0  0  0
    7.9286  -14.0126   24.0814 C   0  0  2  0  0  0  0  0  0  0  0  0
    7.4120  -13.7502   22.7814 N   0  0  0  0  0  0  0  0  0  0  0  0
    8.4035  -15.3832   24.2579 C   0  0  0  0  0  0  0  0  0  0  0  0
    7.6088  -16.3387   23.9712 O   0  0  0  0  0  0  0  0  0  0  0  0
    9.6848  -15.7432   24.7253 N   0  0  0  0  0  0  0  0  0  0  0  0
   10.1503  -17.1282   24.8164 C   0  0  1  0  0  0  0  0  0  0  0  0
   11.2441  -17.4307   23.8685 C   0  0  0  0  0  0  0  0  0  0  0  0
   11.8166  -18.7930   23.8616 C   0  0  0  0  0  0  0  0  0  0  0  0
   12.9186  -19.0254   22.8600 C   0  0  0  0  0  0  0  0  0  0  0  0
   13.2877  -20.4953   22.9501 C   0  0  0  0  0  0  0  0  0  0  0  0
   14.4270  -20.6959   22.0734 N   0  0  0  0  0  0  0  0  0  0  0  0
   10.3806  -17.4963   26.2278 C   0  0  0  0  0  0  0  0  0  0  0  0
   10.5656  -18.8053   26.6402 O   0  0  0  0  0  0  0  0  0  0  0  0
   10.4177  -16.6152   27.1242 O   0  0  0  0  0  0  0  0  0  0  0  0
  2  1  1  6
  2  3  1  0
  4  2  1  0
  4  5  2  0
  7  8  1  0
  7  6  1  0
  8  9  1  0
 10  9  1  1
 10 12  1  0
 10 11  1  0
 11  4  1  0
 12 14  1  0
 13 12  2  0
 14 15  1  0
 15 21  1  0
 15 16  1  6
 17 16  1  0
 18 17  1  0
 19 18  1  0
 20 19  1  0
 21 23  2  0
 21 22  1  0
M  END
$$$$
