AMK.pdb
     RDKit          3D

 23 22  0  0  1  0  0  0  0  0999 V2000
   11.5171  -17.9929   25.7861 C   0  0  0  0  0  0  0  0  0  0  0  0
   10.5515  -17.8055   26.9412 C   0  0  2  0  0  0  0  0  0  0  0  0
   10.4641  -19.0735   27.6302 N   0  0  0  0  0  0  0  0  0  0  0  0
    9.1889  -17.4168   26.4669 C   0  0  0  0  0  0  0  0  0  0  0  0
    8.4249  -18.3102   26.0723 O   0  0  0  0  0  0  0  0  0  0  0  0
    7.6785  -11.0787   26.7351 C   0  0  0  0  0  0  0  0  0  0  0  0
    6.0237  -11.7495   26.4012 S   0  0  0  0  0  0  0  0  0  0  0  0
    6.2267  -13.4711   25.7764 C   0  0  0  0  0  0  0  0  0  0  0  0
    7.4830  -14.0494   26.3331 C   0  0  0  0  0  0  0  0  0  0  0  0
    7.6174  -15.4991   25.8925 C   0  0  2  0  0  0  0  0  0  0  0  0
    8.7905  -16.0593   26.4723 N   0  0  0  0  0  0  0  0  0  0  0  0
    7.5885  -15.5799   24.4338 C   0  0  0  0  0  0  0  0  0  0  0  0
    6.5326  -15.1974   23.8293 O   0  0  0  0  0  0  0  0  0  0  0  0
    8.6448  -16.0522   23.6270 N   0  0  0  0  0  0  0  0  0  0  0  0
    8.5923  -16.0797   22.1643 C   0  0  1  0  0  0  0  0  0  0  0  0
    8.1702  -14.7887   21.5796 C   0  0  0  0  0  0  0  0  0  0  0  0
    8.2277  -14.6252   20.1121 C   0  0  0  0  0  0  0  0  0  0  0  0
    7.9719  -13.2281   19.6076 C   0  0  0  0  0  0  0  0  0  0  0  0
    8.0389  -13.2922   18.0922 C   0  0  0  0  0  0  0  0  0  0  0  0
    7.7723  -11.9516   17.6037 N   0  0  0  0  0  0  0  0  0  0  0  0
    9.8292  -16.6761   21.6213 C   0  0  0  0  0  0  0  0  0  0  0  0
    9.9597  -17.0538   20.2953 O   0  0  0  0  0  0  0  0  0  0  0  0
   10.8293  -16.8661   22.3597 O   0  0  0  0  0  0  0  0  0  0  0  0
  2  1  1  6
  2  3  1  0
  4  2  1  0
  4  5  2  0
  7  8  1  0
  7  6  1  0
  8  9  1  0
 10  9  1  6
 10 12  1  0
 10 11  1  0
 11  4  1  0
 12 14  1  0
 13 12  2  0
 14 15  1  0
 15 21  1  0
 15 16  1  6
 17 16  1  0
 18 17  1  0
 19 18  1  0
 20 19  1  0
 21 23  2  0
 21 22  1  0
M  END
$$$$
