QGK.pdb
     RDKit          3D

 23 22  0  0  1  0  0  0  0  0999 V2000
   26.8174  -19.2596  -18.3456 N   0  0  0  0  0  0  0  0  0  0  0  0
   25.5947  -19.5676  -19.0297 C   0  0  0  0  0  0  0  0  0  0  0  0
   25.6095  -20.1044  -20.1632 O   0  0  0  0  0  0  0  0  0  0  0  0
   24.2870  -19.2575  -18.4104 C   0  0  0  0  0  0  0  0  0  0  0  0
   24.5094  -18.5355  -17.1254 C   0  0  0  0  0  0  0  0  0  0  0  0
   24.3539  -19.4110  -15.9125 C   0  0  2  0  0  0  0  0  0  0  0  0
   24.1837  -20.8068  -16.2897 N   0  0  0  0  0  0  0  0  0  0  0  0
   23.1951  -19.0288  -15.0742 C   0  0  0  0  0  0  0  0  0  0  0  0
   22.9171  -17.8107  -14.8209 O   0  0  0  0  0  0  0  0  0  0  0  0
   22.3156  -19.9945  -14.4961 N   0  0  0  0  0  0  0  0  0  0  0  0
   21.1411  -19.6414  -13.7525 C   0  0  0  0  0  0  0  0  0  0  0  0
   20.3177  -20.8257  -13.4003 C   0  0  0  0  0  0  0  0  0  0  0  0
   19.7133  -21.4600  -14.2977 O   0  0  0  0  0  0  0  0  0  0  0  0
   20.1734  -21.2923  -12.0649 N   0  0  0  0  0  0  0  0  0  0  0  0
   19.3236  -22.4244  -11.7794 C   0  0  1  0  0  0  0  0  0  0  0  0
   19.3857  -22.8411  -10.2995 C   0  0  0  0  0  0  0  0  0  0  0  0
   18.6856  -24.1382  -10.1751 C   0  0  0  0  0  0  0  0  0  0  0  0
   18.5179  -24.6710   -8.7953 C   0  0  0  0  0  0  0  0  0  0  0  0
   17.7423  -25.9464   -8.7392 C   0  0  0  0  0  0  0  0  0  0  0  0
   17.5978  -26.4138   -7.4050 N   0  0  0  0  0  0  0  0  0  0  0  0
   17.9167  -22.0351  -12.0494 C   0  0  0  0  0  0  0  0  0  0  0  0
   17.1141  -22.8585  -12.5312 O   0  0  0  0  0  0  0  0  0  0  0  0
   17.4305  -20.7569  -11.7842 O   0  0  0  0  0  0  0  0  0  0  0  0
  1  2  1  0
  2  3  2  0
  4  2  1  0
  4  5  1  0
  6  5  1  0
  6  8  1  0
  6  7  1  6
  8  9  2  0
 10  8  1  0
 10 11  1  0
 11 12  1  0
 12 14  1  0
 13 12  2  0
 14 15  1  0
 15 16  1  1
 16 17  1  0
 17 18  1  0
 19 18  1  0
 20 19  1  0
 21 15  1  0
 21 23  1  0
 22 21  2  0
M  END
$$$$
