QGK.pdb
     RDKit          3D

 23 22  0  0  1  0  0  0  0  0999 V2000
   26.7042  -23.1465  -15.8818 N   0  0  0  0  0  0  0  0  0  0  0  0
   26.6353  -21.9710  -15.0625 C   0  0  0  0  0  0  0  0  0  0  0  0
   27.4274  -21.8079  -14.1037 O   0  0  0  0  0  0  0  0  0  0  0  0
   25.6254  -20.9235  -15.3323 C   0  0  0  0  0  0  0  0  0  0  0  0
   25.1598  -20.3439  -14.0404 C   0  0  0  0  0  0  0  0  0  0  0  0
   23.9288  -21.0128  -13.4935 C   0  0  2  0  0  0  0  0  0  0  0  0
   22.7978  -20.8516  -14.3958 N   0  0  0  0  0  0  0  0  0  0  0  0
   23.5268  -20.4813  -12.1716 C   0  0  0  0  0  0  0  0  0  0  0  0
   24.2681  -19.6814  -11.5113 O   0  0  0  0  0  0  0  0  0  0  0  0
   22.2878  -20.8274  -11.5509 N   0  0  0  0  0  0  0  0  0  0  0  0
   21.8657  -20.2936  -10.2883 C   0  0  0  0  0  0  0  0  0  0  0  0
   20.6117  -20.9211   -9.8000 C   0  0  0  0  0  0  0  0  0  0  0  0
   19.5283  -20.2926   -9.8642 O   0  0  0  0  0  0  0  0  0  0  0  0
   20.5714  -22.2311   -9.2487 N   0  0  0  0  0  0  0  0  0  0  0  0
   19.3180  -22.9422   -9.1580 C   0  0  1  0  0  0  0  0  0  0  0  0
   19.1083  -23.9066  -10.3385 C   0  0  0  0  0  0  0  0  0  0  0  0
   17.7440  -24.4651  -10.2170 C   0  0  0  0  0  0  0  0  0  0  0  0
   17.3528  -25.4850  -11.2283 C   0  0  0  0  0  0  0  0  0  0  0  0
   15.9492  -25.9712  -11.0722 C   0  0  0  0  0  0  0  0  0  0  0  0
   15.5960  -26.8909  -12.0965 N   0  0  0  0  0  0  0  0  0  0  0  0
   19.3395  -23.7767   -7.9304 C   0  0  0  0  0  0  0  0  0  0  0  0
   20.4229  -24.1151   -7.4146 O   0  0  0  0  0  0  0  0  0  0  0  0
   18.1751  -24.2157   -7.3041 O   0  0  0  0  0  0  0  0  0  0  0  0
  1  2  1  0
  2  3  2  0
  4  2  1  0
  4  5  1  0
  6  5  1  0
  6  8  1  0
  6  7  1  6
  8  9  2  0
 10  8  1  0
 10 11  1  0
 11 12  1  0
 12 14  1  0
 13 12  2  0
 14 15  1  0
 15 16  1  6
 16 17  1  0
 17 18  1  0
 19 18  1  0
 20 19  1  0
 21 15  1  0
 21 23  1  0
 22 21  2  0
M  END
$$$$
