QGK.pdb
     RDKit          3D

 23 22  0  0  1  0  0  0  0  0999 V2000
   20.5611  -18.7208  -13.6050 N   0  0  0  0  0  0  0  0  0  0  0  0
   21.4557  -19.0255  -14.6842 C   0  0  0  0  0  0  0  0  0  0  0  0
   21.8952  -20.1891  -14.8463 O   0  0  0  0  0  0  0  0  0  0  0  0
   21.8797  -17.9704  -15.6312 C   0  0  0  0  0  0  0  0  0  0  0  0
   21.2148  -16.6867  -15.2682 C   0  0  0  0  0  0  0  0  0  0  0  0
   20.1182  -16.2911  -16.2184 C   0  0  2  0  0  0  0  0  0  0  0  0
   20.6615  -15.8615  -17.4989 N   0  0  0  0  0  0  0  0  0  0  0  0
   19.2768  -15.1905  -15.6968 C   0  0  0  0  0  0  0  0  0  0  0  0
   18.4986  -15.3495  -14.6995 O   0  0  0  0  0  0  0  0  0  0  0  0
   19.2806  -13.8835  -16.2729 N   0  0  0  0  0  0  0  0  0  0  0  0
   18.5587  -12.7769  -15.7148 C   0  0  0  0  0  0  0  0  0  0  0  0
   18.7805  -11.5183  -16.4706 C   0  0  0  0  0  0  0  0  0  0  0  0
   19.8780  -11.3139  -17.0423 O   0  0  0  0  0  0  0  0  0  0  0  0
   17.7897  -10.5049  -16.5844 N   0  0  0  0  0  0  0  0  0  0  0  0
   18.0227   -9.3528  -17.4231 C   0  0  1  0  0  0  0  0  0  0  0  0
   16.7798   -8.4527  -17.5353 C   0  0  0  0  0  0  0  0  0  0  0  0
   17.1016   -7.3705  -18.4910 C   0  0  0  0  0  0  0  0  0  0  0  0
   16.0098   -6.4039  -18.7900 C   0  0  0  0  0  0  0  0  0  0  0  0
   16.3814   -5.3838  -19.8158 C   0  0  0  0  0  0  0  0  0  0  0  0
   15.3051   -4.4961  -20.0864 N   0  0  0  0  0  0  0  0  0  0  0  0
   19.0871   -8.5264  -16.8004 C   0  0  0  0  0  0  0  0  0  0  0  0
   19.1584   -8.4163  -15.5606 O   0  0  0  0  0  0  0  0  0  0  0  0
   20.0415   -7.8454  -17.5529 O   0  0  0  0  0  0  0  0  0  0  0  0
  1  2  1  0
  2  3  2  0
  4  2  1  0
  4  5  1  0
  6  5  1  0
  6  8  1  0
  6  7  1  6
  8  9  2  0
 10  8  1  0
 10 11  1  0
 11 12  1  0
 12 14  1  0
 13 12  2  0
 14 15  1  0
 15 16  1  1
 16 17  1  0
 17 18  1  0
 19 18  1  0
 20 19  1  0
 21 15  1  0
 21 23  1  0
 22 21  2  0
M  END
$$$$
