QGK.pdb
     RDKit          3D

 23 22  0  0  1  0  0  0  0  0999 V2000
   27.0544  -22.4705  -15.2674 N   0  0  0  0  0  0  0  0  0  0  0  0
   26.0450  -21.9644  -16.1520 C   0  0  0  0  0  0  0  0  0  0  0  0
   26.3226  -21.0992  -17.0167 O   0  0  0  0  0  0  0  0  0  0  0  0
   24.6513  -22.4539  -16.0625 C   0  0  0  0  0  0  0  0  0  0  0  0
   23.7145  -21.3136  -16.2724 C   0  0  0  0  0  0  0  0  0  0  0  0
   23.5347  -20.4543  -15.0513 C   0  0  2  0  0  0  0  0  0  0  0  0
   24.1667  -21.0569  -13.8865 N   0  0  0  0  0  0  0  0  0  0  0  0
   22.1111  -20.2215  -14.7186 C   0  0  0  0  0  0  0  0  0  0  0  0
   21.2547  -19.8958  -15.6050 O   0  0  0  0  0  0  0  0  0  0  0  0
   21.6045  -20.3456  -13.3889 N   0  0  0  0  0  0  0  0  0  0  0  0
   20.2252  -20.1435  -13.0517 C   0  0  0  0  0  0  0  0  0  0  0  0
   19.5694  -21.3903  -12.5826 C   0  0  0  0  0  0  0  0  0  0  0  0
   19.7428  -22.4645  -13.2064 O   0  0  0  0  0  0  0  0  0  0  0  0
   18.7328  -21.4338  -11.4337 N   0  0  0  0  0  0  0  0  0  0  0  0
   18.2495  -22.6998  -10.9352 C   0  0  1  0  0  0  0  0  0  0  0  0
   18.5224  -22.8764   -9.4311 C   0  0  0  0  0  0  0  0  0  0  0  0
   18.0229  -24.2140   -9.0446 C   0  0  0  0  0  0  0  0  0  0  0  0
   18.1141  -24.5636   -7.6006 C   0  0  0  0  0  0  0  0  0  0  0  0
   17.6067  -25.9328   -7.2858 C   0  0  0  0  0  0  0  0  0  0  0  0
   17.8824  -26.2975   -5.9402 N   0  0  0  0  0  0  0  0  0  0  0  0
   16.7751  -22.7387  -11.1038 C   0  0  0  0  0  0  0  0  0  0  0  0
   16.1073  -21.6864  -11.0749 O   0  0  0  0  0  0  0  0  0  0  0  0
   16.0760  -23.9278  -11.2990 O   0  0  0  0  0  0  0  0  0  0  0  0
  1  2  1  0
  2  3  2  0
  4  2  1  0
  4  5  1  0
  6  5  1  0
  6  8  1  0
  6  7  1  1
  8  9  2  0
 10  8  1  0
 10 11  1  0
 11 12  1  0
 12 14  1  0
 13 12  2  0
 14 15  1  0
 15 16  1  1
 16 17  1  0
 17 18  1  0
 19 18  1  0
 20 19  1  0
 21 15  1  0
 21 23  1  0
 22 21  2  0
M  END
$$$$
