QGK.pdb
     RDKit          3D

 23 22  0  0  1  0  0  0  0  0999 V2000
   30.6515  -23.0584  -16.2097 N   0  0  0  0  0  0  0  0  0  0  0  0
   30.1810  -23.2447  -17.5519 C   0  0  0  0  0  0  0  0  0  0  0  0
   30.7870  -24.0027  -18.3466 O   0  0  0  0  0  0  0  0  0  0  0  0
   28.9674  -22.5444  -18.0282 C   0  0  0  0  0  0  0  0  0  0  0  0
   28.4876  -21.6137  -16.9673 C   0  0  0  0  0  0  0  0  0  0  0  0
   27.7079  -22.2983  -15.8786 C   0  0  2  0  0  0  0  0  0  0  0  0
   27.1280  -23.5468  -16.3524 N   0  0  0  0  0  0  0  0  0  0  0  0
   26.6048  -21.4634  -15.3516 C   0  0  0  0  0  0  0  0  0  0  0  0
   26.7928  -20.2653  -14.9587 O   0  0  0  0  0  0  0  0  0  0  0  0
   25.2630  -21.9421  -15.2488 N   0  0  0  0  0  0  0  0  0  0  0  0
   24.1687  -21.1246  -14.8116 C   0  0  0  0  0  0  0  0  0  0  0  0
   22.8872  -21.8730  -14.7650 C   0  0  0  0  0  0  0  0  0  0  0  0
   22.8931  -23.1248  -14.6863 O   0  0  0  0  0  0  0  0  0  0  0  0
   21.6194  -21.2305  -14.8058 N   0  0  0  0  0  0  0  0  0  0  0  0
   20.4071  -22.0115  -14.7333 C   0  0  1  0  0  0  0  0  0  0  0  0
   19.1450  -21.1314  -14.7494 C   0  0  0  0  0  0  0  0  0  0  0  0
   17.9754  -22.0329  -14.6643 C   0  0  0  0  0  0  0  0  0  0  0  0
   16.6366  -21.3959  -14.7965 C   0  0  0  0  0  0  0  0  0  0  0  0
   15.5082  -22.3746  -14.7946 C   0  0  0  0  0  0  0  0  0  0  0  0
   14.2538  -21.7287  -14.9647 N   0  0  0  0  0  0  0  0  0  0  0  0
   20.3334  -22.8766  -15.9374 C   0  0  0  0  0  0  0  0  0  0  0  0
   20.7806  -22.4781  -17.0308 O   0  0  0  0  0  0  0  0  0  0  0  0
   19.7728  -24.1516  -15.9089 O   0  0  0  0  0  0  0  0  0  0  0  0
  1  2  1  0
  2  3  2  0
  4  2  1  0
  4  5  1  0
  6  5  1  0
  6  8  1  0
  6  7  1  6
  8  9  2  0
 10  8  1  0
 10 11  1  0
 11 12  1  0
 12 14  1  0
 13 12  2  0
 14 15  1  0
 15 16  1  6
 16 17  1  0
 17 18  1  0
 19 18  1  0
 20 19  1  0
 21 15  1  0
 21 23  1  0
 22 21  2  0
M  END
$$$$
