QGK.pdb
     RDKit          3D

 23 22  0  0  1  0  0  0  0  0999 V2000
   24.3143   -8.8964  -16.2744 N   0  0  0  0  0  0  0  0  0  0  0  0
   23.1558   -9.0227  -17.1109 C   0  0  0  0  0  0  0  0  0  0  0  0
   23.2678   -9.3237  -18.3234 O   0  0  0  0  0  0  0  0  0  0  0  0
   21.8009   -8.8001  -16.5591 C   0  0  0  0  0  0  0  0  0  0  0  0
   21.9117   -8.4019  -15.1269 C   0  0  0  0  0  0  0  0  0  0  0  0
   21.0067   -9.1852  -14.2162 C   0  0  2  0  0  0  0  0  0  0  0  0
   19.7126   -9.4238  -14.8390 N   0  0  0  0  0  0  0  0  0  0  0  0
   20.7637   -8.5038  -12.9247 C   0  0  0  0  0  0  0  0  0  0  0  0
   21.7164   -8.1807  -12.1417 O   0  0  0  0  0  0  0  0  0  0  0  0
   19.4522   -8.1645  -12.4720 N   0  0  0  0  0  0  0  0  0  0  0  0
   19.2029   -7.4348  -11.2626 C   0  0  0  0  0  0  0  0  0  0  0  0
   17.7572   -7.1735  -11.0478 C   0  0  0  0  0  0  0  0  0  0  0  0
   17.0355   -6.8082  -12.0063 O   0  0  0  0  0  0  0  0  0  0  0  0
   17.1296   -7.3187   -9.7802 N   0  0  0  0  0  0  0  0  0  0  0  0
   15.7202   -7.0416   -9.6321 C   0  0  1  0  0  0  0  0  0  0  0  0
   15.1287   -7.6891   -8.3677 C   0  0  0  0  0  0  0  0  0  0  0  0
   13.6591   -7.5371   -8.4385 C   0  0  0  0  0  0  0  0  0  0  0  0
   12.8760   -8.1403   -7.3255 C   0  0  0  0  0  0  0  0  0  0  0  0
   11.3993   -8.1015   -7.5465 C   0  0  0  0  0  0  0  0  0  0  0  0
   10.6977   -8.7944   -6.5231 N   0  0  0  0  0  0  0  0  0  0  0  0
   15.5438   -5.5758   -9.4774 C   0  0  0  0  0  0  0  0  0  0  0  0
   16.4002   -4.8954   -8.8791 O   0  0  0  0  0  0  0  0  0  0  0  0
   14.4357   -4.8986   -9.9818 O   0  0  0  0  0  0  0  0  0  0  0  0
  1  2  1  0
  2  3  2  0
  4  2  1  0
  4  5  1  0
  6  5  1  0
  6  8  1  0
  6  7  1  6
  8  9  2  0
 10  8  1  0
 10 11  1  0
 11 12  1  0
 12 14  1  0
 13 12  2  0
 14 15  1  0
 15 16  1  1
 16 17  1  0
 17 18  1  0
 19 18  1  0
 20 19  1  0
 21 15  1  0
 21 23  1  0
 22 21  2  0
M  END
$$$$
