QGK.pdb
     RDKit          3D

 23 22  0  0  1  0  0  0  0  0999 V2000
   28.0780  -22.8220  -15.8965 N   0  0  0  0  0  0  0  0  0  0  0  0
   28.3424  -21.4149  -15.9862 C   0  0  0  0  0  0  0  0  0  0  0  0
   29.2451  -20.9767  -16.7388 O   0  0  0  0  0  0  0  0  0  0  0  0
   27.5534  -20.4485  -15.1904 C   0  0  0  0  0  0  0  0  0  0  0  0
   26.5999  -21.1912  -14.3179 C   0  0  0  0  0  0  0  0  0  0  0  0
   25.1928  -21.2094  -14.8487 C   0  0  2  0  0  0  0  0  0  0  0  0
   25.1712  -21.5194  -16.2710 N   0  0  0  0  0  0  0  0  0  0  0  0
   24.4924  -19.9189  -14.6607 C   0  0  0  0  0  0  0  0  0  0  0  0
   24.2870  -19.4240  -13.5038 O   0  0  0  0  0  0  0  0  0  0  0  0
   24.0023  -19.1458  -15.7572 N   0  0  0  0  0  0  0  0  0  0  0  0
   23.4696  -17.8224  -15.6094 C   0  0  0  0  0  0  0  0  0  0  0  0
   23.2343  -17.1584  -16.9164 C   0  0  0  0  0  0  0  0  0  0  0  0
   23.9691  -17.4241  -17.8974 O   0  0  0  0  0  0  0  0  0  0  0  0
   22.1931  -16.2122  -17.1217 N   0  0  0  0  0  0  0  0  0  0  0  0
   21.9232  -15.7059  -18.4468 C   0  0  1  0  0  0  0  0  0  0  0  0
   20.6424  -14.8547  -18.4959 C   0  0  0  0  0  0  0  0  0  0  0  0
   19.4988  -15.7611  -18.2535 C   0  0  0  0  0  0  0  0  0  0  0  0
   18.1465  -15.1391  -18.2634 C   0  0  0  0  0  0  0  0  0  0  0  0
   17.0358  -16.1255  -18.1073 C   0  0  0  0  0  0  0  0  0  0  0  0
   15.7633  -15.5095  -18.2522 N   0  0  0  0  0  0  0  0  0  0  0  0
   23.0396  -14.8115  -18.8439 C   0  0  0  0  0  0  0  0  0  0  0  0
   23.5888  -14.0737  -18.0023 O   0  0  0  0  0  0  0  0  0  0  0  0
   23.5213  -14.7513  -20.1497 O   0  0  0  0  0  0  0  0  0  0  0  0
  1  2  1  0
  2  3  2  0
  4  2  1  0
  4  5  1  0
  6  5  1  0
  6  8  1  0
  6  7  1  6
  8  9  2  0
 10  8  1  0
 10 11  1  0
 11 12  1  0
 12 14  1  0
 13 12  2  0
 14 15  1  0
 15 16  1  1
 16 17  1  0
 17 18  1  0
 19 18  1  0
 20 19  1  0
 21 15  1  0
 21 23  1  0
 22 21  2  0
M  END
$$$$
