QGK.pdb
     RDKit          3D

 23 22  0  0  1  0  0  0  0  0999 V2000
   23.2582  -17.8241  -17.6101 N   0  0  0  0  0  0  0  0  0  0  0  0
   24.4947  -18.4479  -17.2364 C   0  0  0  0  0  0  0  0  0  0  0  0
   25.4642  -18.4812  -18.0315 O   0  0  0  0  0  0  0  0  0  0  0  0
   24.6524  -19.0668  -15.9015 C   0  0  0  0  0  0  0  0  0  0  0  0
   23.3543  -19.0011  -15.1717 C   0  0  0  0  0  0  0  0  0  0  0  0
   22.7126  -20.3462  -14.9698 C   0  0  2  0  0  0  0  0  0  0  0  0
   22.3007  -20.9282  -16.2390 N   0  0  0  0  0  0  0  0  0  0  0  0
   21.5193  -20.2868  -14.0958 C   0  0  0  0  0  0  0  0  0  0  0  0
   20.7684  -19.2577  -14.0469 O   0  0  0  0  0  0  0  0  0  0  0  0
   21.1316  -21.3729  -13.2531 N   0  0  0  0  0  0  0  0  0  0  0  0
   20.0336  -21.3002  -12.3331 C   0  0  0  0  0  0  0  0  0  0  0  0
   19.8290  -22.5723  -11.5953 C   0  0  0  0  0  0  0  0  0  0  0  0
   20.3226  -23.6390  -12.0331 O   0  0  0  0  0  0  0  0  0  0  0  0
   19.0838  -22.6491  -10.3868 N   0  0  0  0  0  0  0  0  0  0  0  0
   18.9007  -23.9201   -9.7264 C   0  0  1  0  0  0  0  0  0  0  0  0
   18.3995  -23.7587   -8.2806 C   0  0  0  0  0  0  0  0  0  0  0  0
   18.5171  -25.0777   -7.6214 C   0  0  0  0  0  0  0  0  0  0  0  0
   18.0635  -25.1538   -6.2057 C   0  0  0  0  0  0  0  0  0  0  0  0
   18.1523  -26.5270   -5.6245 C   0  0  0  0  0  0  0  0  0  0  0  0
   17.9485  -26.5152   -4.2181 N   0  0  0  0  0  0  0  0  0  0  0  0
   17.8533  -24.6803  -10.4535 C   0  0  0  0  0  0  0  0  0  0  0  0
   16.8248  -24.1067  -10.8630 O   0  0  0  0  0  0  0  0  0  0  0  0
   17.9626  -26.0451  -10.7107 O   0  0  0  0  0  0  0  0  0  0  0  0
  1  2  1  0
  2  3  2  0
  4  2  1  0
  4  5  1  0
  6  5  1  0
  6  8  1  0
  6  7  1  6
  8  9  2  0
 10  8  1  0
 10 11  1  0
 11 12  1  0
 12 14  1  0
 13 12  2  0
 14 15  1  0
 15 16  1  1
 16 17  1  0
 17 18  1  0
 19 18  1  0
 20 19  1  0
 21 15  1  0
 21 23  1  0
 22 21  2  0
M  END
$$$$
