QGK.pdb
     RDKit          3D

 23 22  0  0  1  0  0  0  0  0999 V2000
   26.6138  -21.6318   -9.7990 N   0  0  0  0  0  0  0  0  0  0  0  0
   25.2182  -21.3333   -9.9435 C   0  0  0  0  0  0  0  0  0  0  0  0
   24.5098  -21.0703   -8.9423 O   0  0  0  0  0  0  0  0  0  0  0  0
   24.5836  -21.3293  -11.2803 C   0  0  0  0  0  0  0  0  0  0  0  0
   25.5433  -21.8737  -12.2826 C   0  0  0  0  0  0  0  0  0  0  0  0
   26.1973  -20.8119  -13.1232 C   0  0  2  0  0  0  0  0  0  0  0  0
   26.3060  -19.5566  -12.3938 N   0  0  0  0  0  0  0  0  0  0  0  0
   25.4603  -20.5388  -14.3776 C   0  0  0  0  0  0  0  0  0  0  0  0
   26.0132  -20.6409  -15.5218 O   0  0  0  0  0  0  0  0  0  0  0  0
   24.0874  -20.1447  -14.3898 N   0  0  0  0  0  0  0  0  0  0  0  0
   23.3399  -19.9390  -15.5964 C   0  0  0  0  0  0  0  0  0  0  0  0
   21.9673  -19.4379  -15.3327 C   0  0  0  0  0  0  0  0  0  0  0  0
   21.5497  -19.3407  -14.1540 O   0  0  0  0  0  0  0  0  0  0  0  0
   21.0768  -19.0519  -16.3717 N   0  0  0  0  0  0  0  0  0  0  0  0
   19.7229  -18.6592  -16.0587 C   0  0  1  0  0  0  0  0  0  0  0  0
   18.9857  -18.0840  -17.2807 C   0  0  0  0  0  0  0  0  0  0  0  0
   19.0792  -16.6099  -17.2008 C   0  0  0  0  0  0  0  0  0  0  0  0
   18.3410  -15.8417  -18.2404 C   0  0  0  0  0  0  0  0  0  0  0  0
   18.5373  -14.3643  -18.1412 C   0  0  0  0  0  0  0  0  0  0  0  0
   17.9999  -13.6871  -19.2691 N   0  0  0  0  0  0  0  0  0  0  0  0
   18.9684  -19.8676  -15.6412 C   0  0  0  0  0  0  0  0  0  0  0  0
   19.2468  -20.9842  -16.1208 O   0  0  0  0  0  0  0  0  0  0  0  0
   17.9320  -19.8178  -14.7115 O   0  0  0  0  0  0  0  0  0  0  0  0
  1  2  1  0
  2  3  2  0
  4  2  1  0
  4  5  1  0
  6  5  1  0
  6  8  1  0
  6  7  1  1
  8  9  2  0
 10  8  1  0
 10 11  1  0
 11 12  1  0
 12 14  1  0
 13 12  2  0
 14 15  1  0
 15 16  1  6
 16 17  1  0
 17 18  1  0
 19 18  1  0
 20 19  1  0
 21 15  1  0
 21 23  1  0
 22 21  2  0
M  END
$$$$
