QGK.pdb
     RDKit          3D

 23 22  0  0  1  0  0  0  0  0999 V2000
   25.9186  -24.9765  -14.8932 N   0  0  0  0  0  0  0  0  0  0  0  0
   26.6267  -23.7901  -15.2786 C   0  0  0  0  0  0  0  0  0  0  0  0
   27.7131  -23.8631  -15.9013 O   0  0  0  0  0  0  0  0  0  0  0  0
   26.0887  -22.4516  -14.9487 C   0  0  0  0  0  0  0  0  0  0  0  0
   24.8214  -22.6062  -14.1793 C   0  0  0  0  0  0  0  0  0  0  0  0
   23.6119  -22.0887  -14.9082 C   0  0  2  0  0  0  0  0  0  0  0  0
   23.9517  -20.9495  -15.7484 N   0  0  0  0  0  0  0  0  0  0  0  0
   22.5293  -21.6631  -13.9926 C   0  0  0  0  0  0  0  0  0  0  0  0
   22.0395  -22.4474  -13.1150 O   0  0  0  0  0  0  0  0  0  0  0  0
   21.9641  -20.3519  -14.0311 N   0  0  0  0  0  0  0  0  0  0  0  0
   20.7873  -19.9819  -13.2994 C   0  0  0  0  0  0  0  0  0  0  0  0
   20.0475  -21.1618  -12.7846 C   0  0  0  0  0  0  0  0  0  0  0  0
   19.8315  -22.1440  -13.5340 O   0  0  0  0  0  0  0  0  0  0  0  0
   19.5573  -21.2408  -11.4522 N   0  0  0  0  0  0  0  0  0  0  0  0
   18.8049  -22.3960  -11.0229 C   0  0  1  0  0  0  0  0  0  0  0  0
   18.9838  -22.6831   -9.5218 C   0  0  0  0  0  0  0  0  0  0  0  0
   18.2506  -23.9316   -9.2193 C   0  0  0  0  0  0  0  0  0  0  0  0
   18.2187  -24.3522   -7.7917 C   0  0  0  0  0  0  0  0  0  0  0  0
   17.4483  -25.6103   -7.5582 C   0  0  0  0  0  0  0  0  0  0  0  0
   17.4450  -25.9759   -6.1849 N   0  0  0  0  0  0  0  0  0  0  0  0
   17.3612  -22.1195  -11.2303 C   0  0  0  0  0  0  0  0  0  0  0  0
   16.9043  -20.9738  -11.0493 O   0  0  0  0  0  0  0  0  0  0  0  0
   16.4609  -23.1049  -11.6294 O   0  0  0  0  0  0  0  0  0  0  0  0
  1  2  1  0
  2  3  2  0
  4  2  1  0
  4  5  1  0
  6  5  1  0
  6  8  1  0
  6  7  1  1
  8  9  2  0
 10  8  1  0
 10 11  1  0
 11 12  1  0
 12 14  1  0
 13 12  2  0
 14 15  1  0
 15 16  1  1
 16 17  1  0
 17 18  1  0
 19 18  1  0
 20 19  1  0
 21 15  1  0
 21 23  1  0
 22 21  2  0
M  END
$$$$
