LHL.pdb
     RDKit          3D

 27 27  0  0  1  0  0  0  0  0999 V2000
   27.5614  -17.0140  -17.3381 C   0  0  0  0  0  0  0  0  0  0  0  0
   27.8046  -18.2468  -16.4779 C   0  0  1  0  0  0  0  0  0  0  0  0
   29.3035  -18.4463  -16.3365 C   0  0  0  0  0  0  0  0  0  0  0  0
   27.0880  -18.1726  -15.1686 C   0  0  0  0  0  0  0  0  0  0  0  0
   27.4427  -19.3090  -14.2345 C   0  0  2  0  0  0  0  0  0  0  0  0
   27.2942  -20.5932  -14.9314 N   0  0  0  0  0  0  0  0  0  0  0  0
   26.5955  -19.3391  -13.0378 C   0  0  0  0  0  0  0  0  0  0  0  0
   26.2002  -18.2462  -12.5600 O   0  0  0  0  0  0  0  0  0  0  0  0
   26.1812  -20.5111  -12.3735 N   0  0  0  0  0  0  0  0  0  0  0  0
   25.2732  -20.4562  -11.2052 C   0  0  1  0  0  0  0  0  0  0  0  0
   24.0930  -21.3294  -11.5094 C   0  0  0  0  0  0  0  0  0  0  0  0
   23.1581  -20.6778  -12.4425 C   0  0  0  0  0  0  0  0  0  0  0  0
   23.0066  -20.9981  -13.8045 C   0  0  0  0  0  0  0  0  0  0  0  0
   22.0768  -20.1933  -14.3179 N   0  0  0  0  0  0  0  0  0  0  0  0
   21.6220  -19.3711  -13.3539 C   0  0  0  0  0  0  0  0  0  0  0  0
   22.2927  -19.6861  -12.2364 N   0  0  0  0  0  0  0  0  0  0  0  0
   26.0509  -20.9213  -10.0119 C   0  0  0  0  0  0  0  0  0  0  0  0
   26.4948  -22.0939   -9.8809 O   0  0  0  0  0  0  0  0  0  0  0  0
   29.5495  -19.9633   -5.7017 C   0  0  0  0  0  0  0  0  0  0  0  0
   28.0442  -19.6948   -5.6481 C   0  0  1  0  0  0  0  0  0  0  0  0
   27.7980  -18.4922   -4.7375 C   0  0  0  0  0  0  0  0  0  0  0  0
   27.6022  -19.3319   -7.0299 C   0  0  0  0  0  0  0  0  0  0  0  0
   26.7538  -20.4044   -7.6325 C   0  0  2  0  0  0  0  0  0  0  0  0
   26.3081  -20.0001   -8.9740 N   0  0  0  0  0  0  0  0  0  0  0  0
   25.6219  -20.7539   -6.7776 C   0  0  0  0  0  0  0  0  0  0  0  0
   24.4641  -20.0439   -6.6546 O   0  0  0  0  0  0  0  0  0  0  0  0
   25.7259  -21.8308   -6.0683 O   0  0  0  0  0  0  0  0  0  0  0  0
  2  3  1  1
  2  1  1  0
  4  2  1  0
  4  5  1  0
  5  7  1  0
  5  6  1  6
  7  8  2  0
  9 10  1  0
  9  7  1  0
 10 11  1  6
 11 12  1  0
 12 16  1  0
 13 12  2  0
 13 14  1  0
 14 15  1  0
 16 15  2  0
 17 18  2  0
 17 10  1  0
 20 22  1  0
 20 19  1  6
 21 20  1  0
 23 22  1  1
 23 25  1  0
 23 24  1  0
 24 17  1  0
 25 26  1  0
 27 25  2  0
M  END
$$$$
