LHL.pdb
     RDKit          3D

 27 27  0  0  1  0  0  0  0  0999 V2000
   24.5156  -15.4274  -17.9523 C   0  0  0  0  0  0  0  0  0  0  0  0
   24.3768  -14.4445  -16.7974 C   0  0  1  0  0  0  0  0  0  0  0  0
   25.7501  -13.8792  -16.4797 C   0  0  0  0  0  0  0  0  0  0  0  0
   23.3493  -13.3941  -17.0697 C   0  0  0  0  0  0  0  0  0  0  0  0
   23.2090  -12.3966  -15.9404 C   0  0  2  0  0  0  0  0  0  0  0  0
   22.8982  -13.0995  -14.6890 N   0  0  0  0  0  0  0  0  0  0  0  0
   22.1490  -11.4136  -16.1866 C   0  0  0  0  0  0  0  0  0  0  0  0
   22.1884  -10.7489  -17.2522 O   0  0  0  0  0  0  0  0  0  0  0  0
   21.0736  -11.1529  -15.3135 N   0  0  0  0  0  0  0  0  0  0  0  0
   19.9803  -10.2280  -15.6899 C   0  0  1  0  0  0  0  0  0  0  0  0
   18.6839  -10.9482  -15.4700 C   0  0  0  0  0  0  0  0  0  0  0  0
   18.4071  -11.9147  -16.5463 C   0  0  0  0  0  0  0  0  0  0  0  0
   18.2277  -11.5956  -17.9052 C   0  0  0  0  0  0  0  0  0  0  0  0
   17.9904  -12.7271  -18.5681 N   0  0  0  0  0  0  0  0  0  0  0  0
   18.0087  -13.7586  -17.7035 C   0  0  0  0  0  0  0  0  0  0  0  0
   18.2608  -13.2379  -16.4939 N   0  0  0  0  0  0  0  0  0  0  0  0
   20.1185   -9.0023  -14.8391 C   0  0  0  0  0  0  0  0  0  0  0  0
   19.9923   -9.0046  -13.5849 O   0  0  0  0  0  0  0  0  0  0  0  0
   22.3753   -4.2721  -13.7732 C   0  0  0  0  0  0  0  0  0  0  0  0
   21.3359   -4.1722  -14.8914 C   0  0  1  0  0  0  0  0  0  0  0  0
   21.8189   -3.1424  -15.9123 C   0  0  0  0  0  0  0  0  0  0  0  0
   21.2722   -5.5047  -15.5672 C   0  0  0  0  0  0  0  0  0  0  0  0
   20.5330   -6.5041  -14.7378 C   0  0  2  0  0  0  0  0  0  0  0  0
   20.4097   -7.7735  -15.4695 N   0  0  0  0  0  0  0  0  0  0  0  0
   19.2275   -6.0056  -14.3119 C   0  0  0  0  0  0  0  0  0  0  0  0
   18.9378   -5.4618  -13.0953 O   0  0  0  0  0  0  0  0  0  0  0  0
   18.2553   -6.0905  -15.1611 O   0  0  0  0  0  0  0  0  0  0  0  0
  2  3  1  6
  2  1  1  0
  4  2  1  0
  4  5  1  0
  5  7  1  0
  5  6  1  1
  7  8  2  0
  9 10  1  0
  9  7  1  0
 10 11  1  1
 11 12  1  0
 12 16  1  0
 13 12  2  0
 13 14  1  0
 14 15  1  0
 16 15  2  0
 17 18  2  0
 17 10  1  0
 20 22  1  0
 20 19  1  1
 21 20  1  0
 23 22  1  6
 23 25  1  0
 23 24  1  0
 24 17  1  0
 25 26  1  0
 27 25  2  0
M  END
$$$$
