LHL.pdb
     RDKit          3D

 27 27  0  0  1  0  0  0  0  0999 V2000
   21.3752   -9.9307  -20.9659 C   0  0  0  0  0  0  0  0  0  0  0  0
   21.6477  -10.4805  -19.5722 C   0  0  1  0  0  0  0  0  0  0  0  0
   23.1463  -10.4495  -19.3278 C   0  0  0  0  0  0  0  0  0  0  0  0
   20.8584   -9.7705  -18.5204 C   0  0  0  0  0  0  0  0  0  0  0  0
   21.0976  -10.3184  -17.1302 C   0  0  2  0  0  0  0  0  0  0  0  0
   20.5178  -11.6630  -17.0167 N   0  0  0  0  0  0  0  0  0  0  0  0
   20.5064   -9.4772  -16.0845 C   0  0  0  0  0  0  0  0  0  0  0  0
   19.2545   -9.4474  -15.9806 O   0  0  0  0  0  0  0  0  0  0  0  0
   21.2396   -8.6912  -15.1727 N   0  0  0  0  0  0  0  0  0  0  0  0
   20.5637   -7.7777  -14.2235 C   0  0  1  0  0  0  0  0  0  0  0  0
   21.3249   -7.8243  -12.9326 C   0  0  0  0  0  0  0  0  0  0  0  0
   20.6785   -7.0116  -11.8882 C   0  0  0  0  0  0  0  0  0  0  0  0
   19.4070   -6.4164  -11.9857 C   0  0  0  0  0  0  0  0  0  0  0  0
   19.1698   -5.7589  -10.8510 N   0  0  0  0  0  0  0  0  0  0  0  0
   20.2253   -5.9018  -10.0279 C   0  0  0  0  0  0  0  0  0  0  0  0
   21.1180   -6.6601  -10.6806 N   0  0  0  0  0  0  0  0  0  0  0  0
   20.5526   -6.4145  -14.8454 C   0  0  0  0  0  0  0  0  0  0  0  0
   21.5491   -5.9019  -15.4228 O   0  0  0  0  0  0  0  0  0  0  0  0
   19.8836   -2.7800  -17.9547 C   0  0  0  0  0  0  0  0  0  0  0  0
   18.4882   -3.2760  -17.5699 C   0  0  1  0  0  0  0  0  0  0  0  0
   17.6986   -3.5446  -18.8506 C   0  0  0  0  0  0  0  0  0  0  0  0
   18.6557   -4.5728  -16.8443 C   0  0  0  0  0  0  0  0  0  0  0  0
   19.2001   -4.3637  -15.4684 C   0  0  2  0  0  0  0  0  0  0  0  0
   19.3628   -5.6574  -14.7889 N   0  0  0  0  0  0  0  0  0  0  0  0
   18.3731   -3.4500  -14.6840 C   0  0  0  0  0  0  0  0  0  0  0  0
   18.5225   -2.0962  -14.6150 O   0  0  0  0  0  0  0  0  0  0  0  0
   17.4147   -3.9690  -13.9871 O   0  0  0  0  0  0  0  0  0  0  0  0
  2  3  1  1
  2  1  1  0
  4  2  1  0
  4  5  1  0
  5  7  1  0
  5  6  1  6
  7  8  2  0
  9 10  1  0
  9  7  1  0
 10 11  1  1
 11 12  1  0
 12 16  1  0
 13 12  2  0
 13 14  1  0
 14 15  1  0
 16 15  2  0
 17 18  2  0
 17 10  1  0
 20 22  1  0
 20 19  1  6
 21 20  1  0
 23 22  1  6
 23 25  1  0
 23 24  1  0
 24 17  1  0
 25 26  1  0
 27 25  2  0
M  END
$$$$
