LHL.pdb
     RDKit          3D

 27 27  0  0  1  0  0  0  0  0999 V2000
   28.5138  -17.6556  -18.2818 C   0  0  0  0  0  0  0  0  0  0  0  0
   28.1697  -18.7764  -17.3101 C   0  0  1  0  0  0  0  0  0  0  0  0
   28.9097  -20.0306  -17.7414 C   0  0  0  0  0  0  0  0  0  0  0  0
   28.4283  -18.3918  -15.8894 C   0  0  0  0  0  0  0  0  0  0  0  0
   28.3660  -19.5665  -14.9375 C   0  0  2  0  0  0  0  0  0  0  0  0
   28.1036  -20.8025  -15.6860 N   0  0  0  0  0  0  0  0  0  0  0  0
   27.3160  -19.4151  -13.9249 C   0  0  0  0  0  0  0  0  0  0  0  0
   27.1759  -18.2941  -13.3747 O   0  0  0  0  0  0  0  0  0  0  0  0
   26.4377  -20.4388  -13.5160 N   0  0  0  0  0  0  0  0  0  0  0  0
   25.3506  -20.1809  -12.5444 C   0  0  1  0  0  0  0  0  0  0  0  0
   24.0797  -20.7106  -13.1378 C   0  0  0  0  0  0  0  0  0  0  0  0
   22.9233  -20.4645  -12.2597 C   0  0  0  0  0  0  0  0  0  0  0  0
   22.3785  -21.3875  -11.3475 C   0  0  0  0  0  0  0  0  0  0  0  0
   21.3417  -20.8086  -10.7426 N   0  0  0  0  0  0  0  0  0  0  0  0
   21.1923  -19.5588  -11.2197 C   0  0  0  0  0  0  0  0  0  0  0  0
   22.1584  -19.3811  -12.1324 N   0  0  0  0  0  0  0  0  0  0  0  0
   25.7247  -20.8620  -11.2633 C   0  0  0  0  0  0  0  0  0  0  0  0
   26.1748  -22.0379  -11.2028 O   0  0  0  0  0  0  0  0  0  0  0  0
   28.4224  -18.5562   -7.1954 C   0  0  0  0  0  0  0  0  0  0  0  0
   27.8501  -19.5914   -8.1659 C   0  0  1  0  0  0  0  0  0  0  0  0
   28.5949  -20.9105   -7.9629 C   0  0  0  0  0  0  0  0  0  0  0  0
   26.4154  -19.8047   -7.8019 C   0  0  0  0  0  0  0  0  0  0  0  0
   25.7529  -20.7699   -8.7307 C   0  0  2  0  0  0  0  0  0  0  0  0
   25.5707  -20.1527  -10.0527 N   0  0  0  0  0  0  0  0  0  0  0  0
   24.4875  -21.2661   -8.1952 C   0  0  0  0  0  0  0  0  0  0  0  0
   24.3474  -22.2000   -7.2114 O   0  0  0  0  0  0  0  0  0  0  0  0
   23.3998  -20.7817   -8.7010 O   0  0  0  0  0  0  0  0  0  0  0  0
  2  3  1  6
  2  1  1  0
  4  2  1  0
  4  5  1  0
  5  7  1  0
  5  6  1  6
  7  8  2  0
  9 10  1  0
  9  7  1  0
 10 11  1  6
 11 12  1  0
 12 16  1  0
 13 12  2  0
 13 14  1  0
 14 15  1  0
 16 15  2  0
 17 18  2  0
 17 10  1  0
 20 22  1  0
 20 19  1  1
 21 20  1  0
 23 22  1  1
 23 25  1  0
 23 24  1  0
 24 17  1  0
 25 26  1  0
 27 25  2  0
M  END
$$$$
