LHL.pdb
     RDKit          3D

 27 27  0  0  1  0  0  0  0  0999 V2000
   25.5165  -35.7092  -14.2617 C   0  0  0  0  0  0  0  0  0  0  0  0
   24.3776  -35.0693  -13.4793 C   0  0  1  0  0  0  0  0  0  0  0  0
   23.3559  -36.1443  -13.1518 C   0  0  0  0  0  0  0  0  0  0  0  0
   24.8649  -34.3258  -12.2781 C   0  0  0  0  0  0  0  0  0  0  0  0
   23.7587  -33.6038  -11.5399 C   0  0  2  0  0  0  0  0  0  0  0  0
   23.4135  -32.3635  -12.2466 N   0  0  0  0  0  0  0  0  0  0  0  0
   24.1331  -33.2561  -10.1653 C   0  0  0  0  0  0  0  0  0  0  0  0
   24.9822  -32.3464   -9.9910 O   0  0  0  0  0  0  0  0  0  0  0  0
   23.6081  -33.8667   -9.0085 N   0  0  0  0  0  0  0  0  0  0  0  0
   24.0451  -33.4584   -7.6540 C   0  0  1  0  0  0  0  0  0  0  0  0
   22.8843  -33.6569   -6.7262 C   0  0  0  0  0  0  0  0  0  0  0  0
   23.2369  -33.3325   -5.3336 C   0  0  0  0  0  0  0  0  0  0  0  0
   23.8606  -32.1465   -4.9034 C   0  0  0  0  0  0  0  0  0  0  0  0
   24.0227  -32.2198   -3.5826 N   0  0  0  0  0  0  0  0  0  0  0  0
   23.5339  -33.3938   -3.1413 C   0  0  0  0  0  0  0  0  0  0  0  0
   23.0688  -34.0424   -4.2188 N   0  0  0  0  0  0  0  0  0  0  0  0
   25.2308  -34.3008   -7.2936 C   0  0  0  0  0  0  0  0  0  0  0  0
   25.4381  -35.4524   -7.7625 O   0  0  0  0  0  0  0  0  0  0  0  0
   30.3378  -35.1094   -6.2784 C   0  0  0  0  0  0  0  0  0  0  0  0
   29.7000  -34.2728   -5.1674 C   0  0  1  0  0  0  0  0  0  0  0  0
   30.7038  -33.2091   -4.7239 C   0  0  0  0  0  0  0  0  0  0  0  0
   28.5120  -33.5782   -5.7526 C   0  0  0  0  0  0  0  0  0  0  0  0
   27.3706  -34.5216   -5.9538 C   0  0  2  0  0  0  0  0  0  0  0  0
   26.1745  -33.7813   -6.3817 N   0  0  0  0  0  0  0  0  0  0  0  0
   27.1037  -35.3222   -4.7613 C   0  0  0  0  0  0  0  0  0  0  0  0
   27.5879  -36.5728   -4.5135 O   0  0  0  0  0  0  0  0  0  0  0  0
   26.3353  -34.8030   -3.8593 O   0  0  0  0  0  0  0  0  0  0  0  0
  2  3  1  1
  2  1  1  0
  4  2  1  0
  4  5  1  0
  5  7  1  0
  5  6  1  6
  7  8  2  0
  9 10  1  0
  9  7  1  0
 10 11  1  1
 11 12  1  0
 12 16  1  0
 13 12  2  0
 13 14  1  0
 14 15  1  0
 16 15  2  0
 17 18  2  0
 17 10  1  0
 20 22  1  0
 20 19  1  6
 21 20  1  0
 23 22  1  1
 23 25  1  0
 23 24  1  0
 24 17  1  0
 25 26  1  0
 27 25  2  0
M  END
$$$$
