LHL.pdb
     RDKit          3D

 27 27  0  0  1  0  0  0  0  0999 V2000
   27.9017  -15.8517  -17.0276 C   0  0  0  0  0  0  0  0  0  0  0  0
   27.7775  -17.3310  -16.6884 C   0  0  1  0  0  0  0  0  0  0  0  0
   29.1683  -17.8830  -16.4283 C   0  0  0  0  0  0  0  0  0  0  0  0
   26.8210  -17.5751  -15.5664 C   0  0  0  0  0  0  0  0  0  0  0  0
   26.9634  -18.9526  -14.9564 C   0  0  2  0  0  0  0  0  0  0  0  0
   26.5732  -19.9752  -15.9356 N   0  0  0  0  0  0  0  0  0  0  0  0
   26.1332  -19.1267  -13.7601 C   0  0  0  0  0  0  0  0  0  0  0  0
   25.4992  -18.1329  -13.3249 O   0  0  0  0  0  0  0  0  0  0  0  0
   25.9851  -20.3361  -13.0514 N   0  0  0  0  0  0  0  0  0  0  0  0
   24.9986  -20.4730  -11.9558 C   0  0  1  0  0  0  0  0  0  0  0  0
   23.9165  -21.3935  -12.4350 C   0  0  0  0  0  0  0  0  0  0  0  0
   22.9991  -20.7180  -13.3683 C   0  0  0  0  0  0  0  0  0  0  0  0
   21.8960  -19.9254  -13.0002 C   0  0  0  0  0  0  0  0  0  0  0  0
   21.3063  -19.4937  -14.1146 N   0  0  0  0  0  0  0  0  0  0  0  0
   21.9754  -19.9687  -15.1817 C   0  0  0  0  0  0  0  0  0  0  0  0
   22.9887  -20.7032  -14.7005 N   0  0  0  0  0  0  0  0  0  0  0  0
   25.7290  -21.0037  -10.7599 C   0  0  0  0  0  0  0  0  0  0  0  0
   26.4467  -22.0398  -10.7827 O   0  0  0  0  0  0  0  0  0  0  0  0
   28.1981  -18.4534   -6.3451 C   0  0  0  0  0  0  0  0  0  0  0  0
   27.8599  -19.4878   -7.4206 C   0  0  1  0  0  0  0  0  0  0  0  0
   28.6554  -20.7614   -7.1360 C   0  0  0  0  0  0  0  0  0  0  0  0
   26.4047  -19.8086   -7.2948 C   0  0  0  0  0  0  0  0  0  0  0  0
   25.9989  -20.8904   -8.2425 C   0  0  2  0  0  0  0  0  0  0  0  0
   25.6149  -20.3084   -9.5370 N   0  0  0  0  0  0  0  0  0  0  0  0
   24.9325  -21.7265   -7.6967 C   0  0  0  0  0  0  0  0  0  0  0  0
   25.1011  -22.8006   -6.8735 O   0  0  0  0  0  0  0  0  0  0  0  0
   23.7178  -21.4267   -8.0258 O   0  0  0  0  0  0  0  0  0  0  0  0
  2  3  1  1
  2  1  1  0
  4  2  1  0
  4  5  1  0
  5  7  1  0
  5  6  1  6
  7  8  2  0
  9 10  1  0
  9  7  1  0
 10 11  1  6
 11 12  1  0
 12 16  1  0
 13 12  2  0
 13 14  1  0
 14 15  1  0
 16 15  2  0
 17 18  2  0
 17 10  1  0
 20 22  1  0
 20 19  1  1
 21 20  1  0
 23 22  1  1
 23 25  1  0
 23 24  1  0
 24 17  1  0
 25 26  1  0
 27 25  2  0
M  END
$$$$
