LHL.pdb
     RDKit          3D

 27 27  0  0  1  0  0  0  0  0999 V2000
   20.8940  -17.8762  -14.7910 C   0  0  0  0  0  0  0  0  0  0  0  0
   22.2368  -17.9732  -15.5025 C   0  0  1  0  0  0  0  0  0  0  0  0
   22.7965  -16.5709  -15.6662 C   0  0  0  0  0  0  0  0  0  0  0  0
   23.1745  -18.9116  -14.8143 C   0  0  0  0  0  0  0  0  0  0  0  0
   24.5357  -18.9764  -15.4721 C   0  0  2  0  0  0  0  0  0  0  0  0
   24.4027  -19.4747  -16.8472 N   0  0  0  0  0  0  0  0  0  0  0  0
   25.4652  -19.8563  -14.7563 C   0  0  0  0  0  0  0  0  0  0  0  0
   25.1934  -21.0812  -14.6882 O   0  0  0  0  0  0  0  0  0  0  0  0
   26.6563  -19.4332  -14.1327 N   0  0  0  0  0  0  0  0  0  0  0  0
   27.5086  -20.3776  -13.3750 C   0  0  1  0  0  0  0  0  0  0  0  0
   28.9311  -20.1206  -13.7728 C   0  0  0  0  0  0  0  0  0  0  0  0
   29.8689  -20.9822  -13.0329 C   0  0  0  0  0  0  0  0  0  0  0  0
   30.4387  -20.6842  -11.7811 C   0  0  0  0  0  0  0  0  0  0  0  0
   31.2368  -21.6951  -11.4387 N   0  0  0  0  0  0  0  0  0  0  0  0
   31.2086  -22.6290  -12.4076 C   0  0  0  0  0  0  0  0  0  0  0  0
   30.3772  -22.1709  -13.3546 N   0  0  0  0  0  0  0  0  0  0  0  0
   27.2576  -20.1364  -11.9176 C   0  0  0  0  0  0  0  0  0  0  0  0
   28.0379  -19.4841  -11.1729 O   0  0  0  0  0  0  0  0  0  0  0  0
   27.4979  -20.9213   -7.2447 C   0  0  0  0  0  0  0  0  0  0  0  0
   26.4671  -19.8773   -7.6789 C   0  0  1  0  0  0  0  0  0  0  0  0
   26.8219  -18.5432   -7.0232 C   0  0  0  0  0  0  0  0  0  0  0  0
   26.5871  -19.7155   -9.1607 C   0  0  0  0  0  0  0  0  0  0  0  0
   25.9029  -20.8261   -9.8898 C   0  0  2  0  0  0  0  0  0  0  0  0
   26.0822  -20.6625  -11.3399 N   0  0  0  0  0  0  0  0  0  0  0  0
   24.4891  -20.9260   -9.5354 C   0  0  0  0  0  0  0  0  0  0  0  0
   23.9837  -21.5489   -8.4326 O   0  0  0  0  0  0  0  0  0  0  0  0
   23.6368  -20.3796  -10.3407 O   0  0  0  0  0  0  0  0  0  0  0  0
  2  3  1  1
  2  1  1  0
  4  2  1  0
  4  5  1  0
  5  7  1  0
  5  6  1  6
  7  8  2  0
  9 10  1  0
  9  7  1  0
 10 11  1  1
 11 12  1  0
 12 16  1  0
 13 12  2  0
 13 14  1  0
 14 15  1  0
 16 15  2  0
 17 18  2  0
 17 10  1  0
 20 22  1  0
 20 19  1  1
 21 20  1  0
 23 22  1  1
 23 25  1  0
 23 24  1  0
 24 17  1  0
 25 26  1  0
 27 25  2  0
M  END
$$$$
