LHL.pdb
     RDKit          3D

 27 27  0  0  1  0  0  0  0  0999 V2000
   27.9133  -18.7783  -18.4684 C   0  0  0  0  0  0  0  0  0  0  0  0
   27.9738  -19.8496  -17.3879 C   0  0  1  0  0  0  0  0  0  0  0  0
   29.4294  -20.2139  -17.1532 C   0  0  0  0  0  0  0  0  0  0  0  0
   27.2552  -19.4386  -16.1437 C   0  0  0  0  0  0  0  0  0  0  0  0
   27.4767  -20.3922  -14.9899 C   0  0  2  0  0  0  0  0  0  0  0  0
   27.0997  -21.7545  -15.3884 N   0  0  0  0  0  0  0  0  0  0  0  0
   26.6939  -20.0312  -13.8034 C   0  0  0  0  0  0  0  0  0  0  0  0
   26.7370  -18.8419  -13.4003 O   0  0  0  0  0  0  0  0  0  0  0  0
   25.8841  -20.9225  -13.0709 N   0  0  0  0  0  0  0  0  0  0  0  0
   25.0531  -20.4566  -11.9375 C   0  0  1  0  0  0  0  0  0  0  0  0
   23.6566  -20.9507  -12.1687 C   0  0  0  0  0  0  0  0  0  0  0  0
   22.9875  -20.2092  -13.2511 C   0  0  0  0  0  0  0  0  0  0  0  0
   23.5437  -19.1361  -13.9720 C   0  0  0  0  0  0  0  0  0  0  0  0
   22.6403  -18.7215  -14.8597 N   0  0  0  0  0  0  0  0  0  0  0  0
   21.5305  -19.4747  -14.7464 C   0  0  0  0  0  0  0  0  0  0  0  0
   21.7693  -20.3610  -13.7689 N   0  0  0  0  0  0  0  0  0  0  0  0
   25.6638  -21.0001  -10.6818 C   0  0  0  0  0  0  0  0  0  0  0  0
   26.2190  -22.1293  -10.6069 O   0  0  0  0  0  0  0  0  0  0  0  0
   28.1842  -18.2605   -6.6535 C   0  0  0  0  0  0  0  0  0  0  0  0
   27.7108  -19.3322   -7.6375 C   0  0  1  0  0  0  0  0  0  0  0  0
   28.6161  -20.5553   -7.4953 C   0  0  0  0  0  0  0  0  0  0  0  0
   26.3250  -19.7286   -7.2389 C   0  0  0  0  0  0  0  0  0  0  0  0
   25.7653  -20.7632   -8.1605 C   0  0  2  0  0  0  0  0  0  0  0  0
   25.6225  -20.2078   -9.5144 N   0  0  0  0  0  0  0  0  0  0  0  0
   24.5008  -21.3073   -7.6715 C   0  0  0  0  0  0  0  0  0  0  0  0
   24.3476  -22.1281   -6.5933 O   0  0  0  0  0  0  0  0  0  0  0  0
   23.4282  -20.9875   -8.3203 O   0  0  0  0  0  0  0  0  0  0  0  0
  2  3  1  1
  2  1  1  0
  4  2  1  0
  4  5  1  0
  5  7  1  0
  5  6  1  6
  7  8  2  0
  9 10  1  0
  9  7  1  0
 10 11  1  6
 11 12  1  0
 12 16  1  0
 13 12  2  0
 13 14  1  0
 14 15  1  0
 16 15  2  0
 17 18  2  0
 17 10  1  0
 20 22  1  0
 20 19  1  1
 21 20  1  0
 23 22  1  1
 23 25  1  0
 23 24  1  0
 24 17  1  0
 25 26  1  0
 27 25  2  0
M  END
$$$$
