LHL.pdb
     RDKit          3D

 27 27  0  0  1  0  0  0  0  0999 V2000
   18.1744  -13.3772    2.7554 C   0  0  0  0  0  0  0  0  0  0  0  0
   17.7196  -14.8231    2.6091 C   0  0  1  0  0  0  0  0  0  0  0  0
   18.8205  -15.6054    1.9143 C   0  0  0  0  0  0  0  0  0  0  0  0
   17.2993  -15.4181    3.9139 C   0  0  0  0  0  0  0  0  0  0  0  0
   17.2636  -16.9307    3.8905 C   0  0  2  0  0  0  0  0  0  0  0  0
   15.9872  -17.3915    3.3290 N   0  0  0  0  0  0  0  0  0  0  0  0
   17.4125  -17.5178    5.2261 C   0  0  0  0  0  0  0  0  0  0  0  0
   17.5754  -16.7438    6.2024 O   0  0  0  0  0  0  0  0  0  0  0  0
   17.3842  -18.8988    5.5067 N   0  0  0  0  0  0  0  0  0  0  0  0
   17.5270  -19.4087    6.8894 C   0  0  1  0  0  0  0  0  0  0  0  0
   16.8638  -20.7521    6.9459 C   0  0  0  0  0  0  0  0  0  0  0  0
   15.3999  -20.6338    7.0561 C   0  0  0  0  0  0  0  0  0  0  0  0
   14.6788  -19.4263    7.1051 C   0  0  0  0  0  0  0  0  0  0  0  0
   13.3837  -19.7218    7.2118 N   0  0  0  0  0  0  0  0  0  0  0  0
   13.2354  -21.0595    7.2335 C   0  0  0  0  0  0  0  0  0  0  0  0
   14.4669  -21.5813    7.1393 N   0  0  0  0  0  0  0  0  0  0  0  0
   18.9927  -19.4682    7.1952 C   0  0  0  0  0  0  0  0  0  0  0  0
   19.8594  -19.8892    6.3824 O   0  0  0  0  0  0  0  0  0  0  0  0
   23.5017  -16.4118    9.0175 C   0  0  0  0  0  0  0  0  0  0  0  0
   22.8776  -17.7742    9.3263 C   0  0  1  0  0  0  0  0  0  0  0  0
   22.8380  -17.9570   10.8432 C   0  0  0  0  0  0  0  0  0  0  0  0
   21.4698  -17.7490    8.8225 C   0  0  0  0  0  0  0  0  0  0  0  0
   20.8395  -19.1021    8.8917 C   0  0  2  0  0  0  0  0  0  0  0  0
   19.4359  -19.0267    8.4604 N   0  0  0  0  0  0  0  0  0  0  0  0
   20.9572  -19.6949   10.2218 C   0  0  0  0  0  0  0  0  0  0  0  0
   20.2341  -19.3395   11.3220 O   0  0  0  0  0  0  0  0  0  0  0  0
   21.8284  -20.6390   10.3743 O   0  0  0  0  0  0  0  0  0  0  0  0
  2  3  1  1
  2  1  1  0
  4  2  1  0
  4  5  1  0
  5  7  1  0
  5  6  1  1
  7  8  2  0
  9 10  1  0
  9  7  1  0
 10 11  1  6
 11 12  1  0
 12 16  1  0
 13 12  2  0
 13 14  1  0
 14 15  1  0
 16 15  2  0
 17 18  2  0
 17 10  1  0
 20 22  1  0
 20 19  1  1
 21 20  1  0
 23 22  1  1
 23 25  1  0
 23 24  1  0
 24 17  1  0
 25 26  1  0
 27 25  2  0
M  END
$$$$
