DFD.pdb
     RDKit          3D

 28 28  0  0  1  0  0  0  0  0999 V2000
   27.0523  -33.7754   -9.0123 N   0  0  0  0  0  0  0  0  0  0  0  0
   27.1317  -33.3673   -7.6510 C   0  0  1  0  0  0  0  0  0  0  0  0
   25.8849  -33.5569   -6.8368 C   0  0  0  0  0  0  0  0  0  0  0  0
   24.6636  -33.0567   -7.4982 C   0  0  0  0  0  0  0  0  0  0  0  0
   24.6713  -32.6630   -8.6722 O   0  0  0  0  0  0  0  0  0  0  0  0
   28.3241  -33.8705   -6.9171 C   0  0  0  0  0  0  0  0  0  0  0  0
   29.0509  -34.7108   -7.4974 O   0  0  0  0  0  0  0  0  0  0  0  0
   23.4684  -33.0250   -6.7874 O   0  0  0  0  0  0  0  0  0  0  0  0
   28.6959  -33.4766   -5.6250 N   0  0  0  0  0  0  0  0  0  0  0  0
   29.8979  -34.0010   -4.9877 C   0  0  1  0  0  0  0  0  0  0  0  0
   30.8300  -32.8631   -4.7965 C   0  0  0  0  0  0  0  0  0  0  0  0
   31.6119  -32.4913   -6.0001 C   0  0  0  0  0  0  0  0  0  0  0  0
   32.7589  -33.2016   -6.3446 C   0  0  0  0  0  0  0  0  0  0  0  0
   33.4898  -32.8703   -7.4661 C   0  0  0  0  0  0  0  0  0  0  0  0
   33.0521  -31.8133   -8.2390 C   0  0  0  0  0  0  0  0  0  0  0  0
   31.9067  -31.0897   -7.9118 C   0  0  0  0  0  0  0  0  0  0  0  0
   31.1890  -31.4437   -6.7776 C   0  0  0  0  0  0  0  0  0  0  0  0
   29.5833  -34.7945   -3.7889 C   0  0  0  0  0  0  0  0  0  0  0  0
   28.5513  -34.4334   -3.1270 O   0  0  0  0  0  0  0  0  0  0  0  0
   30.3387  -35.8943   -3.3492 N   0  0  0  0  0  0  0  0  0  0  0  0
   29.9769  -36.5463   -2.0854 C   0  0  1  0  0  0  0  0  0  0  0  0
   30.7163  -37.8416   -1.9314 C   0  0  0  0  0  0  0  0  0  0  0  0
   29.9719  -38.9451   -2.5461 C   0  0  0  0  0  0  0  0  0  0  0  0
   28.8581  -38.8199   -3.0945 O   0  0  0  0  0  0  0  0  0  0  0  0
   30.4238  -35.6387   -0.9796 C   0  0  0  0  0  0  0  0  0  0  0  0
   31.0365  -34.6035   -1.1905 O   0  0  0  0  0  0  0  0  0  0  0  0
   30.5271  -40.2225   -2.5249 O   0  0  0  0  0  0  0  0  0  0  0  0
   30.1220  -36.0020    0.3200 O   0  0  0  0  0  0  0  0  0  0  0  0
  2  1  1  6
  2  6  1  0
  3  2  1  0
  4  3  1  0
  5  4  2  0
  6  7  2  0
  6  9  1  0
  8  4  1  0
  9 10  1  0
 10 11  1  1
 11 12  1  0
 12 13  2  0
 12 17  1  0
 13 14  1  0
 14 15  2  0
 16 15  1  0
 17 16  2  0
 18 20  1  0
 18 10  1  0
 19 18  2  0
 21 20  1  0
 21 25  1  0
 22 23  1  0
 21 22  1  1
 23 24  2  0
 25 28  1  0
 26 25  2  0
 27 23  1  0
M  END
$$$$
