DFD.pdb
     RDKit          3D

 28 28  0  0  1  0  0  0  0  0999 V2000
   17.5800  -13.3659  -16.2533 N   0  0  0  0  0  0  0  0  0  0  0  0
   17.3902  -12.0643  -16.7972 C   0  0  1  0  0  0  0  0  0  0  0  0
   16.0259  -11.7804  -17.3553 C   0  0  0  0  0  0  0  0  0  0  0  0
   15.5708  -12.7779  -18.3439 C   0  0  0  0  0  0  0  0  0  0  0  0
   14.5597  -13.4679  -18.1572 O   0  0  0  0  0  0  0  0  0  0  0  0
   17.8463  -10.9500  -15.9232 C   0  0  0  0  0  0  0  0  0  0  0  0
   17.2021  -10.7383  -14.8689 O   0  0  0  0  0  0  0  0  0  0  0  0
   16.2940  -12.9511  -19.5193 O   0  0  0  0  0  0  0  0  0  0  0  0
   18.9416  -10.1182  -16.1898 N   0  0  0  0  0  0  0  0  0  0  0  0
   19.2662   -8.9897  -15.3255 C   0  0  1  0  0  0  0  0  0  0  0  0
   20.7305   -9.0189  -15.0904 C   0  0  0  0  0  0  0  0  0  0  0  0
   21.2720   -7.8270  -14.3943 C   0  0  0  0  0  0  0  0  0  0  0  0
   21.8438   -6.7847  -15.1192 C   0  0  0  0  0  0  0  0  0  0  0  0
   22.3434   -5.6675  -14.4836 C   0  0  0  0  0  0  0  0  0  0  0  0
   22.2608   -5.6111  -13.1065 C   0  0  0  0  0  0  0  0  0  0  0  0
   21.6921   -6.6433  -12.3625 C   0  0  0  0  0  0  0  0  0  0  0  0
   21.1966   -7.7569  -13.0267 C   0  0  0  0  0  0  0  0  0  0  0  0
   18.7137   -7.7263  -15.8396 C   0  0  0  0  0  0  0  0  0  0  0  0
   18.8601   -7.5134  -17.0913 O   0  0  0  0  0  0  0  0  0  0  0  0
   18.0548   -6.7719  -15.0469 N   0  0  0  0  0  0  0  0  0  0  0  0
   17.6265   -5.5100  -15.6612 C   0  0  1  0  0  0  0  0  0  0  0  0
   16.3080   -5.0717  -15.0976 C   0  0  0  0  0  0  0  0  0  0  0  0
   15.9040   -3.7781  -15.6573 C   0  0  0  0  0  0  0  0  0  0  0  0
   15.3773   -2.8613  -14.9948 O   0  0  0  0  0  0  0  0  0  0  0  0
   18.6425   -4.4732  -15.2881 C   0  0  0  0  0  0  0  0  0  0  0  0
   19.3374   -4.5685  -14.2883 O   0  0  0  0  0  0  0  0  0  0  0  0
   16.1125   -3.5397  -17.0139 O   0  0  0  0  0  0  0  0  0  0  0  0
   18.7850   -3.3763  -16.1179 O   0  0  0  0  0  0  0  0  0  0  0  0
  2  1  1  1
  2  6  1  0
  3  2  1  0
  4  3  1  0
  5  4  2  0
  6  7  2  0
  6  9  1  0
  8  4  1  0
  9 10  1  0
 10 11  1  6
 11 12  1  0
 12 13  2  0
 12 17  1  0
 13 14  1  0
 14 15  2  0
 16 15  1  0
 17 16  2  0
 18 20  1  0
 18 10  1  0
 19 18  2  0
 21 20  1  0
 21 25  1  0
 22 23  1  0
 21 22  1  1
 23 24  2  0
 25 28  1  0
 26 25  2  0
 27 23  1  0
M  END
$$$$
