DFD.pdb
     RDKit          3D

 28 28  0  0  1  0  0  0  0  0999 V2000
   27.3670  -19.0863  -17.8066 N   0  0  0  0  0  0  0  0  0  0  0  0
   27.4578  -20.4926  -17.6070 C   0  0  1  0  0  0  0  0  0  0  0  0
   28.8075  -21.1028  -17.8501 C   0  0  0  0  0  0  0  0  0  0  0  0
   29.4452  -20.6507  -19.1026 C   0  0  0  0  0  0  0  0  0  0  0  0
   29.9479  -19.5242  -19.2097 O   0  0  0  0  0  0  0  0  0  0  0  0
   26.8806  -20.9797  -16.3250 C   0  0  0  0  0  0  0  0  0  0  0  0
   26.7071  -22.2146  -16.1988 O   0  0  0  0  0  0  0  0  0  0  0  0
   29.4853  -21.5104  -20.1952 O   0  0  0  0  0  0  0  0  0  0  0  0
   26.5152  -20.1618  -15.2479 N   0  0  0  0  0  0  0  0  0  0  0  0
   25.8474  -20.7077  -14.0723 C   0  0  1  0  0  0  0  0  0  0  0  0
   26.5453  -20.1724  -12.8780 C   0  0  0  0  0  0  0  0  0  0  0  0
   25.8859  -20.4756  -11.5850 C   0  0  0  0  0  0  0  0  0  0  0  0
   26.2764  -21.5820  -10.8352 C   0  0  0  0  0  0  0  0  0  0  0  0
   25.6762  -21.8695   -9.6274 C   0  0  0  0  0  0  0  0  0  0  0  0
   24.6759  -21.0286   -9.1816 C   0  0  0  0  0  0  0  0  0  0  0  0
   24.2705  -19.9160   -9.9167 C   0  0  0  0  0  0  0  0  0  0  0  0
   24.8909  -19.6490  -11.1294 C   0  0  0  0  0  0  0  0  0  0  0  0
   24.3908  -20.5030  -14.1225 C   0  0  0  0  0  0  0  0  0  0  0  0
   23.9942  -19.2952  -14.2543 O   0  0  0  0  0  0  0  0  0  0  0  0
   23.4444  -21.5374  -14.0341 N   0  0  0  0  0  0  0  0  0  0  0  0
   22.0170  -21.1976  -14.0338 C   0  0  1  0  0  0  0  0  0  0  0  0
   21.4689  -21.2281  -15.4291 C   0  0  0  0  0  0  0  0  0  0  0  0
   20.0285  -20.9539  -15.4314 C   0  0  0  0  0  0  0  0  0  0  0  0
   19.4663  -20.1518  -14.6585 O   0  0  0  0  0  0  0  0  0  0  0  0
   21.3123  -22.2631  -13.2500 C   0  0  0  0  0  0  0  0  0  0  0  0
   21.7262  -23.4103  -13.1869 O   0  0  0  0  0  0  0  0  0  0  0  0
   19.2198  -21.6234  -16.3469 O   0  0  0  0  0  0  0  0  0  0  0  0
   20.1536  -21.9164  -12.5797 O   0  0  0  0  0  0  0  0  0  0  0  0
  2  1  1  1
  2  6  1  0
  3  2  1  0
  4  3  1  0
  5  4  2  0
  6  7  2  0
  6  9  1  0
  8  4  1  0
  9 10  1  0
 10 11  1  1
 11 12  1  0
 12 13  2  0
 12 17  1  0
 13 14  1  0
 14 15  2  0
 16 15  1  0
 17 16  2  0
 18 20  1  0
 18 10  1  0
 19 18  2  0
 21 20  1  0
 21 25  1  0
 22 23  1  0
 21 22  1  6
 23 24  2  0
 25 28  1  0
 26 25  2  0
 27 23  1  0
M  END
$$$$
