DFD.pdb
     RDKit          3D

 28 28  0  0  1  0  0  0  0  0999 V2000
   19.0691  -19.9012  -12.0577 N   0  0  0  0  0  0  0  0  0  0  0  0
   19.8702  -20.8127  -12.8014 C   0  0  1  0  0  0  0  0  0  0  0  0
   19.1643  -21.5667  -13.8907 C   0  0  0  0  0  0  0  0  0  0  0  0
   17.9870  -22.3232  -13.4206 C   0  0  0  0  0  0  0  0  0  0  0  0
   16.8318  -21.9624  -13.6826 O   0  0  0  0  0  0  0  0  0  0  0  0
   21.1579  -20.2537  -13.2942 C   0  0  0  0  0  0  0  0  0  0  0  0
   21.1558  -19.0715  -13.7109 O   0  0  0  0  0  0  0  0  0  0  0  0
   18.1751  -23.4740  -12.6625 O   0  0  0  0  0  0  0  0  0  0  0  0
   22.3735  -20.9493  -13.3286 N   0  0  0  0  0  0  0  0  0  0  0  0
   23.5901  -20.3274  -13.8376 C   0  0  1  0  0  0  0  0  0  0  0  0
   24.7360  -20.9598  -13.1397 C   0  0  0  0  0  0  0  0  0  0  0  0
   26.0701  -20.5690  -13.6554 C   0  0  0  0  0  0  0  0  0  0  0  0
   26.5781  -19.2964  -13.4080 C   0  0  0  0  0  0  0  0  0  0  0  0
   27.8210  -18.9243  -13.8754 C   0  0  0  0  0  0  0  0  0  0  0  0
   28.5487  -19.8498  -14.5966 C   0  0  0  0  0  0  0  0  0  0  0  0
   28.0585  -21.1287  -14.8549 C   0  0  0  0  0  0  0  0  0  0  0  0
   26.8045  -21.4781  -14.3731 C   0  0  0  0  0  0  0  0  0  0  0  0
   23.6379  -20.3350  -15.3085 C   0  0  0  0  0  0  0  0  0  0  0  0
   23.2003  -21.3897  -15.8826 O   0  0  0  0  0  0  0  0  0  0  0  0
   24.1267  -19.2737  -16.0883 N   0  0  0  0  0  0  0  0  0  0  0  0
   24.1728  -19.4250  -17.5471 C   0  0  1  0  0  0  0  0  0  0  0  0
   23.5599  -18.2330  -18.2191 C   0  0  0  0  0  0  0  0  0  0  0  0
   23.5464  -18.4030  -19.6753 C   0  0  0  0  0  0  0  0  0  0  0  0
   24.0194  -19.3926  -20.2702 O   0  0  0  0  0  0  0  0  0  0  0  0
   25.6189  -19.4683  -17.9384 C   0  0  0  0  0  0  0  0  0  0  0  0
   26.3372  -18.4815  -17.8977 O   0  0  0  0  0  0  0  0  0  0  0  0
   22.9743  -17.4055  -20.4617 O   0  0  0  0  0  0  0  0  0  0  0  0
   26.1418  -20.6778  -18.3574 O   0  0  0  0  0  0  0  0  0  0  0  0
  2  1  1  6
  2  6  1  0
  3  2  1  0
  4  3  1  0
  5  4  2  0
  6  7  2  0
  6  9  1  0
  8  4  1  0
  9 10  1  0
 10 11  1  1
 11 12  1  0
 12 13  2  0
 12 17  1  0
 13 14  1  0
 14 15  2  0
 16 15  1  0
 17 16  2  0
 18 20  1  0
 18 10  1  0
 19 18  2  0
 21 20  1  0
 21 25  1  0
 22 23  1  0
 21 22  1  6
 23 24  2  0
 25 28  1  0
 26 25  2  0
 27 23  1  0
M  END
$$$$
