DFD.pdb
     RDKit          3D

 28 28  0  0  1  0  0  0  0  0999 V2000
   27.9629  -22.6741  -17.5084 N   0  0  0  0  0  0  0  0  0  0  0  0
   27.2448  -21.5445  -17.0247 C   0  0  1  0  0  0  0  0  0  0  0  0
   26.3605  -20.8545  -18.0224 C   0  0  0  0  0  0  0  0  0  0  0  0
   27.0752  -20.3948  -19.2295 C   0  0  0  0  0  0  0  0  0  0  0  0
   27.9258  -19.4962  -19.1823 O   0  0  0  0  0  0  0  0  0  0  0  0
   26.5232  -21.7657  -15.7426 C   0  0  0  0  0  0  0  0  0  0  0  0
   25.9334  -22.8612  -15.5901 O   0  0  0  0  0  0  0  0  0  0  0  0
   26.7892  -20.9846  -20.4563 O   0  0  0  0  0  0  0  0  0  0  0  0
   26.4523  -20.8413  -14.6922 N   0  0  0  0  0  0  0  0  0  0  0  0
   25.6988  -21.1287  -13.4774 C   0  0  1  0  0  0  0  0  0  0  0  0
   26.3939  -20.4526  -12.3550 C   0  0  0  0  0  0  0  0  0  0  0  0
   25.7144  -20.5700  -11.0423 C   0  0  0  0  0  0  0  0  0  0  0  0
   24.3718  -20.2257  -10.9086 C   0  0  0  0  0  0  0  0  0  0  0  0
   23.7270  -20.3383   -9.6948 C   0  0  0  0  0  0  0  0  0  0  0  0
   24.4505  -20.8026   -8.6144 C   0  0  0  0  0  0  0  0  0  0  0  0
   25.7948  -21.1527   -8.7272 C   0  0  0  0  0  0  0  0  0  0  0  0
   26.4203  -21.0300   -9.9603 C   0  0  0  0  0  0  0  0  0  0  0  0
   24.2669  -20.8268  -13.6340 C   0  0  0  0  0  0  0  0  0  0  0  0
   23.9817  -19.6942  -14.1529 O   0  0  0  0  0  0  0  0  0  0  0  0
   23.2305  -21.6948  -13.2519 N   0  0  0  0  0  0  0  0  0  0  0  0
   21.8453  -21.3344  -13.5751 C   0  0  1  0  0  0  0  0  0  0  0  0
   21.0595  -22.5539  -13.9540 C   0  0  0  0  0  0  0  0  0  0  0  0
   19.6651  -22.2076  -14.2464 C   0  0  0  0  0  0  0  0  0  0  0  0
   18.7259  -22.3353  -13.4348 O   0  0  0  0  0  0  0  0  0  0  0  0
   21.2343  -20.7755  -12.3259 C   0  0  0  0  0  0  0  0  0  0  0  0
   21.5941  -21.1203  -11.2110 O   0  0  0  0  0  0  0  0  0  0  0  0
   19.3491  -21.7037  -15.5060 O   0  0  0  0  0  0  0  0  0  0  0  0
   20.2287  -19.8358  -12.4597 O   0  0  0  0  0  0  0  0  0  0  0  0
  2  1  1  6
  2  6  1  0
  3  2  1  0
  4  3  1  0
  5  4  2  0
  6  7  2  0
  6  9  1  0
  8  4  1  0
  9 10  1  0
 10 11  1  1
 11 12  1  0
 12 13  2  0
 12 17  1  0
 13 14  1  0
 14 15  2  0
 16 15  1  0
 17 16  2  0
 18 20  1  0
 18 10  1  0
 19 18  2  0
 21 20  1  0
 21 25  1  0
 22 23  1  0
 21 22  1  1
 23 24  2  0
 25 28  1  0
 26 25  2  0
 27 23  1  0
M  END
$$$$
