DFD.pdb
     RDKit          3D

 28 28  0  0  1  0  0  0  0  0999 V2000
   27.9501  -21.3801  -18.5561 N   0  0  0  0  0  0  0  0  0  0  0  0
   27.5754  -20.3421  -17.6572 C   0  0  1  0  0  0  0  0  0  0  0  0
   26.7881  -19.2117  -18.2537 C   0  0  0  0  0  0  0  0  0  0  0  0
   27.4480  -18.5763  -19.4114 C   0  0  0  0  0  0  0  0  0  0  0  0
   26.9219  -18.5549  -20.5321 O   0  0  0  0  0  0  0  0  0  0  0  0
   26.9524  -20.8090  -16.3893 C   0  0  0  0  0  0  0  0  0  0  0  0
   26.2062  -21.8146  -16.4452 O   0  0  0  0  0  0  0  0  0  0  0  0
   28.6950  -17.9834  -19.2437 O   0  0  0  0  0  0  0  0  0  0  0  0
   27.1362  -20.2089  -15.1368 N   0  0  0  0  0  0  0  0  0  0  0  0
   26.4045  -20.6659  -13.9612 C   0  0  1  0  0  0  0  0  0  0  0  0
   27.1857  -20.2591  -12.7677 C   0  0  0  0  0  0  0  0  0  0  0  0
   26.5030  -20.4860  -11.4712 C   0  0  0  0  0  0  0  0  0  0  0  0
   25.9822  -19.4147  -10.7501 C   0  0  0  0  0  0  0  0  0  0  0  0
   25.3380  -19.6141   -9.5472 C   0  0  0  0  0  0  0  0  0  0  0  0
   25.2237  -20.9072   -9.0770 C   0  0  0  0  0  0  0  0  0  0  0  0
   25.7377  -21.9932   -9.7835 C   0  0  0  0  0  0  0  0  0  0  0  0
   26.3817  -21.7651  -10.9918 C   0  0  0  0  0  0  0  0  0  0  0  0
   24.9949  -20.2442  -13.9924 C   0  0  0  0  0  0  0  0  0  0  0  0
   24.7757  -19.0293  -14.3235 O   0  0  0  0  0  0  0  0  0  0  0  0
   23.9121  -21.0847  -13.6846 N   0  0  0  0  0  0  0  0  0  0  0  0
   22.5513  -20.5379  -13.7316 C   0  0  1  0  0  0  0  0  0  0  0  0
   21.6705  -21.3931  -14.5924 C   0  0  0  0  0  0  0  0  0  0  0  0
   20.3001  -20.8725  -14.6185 C   0  0  0  0  0  0  0  0  0  0  0  0
   19.9333  -19.8340  -14.0320 O   0  0  0  0  0  0  0  0  0  0  0  0
   22.0076  -20.5934  -12.3361 C   0  0  0  0  0  0  0  0  0  0  0  0
   21.0553  -19.9179  -11.9779 O   0  0  0  0  0  0  0  0  0  0  0  0
   19.3315  -21.5691  -15.3376 O   0  0  0  0  0  0  0  0  0  0  0  0
   22.6181  -21.4465  -11.4353 O   0  0  0  0  0  0  0  0  0  0  0  0
  2  1  1  6
  2  6  1  0
  3  2  1  0
  4  3  1  0
  5  4  2  0
  6  7  2  0
  6  9  1  0
  8  4  1  0
  9 10  1  0
 10 11  1  1
 11 12  1  0
 12 13  2  0
 12 17  1  0
 13 14  1  0
 14 15  2  0
 16 15  1  0
 17 16  2  0
 18 20  1  0
 18 10  1  0
 19 18  2  0
 21 20  1  0
 21 25  1  0
 22 23  1  0
 21 22  1  6
 23 24  2  0
 25 28  1  0
 26 25  2  0
 27 23  1  0
M  END
$$$$
