DFD.pdb
     RDKit          3D

 28 28  0  0  1  0  0  0  0  0999 V2000
   22.0395   -9.2678  -19.1383 N   0  0  0  0  0  0  0  0  0  0  0  0
   21.5984   -7.9147  -19.1186 C   0  0  1  0  0  0  0  0  0  0  0  0
   20.5405   -7.5562  -20.1214 C   0  0  0  0  0  0  0  0  0  0  0  0
   20.9257   -7.8433  -21.5173 C   0  0  0  0  0  0  0  0  0  0  0  0
   22.0709   -7.6280  -21.9362 O   0  0  0  0  0  0  0  0  0  0  0  0
   21.2479   -7.3919  -17.7704 C   0  0  0  0  0  0  0  0  0  0  0  0
   20.3129   -7.9555  -17.1546 O   0  0  0  0  0  0  0  0  0  0  0  0
   19.9799   -8.3707  -22.3902 O   0  0  0  0  0  0  0  0  0  0  0  0
   21.8836   -6.3161  -17.1370 N   0  0  0  0  0  0  0  0  0  0  0  0
   21.5406   -5.9269  -15.7744 C   0  0  1  0  0  0  0  0  0  0  0  0
   22.7918   -5.9529  -14.9782 C   0  0  0  0  0  0  0  0  0  0  0  0
   23.3538   -7.3054  -14.7479 C   0  0  0  0  0  0  0  0  0  0  0  0
   22.8206   -8.1339  -13.7640 C   0  0  0  0  0  0  0  0  0  0  0  0
   23.3296   -9.3969  -13.5461 C   0  0  0  0  0  0  0  0  0  0  0  0
   24.3841   -9.8178  -14.3317 C   0  0  0  0  0  0  0  0  0  0  0  0
   24.9321   -9.0042  -15.3218 C   0  0  0  0  0  0  0  0  0  0  0  0
   24.4013   -7.7371  -15.5209 C   0  0  0  0  0  0  0  0  0  0  0  0
   20.7705   -4.6732  -15.7378 C   0  0  0  0  0  0  0  0  0  0  0  0
   21.4513   -3.5915  -15.7451 O   0  0  0  0  0  0  0  0  0  0  0  0
   19.3678   -4.6090  -15.6953 N   0  0  0  0  0  0  0  0  0  0  0  0
   18.7138   -3.2965  -15.7480 C   0  0  1  0  0  0  0  0  0  0  0  0
   17.6334   -3.2887  -16.7876 C   0  0  0  0  0  0  0  0  0  0  0  0
   18.1941   -3.0612  -18.1231 C   0  0  0  0  0  0  0  0  0  0  0  0
   19.1262   -2.2682  -18.3664 O   0  0  0  0  0  0  0  0  0  0  0  0
   18.0598   -3.0783  -14.4173 C   0  0  0  0  0  0  0  0  0  0  0  0
   17.5751   -2.0047  -14.0950 O   0  0  0  0  0  0  0  0  0  0  0  0
   17.6641   -3.7654  -19.2018 O   0  0  0  0  0  0  0  0  0  0  0  0
   18.0116   -4.1425  -13.5357 O   0  0  0  0  0  0  0  0  0  0  0  0
  2  1  1  1
  2  6  1  0
  3  2  1  0
  4  3  1  0
  5  4  2  0
  6  7  2  0
  6  9  1  0
  8  4  1  0
  9 10  1  0
 10 11  1  1
 11 12  1  0
 12 13  2  0
 12 17  1  0
 13 14  1  0
 14 15  2  0
 16 15  1  0
 17 16  2  0
 18 20  1  0
 18 10  1  0
 19 18  2  0
 21 20  1  0
 21 25  1  0
 22 23  1  0
 21 22  1  6
 23 24  2  0
 25 28  1  0
 26 25  2  0
 27 23  1  0
M  END
$$$$
