DFD.pdb
     RDKit          3D

 28 28  0  0  1  0  0  0  0  0999 V2000
   20.0039  -19.6440  -13.7052 N   0  0  0  0  0  0  0  0  0  0  0  0
   20.8340  -20.6471  -13.1303 C   0  0  1  0  0  0  0  0  0  0  0  0
   20.4279  -22.0668  -13.4002 C   0  0  0  0  0  0  0  0  0  0  0  0
   19.0753  -22.3995  -12.9108 C   0  0  0  0  0  0  0  0  0  0  0  0
   18.1431  -22.6486  -13.6869 O   0  0  0  0  0  0  0  0  0  0  0  0
   22.2915  -20.4606  -13.3639 C   0  0  0  0  0  0  0  0  0  0  0  0
   22.6514  -20.0627  -14.4967 O   0  0  0  0  0  0  0  0  0  0  0  0
   18.8364  -22.4357  -11.5411 O   0  0  0  0  0  0  0  0  0  0  0  0
   23.2929  -20.6970  -12.4131 N   0  0  0  0  0  0  0  0  0  0  0  0
   24.7050  -20.5491  -12.7448 C   0  0  1  0  0  0  0  0  0  0  0  0
   25.4723  -20.6779  -11.4819 C   0  0  0  0  0  0  0  0  0  0  0  0
   26.9457  -20.6405  -11.6435 C   0  0  0  0  0  0  0  0  0  0  0  0
   27.7586  -21.5026  -10.9122 C   0  0  0  0  0  0  0  0  0  0  0  0
   29.1296  -21.4827  -11.0599 C   0  0  0  0  0  0  0  0  0  0  0  0
   29.6746  -20.5830  -11.9542 C   0  0  0  0  0  0  0  0  0  0  0  0
   28.8785  -19.7119  -12.6959 C   0  0  0  0  0  0  0  0  0  0  0  0
   27.5012  -19.7522  -12.5284 C   0  0  0  0  0  0  0  0  0  0  0  0
   25.1075  -21.4389  -13.8458 C   0  0  0  0  0  0  0  0  0  0  0  0
   24.9766  -22.6927  -13.6356 O   0  0  0  0  0  0  0  0  0  0  0  0
   25.6139  -20.9919  -15.0775 N   0  0  0  0  0  0  0  0  0  0  0  0
   26.0868  -21.9805  -16.0533 C   0  0  1  0  0  0  0  0  0  0  0  0
   25.2499  -21.9341  -17.2966 C   0  0  0  0  0  0  0  0  0  0  0  0
   25.7856  -22.8352  -18.3216 C   0  0  0  0  0  0  0  0  0  0  0  0
   26.3677  -23.9109  -18.0746 O   0  0  0  0  0  0  0  0  0  0  0  0
   27.4819  -21.5880  -16.4350 C   0  0  0  0  0  0  0  0  0  0  0  0
   27.8998  -20.4480  -16.3033 O   0  0  0  0  0  0  0  0  0  0  0  0
   25.6464  -22.4841  -19.6624 O   0  0  0  0  0  0  0  0  0  0  0  0
   28.3123  -22.5651  -16.9525 O   0  0  0  0  0  0  0  0  0  0  0  0
  2  1  1  6
  2  6  1  0
  3  2  1  0
  4  3  1  0
  5  4  2  0
  6  7  2  0
  6  9  1  0
  8  4  1  0
  9 10  1  0
 10 11  1  1
 11 12  1  0
 12 13  2  0
 12 17  1  0
 13 14  1  0
 14 15  2  0
 16 15  1  0
 17 16  2  0
 18 20  1  0
 18 10  1  0
 19 18  2  0
 21 20  1  0
 21 25  1  0
 22 23  1  0
 21 22  1  6
 23 24  2  0
 25 28  1  0
 26 25  2  0
 27 23  1  0
M  END
$$$$
