DFD.pdb
     RDKit          3D

 28 28  0  0  1  0  0  0  0  0999 V2000
   19.9383  -10.5235  -17.1489 N   0  0  0  0  0  0  0  0  0  0  0  0
   20.1108   -9.1495  -17.4779 C   0  0  1  0  0  0  0  0  0  0  0  0
   19.2897   -8.6435  -18.6282 C   0  0  0  0  0  0  0  0  0  0  0  0
   19.4547   -9.4314  -19.8657 C   0  0  0  0  0  0  0  0  0  0  0  0
   20.5516   -9.8975  -20.2017 O   0  0  0  0  0  0  0  0  0  0  0  0
   20.0329   -8.2163  -16.3218 C   0  0  0  0  0  0  0  0  0  0  0  0
   19.1492   -8.4329  -15.4596 O   0  0  0  0  0  0  0  0  0  0  0  0
   18.3505   -9.6597  -20.6801 O   0  0  0  0  0  0  0  0  0  0  0  0
   20.8725   -7.1123  -16.1241 N   0  0  0  0  0  0  0  0  0  0  0  0
   20.7127   -6.2337  -14.9715 C   0  0  1  0  0  0  0  0  0  0  0  0
   21.9668   -6.3057  -14.1826 C   0  0  0  0  0  0  0  0  0  0  0  0
   22.1845   -7.5918  -13.4777 C   0  0  0  0  0  0  0  0  0  0  0  0
   21.4993   -7.8763  -12.2993 C   0  0  0  0  0  0  0  0  0  0  0  0
   21.6874   -9.0724  -11.6392 C   0  0  0  0  0  0  0  0  0  0  0  0
   22.5751   -9.9813  -12.1798 C   0  0  0  0  0  0  0  0  0  0  0  0
   23.2705   -9.7160  -13.3582 C   0  0  0  0  0  0  0  0  0  0  0  0
   23.0630   -8.5045  -14.0031 C   0  0  0  0  0  0  0  0  0  0  0  0
   20.2659   -4.8875  -15.3639 C   0  0  0  0  0  0  0  0  0  0  0  0
   21.0382   -4.2432  -16.1525 O   0  0  0  0  0  0  0  0  0  0  0  0
   19.0700   -4.2937  -14.9269 N   0  0  0  0  0  0  0  0  0  0  0  0
   18.4497   -3.2518  -15.7532 C   0  0  1  0  0  0  0  0  0  0  0  0
   18.0784   -3.7994  -17.0987 C   0  0  0  0  0  0  0  0  0  0  0  0
   17.3707   -2.7928  -17.8960 C   0  0  0  0  0  0  0  0  0  0  0  0
   17.6410   -1.5747  -17.8874 O   0  0  0  0  0  0  0  0  0  0  0  0
   17.1808   -2.8451  -15.0671 C   0  0  0  0  0  0  0  0  0  0  0  0
   16.5837   -3.5872  -14.3028 O   0  0  0  0  0  0  0  0  0  0  0  0
   16.3259   -3.2037  -18.7207 O   0  0  0  0  0  0  0  0  0  0  0  0
   16.6833   -1.5799  -15.3198 O   0  0  0  0  0  0  0  0  0  0  0  0
  2  1  1  1
  2  6  1  0
  3  2  1  0
  4  3  1  0
  5  4  2  0
  6  7  2  0
  6  9  1  0
  8  4  1  0
  9 10  1  0
 10 11  1  6
 11 12  1  0
 12 13  2  0
 12 17  1  0
 13 14  1  0
 14 15  2  0
 16 15  1  0
 17 16  2  0
 18 20  1  0
 18 10  1  0
 19 18  2  0
 21 20  1  0
 21 25  1  0
 22 23  1  0
 21 22  1  6
 23 24  2  0
 25 28  1  0
 26 25  2  0
 27 23  1  0
M  END
$$$$
