DFD.pdb
     RDKit          3D

 28 28  0  0  1  0  0  0  0  0999 V2000
   24.8083  -11.7468  -19.8776 N   0  0  0  0  0  0  0  0  0  0  0  0
   24.3664  -10.3971  -19.9709 C   0  0  1  0  0  0  0  0  0  0  0  0
   23.2093  -10.1493  -20.8944 C   0  0  0  0  0  0  0  0  0  0  0  0
   23.4640  -10.5642  -22.2881 C   0  0  0  0  0  0  0  0  0  0  0  0
   24.6081  -10.7948  -22.7020 O   0  0  0  0  0  0  0  0  0  0  0  0
   24.1550   -9.7177  -18.6642 C   0  0  0  0  0  0  0  0  0  0  0  0
   23.4539  -10.3088  -17.8097 O   0  0  0  0  0  0  0  0  0  0  0  0
   22.3927  -10.7018  -23.1645 O   0  0  0  0  0  0  0  0  0  0  0  0
   24.6798   -8.4661  -18.3167 N   0  0  0  0  0  0  0  0  0  0  0  0
   24.4123   -7.8655  -17.0153 C   0  0  1  0  0  0  0  0  0  0  0  0
   25.7193   -7.6647  -16.3433 C   0  0  0  0  0  0  0  0  0  0  0  0
   26.4671   -8.9118  -16.0535 C   0  0  0  0  0  0  0  0  0  0  0  0
   27.5346   -9.2988  -16.8594 C   0  0  0  0  0  0  0  0  0  0  0  0
   28.2427  -10.4522  -16.5951 C   0  0  0  0  0  0  0  0  0  0  0  0
   27.8634  -11.2137  -15.5077 C   0  0  0  0  0  0  0  0  0  0  0  0
   26.7982  -10.8438  -14.6884 C   0  0  0  0  0  0  0  0  0  0  0  0
   26.1018   -9.6781  -14.9764 C   0  0  0  0  0  0  0  0  0  0  0  0
   23.5464   -6.6804  -17.1240 C   0  0  0  0  0  0  0  0  0  0  0  0
   23.5426   -6.0851  -18.2549 O   0  0  0  0  0  0  0  0  0  0  0  0
   22.7494   -6.1861  -16.0780 N   0  0  0  0  0  0  0  0  0  0  0  0
   21.7547   -5.1479  -16.3711 C   0  0  1  0  0  0  0  0  0  0  0  0
   20.7090   -5.6715  -17.3093 C   0  0  0  0  0  0  0  0  0  0  0  0
   19.7050   -4.6432  -17.5999 C   0  0  0  0  0  0  0  0  0  0  0  0
   18.5670   -4.6102  -17.0892 O   0  0  0  0  0  0  0  0  0  0  0  0
   21.0736   -4.8152  -15.0782 C   0  0  0  0  0  0  0  0  0  0  0  0
   20.8465   -5.6571  -14.2231 O   0  0  0  0  0  0  0  0  0  0  0  0
   20.0234   -3.6311  -18.5025 O   0  0  0  0  0  0  0  0  0  0  0  0
   20.6964   -3.5025  -14.8625 O   0  0  0  0  0  0  0  0  0  0  0  0
  2  1  1  1
  2  6  1  0
  3  2  1  0
  4  3  1  0
  5  4  2  0
  6  7  2  0
  6  9  1  0
  8  4  1  0
  9 10  1  0
 10 11  1  6
 11 12  1  0
 12 13  2  0
 12 17  1  0
 13 14  1  0
 14 15  2  0
 16 15  1  0
 17 16  2  0
 18 20  1  0
 18 10  1  0
 19 18  2  0
 21 20  1  0
 21 25  1  0
 22 23  1  0
 21 22  1  6
 23 24  2  0
 25 28  1  0
 26 25  2  0
 27 23  1  0
M  END
$$$$
