DFD.pdb
     RDKit          3D

 28 28  0  0  1  0  0  0  0  0999 V2000
   25.9964  -34.8483  -12.8058 N   0  0  0  0  0  0  0  0  0  0  0  0
   24.8960  -33.9561  -12.9441 C   0  0  1  0  0  0  0  0  0  0  0  0
   23.9780  -34.2231  -14.1014 C   0  0  0  0  0  0  0  0  0  0  0  0
   24.6459  -34.1523  -15.4161 C   0  0  0  0  0  0  0  0  0  0  0  0
   24.9593  -35.1719  -16.0450 O   0  0  0  0  0  0  0  0  0  0  0  0
   24.1199  -33.7242  -11.6962 C   0  0  0  0  0  0  0  0  0  0  0  0
   23.8055  -34.7272  -11.0133 O   0  0  0  0  0  0  0  0  0  0  0  0
   24.9329  -32.9083  -15.9681 O   0  0  0  0  0  0  0  0  0  0  0  0
   23.7128  -32.4686  -11.2265 N   0  0  0  0  0  0  0  0  0  0  0  0
   22.9670  -32.3289   -9.9814 C   0  0  1  0  0  0  0  0  0  0  0  0
   23.7684  -31.4659   -9.0797 C   0  0  0  0  0  0  0  0  0  0  0  0
   24.8970  -32.1510   -8.4048 C   0  0  0  0  0  0  0  0  0  0  0  0
   24.6874  -32.8669   -7.2290 C   0  0  0  0  0  0  0  0  0  0  0  0
   25.7276  -33.5149   -6.5967 C   0  0  0  0  0  0  0  0  0  0  0  0
   26.9844  -33.4341   -7.1627 C   0  0  0  0  0  0  0  0  0  0  0  0
   27.2152  -32.7231   -8.3390 C   0  0  0  0  0  0  0  0  0  0  0  0
   26.1509  -32.0797   -8.9556 C   0  0  0  0  0  0  0  0  0  0  0  0
   21.5758  -31.9108  -10.2174 C   0  0  0  0  0  0  0  0  0  0  0  0
   21.4105  -30.7264  -10.6684 O   0  0  0  0  0  0  0  0  0  0  0  0
   20.4554  -32.7237   -9.9778 N   0  0  0  0  0  0  0  0  0  0  0  0
   19.1138  -32.1545  -10.1487 C   0  0  1  0  0  0  0  0  0  0  0  0
   18.0682  -33.2187   -9.9998 C   0  0  0  0  0  0  0  0  0  0  0  0
   16.7257  -32.6651  -10.2025 C   0  0  0  0  0  0  0  0  0  0  0  0
   15.9231  -32.4166   -9.2801 O   0  0  0  0  0  0  0  0  0  0  0  0
   18.9117  -31.1666   -9.0400 C   0  0  0  0  0  0  0  0  0  0  0  0
   19.2482  -31.3973   -7.8890 O   0  0  0  0  0  0  0  0  0  0  0  0
   16.3012  -32.3940  -11.5013 O   0  0  0  0  0  0  0  0  0  0  0  0
   18.3220  -29.9549   -9.3501 O   0  0  0  0  0  0  0  0  0  0  0  0
  2  1  1  1
  2  6  1  0
  3  2  1  0
  4  3  1  0
  5  4  2  0
  6  7  2  0
  6  9  1  0
  8  4  1  0
  9 10  1  0
 10 11  1  1
 11 12  1  0
 12 13  2  0
 12 17  1  0
 13 14  1  0
 14 15  2  0
 16 15  1  0
 17 16  2  0
 18 20  1  0
 18 10  1  0
 19 18  2  0
 21 20  1  0
 21 25  1  0
 22 23  1  0
 21 22  1  1
 23 24  2  0
 25 28  1  0
 26 25  2  0
 27 23  1  0
M  END
$$$$
