DFD.pdb
     RDKit          3D

 28 28  0  0  1  0  0  0  0  0999 V2000
   28.3100  -19.2288  -17.6599 N   0  0  0  0  0  0  0  0  0  0  0  0
   27.1067  -19.9774  -17.7913 C   0  0  1  0  0  0  0  0  0  0  0  0
   27.0993  -21.0212  -18.8701 C   0  0  0  0  0  0  0  0  0  0  0  0
   27.7465  -20.5833  -20.1226 C   0  0  0  0  0  0  0  0  0  0  0  0
   28.9780  -20.5705  -20.2514 O   0  0  0  0  0  0  0  0  0  0  0  0
   26.5732  -20.5303  -16.5171 C   0  0  0  0  0  0  0  0  0  0  0  0
   25.8166  -21.5270  -16.5887 O   0  0  0  0  0  0  0  0  0  0  0  0
   26.9556  -20.1732  -21.1907 O   0  0  0  0  0  0  0  0  0  0  0  0
   26.8522  -20.0202  -15.2424 N   0  0  0  0  0  0  0  0  0  0  0  0
   26.1915  -20.5451  -14.0533 C   0  0  1  0  0  0  0  0  0  0  0  0
   27.0618  -20.2391  -12.8918 C   0  0  0  0  0  0  0  0  0  0  0  0
   26.4296  -20.4538  -11.5679 C   0  0  0  0  0  0  0  0  0  0  0  0
   25.8866  -19.3831  -10.8624 C   0  0  0  0  0  0  0  0  0  0  0  0
   25.2889  -19.5717   -9.6341 C   0  0  0  0  0  0  0  0  0  0  0  0
   25.2437  -20.8533   -9.1224 C   0  0  0  0  0  0  0  0  0  0  0  0
   25.7809  -21.9384   -9.8127 C   0  0  0  0  0  0  0  0  0  0  0  0
   26.3771  -21.7215  -11.0473 C   0  0  0  0  0  0  0  0  0  0  0  0
   24.7936  -20.0952  -13.9569 C   0  0  0  0  0  0  0  0  0  0  0  0
   24.5160  -18.9867  -14.5292 O   0  0  0  0  0  0  0  0  0  0  0  0
   23.7811  -20.8015  -13.2865 N   0  0  0  0  0  0  0  0  0  0  0  0
   22.3863  -20.3789  -13.4570 C   0  0  1  0  0  0  0  0  0  0  0  0
   21.8728  -20.7915  -14.8039 C   0  0  0  0  0  0  0  0  0  0  0  0
   20.4796  -20.3714  -14.9837 C   0  0  0  0  0  0  0  0  0  0  0  0
   20.0322  -19.2596  -14.6364 O   0  0  0  0  0  0  0  0  0  0  0  0
   21.5782  -21.1059  -12.4252 C   0  0  0  0  0  0  0  0  0  0  0  0
   20.7842  -20.5341  -11.6943 O   0  0  0  0  0  0  0  0  0  0  0  0
   19.5832  -21.2573  -15.5771 O   0  0  0  0  0  0  0  0  0  0  0  0
   21.7502  -22.4731  -12.3112 O   0  0  0  0  0  0  0  0  0  0  0  0
  2  1  1  1
  2  6  1  0
  3  2  1  0
  4  3  1  0
  5  4  2  0
  6  7  2  0
  6  9  1  0
  8  4  1  0
  9 10  1  0
 10 11  1  1
 11 12  1  0
 12 13  2  0
 12 17  1  0
 13 14  1  0
 14 15  2  0
 16 15  1  0
 17 16  2  0
 18 20  1  0
 18 10  1  0
 19 18  2  0
 21 20  1  0
 21 25  1  0
 22 23  1  0
 21 22  1  6
 23 24  2  0
 25 28  1  0
 26 25  2  0
 27 23  1  0
M  END
$$$$
