DFD.pdb
     RDKit          3D

 28 28  0  0  1  0  0  0  0  0999 V2000
   22.2297  -34.4833    1.6551 N   0  0  0  0  0  0  0  0  0  0  0  0
   23.2109  -33.4540    1.7167 C   0  0  1  0  0  0  0  0  0  0  0  0
   23.5444  -32.9486    3.0903 C   0  0  0  0  0  0  0  0  0  0  0  0
   22.6006  -31.9306    3.5924 C   0  0  0  0  0  0  0  0  0  0  0  0
   22.1936  -31.0071    2.8748 O   0  0  0  0  0  0  0  0  0  0  0  0
   24.4493  -33.7248    0.9378 C   0  0  0  0  0  0  0  0  0  0  0  0
   24.4590  -33.3927   -0.2708 O   0  0  0  0  0  0  0  0  0  0  0  0
   22.1527  -32.0064    4.9070 O   0  0  0  0  0  0  0  0  0  0  0  0
   25.6060  -34.3241    1.4532 N   0  0  0  0  0  0  0  0  0  0  0  0
   26.8865  -34.2207    0.7634 C   0  0  1  0  0  0  0  0  0  0  0  0
   27.1786  -32.7774    0.5859 C   0  0  0  0  0  0  0  0  0  0  0  0
   26.5179  -32.1488   -0.5832 C   0  0  0  0  0  0  0  0  0  0  0  0
   25.6921  -31.0401   -0.4164 C   0  0  0  0  0  0  0  0  0  0  0  0
   25.0787  -30.4420   -1.4970 C   0  0  0  0  0  0  0  0  0  0  0  0
   25.3064  -30.9737   -2.7507 C   0  0  0  0  0  0  0  0  0  0  0  0
   26.1295  -32.0826   -2.9392 C   0  0  0  0  0  0  0  0  0  0  0  0
   26.7350  -32.6659   -1.8347 C   0  0  0  0  0  0  0  0  0  0  0  0
   27.9317  -35.0213    1.4210 C   0  0  0  0  0  0  0  0  0  0  0  0
   28.2506  -34.6691    2.6075 O   0  0  0  0  0  0  0  0  0  0  0  0
   28.5770  -36.1186    0.8268 N   0  0  0  0  0  0  0  0  0  0  0  0
   29.4985  -36.9253    1.6352 C   0  0  1  0  0  0  0  0  0  0  0  0
   29.1056  -38.3717    1.5941 C   0  0  0  0  0  0  0  0  0  0  0  0
   27.9870  -38.6359    2.5044 C   0  0  0  0  0  0  0  0  0  0  0  0
   27.9606  -38.2878    3.7024 O   0  0  0  0  0  0  0  0  0  0  0  0
   30.8529  -36.8087    1.0043 C   0  0  0  0  0  0  0  0  0  0  0  0
   31.8849  -36.9777    1.6350 O   0  0  0  0  0  0  0  0  0  0  0  0
   26.8743  -39.3192    2.0191 O   0  0  0  0  0  0  0  0  0  0  0  0
   30.9172  -36.4987   -0.3418 O   0  0  0  0  0  0  0  0  0  0  0  0
  2  1  1  1
  2  6  1  0
  3  2  1  0
  4  3  1  0
  5  4  2  0
  6  7  2  0
  6  9  1  0
  8  4  1  0
  9 10  1  0
 10 11  1  1
 11 12  1  0
 12 13  2  0
 12 17  1  0
 13 14  1  0
 14 15  2  0
 16 15  1  0
 17 16  2  0
 18 20  1  0
 18 10  1  0
 19 18  2  0
 21 20  1  0
 21 25  1  0
 22 23  1  0
 21 22  1  6
 23 24  2  0
 25 28  1  0
 26 25  2  0
 27 23  1  0
M  END
$$$$
