AMI.pdb
     RDKit          3D

 22 21  0  0  1  0  0  0  0  0999 V2000
   26.7244  -16.6516  -15.9222 C   0  0  0  0  0  0  0  0  0  0  0  0
   27.4289  -17.6722  -15.0933 C   0  0  2  0  0  0  0  0  0  0  0  0
   28.4947  -18.2519  -15.8813 N   0  0  0  0  0  0  0  0  0  0  0  0
   26.5247  -18.7110  -14.5320 C   0  0  0  0  0  0  0  0  0  0  0  0
   25.8214  -19.3682  -15.3374 O   0  0  0  0  0  0  0  0  0  0  0  0
   26.6925  -20.3259   -8.3221 C   0  0  0  0  0  0  0  0  0  0  0  0
   25.0746  -21.0883   -8.6427 S   0  0  0  0  0  0  0  0  0  0  0  0
   24.8094  -21.0432  -10.4555 C   0  0  0  0  0  0  0  0  0  0  0  0
   25.7278  -19.9880  -10.9952 C   0  0  0  0  0  0  0  0  0  0  0  0
   25.5715  -19.9454  -12.5097 C   0  0  2  0  0  0  0  0  0  0  0  0
   26.4242  -18.9860  -13.1526 N   0  0  0  0  0  0  0  0  0  0  0  0
   24.1558  -19.7472  -12.8066 C   0  0  0  0  0  0  0  0  0  0  0  0
   23.6898  -18.5730  -12.7013 O   0  0  0  0  0  0  0  0  0  0  0  0
   20.0543  -20.4146  -16.9312 C   0  0  0  0  0  0  0  0  0  0  0  0
   20.1921  -20.3966  -15.4277 C   0  0  0  0  0  0  0  0  0  0  0  0
   21.6565  -20.6402  -15.0670 C   0  0  2  0  0  0  0  0  0  0  0  0
   22.1296  -21.9918  -15.5521 C   0  0  0  0  0  0  0  0  0  0  0  0
   21.8704  -20.4869  -13.5722 C   0  0  2  0  0  0  0  0  0  0  0  0
   23.2462  -20.7538  -13.2048 N   0  0  0  0  0  0  0  0  0  0  0  0
   21.0078  -21.4139  -12.8019 C   0  0  0  0  0  0  0  0  0  0  0  0
   19.7761  -21.2085  -12.6726 O   0  0  0  0  0  0  0  0  0  0  0  0
   21.5230  -22.5479  -12.1904 O   0  0  0  0  0  0  0  0  0  0  0  0
  2  4  1  0
  2  3  1  0
  2  1  1  6
  4  5  2  0
  7  6  1  0
  7  8  1  0
  8  9  1  0
 10  9  1  1
 10 12  1  0
 11 10  1  0
 11  4  1  0
 12 13  2  0
 12 19  1  0
 15 14  1  0
 16 17  1  1
 16 15  1  0
 18 16  1  0
 18 19  1  6
 20 18  1  0
 20 22  1  0
 21 20  2  0
M  END
$$$$
