AMI.pdb
     RDKit          3D

 22 21  0  0  1  0  0  0  0  0999 V2000
   27.9385  -19.7226  -15.9429 C   0  0  0  0  0  0  0  0  0  0  0  0
   28.3057  -20.8497  -15.0374 C   0  0  2  0  0  0  0  0  0  0  0  0
   28.7628  -21.9604  -15.8438 N   0  0  0  0  0  0  0  0  0  0  0  0
   27.2137  -21.2487  -14.1101 C   0  0  0  0  0  0  0  0  0  0  0  0
   26.3221  -22.0124  -14.5541 O   0  0  0  0  0  0  0  0  0  0  0  0
   27.4214  -19.7974   -7.9038 C   0  0  0  0  0  0  0  0  0  0  0  0
   25.7041  -20.3874   -7.8385 S   0  0  0  0  0  0  0  0  0  0  0  0
   25.2851  -21.0073   -9.5114 C   0  0  0  0  0  0  0  0  0  0  0  0
   26.3916  -20.5633  -10.4206 C   0  0  0  0  0  0  0  0  0  0  0  0
   26.0834  -21.0583  -11.8278 C   0  0  2  0  0  0  0  0  0  0  0  0
   27.1370  -20.8121  -12.7714 N   0  0  0  0  0  0  0  0  0  0  0  0
   24.8032  -20.4845  -12.2320 C   0  0  0  0  0  0  0  0  0  0  0  0
   24.7517  -19.2322  -12.4217 O   0  0  0  0  0  0  0  0  0  0  0  0
   22.6028  -21.7133  -16.5712 C   0  0  0  0  0  0  0  0  0  0  0  0
   23.0066  -20.9697  -15.3208 C   0  0  0  0  0  0  0  0  0  0  0  0
   21.9501  -21.2117  -14.2442 C   0  0  2  0  0  0  0  0  0  0  0  0
   20.5947  -20.6954  -14.6713 C   0  0  0  0  0  0  0  0  0  0  0  0
   22.3818  -20.5971  -12.9252 C   0  0  2  0  0  0  0  0  0  0  0  0
   23.6024  -21.2032  -12.4338 N   0  0  0  0  0  0  0  0  0  0  0  0
   21.3419  -20.7626  -11.8822 C   0  0  0  0  0  0  0  0  0  0  0  0
   20.5119  -19.8541  -11.6341 O   0  0  0  0  0  0  0  0  0  0  0  0
   21.2402  -21.9274  -11.1351 O   0  0  0  0  0  0  0  0  0  0  0  0
  2  4  1  0
  2  3  1  0
  2  1  1  6
  4  5  2  0
  7  6  1  0
  7  8  1  0
  8  9  1  0
 10  9  1  1
 10 12  1  0
 11 10  1  0
 11  4  1  0
 12 13  2  0
 12 19  1  0
 15 14  1  0
 16 17  1  6
 16 15  1  0
 18 16  1  0
 18 19  1  1
 20 18  1  0
 20 22  1  0
 21 20  2  0
M  END
$$$$
