AMI.pdb
     RDKit          3D

 22 21  0  0  1  0  0  0  0  0999 V2000
   19.9959  -21.3562  -14.8244 C   0  0  0  0  0  0  0  0  0  0  0  0
   20.5054  -21.2791  -13.4246 C   0  0  2  0  0  0  0  0  0  0  0  0
   19.5465  -20.5502  -12.6232 N   0  0  0  0  0  0  0  0  0  0  0  0
   21.8714  -20.7008  -13.3190 C   0  0  0  0  0  0  0  0  0  0  0  0
   22.0710  -19.5779  -13.8429 O   0  0  0  0  0  0  0  0  0  0  0  0
   25.9775  -20.3925   -8.0539 C   0  0  0  0  0  0  0  0  0  0  0  0
   26.8936  -21.2570   -9.3635 S   0  0  0  0  0  0  0  0  0  0  0  0
   26.2185  -20.6755  -10.9649 C   0  0  0  0  0  0  0  0  0  0  0  0
   24.8947  -21.3568  -11.1428 C   0  0  0  0  0  0  0  0  0  0  0  0
   24.2613  -20.8449  -12.4300 C   0  0  2  0  0  0  0  0  0  0  0  0
   22.9384  -21.3506  -12.6647 N   0  0  0  0  0  0  0  0  0  0  0  0
   25.1866  -21.1241  -13.5241 C   0  0  0  0  0  0  0  0  0  0  0  0
   25.3129  -22.3291  -13.8969 O   0  0  0  0  0  0  0  0  0  0  0  0
   28.3635  -17.1357  -16.3104 C   0  0  0  0  0  0  0  0  0  0  0  0
   27.9559  -18.2664  -15.3965 C   0  0  0  0  0  0  0  0  0  0  0  0
   27.0929  -19.2484  -16.1870 C   0  0  2  0  0  0  0  0  0  0  0  0
   25.8194  -18.5974  -16.6772 C   0  0  0  0  0  0  0  0  0  0  0  0
   26.7946  -20.4840  -15.3575 C   0  0  2  0  0  0  0  0  0  0  0  0
   25.9637  -20.1654  -14.2142 N   0  0  0  0  0  0  0  0  0  0  0  0
   28.0381  -21.1129  -14.8526 C   0  0  0  0  0  0  0  0  0  0  0  0
   28.4083  -20.9697  -13.6617 O   0  0  0  0  0  0  0  0  0  0  0  0
   28.8467  -21.8866  -15.6730 O   0  0  0  0  0  0  0  0  0  0  0  0
  2  4  1  0
  2  3  1  0
  2  1  1  6
  4  5  2  0
  7  6  1  0
  7  8  1  0
  8  9  1  0
 10  9  1  1
 10 12  1  0
 11 10  1  0
 11  4  1  0
 12 13  2  0
 12 19  1  0
 15 14  1  0
 16 17  1  1
 16 15  1  0
 18 16  1  0
 18 19  1  1
 20 18  1  0
 20 22  1  0
 21 20  2  0
M  END
$$$$
