AMI.pdb
     RDKit          3D

 22 21  0  0  1  0  0  0  0  0999 V2000
   25.6483  -19.2188  -18.1940 C   0  0  0  0  0  0  0  0  0  0  0  0
   24.1920  -19.4423  -17.9611 C   0  0  2  0  0  0  0  0  0  0  0  0
   23.5870  -19.8777  -19.2010 N   0  0  0  0  0  0  0  0  0  0  0  0
   23.4928  -18.2623  -17.3861 C   0  0  0  0  0  0  0  0  0  0  0  0
   23.8610  -17.8607  -16.2555 O   0  0  0  0  0  0  0  0  0  0  0  0
   19.9906  -14.0815  -20.9716 C   0  0  0  0  0  0  0  0  0  0  0  0
   20.6494  -13.0288  -19.6451 S   0  0  0  0  0  0  0  0  0  0  0  0
   21.0123  -14.1235  -18.2209 C   0  0  0  0  0  0  0  0  0  0  0  0
   21.4787  -15.4285  -18.7935 C   0  0  0  0  0  0  0  0  0  0  0  0
   21.7939  -16.3725  -17.6404 C   0  0  2  0  0  0  0  0  0  0  0  0
   22.4478  -17.5841  -18.0469 N   0  0  0  0  0  0  0  0  0  0  0  0
   20.5552  -16.6062  -16.9040 C   0  0  0  0  0  0  0  0  0  0  0  0
   19.7722  -17.5043  -17.3368 O   0  0  0  0  0  0  0  0  0  0  0  0
   20.2804  -18.4452  -12.1333 C   0  0  0  0  0  0  0  0  0  0  0  0
   19.9347  -18.0789  -13.5566 C   0  0  0  0  0  0  0  0  0  0  0  0
   19.3116  -16.6840  -13.5660 C   0  0  2  0  0  0  0  0  0  0  0  0
   18.1059  -16.6092  -12.6569 C   0  0  0  0  0  0  0  0  0  0  0  0
   18.9591  -16.2666  -14.9820 C   0  0  2  0  0  0  0  0  0  0  0  0
   20.1429  -15.9167  -15.7404 N   0  0  0  0  0  0  0  0  0  0  0  0
   18.0512  -15.0952  -14.9933 C   0  0  0  0  0  0  0  0  0  0  0  0
   18.4955  -13.9218  -15.0315 O   0  0  0  0  0  0  0  0  0  0  0  0
   16.6719  -15.2437  -14.9621 O   0  0  0  0  0  0  0  0  0  0  0  0
  2  4  1  0
  2  3  1  0
  2  1  1  6
  4  5  2  0
  7  6  1  0
  7  8  1  0
  8  9  1  0
 10  9  1  6
 10 12  1  0
 11 10  1  0
 11  4  1  0
 12 13  2  0
 12 19  1  0
 15 14  1  0
 16 17  1  1
 16 15  1  0
 18 16  1  0
 18 19  1  6
 20 18  1  0
 20 22  1  0
 21 20  2  0
M  END
$$$$
