AMI.pdb
     RDKit          3D

 22 21  0  0  1  0  0  0  0  0999 V2000
   26.5919  -13.2268  -15.7593 C   0  0  0  0  0  0  0  0  0  0  0  0
   25.2888  -13.9356  -15.9167 C   0  0  2  0  0  0  0  0  0  0  0  0
   25.4899  -15.0896  -16.7656 N   0  0  0  0  0  0  0  0  0  0  0  0
   24.1927  -13.0631  -16.4156 C   0  0  0  0  0  0  0  0  0  0  0  0
   24.2197  -12.7273  -17.6247 O   0  0  0  0  0  0  0  0  0  0  0  0
   17.6532  -11.0568  -13.9182 C   0  0  0  0  0  0  0  0  0  0  0  0
   18.0070  -12.2988  -15.1964 S   0  0  0  0  0  0  0  0  0  0  0  0
   19.5175  -11.7488  -16.0763 C   0  0  0  0  0  0  0  0  0  0  0  0
   20.6741  -12.4243  -15.4022 C   0  0  0  0  0  0  0  0  0  0  0  0
   21.9634  -11.8854  -16.0083 C   0  0  2  0  0  0  0  0  0  0  0  0
   23.1383  -12.6024  -15.6003 N   0  0  0  0  0  0  0  0  0  0  0  0
   22.0306  -10.4566  -15.7159 C   0  0  0  0  0  0  0  0  0  0  0  0
   22.5906  -10.1014  -14.6355 O   0  0  0  0  0  0  0  0  0  0  0  0
   22.9502   -6.7888  -19.6065 C   0  0  0  0  0  0  0  0  0  0  0  0
   22.9798   -7.5552  -18.3060 C   0  0  0  0  0  0  0  0  0  0  0  0
   21.7504   -7.1725  -17.4837 C   0  0  2  0  0  0  0  0  0  0  0  0
   21.7381   -5.6960  -17.1589 C   0  0  0  0  0  0  0  0  0  0  0  0
   21.6690   -8.0134  -16.2228 C   0  0  2  0  0  0  0  0  0  0  0  0
   21.5238   -9.4209  -16.5343 N   0  0  0  0  0  0  0  0  0  0  0  0
   20.5185   -7.6155  -15.3774 C   0  0  0  0  0  0  0  0  0  0  0  0
   19.3372   -7.8747  -15.7137 O   0  0  0  0  0  0  0  0  0  0  0  0
   20.6962   -6.9397  -14.1786 O   0  0  0  0  0  0  0  0  0  0  0  0
  2  4  1  0
  2  3  1  0
  2  1  1  6
  4  5  2  0
  7  6  1  0
  7  8  1  0
  8  9  1  0
 10  9  1  1
 10 12  1  0
 11 10  1  0
 11  4  1  0
 12 13  2  0
 12 19  1  0
 15 14  1  0
 16 17  1  1
 16 15  1  0
 18 16  1  0
 18 19  1  6
 20 18  1  0
 20 22  1  0
 21 20  2  0
M  END
$$$$
