AMI.pdb
     RDKit          3D

 22 21  0  0  1  0  0  0  0  0999 V2000
   19.6628   -9.9815  -20.5415 C   0  0  0  0  0  0  0  0  0  0  0  0
   20.8792  -10.6370  -19.9797 C   0  0  2  0  0  0  0  0  0  0  0  0
   20.6563  -12.0658  -19.9369 N   0  0  0  0  0  0  0  0  0  0  0  0
   21.2880  -10.0986  -18.6551 C   0  0  0  0  0  0  0  0  0  0  0  0
   20.4018   -9.9846  -17.7737 O   0  0  0  0  0  0  0  0  0  0  0  0
   27.1712  -10.8380  -15.7711 C   0  0  0  0  0  0  0  0  0  0  0  0
   25.7365  -10.3689  -14.7596 S   0  0  0  0  0  0  0  0  0  0  0  0
   24.9761   -8.9025  -15.5532 C   0  0  0  0  0  0  0  0  0  0  0  0
   24.6153   -9.3119  -16.9498 C   0  0  0  0  0  0  0  0  0  0  0  0
   23.1061   -9.1847  -17.1118 C   0  0  2  0  0  0  0  0  0  0  0  0
   22.6104   -9.7153  -18.3502 N   0  0  0  0  0  0  0  0  0  0  0  0
   22.7516   -7.7840  -16.9029 C   0  0  0  0  0  0  0  0  0  0  0  0
   22.9512   -6.9761  -17.8592 O   0  0  0  0  0  0  0  0  0  0  0  0
   18.1455   -5.9537  -16.3826 C   0  0  0  0  0  0  0  0  0  0  0  0
   19.6285   -5.9958  -16.6632 C   0  0  0  0  0  0  0  0  0  0  0  0
   20.3797   -5.6324  -15.3835 C   0  0  2  0  0  0  0  0  0  0  0  0
   20.0694   -4.2207  -14.9402 C   0  0  0  0  0  0  0  0  0  0  0  0
   21.8728   -5.8358  -15.5654 C   0  0  2  0  0  0  0  0  0  0  0  0
   22.2004   -7.2385  -15.7206 N   0  0  0  0  0  0  0  0  0  0  0  0
   22.6371   -5.3177  -14.4060 C   0  0  0  0  0  0  0  0  0  0  0  0
   23.3202   -4.2677  -14.4875 O   0  0  0  0  0  0  0  0  0  0  0  0
   22.6312   -5.9696  -13.1811 O   0  0  0  0  0  0  0  0  0  0  0  0
  2  4  1  0
  2  3  1  0
  2  1  1  1
  4  5  2  0
  7  6  1  0
  7  8  1  0
  8  9  1  0
 10  9  1  6
 10 12  1  0
 11 10  1  0
 11  4  1  0
 12 13  2  0
 12 19  1  0
 15 14  1  0
 16 17  1  6
 16 15  1  0
 18 16  1  0
 18 19  1  1
 20 18  1  0
 20 22  1  0
 21 20  2  0
M  END
$$$$
