AMI.pdb
     RDKit          3D

 22 21  0  0  1  0  0  0  0  0999 V2000
   27.4297  -18.5879  -17.0993 C   0  0  0  0  0  0  0  0  0  0  0  0
   28.5828  -19.3469  -16.5344 C   0  0  2  0  0  0  0  0  0  0  0  0
   29.1303  -20.1948  -17.5708 N   0  0  0  0  0  0  0  0  0  0  0  0
   28.2455  -20.1166  -15.3074 C   0  0  0  0  0  0  0  0  0  0  0  0
   27.1691  -20.7620  -15.3018 O   0  0  0  0  0  0  0  0  0  0  0  0
   32.5344  -21.5275  -10.8245 C   0  0  0  0  0  0  0  0  0  0  0  0
   31.1182  -21.7090   -9.7007 S   0  0  0  0  0  0  0  0  0  0  0  0
   29.6019  -21.5469  -10.7169 C   0  0  0  0  0  0  0  0  0  0  0  0
   30.0011  -20.8208  -11.9666 C   0  0  0  0  0  0  0  0  0  0  0  0
   28.8066  -20.8007  -12.9116 C   0  0  2  0  0  0  0  0  0  0  0  0
   29.0713  -20.1522  -14.1647 N   0  0  0  0  0  0  0  0  0  0  0  0
   27.6773  -20.2207  -12.1907 C   0  0  0  0  0  0  0  0  0  0  0  0
   27.5976  -18.9566  -12.1379 O   0  0  0  0  0  0  0  0  0  0  0  0
   22.0039  -19.7723  -12.6127 C   0  0  0  0  0  0  0  0  0  0  0  0
   23.0602  -19.7294  -11.5346 C   0  0  0  0  0  0  0  0  0  0  0  0
   24.3005  -20.4682  -12.0343 C   0  0  2  0  0  0  0  0  0  0  0  0
   23.9993  -21.9197  -12.3314 C   0  0  0  0  0  0  0  0  0  0  0  0
   25.4379  -20.3356  -11.0380 C   0  0  2  0  0  0  0  0  0  0  0  0
   26.6531  -20.9453  -11.5387 N   0  0  0  0  0  0  0  0  0  0  0  0
   25.1065  -20.9810   -9.7456 C   0  0  0  0  0  0  0  0  0  0  0  0
   24.1749  -20.5549   -9.0200 O   0  0  0  0  0  0  0  0  0  0  0  0
   25.8102  -22.0831   -9.2814 O   0  0  0  0  0  0  0  0  0  0  0  0
  2  4  1  0
  2  3  1  0
  2  1  1  6
  4  5  2  0
  7  6  1  0
  7  8  1  0
  8  9  1  0
 10  9  1  1
 10 12  1  0
 11 10  1  0
 11  4  1  0
 12 13  2  0
 12 19  1  0
 15 14  1  0
 16 17  1  1
 16 15  1  0
 18 16  1  0
 18 19  1  6
 20 18  1  0
 20 22  1  0
 21 20  2  0
M  END
$$$$
