AMI.pdb
     RDKit          3D

 22 21  0  0  1  0  0  0  0  0999 V2000
   19.5327  -13.9827  -18.8933 C   0  0  0  0  0  0  0  0  0  0  0  0
   20.1477  -12.7049  -19.3560 C   0  0  2  0  0  0  0  0  0  0  0  0
   21.2356  -13.0153  -20.2576 N   0  0  0  0  0  0  0  0  0  0  0  0
   20.5828  -11.8168  -18.2453 C   0  0  0  0  0  0  0  0  0  0  0  0
   19.7123  -11.4456  -17.4208 O   0  0  0  0  0  0  0  0  0  0  0  0
   26.4287  -11.5857  -14.6785 C   0  0  0  0  0  0  0  0  0  0  0  0
   26.1618   -9.9923  -15.5101 S   0  0  0  0  0  0  0  0  0  0  0  0
   24.3516   -9.7862  -15.7078 C   0  0  0  0  0  0  0  0  0  0  0  0
   23.9445  -10.6646  -16.8528 C   0  0  0  0  0  0  0  0  0  0  0  0
   22.4378  -10.5412  -17.0393 C   0  0  2  0  0  0  0  0  0  0  0  0
   21.9132  -11.3791  -18.0803 N   0  0  0  0  0  0  0  0  0  0  0  0
   22.1259   -9.1273  -17.2267 C   0  0  0  0  0  0  0  0  0  0  0  0
   22.4889   -8.5820  -18.3120 O   0  0  0  0  0  0  0  0  0  0  0  0
   17.2993   -6.8709  -16.6074 C   0  0  0  0  0  0  0  0  0  0  0  0
   18.6758   -7.1950  -16.0783 C   0  0  0  0  0  0  0  0  0  0  0  0
   19.7119   -6.7787  -17.1209 C   0  0  2  0  0  0  0  0  0  0  0  0
   19.5548   -7.5642  -18.4032 C   0  0  0  0  0  0  0  0  0  0  0  0
   21.1162   -6.9149  -16.5614 C   0  0  2  0  0  0  0  0  0  0  0  0
   21.4494   -8.3005  -16.3004 N   0  0  0  0  0  0  0  0  0  0  0  0
   21.2708   -6.1649  -15.2924 C   0  0  0  0  0  0  0  0  0  0  0  0
   21.1710   -4.9142  -15.2538 O   0  0  0  0  0  0  0  0  0  0  0  0
   21.5325   -6.8114  -14.0928 O   0  0  0  0  0  0  0  0  0  0  0  0
  2  4  1  0
  2  3  1  0
  2  1  1  1
  4  5  2  0
  7  6  1  0
  7  8  1  0
  8  9  1  0
 10  9  1  6
 10 12  1  0
 11 10  1  0
 11  4  1  0
 12 13  2  0
 12 19  1  0
 15 14  1  0
 16 17  1  6
 16 15  1  0
 18 16  1  0
 18 19  1  1
 20 18  1  0
 20 22  1  0
 21 20  2  0
M  END
$$$$
