AMI.pdb
     RDKit          3D

 22 21  0  0  1  0  0  0  0  0999 V2000
   28.8477  -21.3274  -16.4547 C   0  0  0  0  0  0  0  0  0  0  0  0
   27.6087  -21.8515  -15.8104 C   0  0  2  0  0  0  0  0  0  0  0  0
   26.5920  -22.0129  -16.8268 N   0  0  0  0  0  0  0  0  0  0  0  0
   27.1310  -21.0199  -14.6738 C   0  0  0  0  0  0  0  0  0  0  0  0
   27.4934  -19.8188  -14.6378 O   0  0  0  0  0  0  0  0  0  0  0  0
   21.2822  -21.3845  -13.3742 C   0  0  0  0  0  0  0  0  0  0  0  0
   21.8531  -19.8067  -14.0714 S   0  0  0  0  0  0  0  0  0  0  0  0
   23.6810  -19.7918  -13.9408 C   0  0  0  0  0  0  0  0  0  0  0  0
   24.0431  -20.8115  -12.9029 C   0  0  0  0  0  0  0  0  0  0  0  0
   25.5498  -20.7596  -12.6852 C   0  0  2  0  0  0  0  0  0  0  0  0
   26.2998  -21.5155  -13.6480 N   0  0  0  0  0  0  0  0  0  0  0  0
   25.8152  -21.1596  -11.3064 C   0  0  0  0  0  0  0  0  0  0  0  0
   26.0259  -22.3888  -11.0789 O   0  0  0  0  0  0  0  0  0  0  0  0
   28.2433  -19.3101   -6.0021 C   0  0  0  0  0  0  0  0  0  0  0  0
   27.3634  -20.3140   -6.7074 C   0  0  0  0  0  0  0  0  0  0  0  0
   26.9936  -19.7606   -8.0825 C   0  0  2  0  0  0  0  0  0  0  0  0
   26.3237  -18.4095   -7.9747 C   0  0  0  0  0  0  0  0  0  0  0  0
   26.1223  -20.7474   -8.8381 C   0  0  2  0  0  0  0  0  0  0  0  0
   25.8596  -20.2944  -10.1889 N   0  0  0  0  0  0  0  0  0  0  0  0
   24.8169  -20.9462   -8.1650 C   0  0  0  0  0  0  0  0  0  0  0  0
   23.7597  -20.4500   -8.6253 O   0  0  0  0  0  0  0  0  0  0  0  0
   24.7060  -21.6885   -6.9979 O   0  0  0  0  0  0  0  0  0  0  0  0
  2  4  1  0
  2  3  1  0
  2  1  1  6
  4  5  2  0
  7  6  1  0
  7  8  1  0
  8  9  1  0
 10  9  1  6
 10 12  1  0
 11 10  1  0
 11  4  1  0
 12 13  2  0
 12 19  1  0
 15 14  1  0
 16 17  1  1
 16 15  1  0
 18 16  1  0
 18 19  1  6
 20 18  1  0
 20 22  1  0
 21 20  2  0
M  END
$$$$
