AMI.pdb
     RDKit          3D

 22 21  0  0  1  0  0  0  0  0999 V2000
   27.6857  -18.4677  -16.7699 C   0  0  0  0  0  0  0  0  0  0  0  0
   28.5942  -19.6294  -16.5466 C   0  0  2  0  0  0  0  0  0  0  0  0
   28.5664  -20.4709  -17.7231 N   0  0  0  0  0  0  0  0  0  0  0  0
   28.2890  -20.3949  -15.3087 C   0  0  0  0  0  0  0  0  0  0  0  0
   27.2445  -21.0908  -15.2964 O   0  0  0  0  0  0  0  0  0  0  0  0
   32.4557  -22.2656  -10.2391 C   0  0  0  0  0  0  0  0  0  0  0  0
   31.0420  -21.4010   -9.4938 S   0  0  0  0  0  0  0  0  0  0  0  0
   29.6296  -21.5880  -10.6464 C   0  0  0  0  0  0  0  0  0  0  0  0
   30.0180  -20.8887  -11.9146 C   0  0  0  0  0  0  0  0  0  0  0  0
   28.8411  -20.9564  -12.8791 C   0  0  2  0  0  0  0  0  0  0  0  0
   29.1109  -20.3733  -14.1629 N   0  0  0  0  0  0  0  0  0  0  0  0
   27.6833  -20.3685  -12.2119 C   0  0  0  0  0  0  0  0  0  0  0  0
   27.5819  -19.1049  -12.2106 O   0  0  0  0  0  0  0  0  0  0  0  0
   22.0240  -19.8761  -12.6741 C   0  0  0  0  0  0  0  0  0  0  0  0
   23.0594  -19.8703  -11.5751 C   0  0  0  0  0  0  0  0  0  0  0  0
   24.3057  -20.6006  -12.0723 C   0  0  2  0  0  0  0  0  0  0  0  0
   24.0130  -22.0521  -12.3780 C   0  0  0  0  0  0  0  0  0  0  0  0
   25.4376  -20.4675  -11.0700 C   0  0  2  0  0  0  0  0  0  0  0  0
   26.6532  -21.0849  -11.5600 N   0  0  0  0  0  0  0  0  0  0  0  0
   25.0957  -21.1044   -9.7762 C   0  0  0  0  0  0  0  0  0  0  0  0
   24.1627  -20.6695   -9.0577 O   0  0  0  0  0  0  0  0  0  0  0  0
   25.7908  -22.2081   -9.3026 O   0  0  0  0  0  0  0  0  0  0  0  0
  2  4  1  0
  2  3  1  0
  2  1  1  6
  4  5  2  0
  7  6  1  0
  7  8  1  0
  8  9  1  0
 10  9  1  1
 10 12  1  0
 11 10  1  0
 11  4  1  0
 12 13  2  0
 12 19  1  0
 15 14  1  0
 16 17  1  1
 16 15  1  0
 18 16  1  0
 18 19  1  6
 20 18  1  0
 20 22  1  0
 21 20  2  0
M  END
$$$$
