MQP.pdb
     RDKit          3D

 25 25  0  0  1  0  0  0  0  0999 V2000
   22.1680  -21.6780   -8.1538 C   0  0  0  0  0  0  0  0  0  0  0  0
   23.8974  -21.5896   -7.5681 S   0  0  0  0  0  0  0  0  0  0  0  0
   24.8451  -20.4247   -8.5963 C   0  0  0  0  0  0  0  0  0  0  0  0
   25.1777  -21.0454   -9.9111 C   0  0  0  0  0  0  0  0  0  0  0  0
   24.8351  -20.2076  -11.0963 C   0  0  2  0  0  0  0  0  0  0  0  0
   23.3984  -20.1308  -11.2158 N   0  0  0  0  0  0  0  0  0  0  0  0
   25.4763  -20.6447  -12.3638 C   0  0  0  0  0  0  0  0  0  0  0  0
   26.7461  -20.7758  -12.4362 O   0  0  0  0  0  0  0  0  0  0  0  0
   26.6011  -24.0320  -16.1816 N   0  0  0  0  0  0  0  0  0  0  0  0
   25.6292  -24.3994  -15.2395 C   0  0  0  0  0  0  0  0  0  0  0  0
   25.6544  -25.4970  -14.6663 O   0  0  0  0  0  0  0  0  0  0  0  0
   24.5310  -23.4389  -14.9174 C   0  0  0  0  0  0  0  0  0  0  0  0
   24.6952  -22.1481  -15.6544 C   0  0  0  0  0  0  0  0  0  0  0  0
   25.4341  -21.1472  -14.8365 C   0  0  2  0  0  0  0  0  0  0  0  0
   24.7706  -20.9421  -13.5534 N   0  0  0  0  0  0  0  0  0  0  0  0
   25.7891  -19.9363  -15.5506 C   0  0  0  0  0  0  0  0  0  0  0  0
   24.9192  -18.9844  -15.6342 O   0  0  0  0  0  0  0  0  0  0  0  0
   27.0140  -19.6404  -16.1995 N   0  0  0  0  0  0  0  0  0  0  0  0
   28.1703  -20.4831  -16.2679 C   0  0  0  0  0  0  0  0  0  0  0  0
   29.1412  -19.7768  -17.2347 C   0  0  0  0  0  0  0  0  0  0  0  0
   28.7800  -18.3113  -16.9550 C   0  0  0  0  0  0  0  0  0  0  0  0
   27.2834  -18.4117  -16.9046 C   0  0  1  0  0  0  0  0  0  0  0  0
   26.8012  -18.4809  -18.3178 C   0  0  0  0  0  0  0  0  0  0  0  0
   26.3697  -19.5812  -18.7400 O   0  0  0  0  0  0  0  0  0  0  0  0
   26.8053  -17.4038  -19.1785 O   0  0  0  0  0  0  0  0  0  0  0  0
  1  2  1  0
  3  2  1  0
  4  3  1  0
  5  4  1  0
  5  6  1  6
  7  5  1  0
  7  8  2  0
 10  9  1  0
 11 10  2  0
 12 10  1  0
 13 12  1  0
 14 13  1  6
 14 15  1  0
 15  7  1  0
 16 18  1  0
 16 14  1  0
 17 16  2  0
 18 22  1  0
 19 18  1  0
 19 20  1  0
 20 21  1  0
 22 21  1  0
 23 25  1  0
 22 23  1  6
 24 23  2  0
M  END
$$$$
