MQP.pdb
     RDKit          3D

 25 25  0  0  1  0  0  0  0  0999 V2000
   30.0361  -20.9484   -4.6244 C   0  0  0  0  0  0  0  0  0  0  0  0
   29.1967  -19.3805   -4.2015 S   0  0  0  0  0  0  0  0  0  0  0  0
   28.0305  -18.9219   -5.5213 C   0  0  0  0  0  0  0  0  0  0  0  0
   27.9395  -20.0122   -6.5350 C   0  0  0  0  0  0  0  0  0  0  0  0
   27.5656  -19.5554   -7.9045 C   0  0  2  0  0  0  0  0  0  0  0  0
   27.0832  -18.1967   -7.8295 N   0  0  0  0  0  0  0  0  0  0  0  0
   26.6088  -20.4474   -8.6099 C   0  0  0  0  0  0  0  0  0  0  0  0
   26.8731  -21.6889   -8.7639 O   0  0  0  0  0  0  0  0  0  0  0  0
   21.1980  -22.7046   -7.8007 N   0  0  0  0  0  0  0  0  0  0  0  0
   21.4829  -21.5841   -8.5945 C   0  0  0  0  0  0  0  0  0  0  0  0
   20.5990  -20.9819   -9.2191 O   0  0  0  0  0  0  0  0  0  0  0  0
   22.8939  -21.1019   -8.6898 C   0  0  0  0  0  0  0  0  0  0  0  0
   23.2553  -20.7320  -10.0929 C   0  0  0  0  0  0  0  0  0  0  0  0
   24.7319  -20.6903  -10.2792 C   0  0  2  0  0  0  0  0  0  0  0  0
   25.3730  -20.0223   -9.1516 N   0  0  0  0  0  0  0  0  0  0  0  0
   25.1566  -20.2382  -11.5897 C   0  0  0  0  0  0  0  0  0  0  0  0
   25.1655  -18.9703  -11.8390 O   0  0  0  0  0  0  0  0  0  0  0  0
   25.5816  -21.0319  -12.6844 N   0  0  0  0  0  0  0  0  0  0  0  0
   25.7063  -22.4587  -12.7083 C   0  0  0  0  0  0  0  0  0  0  0  0
   26.0187  -22.8230  -14.1732 C   0  0  0  0  0  0  0  0  0  0  0  0
   26.8057  -21.5755  -14.5982 C   0  0  0  0  0  0  0  0  0  0  0  0
   25.9632  -20.5036  -13.9709 C   0  0  1  0  0  0  0  0  0  0  0  0
   24.7716  -20.3108  -14.8526 C   0  0  0  0  0  0  0  0  0  0  0  0
   24.9485  -19.7746  -15.9734 O   0  0  0  0  0  0  0  0  0  0  0  0
   23.4934  -20.6895  -14.5008 O   0  0  0  0  0  0  0  0  0  0  0  0
  1  2  1  0
  3  2  1  0
  4  3  1  0
  5  4  1  0
  5  6  1  1
  7  5  1  0
  7  8  2  0
 10  9  1  0
 11 10  2  0
 12 10  1  0
 13 12  1  0
 14 13  1  1
 14 15  1  0
 15  7  1  0
 16 18  1  0
 16 14  1  0
 17 16  2  0
 18 22  1  0
 19 18  1  0
 19 20  1  0
 20 21  1  0
 22 21  1  0
 23 25  1  0
 22 23  1  6
 24 23  2  0
M  END
$$$$
