MQP.pdb
     RDKit          3D

 25 25  0  0  1  0  0  0  0  0999 V2000
   25.5964  -16.8039  -14.1006 C   0  0  0  0  0  0  0  0  0  0  0  0
   26.6828  -16.2100  -15.4456 S   0  0  0  0  0  0  0  0  0  0  0  0
   27.0971  -14.4573  -15.1843 C   0  0  0  0  0  0  0  0  0  0  0  0
   26.2356  -13.5879  -16.0367 C   0  0  0  0  0  0  0  0  0  0  0  0
   24.7704  -13.7787  -15.8349 C   0  0  2  0  0  0  0  0  0  0  0  0
   24.3649  -15.0055  -16.4790 N   0  0  0  0  0  0  0  0  0  0  0  0
   23.9360  -12.6248  -16.2604 C   0  0  0  0  0  0  0  0  0  0  0  0
   24.3846  -11.7778  -17.1068 O   0  0  0  0  0  0  0  0  0  0  0  0
   17.8080  -12.7366  -16.9596 N   0  0  0  0  0  0  0  0  0  0  0  0
   18.0727  -11.4027  -17.3024 C   0  0  0  0  0  0  0  0  0  0  0  0
   17.1908  -10.6515  -17.7406 O   0  0  0  0  0  0  0  0  0  0  0  0
   19.4590  -10.8714  -17.1340 C   0  0  0  0  0  0  0  0  0  0  0  0
   20.3733  -11.8970  -16.5438 C   0  0  0  0  0  0  0  0  0  0  0  0
   21.7538  -11.3633  -16.3821 C   0  0  2  0  0  0  0  0  0  0  0  0
   22.6271  -12.3698  -15.7880 N   0  0  0  0  0  0  0  0  0  0  0  0
   21.8193  -10.0493  -15.7727 C   0  0  0  0  0  0  0  0  0  0  0  0
   21.8571   -9.9611  -14.4841 O   0  0  0  0  0  0  0  0  0  0  0  0
   21.8478   -8.7917  -16.4258 N   0  0  0  0  0  0  0  0  0  0  0  0
   21.8539   -8.5628  -17.8399 C   0  0  0  0  0  0  0  0  0  0  0  0
   21.6993   -7.0389  -18.0138 C   0  0  0  0  0  0  0  0  0  0  0  0
   22.4191   -6.5500  -16.7492 C   0  0  0  0  0  0  0  0  0  0  0  0
   21.8772   -7.5221  -15.7425 C   0  0  1  0  0  0  0  0  0  0  0  0
   20.4986   -7.0645  -15.3897 C   0  0  0  0  0  0  0  0  0  0  0  0
   20.3826   -6.0342  -14.6825 O   0  0  0  0  0  0  0  0  0  0  0  0
   19.3521   -7.7121  -15.7987 O   0  0  0  0  0  0  0  0  0  0  0  0
  1  2  1  0
  3  2  1  0
  4  3  1  0
  5  4  1  0
  5  6  1  6
  7  5  1  0
  7  8  2  0
 10  9  1  0
 11 10  2  0
 12 10  1  0
 13 12  1  0
 14 13  1  1
 14 15  1  0
 15  7  1  0
 16 18  1  0
 16 14  1  0
 17 16  2  0
 18 22  1  0
 19 18  1  0
 19 20  1  0
 20 21  1  0
 22 21  1  0
 23 25  1  0
 22 23  1  6
 24 23  2  0
M  END
$$$$
