MQP.pdb
     RDKit          3D

 25 25  0  0  1  0  0  0  0  0999 V2000
   30.6213  -21.6454  -21.1083 C   0  0  0  0  0  0  0  0  0  0  0  0
   30.3833  -20.4768  -19.7228 S   0  0  0  0  0  0  0  0  0  0  0  0
   29.7710  -21.3645  -18.2568 C   0  0  0  0  0  0  0  0  0  0  0  0
   30.1935  -22.7942  -18.3020 C   0  0  0  0  0  0  0  0  0  0  0  0
   29.5227  -23.6706  -17.2991 C   0  0  2  0  0  0  0  0  0  0  0  0
   29.7489  -23.1305  -15.9795 N   0  0  0  0  0  0  0  0  0  0  0  0
   29.9016  -25.1051  -17.3856 C   0  0  0  0  0  0  0  0  0  0  0  0
   30.9969  -25.5183  -16.8713 O   0  0  0  0  0  0  0  0  0  0  0  0
   26.2339  -30.1559  -17.9112 N   0  0  0  0  0  0  0  0  0  0  0  0
   27.4956  -30.7167  -18.1573 C   0  0  0  0  0  0  0  0  0  0  0  0
   27.6445  -31.9285  -18.3656 O   0  0  0  0  0  0  0  0  0  0  0  0
   28.6957  -29.8268  -18.1689 C   0  0  0  0  0  0  0  0  0  0  0  0
   28.3128  -28.3853  -18.0606 C   0  0  0  0  0  0  0  0  0  0  0  0
   29.5129  -27.5040  -18.0656 C   0  0  2  0  0  0  0  0  0  0  0  0
   29.1190  -26.1000  -18.0175 N   0  0  0  0  0  0  0  0  0  0  0  0
   30.4951  -27.8372  -19.0788 C   0  0  0  0  0  0  0  0  0  0  0  0
   30.4154  -27.2667  -20.2355 O   0  0  0  0  0  0  0  0  0  0  0  0
   31.5787  -28.7443  -18.9700 N   0  0  0  0  0  0  0  0  0  0  0  0
   31.9031  -29.5563  -17.8354 C   0  0  0  0  0  0  0  0  0  0  0  0
   33.0433  -30.4832  -18.3015 C   0  0  0  0  0  0  0  0  0  0  0  0
   33.7382  -29.5647  -19.3162 C   0  0  0  0  0  0  0  0  0  0  0  0
   32.5419  -28.9880  -20.0152 C   0  0  1  0  0  0  0  0  0  0  0  0
   32.0515  -30.0259  -20.9728 C   0  0  0  0  0  0  0  0  0  0  0  0
   32.7574  -30.2800  -21.9789 O   0  0  0  0  0  0  0  0  0  0  0  0
   30.8692  -30.7162  -20.8095 O   0  0  0  0  0  0  0  0  0  0  0  0
  1  2  1  0
  3  2  1  0
  4  3  1  0
  5  4  1  0
  5  6  1  1
  7  5  1  0
  7  8  2  0
 10  9  1  0
 11 10  2  0
 12 10  1  0
 13 12  1  0
 14 13  1  6
 14 15  1  0
 15  7  1  0
 16 18  1  0
 16 14  1  0
 17 16  2  0
 18 22  1  0
 19 18  1  0
 19 20  1  0
 20 21  1  0
 22 21  1  0
 23 25  1  0
 22 23  1  6
 24 23  2  0
M  END
$$$$
