MQP.pdb
     RDKit          3D

 25 25  0  0  1  0  0  0  0  0999 V2000
   24.1592  -13.1313  -15.8993 C   0  0  0  0  0  0  0  0  0  0  0  0
   22.3460  -13.3117  -16.0461 S   0  0  0  0  0  0  0  0  0  0  0  0
   21.9189  -14.0172  -17.6685 C   0  0  0  0  0  0  0  0  0  0  0  0
   23.1439  -14.5224  -18.3532 C   0  0  0  0  0  0  0  0  0  0  0  0
   23.1930  -16.0031  -18.5230 C   0  0  2  0  0  0  0  0  0  0  0  0
   21.8742  -16.4788  -18.8679 N   0  0  0  0  0  0  0  0  0  0  0  0
   23.7630  -16.7361  -17.3626 C   0  0  0  0  0  0  0  0  0  0  0  0
   24.9958  -16.5996  -17.0519 O   0  0  0  0  0  0  0  0  0  0  0  0
   20.8759  -20.7843  -13.3623 N   0  0  0  0  0  0  0  0  0  0  0  0
   22.2094  -20.8262  -12.9300 C   0  0  0  0  0  0  0  0  0  0  0  0
   22.5633  -21.5145  -11.9630 O   0  0  0  0  0  0  0  0  0  0  0  0
   23.2338  -20.0171  -13.6569 C   0  0  0  0  0  0  0  0  0  0  0  0
   22.6154  -19.1896  -14.7381 C   0  0  0  0  0  0  0  0  0  0  0  0
   23.6486  -18.4415  -15.5060 C   0  0  2  0  0  0  0  0  0  0  0  0
   23.0256  -17.6133  -16.5329 N   0  0  0  0  0  0  0  0  0  0  0  0
   24.7628  -19.2527  -15.9564 C   0  0  0  0  0  0  0  0  0  0  0  0
   24.6297  -19.9498  -17.0362 O   0  0  0  0  0  0  0  0  0  0  0  0
   26.0346  -19.3929  -15.3469 N   0  0  0  0  0  0  0  0  0  0  0  0
   26.4397  -18.8580  -14.0813 C   0  0  0  0  0  0  0  0  0  0  0  0
   27.8358  -19.4517  -13.8081 C   0  0  0  0  0  0  0  0  0  0  0  0
   28.3612  -19.5747  -15.2451 C   0  0  0  0  0  0  0  0  0  0  0  0
   27.1393  -20.1142  -15.9293 C   0  0  1  0  0  0  0  0  0  0  0  0
   27.0646  -21.5720  -15.6074 C   0  0  0  0  0  0  0  0  0  0  0  0
   26.1493  -21.9603  -14.8415 O   0  0  0  0  0  0  0  0  0  0  0  0
   27.9449  -22.5090  -16.1055 O   0  0  0  0  0  0  0  0  0  0  0  0
  1  2  1  0
  3  2  1  0
  4  3  1  0
  5  4  1  0
  5  6  1  1
  7  5  1  0
  7  8  2  0
 10  9  1  0
 11 10  2  0
 12 10  1  0
 13 12  1  0
 14 13  1  6
 14 15  1  0
 15  7  1  0
 16 18  1  0
 16 14  1  0
 17 16  2  0
 18 22  1  0
 19 18  1  0
 19 20  1  0
 20 21  1  0
 22 21  1  0
 23 25  1  0
 22 23  1  1
 24 23  2  0
M  END
$$$$
