MQP.pdb
     RDKit          3D

 25 25  0  0  1  0  0  0  0  0999 V2000
   28.6709  -10.5876  -16.4855 C   0  0  0  0  0  0  0  0  0  0  0  0
   27.4096  -11.4850  -17.4578 S   0  0  0  0  0  0  0  0  0  0  0  0
   25.8679  -11.6250  -16.5009 C   0  0  0  0  0  0  0  0  0  0  0  0
   24.8288  -12.3441  -17.2934 C   0  0  0  0  0  0  0  0  0  0  0  0
   23.5158  -12.4937  -16.6025 C   0  0  2  0  0  0  0  0  0  0  0  0
   22.8968  -13.7243  -17.0347 N   0  0  0  0  0  0  0  0  0  0  0  0
   22.6050  -11.3293  -16.7549 C   0  0  0  0  0  0  0  0  0  0  0  0
   22.1329  -11.0217  -17.9027 O   0  0  0  0  0  0  0  0  0  0  0  0
   18.2130   -9.0801  -13.0769 N   0  0  0  0  0  0  0  0  0  0  0  0
   18.2043  -10.1853  -13.9401 C   0  0  0  0  0  0  0  0  0  0  0  0
   17.3081  -11.0394  -13.9018 O   0  0  0  0  0  0  0  0  0  0  0  0
   19.3080  -10.3375  -14.9356 C   0  0  0  0  0  0  0  0  0  0  0  0
   20.3160   -9.2398  -14.8115 C   0  0  0  0  0  0  0  0  0  0  0  0
   21.3437   -9.3239  -15.8855 C   0  0  2  0  0  0  0  0  0  0  0  0
   22.1958  -10.4920  -15.6905 N   0  0  0  0  0  0  0  0  0  0  0  0
   22.0457   -8.0809  -16.1399 C   0  0  0  0  0  0  0  0  0  0  0  0
   23.1507   -7.8494  -15.5115 O   0  0  0  0  0  0  0  0  0  0  0  0
   21.6686   -7.0378  -17.0223 N   0  0  0  0  0  0  0  0  0  0  0  0
   20.5083   -7.0058  -17.8617 C   0  0  0  0  0  0  0  0  0  0  0  0
   20.4732   -5.5884  -18.4666 C   0  0  0  0  0  0  0  0  0  0  0  0
   21.9774   -5.2917  -18.5428 C   0  0  0  0  0  0  0  0  0  0  0  0
   22.4204   -5.8217  -17.2105 C   0  0  1  0  0  0  0  0  0  0  0  0
   22.0554   -4.7950  -16.1872 C   0  0  0  0  0  0  0  0  0  0  0  0
   21.0803   -5.0342  -15.4342 O   0  0  0  0  0  0  0  0  0  0  0  0
   22.7309   -3.6037  -16.0276 O   0  0  0  0  0  0  0  0  0  0  0  0
  1  2  1  0
  3  2  1  0
  4  3  1  0
  5  4  1  0
  5  6  1  6
  7  5  1  0
  7  8  2  0
 10  9  1  0
 11 10  2  0
 12 10  1  0
 13 12  1  0
 14 13  1  1
 14 15  1  0
 15  7  1  0
 16 18  1  0
 16 14  1  0
 17 16  2  0
 18 22  1  0
 19 18  1  0
 19 20  1  0
 20 21  1  0
 22 21  1  0
 23 25  1  0
 22 23  1  1
 24 23  2  0
M  END
$$$$
