MQP.pdb
     RDKit          3D

 25 25  0  0  1  0  0  0  0  0999 V2000
   22.1652  -15.2079    9.8463 C   0  0  0  0  0  0  0  0  0  0  0  0
   22.6708  -13.4805    9.5265 S   0  0  0  0  0  0  0  0  0  0  0  0
   21.7489  -12.8139    8.1060 C   0  0  0  0  0  0  0  0  0  0  0  0
   20.8051  -11.7491    8.5536 C   0  0  0  0  0  0  0  0  0  0  0  0
   19.6428  -11.5295    7.6455 C   0  0  2  0  0  0  0  0  0  0  0  0
   18.8790  -10.4028    8.1266 N   0  0  0  0  0  0  0  0  0  0  0  0
   18.7917  -12.7297    7.4356 C   0  0  0  0  0  0  0  0  0  0  0  0
   17.8295  -12.9900    8.2364 O   0  0  0  0  0  0  0  0  0  0  0  0
   17.1661  -15.5618    2.2151 N   0  0  0  0  0  0  0  0  0  0  0  0
   16.5972  -14.4346    2.8256 C   0  0  0  0  0  0  0  0  0  0  0  0
   15.8295  -13.6772    2.2166 O   0  0  0  0  0  0  0  0  0  0  0  0
   16.9265  -14.1382    4.2525 C   0  0  0  0  0  0  0  0  0  0  0  0
   17.8635  -15.1543    4.8234 C   0  0  0  0  0  0  0  0  0  0  0  0
   18.1662  -14.8695    6.2531 C   0  0  2  0  0  0  0  0  0  0  0  0
   18.9616  -13.6527    6.3770 N   0  0  0  0  0  0  0  0  0  0  0  0
   18.6601  -16.0108    6.9985 C   0  0  0  0  0  0  0  0  0  0  0  0
   19.9351  -16.2128    7.0567 O   0  0  0  0  0  0  0  0  0  0  0  0
   17.9023  -16.9795    7.7030 N   0  0  0  0  0  0  0  0  0  0  0  0
   16.4768  -17.0157    7.8396 C   0  0  0  0  0  0  0  0  0  0  0  0
   16.1606  -18.3570    8.5303 C   0  0  0  0  0  0  0  0  0  0  0  0
   17.4201  -18.5185    9.3927 C   0  0  0  0  0  0  0  0  0  0  0  0
   18.4721  -18.1017    8.4070 C   0  0  1  0  0  0  0  0  0  0  0  0
   18.6961  -19.2601    7.4892 C   0  0  0  0  0  0  0  0  0  0  0  0
   19.2904  -20.2670    7.9453 O   0  0  0  0  0  0  0  0  0  0  0  0
   18.2857  -19.2807    6.1731 O   0  0  0  0  0  0  0  0  0  0  0  0
  1  2  1  0
  3  2  1  0
  4  3  1  0
  5  4  1  0
  5  6  1  1
  7  5  1  0
  7  8  2  0
 10  9  1  0
 11 10  2  0
 12 10  1  0
 13 12  1  0
 14 13  1  6
 14 15  1  0
 15  7  1  0
 16 18  1  0
 16 14  1  0
 17 16  2  0
 18 22  1  0
 19 18  1  0
 19 20  1  0
 20 21  1  0
 22 21  1  0
 23 25  1  0
 22 23  1  6
 24 23  2  0
M  END
$$$$
