MQP.pdb
     RDKit          3D

 25 25  0  0  1  0  0  0  0  0999 V2000
   33.2532  -24.7007  -12.3566 C   0  0  0  0  0  0  0  0  0  0  0  0
   33.7292  -23.6058  -10.9722 S   0  0  0  0  0  0  0  0  0  0  0  0
   32.8242  -22.0308  -11.0835 C   0  0  0  0  0  0  0  0  0  0  0  0
   31.4714  -22.2502  -11.6720 C   0  0  0  0  0  0  0  0  0  0  0  0
   30.6770  -21.0055  -11.8806 C   0  0  2  0  0  0  0  0  0  0  0  0
   30.8587  -20.1376  -10.7412 N   0  0  0  0  0  0  0  0  0  0  0  0
   29.2398  -21.2368  -12.1802 C   0  0  0  0  0  0  0  0  0  0  0  0
   28.8930  -21.9226  -13.2021 O   0  0  0  0  0  0  0  0  0  0  0  0
   24.1862  -20.8531   -8.4181 N   0  0  0  0  0  0  0  0  0  0  0  0
   23.5865  -20.8825   -9.6855 C   0  0  0  0  0  0  0  0  0  0  0  0
   22.3563  -20.8705   -9.8285 O   0  0  0  0  0  0  0  0  0  0  0  0
   24.4565  -20.9295  -10.8993 C   0  0  0  0  0  0  0  0  0  0  0  0
   25.9043  -20.8136  -10.5433 C   0  0  0  0  0  0  0  0  0  0  0  0
   26.7707  -20.9475  -11.7467 C   0  0  2  0  0  0  0  0  0  0  0  0
   28.1717  -20.7405  -11.3964 N   0  0  0  0  0  0  0  0  0  0  0  0
   26.3057  -20.2071  -12.9034 C   0  0  0  0  0  0  0  0  0  0  0  0
   26.4795  -18.9271  -12.9351 O   0  0  0  0  0  0  0  0  0  0  0  0
   25.6569  -20.7176  -14.0555 N   0  0  0  0  0  0  0  0  0  0  0  0
   25.3813  -22.0937  -14.3422 C   0  0  0  0  0  0  0  0  0  0  0  0
   24.5054  -22.0856  -15.6107 C   0  0  0  0  0  0  0  0  0  0  0  0
   25.0574  -20.8356  -16.3101 C   0  0  0  0  0  0  0  0  0  0  0  0
   25.1665  -19.9027  -15.1395 C   0  0  1  0  0  0  0  0  0  0  0  0
   23.7900  -19.3938  -14.8552 C   0  0  0  0  0  0  0  0  0  0  0  0
   23.1763  -19.8728  -13.8708 O   0  0  0  0  0  0  0  0  0  0  0  0
   23.1616  -18.4296  -15.6144 O   0  0  0  0  0  0  0  0  0  0  0  0
  1  2  1  0
  3  2  1  0
  4  3  1  0
  5  4  1  0
  5  6  1  1
  7  5  1  0
  7  8  2  0
 10  9  1  0
 11 10  2  0
 12 10  1  0
 13 12  1  0
 14 13  1  1
 14 15  1  0
 15  7  1  0
 16 18  1  0
 16 14  1  0
 17 16  2  0
 18 22  1  0
 19 18  1  0
 19 20  1  0
 20 21  1  0
 22 21  1  0
 23 25  1  0
 22 23  1  1
 24 23  2  0
M  END
$$$$
