MQP.pdb
     RDKit          3D

 25 25  0  0  1  0  0  0  0  0999 V2000
   29.8140  -19.5446   -7.4137 C   0  0  0  0  0  0  0  0  0  0  0  0
   28.7390  -19.0911   -6.0064 S   0  0  0  0  0  0  0  0  0  0  0  0
   26.9894  -19.2507   -6.4815 C   0  0  0  0  0  0  0  0  0  0  0  0
   26.8703  -19.9412   -7.7982 C   0  0  0  0  0  0  0  0  0  0  0  0
   25.4695  -20.1395   -8.2695 C   0  0  2  0  0  0  0  0  0  0  0  0
   24.7931  -21.0368   -7.3630 N   0  0  0  0  0  0  0  0  0  0  0  0
   25.3538  -20.5848   -9.6827 C   0  0  0  0  0  0  0  0  0  0  0  0
   25.6017  -21.7977  -10.0024 O   0  0  0  0  0  0  0  0  0  0  0  0
   21.7674  -21.0666  -14.3615 N   0  0  0  0  0  0  0  0  0  0  0  0
   21.5113  -21.1546  -12.9855 C   0  0  0  0  0  0  0  0  0  0  0  0
   20.5281  -21.7617  -12.5396 O   0  0  0  0  0  0  0  0  0  0  0  0
   22.4518  -20.4970  -12.0286 C   0  0  0  0  0  0  0  0  0  0  0  0
   23.5887  -19.8364  -12.7409 C   0  0  0  0  0  0  0  0  0  0  0  0
   24.8971  -20.2092  -12.1360 C   0  0  2  0  0  0  0  0  0  0  0  0
   24.9758  -19.7436  -10.7556 N   0  0  0  0  0  0  0  0  0  0  0  0
   26.0477  -19.8974  -12.9612 C   0  0  0  0  0  0  0  0  0  0  0  0
   26.6080  -18.7396  -12.8376 O   0  0  0  0  0  0  0  0  0  0  0  0
   26.6698  -20.7253  -13.9290 N   0  0  0  0  0  0  0  0  0  0  0  0
   26.3295  -22.0817  -14.2393 C   0  0  0  0  0  0  0  0  0  0  0  0
   27.1745  -22.4486  -15.4754 C   0  0  0  0  0  0  0  0  0  0  0  0
   28.4184  -21.5876  -15.2155 C   0  0  0  0  0  0  0  0  0  0  0  0
   27.7690  -20.3115  -14.7658 C   0  0  1  0  0  0  0  0  0  0  0  0
   27.2818  -19.6116  -15.9936 C   0  0  0  0  0  0  0  0  0  0  0  0
   28.1339  -19.0795  -16.7458 O   0  0  0  0  0  0  0  0  0  0  0  0
   25.9509  -19.5202  -16.3418 O   0  0  0  0  0  0  0  0  0  0  0  0
  1  2  1  0
  3  2  1  0
  4  3  1  0
  5  4  1  0
  5  6  1  1
  7  5  1  0
  7  8  2  0
 10  9  1  0
 11 10  2  0
 12 10  1  0
 13 12  1  0
 14 13  1  6
 14 15  1  0
 15  7  1  0
 16 18  1  0
 16 14  1  0
 17 16  2  0
 18 22  1  0
 19 18  1  0
 19 20  1  0
 20 21  1  0
 22 21  1  0
 23 25  1  0
 22 23  1  6
 24 23  2  0
M  END
$$$$
