MQP.pdb
     RDKit          3D

 25 25  0  0  1  0  0  0  0  0999 V2000
   28.6261  -21.5380   -4.0235 C   0  0  0  0  0  0  0  0  0  0  0  0
   29.2616  -19.8256   -4.0978 S   0  0  0  0  0  0  0  0  0  0  0  0
   28.6051  -18.9803   -5.5698 C   0  0  0  0  0  0  0  0  0  0  0  0
   28.1951  -19.9771   -6.6008 C   0  0  0  0  0  0  0  0  0  0  0  0
   27.7099  -19.3825   -7.8793 C   0  0  2  0  0  0  0  0  0  0  0  0
   26.8918  -18.2313   -7.5796 N   0  0  0  0  0  0  0  0  0  0  0  0
   27.0143  -20.3406   -8.7777 C   0  0  0  0  0  0  0  0  0  0  0  0
   27.6241  -21.3736   -9.2203 O   0  0  0  0  0  0  0  0  0  0  0  0
   21.0008  -20.9776  -10.7256 N   0  0  0  0  0  0  0  0  0  0  0  0
   21.7174  -21.2029  -11.9099 C   0  0  0  0  0  0  0  0  0  0  0  0
   21.1502  -21.4713  -12.9777 O   0  0  0  0  0  0  0  0  0  0  0  0
   23.2088  -21.1167  -11.8834 C   0  0  0  0  0  0  0  0  0  0  0  0
   23.7146  -20.7498  -10.5249 C   0  0  0  0  0  0  0  0  0  0  0  0
   25.2019  -20.6861  -10.4993 C   0  0  2  0  0  0  0  0  0  0  0  0
   25.6731  -20.2024   -9.2061 N   0  0  0  0  0  0  0  0  0  0  0  0
   25.7925  -20.0395  -11.6549 C   0  0  0  0  0  0  0  0  0  0  0  0
   25.6987  -18.7556  -11.7664 O   0  0  0  0  0  0  0  0  0  0  0  0
   26.4893  -20.6500  -12.7277 N   0  0  0  0  0  0  0  0  0  0  0  0
   26.7812  -22.0448  -12.8737 C   0  0  0  0  0  0  0  0  0  0  0  0
   27.3817  -22.1970  -14.2853 C   0  0  0  0  0  0  0  0  0  0  0  0
   28.0796  -20.8373  -14.4282 C   0  0  0  0  0  0  0  0  0  0  0  0
   27.0228  -19.9353  -13.8609 C   0  0  1  0  0  0  0  0  0  0  0  0
   25.9868  -19.7524  -14.9229 C   0  0  0  0  0  0  0  0  0  0  0  0
   24.8869  -20.3398  -14.7806 O   0  0  0  0  0  0  0  0  0  0  0  0
   26.1752  -18.9753  -16.0462 O   0  0  0  0  0  0  0  0  0  0  0  0
  1  2  1  0
  3  2  1  0
  4  3  1  0
  5  4  1  0
  5  6  1  1
  7  5  1  0
  7  8  2  0
 10  9  1  0
 11 10  2  0
 12 10  1  0
 13 12  1  0
 14 13  1  1
 14 15  1  0
 15  7  1  0
 16 18  1  0
 16 14  1  0
 17 16  2  0
 18 22  1  0
 19 18  1  0
 19 20  1  0
 20 21  1  0
 22 21  1  0
 23 25  1  0
 22 23  1  6
 24 23  2  0
M  END
$$$$
