MQP.pdb
     RDKit          3D

 25 25  0  0  1  0  0  0  0  0999 V2000
   21.0445  -18.7152  -24.0454 C   0  0  0  0  0  0  0  0  0  0  0  0
   21.7502  -18.7277  -22.3592 S   0  0  0  0  0  0  0  0  0  0  0  0
   20.6808  -17.7839  -21.2288 C   0  0  0  0  0  0  0  0  0  0  0  0
   21.2903  -17.7218  -19.8689 C   0  0  0  0  0  0  0  0  0  0  0  0
   21.7677  -19.0331  -19.3431 C   0  0  2  0  0  0  0  0  0  0  0  0
   20.6240  -19.8409  -18.9913 N   0  0  0  0  0  0  0  0  0  0  0  0
   22.7407  -18.9293  -18.2246 C   0  0  0  0  0  0  0  0  0  0  0  0
   23.7524  -18.1526  -18.3156 O   0  0  0  0  0  0  0  0  0  0  0  0
   20.7237  -21.4243  -14.3755 N   0  0  0  0  0  0  0  0  0  0  0  0
   20.5237  -20.0428  -14.2407 C   0  0  0  0  0  0  0  0  0  0  0  0
   19.4049  -19.5617  -14.0153 O   0  0  0  0  0  0  0  0  0  0  0  0
   21.6943  -19.1237  -14.3728 C   0  0  0  0  0  0  0  0  0  0  0  0
   22.9614  -19.8786  -14.6194 C   0  0  0  0  0  0  0  0  0  0  0  0
   23.5854  -19.4823  -15.9119 C   0  0  2  0  0  0  0  0  0  0  0  0
   22.6404  -19.6491  -17.0108 N   0  0  0  0  0  0  0  0  0  0  0  0
   24.9027  -20.0449  -16.1371 C   0  0  0  0  0  0  0  0  0  0  0  0
   24.9958  -21.2509  -16.5917 O   0  0  0  0  0  0  0  0  0  0  0  0
   26.1585  -19.4261  -15.9162 N   0  0  0  0  0  0  0  0  0  0  0  0
   26.3868  -18.1459  -15.3156 C   0  0  0  0  0  0  0  0  0  0  0  0
   27.9148  -18.0345  -15.1453 C   0  0  0  0  0  0  0  0  0  0  0  0
   28.3805  -18.8554  -16.3558 C   0  0  0  0  0  0  0  0  0  0  0  0
   27.4266  -20.0112  -16.2757 C   0  0  1  0  0  0  0  0  0  0  0  0
   27.9286  -20.9198  -15.2001 C   0  0  0  0  0  0  0  0  0  0  0  0
   27.3259  -20.9191  -14.0992 O   0  0  0  0  0  0  0  0  0  0  0  0
   29.0147  -21.7553  -15.3530 O   0  0  0  0  0  0  0  0  0  0  0  0
  1  2  1  0
  3  2  1  0
  4  3  1  0
  5  4  1  0
  5  6  1  1
  7  5  1  0
  7  8  2  0
 10  9  1  0
 11 10  2  0
 12 10  1  0
 13 12  1  0
 14 13  1  1
 14 15  1  0
 15  7  1  0
 16 18  1  0
 16 14  1  0
 17 16  2  0
 18 22  1  0
 19 18  1  0
 19 20  1  0
 20 21  1  0
 22 21  1  0
 23 25  1  0
 22 23  1  1
 24 23  2  0
M  END
$$$$
