MQP.pdb
     RDKit          3D

 25 25  0  0  1  0  0  0  0  0999 V2000
   29.0780  -18.6277   -7.4625 C   0  0  0  0  0  0  0  0  0  0  0  0
   28.1644  -19.7526   -6.3482 S   0  0  0  0  0  0  0  0  0  0  0  0
   26.4461  -19.9356   -6.9189 C   0  0  0  0  0  0  0  0  0  0  0  0
   26.4147  -20.2647   -8.3734 C   0  0  0  0  0  0  0  0  0  0  0  0
   25.0472  -20.3307   -8.9645 C   0  0  2  0  0  0  0  0  0  0  0  0
   24.2107  -21.1494   -8.1193 N   0  0  0  0  0  0  0  0  0  0  0  0
   25.0113  -20.7762  -10.3819 C   0  0  0  0  0  0  0  0  0  0  0  0
   25.4665  -21.9245  -10.7121 O   0  0  0  0  0  0  0  0  0  0  0  0
   22.2554  -22.3445  -14.7268 N   0  0  0  0  0  0  0  0  0  0  0  0
   21.6065  -21.9495  -13.5479 C   0  0  0  0  0  0  0  0  0  0  0  0
   20.6582  -22.5911  -13.0756 O   0  0  0  0  0  0  0  0  0  0  0  0
   22.0724  -20.7187  -12.8404 C   0  0  0  0  0  0  0  0  0  0  0  0
   23.2498  -20.1024  -13.5260 C   0  0  0  0  0  0  0  0  0  0  0  0
   24.5223  -20.4512  -12.8362 C   0  0  2  0  0  0  0  0  0  0  0  0
   24.4931  -20.0037  -11.4479 N   0  0  0  0  0  0  0  0  0  0  0  0
   25.7190  -20.0990  -13.5753 C   0  0  0  0  0  0  0  0  0  0  0  0
   26.2074  -18.9103  -13.4407 O   0  0  0  0  0  0  0  0  0  0  0  0
   26.4594  -20.9162  -14.4658 N   0  0  0  0  0  0  0  0  0  0  0  0
   26.1748  -22.2759  -14.8151 C   0  0  0  0  0  0  0  0  0  0  0  0
   27.1616  -22.6286  -15.9457 C   0  0  0  0  0  0  0  0  0  0  0  0
   28.3559  -21.7526  -15.5427 C   0  0  0  0  0  0  0  0  0  0  0  0
   27.6424  -20.4862  -15.1695 C   0  0  1  0  0  0  0  0  0  0  0  0
   27.2914  -19.7891  -16.4444 C   0  0  0  0  0  0  0  0  0  0  0  0
   26.0828  -19.7484  -16.7803 O   0  0  0  0  0  0  0  0  0  0  0  0
   28.2217  -19.1908  -17.2675 O   0  0  0  0  0  0  0  0  0  0  0  0
  1  2  1  0
  3  2  1  0
  4  3  1  0
  5  4  1  0
  5  6  1  1
  7  5  1  0
  7  8  2  0
 10  9  1  0
 11 10  2  0
 12 10  1  0
 13 12  1  0
 14 13  1  6
 14 15  1  0
 15  7  1  0
 16 18  1  0
 16 14  1  0
 17 16  2  0
 18 22  1  0
 19 18  1  0
 19 20  1  0
 20 21  1  0
 22 21  1  0
 23 25  1  0
 22 23  1  6
 24 23  2  0
M  END
$$$$
