GEY.pdb
     RDKit          3D

 26 26  0  0  1  0  0  0  0  0999 V2000
   28.7598  -22.6391  -16.8748 N   0  0  0  0  0  0  0  0  0  0  0  0
   27.5670  -23.0524  -16.1877 C   0  0  0  0  0  0  0  0  0  0  0  0
   27.1064  -22.0047  -15.2168 C   0  0  0  0  0  0  0  0  0  0  0  0
   27.7257  -20.9198  -15.0840 O   0  0  0  0  0  0  0  0  0  0  0  0
   25.9531  -22.1935  -14.4076 N   0  0  0  0  0  0  0  0  0  0  0  0
   25.3730  -21.0953  -13.6165 C   0  0  1  0  0  0  0  0  0  0  0  0
   23.9130  -21.1090  -13.8709 C   0  0  0  0  0  0  0  0  0  0  0  0
   23.4381  -20.3056  -15.0275 C   0  0  0  0  0  0  0  0  0  0  0  0
   22.1439  -19.6428  -14.8350 C   0  0  0  0  0  0  0  0  0  0  0  0
   21.0694  -20.2899  -14.8169 O   0  0  0  0  0  0  0  0  0  0  0  0
   25.7534  -21.3443  -12.2196 C   0  0  0  0  0  0  0  0  0  0  0  0
   25.5465  -22.4887  -11.7400 O   0  0  0  0  0  0  0  0  0  0  0  0
   22.0767  -18.2700  -14.6666 O   0  0  0  0  0  0  0  0  0  0  0  0
   28.8047  -20.2649   -4.0183 O   0  0  0  0  0  0  0  0  0  0  0  0
   28.4943  -20.1051   -5.3645 C   0  0  0  0  0  0  0  0  0  0  0  0
   27.4903  -19.2414   -5.7375 C   0  0  0  0  0  0  0  0  0  0  0  0
   27.1857  -19.0843   -7.0559 C   0  0  0  0  0  0  0  0  0  0  0  0
   27.8839  -19.7909   -8.0153 C   0  0  0  0  0  0  0  0  0  0  0  0
   27.5733  -19.6545   -9.4453 C   0  0  0  0  0  0  0  0  0  0  0  0
   26.6547  -20.7218   -9.9678 C   0  0  2  0  0  0  0  0  0  0  0  0
   26.3442  -20.3754  -11.3631 N   0  0  0  0  0  0  0  0  0  0  0  0
   25.4193  -20.7779   -9.1630 C   0  0  0  0  0  0  0  0  0  0  0  0
   25.3479  -21.6050   -8.2024 O   0  0  0  0  0  0  0  0  0  0  0  0
   28.8831  -20.6504   -7.6413 C   0  0  0  0  0  0  0  0  0  0  0  0
   29.1882  -20.8072   -6.3137 C   0  0  0  0  0  0  0  0  0  0  0  0
   24.3198  -19.9921   -9.3718 O   0  0  0  0  0  0  0  0  0  0  0  0
  2  1  1  0
  3  2  1  0
  4  3  2  0
  5  3  1  0
  6  5  1  0
  6  7  1  1
  8  7  1  0
  9  8  1  0
 10  9  2  0
 11  6  1  0
 11 21  1  0
 12 11  2  0
 13  9  1  0
 15 14  1  0
 16 15  2  0
 17 16  1  0
 18 17  2  0
 18 24  1  0
 19 18  1  0
 20 21  1  0
 20 22  1  0
 20 19  1  1
 22 26  1  0
 23 22  2  0
 24 25  2  0
 25 15  1  0
M  END
$$$$
