GEY.pdb
     RDKit          3D

 26 26  0  0  1  0  0  0  0  0999 V2000
   17.5396  -11.3982  -18.9194 N   0  0  0  0  0  0  0  0  0  0  0  0
   17.2622  -10.0200  -18.6205 C   0  0  0  0  0  0  0  0  0  0  0  0
   18.5251   -9.2571  -18.3451 C   0  0  0  0  0  0  0  0  0  0  0  0
   19.4487   -9.7514  -17.6518 O   0  0  0  0  0  0  0  0  0  0  0  0
   18.7305   -7.9463  -18.8549 N   0  0  0  0  0  0  0  0  0  0  0  0
   19.9200   -7.1541  -18.5001 C   0  0  1  0  0  0  0  0  0  0  0  0
   20.0004   -6.0416  -19.4759 C   0  0  0  0  0  0  0  0  0  0  0  0
   21.1007   -5.0638  -19.2713 C   0  0  0  0  0  0  0  0  0  0  0  0
   21.1453   -3.9654  -20.2423 C   0  0  0  0  0  0  0  0  0  0  0  0
   22.0123   -3.0614  -20.1741 O   0  0  0  0  0  0  0  0  0  0  0  0
   19.7367   -6.7326  -17.1048 C   0  0  0  0  0  0  0  0  0  0  0  0
   18.5672   -6.5138  -16.6966 O   0  0  0  0  0  0  0  0  0  0  0  0
   20.2198   -3.8994  -21.2702 O   0  0  0  0  0  0  0  0  0  0  0  0
   19.8279   -5.9306   -8.5126 O   0  0  0  0  0  0  0  0  0  0  0  0
   20.1324   -6.2182   -9.8388 C   0  0  0  0  0  0  0  0  0  0  0  0
   21.3301   -5.8007  -10.3720 C   0  0  0  0  0  0  0  0  0  0  0  0
   21.6291   -6.0822  -11.6709 C   0  0  0  0  0  0  0  0  0  0  0  0
   20.7312   -6.7852  -12.4498 C   0  0  0  0  0  0  0  0  0  0  0  0
   21.0164   -7.0953  -13.8579 C   0  0  0  0  0  0  0  0  0  0  0  0
   20.5071   -6.0597  -14.8191 C   0  0  2  0  0  0  0  0  0  0  0  0
   20.7965   -6.5526  -16.1743 N   0  0  0  0  0  0  0  0  0  0  0  0
   21.1779   -4.7662  -14.5865 C   0  0  0  0  0  0  0  0  0  0  0  0
   22.2901   -4.5390  -15.1550 O   0  0  0  0  0  0  0  0  0  0  0  0
   19.5392   -7.1995  -11.9166 C   0  0  0  0  0  0  0  0  0  0  0  0
   19.2401   -6.9154  -10.6089 C   0  0  0  0  0  0  0  0  0  0  0  0
   20.6867   -3.7686  -13.7906 O   0  0  0  0  0  0  0  0  0  0  0  0
  2  1  1  0
  3  2  1  0
  4  3  2  0
  5  3  1  0
  6  5  1  0
  6  7  1  6
  8  7  1  0
  9  8  1  0
 10  9  2  0
 11  6  1  0
 11 21  1  0
 12 11  2  0
 13  9  1  0
 15 14  1  0
 16 15  2  0
 17 16  1  0
 18 17  2  0
 18 24  1  0
 19 18  1  0
 20 21  1  0
 20 22  1  0
 20 19  1  1
 22 26  1  0
 23 22  2  0
 24 25  2  0
 25 15  1  0
M  END
$$$$
