GEY.pdb
     RDKit          3D

 26 26  0  0  1  0  0  0  0  0999 V2000
   24.4562  -33.2427   -7.2193 N   0  0  0  0  0  0  0  0  0  0  0  0
   24.2068  -33.8184   -5.9262 C   0  0  0  0  0  0  0  0  0  0  0  0
   23.0064  -33.1961   -5.2748 C   0  0  0  0  0  0  0  0  0  0  0  0
   22.6430  -32.0270   -5.5564 O   0  0  0  0  0  0  0  0  0  0  0  0
   22.2307  -33.9000   -4.3139 N   0  0  0  0  0  0  0  0  0  0  0  0
   21.0506  -33.2934   -3.6753 C   0  0  1  0  0  0  0  0  0  0  0  0
   20.0995  -34.3956   -3.3983 C   0  0  0  0  0  0  0  0  0  0  0  0
   18.8041  -34.0087   -2.7810 C   0  0  0  0  0  0  0  0  0  0  0  0
   17.8708  -35.1159   -2.5480 C   0  0  0  0  0  0  0  0  0  0  0  0
   16.8599  -35.2877   -3.2706 O   0  0  0  0  0  0  0  0  0  0  0  0
   21.5398  -32.5920   -2.4809 C   0  0  0  0  0  0  0  0  0  0  0  0
   22.4948  -33.1009   -1.8396 O   0  0  0  0  0  0  0  0  0  0  0  0
   18.0861  -36.0089   -1.5119 O   0  0  0  0  0  0  0  0  0  0  0  0
   17.8271  -26.1915   -3.1772 O   0  0  0  0  0  0  0  0  0  0  0  0
   18.8622  -26.9750   -2.6783 C   0  0  0  0  0  0  0  0  0  0  0  0
   19.1268  -26.9804   -1.3280 C   0  0  0  0  0  0  0  0  0  0  0  0
   20.1404  -27.7477   -0.8385 C   0  0  0  0  0  0  0  0  0  0  0  0
   20.9002  -28.5181   -1.6967 C   0  0  0  0  0  0  0  0  0  0  0  0
   22.0087  -29.3479   -1.2041 C   0  0  0  0  0  0  0  0  0  0  0  0
   21.5928  -30.7342   -0.8027 C   0  0  2  0  0  0  0  0  0  0  0  0
   21.0060  -31.3678   -1.9932 N   0  0  0  0  0  0  0  0  0  0  0  0
   20.6053  -30.6794    0.2923 C   0  0  0  0  0  0  0  0  0  0  0  0
   20.9563  -30.1988    1.4138 O   0  0  0  0  0  0  0  0  0  0  0  0
   20.6348  -28.5107   -3.0408 C   0  0  0  0  0  0  0  0  0  0  0  0
   19.6141  -27.7379   -3.5315 C   0  0  0  0  0  0  0  0  0  0  0  0
   19.3121  -31.1131    0.1944 O   0  0  0  0  0  0  0  0  0  0  0  0
  2  1  1  0
  3  2  1  0
  4  3  2  0
  5  3  1  0
  6  5  1  0
  6  7  1  1
  8  7  1  0
  9  8  1  0
 10  9  2  0
 11  6  1  0
 11 21  1  0
 12 11  2  0
 13  9  1  0
 15 14  1  0
 16 15  2  0
 17 16  1  0
 18 17  2  0
 18 24  1  0
 19 18  1  0
 20 21  1  0
 20 22  1  0
 20 19  1  6
 22 26  1  0
 23 22  2  0
 24 25  2  0
 25 15  1  0
M  END
$$$$
