GEY.pdb
     RDKit          3D

 26 26  0  0  1  0  0  0  0  0999 V2000
   26.3283  -23.9613  -16.4999 N   0  0  0  0  0  0  0  0  0  0  0  0
   25.5462  -23.0918  -17.3355 C   0  0  0  0  0  0  0  0  0  0  0  0
   25.1932  -21.8206  -16.6201 C   0  0  0  0  0  0  0  0  0  0  0  0
   25.6262  -21.5788  -15.4658 O   0  0  0  0  0  0  0  0  0  0  0  0
   24.3564  -20.8377  -17.2152 N   0  0  0  0  0  0  0  0  0  0  0  0
   23.9575  -19.6185  -16.4922 C   0  0  1  0  0  0  0  0  0  0  0  0
   23.7027  -18.5776  -17.5159 C   0  0  0  0  0  0  0  0  0  0  0  0
   24.7773  -17.5701  -17.7130 C   0  0  0  0  0  0  0  0  0  0  0  0
   25.9732  -18.0634  -18.4042 C   0  0  0  0  0  0  0  0  0  0  0  0
   25.9079  -18.9752  -19.2631 O   0  0  0  0  0  0  0  0  0  0  0  0
   22.7864  -19.9806  -15.6826 C   0  0  0  0  0  0  0  0  0  0  0  0
   21.9304  -20.7538  -16.1844 O   0  0  0  0  0  0  0  0  0  0  0  0
   27.2183  -17.5274  -18.1215 O   0  0  0  0  0  0  0  0  0  0  0  0
   17.3331  -21.2662   -8.9001 O   0  0  0  0  0  0  0  0  0  0  0  0
   18.4054  -20.9101   -9.7109 C   0  0  0  0  0  0  0  0  0  0  0  0
   18.5454  -19.6060  -10.1269 C   0  0  0  0  0  0  0  0  0  0  0  0
   19.5956  -19.2565  -10.9210 C   0  0  0  0  0  0  0  0  0  0  0  0
   20.5171  -20.2098  -11.3072 C   0  0  0  0  0  0  0  0  0  0  0  0
   21.6548  -19.8697  -12.1733 C   0  0  0  0  0  0  0  0  0  0  0  0
   21.3386  -19.9384  -13.6399 C   0  0  2  0  0  0  0  0  0  0  0  0
   22.5492  -19.5154  -14.3602 N   0  0  0  0  0  0  0  0  0  0  0  0
   20.2073  -19.0489  -13.9655 C   0  0  0  0  0  0  0  0  0  0  0  0
   20.4344  -17.8186  -14.1814 O   0  0  0  0  0  0  0  0  0  0  0  0
   20.3752  -21.5076  -10.8920 C   0  0  0  0  0  0  0  0  0  0  0  0
   19.3177  -21.8576  -10.0925 C   0  0  0  0  0  0  0  0  0  0  0  0
   18.9037  -19.4519  -14.0571 O   0  0  0  0  0  0  0  0  0  0  0  0
  2  1  1  0
  3  2  1  0
  4  3  2  0
  5  3  1  0
  6  5  1  0
  6  7  1  6
  8  7  1  0
  9  8  1  0
 10  9  2  0
 11  6  1  0
 11 21  1  0
 12 11  2  0
 13  9  1  0
 15 14  1  0
 16 15  2  0
 17 16  1  0
 18 17  2  0
 18 24  1  0
 19 18  1  0
 20 21  1  0
 20 22  1  0
 20 19  1  1
 22 26  1  0
 23 22  2  0
 24 25  2  0
 25 15  1  0
M  END
$$$$
