GEY.pdb
     RDKit          3D

 26 26  0  0  1  0  0  0  0  0999 V2000
   28.4928  -18.4594  -15.4845 N   0  0  0  0  0  0  0  0  0  0  0  0
   28.0532  -19.7638  -15.0708 C   0  0  0  0  0  0  0  0  0  0  0  0
   27.0883  -19.6757  -13.9245 C   0  0  0  0  0  0  0  0  0  0  0  0
   26.7850  -18.5707  -13.4095 O   0  0  0  0  0  0  0  0  0  0  0  0
   26.4774  -20.8348  -13.3734 N   0  0  0  0  0  0  0  0  0  0  0  0
   25.4207  -20.7429  -12.3520 C   0  0  1  0  0  0  0  0  0  0  0  0
   24.3469  -21.6786  -12.7613 C   0  0  0  0  0  0  0  0  0  0  0  0
   23.4203  -21.1965  -13.8185 C   0  0  0  0  0  0  0  0  0  0  0  0
   22.3213  -20.3492  -13.3434 C   0  0  0  0  0  0  0  0  0  0  0  0
   21.6111  -20.6804  -12.3640 O   0  0  0  0  0  0  0  0  0  0  0  0
   26.0564  -21.0646  -11.0673 C   0  0  0  0  0  0  0  0  0  0  0  0
   26.7913  -22.0836  -11.0041 O   0  0  0  0  0  0  0  0  0  0  0  0
   22.0384  -19.1486  -13.9727 O   0  0  0  0  0  0  0  0  0  0  0  0
   29.5959  -20.1553   -3.0640 O   0  0  0  0  0  0  0  0  0  0  0  0
   29.0464  -20.0068   -4.3329 C   0  0  0  0  0  0  0  0  0  0  0  0
   29.5856  -20.6929   -5.3968 C   0  0  0  0  0  0  0  0  0  0  0  0
   29.0479  -20.5480   -6.6400 C   0  0  0  0  0  0  0  0  0  0  0  0
   27.9639  -19.7140   -6.8310 C   0  0  0  0  0  0  0  0  0  0  0  0
   27.3668  -19.5251   -8.1606 C   0  0  0  0  0  0  0  0  0  0  0  0
   26.5843  -20.7120   -8.6450 C   0  0  2  0  0  0  0  0  0  0  0  0
   25.8990  -20.2996   -9.8793 N   0  0  0  0  0  0  0  0  0  0  0  0
   25.6034  -21.1333   -7.6264 C   0  0  0  0  0  0  0  0  0  0  0  0
   25.9941  -21.8545   -6.6573 O   0  0  0  0  0  0  0  0  0  0  0  0
   27.4290  -19.0317   -5.7701 C   0  0  0  0  0  0  0  0  0  0  0  0
   27.9716  -19.1789   -4.5195 C   0  0  0  0  0  0  0  0  0  0  0  0
   24.2770  -20.8011   -7.6411 O   0  0  0  0  0  0  0  0  0  0  0  0
  2  1  1  0
  3  2  1  0
  4  3  2  0
  5  3  1  0
  6  5  1  0
  6  7  1  6
  8  7  1  0
  9  8  1  0
 10  9  2  0
 11  6  1  0
 11 21  1  0
 12 11  2  0
 13  9  1  0
 15 14  1  0
 16 15  2  0
 17 16  1  0
 18 17  2  0
 18 24  1  0
 19 18  1  0
 20 21  1  0
 20 22  1  0
 20 19  1  1
 22 26  1  0
 23 22  2  0
 24 25  2  0
 25 15  1  0
M  END
$$$$
