GEY.pdb
     RDKit          3D

 26 26  0  0  1  0  0  0  0  0999 V2000
   13.9562   -9.9475  -15.9455 N   0  0  0  0  0  0  0  0  0  0  0  0
   14.8616   -9.5480  -16.9879 C   0  0  0  0  0  0  0  0  0  0  0  0
   16.2910   -9.7041  -16.5578 C   0  0  0  0  0  0  0  0  0  0  0  0
   16.6057   -9.7543  -15.3426 O   0  0  0  0  0  0  0  0  0  0  0  0
   17.3477   -9.8018  -17.5035 N   0  0  0  0  0  0  0  0  0  0  0  0
   18.7512   -9.9541  -17.0846 C   0  0  1  0  0  0  0  0  0  0  0  0
   19.4095  -10.8130  -18.0972 C   0  0  0  0  0  0  0  0  0  0  0  0
   20.8545  -11.0902  -17.8871 C   0  0  0  0  0  0  0  0  0  0  0  0
   21.7369   -9.9262  -18.0204 C   0  0  0  0  0  0  0  0  0  0  0  0
   22.0242   -9.2022  -17.0371 O   0  0  0  0  0  0  0  0  0  0  0  0
   19.3030   -8.5966  -16.9812 C   0  0  0  0  0  0  0  0  0  0  0  0
   18.9983   -7.7597  -17.8696 O   0  0  0  0  0  0  0  0  0  0  0  0
   22.2806   -9.5949  -19.2500 O   0  0  0  0  0  0  0  0  0  0  0  0
   21.7721   -0.6811  -14.6818 O   0  0  0  0  0  0  0  0  0  0  0  0
   21.3334   -1.9994  -14.7435 C   0  0  0  0  0  0  0  0  0  0  0  0
   21.8245   -2.9265  -13.8533 C   0  0  0  0  0  0  0  0  0  0  0  0
   21.3952   -4.2179  -13.9131 C   0  0  0  0  0  0  0  0  0  0  0  0
   20.4689   -4.5946  -14.8656 C   0  0  0  0  0  0  0  0  0  0  0  0
   19.9933   -5.9817  -14.9660 C   0  0  0  0  0  0  0  0  0  0  0  0
   20.7354   -6.8021  -15.9819 C   0  0  2  0  0  0  0  0  0  0  0  0
   20.1646   -8.1569  -15.9392 N   0  0  0  0  0  0  0  0  0  0  0  0
   22.1755   -6.8387  -15.6626 C   0  0  0  0  0  0  0  0  0  0  0  0
   22.6166   -7.7656  -14.9156 O   0  0  0  0  0  0  0  0  0  0  0  0
   19.9815   -3.6697  -15.7509 C   0  0  0  0  0  0  0  0  0  0  0  0
   20.4148   -2.3702  -15.6891 C   0  0  0  0  0  0  0  0  0  0  0  0
   23.0952   -5.9348  -16.1176 O   0  0  0  0  0  0  0  0  0  0  0  0
  2  1  1  0
  3  2  1  0
  4  3  2  0
  5  3  1  0
  6  5  1  0
  6  7  1  6
  8  7  1  0
  9  8  1  0
 10  9  2  0
 11  6  1  0
 11 21  1  0
 12 11  2  0
 13  9  1  0
 15 14  1  0
 16 15  2  0
 17 16  1  0
 18 17  2  0
 18 24  1  0
 19 18  1  0
 20 21  1  0
 20 22  1  0
 20 19  1  1
 22 26  1  0
 23 22  2  0
 24 25  2  0
 25 15  1  0
M  END
$$$$
