GEY.pdb
     RDKit          3D

 26 26  0  0  1  0  0  0  0  0999 V2000
   20.7777   -1.7876  -20.9380 N   0  0  0  0  0  0  0  0  0  0  0  0
   21.7645   -2.5274  -20.1998 C   0  0  0  0  0  0  0  0  0  0  0  0
   21.1417   -3.2800  -19.0603 C   0  0  0  0  0  0  0  0  0  0  0  0
   21.2364   -2.8692  -17.8769 O   0  0  0  0  0  0  0  0  0  0  0  0
   20.4200   -4.4865  -19.2696 N   0  0  0  0  0  0  0  0  0  0  0  0
   19.7582   -5.1961  -18.1619 C   0  0  1  0  0  0  0  0  0  0  0  0
   18.6481   -5.9775  -18.7564 C   0  0  0  0  0  0  0  0  0  0  0  0
   17.9053   -6.8745  -17.8331 C   0  0  0  0  0  0  0  0  0  0  0  0
   16.8034   -7.6237  -18.4461 C   0  0  0  0  0  0  0  0  0  0  0  0
   17.0072   -8.6671  -19.1119 O   0  0  0  0  0  0  0  0  0  0  0  0
   20.7957   -6.0055  -17.5090 C   0  0  0  0  0  0  0  0  0  0  0  0
   21.6672   -6.5539  -18.2316 O   0  0  0  0  0  0  0  0  0  0  0  0
   15.4957   -7.1915  -18.3026 O   0  0  0  0  0  0  0  0  0  0  0  0
   25.3564   -1.7767  -16.6729 O   0  0  0  0  0  0  0  0  0  0  0  0
   24.6838   -2.8713  -16.1402 C   0  0  0  0  0  0  0  0  0  0  0  0
   23.4668   -2.6928  -15.5235 C   0  0  0  0  0  0  0  0  0  0  0  0
   22.8073   -3.7645  -15.0016 C   0  0  0  0  0  0  0  0  0  0  0  0
   23.3599   -5.0268  -15.0920 C   0  0  0  0  0  0  0  0  0  0  0  0
   22.6814   -6.2029  -14.5292 C   0  0  0  0  0  0  0  0  0  0  0  0
   21.9731   -7.0397  -15.5558 C   0  0  2  0  0  0  0  0  0  0  0  0
   20.8862   -6.2154  -16.1057 N   0  0  0  0  0  0  0  0  0  0  0  0
   21.4296   -8.2640  -14.9370 C   0  0  0  0  0  0  0  0  0  0  0  0
   20.1713   -8.4298  -14.9034 O   0  0  0  0  0  0  0  0  0  0  0  0
   24.5719   -5.2018  -15.7064 C   0  0  0  0  0  0  0  0  0  0  0  0
   25.2342   -4.1220  -16.2311 C   0  0  0  0  0  0  0  0  0  0  0  0
   22.1890   -9.2583  -14.3851 O   0  0  0  0  0  0  0  0  0  0  0  0
  2  1  1  0
  3  2  1  0
  4  3  2  0
  5  3  1  0
  6  5  1  0
  6  7  1  6
  8  7  1  0
  9  8  1  0
 10  9  2  0
 11  6  1  0
 11 21  1  0
 12 11  2  0
 13  9  1  0
 15 14  1  0
 16 15  2  0
 17 16  1  0
 18 17  2  0
 18 24  1  0
 19 18  1  0
 20 21  1  0
 20 22  1  0
 20 19  1  1
 22 26  1  0
 23 22  2  0
 24 25  2  0
 25 15  1  0
M  END
$$$$
