GEY.pdb
     RDKit          3D

 26 26  0  0  1  0  0  0  0  0999 V2000
   27.1195  -13.1167  -16.0021 N   0  0  0  0  0  0  0  0  0  0  0  0
   26.1466  -12.4964  -15.1450 C   0  0  0  0  0  0  0  0  0  0  0  0
   25.0804  -11.8036  -15.9424 C   0  0  0  0  0  0  0  0  0  0  0  0
   25.2936  -11.4123  -17.1170 O   0  0  0  0  0  0  0  0  0  0  0  0
   23.7870  -11.5607  -15.4053 N   0  0  0  0  0  0  0  0  0  0  0  0
   22.7698  -10.7978  -16.1482 C   0  0  1  0  0  0  0  0  0  0  0  0
   21.4489  -11.3177  -15.7224 C   0  0  0  0  0  0  0  0  0  0  0  0
   20.2591  -10.6936  -16.3577 C   0  0  0  0  0  0  0  0  0  0  0  0
   18.9652  -11.1783  -15.8657 C   0  0  0  0  0  0  0  0  0  0  0  0
   18.8832  -11.9529  -14.8824 O   0  0  0  0  0  0  0  0  0  0  0  0
   23.0010   -9.3818  -15.8330 C   0  0  0  0  0  0  0  0  0  0  0  0
   23.3791   -9.0834  -14.6709 O   0  0  0  0  0  0  0  0  0  0  0  0
   17.7887  -10.7876  -16.4828 O   0  0  0  0  0  0  0  0  0  0  0  0
   24.1283   -0.6694  -16.7532 O   0  0  0  0  0  0  0  0  0  0  0  0
   24.0120   -2.0436  -16.9333 C   0  0  0  0  0  0  0  0  0  0  0  0
   24.9888   -2.8824  -16.4480 C   0  0  0  0  0  0  0  0  0  0  0  0
   24.8755   -4.2285  -16.6239 C   0  0  0  0  0  0  0  0  0  0  0  0
   23.7823   -4.7489  -17.2880 C   0  0  0  0  0  0  0  0  0  0  0  0
   23.6346   -6.1949  -17.5060 C   0  0  0  0  0  0  0  0  0  0  0  0
   23.0613   -6.9276  -16.3268 C   0  0  2  0  0  0  0  0  0  0  0  0
   22.8264   -8.3145  -16.7560 N   0  0  0  0  0  0  0  0  0  0  0  0
   21.7977   -6.3002  -15.8947 C   0  0  0  0  0  0  0  0  0  0  0  0
   20.7108   -6.6683  -16.4380 O   0  0  0  0  0  0  0  0  0  0  0  0
   22.8112   -3.9115  -17.7705 C   0  0  0  0  0  0  0  0  0  0  0  0
   22.9269   -2.5569  -17.5924 C   0  0  0  0  0  0  0  0  0  0  0  0
   21.6998   -5.3327  -14.9332 O   0  0  0  0  0  0  0  0  0  0  0  0
  2  1  1  0
  3  2  1  0
  4  3  2  0
  5  3  1  0
  6  5  1  0
  6  7  1  1
  8  7  1  0
  9  8  1  0
 10  9  2  0
 11  6  1  0
 11 21  1  0
 12 11  2  0
 13  9  1  0
 15 14  1  0
 16 15  2  0
 17 16  1  0
 18 17  2  0
 18 24  1  0
 19 18  1  0
 20 21  1  0
 20 22  1  0
 20 19  1  6
 22 26  1  0
 23 22  2  0
 24 25  2  0
 25 15  1  0
M  END
$$$$
