GEY.pdb
     RDKit          3D

 26 26  0  0  1  0  0  0  0  0999 V2000
   20.4749  -16.6762  -17.9260 N   0  0  0  0  0  0  0  0  0  0  0  0
   19.6502  -15.6811  -18.5549 C   0  0  0  0  0  0  0  0  0  0  0  0
   20.2053  -14.3023  -18.3470 C   0  0  0  0  0  0  0  0  0  0  0  0
   21.2442  -14.1121  -17.6668 O   0  0  0  0  0  0  0  0  0  0  0  0
   19.5818  -13.1551  -18.9088 N   0  0  0  0  0  0  0  0  0  0  0  0
   20.0731  -11.7940  -18.6358 C   0  0  1  0  0  0  0  0  0  0  0  0
   20.1575  -11.0991  -19.9422 C   0  0  0  0  0  0  0  0  0  0  0  0
   21.3229  -11.4436  -20.7977 C   0  0  0  0  0  0  0  0  0  0  0  0
   21.4306  -10.6738  -22.0416 C   0  0  0  0  0  0  0  0  0  0  0  0
   22.5272  -10.2090  -22.4350 O   0  0  0  0  0  0  0  0  0  0  0  0
   19.1283  -11.1950  -17.6837 C   0  0  0  0  0  0  0  0  0  0  0  0
   17.9878  -11.7134  -17.5691 O   0  0  0  0  0  0  0  0  0  0  0  0
   20.3102  -10.4391  -22.8207 O   0  0  0  0  0  0  0  0  0  0  0  0
   14.9510   -9.3023  -10.5933 O   0  0  0  0  0  0  0  0  0  0  0  0
   15.7963   -9.6485  -11.6420 C   0  0  0  0  0  0  0  0  0  0  0  0
   17.1342   -9.8613  -11.4009 C   0  0  0  0  0  0  0  0  0  0  0  0
   17.9628  -10.2006  -12.4276 C   0  0  0  0  0  0  0  0  0  0  0  0
   17.4600  -10.3306  -13.7071 C   0  0  0  0  0  0  0  0  0  0  0  0
   18.3278  -10.6834  -14.8397 C   0  0  0  0  0  0  0  0  0  0  0  0
   18.4315   -9.6045  -15.8795 C   0  0  2  0  0  0  0  0  0  0  0  0
   19.4132  -10.0609  -16.8750 N   0  0  0  0  0  0  0  0  0  0  0  0
   18.8710   -8.3370  -15.2651 C   0  0  0  0  0  0  0  0  0  0  0  0
   18.0946   -7.7451  -14.4535 O   0  0  0  0  0  0  0  0  0  0  0  0
   16.1275  -10.1180  -13.9446 C   0  0  0  0  0  0  0  0  0  0  0  0
   15.2950   -9.7766  -12.9100 C   0  0  0  0  0  0  0  0  0  0  0  0
   20.0754   -7.7348  -15.5035 O   0  0  0  0  0  0  0  0  0  0  0  0
  2  1  1  0
  3  2  1  0
  4  3  2  0
  5  3  1  0
  6  5  1  0
  6  7  1  6
  8  7  1  0
  9  8  1  0
 10  9  2  0
 11  6  1  0
 11 21  1  0
 12 11  2  0
 13  9  1  0
 15 14  1  0
 16 15  2  0
 17 16  1  0
 18 17  2  0
 18 24  1  0
 19 18  1  0
 20 21  1  0
 20 22  1  0
 20 19  1  1
 22 26  1  0
 23 22  2  0
 24 25  2  0
 25 15  1  0
M  END
$$$$
