GEY.pdb
     RDKit          3D

 26 26  0  0  1  0  0  0  0  0999 V2000
   27.7749  -22.6292  -15.7520 N   0  0  0  0  0  0  0  0  0  0  0  0
   26.7057  -22.1967  -16.6097 C   0  0  0  0  0  0  0  0  0  0  0  0
   25.9709  -21.0291  -16.0185 C   0  0  0  0  0  0  0  0  0  0  0  0
   26.1056  -20.7172  -14.8091 O   0  0  0  0  0  0  0  0  0  0  0  0
   25.0935  -20.2279  -16.7986 N   0  0  0  0  0  0  0  0  0  0  0  0
   24.3091  -19.1327  -16.2039 C   0  0  1  0  0  0  0  0  0  0  0  0
   23.9946  -18.1867  -17.3006 C   0  0  0  0  0  0  0  0  0  0  0  0
   24.7111  -16.8849  -17.2738 C   0  0  0  0  0  0  0  0  0  0  0  0
   24.3020  -15.9283  -18.3076 C   0  0  0  0  0  0  0  0  0  0  0  0
   23.3842  -15.0967  -18.1085 O   0  0  0  0  0  0  0  0  0  0  0  0
   23.1356  -19.7555  -15.5772 C   0  0  0  0  0  0  0  0  0  0  0  0
   22.6492  -20.7847  -16.1127 O   0  0  0  0  0  0  0  0  0  0  0  0
   24.9270  -15.9204  -19.5432 O   0  0  0  0  0  0  0  0  0  0  0  0
   17.1200  -22.5354   -9.8800 O   0  0  0  0  0  0  0  0  0  0  0  0
   18.2076  -21.9328  -10.5032 C   0  0  0  0  0  0  0  0  0  0  0  0
   18.3576  -20.5662  -10.4471 C   0  0  0  0  0  0  0  0  0  0  0  0
   19.4227  -19.9752  -11.0571 C   0  0  0  0  0  0  0  0  0  0  0  0
   20.3492  -20.7470  -11.7301 C   0  0  0  0  0  0  0  0  0  0  0  0
   21.5032  -20.1412  -12.4094 C   0  0  0  0  0  0  0  0  0  0  0  0
   21.2999  -19.9440  -13.8844 C   0  0  2  0  0  0  0  0  0  0  0  0
   22.5043  -19.2739  -14.3978 N   0  0  0  0  0  0  0  0  0  0  0  0
   20.1035  -19.1173  -14.1340 C   0  0  0  0  0  0  0  0  0  0  0  0
   20.2249  -17.8540  -14.1679 O   0  0  0  0  0  0  0  0  0  0  0  0
   20.1974  -22.1076  -11.7846 C   0  0  0  0  0  0  0  0  0  0  0  0
   19.1248  -22.7006  -11.1699 C   0  0  0  0  0  0  0  0  0  0  0  0
   18.8455  -19.6131  -14.3378 O   0  0  0  0  0  0  0  0  0  0  0  0
  2  1  1  0
  3  2  1  0
  4  3  2  0
  5  3  1  0
  6  5  1  0
  6  7  1  6
  8  7  1  0
  9  8  1  0
 10  9  2  0
 11  6  1  0
 11 21  1  0
 12 11  2  0
 13  9  1  0
 15 14  1  0
 16 15  2  0
 17 16  1  0
 18 17  2  0
 18 24  1  0
 19 18  1  0
 20 21  1  0
 20 22  1  0
 20 19  1  1
 22 26  1  0
 23 22  2  0
 24 25  2  0
 25 15  1  0
M  END
$$$$
