GEY.pdb
     RDKit          3D

 26 26  0  0  1  0  0  0  0  0999 V2000
   29.4219  -23.0064  -16.8558 N   0  0  0  0  0  0  0  0  0  0  0  0
   28.1547  -22.4293  -17.2123 C   0  0  0  0  0  0  0  0  0  0  0  0
   27.6264  -21.5531  -16.1142 C   0  0  0  0  0  0  0  0  0  0  0  0
   28.3143  -21.2974  -15.0946 O   0  0  0  0  0  0  0  0  0  0  0  0
   26.3290  -20.9763  -16.1796 N   0  0  0  0  0  0  0  0  0  0  0  0
   25.8421  -20.0442  -15.1488 C   0  0  1  0  0  0  0  0  0  0  0  0
   24.8988  -19.1186  -15.8194 C   0  0  0  0  0  0  0  0  0  0  0  0
   24.1479  -18.1887  -14.9361 C   0  0  0  0  0  0  0  0  0  0  0  0
   22.7852  -18.6145  -14.5996 C   0  0  0  0  0  0  0  0  0  0  0  0
   22.3266  -18.4959  -13.4381 O   0  0  0  0  0  0  0  0  0  0  0  0
   25.2424  -20.8703  -14.0924 C   0  0  0  0  0  0  0  0  0  0  0  0
   24.5165  -21.8396  -14.4331 O   0  0  0  0  0  0  0  0  0  0  0  0
   21.9626  -19.1644  -15.5683 O   0  0  0  0  0  0  0  0  0  0  0  0
   27.4735  -18.2241   -7.0061 O   0  0  0  0  0  0  0  0  0  0  0  0
   27.0646  -19.1659   -7.9442 C   0  0  0  0  0  0  0  0  0  0  0  0
   25.8107  -19.7248   -7.8510 C   0  0  0  0  0  0  0  0  0  0  0  0
   25.4094  -20.6473   -8.7696 C   0  0  0  0  0  0  0  0  0  0  0  0
   26.2600  -21.0200   -9.7916 C   0  0  0  0  0  0  0  0  0  0  0  0
   25.8639  -22.0210  -10.7922 C   0  0  0  0  0  0  0  0  0  0  0  0
   24.7862  -21.5480  -11.7253 C   0  0  2  0  0  0  0  0  0  0  0  0
   25.4255  -20.6508  -12.6997 N   0  0  0  0  0  0  0  0  0  0  0  0
   23.7346  -20.8323  -10.9776 C   0  0  0  0  0  0  0  0  0  0  0  0
   23.7046  -19.5638  -11.0200 O   0  0  0  0  0  0  0  0  0  0  0  0
   27.5081  -20.4622   -9.8820 C   0  0  0  0  0  0  0  0  0  0  0  0
   27.9102  -19.5337   -8.9566 C   0  0  0  0  0  0  0  0  0  0  0  0
   22.7663  -21.4387  -10.2262 O   0  0  0  0  0  0  0  0  0  0  0  0
  2  1  1  0
  3  2  1  0
  4  3  2  0
  5  3  1  0
  6  5  1  0
  6  7  1  6
  8  7  1  0
  9  8  1  0
 10  9  2  0
 11  6  1  0
 11 21  1  0
 12 11  2  0
 13  9  1  0
 15 14  1  0
 16 15  2  0
 17 16  1  0
 18 17  2  0
 18 24  1  0
 19 18  1  0
 20 21  1  0
 20 22  1  0
 20 19  1  1
 22 26  1  0
 23 22  2  0
 24 25  2  0
 25 15  1  0
M  END
$$$$
