CHD.pdb
     RDKit          3D

 25 25  0  0  1  0  0  0  0  0999 V2000
   25.0090  -31.4664    3.5969 N   0  0  0  0  0  0  0  0  0  0  0  0
   26.3340  -31.8201    3.0851 C   0  0  1  0  0  0  0  0  0  0  0  0
   27.2178  -32.2484    4.2607 C   0  0  0  0  0  0  0  0  0  0  0  0
   26.3823  -33.5604    5.1787 S   0  0  0  0  0  0  0  0  0  0  0  0
   26.1582  -32.9502    2.1373 C   0  0  0  0  0  0  0  0  0  0  0  0
   25.0564  -33.5890    2.2430 O   0  0  0  0  0  0  0  0  0  0  0  0
   27.1350  -33.2944    1.1894 N   0  0  0  0  0  0  0  0  0  0  0  0
   26.9222  -34.3867    0.2694 C   0  0  1  0  0  0  0  0  0  0  0  0
   27.5358  -34.0775   -1.0755 C   0  0  0  0  0  0  0  0  0  0  0  0
   26.6064  -33.3354   -1.9597 C   0  0  0  0  0  0  0  0  0  0  0  0
   25.2705  -33.6088   -2.2143 C   0  0  0  0  0  0  0  0  0  0  0  0
   24.7646  -32.7037   -3.0758 N   0  0  0  0  0  0  0  0  0  0  0  0
   25.7757  -31.8705   -3.3581 C   0  0  0  0  0  0  0  0  0  0  0  0
   26.8767  -32.2415   -2.6959 N   0  0  0  0  0  0  0  0  0  0  0  0
   27.4137  -35.6776    0.8406 C   0  0  0  0  0  0  0  0  0  0  0  0
   28.5961  -35.8256    1.2368 O   0  0  0  0  0  0  0  0  0  0  0  0
   26.5215  -36.7801    0.9430 N   0  0  0  0  0  0  0  0  0  0  0  0
   26.9397  -38.0717    1.4757 C   0  0  1  0  0  0  0  0  0  0  0  0
   27.4043  -37.9417    2.9036 C   0  0  0  0  0  0  0  0  0  0  0  0
   27.6549  -39.2688    3.4990 C   0  0  0  0  0  0  0  0  0  0  0  0
   27.4728  -40.3624    2.8794 O   0  0  0  0  0  0  0  0  0  0  0  0
   25.9339  -39.1121    1.2470 C   0  0  0  0  0  0  0  0  0  0  0  0
   26.1476  -40.3451    1.4183 O   0  0  0  0  0  0  0  0  0  0  0  0
   28.1173  -39.4098    4.8072 O   0  0  0  0  0  0  0  0  0  0  0  0
   24.6600  -38.7840    0.8199 O   0  0  0  0  0  0  0  0  0  0  0  0
  2  1  1  1
  3  2  1  0
  4  3  1  0
  5  2  1  0
  6  5  2  0
  7  5  1  0
  8  9  1  6
  8  7  1  0
  9 10  1  0
 10 14  1  0
 10 11  2  0
 11 12  1  0
 13 12  1  0
 14 13  2  0
 15  8  1  0
 16 15  2  0
 17 15  1  0
 18 17  1  0
 18 19  1  1
 19 20  1  0
 20 24  1  0
 20 21  2  0
 22 25  1  0
 22 18  1  0
 23 22  2  0
M  END
$$$$
