CHD.pdb
     RDKit          3D

 25 25  0  0  1  0  0  0  0  0999 V2000
   23.3797  -11.6374  -19.6835 N   0  0  0  0  0  0  0  0  0  0  0  0
   21.9684  -11.7098  -19.3019 C   0  0  1  0  0  0  0  0  0  0  0  0
   21.5445  -13.1812  -19.2597 C   0  0  0  0  0  0  0  0  0  0  0  0
   22.1770  -14.0190  -20.7295 S   0  0  0  0  0  0  0  0  0  0  0  0
   21.8398  -11.1002  -17.9534 C   0  0  0  0  0  0  0  0  0  0  0  0
   20.6607  -11.1016  -17.4606 O   0  0  0  0  0  0  0  0  0  0  0  0
   22.9379  -10.5591  -17.2658 N   0  0  0  0  0  0  0  0  0  0  0  0
   22.7670   -9.9227  -15.9811 C   0  0  1  0  0  0  0  0  0  0  0  0
   23.6472  -10.5757  -14.9421 C   0  0  0  0  0  0  0  0  0  0  0  0
   23.2937  -11.9977  -14.7199 C   0  0  0  0  0  0  0  0  0  0  0  0
   24.0110  -13.1237  -15.0965 C   0  0  0  0  0  0  0  0  0  0  0  0
   23.3602  -14.2410  -14.7153 N   0  0  0  0  0  0  0  0  0  0  0  0
   22.2446  -13.8178  -14.1051 C   0  0  0  0  0  0  0  0  0  0  0  0
   22.1988  -12.4813  -14.1044 N   0  0  0  0  0  0  0  0  0  0  0  0
   22.9890   -8.4475  -16.0753 C   0  0  0  0  0  0  0  0  0  0  0  0
   24.0029   -7.9587  -16.6323 O   0  0  0  0  0  0  0  0  0  0  0  0
   22.0272   -7.5601  -15.5193 N   0  0  0  0  0  0  0  0  0  0  0  0
   22.1749   -6.1108  -15.5885 C   0  0  1  0  0  0  0  0  0  0  0  0
   21.2258   -5.5194  -16.5988 C   0  0  0  0  0  0  0  0  0  0  0  0
   21.3697   -4.0517  -16.6608 C   0  0  0  0  0  0  0  0  0  0  0  0
   22.2747   -3.4080  -16.0447 O   0  0  0  0  0  0  0  0  0  0  0  0
   22.1292   -5.4898  -14.2624 C   0  0  0  0  0  0  0  0  0  0  0  0
   22.3968   -4.2744  -14.0467 O   0  0  0  0  0  0  0  0  0  0  0  0
   20.5030   -3.2615  -17.4154 O   0  0  0  0  0  0  0  0  0  0  0  0
   21.7782   -6.2277  -13.1465 O   0  0  0  0  0  0  0  0  0  0  0  0
  2  1  1  1
  3  2  1  0
  4  3  1  0
  5  2  1  0
  6  5  2  0
  7  5  1  0
  8  9  1  1
  8  7  1  0
  9 10  1  0
 10 14  1  0
 10 11  2  0
 11 12  1  0
 13 12  1  0
 14 13  2  0
 15  8  1  0
 16 15  2  0
 17 15  1  0
 18 17  1  0
 18 19  1  6
 19 20  1  0
 20 24  1  0
 20 21  2  0
 22 25  1  0
 22 18  1  0
 23 22  2  0
M  END
$$$$
