CHD.pdb
     RDKit          3D

 25 25  0  0  1  0  0  0  0  0999 V2000
   19.5877  -14.8976  -15.8150 N   0  0  0  0  0  0  0  0  0  0  0  0
   19.1013  -13.8363  -16.6979 C   0  0  1  0  0  0  0  0  0  0  0  0
   17.6467  -13.5216  -16.3348 C   0  0  0  0  0  0  0  0  0  0  0  0
   16.6117  -14.9367  -16.7687 S   0  0  0  0  0  0  0  0  0  0  0  0
   19.9560  -12.6425  -16.4722 C   0  0  0  0  0  0  0  0  0  0  0  0
   20.2934  -12.4307  -15.2580 O   0  0  0  0  0  0  0  0  0  0  0  0
   20.3660  -11.8032  -17.5204 N   0  0  0  0  0  0  0  0  0  0  0  0
   21.2321  -10.6753  -17.2707 C   0  0  1  0  0  0  0  0  0  0  0  0
   22.3284  -10.6061  -18.3070 C   0  0  0  0  0  0  0  0  0  0  0  0
   23.2528   -9.4718  -18.0718 C   0  0  0  0  0  0  0  0  0  0  0  0
   24.4008   -9.4545  -17.2932 C   0  0  0  0  0  0  0  0  0  0  0  0
   24.9715   -8.2338  -17.3298 N   0  0  0  0  0  0  0  0  0  0  0  0
   24.1871   -7.4930  -18.1249 C   0  0  0  0  0  0  0  0  0  0  0  0
   23.1606   -8.2251  -18.5706 N   0  0  0  0  0  0  0  0  0  0  0  0
   20.4507   -9.4044  -17.1772 C   0  0  0  0  0  0  0  0  0  0  0  0
   19.5477   -9.1134  -18.0000 O   0  0  0  0  0  0  0  0  0  0  0  0
   20.7310   -8.4885  -16.1264 N   0  0  0  0  0  0  0  0  0  0  0  0
   20.0040   -7.2333  -15.9744 C   0  0  1  0  0  0  0  0  0  0  0  0
   18.7158   -7.4437  -15.2209 C   0  0  0  0  0  0  0  0  0  0  0  0
   17.9846   -6.1714  -15.0620 C   0  0  0  0  0  0  0  0  0  0  0  0
   17.8016   -5.3435  -16.0075 O   0  0  0  0  0  0  0  0  0  0  0  0
   20.8572   -6.1640  -15.4503 C   0  0  0  0  0  0  0  0  0  0  0  0
   20.4761   -4.9685  -15.3063 O   0  0  0  0  0  0  0  0  0  0  0  0
   17.4365   -5.7890  -13.8379 O   0  0  0  0  0  0  0  0  0  0  0  0
   22.1633   -6.4203  -15.0744 O   0  0  0  0  0  0  0  0  0  0  0  0
  2  1  1  1
  3  2  1  0
  4  3  1  0
  5  2  1  0
  6  5  2  0
  7  5  1  0
  8  9  1  6
  8  7  1  0
  9 10  1  0
 10 14  1  0
 10 11  2  0
 11 12  1  0
 13 12  1  0
 14 13  2  0
 15  8  1  0
 16 15  2  0
 17 15  1  0
 18 17  1  0
 18 19  1  1
 19 20  1  0
 20 24  1  0
 20 21  2  0
 22 25  1  0
 22 18  1  0
 23 22  2  0
M  END
$$$$
