CHD.pdb
     RDKit          3D

 25 25  0  0  1  0  0  0  0  0999 V2000
   18.7109  -13.6472  -19.6236 N   0  0  0  0  0  0  0  0  0  0  0  0
   17.9953  -13.5802  -18.3486 C   0  0  1  0  0  0  0  0  0  0  0  0
   16.4920  -13.4964  -18.6313 C   0  0  0  0  0  0  0  0  0  0  0  0
   15.5975  -13.4799  -17.0623 S   0  0  0  0  0  0  0  0  0  0  0  0
   18.3072  -14.8228  -17.5968 C   0  0  0  0  0  0  0  0  0  0  0  0
   18.3026  -15.8980  -18.2876 O   0  0  0  0  0  0  0  0  0  0  0  0
   18.5881  -14.8181  -16.2212 N   0  0  0  0  0  0  0  0  0  0  0  0
   18.9322  -16.0388  -15.5312 C   0  0  1  0  0  0  0  0  0  0  0  0
   20.1347  -15.8272  -14.6424 C   0  0  0  0  0  0  0  0  0  0  0  0
   21.4076  -15.8702  -15.4001 C   0  0  0  0  0  0  0  0  0  0  0  0
   21.5886  -16.1386  -16.7489 C   0  0  0  0  0  0  0  0  0  0  0  0
   22.8982  -16.0848  -17.0642 N   0  0  0  0  0  0  0  0  0  0  0  0
   23.5318  -15.7850  -15.9219 C   0  0  0  0  0  0  0  0  0  0  0  0
   22.6489  -15.6557  -14.9258 N   0  0  0  0  0  0  0  0  0  0  0  0
   17.7582  -16.5876  -14.7863 C   0  0  0  0  0  0  0  0  0  0  0  0
   16.9691  -15.8498  -14.1458 O   0  0  0  0  0  0  0  0  0  0  0  0
   17.5181  -17.9890  -14.7967 N   0  0  0  0  0  0  0  0  0  0  0  0
   16.3305  -18.5790  -14.1896 C   0  0  1  0  0  0  0  0  0  0  0  0
   15.0747  -17.9675  -14.7558 C   0  0  0  0  0  0  0  0  0  0  0  0
   13.8746  -18.6476  -14.2307 C   0  0  0  0  0  0  0  0  0  0  0  0
   13.4958  -18.5697  -13.0209 O   0  0  0  0  0  0  0  0  0  0  0  0
   16.3694  -20.0432  -14.2161 C   0  0  0  0  0  0  0  0  0  0  0  0
   16.9062  -20.7147  -15.1414 O   0  0  0  0  0  0  0  0  0  0  0  0
   13.0627  -19.4355  -15.0463 O   0  0  0  0  0  0  0  0  0  0  0  0
   15.8030  -20.7853  -13.1956 O   0  0  0  0  0  0  0  0  0  0  0  0
  2  1  1  6
  3  2  1  0
  4  3  1  0
  5  2  1  0
  6  5  2  0
  7  5  1  0
  8  9  1  1
  8  7  1  0
  9 10  1  0
 10 14  1  0
 10 11  2  0
 11 12  1  0
 13 12  1  0
 14 13  2  0
 15  8  1  0
 16 15  2  0
 17 15  1  0
 18 17  1  0
 18 19  1  6
 19 20  1  0
 20 24  1  0
 20 21  2  0
 22 25  1  0
 22 18  1  0
 23 22  2  0
M  END
$$$$
