CHD.pdb
     RDKit          3D

 25 25  0  0  1  0  0  0  0  0999 V2000
   21.3837  -12.7154  -17.8839 N   0  0  0  0  0  0  0  0  0  0  0  0
   21.9925  -11.5114  -18.4514 C   0  0  1  0  0  0  0  0  0  0  0  0
   20.9348  -10.7631  -19.2689 C   0  0  0  0  0  0  0  0  0  0  0  0
   19.4838  -10.4758  -18.2325 S   0  0  0  0  0  0  0  0  0  0  0  0
   22.4549  -10.6696  -17.3182 C   0  0  0  0  0  0  0  0  0  0  0  0
   21.9171  -10.9272  -16.1879 O   0  0  0  0  0  0  0  0  0  0  0  0
   23.4170   -9.6595  -17.4765 N   0  0  0  0  0  0  0  0  0  0  0  0
   23.8058   -8.8257  -16.3637 C   0  0  1  0  0  0  0  0  0  0  0  0
   25.3088   -8.6947  -16.2959 C   0  0  0  0  0  0  0  0  0  0  0  0
   25.9714   -9.9837  -15.9866 C   0  0  0  0  0  0  0  0  0  0  0  0
   25.3759  -11.2156  -15.7583 C   0  0  0  0  0  0  0  0  0  0  0  0
   26.3156  -12.1494  -15.5088 N   0  0  0  0  0  0  0  0  0  0  0  0
   27.4897  -11.5073  -15.5803 C   0  0  0  0  0  0  0  0  0  0  0  0
   27.2917  -10.2157  -15.8648 N   0  0  0  0  0  0  0  0  0  0  0  0
   23.1167   -7.5002  -16.4153 C   0  0  0  0  0  0  0  0  0  0  0  0
   23.2104   -6.7367  -17.4079 O   0  0  0  0  0  0  0  0  0  0  0  0
   22.3270   -7.0807  -15.3097 N   0  0  0  0  0  0  0  0  0  0  0  0
   21.6130   -5.8091  -15.3022 C   0  0  1  0  0  0  0  0  0  0  0  0
   20.1239   -6.0259  -15.3864 C   0  0  0  0  0  0  0  0  0  0  0  0
   19.4019   -4.7388  -15.3616 C   0  0  0  0  0  0  0  0  0  0  0  0
   19.6370   -3.7858  -16.1676 O   0  0  0  0  0  0  0  0  0  0  0  0
   22.0485   -4.9407  -14.2057 C   0  0  0  0  0  0  0  0  0  0  0  0
   22.6244   -5.3613  -13.1632 O   0  0  0  0  0  0  0  0  0  0  0  0
   18.3943   -4.4814  -14.4324 O   0  0  0  0  0  0  0  0  0  0  0  0
   21.8447   -3.5738  -14.2611 O   0  0  0  0  0  0  0  0  0  0  0  0
  2  1  1  1
  3  2  1  0
  4  3  1  0
  5  2  1  0
  6  5  2  0
  7  5  1  0
  8  9  1  6
  8  7  1  0
  9 10  1  0
 10 14  1  0
 10 11  2  0
 11 12  1  0
 13 12  1  0
 14 13  2  0
 15  8  1  0
 16 15  2  0
 17 15  1  0
 18 17  1  0
 18 19  1  1
 19 20  1  0
 20 24  1  0
 20 21  2  0
 22 25  1  0
 22 18  1  0
 23 22  2  0
M  END
$$$$
