CHD.pdb
     RDKit          3D

 25 25  0  0  1  0  0  0  0  0999 V2000
   26.1913  -13.3234  -16.5996 N   0  0  0  0  0  0  0  0  0  0  0  0
   26.1137  -12.0108  -15.9565 C   0  0  1  0  0  0  0  0  0  0  0  0
   27.3699  -11.2112  -16.3159 C   0  0  0  0  0  0  0  0  0  0  0  0
   27.2414   -9.5584  -15.5990 S   0  0  0  0  0  0  0  0  0  0  0  0
   24.9035  -11.3282  -16.4820 C   0  0  0  0  0  0  0  0  0  0  0  0
   24.4544  -11.7822  -17.5889 O   0  0  0  0  0  0  0  0  0  0  0  0
   24.2936  -10.2572  -15.8096 N   0  0  0  0  0  0  0  0  0  0  0  0
   23.0344   -9.7171  -16.2651 C   0  0  1  0  0  0  0  0  0  0  0  0
   22.0039  -10.8125  -16.4032 C   0  0  0  0  0  0  0  0  0  0  0  0
   20.7184  -10.3094  -16.9425 C   0  0  0  0  0  0  0  0  0  0  0  0
   20.4134   -9.0215  -17.3577 C   0  0  0  0  0  0  0  0  0  0  0  0
   19.1367   -8.9589  -17.7858 N   0  0  0  0  0  0  0  0  0  0  0  0
   18.6465  -10.1977  -17.6396 C   0  0  0  0  0  0  0  0  0  0  0  0
   19.5844  -11.0078  -17.1373 N   0  0  0  0  0  0  0  0  0  0  0  0
   22.5727   -8.6038  -15.3810 C   0  0  0  0  0  0  0  0  0  0  0  0
   22.4789   -8.7348  -14.1355 O   0  0  0  0  0  0  0  0  0  0  0  0
   22.2258   -7.3517  -15.9588 N   0  0  0  0  0  0  0  0  0  0  0  0
   21.8915   -6.1869  -15.1474 C   0  0  1  0  0  0  0  0  0  0  0  0
   22.5937   -4.9547  -15.6573 C   0  0  0  0  0  0  0  0  0  0  0  0
   22.2511   -3.7759  -14.8376 C   0  0  0  0  0  0  0  0  0  0  0  0
   22.3105   -3.7611  -13.5690 O   0  0  0  0  0  0  0  0  0  0  0  0
   20.4453   -6.0412  -14.9646 C   0  0  0  0  0  0  0  0  0  0  0  0
   19.9154   -5.5250  -13.9408 O   0  0  0  0  0  0  0  0  0  0  0  0
   21.8316   -2.5781  -15.4157 O   0  0  0  0  0  0  0  0  0  0  0  0
   19.5615   -6.4746  -15.9361 O   0  0  0  0  0  0  0  0  0  0  0  0
  2  1  1  6
  3  2  1  0
  4  3  1  0
  5  2  1  0
  6  5  2  0
  7  5  1  0
  8  9  1  1
  8  7  1  0
  9 10  1  0
 10 14  1  0
 10 11  2  0
 11 12  1  0
 13 12  1  0
 14 13  2  0
 15  8  1  0
 16 15  2  0
 17 15  1  0
 18 17  1  0
 18 19  1  6
 19 20  1  0
 20 24  1  0
 20 21  2  0
 22 25  1  0
 22 18  1  0
 23 22  2  0
M  END
$$$$
