CHD.pdb
     RDKit          3D

 25 25  0  0  1  0  0  0  0  0999 V2000
   13.0560  -12.1196  -14.5902 N   0  0  0  0  0  0  0  0  0  0  0  0
   13.2693  -11.1578  -15.6728 C   0  0  1  0  0  0  0  0  0  0  0  0
   12.0591  -10.2214  -15.7453 C   0  0  0  0  0  0  0  0  0  0  0  0
   11.8252   -9.4352  -14.1362 S   0  0  0  0  0  0  0  0  0  0  0  0
   14.4961  -10.3859  -15.3475 C   0  0  0  0  0  0  0  0  0  0  0  0
   14.6158  -10.0353  -14.1244 O   0  0  0  0  0  0  0  0  0  0  0  0
   15.4593  -10.0628  -16.3166 N   0  0  0  0  0  0  0  0  0  0  0  0
   16.6968   -9.4184  -15.9450 C   0  0  1  0  0  0  0  0  0  0  0  0
   17.8738  -10.1187  -16.5814 C   0  0  0  0  0  0  0  0  0  0  0  0
   18.0461  -11.5007  -16.0749 C   0  0  0  0  0  0  0  0  0  0  0  0
   17.3914  -12.1077  -15.0132 C   0  0  0  0  0  0  0  0  0  0  0  0
   17.8227  -13.3759  -14.8621 N   0  0  0  0  0  0  0  0  0  0  0  0
   18.7400  -13.5613  -15.8215 C   0  0  0  0  0  0  0  0  0  0  0  0
   18.8780  -12.4471  -16.5481 N   0  0  0  0  0  0  0  0  0  0  0  0
   16.6606   -7.9575  -16.2592 C   0  0  0  0  0  0  0  0  0  0  0  0
   16.2697   -7.5227  -17.3707 O   0  0  0  0  0  0  0  0  0  0  0  0
   17.0802   -7.0213  -15.2747 N   0  0  0  0  0  0  0  0  0  0  0  0
   17.0980   -5.5847  -15.5255 C   0  0  1  0  0  0  0  0  0  0  0  0
   16.1819   -4.8595  -14.5735 C   0  0  0  0  0  0  0  0  0  0  0  0
   16.3134   -3.3973  -14.7269 C   0  0  0  0  0  0  0  0  0  0  0  0
   15.7810   -2.7396  -15.6740 O   0  0  0  0  0  0  0  0  0  0  0  0
   18.4624   -5.0553  -15.5918 C   0  0  0  0  0  0  0  0  0  0  0  0
   19.4627   -5.6251  -15.0722 O   0  0  0  0  0  0  0  0  0  0  0  0
   17.0459   -2.6284  -13.8228 O   0  0  0  0  0  0  0  0  0  0  0  0
   18.7302   -3.8681  -16.2489 O   0  0  0  0  0  0  0  0  0  0  0  0
  2  1  1  1
  3  2  1  0
  4  3  1  0
  5  2  1  0
  6  5  2  0
  7  5  1  0
  8  9  1  6
  8  7  1  0
  9 10  1  0
 10 14  1  0
 10 11  2  0
 11 12  1  0
 13 12  1  0
 14 13  2  0
 15  8  1  0
 16 15  2  0
 17 15  1  0
 18 17  1  0
 18 19  1  1
 19 20  1  0
 20 24  1  0
 20 21  2  0
 22 25  1  0
 22 18  1  0
 23 22  2  0
M  END
$$$$
