CHD.pdb
     RDKit          3D

 25 25  0  0  1  0  0  0  0  0999 V2000
   25.1630  -12.6485  -17.2544 N   0  0  0  0  0  0  0  0  0  0  0  0
   25.2336  -11.7126  -16.1312 C   0  0  1  0  0  0  0  0  0  0  0  0
   26.5506  -10.9353  -16.2199 C   0  0  0  0  0  0  0  0  0  0  0  0
   27.9184  -12.0467  -15.8252 S   0  0  0  0  0  0  0  0  0  0  0  0
   24.0807  -10.7837  -16.2524 C   0  0  0  0  0  0  0  0  0  0  0  0
   23.7437  -10.4800  -17.4472 O   0  0  0  0  0  0  0  0  0  0  0  0
   23.4062  -10.2734  -15.1318 N   0  0  0  0  0  0  0  0  0  0  0  0
   22.2539   -9.4174  -15.2870 C   0  0  1  0  0  0  0  0  0  0  0  0
   21.0794   -9.9587  -14.5071 C   0  0  0  0  0  0  0  0  0  0  0  0
   20.4467  -11.1190  -15.1776 C   0  0  0  0  0  0  0  0  0  0  0  0
   20.8153  -11.7183  -16.3732 C   0  0  0  0  0  0  0  0  0  0  0  0
   19.9928  -12.7495  -16.6516 N   0  0  0  0  0  0  0  0  0  0  0  0
   19.1166  -12.7952  -15.6386 C   0  0  0  0  0  0  0  0  0  0  0  0
   19.3816  -11.8259  -14.7563 N   0  0  0  0  0  0  0  0  0  0  0  0
   22.5788   -8.0036  -14.9265 C   0  0  0  0  0  0  0  0  0  0  0  0
   23.2720   -7.7131  -13.9204 O   0  0  0  0  0  0  0  0  0  0  0  0
   22.0920   -6.9457  -15.7425 N   0  0  0  0  0  0  0  0  0  0  0  0
   22.3684   -5.5447  -15.4461 C   0  0  1  0  0  0  0  0  0  0  0  0
   22.1082   -4.6769  -16.6505 C   0  0  0  0  0  0  0  0  0  0  0  0
   22.3583   -3.2558  -16.3398 C   0  0  0  0  0  0  0  0  0  0  0  0
   21.4362   -2.3916  -16.2132 O   0  0  0  0  0  0  0  0  0  0  0  0
   21.7096   -5.1033  -14.2143 C   0  0  0  0  0  0  0  0  0  0  0  0
   22.0661   -4.0885  -13.5522 O   0  0  0  0  0  0  0  0  0  0  0  0
   23.6499   -2.7607  -16.1615 O   0  0  0  0  0  0  0  0  0  0  0  0
   20.6296   -5.7981  -13.7006 O   0  0  0  0  0  0  0  0  0  0  0  0
  2  1  1  6
  3  2  1  0
  4  3  1  0
  5  2  1  0
  6  5  2  0
  7  5  1  0
  8  9  1  1
  8  7  1  0
  9 10  1  0
 10 14  1  0
 10 11  2  0
 11 12  1  0
 13 12  1  0
 14 13  2  0
 15  8  1  0
 16 15  2  0
 17 15  1  0
 18 17  1  0
 18 19  1  6
 19 20  1  0
 20 24  1  0
 20 21  2  0
 22 25  1  0
 22 18  1  0
 23 22  2  0
M  END
$$$$
