CHD.pdb
     RDKit          3D

 25 25  0  0  1  0  0  0  0  0999 V2000
   20.1428  -13.3578  -16.1138 N   0  0  0  0  0  0  0  0  0  0  0  0
   19.2273  -13.0245  -17.2061 C   0  0  1  0  0  0  0  0  0  0  0  0
   18.2641  -14.1969  -17.4167 C   0  0  0  0  0  0  0  0  0  0  0  0
   19.2173  -15.7247  -17.5564 S   0  0  0  0  0  0  0  0  0  0  0  0
   18.4751  -11.8091  -16.8016 C   0  0  0  0  0  0  0  0  0  0  0  0
   17.7024  -11.3195  -17.6941 O   0  0  0  0  0  0  0  0  0  0  0  0
   18.6031  -11.2363  -15.5262 N   0  0  0  0  0  0  0  0  0  0  0  0
   17.9023  -10.0205  -15.1865 C   0  0  1  0  0  0  0  0  0  0  0  0
   16.8827  -10.2788  -14.1027 C   0  0  0  0  0  0  0  0  0  0  0  0
   15.6309  -10.8648  -14.6373 C   0  0  0  0  0  0  0  0  0  0  0  0
   15.3071  -11.1217  -15.9615 C   0  0  0  0  0  0  0  0  0  0  0  0
   14.0738  -11.6595  -16.0447 N   0  0  0  0  0  0  0  0  0  0  0  0
   13.6292  -11.7386  -14.7829 C   0  0  0  0  0  0  0  0  0  0  0  0
   14.5527  -11.2664  -13.9388 N   0  0  0  0  0  0  0  0  0  0  0  0
   18.8577   -8.9289  -14.8263 C   0  0  0  0  0  0  0  0  0  0  0  0
   19.8037   -9.1082  -14.0200 O   0  0  0  0  0  0  0  0  0  0  0  0
   18.6992   -7.6420  -15.4098 N   0  0  0  0  0  0  0  0  0  0  0  0
   19.5710   -6.5225  -15.0725 C   0  0  1  0  0  0  0  0  0  0  0  0
   20.6513   -6.3487  -16.1089 C   0  0  0  0  0  0  0  0  0  0  0  0
   21.5104   -5.1927  -15.7857 C   0  0  0  0  0  0  0  0  0  0  0  0
   21.1620   -3.9853  -15.9700 O   0  0  0  0  0  0  0  0  0  0  0  0
   18.8118   -5.3083  -14.7637 C   0  0  0  0  0  0  0  0  0  0  0  0
   17.6487   -5.0777  -15.1989 O   0  0  0  0  0  0  0  0  0  0  0  0
   22.7860   -5.3557  -15.2460 O   0  0  0  0  0  0  0  0  0  0  0  0
   19.3486   -4.3243  -13.9535 O   0  0  0  0  0  0  0  0  0  0  0  0
  2  1  1  1
  3  2  1  0
  4  3  1  0
  5  2  1  0
  6  5  2  0
  7  5  1  0
  8  9  1  1
  8  7  1  0
  9 10  1  0
 10 14  1  0
 10 11  2  0
 11 12  1  0
 13 12  1  0
 14 13  2  0
 15  8  1  0
 16 15  2  0
 17 15  1  0
 18 17  1  0
 18 19  1  6
 19 20  1  0
 20 24  1  0
 20 21  2  0
 22 25  1  0
 22 18  1  0
 23 22  2  0
M  END
$$$$
