CHD.pdb
     RDKit          3D

 25 25  0  0  1  0  0  0  0  0999 V2000
   21.4366  -13.4134  -18.9785 N   0  0  0  0  0  0  0  0  0  0  0  0
   22.0141  -12.0703  -19.0487 C   0  0  1  0  0  0  0  0  0  0  0  0
   21.0051  -11.1350  -19.7223 C   0  0  0  0  0  0  0  0  0  0  0  0
   21.0990  -11.3578  -21.5122 S   0  0  0  0  0  0  0  0  0  0  0  0
   22.2761  -11.6247  -17.6561 C   0  0  0  0  0  0  0  0  0  0  0  0
   21.4414  -12.0383  -16.7813 O   0  0  0  0  0  0  0  0  0  0  0  0
   23.3659  -10.8049  -17.3222 N   0  0  0  0  0  0  0  0  0  0  0  0
   23.6182  -10.4302  -15.9509 C   0  0  1  0  0  0  0  0  0  0  0  0
   25.0206  -10.8147  -15.5431 C   0  0  0  0  0  0  0  0  0  0  0  0
   25.2864  -12.2594  -15.7397 C   0  0  0  0  0  0  0  0  0  0  0  0
   24.6525  -13.3335  -15.1325 C   0  0  0  0  0  0  0  0  0  0  0  0
   25.1773  -14.4948  -15.5722 N   0  0  0  0  0  0  0  0  0  0  0  0
   26.1320  -14.1503  -16.4474 C   0  0  0  0  0  0  0  0  0  0  0  0
   26.2022  -12.8190  -16.5520 N   0  0  0  0  0  0  0  0  0  0  0  0
   23.3331   -8.9802  -15.7259 C   0  0  0  0  0  0  0  0  0  0  0  0
   23.5451   -8.1128  -16.6089 O   0  0  0  0  0  0  0  0  0  0  0  0
   22.8046   -8.5588  -14.4749 N   0  0  0  0  0  0  0  0  0  0  0  0
   22.3642   -7.1886  -14.2388 C   0  0  1  0  0  0  0  0  0  0  0  0
   22.6745   -6.3104  -15.4237 C   0  0  0  0  0  0  0  0  0  0  0  0
   22.2862   -4.9113  -15.1585 C   0  0  0  0  0  0  0  0  0  0  0  0
   22.6207   -4.2759  -14.1109 O   0  0  0  0  0  0  0  0  0  0  0  0
   20.9759   -7.1298  -13.7748 C   0  0  0  0  0  0  0  0  0  0  0  0
   20.1193   -8.0285  -14.0069 O   0  0  0  0  0  0  0  0  0  0  0  0
   21.5110   -4.1823  -16.0601 O   0  0  0  0  0  0  0  0  0  0  0  0
   20.5214   -6.0532  -13.0350 O   0  0  0  0  0  0  0  0  0  0  0  0
  2  1  1  1
  3  2  1  0
  4  3  1  0
  5  2  1  0
  6  5  2  0
  7  5  1  0
  8  9  1  6
  8  7  1  0
  9 10  1  0
 10 14  1  0
 10 11  2  0
 11 12  1  0
 13 12  1  0
 14 13  2  0
 15  8  1  0
 16 15  2  0
 17 15  1  0
 18 17  1  0
 18 19  1  6
 19 20  1  0
 20 24  1  0
 20 21  2  0
 22 25  1  0
 22 18  1  0
 23 22  2  0
M  END
$$$$
