CHD.pdb
     RDKit          3D

 25 25  0  0  1  0  0  0  0  0999 V2000
   23.1943  -14.8487  -18.6074 N   0  0  0  0  0  0  0  0  0  0  0  0
   22.6917  -13.5897  -19.1594 C   0  0  1  0  0  0  0  0  0  0  0  0
   21.2620  -13.8091  -19.6640 C   0  0  0  0  0  0  0  0  0  0  0  0
   21.3224  -14.6801  -21.2451 S   0  0  0  0  0  0  0  0  0  0  0  0
   22.7004  -12.5877  -18.0630 C   0  0  0  0  0  0  0  0  0  0  0  0
   22.2033  -12.9831  -16.9540 O   0  0  0  0  0  0  0  0  0  0  0  0
   23.2191  -11.2939  -18.2318 N   0  0  0  0  0  0  0  0  0  0  0  0
   23.3424  -10.3931  -17.1102 C   0  0  1  0  0  0  0  0  0  0  0  0
   24.7580   -9.8801  -16.9924 C   0  0  0  0  0  0  0  0  0  0  0  0
   25.6982  -10.9276  -16.5289 C   0  0  0  0  0  0  0  0  0  0  0  0
   25.4072  -12.2339  -16.1639 C   0  0  0  0  0  0  0  0  0  0  0  0
   26.5333  -12.8787  -15.7988 N   0  0  0  0  0  0  0  0  0  0  0  0
   27.5213  -11.9833  -15.9342 C   0  0  0  0  0  0  0  0  0  0  0  0
   27.0302  -10.8179  -16.3691 N   0  0  0  0  0  0  0  0  0  0  0  0
   22.3376   -9.2894  -17.1908 C   0  0  0  0  0  0  0  0  0  0  0  0
   22.0792   -8.6986  -18.2685 O   0  0  0  0  0  0  0  0  0  0  0  0
   21.6463   -8.8876  -16.0150 N   0  0  0  0  0  0  0  0  0  0  0  0
   20.6359   -7.8360  -16.0281 C   0  0  1  0  0  0  0  0  0  0  0  0
   19.5390   -8.1293  -15.0370 C   0  0  0  0  0  0  0  0  0  0  0  0
   18.5125   -7.0688  -15.0582 C   0  0  0  0  0  0  0  0  0  0  0  0
   17.6652   -6.9300  -15.9941 O   0  0  0  0  0  0  0  0  0  0  0  0
   21.2299   -6.5017  -15.9134 C   0  0  0  0  0  0  0  0  0  0  0  0
   22.3440   -6.2740  -15.3635 O   0  0  0  0  0  0  0  0  0  0  0  0
   18.4051   -6.1321  -14.0306 O   0  0  0  0  0  0  0  0  0  0  0  0
   20.5792   -5.3910  -16.4190 O   0  0  0  0  0  0  0  0  0  0  0  0
  2  1  1  1
  3  2  1  0
  4  3  1  0
  5  2  1  0
  6  5  2  0
  7  5  1  0
  8  9  1  6
  8  7  1  0
  9 10  1  0
 10 14  1  0
 10 11  2  0
 11 12  1  0
 13 12  1  0
 14 13  2  0
 15  8  1  0
 16 15  2  0
 17 15  1  0
 18 17  1  0
 18 19  1  1
 19 20  1  0
 20 24  1  0
 20 21  2  0
 22 25  1  0
 22 18  1  0
 23 22  2  0
M  END
$$$$
