CHD.pdb
     RDKit          3D

 25 25  0  0  1  0  0  0  0  0999 V2000
   24.5861  -31.9641   -9.0266 N   0  0  0  0  0  0  0  0  0  0  0  0
   24.7677  -33.3803   -8.7043 C   0  0  1  0  0  0  0  0  0  0  0  0
   26.1747  -33.5786   -8.1317 C   0  0  0  0  0  0  0  0  0  0  0  0
   26.3845  -32.5010   -6.6976 S   0  0  0  0  0  0  0  0  0  0  0  0
   23.7453  -33.7406   -7.6887 C   0  0  0  0  0  0  0  0  0  0  0  0
   23.2435  -32.7588   -7.0426 O   0  0  0  0  0  0  0  0  0  0  0  0
   23.3557  -35.0688   -7.4534 N   0  0  0  0  0  0  0  0  0  0  0  0
   22.3106  -35.3776   -6.5063 C   0  0  1  0  0  0  0  0  0  0  0  0
   21.1722  -36.1003   -7.1864 C   0  0  0  0  0  0  0  0  0  0  0  0
   20.2996  -35.1790   -7.9521 C   0  0  0  0  0  0  0  0  0  0  0  0
   19.4334  -34.2156   -7.4565 C   0  0  0  0  0  0  0  0  0  0  0  0
   18.8133  -33.5793   -8.4703 N   0  0  0  0  0  0  0  0  0  0  0  0
   19.2875  -34.1399   -9.5914 C   0  0  0  0  0  0  0  0  0  0  0  0
   20.1741  -35.0945   -9.2895 N   0  0  0  0  0  0  0  0  0  0  0  0
   22.8496  -36.1320   -5.3339 C   0  0  0  0  0  0  0  0  0  0  0  0
   23.7910  -36.9558   -5.4451 O   0  0  0  0  0  0  0  0  0  0  0  0
   22.2852  -35.9175   -4.0466 N   0  0  0  0  0  0  0  0  0  0  0  0
   22.7678  -36.6149   -2.8600 C   0  0  1  0  0  0  0  0  0  0  0  0
   22.3431  -35.8992   -1.6035 C   0  0  0  0  0  0  0  0  0  0  0  0
   23.2605  -34.7843   -1.2966 C   0  0  0  0  0  0  0  0  0  0  0  0
   24.3001  -34.5223   -1.9775 O   0  0  0  0  0  0  0  0  0  0  0  0
   22.4469  -38.0439   -2.8939 C   0  0  0  0  0  0  0  0  0  0  0  0
   22.9585  -38.8971   -2.1157 O   0  0  0  0  0  0  0  0  0  0  0  0
   23.0398  -33.9295   -0.2170 O   0  0  0  0  0  0  0  0  0  0  0  0
   21.5379  -38.5441   -3.8085 O   0  0  0  0  0  0  0  0  0  0  0  0
  2  1  1  1
  3  2  1  0
  4  3  1  0
  5  2  1  0
  6  5  2  0
  7  5  1  0
  8  9  1  6
  8  7  1  0
  9 10  1  0
 10 14  1  0
 10 11  2  0
 11 12  1  0
 13 12  1  0
 14 13  2  0
 15  8  1  0
 16 15  2  0
 17 15  1  0
 18 17  1  0
 18 19  1  1
 19 20  1  0
 20 24  1  0
 20 21  2  0
 22 25  1  0
 22 18  1  0
 23 22  2  0
M  END
$$$$
