CHD.pdb
     RDKit          3D

 25 25  0  0  1  0  0  0  0  0999 V2000
   17.4547  -12.0834  -17.2376 N   0  0  0  0  0  0  0  0  0  0  0  0
   18.3225  -11.6901  -16.1264 C   0  0  1  0  0  0  0  0  0  0  0  0
   19.1849  -12.8912  -15.7260 C   0  0  0  0  0  0  0  0  0  0  0  0
   18.1157  -14.1934  -15.0754 S   0  0  0  0  0  0  0  0  0  0  0  0
   19.1829  -10.5780  -16.6053 C   0  0  0  0  0  0  0  0  0  0  0  0
   20.0369  -10.1418  -15.7605 O   0  0  0  0  0  0  0  0  0  0  0  0
   19.0671  -10.0415  -17.8976 N   0  0  0  0  0  0  0  0  0  0  0  0
   19.9394   -8.9793  -18.3397 C   0  0  1  0  0  0  0  0  0  0  0  0
   20.5220   -9.2982  -19.6960 C   0  0  0  0  0  0  0  0  0  0  0  0
   21.4931  -10.4165  -19.6412 C   0  0  0  0  0  0  0  0  0  0  0  0
   22.0769  -10.9848  -18.5185 C   0  0  0  0  0  0  0  0  0  0  0  0
   22.9092  -11.9819  -18.8792 N   0  0  0  0  0  0  0  0  0  0  0  0
   22.8470  -12.0373  -20.2168 C   0  0  0  0  0  0  0  0  0  0  0  0
   22.0044  -11.1066  -20.6775 N   0  0  0  0  0  0  0  0  0  0  0  0
   19.2392   -7.6589  -18.3127 C   0  0  0  0  0  0  0  0  0  0  0  0
   18.0274   -7.5390  -18.6199 O   0  0  0  0  0  0  0  0  0  0  0  0
   19.9593   -6.4947  -17.9283 N   0  0  0  0  0  0  0  0  0  0  0  0
   19.3478   -5.1707  -17.9162 C   0  0  1  0  0  0  0  0  0  0  0  0
   19.7777   -4.3889  -16.7016 C   0  0  0  0  0  0  0  0  0  0  0  0
   19.2123   -3.0257  -16.7253 C   0  0  0  0  0  0  0  0  0  0  0  0
   17.9659   -2.7823  -16.7423 O   0  0  0  0  0  0  0  0  0  0  0  0
   19.5229   -4.4728  -19.1924 C   0  0  0  0  0  0  0  0  0  0  0  0
   20.4917   -4.6763  -19.9768 O   0  0  0  0  0  0  0  0  0  0  0  0
   20.0275   -1.8941  -16.7306 O   0  0  0  0  0  0  0  0  0  0  0  0
   18.6055   -3.5277  -19.6143 O   0  0  0  0  0  0  0  0  0  0  0  0
  2  1  1  6
  3  2  1  0
  4  3  1  0
  5  2  1  0
  6  5  2  0
  7  5  1  0
  8  9  1  6
  8  7  1  0
  9 10  1  0
 10 14  1  0
 10 11  2  0
 11 12  1  0
 13 12  1  0
 14 13  2  0
 15  8  1  0
 16 15  2  0
 17 15  1  0
 18 17  1  0
 18 19  1  1
 19 20  1  0
 20 24  1  0
 20 21  2  0
 22 25  1  0
 22 18  1  0
 23 22  2  0
M  END
$$$$
