MTV.pdb
     RDKit          3D

 23 22  0  0  1  0  0  0  0  0999 V2000
   29.9003  -20.1821   -5.5234 C   0  0  0  0  0  0  0  0  0  0  0  0
   28.6220  -18.9477   -5.3631 S   0  0  0  0  0  0  0  0  0  0  0  0
   27.0911  -19.2898   -6.1999 C   0  0  0  0  0  0  0  0  0  0  0  0
   27.2658  -19.7006   -7.6160 C   0  0  0  0  0  0  0  0  0  0  0  0
   26.0234  -20.0462   -8.3610 C   0  0  2  0  0  0  0  0  0  0  0  0
   25.4336  -21.2407   -7.7817 N   0  0  0  0  0  0  0  0  0  0  0  0
   26.4330  -20.3530   -9.7797 C   0  0  0  0  0  0  0  0  0  0  0  0
   27.1717  -21.3512  -10.0224 O   0  0  0  0  0  0  0  0  0  0  0  0
   25.9100  -22.4202  -11.5237 C   0  0  0  0  0  0  0  0  0  0  0  0
   25.5342  -21.3046  -12.4217 C   0  0  1  0  0  0  0  0  0  0  0  0
   24.1901  -20.9741  -12.1091 O   0  0  0  0  0  0  0  0  0  0  0  0
   26.3049  -20.0213  -12.2446 C   0  0  2  0  0  0  0  0  0  0  0  0
   26.0183  -19.5546  -10.8739 N   0  0  0  0  0  0  0  0  0  0  0  0
   25.9099  -18.9338  -13.1446 C   0  0  0  0  0  0  0  0  0  0  0  0
   25.0939  -18.0581  -12.7757 O   0  0  0  0  0  0  0  0  0  0  0  0
   27.9928  -18.2245  -16.9045 C   0  0  0  0  0  0  0  0  0  0  0  0
   27.3400  -17.2112  -16.0263 C   0  0  2  0  0  0  0  0  0  0  0  0
   28.3484  -16.6922  -14.9964 C   0  0  0  0  0  0  0  0  0  0  0  0
   26.1379  -17.7382  -15.2823 C   0  0  2  0  0  0  0  0  0  0  0  0
   26.4546  -18.8662  -14.4477 N   0  0  0  0  0  0  0  0  0  0  0  0
   25.0705  -18.1162  -16.2347 C   0  0  0  0  0  0  0  0  0  0  0  0
   24.2863  -17.1566  -16.8645 O   0  0  0  0  0  0  0  0  0  0  0  0
   24.8415  -19.3254  -16.5028 O   0  0  0  0  0  0  0  0  0  0  0  0
  2  1  1  0
  3  4  1  0
  3  2  1  0
  5  4  1  0
  5  6  1  1
  7  8  2  0
  7  5  1  0
 10 12  1  0
 10  9  1  1
 11 10  1  0
 12 13  1  1
 13  7  1  0
 14 12  1  0
 15 14  2  0
 17 16  1  1
 17 19  1  0
 18 17  1  0
 19 21  1  0
 19 20  1  6
 20 14  1  0
 21 22  1  0
 23 21  2  0
M  END
$$$$
