MTV.pdb
     RDKit          3D

 23 22  0  0  1  0  0  0  0  0999 V2000
   30.5425  -20.6510  -10.1969 C   0  0  0  0  0  0  0  0  0  0  0  0
   30.0374  -21.1806  -11.8242 S   0  0  0  0  0  0  0  0  0  0  0  0
   29.0164  -20.0469  -12.7370 C   0  0  0  0  0  0  0  0  0  0  0  0
   27.5907  -20.4553  -12.8084 C   0  0  0  0  0  0  0  0  0  0  0  0
   26.9372  -20.7995  -11.5152 C   0  0  2  0  0  0  0  0  0  0  0  0
   27.5248  -22.0202  -10.9910 N   0  0  0  0  0  0  0  0  0  0  0  0
   25.4815  -21.0576  -11.8137 C   0  0  0  0  0  0  0  0  0  0  0  0
   25.1089  -22.2038  -12.1989 O   0  0  0  0  0  0  0  0  0  0  0  0
   20.9463  -20.0741  -10.4275 C   0  0  0  0  0  0  0  0  0  0  0  0
   22.4068  -19.8586  -10.5392 C   0  0  1  0  0  0  0  0  0  0  0  0
   22.9974  -20.5411   -9.4443 O   0  0  0  0  0  0  0  0  0  0  0  0
   23.0710  -20.4338  -11.7642 C   0  0  2  0  0  0  0  0  0  0  0  0
   24.4940  -20.0509  -11.6792 N   0  0  0  0  0  0  0  0  0  0  0  0
   22.5751  -19.9091  -13.0399 C   0  0  0  0  0  0  0  0  0  0  0  0
   22.9630  -18.7998  -13.4733 O   0  0  0  0  0  0  0  0  0  0  0  0
   22.7654  -21.6559  -16.3577 C   0  0  0  0  0  0  0  0  0  0  0  0
   21.3661  -21.1718  -16.1792 C   0  0  2  0  0  0  0  0  0  0  0  0
   20.8684  -20.5356  -17.4809 C   0  0  0  0  0  0  0  0  0  0  0  0
   21.2118  -20.1582  -15.0723 C   0  0  2  0  0  0  0  0  0  0  0  0
   21.6474  -20.6612  -13.7969 N   0  0  0  0  0  0  0  0  0  0  0  0
   19.8023  -19.7192  -14.9717 C   0  0  0  0  0  0  0  0  0  0  0  0
   19.3514  -18.5728  -15.6158 O   0  0  0  0  0  0  0  0  0  0  0  0
   18.9671  -20.3763  -14.2956 O   0  0  0  0  0  0  0  0  0  0  0  0
  2  1  1  0
  3  4  1  0
  3  2  1  0
  5  4  1  0
  5  6  1  6
  7  8  2  0
  7  5  1  0
 10 12  1  0
 10  9  1  6
 11 10  1  0
 12 13  1  1
 13  7  1  0
 14 12  1  0
 15 14  2  0
 17 16  1  6
 17 19  1  0
 18 17  1  0
 19 21  1  0
 19 20  1  1
 20 14  1  0
 21 22  1  0
 23 21  2  0
M  END
$$$$
