MTV.pdb
     RDKit          3D

 23 22  0  0  1  0  0  0  0  0999 V2000
   23.8759  -21.0280   -6.3142 C   0  0  0  0  0  0  0  0  0  0  0  0
   24.2313  -21.4547   -8.0099 S   0  0  0  0  0  0  0  0  0  0  0  0
   25.5624  -20.5634   -8.7812 C   0  0  0  0  0  0  0  0  0  0  0  0
   25.7780  -20.9297  -10.2038 C   0  0  0  0  0  0  0  0  0  0  0  0
   24.6804  -20.5820  -11.1485 C   0  0  2  0  0  0  0  0  0  0  0  0
   23.5857  -21.5216  -10.9782 N   0  0  0  0  0  0  0  0  0  0  0  0
   25.2346  -20.7385  -12.5425 C   0  0  0  0  0  0  0  0  0  0  0  0
   25.6327  -21.8717  -12.9407 O   0  0  0  0  0  0  0  0  0  0  0  0
   24.2468  -22.0798  -14.7646 C   0  0  0  0  0  0  0  0  0  0  0  0
   24.4016  -20.7310  -15.3552 C   0  0  1  0  0  0  0  0  0  0  0  0
   23.2593  -19.9874  -14.9606 O   0  0  0  0  0  0  0  0  0  0  0  0
   25.5803  -19.9255  -14.8709 C   0  0  2  0  0  0  0  0  0  0  0  0
   25.3311  -19.6490  -13.4425 N   0  0  0  0  0  0  0  0  0  0  0  0
   25.7488  -18.6235  -15.5228 C   0  0  0  0  0  0  0  0  0  0  0  0
   25.1270  -17.6152  -15.1156 O   0  0  0  0  0  0  0  0  0  0  0  0
   28.8346  -17.9871  -18.5372 C   0  0  0  0  0  0  0  0  0  0  0  0
   28.3352  -16.9965  -17.5404 C   0  0  2  0  0  0  0  0  0  0  0  0
   29.1732  -17.0823  -16.2608 C   0  0  0  0  0  0  0  0  0  0  0  0
   26.8864  -17.1901  -17.1667 C   0  0  2  0  0  0  0  0  0  0  0  0
   26.6244  -18.4970  -16.6257 N   0  0  0  0  0  0  0  0  0  0  0  0
   26.0185  -16.9627  -18.3433 C   0  0  0  0  0  0  0  0  0  0  0  0
   25.2461  -17.9842  -18.8840 O   0  0  0  0  0  0  0  0  0  0  0  0
   25.9551  -15.8301  -18.8908 O   0  0  0  0  0  0  0  0  0  0  0  0
  2  1  1  0
  3  4  1  0
  3  2  1  0
  5  4  1  0
  5  6  1  6
  7  8  2  0
  7  5  1  0
 10 12  1  0
 10  9  1  1
 11 10  1  0
 12 13  1  1
 13  7  1  0
 14 12  1  0
 15 14  2  0
 17 16  1  6
 17 19  1  0
 18 17  1  0
 19 21  1  0
 19 20  1  6
 20 14  1  0
 21 22  1  0
 23 21  2  0
M  END
$$$$
