MTV.pdb
     RDKit          3D

 23 22  0  0  1  0  0  0  0  0999 V2000
   27.1827  -17.8971   -7.2999 C   0  0  0  0  0  0  0  0  0  0  0  0
   27.5612  -19.6382   -7.2057 S   0  0  0  0  0  0  0  0  0  0  0  0
   26.5741  -20.7123   -8.2222 C   0  0  0  0  0  0  0  0  0  0  0  0
   26.6317  -20.3814   -9.6685 C   0  0  0  0  0  0  0  0  0  0  0  0
   25.7224  -21.1548  -10.5590 C   0  0  2  0  0  0  0  0  0  0  0  0
   26.0921  -22.5591  -10.5187 N   0  0  0  0  0  0  0  0  0  0  0  0
   25.9394  -20.6417  -11.9606 C   0  0  0  0  0  0  0  0  0  0  0  0
   27.0256  -20.8860  -12.5619 O   0  0  0  0  0  0  0  0  0  0  0  0
   25.6503  -22.3468  -14.0995 C   0  0  0  0  0  0  0  0  0  0  0  0
   24.6444  -21.3401  -14.5080 C   0  0  1  0  0  0  0  0  0  0  0  0
   23.4467  -21.6691  -13.8218 O   0  0  0  0  0  0  0  0  0  0  0  0
   24.9385  -19.9130  -14.1214 C   0  0  2  0  0  0  0  0  0  0  0  0
   24.9596  -19.8821  -12.6458 N   0  0  0  0  0  0  0  0  0  0  0  0
   23.9284  -18.9379  -14.5429 C   0  0  0  0  0  0  0  0  0  0  0  0
   22.9468  -18.6721  -13.8117 O   0  0  0  0  0  0  0  0  0  0  0  0
   22.9620  -14.9994  -17.3165 C   0  0  0  0  0  0  0  0  0  0  0  0
   23.8001  -16.2081  -17.0697 C   0  0  2  0  0  0  0  0  0  0  0  0
   24.0531  -16.9411  -18.3909 C   0  0  0  0  0  0  0  0  0  0  0  0
   23.1831  -17.1862  -16.1008 C   0  0  2  0  0  0  0  0  0  0  0  0
   24.0589  -18.2841  -15.7898 N   0  0  0  0  0  0  0  0  0  0  0  0
   21.9104  -17.7116  -16.6430 C   0  0  0  0  0  0  0  0  0  0  0  0
   20.7040  -17.0551  -16.4285 O   0  0  0  0  0  0  0  0  0  0  0  0
   21.8851  -18.7746  -17.3181 O   0  0  0  0  0  0  0  0  0  0  0  0
  2  1  1  0
  3  4  1  0
  3  2  1  0
  5  4  1  0
  5  6  1  6
  7  8  2  0
  7  5  1  0
 10 12  1  0
 10  9  1  1
 11 10  1  0
 12 13  1  1
 13  7  1  0
 14 12  1  0
 15 14  2  0
 17 16  1  6
 17 19  1  0
 18 17  1  0
 19 21  1  0
 19 20  1  6
 20 14  1  0
 21 22  1  0
 23 21  2  0
M  END
$$$$
