MTV.pdb
     RDKit          3D

 23 22  0  0  1  0  0  0  0  0999 V2000
   23.2462  -18.3400  -14.8550 C   0  0  0  0  0  0  0  0  0  0  0  0
   21.6110  -18.9480  -14.4806 S   0  0  0  0  0  0  0  0  0  0  0  0
   20.2705  -18.1978  -15.3758 C   0  0  0  0  0  0  0  0  0  0  0  0
   20.5859  -16.8427  -15.8942 C   0  0  0  0  0  0  0  0  0  0  0  0
   19.5254  -16.1834  -16.7059 C   0  0  2  0  0  0  0  0  0  0  0  0
   19.2627  -16.9817  -17.8907 N   0  0  0  0  0  0  0  0  0  0  0  0
   20.0720  -14.8463  -17.1398 C   0  0  0  0  0  0  0  0  0  0  0  0
   20.9685  -14.7892  -18.0310 O   0  0  0  0  0  0  0  0  0  0  0  0
   18.9762  -12.4140  -19.2727 C   0  0  0  0  0  0  0  0  0  0  0  0
   19.1838  -11.7381  -17.9718 C   0  0  1  0  0  0  0  0  0  0  0  0
   17.9540  -11.8325  -17.2705 O   0  0  0  0  0  0  0  0  0  0  0  0
   20.2064  -12.3610  -17.0559 C   0  0  2  0  0  0  0  0  0  0  0  0
   19.6160  -13.6275  -16.5803 N   0  0  0  0  0  0  0  0  0  0  0  0
   20.5241  -11.5759  -15.8595 C   0  0  0  0  0  0  0  0  0  0  0  0
   19.9118  -11.7669  -14.7836 O   0  0  0  0  0  0  0  0  0  0  0  0
   24.2175   -9.4839  -15.4323 C   0  0  0  0  0  0  0  0  0  0  0  0
   23.2838   -9.8897  -14.3426 C   0  0  2  0  0  0  0  0  0  0  0  0
   23.5915  -11.3252  -13.9050 C   0  0  0  0  0  0  0  0  0  0  0  0
   21.8284   -9.8200  -14.7340 C   0  0  2  0  0  0  0  0  0  0  0  0
   21.5352  -10.5890  -15.9138 N   0  0  0  0  0  0  0  0  0  0  0  0
   21.4225   -8.4137  -14.9510 C   0  0  0  0  0  0  0  0  0  0  0  0
   21.2960   -7.5228  -13.8914 O   0  0  0  0  0  0  0  0  0  0  0  0
   21.1790   -7.9823  -16.1091 O   0  0  0  0  0  0  0  0  0  0  0  0
  2  1  1  0
  3  4  1  0
  3  2  1  0
  5  4  1  0
  5  6  1  6
  7  8  2  0
  7  5  1  0
 10 12  1  0
 10  9  1  6
 11 10  1  0
 12 13  1  1
 13  7  1  0
 14 12  1  0
 15 14  2  0
 17 16  1  6
 17 19  1  0
 18 17  1  0
 19 21  1  0
 19 20  1  6
 20 14  1  0
 21 22  1  0
 23 21  2  0
M  END
$$$$
