MTV.pdb
     RDKit          3D

 23 22  0  0  1  0  0  0  0  0999 V2000
   19.7099  -21.8737  -12.9023 C   0  0  0  0  0  0  0  0  0  0  0  0
   20.2064  -20.2022  -12.5238 S   0  0  0  0  0  0  0  0  0  0  0  0
   21.9054  -19.7944  -12.8525 C   0  0  0  0  0  0  0  0  0  0  0  0
   22.8748  -20.6765  -12.1549 C   0  0  0  0  0  0  0  0  0  0  0  0
   24.3140  -20.4502  -12.4640 C   0  0  2  0  0  0  0  0  0  0  0  0
   24.6434  -21.1039  -13.7188 N   0  0  0  0  0  0  0  0  0  0  0  0
   25.1082  -21.1027  -11.3602 C   0  0  0  0  0  0  0  0  0  0  0  0
   25.4398  -22.3201  -11.4550 O   0  0  0  0  0  0  0  0  0  0  0  0
   27.6179  -21.5844  -11.6529 C   0  0  0  0  0  0  0  0  0  0  0  0
   27.8287  -20.9219  -10.3456 C   0  0  1  0  0  0  0  0  0  0  0  0
   28.0954  -19.5569  -10.6266 O   0  0  0  0  0  0  0  0  0  0  0  0
   26.6458  -20.9060   -9.4112 C   0  0  2  0  0  0  0  0  0  0  0  0
   25.5059  -20.3966  -10.1984 N   0  0  0  0  0  0  0  0  0  0  0  0
   26.7834  -20.0151   -8.2552 C   0  0  0  0  0  0  0  0  0  0  0  0
   26.2527  -18.8806   -8.2510 O   0  0  0  0  0  0  0  0  0  0  0  0
   29.5191  -20.8115   -4.9106 C   0  0  0  0  0  0  0  0  0  0  0  0
   28.1387  -20.2680   -4.7583 C   0  0  2  0  0  0  0  0  0  0  0  0
   27.1688  -21.4051   -4.4220 C   0  0  0  0  0  0  0  0  0  0  0  0
   27.6259  -19.5619   -5.9890 C   0  0  2  0  0  0  0  0  0  0  0  0
   27.5228  -20.4368   -7.1262 N   0  0  0  0  0  0  0  0  0  0  0  0
   28.5022  -18.4185   -6.3268 C   0  0  0  0  0  0  0  0  0  0  0  0
   28.5164  -17.2621   -5.5555 O   0  0  0  0  0  0  0  0  0  0  0  0
   29.2643  -18.4618   -7.3288 O   0  0  0  0  0  0  0  0  0  0  0  0
  2  1  1  0
  3  4  1  0
  3  2  1  0
  5  4  1  0
  5  6  1  6
  7  8  2  0
  7  5  1  0
 10 12  1  0
 10  9  1  6
 11 10  1  0
 12 13  1  6
 13  7  1  0
 14 12  1  0
 15 14  2  0
 17 16  1  6
 17 19  1  0
 18 17  1  0
 19 21  1  0
 19 20  1  6
 20 14  1  0
 21 22  1  0
 23 21  2  0
M  END
$$$$
