MTV.pdb
     RDKit          3D

 23 22  0  0  1  0  0  0  0  0999 V2000
   16.9791  -15.1699  -15.5227 C   0  0  0  0  0  0  0  0  0  0  0  0
   15.8653  -14.0034  -14.7595 S   0  0  0  0  0  0  0  0  0  0  0  0
   15.2877  -12.6775  -15.7937 C   0  0  0  0  0  0  0  0  0  0  0  0
   16.2048  -11.5105  -15.8327 C   0  0  0  0  0  0  0  0  0  0  0  0
   15.7961  -10.3791  -16.7107 C   0  0  2  0  0  0  0  0  0  0  0  0
   15.3852  -10.8994  -18.0032 N   0  0  0  0  0  0  0  0  0  0  0  0
   17.0153   -9.5134  -16.9076 C   0  0  0  0  0  0  0  0  0  0  0  0
   17.8808   -9.8286  -17.7751 O   0  0  0  0  0  0  0  0  0  0  0  0
   17.0402   -5.9606  -17.9283 C   0  0  0  0  0  0  0  0  0  0  0  0
   17.8849   -6.1161  -16.7222 C   0  0  1  0  0  0  0  0  0  0  0  0
   17.0548   -5.8180  -15.6106 O   0  0  0  0  0  0  0  0  0  0  0  0
   18.4135   -7.5026  -16.4562 C   0  0  2  0  0  0  0  0  0  0  0  0
   17.2375   -8.3393  -16.1468 N   0  0  0  0  0  0  0  0  0  0  0  0
   19.3143   -7.6102  -15.3048 C   0  0  0  0  0  0  0  0  0  0  0  0
   18.8634   -7.7906  -14.1503 O   0  0  0  0  0  0  0  0  0  0  0  0
   22.0506  -10.0849  -14.8924 C   0  0  0  0  0  0  0  0  0  0  0  0
   22.6260   -8.7444  -14.5821 C   0  0  2  0  0  0  0  0  0  0  0  0
   23.4930   -8.8323  -13.3222 C   0  0  0  0  0  0  0  0  0  0  0  0
   21.5856   -7.6741  -14.3623 C   0  0  2  0  0  0  0  0  0  0  0  0
   20.7121   -7.5110  -15.4936 N   0  0  0  0  0  0  0  0  0  0  0  0
   22.2367   -6.3816  -14.0543 C   0  0  0  0  0  0  0  0  0  0  0  0
   22.6608   -6.0709  -12.7674 O   0  0  0  0  0  0  0  0  0  0  0  0
   22.4258   -5.5218  -14.9552 O   0  0  0  0  0  0  0  0  0  0  0  0
  2  1  1  0
  3  4  1  0
  3  2  1  0
  5  4  1  0
  5  6  1  6
  7  8  2  0
  7  5  1  0
 10 12  1  0
 10  9  1  6
 11 10  1  0
 12 13  1  1
 13  7  1  0
 14 12  1  0
 15 14  2  0
 17 16  1  1
 17 19  1  0
 18 17  1  0
 19 21  1  0
 19 20  1  6
 20 14  1  0
 21 22  1  0
 23 21  2  0
M  END
$$$$
