MTV.pdb
     RDKit          3D

 23 22  0  0  1  0  0  0  0  0999 V2000
   29.3205  -16.4577  -15.8920 C   0  0  0  0  0  0  0  0  0  0  0  0
   28.6105  -17.0226  -17.4283 S   0  0  0  0  0  0  0  0  0  0  0  0
   27.3590  -18.2789  -17.2996 C   0  0  0  0  0  0  0  0  0  0  0  0
   26.6648  -18.2950  -15.9873 C   0  0  0  0  0  0  0  0  0  0  0  0
   25.6742  -19.3873  -15.7781 C   0  0  2  0  0  0  0  0  0  0  0  0
   24.5729  -19.2208  -16.7107 N   0  0  0  0  0  0  0  0  0  0  0  0
   25.1420  -19.2349  -14.3751 C   0  0  0  0  0  0  0  0  0  0  0  0
   24.3558  -18.2832  -14.0974 O   0  0  0  0  0  0  0  0  0  0  0  0
   22.5491  -20.5119  -13.1592 C   0  0  0  0  0  0  0  0  0  0  0  0
   23.5694  -20.9305  -12.1714 C   0  0  1  0  0  0  0  0  0  0  0  0
   24.0764  -22.1766  -12.6226 O   0  0  0  0  0  0  0  0  0  0  0  0
   24.7777  -20.0378  -12.0461 C   0  0  2  0  0  0  0  0  0  0  0  0
   25.4927  -20.1293  -13.3342 N   0  0  0  0  0  0  0  0  0  0  0  0
   25.7354  -20.4358  -11.0102 C   0  0  0  0  0  0  0  0  0  0  0  0
   26.6662  -21.2335  -11.2674 O   0  0  0  0  0  0  0  0  0  0  0  0
   27.3866  -18.0523   -8.2273 C   0  0  0  0  0  0  0  0  0  0  0  0
   26.8106  -19.3014   -7.6509 C   0  0  2  0  0  0  0  0  0  0  0  0
   27.7774  -19.8885   -6.6177 C   0  0  0  0  0  0  0  0  0  0  0  0
   26.5198  -20.3658   -8.6798 C   0  0  2  0  0  0  0  0  0  0  0  0
   25.6132  -19.9148   -9.7015 N   0  0  0  0  0  0  0  0  0  0  0  0
   25.9634  -21.5716   -8.0270 C   0  0  0  0  0  0  0  0  0  0  0  0
   26.7890  -22.5564   -7.4969 O   0  0  0  0  0  0  0  0  0  0  0  0
   24.7186  -21.7399   -7.9330 O   0  0  0  0  0  0  0  0  0  0  0  0
  2  1  1  0
  3  4  1  0
  3  2  1  0
  5  4  1  0
  5  6  1  6
  7  8  2  0
  7  5  1  0
 10 12  1  0
 10  9  1  6
 11 10  1  0
 12 13  1  6
 13  7  1  0
 14 12  1  0
 15 14  2  0
 17 16  1  6
 17 19  1  0
 18 17  1  0
 19 21  1  0
 19 20  1  6
 20 14  1  0
 21 22  1  0
 23 21  2  0
M  END
$$$$
