MTV.pdb
     RDKit          3D

 23 22  0  0  1  0  0  0  0  0999 V2000
   27.2530  -19.9587   -7.0511 C   0  0  0  0  0  0  0  0  0  0  0  0
   25.5957  -20.5465   -7.3534 S   0  0  0  0  0  0  0  0  0  0  0  0
   25.2560  -21.1244   -9.0001 C   0  0  0  0  0  0  0  0  0  0  0  0
   26.0029  -20.3920  -10.0538 C   0  0  0  0  0  0  0  0  0  0  0  0
   25.7890  -20.8509  -11.4543 C   0  0  2  0  0  0  0  0  0  0  0  0
   26.3141  -22.1972  -11.6033 N   0  0  0  0  0  0  0  0  0  0  0  0
   26.5801  -19.9261  -12.3452 C   0  0  0  0  0  0  0  0  0  0  0  0
   27.8393  -19.8667  -12.2352 O   0  0  0  0  0  0  0  0  0  0  0  0
   28.5307  -20.2623  -14.1343 C   0  0  0  0  0  0  0  0  0  0  0  0
   27.6163  -19.4789  -14.9958 C   0  0  1  0  0  0  0  0  0  0  0  0
   26.6584  -20.3956  -15.5013 O   0  0  0  0  0  0  0  0  0  0  0  0
   26.8090  -18.4085  -14.3065 C   0  0  2  0  0  0  0  0  0  0  0  0
   25.9610  -19.1042  -13.3187 N   0  0  0  0  0  0  0  0  0  0  0  0
   25.9005  -17.6605  -15.1804 C   0  0  0  0  0  0  0  0  0  0  0  0
   24.7270  -18.0530  -15.3749 O   0  0  0  0  0  0  0  0  0  0  0  0
   26.6808  -13.5917  -16.1431 C   0  0  0  0  0  0  0  0  0  0  0  0
   25.3526  -14.2685  -16.1873 C   0  0  2  0  0  0  0  0  0  0  0  0
   24.6933  -14.2058  -14.8059 C   0  0  0  0  0  0  0  0  0  0  0  0
   25.4231  -15.7155  -16.6086 C   0  0  2  0  0  0  0  0  0  0  0  0
   26.3482  -16.4786  -15.8142 N   0  0  0  0  0  0  0  0  0  0  0  0
   25.8018  -15.8163  -18.0356 C   0  0  0  0  0  0  0  0  0  0  0  0
   24.9191  -15.4578  -19.0479 O   0  0  0  0  0  0  0  0  0  0  0  0
   26.9414  -16.2322  -18.3743 O   0  0  0  0  0  0  0  0  0  0  0  0
  2  1  1  0
  3  4  1  0
  3  2  1  0
  5  4  1  0
  5  6  1  1
  7  8  2  0
  7  5  1  0
 10 12  1  0
 10  9  1  1
 11 10  1  0
 12 13  1  1
 13  7  1  0
 14 12  1  0
 15 14  2  0
 17 16  1  1
 17 19  1  0
 18 17  1  0
 19 21  1  0
 19 20  1  1
 20 14  1  0
 21 22  1  0
 23 21  2  0
M  END
$$$$
