MTV.pdb
     RDKit          3D

 23 22  0  0  1  0  0  0  0  0999 V2000
   31.5639  -23.9817   -8.8566 C   0  0  0  0  0  0  0  0  0  0  0  0
   32.5498  -22.5316   -9.1863 S   0  0  0  0  0  0  0  0  0  0  0  0
   32.5168  -21.9231  -10.8566 C   0  0  0  0  0  0  0  0  0  0  0  0
   31.1622  -21.5289  -11.3196 C   0  0  0  0  0  0  0  0  0  0  0  0
   31.0526  -21.0848  -12.7369 C   0  0  2  0  0  0  0  0  0  0  0  0
   32.1150  -20.1372  -13.0260 N   0  0  0  0  0  0  0  0  0  0  0  0
   29.7279  -20.3769  -12.8741 C   0  0  0  0  0  0  0  0  0  0  0  0
   29.5920  -19.1992  -12.4318 O   0  0  0  0  0  0  0  0  0  0  0  0
   28.2657  -19.0747  -15.7034 C   0  0  0  0  0  0  0  0  0  0  0  0
   27.2074  -19.9125  -15.0949 C   0  0  1  0  0  0  0  0  0  0  0  0
   27.2786  -21.1763  -15.7362 O   0  0  0  0  0  0  0  0  0  0  0  0
   27.3593  -20.2098  -13.6248 C   0  0  2  0  0  0  0  0  0  0  0  0
   28.6068  -20.9869  -13.4885 N   0  0  0  0  0  0  0  0  0  0  0  0
   26.2923  -21.0324  -13.0472 C   0  0  0  0  0  0  0  0  0  0  0  0
   26.3437  -22.2828  -13.1012 O   0  0  0  0  0  0  0  0  0  0  0  0
   23.7326  -19.6372   -9.9405 C   0  0  0  0  0  0  0  0  0  0  0  0
   24.0474  -21.0393  -10.3395 C   0  0  2  0  0  0  0  0  0  0  0  0
   25.3680  -21.4761   -9.6976 C   0  0  0  0  0  0  0  0  0  0  0  0
   24.1635  -21.2336  -11.8312 C   0  0  2  0  0  0  0  0  0  0  0  0
   25.1883  -20.4123  -12.4180 N   0  0  0  0  0  0  0  0  0  0  0  0
   22.8688  -20.9475  -12.4879 C   0  0  0  0  0  0  0  0  0  0  0  0
   22.7255  -19.8920  -13.3811 O   0  0  0  0  0  0  0  0  0  0  0  0
   21.8545  -21.6569  -12.2543 O   0  0  0  0  0  0  0  0  0  0  0  0
  2  1  1  0
  3  4  1  0
  3  2  1  0
  5  4  1  0
  5  6  1  1
  7  8  2  0
  7  5  1  0
 10 12  1  0
 10  9  1  6
 11 10  1  0
 12 13  1  6
 13  7  1  0
 14 12  1  0
 15 14  2  0
 17 16  1  6
 17 19  1  0
 18 17  1  0
 19 21  1  0
 19 20  1  6
 20 14  1  0
 21 22  1  0
 23 21  2  0
M  END
$$$$
