MTV.pdb
     RDKit          3D

 23 22  0  0  1  0  0  0  0  0999 V2000
   27.9179  -11.1580  -16.0160 C   0  0  0  0  0  0  0  0  0  0  0  0
   27.2923  -12.5513  -16.9384 S   0  0  0  0  0  0  0  0  0  0  0  0
   25.6209  -13.0419  -16.5822 C   0  0  0  0  0  0  0  0  0  0  0  0
   24.6512  -11.9180  -16.6142 C   0  0  0  0  0  0  0  0  0  0  0  0
   23.2194  -12.2759  -16.4146 C   0  0  2  0  0  0  0  0  0  0  0  0
   22.8273  -13.2579  -17.4106 N   0  0  0  0  0  0  0  0  0  0  0  0
   22.4171  -11.0185  -16.6386 C   0  0  0  0  0  0  0  0  0  0  0  0
   22.0908  -10.6780  -17.8128 O   0  0  0  0  0  0  0  0  0  0  0  0
   19.0544  -10.2557  -16.1305 C   0  0  0  0  0  0  0  0  0  0  0  0
   19.8248   -9.2363  -15.3824 C   0  0  1  0  0  0  0  0  0  0  0  0
   19.9846   -9.7413  -14.0660 O   0  0  0  0  0  0  0  0  0  0  0  0
   21.2251   -8.9703  -15.8731 C   0  0  2  0  0  0  0  0  0  0  0  0
   22.0058  -10.1856  -15.5692 N   0  0  0  0  0  0  0  0  0  0  0  0
   21.9120   -7.8586  -15.2089 C   0  0  0  0  0  0  0  0  0  0  0  0
   22.7753   -8.0712  -14.3267 O   0  0  0  0  0  0  0  0  0  0  0  0
   21.8525   -3.9177  -16.9322 C   0  0  0  0  0  0  0  0  0  0  0  0
   22.9160   -4.5202  -16.0778 C   0  0  2  0  0  0  0  0  0  0  0  0
   23.9004   -5.3036  -16.9519 C   0  0  0  0  0  0  0  0  0  0  0  0
   22.3857   -5.4524  -15.0167 C   0  0  2  0  0  0  0  0  0  0  0  0
   21.6012   -6.5261  -15.5653 N   0  0  0  0  0  0  0  0  0  0  0  0
   21.5721   -4.7018  -14.0347 C   0  0  0  0  0  0  0  0  0  0  0  0
   20.1994   -4.8951  -13.9303 O   0  0  0  0  0  0  0  0  0  0  0  0
   22.1042   -3.8619  -13.2614 O   0  0  0  0  0  0  0  0  0  0  0  0
  2  1  1  0
  3  4  1  0
  3  2  1  0
  5  4  1  0
  5  6  1  6
  7  8  2  0
  7  5  1  0
 10 12  1  0
 10  9  1  6
 11 10  1  0
 12 13  1  1
 13  7  1  0
 14 12  1  0
 15 14  2  0
 17 16  1  6
 17 19  1  0
 18 17  1  0
 19 21  1  0
 19 20  1  6
 20 14  1  0
 21 22  1  0
 23 21  2  0
M  END
$$$$
