MTV.pdb
     RDKit          3D

 23 22  0  0  1  0  0  0  0  0999 V2000
   28.5956  -18.7241   -7.0213 C   0  0  0  0  0  0  0  0  0  0  0  0
   26.8700  -19.1148   -6.7910 S   0  0  0  0  0  0  0  0  0  0  0  0
   26.2132  -20.4064   -7.8214 C   0  0  0  0  0  0  0  0  0  0  0  0
   26.3047  -20.1130   -9.2741 C   0  0  0  0  0  0  0  0  0  0  0  0
   25.8105  -21.1748  -10.1941 C   0  0  2  0  0  0  0  0  0  0  0  0
   26.7514  -22.2816  -10.1983 N   0  0  0  0  0  0  0  0  0  0  0  0
   25.7704  -20.5740  -11.5769 C   0  0  0  0  0  0  0  0  0  0  0  0
   26.8302  -20.1236  -12.1012 O   0  0  0  0  0  0  0  0  0  0  0  0
   25.8821  -22.2515  -14.2955 C   0  0  0  0  0  0  0  0  0  0  0  0
   24.7019  -21.3899  -14.5343 C   0  0  1  0  0  0  0  0  0  0  0  0
   23.5712  -22.1307  -14.1029 O   0  0  0  0  0  0  0  0  0  0  0  0
   24.6500  -20.1032  -13.7506 C   0  0  2  0  0  0  0  0  0  0  0  0
   24.5725  -20.4901  -12.3283 N   0  0  0  0  0  0  0  0  0  0  0  0
   23.4781  -19.2640  -14.0173 C   0  0  0  0  0  0  0  0  0  0  0  0
   22.5747  -19.1300  -13.1600 O   0  0  0  0  0  0  0  0  0  0  0  0
   21.2129  -15.9236  -16.8633 C   0  0  0  0  0  0  0  0  0  0  0  0
   22.3768  -16.8314  -16.6505 C   0  0  2  0  0  0  0  0  0  0  0  0
   22.6554  -17.6248  -17.9310 C   0  0  0  0  0  0  0  0  0  0  0  0
   22.1809  -17.8141  -15.5225 C   0  0  2  0  0  0  0  0  0  0  0  0
   23.3604  -18.5932  -15.2564 N   0  0  0  0  0  0  0  0  0  0  0  0
   21.0507  -18.7208  -15.8228 C   0  0  0  0  0  0  0  0  0  0  0  0
   19.7474  -18.4012  -15.4602 O   0  0  0  0  0  0  0  0  0  0  0  0
   21.2397  -19.8141  -16.4192 O   0  0  0  0  0  0  0  0  0  0  0  0
  2  1  1  0
  3  4  1  0
  3  2  1  0
  5  4  1  0
  5  6  1  6
  7  8  2  0
  7  5  1  0
 10 12  1  0
 10  9  1  1
 11 10  1  0
 12 13  1  1
 13  7  1  0
 14 12  1  0
 15 14  2  0
 17 16  1  6
 17 19  1  0
 18 17  1  0
 19 21  1  0
 19 20  1  6
 20 14  1  0
 21 22  1  0
 23 21  2  0
M  END
$$$$
