MTV.pdb
     RDKit          3D

 23 22  0  0  1  0  0  0  0  0999 V2000
   27.2502  -13.5435  -14.9990 C   0  0  0  0  0  0  0  0  0  0  0  0
   26.1918  -14.7598  -15.7632 S   0  0  0  0  0  0  0  0  0  0  0  0
   25.3469  -14.2474  -17.2413 C   0  0  0  0  0  0  0  0  0  0  0  0
   24.5325  -13.0185  -17.0656 C   0  0  0  0  0  0  0  0  0  0  0  0
   23.0578  -13.1798  -17.1963 C   0  0  2  0  0  0  0  0  0  0  0  0
   22.7692  -14.0628  -18.3131 N   0  0  0  0  0  0  0  0  0  0  0  0
   22.4924  -11.8159  -17.5046 C   0  0  0  0  0  0  0  0  0  0  0  0
   22.7491  -11.2610  -18.6124 O   0  0  0  0  0  0  0  0  0  0  0  0
   19.0824  -11.1201  -18.0906 C   0  0  0  0  0  0  0  0  0  0  0  0
   19.5362  -10.1587  -17.0601 C   0  0  1  0  0  0  0  0  0  0  0  0
   19.2499  -10.7532  -15.8038 O   0  0  0  0  0  0  0  0  0  0  0  0
   21.0151   -9.8683  -17.0285 C   0  0  2  0  0  0  0  0  0  0  0  0
   21.6704  -11.1154  -16.5879 N   0  0  0  0  0  0  0  0  0  0  0  0
   21.4206   -8.8281  -16.0786 C   0  0  0  0  0  0  0  0  0  0  0  0
   21.9017   -9.1292  -14.9620 O   0  0  0  0  0  0  0  0  0  0  0  0
   23.2485   -5.3777  -17.1955 C   0  0  0  0  0  0  0  0  0  0  0  0
   22.1496   -5.1854  -16.2059 C   0  0  2  0  0  0  0  0  0  0  0  0
   22.5841   -4.1750  -15.1396 C   0  0  0  0  0  0  0  0  0  0  0  0
   21.7339   -6.4562  -15.5069 C   0  0  2  0  0  0  0  0  0  0  0  0
   21.2703   -7.4647  -16.4219 N   0  0  0  0  0  0  0  0  0  0  0  0
   20.6760   -6.1719  -14.5122 C   0  0  0  0  0  0  0  0  0  0  0  0
   20.9855   -5.8321  -13.2002 O   0  0  0  0  0  0  0  0  0  0  0  0
   19.4582   -6.2302  -14.8287 O   0  0  0  0  0  0  0  0  0  0  0  0
  2  1  1  0
  3  4  1  0
  3  2  1  0
  5  4  1  0
  5  6  1  6
  7  8  2  0
  7  5  1  0
 10 12  1  0
 10  9  1  6
 11 10  1  0
 12 13  1  1
 13  7  1  0
 14 12  1  0
 15 14  2  0
 17 16  1  6
 17 19  1  0
 18 17  1  0
 19 21  1  0
 19 20  1  6
 20 14  1  0
 21 22  1  0
 23 21  2  0
M  END
$$$$
