MTV.pdb
     RDKit          3D

 23 22  0  0  1  0  0  0  0  0999 V2000
   28.1983  -18.3790   -6.4212 C   0  0  0  0  0  0  0  0  0  0  0  0
   28.5585  -20.0917   -6.7678 S   0  0  0  0  0  0  0  0  0  0  0  0
   27.2045  -21.0715   -7.3743 C   0  0  0  0  0  0  0  0  0  0  0  0
   26.6115  -20.5528   -8.6329 C   0  0  0  0  0  0  0  0  0  0  0  0
   26.7466  -21.4232   -9.8337 C   0  0  2  0  0  0  0  0  0  0  0  0
   28.1485  -21.5169  -10.2028 N   0  0  0  0  0  0  0  0  0  0  0  0
   25.9997  -20.7443  -10.9545 C   0  0  0  0  0  0  0  0  0  0  0  0
   26.4995  -19.7310  -11.5241 O   0  0  0  0  0  0  0  0  0  0  0  0
   26.2527  -21.1431  -13.9439 C   0  0  0  0  0  0  0  0  0  0  0  0
   24.7911  -21.3203  -13.7874 C   0  0  1  0  0  0  0  0  0  0  0  0
   24.5799  -22.6998  -13.5308 O   0  0  0  0  0  0  0  0  0  0  0  0
   24.1564  -20.6032  -12.6231 C   0  0  2  0  0  0  0  0  0  0  0  0
   24.7370  -21.2015  -11.4049 N   0  0  0  0  0  0  0  0  0  0  0  0
   22.7038  -20.7665  -12.5142 C   0  0  0  0  0  0  0  0  0  0  0  0
   22.2073  -21.5833  -11.7047 O   0  0  0  0  0  0  0  0  0  0  0  0
   20.0139  -17.9003  -14.3003 C   0  0  0  0  0  0  0  0  0  0  0  0
   19.7502  -18.7411  -13.0971 C   0  0  2  0  0  0  0  0  0  0  0  0
   20.2302  -18.0099  -11.8394 C   0  0  0  0  0  0  0  0  0  0  0  0
   20.4232  -20.0907  -13.1413 C   0  0  2  0  0  0  0  0  0  0  0  0
   21.8459  -19.9937  -13.3303 N   0  0  0  0  0  0  0  0  0  0  0  0
   19.8399  -20.9195  -14.2194 C   0  0  0  0  0  0  0  0  0  0  0  0
   20.5922  -21.3130  -15.3202 O   0  0  0  0  0  0  0  0  0  0  0  0
   18.6382  -21.2937  -14.1691 O   0  0  0  0  0  0  0  0  0  0  0  0
  2  1  1  0
  3  4  1  0
  3  2  1  0
  5  4  1  0
  5  6  1  6
  7  8  2  0
  7  5  1  0
 10 12  1  0
 10  9  1  1
 11 10  1  0
 12 13  1  1
 13  7  1  0
 14 12  1  0
 15 14  2  0
 17 16  1  6
 17 19  1  0
 18 17  1  0
 19 21  1  0
 19 20  1  6
 20 14  1  0
 21 22  1  0
 23 21  2  0
M  END
$$$$
