DMF.pdb
     RDKit          3D

 28 28  0  0  1  0  0  0  0  0999 V2000
   10.7146  -18.4511   20.0035 N   0  0  0  0  0  0  0  0  0  0  0  0
   11.5064  -17.3308   20.4639 C   0  0  1  0  0  0  0  0  0  0  0  0
   11.9984  -16.5274   19.2831 C   0  0  0  0  0  0  0  0  0  0  0  0
   13.0501  -17.2711   18.5428 C   0  0  0  0  0  0  0  0  0  0  0  0
   13.7118  -16.6765   17.6594 O   0  0  0  0  0  0  0  0  0  0  0  0
   10.6967  -16.5231   21.3948 C   0  0  0  0  0  0  0  0  0  0  0  0
   11.2128  -15.5111   21.9829 O   0  0  0  0  0  0  0  0  0  0  0  0
   13.3404  -18.5957   18.7785 O   0  0  0  0  0  0  0  0  0  0  0  0
    7.1329  -12.4739   19.5766 C   0  0  0  0  0  0  0  0  0  0  0  0
    7.5729  -13.4553   21.0107 S   0  0  0  0  0  0  0  0  0  0  0  0
    7.0015  -15.1812   20.8701 C   0  0  0  0  0  0  0  0  0  0  0  0
    7.1358  -15.9117   22.1663 C   0  0  0  0  0  0  0  0  0  0  0  0
    8.5627  -15.9239   22.6344 C   0  0  2  0  0  0  0  0  0  0  0  0
    9.3421  -16.7908   21.6999 N   0  0  0  0  0  0  0  0  0  0  0  0
    8.7935  -16.3583   24.0031 C   0  0  0  0  0  0  0  0  0  0  0  0
    9.5857  -17.3517   24.1902 O   0  0  0  0  0  0  0  0  0  0  0  0
    8.2242  -15.7774   25.1482 N   0  0  0  0  0  0  0  0  0  0  0  0
    8.4423  -16.3033   26.4956 C   0  0  1  0  0  0  0  0  0  0  0  0
    7.8239  -15.3890   27.5203 C   0  0  0  0  0  0  0  0  0  0  0  0
    7.5831  -14.0378   26.9754 C   0  0  0  0  0  0  0  0  0  0  0  0
    6.3372  -13.6337   26.4983 C   0  0  0  0  0  0  0  0  0  0  0  0
    6.1479  -12.3694   25.9977 C   0  0  0  0  0  0  0  0  0  0  0  0
    7.1842  -11.4478   25.9469 C   0  0  0  0  0  0  0  0  0  0  0  0
    8.4302  -11.8182   26.4120 C   0  0  0  0  0  0  0  0  0  0  0  0
    8.6012  -13.0843   26.9083 C   0  0  0  0  0  0  0  0  0  0  0  0
    8.0035  -17.6927   26.6136 C   0  0  0  0  0  0  0  0  0  0  0  0
    8.3487  -18.5184   27.6817 O   0  0  0  0  0  0  0  0  0  0  0  0
    7.2774  -18.1856   25.7156 O   0  0  0  0  0  0  0  0  0  0  0  0
  2  1  1  6
  2  3  1  0
  3  4  1  0
  4  5  2  0
  4  8  1  0
  6 14  1  0
  6  2  1  0
  7  6  2  0
  9 10  1  0
 10 11  1  0
 12 11  1  0
 13 12  1  6
 13 14  1  0
 15 17  1  0
 15 13  1  0
 16 15  2  0
 18 17  1  0
 18 26  1  0
 19 20  1  0
 18 19  1  1
 20 25  2  0
 21 20  1  0
 21 22  2  0
 22 23  1  0
 23 24  2  0
 25 24  1  0
 26 27  1  0
 28 26  2  0
M  END
$$$$
