DMF.pdb
     RDKit          3D

 28 28  0  0  1  0  0  0  0  0999 V2000
    9.8950  -15.7158   18.9525 N   0  0  0  0  0  0  0  0  0  0  0  0
   10.1566  -16.7822   19.8951 C   0  0  1  0  0  0  0  0  0  0  0  0
   11.5580  -17.3109   19.6995 C   0  0  0  0  0  0  0  0  0  0  0  0
   11.7159  -17.8920   18.3414 C   0  0  0  0  0  0  0  0  0  0  0  0
   12.5758  -17.4100   17.5667 O   0  0  0  0  0  0  0  0  0  0  0  0
    9.9321  -16.2778   21.2625 C   0  0  0  0  0  0  0  0  0  0  0  0
   10.6811  -15.3563   21.7380 O   0  0  0  0  0  0  0  0  0  0  0  0
   10.9582  -18.9453   17.8824 O   0  0  0  0  0  0  0  0  0  0  0  0
    6.6789  -12.1370   25.3581 C   0  0  0  0  0  0  0  0  0  0  0  0
    7.2330  -13.8415   25.3315 S   0  0  0  0  0  0  0  0  0  0  0  0
    6.8180  -14.6799   23.7664 C   0  0  0  0  0  0  0  0  0  0  0  0
    7.2650  -16.1054   23.7712 C   0  0  0  0  0  0  0  0  0  0  0  0
    8.7390  -16.2103   23.5034 C   0  0  2  0  0  0  0  0  0  0  0  0
    8.9143  -16.7520   22.1220 N   0  0  0  0  0  0  0  0  0  0  0  0
    9.5137  -17.0107   24.4387 C   0  0  0  0  0  0  0  0  0  0  0  0
    9.4754  -18.2877   24.3082 O   0  0  0  0  0  0  0  0  0  0  0  0
   10.3109  -16.5034   25.4778 N   0  0  0  0  0  0  0  0  0  0  0  0
   11.1137  -17.3595   26.3510 C   0  0  1  0  0  0  0  0  0  0  0  0
   12.1416  -16.5397   27.0857 C   0  0  0  0  0  0  0  0  0  0  0  0
   11.5145  -15.5772   28.0135 C   0  0  0  0  0  0  0  0  0  0  0  0
   11.3588  -15.8405   29.3735 C   0  0  0  0  0  0  0  0  0  0  0  0
   10.7707  -14.9231   30.2085 C   0  0  0  0  0  0  0  0  0  0  0  0
   10.3099  -13.7029   29.7343 C   0  0  0  0  0  0  0  0  0  0  0  0
   10.4498  -13.4127   28.3918 C   0  0  0  0  0  0  0  0  0  0  0  0
   11.0393  -14.3402   27.5728 C   0  0  0  0  0  0  0  0  0  0  0  0
   10.2774  -18.1720   27.2326 C   0  0  0  0  0  0  0  0  0  0  0  0
   10.7644  -19.2416   27.9812 O   0  0  0  0  0  0  0  0  0  0  0  0
    9.0540  -17.9078   27.3336 O   0  0  0  0  0  0  0  0  0  0  0  0
  2  1  1  6
  2  3  1  0
  3  4  1  0
  4  5  2  0
  4  8  1  0
  6 14  1  0
  6  2  1  0
  7  6  2  0
  9 10  1  0
 10 11  1  0
 12 11  1  0
 13 12  1  1
 13 14  1  0
 15 17  1  0
 15 13  1  0
 16 15  2  0
 18 17  1  0
 18 26  1  0
 19 20  1  0
 18 19  1  1
 20 25  2  0
 21 20  1  0
 21 22  2  0
 22 23  1  0
 23 24  2  0
 25 24  1  0
 26 27  1  0
 28 26  2  0
M  END
$$$$
