DMF.pdb
     RDKit          3D

 28 28  0  0  1  0  0  0  0  0999 V2000
    8.2108  -17.1934   20.0881 N   0  0  0  0  0  0  0  0  0  0  0  0
    9.6007  -17.2552   20.4863 C   0  0  1  0  0  0  0  0  0  0  0  0
   10.4879  -16.8885   19.3200 C   0  0  0  0  0  0  0  0  0  0  0  0
   10.1561  -17.7109   18.1281 C   0  0  0  0  0  0  0  0  0  0  0  0
   10.2986  -18.9552   18.1853 O   0  0  0  0  0  0  0  0  0  0  0  0
    9.8053  -16.3702   21.6479 C   0  0  0  0  0  0  0  0  0  0  0  0
   10.8953  -15.7119   21.7696 O   0  0  0  0  0  0  0  0  0  0  0  0
    9.6945  -17.1721   16.9487 O   0  0  0  0  0  0  0  0  0  0  0  0
    6.5181  -11.9139   25.8384 C   0  0  0  0  0  0  0  0  0  0  0  0
    5.8922  -13.4098   25.0742 S   0  0  0  0  0  0  0  0  0  0  0  0
    7.1184  -14.1897   23.9729 C   0  0  0  0  0  0  0  0  0  0  0  0
    7.9302  -15.2159   24.6937 C   0  0  0  0  0  0  0  0  0  0  0  0
    9.2081  -15.5067   23.9604 C   0  0  2  0  0  0  0  0  0  0  0  0
    8.8537  -16.1858   22.6776 N   0  0  0  0  0  0  0  0  0  0  0  0
   10.1982  -16.3009   24.6706 C   0  0  0  0  0  0  0  0  0  0  0  0
   11.3940  -16.3245   24.2028 O   0  0  0  0  0  0  0  0  0  0  0  0
    9.9590  -17.0465   25.8366 N   0  0  0  0  0  0  0  0  0  0  0  0
   11.0242  -17.7201   26.5791 C   0  0  1  0  0  0  0  0  0  0  0  0
   12.0002  -16.7111   27.1246 C   0  0  0  0  0  0  0  0  0  0  0  0
   11.3588  -15.7919   28.0860 C   0  0  0  0  0  0  0  0  0  0  0  0
   11.1441  -16.1340   29.4202 C   0  0  0  0  0  0  0  0  0  0  0  0
   10.5442  -15.2551   30.2878 C   0  0  0  0  0  0  0  0  0  0  0  0
   10.1297  -13.9972   29.8732 C   0  0  0  0  0  0  0  0  0  0  0  0
   10.3286  -13.6290   28.5575 C   0  0  0  0  0  0  0  0  0  0  0  0
   10.9289  -14.5190   27.7053 C   0  0  0  0  0  0  0  0  0  0  0  0
   10.4894  -18.6231   27.5966 C   0  0  0  0  0  0  0  0  0  0  0  0
    9.1317  -18.7279   27.8925 O   0  0  0  0  0  0  0  0  0  0  0  0
   11.2788  -19.3502   28.2484 O   0  0  0  0  0  0  0  0  0  0  0  0
  2  1  1  6
  2  3  1  0
  3  4  1  0
  4  5  2  0
  4  8  1  0
  6 14  1  0
  6  2  1  0
  7  6  2  0
  9 10  1  0
 10 11  1  0
 12 11  1  0
 13 12  1  1
 13 14  1  0
 15 17  1  0
 15 13  1  0
 16 15  2  0
 18 17  1  0
 18 26  1  0
 19 20  1  0
 18 19  1  1
 20 25  2  0
 21 20  1  0
 21 22  2  0
 22 23  1  0
 23 24  2  0
 25 24  1  0
 26 27  1  0
 28 26  2  0
M  END
$$$$
