DMF.pdb
     RDKit          3D

 28 28  0  0  1  0  0  0  0  0999 V2000
    7.8389  -17.5357   19.6682 N   0  0  0  0  0  0  0  0  0  0  0  0
    9.1424  -16.9073   19.6834 C   0  0  1  0  0  0  0  0  0  0  0  0
    9.2384  -15.8924   18.5687 C   0  0  0  0  0  0  0  0  0  0  0  0
    9.6616  -16.5419   17.3013 C   0  0  0  0  0  0  0  0  0  0  0  0
    9.8825  -17.7760   17.2912 O   0  0  0  0  0  0  0  0  0  0  0  0
    9.3685  -16.3067   21.0110 C   0  0  0  0  0  0  0  0  0  0  0  0
   10.3821  -15.5523   21.2104 O   0  0  0  0  0  0  0  0  0  0  0  0
    9.8260  -15.8516   16.1221 O   0  0  0  0  0  0  0  0  0  0  0  0
    5.6321  -13.6899   26.1330 C   0  0  0  0  0  0  0  0  0  0  0  0
    6.6748  -12.9667   24.8669 S   0  0  0  0  0  0  0  0  0  0  0  0
    7.0381  -14.1377   23.5172 C   0  0  0  0  0  0  0  0  0  0  0  0
    7.4803  -15.4637   24.0444 C   0  0  0  0  0  0  0  0  0  0  0  0
    8.7965  -15.8712   23.4468 C   0  0  2  0  0  0  0  0  0  0  0  0
    8.5194  -16.5078   22.1238 N   0  0  0  0  0  0  0  0  0  0  0  0
    9.6257  -16.7590   24.2465 C   0  0  0  0  0  0  0  0  0  0  0  0
    9.5541  -18.0193   24.0101 O   0  0  0  0  0  0  0  0  0  0  0  0
   10.5095  -16.3535   25.2601 N   0  0  0  0  0  0  0  0  0  0  0  0
   11.2495  -17.3019   26.0925 C   0  0  1  0  0  0  0  0  0  0  0  0
   12.3087  -16.5844   26.8872 C   0  0  0  0  0  0  0  0  0  0  0  0
   11.7240  -15.5845   27.8031 C   0  0  0  0  0  0  0  0  0  0  0  0
   11.5578  -15.8241   29.1662 C   0  0  0  0  0  0  0  0  0  0  0  0
   11.0100  -14.8720   29.9898 C   0  0  0  0  0  0  0  0  0  0  0  0
   10.6019  -13.6391   29.5007 C   0  0  0  0  0  0  0  0  0  0  0  0
   10.7535  -13.3717   28.1547 C   0  0  0  0  0  0  0  0  0  0  0  0
   11.3021  -14.3337   27.3472 C   0  0  0  0  0  0  0  0  0  0  0  0
   10.3553  -18.1158   26.9140 C   0  0  0  0  0  0  0  0  0  0  0  0
    9.0010  -17.8352   27.0834 O   0  0  0  0  0  0  0  0  0  0  0  0
   10.8131  -19.1242   27.5056 O   0  0  0  0  0  0  0  0  0  0  0  0
  2  1  1  1
  2  3  1  0
  3  4  1  0
  4  5  2  0
  4  8  1  0
  6 14  1  0
  6  2  1  0
  7  6  2  0
  9 10  1  0
 10 11  1  0
 12 11  1  0
 13 12  1  1
 13 14  1  0
 15 17  1  0
 15 13  1  0
 16 15  2  0
 18 17  1  0
 18 26  1  0
 19 20  1  0
 18 19  1  1
 20 25  2  0
 21 20  1  0
 21 22  2  0
 22 23  1  0
 23 24  2  0
 25 24  1  0
 26 27  1  0
 28 26  2  0
M  END
$$$$
