DMF.pdb
     RDKit          3D

 28 28  0  0  1  0  0  0  0  0999 V2000
    9.0908  -16.6256   18.6046 N   0  0  0  0  0  0  0  0  0  0  0  0
    9.3985  -17.5565   19.6690 C   0  0  1  0  0  0  0  0  0  0  0  0
   10.5060  -18.4877   19.2353 C   0  0  0  0  0  0  0  0  0  0  0  0
   10.0797  -19.3050   18.0703 C   0  0  0  0  0  0  0  0  0  0  0  0
    8.9352  -19.8169   18.0690 O   0  0  0  0  0  0  0  0  0  0  0  0
    9.7468  -16.7963   20.8836 C   0  0  0  0  0  0  0  0  0  0  0  0
   10.9548  -16.4270   21.0856 O   0  0  0  0  0  0  0  0  0  0  0  0
   10.8852  -19.5331   16.9778 O   0  0  0  0  0  0  0  0  0  0  0  0
    6.2693  -13.2452   26.7169 C   0  0  0  0  0  0  0  0  0  0  0  0
    6.8501  -12.8679   25.0635 S   0  0  0  0  0  0  0  0  0  0  0  0
    8.2971  -13.8722   24.5921 C   0  0  0  0  0  0  0  0  0  0  0  0
    8.0012  -14.7437   23.4154 C   0  0  0  0  0  0  0  0  0  0  0  0
    9.1998  -15.5656   23.0367 C   0  0  2  0  0  0  0  0  0  0  0  0
    8.8135  -16.4300   21.8808 N   0  0  0  0  0  0  0  0  0  0  0  0
    9.7791  -16.3906   24.0852 C   0  0  0  0  0  0  0  0  0  0  0  0
    9.2987  -17.5698   24.2530 O   0  0  0  0  0  0  0  0  0  0  0  0
   10.8308  -16.0080   24.9339 N   0  0  0  0  0  0  0  0  0  0  0  0
   11.4547  -16.9264   25.8863 C   0  0  1  0  0  0  0  0  0  0  0  0
   12.2074  -16.1561   26.9391 C   0  0  0  0  0  0  0  0  0  0  0  0
   11.2948  -15.4265   27.8422 C   0  0  0  0  0  0  0  0  0  0  0  0
   10.9727  -15.8909   29.1165 C   0  0  0  0  0  0  0  0  0  0  0  0
   10.1200  -15.1874   29.9307 C   0  0  0  0  0  0  0  0  0  0  0  0
    9.5475  -13.9919   29.5198 C   0  0  0  0  0  0  0  0  0  0  0  0
    9.8472  -13.5058   28.2627 C   0  0  0  0  0  0  0  0  0  0  0  0
   10.7003  -14.2211   27.4633 C   0  0  0  0  0  0  0  0  0  0  0  0
   10.4892  -17.8758   26.4370 C   0  0  0  0  0  0  0  0  0  0  0  0
    9.1108  -17.7473   26.2789 O   0  0  0  0  0  0  0  0  0  0  0  0
   10.9045  -18.8649   27.0896 O   0  0  0  0  0  0  0  0  0  0  0  0
  2  1  1  6
  2  3  1  0
  3  4  1  0
  4  5  2  0
  4  8  1  0
  6 14  1  0
  6  2  1  0
  7  6  2  0
  9 10  1  0
 10 11  1  0
 12 11  1  0
 13 12  1  1
 13 14  1  0
 15 17  1  0
 15 13  1  0
 16 15  2  0
 18 17  1  0
 18 26  1  0
 19 20  1  0
 18 19  1  1
 20 25  2  0
 21 20  1  0
 21 22  2  0
 22 23  1  0
 23 24  2  0
 25 24  1  0
 26 27  1  0
 28 26  2  0
M  END
$$$$
