DMF.pdb
     RDKit          3D

 28 28  0  0  1  0  0  0  0  0999 V2000
    8.4780  -17.5243   19.5291 N   0  0  0  0  0  0  0  0  0  0  0  0
    9.3919  -17.9497   20.5674 C   0  0  1  0  0  0  0  0  0  0  0  0
   10.6712  -18.4629   19.9496 C   0  0  0  0  0  0  0  0  0  0  0  0
   10.3908  -19.5807   19.0121 C   0  0  0  0  0  0  0  0  0  0  0  0
    9.5369  -20.4430   19.3272 O   0  0  0  0  0  0  0  0  0  0  0  0
    9.6258  -16.8231   21.4898 C   0  0  0  0  0  0  0  0  0  0  0  0
   10.7781  -16.2708   21.5496 O   0  0  0  0  0  0  0  0  0  0  0  0
   11.0270  -19.7217   17.7998 O   0  0  0  0  0  0  0  0  0  0  0  0
    6.4888  -11.4273   26.4189 C   0  0  0  0  0  0  0  0  0  0  0  0
    6.3385  -12.9557   25.4944 S   0  0  0  0  0  0  0  0  0  0  0  0
    7.8036  -13.2861   24.4604 C   0  0  0  0  0  0  0  0  0  0  0  0
    7.6048  -14.4863   23.5933 C   0  0  0  0  0  0  0  0  0  0  0  0
    8.9196  -15.1158   23.2322 C   0  0  2  0  0  0  0  0  0  0  0  0
    8.6375  -16.2855   22.3464 N   0  0  0  0  0  0  0  0  0  0  0  0
    9.7626  -15.5396   24.3391 C   0  0  0  0  0  0  0  0  0  0  0  0
   10.4830  -14.6481   24.9183 O   0  0  0  0  0  0  0  0  0  0  0  0
    9.8538  -16.8498   24.8371 N   0  0  0  0  0  0  0  0  0  0  0  0
   10.7586  -17.2232   25.9242 C   0  0  1  0  0  0  0  0  0  0  0  0
   10.0248  -17.2212   27.2393 C   0  0  0  0  0  0  0  0  0  0  0  0
    9.9284  -15.8633   27.8115 C   0  0  0  0  0  0  0  0  0  0  0  0
   11.0202  -15.2126   28.3842 C   0  0  0  0  0  0  0  0  0  0  0  0
   10.8957  -13.9495   28.9076 C   0  0  0  0  0  0  0  0  0  0  0  0
    9.6840  -13.2734   28.8876 C   0  0  0  0  0  0  0  0  0  0  0  0
    8.5839  -13.8915   28.3272 C   0  0  0  0  0  0  0  0  0  0  0  0
    8.7264  -15.1524   27.8094 C   0  0  0  0  0  0  0  0  0  0  0  0
   11.4525  -18.4793   25.6456 C   0  0  0  0  0  0  0  0  0  0  0  0
   11.2193  -19.2488   24.5075 O   0  0  0  0  0  0  0  0  0  0  0  0
   12.3066  -18.9032   26.4625 O   0  0  0  0  0  0  0  0  0  0  0  0
  2  1  1  6
  2  3  1  0
  3  4  1  0
  4  5  2  0
  4  8  1  0
  6 14  1  0
  6  2  1  0
  7  6  2  0
  9 10  1  0
 10 11  1  0
 12 11  1  0
 13 12  1  1
 13 14  1  0
 15 17  1  0
 15 13  1  0
 16 15  2  0
 18 17  1  0
 18 26  1  0
 19 20  1  0
 18 19  1  1
 20 25  2  0
 21 20  1  0
 21 22  2  0
 22 23  1  0
 23 24  2  0
 25 24  1  0
 26 27  1  0
 28 26  2  0
M  END
$$$$
