DMF.pdb
     RDKit          3D

 28 28  0  0  1  0  0  0  0  0999 V2000
    9.4489  -17.7121   19.1264 N   0  0  0  0  0  0  0  0  0  0  0  0
   10.7105  -17.5227   19.8096 C   0  0  1  0  0  0  0  0  0  0  0  0
   11.7123  -16.8865   18.8751 C   0  0  0  0  0  0  0  0  0  0  0  0
   12.2228  -17.8802   17.8958 C   0  0  0  0  0  0  0  0  0  0  0  0
   11.5513  -18.1231   16.8653 O   0  0  0  0  0  0  0  0  0  0  0  0
   10.4814  -16.7154   21.0221 C   0  0  0  0  0  0  0  0  0  0  0  0
   11.4743  -16.2888   21.7065 O   0  0  0  0  0  0  0  0  0  0  0  0
   13.4095  -18.5573   18.0620 O   0  0  0  0  0  0  0  0  0  0  0  0
    6.1186  -13.2219   26.3083 C   0  0  0  0  0  0  0  0  0  0  0  0
    6.5822  -14.4961   25.1359 S   0  0  0  0  0  0  0  0  0  0  0  0
    7.5521  -13.8337   23.7411 C   0  0  0  0  0  0  0  0  0  0  0  0
    7.7043  -14.8422   22.6496 C   0  0  0  0  0  0  0  0  0  0  0  0
    9.0274  -15.5463   22.7451 C   0  0  2  0  0  0  0  0  0  0  0  0
    9.2003  -16.3627   21.5057 N   0  0  0  0  0  0  0  0  0  0  0  0
    9.2314  -16.3898   23.9123 C   0  0  0  0  0  0  0  0  0  0  0  0
    8.6030  -17.5088   23.9592 O   0  0  0  0  0  0  0  0  0  0  0  0
   10.0674  -16.0863   24.9994 N   0  0  0  0  0  0  0  0  0  0  0  0
   10.5074  -17.0923   25.9659 C   0  0  1  0  0  0  0  0  0  0  0  0
   11.6754  -16.5753   26.7638 C   0  0  0  0  0  0  0  0  0  0  0  0
   11.2683  -15.5156   27.7082 C   0  0  0  0  0  0  0  0  0  0  0  0
   11.0227  -14.2047   27.3025 C   0  0  0  0  0  0  0  0  0  0  0  0
   10.6459  -13.2434   28.2074 C   0  0  0  0  0  0  0  0  0  0  0  0
   10.4953  -13.5368   29.5554 C   0  0  0  0  0  0  0  0  0  0  0  0
   10.7314  -14.8264   29.9882 C   0  0  0  0  0  0  0  0  0  0  0  0
   11.1067  -15.7733   29.0711 C   0  0  0  0  0  0  0  0  0  0  0  0
    9.4014  -17.5699   26.7938 C   0  0  0  0  0  0  0  0  0  0  0  0
    8.1202  -17.0236   26.7524 O   0  0  0  0  0  0  0  0  0  0  0  0
    9.5966  -18.5211   27.5899 O   0  0  0  0  0  0  0  0  0  0  0  0
  2  1  1  6
  2  3  1  0
  3  4  1  0
  4  5  2  0
  4  8  1  0
  6 14  1  0
  6  2  1  0
  7  6  2  0
  9 10  1  0
 10 11  1  0
 12 11  1  0
 13 12  1  1
 13 14  1  0
 15 17  1  0
 15 13  1  0
 16 15  2  0
 18 17  1  0
 18 26  1  0
 19 20  1  0
 18 19  1  1
 20 25  2  0
 21 20  1  0
 21 22  2  0
 22 23  1  0
 23 24  2  0
 25 24  1  0
 26 27  1  0
 28 26  2  0
M  END
$$$$
