DMF.pdb
     RDKit          3D

 28 28  0  0  1  0  0  0  0  0999 V2000
    6.9407  -18.9978   21.7490 N   0  0  0  0  0  0  0  0  0  0  0  0
    7.8399  -18.5042   20.7283 C   0  0  1  0  0  0  0  0  0  0  0  0
    7.1280  -18.4481   19.3972 C   0  0  0  0  0  0  0  0  0  0  0  0
    8.0858  -18.1523   18.3008 C   0  0  0  0  0  0  0  0  0  0  0  0
    7.9144  -17.1271   17.5997 O   0  0  0  0  0  0  0  0  0  0  0  0
    8.3589  -17.1879   21.1438 C   0  0  0  0  0  0  0  0  0  0  0  0
    9.3144  -16.6399   20.4934 O   0  0  0  0  0  0  0  0  0  0  0  0
    9.1656  -18.9546   18.0099 O   0  0  0  0  0  0  0  0  0  0  0  0
    5.8704  -13.5499   26.0349 C   0  0  0  0  0  0  0  0  0  0  0  0
    7.1853  -12.4733   25.4647 S   0  0  0  0  0  0  0  0  0  0  0  0
    8.2468  -13.2772   24.2189 C   0  0  0  0  0  0  0  0  0  0  0  0
    7.6637  -14.5712   23.7527 C   0  0  0  0  0  0  0  0  0  0  0  0
    8.5776  -15.2552   22.7768 C   0  0  2  0  0  0  0  0  0  0  0  0
    7.8635  -16.4564   22.2480 N   0  0  0  0  0  0  0  0  0  0  0  0
    9.8841  -15.6512   23.2784 C   0  0  0  0  0  0  0  0  0  0  0  0
   10.9168  -15.0714   22.7816 O   0  0  0  0  0  0  0  0  0  0  0  0
   10.1159  -16.6174   24.2711 N   0  0  0  0  0  0  0  0  0  0  0  0
   11.3660  -16.6928   25.0271 C   0  0  1  0  0  0  0  0  0  0  0  0
   11.6837  -15.3574   25.6468 C   0  0  0  0  0  0  0  0  0  0  0  0
   10.9905  -15.1729   26.9375 C   0  0  0  0  0  0  0  0  0  0  0  0
    9.7208  -15.6917   27.1866 C   0  0  0  0  0  0  0  0  0  0  0  0
    9.1045  -15.5012   28.3986 C   0  0  0  0  0  0  0  0  0  0  0  0
    9.7178  -14.7881   29.4189 C   0  0  0  0  0  0  0  0  0  0  0  0
   10.9757  -14.2617   29.2027 C   0  0  0  0  0  0  0  0  0  0  0  0
   11.5760  -14.4616   27.9869 C   0  0  0  0  0  0  0  0  0  0  0  0
   11.3531  -17.7936   25.9888 C   0  0  0  0  0  0  0  0  0  0  0  0
   12.4976  -18.2702   26.6250 O   0  0  0  0  0  0  0  0  0  0  0  0
   10.2637  -18.3514   26.2691 O   0  0  0  0  0  0  0  0  0  0  0  0
  2  1  1  1
  2  3  1  0
  3  4  1  0
  4  5  2  0
  4  8  1  0
  6 14  1  0
  6  2  1  0
  7  6  2  0
  9 10  1  0
 10 11  1  0
 12 11  1  0
 13 12  1  1
 13 14  1  0
 15 17  1  0
 15 13  1  0
 16 15  2  0
 18 17  1  0
 18 26  1  0
 19 20  1  0
 18 19  1  1
 20 25  2  0
 21 20  1  0
 21 22  2  0
 22 23  1  0
 23 24  2  0
 25 24  1  0
 26 27  1  0
 28 26  2  0
M  END
$$$$
