DMF.pdb
     RDKit          3D

 28 28  0  0  1  0  0  0  0  0999 V2000
    8.8084  -18.6670   20.6104 N   0  0  0  0  0  0  0  0  0  0  0  0
   10.1854  -18.2599   20.4307 C   0  0  1  0  0  0  0  0  0  0  0  0
   10.4954  -18.1262   18.9584 C   0  0  0  0  0  0  0  0  0  0  0  0
   10.8057  -19.4519   18.3640 C   0  0  0  0  0  0  0  0  0  0  0  0
   10.3503  -20.4865   18.9063 O   0  0  0  0  0  0  0  0  0  0  0  0
   10.4133  -17.0041   21.1692 C   0  0  0  0  0  0  0  0  0  0  0  0
   11.5827  -16.4873   21.2117 O   0  0  0  0  0  0  0  0  0  0  0  0
   11.5768  -19.6066   17.2344 O   0  0  0  0  0  0  0  0  0  0  0  0
    7.9278  -11.3452   20.0986 C   0  0  0  0  0  0  0  0  0  0  0  0
    7.1478  -12.9560   20.2000 S   0  0  0  0  0  0  0  0  0  0  0  0
    8.2987  -14.2472   20.7773 C   0  0  0  0  0  0  0  0  0  0  0  0
    8.7619  -13.9862   22.1734 C   0  0  0  0  0  0  0  0  0  0  0  0
    9.7003  -15.0613   22.6413 C   0  0  2  0  0  0  0  0  0  0  0  0
    9.4008  -16.2996   21.8608 N   0  0  0  0  0  0  0  0  0  0  0  0
    9.6790  -15.3685   24.0628 C   0  0  0  0  0  0  0  0  0  0  0  0
   10.4223  -14.6648   24.8384 O   0  0  0  0  0  0  0  0  0  0  0  0
    8.9054  -16.3734   24.6665 N   0  0  0  0  0  0  0  0  0  0  0  0
    8.8004  -16.5287   26.1173 C   0  0  1  0  0  0  0  0  0  0  0  0
    7.3758  -16.3286   26.5629 C   0  0  0  0  0  0  0  0  0  0  0  0
    6.9676  -14.9122   26.4753 C   0  0  0  0  0  0  0  0  0  0  0  0
    7.7062  -13.8825   27.0561 C   0  0  0  0  0  0  0  0  0  0  0  0
    7.2976  -12.5757   26.9559 C   0  0  0  0  0  0  0  0  0  0  0  0
    6.1387  -12.2292   26.2757 C   0  0  0  0  0  0  0  0  0  0  0  0
    5.3854  -13.2267   25.6895 C   0  0  0  0  0  0  0  0  0  0  0  0
    5.8082  -14.5258   25.7996 C   0  0  0  0  0  0  0  0  0  0  0  0
    9.3817  -17.7907   26.5715 C   0  0  0  0  0  0  0  0  0  0  0  0
    9.5371  -18.1243   27.9155 O   0  0  0  0  0  0  0  0  0  0  0  0
    9.7669  -18.6305   25.7213 O   0  0  0  0  0  0  0  0  0  0  0  0
  2  1  1  6
  2  3  1  0
  3  4  1  0
  4  5  2  0
  4  8  1  0
  6 14  1  0
  6  2  1  0
  7  6  2  0
  9 10  1  0
 10 11  1  0
 12 11  1  0
 13 12  1  1
 13 14  1  0
 15 17  1  0
 15 13  1  0
 16 15  2  0
 18 17  1  0
 18 26  1  0
 19 20  1  0
 18 19  1  6
 20 25  2  0
 21 20  1  0
 21 22  2  0
 22 23  1  0
 23 24  2  0
 25 24  1  0
 26 27  1  0
 28 26  2  0
M  END
$$$$
