DMF.pdb
     RDKit          3D

 28 28  0  0  1  0  0  0  0  0999 V2000
    8.9543  -18.8812   20.8932 N   0  0  0  0  0  0  0  0  0  0  0  0
   10.3253  -18.4192   20.8598 C   0  0  1  0  0  0  0  0  0  0  0  0
   10.8333  -18.4149   19.4372 C   0  0  0  0  0  0  0  0  0  0  0  0
   11.0793  -19.8010   18.9626 C   0  0  0  0  0  0  0  0  0  0  0  0
   10.2726  -20.7073   19.2784 O   0  0  0  0  0  0  0  0  0  0  0  0
   10.3963  -17.0860   21.4858 C   0  0  0  0  0  0  0  0  0  0  0  0
   11.5108  -16.4603   21.5394 O   0  0  0  0  0  0  0  0  0  0  0  0
   12.1603  -20.1476   18.1843 O   0  0  0  0  0  0  0  0  0  0  0  0
    7.2379  -12.3934   18.4736 C   0  0  0  0  0  0  0  0  0  0  0  0
    7.0331  -12.8924   20.1830 S   0  0  0  0  0  0  0  0  0  0  0  0
    8.4634  -13.8374   20.8044 C   0  0  0  0  0  0  0  0  0  0  0  0
    8.2870  -14.2227   22.2369 C   0  0  0  0  0  0  0  0  0  0  0  0
    9.4232  -15.0841   22.7086 C   0  0  2  0  0  0  0  0  0  0  0  0
    9.2856  -16.4198   22.0534 N   0  0  0  0  0  0  0  0  0  0  0  0
    9.5501  -15.2615   24.1466 C   0  0  0  0  0  0  0  0  0  0  0  0
   10.1287  -14.3305   24.8158 O   0  0  0  0  0  0  0  0  0  0  0  0
    9.0862  -16.3701   24.8737 N   0  0  0  0  0  0  0  0  0  0  0  0
    9.3099  -16.5251   26.3110 C   0  0  1  0  0  0  0  0  0  0  0  0
    8.0643  -16.1630   27.0761 C   0  0  0  0  0  0  0  0  0  0  0  0
    7.7278  -14.7325   26.9308 C   0  0  0  0  0  0  0  0  0  0  0  0
    6.5596  -14.2975   26.3069 C   0  0  0  0  0  0  0  0  0  0  0  0
    6.2776  -12.9591   26.1883 C   0  0  0  0  0  0  0  0  0  0  0  0
    7.1400  -11.9906   26.6825 C   0  0  0  0  0  0  0  0  0  0  0  0
    8.3053  -12.3900   27.3059 C   0  0  0  0  0  0  0  0  0  0  0  0
    8.5708  -13.7301   27.4154 C   0  0  0  0  0  0  0  0  0  0  0  0
    9.8312  -17.8507   26.6393 C   0  0  0  0  0  0  0  0  0  0  0  0
   10.1561  -18.2484   27.9347 O   0  0  0  0  0  0  0  0  0  0  0  0
   10.0019  -18.6884   25.7197 O   0  0  0  0  0  0  0  0  0  0  0  0
  2  1  1  6
  2  3  1  0
  3  4  1  0
  4  5  2  0
  4  8  1  0
  6 14  1  0
  6  2  1  0
  7  6  2  0
  9 10  1  0
 10 11  1  0
 12 11  1  0
 13 12  1  1
 13 14  1  0
 15 17  1  0
 15 13  1  0
 16 15  2  0
 18 17  1  0
 18 26  1  0
 19 20  1  0
 18 19  1  1
 20 25  2  0
 21 20  1  0
 21 22  2  0
 22 23  1  0
 23 24  2  0
 25 24  1  0
 26 27  1  0
 28 26  2  0
M  END
$$$$
