TGQ.pdb
     RDKit          3D

 21 20  0  0  1  0  0  0  0  0999 V2000
   19.2780  -13.2749  -18.0625 C   0  0  0  0  0  0  0  0  0  0  0  0
   18.2256  -13.1472  -17.0060 C   0  0  1  0  0  0  0  0  0  0  0  0
   17.8915  -14.3682  -16.4520 O   0  0  0  0  0  0  0  0  0  0  0  0
   18.7061  -12.1484  -15.9761 C   0  0  2  0  0  0  0  0  0  0  0  0
   17.9082  -12.1411  -14.7899 N   0  0  0  0  0  0  0  0  0  0  0  0
   18.8137  -10.7991  -16.5432 C   0  0  0  0  0  0  0  0  0  0  0  0
   19.6381  -10.5291  -17.4762 O   0  0  0  0  0  0  0  0  0  0  0  0
   17.9770   -9.7691  -16.0382 N   0  0  0  0  0  0  0  0  0  0  0  0
   18.1832   -8.4261  -16.5377 C   0  0  0  0  0  0  0  0  0  0  0  0
   17.9913   -7.4109  -15.4912 C   0  0  0  0  0  0  0  0  0  0  0  0
   17.3292   -7.6705  -14.4572 O   0  0  0  0  0  0  0  0  0  0  0  0
   22.2542   -5.3438  -12.4557 N   0  0  0  0  0  0  0  0  0  0  0  0
   22.2250   -4.9139  -13.7959 C   0  0  0  0  0  0  0  0  0  0  0  0
   23.3122   -4.5998  -14.3411 O   0  0  0  0  0  0  0  0  0  0  0  0
   20.9847   -4.8166  -14.5822 C   0  0  0  0  0  0  0  0  0  0  0  0
   19.7788   -5.2288  -13.7814 C   0  0  0  0  0  0  0  0  0  0  0  0
   18.5197   -5.1528  -14.5739 C   0  0  2  0  0  0  0  0  0  0  0  0
   18.5511   -6.1300  -15.6388 N   0  0  0  0  0  0  0  0  0  0  0  0
   18.2428   -3.8351  -15.1540 C   0  0  0  0  0  0  0  0  0  0  0  0
   17.9777   -2.7737  -14.3051 O   0  0  0  0  0  0  0  0  0  0  0  0
   18.2281   -3.5942  -16.3837 O   0  0  0  0  0  0  0  0  0  0  0  0
  2  1  1  6
  2  3  1  0
  2  4  1  0
  4  5  1  1
  6  4  1  0
  6  7  2  0
  8  6  1  0
  9  8  1  0
  9 10  1  0
 10 11  2  0
 10 18  1  0
 12 13  1  0
 13 14  2  0
 15 16  1  0
 15 13  1  0
 17 16  1  6
 17 19  1  0
 18 17  1  0
 19 21  2  0
 19 20  1  0
M  END
$$$$
