TGQ.pdb
     RDKit          3D

 21 20  0  0  1  0  0  0  0  0999 V2000
   31.8039  -30.2652  -21.4165 C   0  0  0  0  0  0  0  0  0  0  0  0
   30.9304  -29.8178  -20.2866 C   0  0  1  0  0  0  0  0  0  0  0  0
   30.1140  -30.8325  -19.8246 O   0  0  0  0  0  0  0  0  0  0  0  0
   31.8144  -29.2385  -19.2040 C   0  0  2  0  0  0  0  0  0  0  0  0
   32.8125  -30.1546  -18.7477 N   0  0  0  0  0  0  0  0  0  0  0  0
   31.0232  -28.7236  -18.0803 C   0  0  0  0  0  0  0  0  0  0  0  0
   31.3408  -28.9674  -16.8709 O   0  0  0  0  0  0  0  0  0  0  0  0
   29.8745  -27.9335  -18.3493 N   0  0  0  0  0  0  0  0  0  0  0  0
   29.1355  -27.4103  -17.2199 C   0  0  0  0  0  0  0  0  0  0  0  0
   28.0189  -26.5503  -17.6398 C   0  0  0  0  0  0  0  0  0  0  0  0
   27.8629  -26.2422  -18.8462 O   0  0  0  0  0  0  0  0  0  0  0  0
   24.1016  -21.4650  -16.8387 N   0  0  0  0  0  0  0  0  0  0  0  0
   24.3560  -22.4753  -15.8919 C   0  0  0  0  0  0  0  0  0  0  0  0
   24.8340  -22.1386  -14.7802 O   0  0  0  0  0  0  0  0  0  0  0  0
   24.0883  -23.9002  -16.1451 C   0  0  0  0  0  0  0  0  0  0  0  0
   25.2813  -24.7607  -15.8261 C   0  0  0  0  0  0  0  0  0  0  0  0
   26.0223  -25.1775  -17.0494 C   0  0  2  0  0  0  0  0  0  0  0  0
   27.1079  -26.0608  -16.6877 N   0  0  0  0  0  0  0  0  0  0  0  0
   26.5632  -24.0690  -17.8421 C   0  0  0  0  0  0  0  0  0  0  0  0
   27.7723  -23.5075  -17.4676 O   0  0  0  0  0  0  0  0  0  0  0  0
   26.0018  -23.5834  -18.8518 O   0  0  0  0  0  0  0  0  0  0  0  0
  2  1  1  6
  2  3  1  0
  2  4  1  0
  4  5  1  1
  6  4  1  0
  6  7  2  0
  8  6  1  0
  9  8  1  0
  9 10  1  0
 10 11  2  0
 10 18  1  0
 12 13  1  0
 13 14  2  0
 15 16  1  0
 15 13  1  0
 17 16  1  1
 17 19  1  0
 18 17  1  0
 19 21  2  0
 19 20  1  0
M  END
$$$$
