TGQ.pdb
     RDKit          3D

 21 20  0  0  1  0  0  0  0  0999 V2000
   28.3299  -12.4526  -21.6944 C   0  0  0  0  0  0  0  0  0  0  0  0
   29.3153  -11.4790  -21.1277 C   0  0  1  0  0  0  0  0  0  0  0  0
   28.8663  -10.1747  -21.2095 O   0  0  0  0  0  0  0  0  0  0  0  0
   29.6371  -11.9000  -19.7106 C   0  0  2  0  0  0  0  0  0  0  0  0
   28.6077  -11.5594  -18.7790 N   0  0  0  0  0  0  0  0  0  0  0  0
   30.9349  -11.3723  -19.2732 C   0  0  0  0  0  0  0  0  0  0  0  0
   32.0062  -11.6089  -19.9208 O   0  0  0  0  0  0  0  0  0  0  0  0
   30.9967  -10.5780  -18.0980 N   0  0  0  0  0  0  0  0  0  0  0  0
   32.2612   -9.9540  -17.7707 C   0  0  0  0  0  0  0  0  0  0  0  0
   32.0821   -8.6922  -17.0368 C   0  0  0  0  0  0  0  0  0  0  0  0
   30.9365   -8.2178  -16.8435 O   0  0  0  0  0  0  0  0  0  0  0  0
   36.7908   -5.8468  -13.8898 N   0  0  0  0  0  0  0  0  0  0  0  0
   36.2814   -7.1592  -13.8789 C   0  0  0  0  0  0  0  0  0  0  0  0
   36.9499   -8.0493  -13.2970 O   0  0  0  0  0  0  0  0  0  0  0  0
   35.0079   -7.5326  -14.5153 C   0  0  0  0  0  0  0  0  0  0  0  0
   34.3720   -6.3673  -15.2244 C   0  0  0  0  0  0  0  0  0  0  0  0
   33.0741   -6.7304  -15.8592 C   0  0  2  0  0  0  0  0  0  0  0  0
   33.1998   -7.9991  -16.5406 N   0  0  0  0  0  0  0  0  0  0  0  0
   32.5599   -5.7372  -16.8072 C   0  0  0  0  0  0  0  0  0  0  0  0
   31.6867   -4.7652  -16.3486 O   0  0  0  0  0  0  0  0  0  0  0  0
   32.8577   -5.7024  -18.0240 O   0  0  0  0  0  0  0  0  0  0  0  0
  2  1  1  1
  2  3  1  0
  2  4  1  0
  4  5  1  1
  6  4  1  0
  6  7  2  0
  8  6  1  0
  9  8  1  0
  9 10  1  0
 10 11  2  0
 10 18  1  0
 12 13  1  0
 13 14  2  0
 15 16  1  0
 15 13  1  0
 17 16  1  6
 17 19  1  0
 18 17  1  0
 19 21  2  0
 19 20  1  0
M  END
$$$$
