TGQ.pdb
     RDKit          3D

 21 20  0  0  1  0  0  0  0  0999 V2000
   17.8157  -15.8371  -16.5761 C   0  0  0  0  0  0  0  0  0  0  0  0
   16.4284  -15.2865  -16.6875 C   0  0  1  0  0  0  0  0  0  0  0  0
   15.4786  -16.1615  -16.1959 O   0  0  0  0  0  0  0  0  0  0  0  0
   16.3958  -13.9395  -15.9996 C   0  0  2  0  0  0  0  0  0  0  0  0
   15.0731  -13.4164  -15.8571 N   0  0  0  0  0  0  0  0  0  0  0  0
   17.2727  -12.9713  -16.6687 C   0  0  0  0  0  0  0  0  0  0  0  0
   17.0946  -12.6361  -17.8849 O   0  0  0  0  0  0  0  0  0  0  0  0
   18.3465  -12.3941  -15.9409 N   0  0  0  0  0  0  0  0  0  0  0  0
   19.1999  -11.4506  -16.6315 C   0  0  0  0  0  0  0  0  0  0  0  0
   20.2949  -10.9668  -15.7773 C   0  0  0  0  0  0  0  0  0  0  0  0
   20.3536  -11.2855  -14.5650 O   0  0  0  0  0  0  0  0  0  0  0  0
   27.3919   -9.1414  -15.9044 N   0  0  0  0  0  0  0  0  0  0  0  0
   26.1281   -9.5589  -16.3632 C   0  0  0  0  0  0  0  0  0  0  0  0
   26.0440  -10.0219  -17.5278 O   0  0  0  0  0  0  0  0  0  0  0  0
   24.9082   -9.4777  -15.5438 C   0  0  0  0  0  0  0  0  0  0  0  0
   23.6814   -9.8682  -16.3235 C   0  0  0  0  0  0  0  0  0  0  0  0
   22.4306   -9.7026  -15.5316 C   0  0  2  0  0  0  0  0  0  0  0  0
   21.2946  -10.1365  -16.3132 N   0  0  0  0  0  0  0  0  0  0  0  0
   22.1827   -8.3361  -15.0617 C   0  0  0  0  0  0  0  0  0  0  0  0
   22.6058   -7.9789  -13.7924 O   0  0  0  0  0  0  0  0  0  0  0  0
   21.6057   -7.4514  -15.7361 O   0  0  0  0  0  0  0  0  0  0  0  0
  2  1  1  1
  2  3  1  0
  2  4  1  0
  4  5  1  6
  6  4  1  0
  6  7  2  0
  8  6  1  0
  9  8  1  0
  9 10  1  0
 10 11  2  0
 10 18  1  0
 12 13  1  0
 13 14  2  0
 15 16  1  0
 15 13  1  0
 17 16  1  6
 17 19  1  0
 18 17  1  0
 19 21  2  0
 19 20  1  0
M  END
$$$$
