TGQ.pdb
     RDKit          3D

 21 20  0  0  1  0  0  0  0  0999 V2000
   14.5148  -12.4206  -10.7261 C   0  0  0  0  0  0  0  0  0  0  0  0
   13.0704  -12.0371  -10.8076 C   0  0  1  0  0  0  0  0  0  0  0  0
   12.3671  -12.4090   -9.6778 O   0  0  0  0  0  0  0  0  0  0  0  0
   12.9887  -10.5523  -11.0861 C   0  0  2  0  0  0  0  0  0  0  0  0
   11.6507  -10.0501  -11.0525 N   0  0  0  0  0  0  0  0  0  0  0  0
   13.6472  -10.2041  -12.3506 C   0  0  0  0  0  0  0  0  0  0  0  0
   13.2273  -10.6485  -13.4683 O   0  0  0  0  0  0  0  0  0  0  0  0
   14.7813   -9.3501  -12.3263 N   0  0  0  0  0  0  0  0  0  0  0  0
   15.4423   -9.0698  -13.5833 C   0  0  0  0  0  0  0  0  0  0  0  0
   16.5179   -8.0781  -13.4337 C   0  0  0  0  0  0  0  0  0  0  0  0
   16.7372   -7.5293  -12.3268 O   0  0  0  0  0  0  0  0  0  0  0  0
   20.8612   -8.4290  -12.7976 N   0  0  0  0  0  0  0  0  0  0  0  0
   21.0745   -8.5937  -14.1794 C   0  0  0  0  0  0  0  0  0  0  0  0
   22.2489   -8.7932  -14.5779 O   0  0  0  0  0  0  0  0  0  0  0  0
   19.9891   -8.5429  -15.1721 C   0  0  0  0  0  0  0  0  0  0  0  0
   19.4863   -7.1400  -15.3826 C   0  0  0  0  0  0  0  0  0  0  0  0
   18.3994   -6.7791  -14.4298 C   0  0  2  0  0  0  0  0  0  0  0  0
   17.3175   -7.7319  -14.5368 N   0  0  0  0  0  0  0  0  0  0  0  0
   17.8555   -5.4293  -14.6080 C   0  0  0  0  0  0  0  0  0  0  0  0
   18.5874   -4.3478  -14.1474 O   0  0  0  0  0  0  0  0  0  0  0  0
   16.7571   -5.1775  -15.1565 O   0  0  0  0  0  0  0  0  0  0  0  0
  2  1  1  1
  2  3  1  0
  2  4  1  0
  4  5  1  6
  6  4  1  0
  6  7  2  0
  8  6  1  0
  9  8  1  0
  9 10  1  0
 10 11  2  0
 10 18  1  0
 12 13  1  0
 13 14  2  0
 15 16  1  0
 15 13  1  0
 17 16  1  6
 17 19  1  0
 18 17  1  0
 19 21  2  0
 19 20  1  0
M  END
$$$$
