TGQ.pdb
     RDKit          3D

 21 20  0  0  1  0  0  0  0  0999 V2000
   16.5124  -12.8212  -16.9823 C   0  0  0  0  0  0  0  0  0  0  0  0
   16.8821  -11.8381  -15.9160 C   0  0  1  0  0  0  0  0  0  0  0  0
   17.7208  -12.3893  -14.9661 O   0  0  0  0  0  0  0  0  0  0  0  0
   17.4748  -10.6159  -16.5823 C   0  0  2  0  0  0  0  0  0  0  0  0
   18.6689  -10.9021  -17.3142 N   0  0  0  0  0  0  0  0  0  0  0  0
   17.6983   -9.5319  -15.6186 C   0  0  0  0  0  0  0  0  0  0  0  0
   16.7547   -9.0746  -14.8950 O   0  0  0  0  0  0  0  0  0  0  0  0
   19.0000   -8.9795  -15.4903 N   0  0  0  0  0  0  0  0  0  0  0  0
   19.1939   -7.9279  -14.5146 C   0  0  0  0  0  0  0  0  0  0  0  0
   20.6071   -7.5399  -14.3927 C   0  0  0  0  0  0  0  0  0  0  0  0
   21.5226   -8.3756  -14.5881 O   0  0  0  0  0  0  0  0  0  0  0  0
   24.3522   -5.4239  -18.8433 N   0  0  0  0  0  0  0  0  0  0  0  0
   23.0599   -5.3997  -18.2851 C   0  0  0  0  0  0  0  0  0  0  0  0
   22.1308   -5.9601  -18.9178 O   0  0  0  0  0  0  0  0  0  0  0  0
   22.7510   -4.7508  -17.0007 C   0  0  0  0  0  0  0  0  0  0  0  0
   21.7193   -5.5179  -16.2182 C   0  0  0  0  0  0  0  0  0  0  0  0
   21.9864   -5.4936  -14.7528 C   0  0  2  0  0  0  0  0  0  0  0  0
   20.9502   -6.2196  -14.0536 N   0  0  0  0  0  0  0  0  0  0  0  0
   22.0908   -4.1505  -14.1742 C   0  0  0  0  0  0  0  0  0  0  0  0
   23.3133   -3.5010  -14.2095 O   0  0  0  0  0  0  0  0  0  0  0  0
   21.1381   -3.5358  -13.6404 O   0  0  0  0  0  0  0  0  0  0  0  0
  2  1  1  6
  2  3  1  0
  2  4  1  0
  4  5  1  1
  6  4  1  0
  6  7  2  0
  8  6  1  0
  9  8  1  0
  9 10  1  0
 10 11  2  0
 10 18  1  0
 12 13  1  0
 13 14  2  0
 15 16  1  0
 15 13  1  0
 17 16  1  6
 17 19  1  0
 18 17  1  0
 19 21  2  0
 19 20  1  0
M  END
$$$$
