TGQ.pdb
     RDKit          3D

 21 20  0  0  1  0  0  0  0  0999 V2000
   15.7866  -14.2927  -15.8723 C   0  0  0  0  0  0  0  0  0  0  0  0
   16.4127  -13.7204  -14.6392 C   0  0  1  0  0  0  0  0  0  0  0  0
   17.7862  -13.6184  -14.7505 O   0  0  0  0  0  0  0  0  0  0  0  0
   15.7489  -12.3938  -14.3420 C   0  0  2  0  0  0  0  0  0  0  0  0
   16.0451  -11.3900  -15.3158 N   0  0  0  0  0  0  0  0  0  0  0  0
   16.0690  -11.9221  -12.9896 C   0  0  0  0  0  0  0  0  0  0  0  0
   15.7362  -12.5845  -11.9535 O   0  0  0  0  0  0  0  0  0  0  0  0
   16.7675  -10.6958  -12.8333 N   0  0  0  0  0  0  0  0  0  0  0  0
   16.9325  -10.1792  -11.4911 C   0  0  0  0  0  0  0  0  0  0  0  0
   16.2383   -8.8966  -11.3026 C   0  0  0  0  0  0  0  0  0  0  0  0
   15.6856   -8.3165  -12.2684 O   0  0  0  0  0  0  0  0  0  0  0  0
   14.1347   -5.1000   -5.6626 N   0  0  0  0  0  0  0  0  0  0  0  0
   13.5955   -5.7715   -6.7763 C   0  0  0  0  0  0  0  0  0  0  0  0
   12.5315   -6.4202   -6.6188 O   0  0  0  0  0  0  0  0  0  0  0  0
   14.2193   -5.7476   -8.1091 C   0  0  0  0  0  0  0  0  0  0  0  0
   14.8984   -7.0508   -8.4344 C   0  0  0  0  0  0  0  0  0  0  0  0
   15.5022   -7.0503   -9.7963 C   0  0  2  0  0  0  0  0  0  0  0  0
   16.1859   -8.3024  -10.0298 N   0  0  0  0  0  0  0  0  0  0  0  0
   16.4382   -5.9503  -10.0481 C   0  0  0  0  0  0  0  0  0  0  0  0
   15.9312   -4.6971  -10.3482 O   0  0  0  0  0  0  0  0  0  0  0  0
   17.6858   -6.0625  -10.0110 O   0  0  0  0  0  0  0  0  0  0  0  0
  2  1  1  6
  2  3  1  0
  2  4  1  0
  4  5  1  6
  6  4  1  0
  6  7  2  0
  8  6  1  0
  9  8  1  0
  9 10  1  0
 10 11  2  0
 10 18  1  0
 12 13  1  0
 13 14  2  0
 15 16  1  0
 15 13  1  0
 17 16  1  1
 17 19  1  0
 18 17  1  0
 19 21  2  0
 19 20  1  0
M  END
$$$$
