TGQ.pdb
     RDKit          3D

 21 20  0  0  1  0  0  0  0  0999 V2000
   26.6517  -16.6753  -17.7399 C   0  0  0  0  0  0  0  0  0  0  0  0
   26.6479  -15.2369  -17.3266 C   0  0  1  0  0  0  0  0  0  0  0  0
   26.8296  -14.3851  -18.3994 O   0  0  0  0  0  0  0  0  0  0  0  0
   25.3653  -14.9633  -16.5722 C   0  0  2  0  0  0  0  0  0  0  0  0
   24.2004  -15.0659  -17.3945 N   0  0  0  0  0  0  0  0  0  0  0  0
   25.4096  -13.6666  -15.8863 C   0  0  0  0  0  0  0  0  0  0  0  0
   26.2826  -13.4109  -14.9943 O   0  0  0  0  0  0  0  0  0  0  0  0
   24.4546  -12.6725  -16.2264 N   0  0  0  0  0  0  0  0  0  0  0  0
   24.4932  -11.4220  -15.4983 C   0  0  0  0  0  0  0  0  0  0  0  0
   23.4839  -10.4684  -15.9824 C   0  0  0  0  0  0  0  0  0  0  0  0
   23.0476  -10.5348  -17.1571 O   0  0  0  0  0  0  0  0  0  0  0  0
   18.2975  -11.0264  -16.0352 N   0  0  0  0  0  0  0  0  0  0  0  0
   18.2545   -9.6328  -16.2304 C   0  0  0  0  0  0  0  0  0  0  0  0
   17.1516   -9.1099  -16.5270 O   0  0  0  0  0  0  0  0  0  0  0  0
   19.4374   -8.7663  -16.1031 C   0  0  0  0  0  0  0  0  0  0  0  0
   20.6591   -9.5417  -15.6889 C   0  0  0  0  0  0  0  0  0  0  0  0
   21.8417   -8.6620  -15.4725 C   0  0  2  0  0  0  0  0  0  0  0  0
   22.9935   -9.4651  -15.1286 N   0  0  0  0  0  0  0  0  0  0  0  0
   21.6587   -7.6373  -14.4399 C   0  0  0  0  0  0  0  0  0  0  0  0
   20.9621   -6.4840  -14.7593 O   0  0  0  0  0  0  0  0  0  0  0  0
   22.0941   -7.7300  -13.2685 O   0  0  0  0  0  0  0  0  0  0  0  0
  2  1  1  6
  2  3  1  0
  2  4  1  0
  4  5  1  6
  6  4  1  0
  6  7  2  0
  8  6  1  0
  9  8  1  0
  9 10  1  0
 10 11  2  0
 10 18  1  0
 12 13  1  0
 13 14  2  0
 15 16  1  0
 15 13  1  0
 17 16  1  1
 17 19  1  0
 18 17  1  0
 19 21  2  0
 19 20  1  0
M  END
$$$$
