TGQ.pdb
     RDKit          3D

 21 20  0  0  1  0  0  0  0  0999 V2000
   15.2562  -12.2281  -16.5126 C   0  0  0  0  0  0  0  0  0  0  0  0
   16.1553  -12.5055  -15.3487 C   0  0  1  0  0  0  0  0  0  0  0  0
   15.9273  -13.7524  -14.7986 O   0  0  0  0  0  0  0  0  0  0  0  0
   17.5871  -12.3171  -15.7998 C   0  0  2  0  0  0  0  0  0  0  0  0
   18.5402  -12.8064  -14.8533 N   0  0  0  0  0  0  0  0  0  0  0  0
   17.8634  -10.9179  -16.1458 C   0  0  0  0  0  0  0  0  0  0  0  0
   17.1700  -10.2935  -17.0132 O   0  0  0  0  0  0  0  0  0  0  0  0
   18.9312  -10.2439  -15.4965 N   0  0  0  0  0  0  0  0  0  0  0  0
   19.2145   -8.8827  -15.8991 C   0  0  0  0  0  0  0  0  0  0  0  0
   20.2561   -8.2643  -15.0652 C   0  0  0  0  0  0  0  0  0  0  0  0
   20.4503   -8.6508  -13.8872 O   0  0  0  0  0  0  0  0  0  0  0  0
   25.1801   -5.4367  -17.6915 N   0  0  0  0  0  0  0  0  0  0  0  0
   24.5642   -6.6941  -17.8385 C   0  0  0  0  0  0  0  0  0  0  0  0
   24.9305   -7.4253  -18.7918 O   0  0  0  0  0  0  0  0  0  0  0  0
   23.5163   -7.1871  -16.9302 C   0  0  0  0  0  0  0  0  0  0  0  0
   23.2046   -6.1952  -15.8420 C   0  0  0  0  0  0  0  0  0  0  0  0
   22.2015   -6.7159  -14.8714 C   0  0  2  0  0  0  0  0  0  0  0  0
   21.0510   -7.2266  -15.5822 N   0  0  0  0  0  0  0  0  0  0  0  0
   21.7446   -5.7356  -13.8816 C   0  0  0  0  0  0  0  0  0  0  0  0
   20.4214   -5.3282  -13.9062 O   0  0  0  0  0  0  0  0  0  0  0  0
   22.4765   -5.2300  -12.9989 O   0  0  0  0  0  0  0  0  0  0  0  0
  2  1  1  6
  2  3  1  0
  2  4  1  0
  4  5  1  1
  6  4  1  0
  6  7  2  0
  8  6  1  0
  9  8  1  0
  9 10  1  0
 10 11  2  0
 10 18  1  0
 12 13  1  0
 13 14  2  0
 15 16  1  0
 15 13  1  0
 17 16  1  6
 17 19  1  0
 18 17  1  0
 19 21  2  0
 19 20  1  0
M  END
$$$$
