TGQ.pdb
     RDKit          3D

 21 20  0  0  1  0  0  0  0  0999 V2000
   13.9395  -11.8166  -12.1791 C   0  0  0  0  0  0  0  0  0  0  0  0
   15.4299  -11.9397  -12.2379 C   0  0  1  0  0  0  0  0  0  0  0  0
   15.8419  -12.8345  -13.2069 O   0  0  0  0  0  0  0  0  0  0  0  0
   16.0129  -10.5571  -12.4314 C   0  0  2  0  0  0  0  0  0  0  0  0
   17.4244  -10.5722  -12.6576 N   0  0  0  0  0  0  0  0  0  0  0  0
   15.6708   -9.6670  -11.3158 C   0  0  0  0  0  0  0  0  0  0  0  0
   14.4636   -9.4825  -10.9528 O   0  0  0  0  0  0  0  0  0  0  0  0
   16.7129   -8.9949  -10.6241 N   0  0  0  0  0  0  0  0  0  0  0  0
   16.3618   -8.2487   -9.4345 C   0  0  0  0  0  0  0  0  0  0  0  0
   15.7735   -6.9397   -9.7557 C   0  0  0  0  0  0  0  0  0  0  0  0
   15.5213   -6.6221  -10.9433 O   0  0  0  0  0  0  0  0  0  0  0  0
   13.1498   -3.3286   -5.3503 N   0  0  0  0  0  0  0  0  0  0  0  0
   12.5753   -4.4040   -6.0543 C   0  0  0  0  0  0  0  0  0  0  0  0
   11.5319   -4.9264   -5.5894 O   0  0  0  0  0  0  0  0  0  0  0  0
   13.1395   -4.9402   -7.3034 C   0  0  0  0  0  0  0  0  0  0  0  0
   14.3342   -4.1493   -7.7646 C   0  0  0  0  0  0  0  0  0  0  0  0
   14.9425   -4.7122   -9.0024 C   0  0  2  0  0  0  0  0  0  0  0  0
   15.4852   -6.0239   -8.7290 N   0  0  0  0  0  0  0  0  0  0  0  0
   15.9957   -3.8828   -9.5960 C   0  0  0  0  0  0  0  0  0  0  0  0
   15.6356   -2.7333  -10.2791 O   0  0  0  0  0  0  0  0  0  0  0  0
   17.2200   -4.1420   -9.5295 O   0  0  0  0  0  0  0  0  0  0  0  0
  2  1  1  6
  2  3  1  0
  2  4  1  0
  4  5  1  1
  6  4  1  0
  6  7  2  0
  8  6  1  0
  9  8  1  0
  9 10  1  0
 10 11  2  0
 10 18  1  0
 12 13  1  0
 13 14  2  0
 15 16  1  0
 15 13  1  0
 17 16  1  1
 17 19  1  0
 18 17  1  0
 19 21  2  0
 19 20  1  0
M  END
$$$$
