TGQ.pdb
     RDKit          3D

 21 20  0  0  1  0  0  0  0  0999 V2000
   22.7192  -20.3950  -16.4720 C   0  0  0  0  0  0  0  0  0  0  0  0
   21.6117  -20.8006  -15.5506 C   0  0  1  0  0  0  0  0  0  0  0  0
   21.4791  -22.1735  -15.4666 O   0  0  0  0  0  0  0  0  0  0  0  0
   21.8522  -20.1520  -14.2051 C   0  0  2  0  0  0  0  0  0  0  0  0
   23.0590  -20.5940  -13.5793 N   0  0  0  0  0  0  0  0  0  0  0  0
   20.7030  -20.3273  -13.3092 C   0  0  0  0  0  0  0  0  0  0  0  0
   19.5417  -19.9056  -13.6201 O   0  0  0  0  0  0  0  0  0  0  0  0
   20.8917  -20.9838  -12.0645 N   0  0  0  0  0  0  0  0  0  0  0  0
   19.7377  -21.1479  -11.2061 C   0  0  0  0  0  0  0  0  0  0  0  0
   19.3556  -22.5601  -11.0565 C   0  0  0  0  0  0  0  0  0  0  0  0
   19.7582  -23.4249  -11.8718 O   0  0  0  0  0  0  0  0  0  0  0  0
   17.0165  -24.6944   -5.6557 N   0  0  0  0  0  0  0  0  0  0  0  0
   18.3750  -24.7705   -6.0172 C   0  0  0  0  0  0  0  0  0  0  0  0
   19.2213  -24.9483   -5.1062 O   0  0  0  0  0  0  0  0  0  0  0  0
   18.8450  -24.6517   -7.4068 C   0  0  0  0  0  0  0  0  0  0  0  0
   17.7012  -24.5338   -8.3780 C   0  0  0  0  0  0  0  0  0  0  0  0
   18.1664  -24.3423   -9.7802 C   0  0  2  0  0  0  0  0  0  0  0  0
   18.5297  -22.9591   -9.9914 N   0  0  0  0  0  0  0  0  0  0  0  0
   17.1931  -24.7337  -10.8045 C   0  0  0  0  0  0  0  0  0  0  0  0
   17.2421  -26.0196  -11.3160 O   0  0  0  0  0  0  0  0  0  0  0  0
   16.3040  -23.9767  -11.2594 O   0  0  0  0  0  0  0  0  0  0  0  0
  2  1  1  6
  2  3  1  0
  2  4  1  0
  4  5  1  1
  6  4  1  0
  6  7  2  0
  8  6  1  0
  9  8  1  0
  9 10  1  0
 10 11  2  0
 10 18  1  0
 12 13  1  0
 13 14  2  0
 15 16  1  0
 15 13  1  0
 17 16  1  1
 17 19  1  0
 18 17  1  0
 19 21  2  0
 19 20  1  0
M  END
$$$$
