TGQ.pdb
     RDKit          3D

 21 20  0  0  1  0  0  0  0  0999 V2000
   17.6970  -15.0851  -17.5585 C   0  0  0  0  0  0  0  0  0  0  0  0
   17.9039  -13.6532  -17.9418 C   0  0  1  0  0  0  0  0  0  0  0  0
   16.9783  -13.2234  -18.8735 O   0  0  0  0  0  0  0  0  0  0  0  0
   17.8960  -12.8184  -16.6801 C   0  0  2  0  0  0  0  0  0  0  0  0
   16.6184  -12.7851  -16.0398 N   0  0  0  0  0  0  0  0  0  0  0  0
   18.3923  -11.4599  -16.9298 C   0  0  0  0  0  0  0  0  0  0  0  0
   19.5954  -11.2422  -17.2879 O   0  0  0  0  0  0  0  0  0  0  0  0
   17.5079  -10.3610  -16.7675 N   0  0  0  0  0  0  0  0  0  0  0  0
   17.9654   -9.0570  -17.1985 C   0  0  0  0  0  0  0  0  0  0  0  0
   18.5593   -8.2866  -16.0956 C   0  0  0  0  0  0  0  0  0  0  0  0
   18.2389   -8.5173  -14.9045 O   0  0  0  0  0  0  0  0  0  0  0  0
   24.1362   -8.0382  -14.7385 N   0  0  0  0  0  0  0  0  0  0  0  0
   23.0261   -8.7847  -14.2998 C   0  0  0  0  0  0  0  0  0  0  0  0
   23.2403   -9.8523  -13.6736 O   0  0  0  0  0  0  0  0  0  0  0  0
   21.6340   -8.3724  -14.5409 C   0  0  0  0  0  0  0  0  0  0  0  0
   21.5532   -6.9994  -15.1523 C   0  0  0  0  0  0  0  0  0  0  0  0
   20.1476   -6.5316  -15.3101 C   0  0  2  0  0  0  0  0  0  0  0  0
   19.4988   -7.2765  -16.3656 N   0  0  0  0  0  0  0  0  0  0  0  0
   20.0096   -5.0997  -15.5928 C   0  0  0  0  0  0  0  0  0  0  0  0
   20.3385   -4.1885  -14.6032 O   0  0  0  0  0  0  0  0  0  0  0  0
   19.6086   -4.6309  -16.6836 O   0  0  0  0  0  0  0  0  0  0  0  0
  2  1  1  1
  2  3  1  0
  2  4  1  0
  4  5  1  6
  6  4  1  0
  6  7  2  0
  8  6  1  0
  9  8  1  0
  9 10  1  0
 10 11  2  0
 10 18  1  0
 12 13  1  0
 13 14  2  0
 15 16  1  0
 15 13  1  0
 17 16  1  6
 17 19  1  0
 18 17  1  0
 19 21  2  0
 19 20  1  0
M  END
$$$$
