TGQ.pdb
     RDKit          3D

 21 20  0  0  1  0  0  0  0  0999 V2000
   16.6868  -14.2890  -19.8922 C   0  0  0  0  0  0  0  0  0  0  0  0
   17.2595  -12.9196  -20.0842 C   0  0  1  0  0  0  0  0  0  0  0  0
   16.2789  -11.9482  -20.1482 O   0  0  0  0  0  0  0  0  0  0  0  0
   18.2638  -12.6664  -18.9814 C   0  0  2  0  0  0  0  0  0  0  0  0
   17.6905  -12.7457  -17.6743 N   0  0  0  0  0  0  0  0  0  0  0  0
   18.9614  -11.3892  -19.1708 C   0  0  0  0  0  0  0  0  0  0  0  0
   19.6565  -11.1542  -20.2123 O   0  0  0  0  0  0  0  0  0  0  0  0
   18.8583  -10.3906  -18.1667 N   0  0  0  0  0  0  0  0  0  0  0  0
   19.3981   -9.0799  -18.4602 C   0  0  0  0  0  0  0  0  0  0  0  0
   19.1328   -8.1176  -17.3803 C   0  0  0  0  0  0  0  0  0  0  0  0
   18.2589   -8.3518  -16.5107 O   0  0  0  0  0  0  0  0  0  0  0  0
   23.5034   -5.4496  -14.1744 N   0  0  0  0  0  0  0  0  0  0  0  0
   22.3433   -4.8139  -13.6927 C   0  0  0  0  0  0  0  0  0  0  0  0
   22.4392   -4.1141  -12.6540 O   0  0  0  0  0  0  0  0  0  0  0  0
   21.0308   -4.9320  -14.3481 C   0  0  0  0  0  0  0  0  0  0  0  0
   21.0908   -5.8075  -15.5709 C   0  0  0  0  0  0  0  0  0  0  0  0
   19.7490   -6.0187  -16.1827 C   0  0  2  0  0  0  0  0  0  0  0  0
   19.8602   -6.9169  -17.3099 N   0  0  0  0  0  0  0  0  0  0  0  0
   19.0803   -4.7911  -16.6247 C   0  0  0  0  0  0  0  0  0  0  0  0
   18.5139   -3.9592  -15.6736 O   0  0  0  0  0  0  0  0  0  0  0  0
   18.9818   -4.4326  -17.8215 O   0  0  0  0  0  0  0  0  0  0  0  0
  2  1  1  1
  2  3  1  0
  2  4  1  0
  4  5  1  1
  6  4  1  0
  6  7  2  0
  8  6  1  0
  9  8  1  0
  9 10  1  0
 10 11  2  0
 10 18  1  0
 12 13  1  0
 13 14  2  0
 15 16  1  0
 15 13  1  0
 17 16  1  6
 17 19  1  0
 18 17  1  0
 19 21  2  0
 19 20  1  0
M  END
$$$$
