TGQ.pdb
     RDKit          3D

 21 20  0  0  1  0  0  0  0  0999 V2000
   15.0373  -12.3729  -16.3377 C   0  0  0  0  0  0  0  0  0  0  0  0
   16.0412  -12.3894  -15.2278 C   0  0  1  0  0  0  0  0  0  0  0  0
   15.8110  -13.4154  -14.3312 O   0  0  0  0  0  0  0  0  0  0  0  0
   17.4238  -12.4451  -15.8394 C   0  0  2  0  0  0  0  0  0  0  0  0
   18.4144  -12.9436  -14.9372 N   0  0  0  0  0  0  0  0  0  0  0  0
   17.8230  -11.1439  -16.3885 C   0  0  0  0  0  0  0  0  0  0  0  0
   17.0992  -10.5238  -17.2338 O   0  0  0  0  0  0  0  0  0  0  0  0
   19.0474  -10.5623  -15.9659 N   0  0  0  0  0  0  0  0  0  0  0  0
   19.4948   -9.3638  -16.6434 C   0  0  0  0  0  0  0  0  0  0  0  0
   20.4480   -8.5924  -15.8316 C   0  0  0  0  0  0  0  0  0  0  0  0
   20.6831   -8.9104  -14.6407 O   0  0  0  0  0  0  0  0  0  0  0  0
   24.9029   -4.8061  -18.3230 N   0  0  0  0  0  0  0  0  0  0  0  0
   25.0715   -4.7057  -16.9289 C   0  0  0  0  0  0  0  0  0  0  0  0
   26.0244   -4.0112  -16.4960 O   0  0  0  0  0  0  0  0  0  0  0  0
   24.1863   -5.3744  -15.9618 C   0  0  0  0  0  0  0  0  0  0  0  0
   23.0527   -6.0933  -16.6425 C   0  0  0  0  0  0  0  0  0  0  0  0
   22.1546   -6.7809  -15.6729 C   0  0  2  0  0  0  0  0  0  0  0  0
   21.1105   -7.4829  -16.3847 N   0  0  0  0  0  0  0  0  0  0  0  0
   21.5341   -5.8954  -14.6827 C   0  0  0  0  0  0  0  0  0  0  0  0
   22.1554   -5.7244  -13.4570 O   0  0  0  0  0  0  0  0  0  0  0  0
   20.4635   -5.2706  -14.8671 O   0  0  0  0  0  0  0  0  0  0  0  0
  2  1  1  6
  2  3  1  0
  2  4  1  0
  4  5  1  1
  6  4  1  0
  6  7  2  0
  8  6  1  0
  9  8  1  0
  9 10  1  0
 10 11  2  0
 10 18  1  0
 12 13  1  0
 13 14  2  0
 15 16  1  0
 15 13  1  0
 17 16  1  6
 17 19  1  0
 18 17  1  0
 19 21  2  0
 19 20  1  0
M  END
$$$$
