TGQ.pdb
     RDKit          3D

 21 20  0  0  1  0  0  0  0  0999 V2000
   15.1566  -23.6472    2.4428 C   0  0  0  0  0  0  0  0  0  0  0  0
   15.7133  -23.1982    1.1281 C   0  0  1  0  0  0  0  0  0  0  0  0
   16.1405  -24.2591    0.3526 O   0  0  0  0  0  0  0  0  0  0  0  0
   14.6697  -22.3494    0.4359 C   0  0  2  0  0  0  0  0  0  0  0  0
   14.8895  -22.2307   -0.9717 N   0  0  0  0  0  0  0  0  0  0  0  0
   14.5499  -21.0267    1.0606 C   0  0  0  0  0  0  0  0  0  0  0  0
   14.7172  -19.9541    0.3938 O   0  0  0  0  0  0  0  0  0  0  0  0
   14.2396  -20.9418    2.4435 N   0  0  0  0  0  0  0  0  0  0  0  0
   14.0326  -19.6256    3.0093 C   0  0  0  0  0  0  0  0  0  0  0  0
   15.2965  -18.9926    3.4150 C   0  0  0  0  0  0  0  0  0  0  0  0
   16.3962  -19.5583    3.2024 O   0  0  0  0  0  0  0  0  0  0  0  0
   16.8204  -13.0886    2.8985 N   0  0  0  0  0  0  0  0  0  0  0  0
   17.8091  -13.5850    3.7692 C   0  0  0  0  0  0  0  0  0  0  0  0
   18.7630  -12.8275    4.0757 O   0  0  0  0  0  0  0  0  0  0  0  0
   17.7750  -14.9441    4.3330 C   0  0  0  0  0  0  0  0  0  0  0  0
   16.5567  -15.7067    3.8861 C   0  0  0  0  0  0  0  0  0  0  0  0
   16.5044  -17.0791    4.4633 C   0  0  2  0  0  0  0  0  0  0  0  0
   15.2862  -17.7385    4.0499 N   0  0  0  0  0  0  0  0  0  0  0  0
   16.5924  -17.1293    5.9259 C   0  0  0  0  0  0  0  0  0  0  0  0
   15.4514  -16.8876    6.6725 O   0  0  0  0  0  0  0  0  0  0  0  0
   17.6429  -17.3794    6.5618 O   0  0  0  0  0  0  0  0  0  0  0  0
  2  1  1  1
  2  3  1  0
  2  4  1  0
  4  5  1  6
  6  4  1  0
  6  7  2  0
  8  6  1  0
  9  8  1  0
  9 10  1  0
 10 11  2  0
 10 18  1  0
 12 13  1  0
 13 14  2  0
 15 16  1  0
 15 13  1  0
 17 16  1  1
 17 19  1  0
 18 17  1  0
 19 21  2  0
 19 20  1  0
M  END
$$$$
