DPC.pdb
     RDKit          3D

 22 22  0  0  1  0  0  0  0  0999 V2000
   19.7729  -12.3635  -16.4621 N   0  0  0  0  0  0  0  0  0  0  0  0
   18.9514  -11.1690  -16.4464 C   0  0  1  0  0  0  0  0  0  0  0  0
   17.9789  -11.1988  -15.2714 C   0  0  0  0  0  0  0  0  0  0  0  0
   17.0731  -12.3480  -15.4615 C   0  0  0  0  0  0  0  0  0  0  0  0
   17.0116  -12.9004  -16.5948 O   0  0  0  0  0  0  0  0  0  0  0  0
   19.6600   -9.9049  -16.5635 C   0  0  0  0  0  0  0  0  0  0  0  0
   20.7245   -9.7949  -15.8432 O   0  0  0  0  0  0  0  0  0  0  0  0
   16.3096  -12.8009  -14.3932 O   0  0  0  0  0  0  0  0  0  0  0  0
   19.3056   -8.7945  -17.3740 N   0  0  0  0  0  0  0  0  0  0  0  0
   18.6651   -8.9879  -18.6612 C   0  0  0  0  0  0  0  0  0  0  0  0
   17.7843   -7.7772  -18.8087 C   0  0  0  0  0  0  0  0  0  0  0  0
   18.1651   -6.8197  -17.7377 C   0  0  0  0  0  0  0  0  0  0  0  0
   19.5394   -7.3926  -17.2851 C   0  0  1  0  0  0  0  0  0  0  0  0
   19.8780   -6.8057  -16.0030 C   0  0  0  0  0  0  0  0  0  0  0  0
   19.3399   -7.1258  -14.9458 O   0  0  0  0  0  0  0  0  0  0  0  0
   20.8806   -5.8016  -15.9261 N   0  0  0  0  0  0  0  0  0  0  0  0
   21.2074   -5.1249  -14.6899 C   0  0  1  0  0  0  0  0  0  0  0  0
   22.1747   -5.9567  -13.8938 C   0  0  0  0  0  0  0  0  0  0  0  0
   22.5569   -5.0582  -12.3604 S   0  0  0  0  0  0  0  0  0  0  0  0
   21.8554   -3.7992  -14.9316 C   0  0  0  0  0  0  0  0  0  0  0  0
   22.6323   -3.6716  -15.8750 O   0  0  0  0  0  0  0  0  0  0  0  0
   21.5501   -2.7527  -14.0679 O   0  0  0  0  0  0  0  0  0  0  0  0
  2  3  1  0
  2  1  1  1
  3  4  1  0
  4  8  1  0
  5  4  2  0
  6  2  1  0
  7  6  2  0
  9  6  1  0
  9 13  1  0
 10  9  1  0
 11 10  1  0
 11 12  1  0
 12 13  1  0
 13 14  1  1
 14 16  1  0
 14 15  2  0
 16 17  1  0
 17 20  1  0
 17 18  1  1
 19 18  1  0
 20 22  1  0
 21 20  2  0
M  END
$$$$
