DPC.pdb
     RDKit          3D

 22 22  0  0  1  0  0  0  0  0999 V2000
   18.3399  -13.4589  -16.6402 N   0  0  0  0  0  0  0  0  0  0  0  0
   17.7998  -12.1141  -16.6814 C   0  0  1  0  0  0  0  0  0  0  0  0
   16.7044  -11.9405  -15.6339 C   0  0  0  0  0  0  0  0  0  0  0  0
   15.7167  -13.0194  -15.8275 C   0  0  0  0  0  0  0  0  0  0  0  0
   15.2224  -13.2007  -16.9747 O   0  0  0  0  0  0  0  0  0  0  0  0
   18.7731  -11.0342  -16.6676 C   0  0  0  0  0  0  0  0  0  0  0  0
   19.4430  -10.9028  -15.5731 O   0  0  0  0  0  0  0  0  0  0  0  0
   15.3524  -13.8145  -14.7486 O   0  0  0  0  0  0  0  0  0  0  0  0
   19.0567  -10.1213  -17.7172 N   0  0  0  0  0  0  0  0  0  0  0  0
   18.8550  -10.4965  -19.1039 C   0  0  0  0  0  0  0  0  0  0  0  0
   18.4764   -9.2037  -19.7737 C   0  0  0  0  0  0  0  0  0  0  0  0
   18.7453   -8.1085  -18.8057 C   0  0  0  0  0  0  0  0  0  0  0  0
   19.6534   -8.8293  -17.7677 C   0  0  1  0  0  0  0  0  0  0  0  0
   19.7038   -8.0193  -16.5659 C   0  0  0  0  0  0  0  0  0  0  0  0
   18.7172   -7.7537  -15.8836 O   0  0  0  0  0  0  0  0  0  0  0  0
   20.9439   -7.4847  -16.1233 N   0  0  0  0  0  0  0  0  0  0  0  0
   21.0476   -6.6195  -14.9686 C   0  0  1  0  0  0  0  0  0  0  0  0
   22.3877   -6.8045  -14.3118 C   0  0  0  0  0  0  0  0  0  0  0  0
   22.4268   -8.4664  -13.5761 S   0  0  0  0  0  0  0  0  0  0  0  0
   20.9296   -5.1755  -15.3385 C   0  0  0  0  0  0  0  0  0  0  0  0
   21.0524   -4.8431  -16.5149 O   0  0  0  0  0  0  0  0  0  0  0  0
   20.6840   -4.2565  -14.3238 O   0  0  0  0  0  0  0  0  0  0  0  0
  2  3  1  0
  2  1  1  1
  3  4  1  0
  4  8  1  0
  5  4  2  0
  6  2  1  0
  7  6  2  0
  9  6  1  0
  9 13  1  0
 10  9  1  0
 11 10  1  0
 11 12  1  0
 12 13  1  0
 13 14  1  1
 14 16  1  0
 14 15  2  0
 16 17  1  0
 17 20  1  0
 17 18  1  6
 19 18  1  0
 20 22  1  0
 21 20  2  0
M  END
$$$$
