DPC.pdb
     RDKit          3D

 22 22  0  0  1  0  0  0  0  0999 V2000
   24.7133  -20.6920  -13.4302 N   0  0  0  0  0  0  0  0  0  0  0  0
   24.0235  -20.6238  -12.1569 C   0  0  1  0  0  0  0  0  0  0  0  0
   22.7369  -21.4425  -12.1959 C   0  0  0  0  0  0  0  0  0  0  0  0
   21.7743  -20.7336  -13.0606 C   0  0  0  0  0  0  0  0  0  0  0  0
   21.5957  -21.1397  -14.2424 O   0  0  0  0  0  0  0  0  0  0  0  0
   24.8307  -20.8928  -10.9780 C   0  0  0  0  0  0  0  0  0  0  0  0
   24.2048  -20.8409   -9.8512 O   0  0  0  0  0  0  0  0  0  0  0  0
   21.0828  -19.6381  -12.5596 O   0  0  0  0  0  0  0  0  0  0  0  0
   26.2164  -21.1994  -10.9386 N   0  0  0  0  0  0  0  0  0  0  0  0
   26.9005  -21.7017  -12.1150 C   0  0  0  0  0  0  0  0  0  0  0  0
   28.2977  -21.1617  -11.9750 C   0  0  0  0  0  0  0  0  0  0  0  0
   28.4238  -20.6114  -10.6002 C   0  0  0  0  0  0  0  0  0  0  0  0
   27.1881  -21.2459   -9.8987 C   0  0  1  0  0  0  0  0  0  0  0  0
   26.9459  -20.5262   -8.6632 C   0  0  0  0  0  0  0  0  0  0  0  0
   26.4511  -19.4025   -8.6172 O   0  0  0  0  0  0  0  0  0  0  0  0
   27.2881  -21.1203   -7.4185 N   0  0  0  0  0  0  0  0  0  0  0  0
   27.4496  -20.3454   -6.2076 C   0  0  1  0  0  0  0  0  0  0  0  0
   27.6400  -21.2668   -5.0344 C   0  0  0  0  0  0  0  0  0  0  0  0
   27.9470  -20.2446   -3.5629 S   0  0  0  0  0  0  0  0  0  0  0  0
   28.6470  -19.4520   -6.2700 C   0  0  0  0  0  0  0  0  0  0  0  0
   29.6134  -19.7868   -6.9510 O   0  0  0  0  0  0  0  0  0  0  0  0
   28.6185  -18.2654   -5.5451 O   0  0  0  0  0  0  0  0  0  0  0  0
  2  3  1  0
  2  1  1  6
  3  4  1  0
  4  8  1  0
  5  4  2  0
  6  2  1  0
  7  6  2  0
  9  6  1  0
  9 13  1  0
 10  9  1  0
 11 10  1  0
 11 12  1  0
 12 13  1  0
 13 14  1  1
 14 16  1  0
 14 15  2  0
 16 17  1  0
 17 20  1  0
 17 18  1  1
 19 18  1  0
 20 22  1  0
 21 20  2  0
M  END
$$$$
