DPC.pdb
     RDKit          3D

 22 22  0  0  1  0  0  0  0  0999 V2000
   18.7099  -13.0916  -16.3250 N   0  0  0  0  0  0  0  0  0  0  0  0
   18.6339  -11.7570  -16.8862 C   0  0  1  0  0  0  0  0  0  0  0  0
   17.2638  -11.1392  -16.6247 C   0  0  0  0  0  0  0  0  0  0  0  0
   16.2477  -12.0094  -17.2470 C   0  0  0  0  0  0  0  0  0  0  0  0
   16.3057  -12.2304  -18.4884 O   0  0  0  0  0  0  0  0  0  0  0  0
   19.7312  -10.8621  -16.5565 C   0  0  0  0  0  0  0  0  0  0  0  0
   19.8730  -10.5938  -15.3027 O   0  0  0  0  0  0  0  0  0  0  0  0
   15.2513  -12.5696  -16.4580 O   0  0  0  0  0  0  0  0  0  0  0  0
   20.6476  -10.2596  -17.4581 N   0  0  0  0  0  0  0  0  0  0  0  0
   21.0405  -10.9345  -18.6806 C   0  0  0  0  0  0  0  0  0  0  0  0
   21.2867   -9.8091  -19.6481 C   0  0  0  0  0  0  0  0  0  0  0  0
   21.2918   -8.5457  -18.8654 C   0  0  0  0  0  0  0  0  0  0  0  0
   21.4476   -9.0824  -17.4130 C   0  0  1  0  0  0  0  0  0  0  0  0
   21.0981   -8.0171  -16.4933 C   0  0  0  0  0  0  0  0  0  0  0  0
   19.9421   -7.6711  -16.2621 O   0  0  0  0  0  0  0  0  0  0  0  0
   22.1215   -7.3109  -15.8053 N   0  0  0  0  0  0  0  0  0  0  0  0
   21.8373   -6.2115  -14.9091 C   0  0  1  0  0  0  0  0  0  0  0  0
   21.9738   -6.6681  -13.4828 C   0  0  0  0  0  0  0  0  0  0  0  0
   21.7183   -5.2261  -12.4056 S   0  0  0  0  0  0  0  0  0  0  0  0
   22.7851   -5.0713  -15.1034 C   0  0  0  0  0  0  0  0  0  0  0  0
   23.9416   -5.3016  -15.4483 O   0  0  0  0  0  0  0  0  0  0  0  0
   22.3139   -3.7816  -14.8818 O   0  0  0  0  0  0  0  0  0  0  0  0
  2  3  1  0
  2  1  1  1
  3  4  1  0
  4  8  1  0
  5  4  2  0
  6  2  1  0
  7  6  2  0
  9  6  1  0
  9 13  1  0
 10  9  1  0
 11 10  1  0
 11 12  1  0
 12 13  1  0
 13 14  1  1
 14 16  1  0
 14 15  2  0
 16 17  1  0
 17 20  1  0
 17 18  1  1
 19 18  1  0
 20 22  1  0
 21 20  2  0
M  END
$$$$
