DPC.pdb
     RDKit          3D

 22 22  0  0  1  0  0  0  0  0999 V2000
   23.1396  -21.5513  -11.2134 N   0  0  0  0  0  0  0  0  0  0  0  0
   22.5825  -21.3580  -12.5378 C   0  0  1  0  0  0  0  0  0  0  0  0
   21.1188  -20.9369  -12.4511 C   0  0  0  0  0  0  0  0  0  0  0  0
   20.3868  -21.9890  -11.7202 C   0  0  0  0  0  0  0  0  0  0  0  0
   19.9468  -22.9862  -12.3569 O   0  0  0  0  0  0  0  0  0  0  0  0
   23.3590  -20.5254  -13.4421 C   0  0  0  0  0  0  0  0  0  0  0  0
   22.9519  -19.3074  -13.5649 O   0  0  0  0  0  0  0  0  0  0  0  0
   20.1982  -21.8648  -10.3497 O   0  0  0  0  0  0  0  0  0  0  0  0
   24.5000  -20.9087  -14.1948 N   0  0  0  0  0  0  0  0  0  0  0  0
   25.4951  -21.8026  -13.6335 C   0  0  0  0  0  0  0  0  0  0  0  0
   26.0097  -22.5607  -14.8268 C   0  0  0  0  0  0  0  0  0  0  0  0
   25.4898  -21.8801  -16.0413 C   0  0  0  0  0  0  0  0  0  0  0  0
   25.0287  -20.5137  -15.4567 C   0  0  1  0  0  0  0  0  0  0  0  0
   24.1601  -19.8731  -16.4252 C   0  0  0  0  0  0  0  0  0  0  0  0
   23.2367  -20.4492  -16.9955 O   0  0  0  0  0  0  0  0  0  0  0  0
   24.3583  -18.5063  -16.7598 N   0  0  0  0  0  0  0  0  0  0  0  0
   23.4973  -17.8013  -17.6842 C   0  0  1  0  0  0  0  0  0  0  0  0
   22.7165  -16.7463  -16.9501 C   0  0  0  0  0  0  0  0  0  0  0  0
   21.6399  -17.5814  -15.7466 S   0  0  0  0  0  0  0  0  0  0  0  0
   24.2751  -17.1113  -18.7588 C   0  0  0  0  0  0  0  0  0  0  0  0
   25.5027  -17.1076  -18.7060 O   0  0  0  0  0  0  0  0  0  0  0  0
   23.5692  -16.4935  -19.7857 O   0  0  0  0  0  0  0  0  0  0  0  0
  2  3  1  0
  2  1  1  1
  3  4  1  0
  4  8  1  0
  5  4  2  0
  6  2  1  0
  7  6  2  0
  9  6  1  0
  9 13  1  0
 10  9  1  0
 11 10  1  0
 11 12  1  0
 12 13  1  0
 13 14  1  6
 14 16  1  0
 14 15  2  0
 16 17  1  0
 17 20  1  0
 17 18  1  1
 19 18  1  0
 20 22  1  0
 21 20  2  0
M  END
$$$$
