DPC.pdb
     RDKit          3D

 22 22  0  0  1  0  0  0  0  0999 V2000
   17.9599  -11.8240  -17.0257 N   0  0  0  0  0  0  0  0  0  0  0  0
   17.7019  -10.4081  -17.1997 C   0  0  1  0  0  0  0  0  0  0  0  0
   16.4981   -9.9732  -16.3698 C   0  0  0  0  0  0  0  0  0  0  0  0
   15.3475  -10.8065  -16.7685 C   0  0  0  0  0  0  0  0  0  0  0  0
   14.9347  -10.7533  -17.9602 O   0  0  0  0  0  0  0  0  0  0  0  0
   18.8470   -9.5261  -17.0423 C   0  0  0  0  0  0  0  0  0  0  0  0
   19.4345   -9.5765  -15.8949 O   0  0  0  0  0  0  0  0  0  0  0  0
   14.7437  -11.6329  -15.8296 O   0  0  0  0  0  0  0  0  0  0  0  0
   19.3760   -8.6267  -18.0049 N   0  0  0  0  0  0  0  0  0  0  0  0
   19.2611   -8.9043  -19.4241 C   0  0  0  0  0  0  0  0  0  0  0  0
   19.1603   -7.5397  -20.0493 C   0  0  0  0  0  0  0  0  0  0  0  0
   19.4969   -6.5451  -18.9975 C   0  0  0  0  0  0  0  0  0  0  0  0
   20.1698   -7.4473  -17.9228 C   0  0  1  0  0  0  0  0  0  0  0  0
   20.2232   -6.7086  -16.6760 C   0  0  0  0  0  0  0  0  0  0  0  0
   19.2257   -6.3145  -16.0764 O   0  0  0  0  0  0  0  0  0  0  0  0
   21.4796   -6.4038  -16.0863 N   0  0  0  0  0  0  0  0  0  0  0  0
   21.5955   -5.6975  -14.8292 C   0  0  1  0  0  0  0  0  0  0  0  0
   22.5736   -6.4072  -13.9340 C   0  0  0  0  0  0  0  0  0  0  0  0
   21.8274   -7.9859  -13.4285 S   0  0  0  0  0  0  0  0  0  0  0  0
   22.0963   -4.3009  -15.0156 C   0  0  0  0  0  0  0  0  0  0  0  0
   22.5777   -3.9731  -16.0974 O   0  0  0  0  0  0  0  0  0  0  0  0
   21.9968   -3.4200  -13.9439 O   0  0  0  0  0  0  0  0  0  0  0  0
  2  3  1  0
  2  1  1  1
  3  4  1  0
  4  8  1  0
  5  4  2  0
  6  2  1  0
  7  6  2  0
  9  6  1  0
  9 13  1  0
 10  9  1  0
 11 10  1  0
 11 12  1  0
 12 13  1  0
 13 14  1  1
 14 16  1  0
 14 15  2  0
 16 17  1  0
 17 20  1  0
 17 18  1  1
 19 18  1  0
 20 22  1  0
 21 20  2  0
M  END
$$$$
