DPC.pdb
     RDKit          3D

 22 22  0  0  1  0  0  0  0  0999 V2000
   18.4745  -11.6407  -15.6371 N   0  0  0  0  0  0  0  0  0  0  0  0
   18.5581  -10.2116  -15.4079 C   0  0  1  0  0  0  0  0  0  0  0  0
   17.5438   -9.4668  -16.2703 C   0  0  0  0  0  0  0  0  0  0  0  0
   17.9360   -9.6387  -17.6822 C   0  0  0  0  0  0  0  0  0  0  0  0
   19.1621   -9.7052  -17.9752 O   0  0  0  0  0  0  0  0  0  0  0  0
   18.5413   -9.7856  -14.0180 C   0  0  0  0  0  0  0  0  0  0  0  0
   17.5844  -10.2677  -13.2997 O   0  0  0  0  0  0  0  0  0  0  0  0
   16.9528   -9.7265  -18.6593 O   0  0  0  0  0  0  0  0  0  0  0  0
   19.4536   -8.9050  -13.3794 N   0  0  0  0  0  0  0  0  0  0  0  0
   20.8522   -8.8768  -13.7633 C   0  0  0  0  0  0  0  0  0  0  0  0
   21.2580   -7.4463  -13.5345 C   0  0  0  0  0  0  0  0  0  0  0  0
   20.1605   -6.7909  -12.7763 C   0  0  0  0  0  0  0  0  0  0  0  0
   19.3589   -8.0229  -12.2654 C   0  0  1  0  0  0  0  0  0  0  0  0
   18.0545   -7.5674  -11.8250 C   0  0  0  0  0  0  0  0  0  0  0  0
   17.2530   -6.9916  -12.5569 O   0  0  0  0  0  0  0  0  0  0  0  0
   17.6469   -7.7792  -10.4802 N   0  0  0  0  0  0  0  0  0  0  0  0
   16.4270   -7.2182   -9.9419 C   0  0  1  0  0  0  0  0  0  0  0  0
   15.8958   -8.1060   -8.8505 C   0  0  0  0  0  0  0  0  0  0  0  0
   14.3140   -7.4123   -8.2837 S   0  0  0  0  0  0  0  0  0  0  0  0
   16.6484   -5.8649   -9.3457 C   0  0  0  0  0  0  0  0  0  0  0  0
   17.6451   -5.6667   -8.6551 O   0  0  0  0  0  0  0  0  0  0  0  0
   15.7055   -4.8744   -9.5990 O   0  0  0  0  0  0  0  0  0  0  0  0
  2  3  1  0
  2  1  1  1
  3  4  1  0
  4  8  1  0
  5  4  2  0
  6  2  1  0
  7  6  2  0
  9  6  1  0
  9 13  1  0
 10  9  1  0
 11 10  1  0
 11 12  1  0
 12 13  1  0
 13 14  1  6
 14 16  1  0
 14 15  2  0
 16 17  1  0
 17 20  1  0
 17 18  1  1
 19 18  1  0
 20 22  1  0
 21 20  2  0
M  END
$$$$
