DPC.pdb
     RDKit          3D

 22 22  0  0  1  0  0  0  0  0999 V2000
   18.8230  -12.4026  -16.5292 N   0  0  0  0  0  0  0  0  0  0  0  0
   18.5760  -11.0324  -16.9333 C   0  0  1  0  0  0  0  0  0  0  0  0
   17.1613  -10.6052  -16.5548 C   0  0  0  0  0  0  0  0  0  0  0  0
   16.2183  -11.3493  -17.4116 C   0  0  0  0  0  0  0  0  0  0  0  0
   16.5509  -12.4862  -17.8476 O   0  0  0  0  0  0  0  0  0  0  0  0
   19.5846  -10.0601  -16.5445 C   0  0  0  0  0  0  0  0  0  0  0  0
   19.7583   -9.9160  -15.2744 O   0  0  0  0  0  0  0  0  0  0  0  0
   14.9855  -10.7884  -17.7194 O   0  0  0  0  0  0  0  0  0  0  0  0
   20.3843   -9.2627  -17.4048 N   0  0  0  0  0  0  0  0  0  0  0  0
   20.7272   -9.7209  -18.7378 C   0  0  0  0  0  0  0  0  0  0  0  0
   20.8190   -8.4518  -19.5405 C   0  0  0  0  0  0  0  0  0  0  0  0
   20.7971   -7.3180  -18.5798 C   0  0  0  0  0  0  0  0  0  0  0  0
   21.1018   -8.0441  -17.2376 C   0  0  1  0  0  0  0  0  0  0  0  0
   20.7516   -7.1537  -16.1478 C   0  0  0  0  0  0  0  0  0  0  0  0
   19.6108   -6.7453  -15.9440 O   0  0  0  0  0  0  0  0  0  0  0  0
   21.7560   -6.7066  -15.2475 N   0  0  0  0  0  0  0  0  0  0  0  0
   21.4760   -5.7835  -14.1695 C   0  0  1  0  0  0  0  0  0  0  0  0
   21.9446   -6.3662  -12.8647 C   0  0  0  0  0  0  0  0  0  0  0  0
   20.8115   -7.7143  -12.4137 S   0  0  0  0  0  0  0  0  0  0  0  0
   22.1823   -4.4782  -14.3523 C   0  0  0  0  0  0  0  0  0  0  0  0
   21.9177   -3.5402  -13.6041 O   0  0  0  0  0  0  0  0  0  0  0  0
   23.1200   -4.3774  -15.3746 O   0  0  0  0  0  0  0  0  0  0  0  0
  2  3  1  0
  2  1  1  1
  3  4  1  0
  4  8  1  0
  5  4  2  0
  6  2  1  0
  7  6  2  0
  9  6  1  0
  9 13  1  0
 10  9  1  0
 11 10  1  0
 11 12  1  0
 12 13  1  0
 13 14  1  1
 14 16  1  0
 14 15  2  0
 16 17  1  0
 17 20  1  0
 17 18  1  1
 19 18  1  0
 20 22  1  0
 21 20  2  0
M  END
$$$$
