DPC.pdb
     RDKit          3D

 22 22  0  0  1  0  0  0  0  0999 V2000
   17.1214  -11.2719  -17.3576 N   0  0  0  0  0  0  0  0  0  0  0  0
   17.0832   -9.8228  -17.3816 C   0  0  1  0  0  0  0  0  0  0  0  0
   15.9460   -9.2987  -16.5103 C   0  0  0  0  0  0  0  0  0  0  0  0
   14.6920   -9.9178  -16.9806 C   0  0  0  0  0  0  0  0  0  0  0  0
   14.3981   -9.8545  -18.2066 O   0  0  0  0  0  0  0  0  0  0  0  0
   18.3458   -9.1464  -17.1326 C   0  0  0  0  0  0  0  0  0  0  0  0
   18.9860   -9.5323  -16.0812 O   0  0  0  0  0  0  0  0  0  0  0  0
   13.8622  -10.5587  -16.0697 O   0  0  0  0  0  0  0  0  0  0  0  0
   18.9373   -8.1187  -17.9133 N   0  0  0  0  0  0  0  0  0  0  0  0
   18.7430   -8.0711  -19.3501 C   0  0  0  0  0  0  0  0  0  0  0  0
   18.7721   -6.6008  -19.6672 C   0  0  0  0  0  0  0  0  0  0  0  0
   19.2531   -5.8951  -18.4509 C   0  0  0  0  0  0  0  0  0  0  0  0
   19.8590   -7.0706  -17.6308 C   0  0  1  0  0  0  0  0  0  0  0  0
   20.0372   -6.6270  -16.2616 C   0  0  0  0  0  0  0  0  0  0  0  0
   19.1163   -6.2348  -15.5491 O   0  0  0  0  0  0  0  0  0  0  0  0
   21.3332   -6.6303  -15.6788 N   0  0  0  0  0  0  0  0  0  0  0  0
   21.5795   -6.1613  -14.3327 C   0  0  1  0  0  0  0  0  0  0  0  0
   22.3657   -7.1915  -13.5697 C   0  0  0  0  0  0  0  0  0  0  0  0
   21.2536   -8.5789  -13.1921 S   0  0  0  0  0  0  0  0  0  0  0  0
   22.3743   -4.8948  -14.3176 C   0  0  0  0  0  0  0  0  0  0  0  0
   22.9762   -4.5493  -15.3315 O   0  0  0  0  0  0  0  0  0  0  0  0
   22.4014   -4.1514  -13.1424 O   0  0  0  0  0  0  0  0  0  0  0  0
  2  3  1  0
  2  1  1  1
  3  4  1  0
  4  8  1  0
  5  4  2  0
  6  2  1  0
  7  6  2  0
  9  6  1  0
  9 13  1  0
 10  9  1  0
 11 10  1  0
 11 12  1  0
 12 13  1  0
 13 14  1  1
 14 16  1  0
 14 15  2  0
 16 17  1  0
 17 20  1  0
 17 18  1  1
 19 18  1  0
 20 22  1  0
 21 20  2  0
M  END
$$$$
