DPC.pdb
     RDKit          3D

 22 22  0  0  1  0  0  0  0  0999 V2000
   15.1274  -11.9390  -14.7435 N   0  0  0  0  0  0  0  0  0  0  0  0
   15.4448  -11.9299  -13.3289 C   0  0  1  0  0  0  0  0  0  0  0  0
   16.8572  -12.4543  -13.0897 C   0  0  0  0  0  0  0  0  0  0  0  0
   16.8962  -13.8650  -13.5204 C   0  0  0  0  0  0  0  0  0  0  0  0
   15.8689  -14.5824  -13.3673 O   0  0  0  0  0  0  0  0  0  0  0  0
   15.1737  -10.6890  -12.6215 C   0  0  0  0  0  0  0  0  0  0  0  0
   15.8307   -9.6583  -13.0341 O   0  0  0  0  0  0  0  0  0  0  0  0
   18.0572  -14.3752  -14.0867 O   0  0  0  0  0  0  0  0  0  0  0  0
   14.2764  -10.4973  -11.5382 N   0  0  0  0  0  0  0  0  0  0  0  0
   13.1035  -11.3374  -11.3866 C   0  0  0  0  0  0  0  0  0  0  0  0
   12.9067  -11.4127   -9.8970 C   0  0  0  0  0  0  0  0  0  0  0  0
   13.8006  -10.3980   -9.2806 C   0  0  0  0  0  0  0  0  0  0  0  0
   14.1635   -9.5173  -10.5112 C   0  0  1  0  0  0  0  0  0  0  0  0
   15.3165   -8.7074  -10.1681 C   0  0  0  0  0  0  0  0  0  0  0  0
   16.3722   -9.1727   -9.7455 O   0  0  0  0  0  0  0  0  0  0  0  0
   15.2588   -7.2950  -10.3137 N   0  0  0  0  0  0  0  0  0  0  0  0
   16.3449   -6.4287   -9.9104 C   0  0  1  0  0  0  0  0  0  0  0  0
   16.7348   -5.5338  -11.0544 C   0  0  0  0  0  0  0  0  0  0  0  0
   17.0105   -6.5797  -12.5155 S   0  0  0  0  0  0  0  0  0  0  0  0
   15.9615   -5.5457   -8.7662 C   0  0  0  0  0  0  0  0  0  0  0  0
   14.7773   -5.2710   -8.5878 O   0  0  0  0  0  0  0  0  0  0  0  0
   16.9729   -5.0645   -7.9416 O   0  0  0  0  0  0  0  0  0  0  0  0
  2  3  1  0
  2  1  1  6
  3  4  1  0
  4  8  1  0
  5  4  2  0
  6  2  1  0
  7  6  2  0
  9  6  1  0
  9 13  1  0
 10  9  1  0
 11 10  1  0
 11 12  1  0
 12 13  1  0
 13 14  1  1
 14 16  1  0
 14 15  2  0
 16 17  1  0
 17 20  1  0
 17 18  1  6
 19 18  1  0
 20 22  1  0
 21 20  2  0
M  END
$$$$
