DPC.pdb
     RDKit          3D

 22 22  0  0  1  0  0  0  0  0999 V2000
   18.5683  -12.2906  -15.8771 N   0  0  0  0  0  0  0  0  0  0  0  0
   19.0181  -11.0641  -16.5058 C   0  0  1  0  0  0  0  0  0  0  0  0
   18.4302  -10.9292  -17.9070 C   0  0  0  0  0  0  0  0  0  0  0  0
   18.8626  -12.0994  -18.6948 C   0  0  0  0  0  0  0  0  0  0  0  0
   18.0915  -13.0943  -18.7900 O   0  0  0  0  0  0  0  0  0  0  0  0
   18.8794   -9.8526  -15.7141 C   0  0  0  0  0  0  0  0  0  0  0  0
   17.6687   -9.4566  -15.5101 O   0  0  0  0  0  0  0  0  0  0  0  0
   20.1042  -12.0839  -19.3170 O   0  0  0  0  0  0  0  0  0  0  0  0
   19.9227   -9.0702  -15.1530 N   0  0  0  0  0  0  0  0  0  0  0  0
   21.1411   -9.6920  -14.6700 C   0  0  0  0  0  0  0  0  0  0  0  0
   22.1985   -8.6518  -14.9215 C   0  0  0  0  0  0  0  0  0  0  0  0
   21.5009   -7.3889  -15.2781 C   0  0  0  0  0  0  0  0  0  0  0  0
   20.0491   -7.6943  -14.8084 C   0  0  1  0  0  0  0  0  0  0  0  0
   19.1598   -6.7224  -15.4146 C   0  0  0  0  0  0  0  0  0  0  0  0
   18.8381   -6.7425  -16.6003 O   0  0  0  0  0  0  0  0  0  0  0  0
   18.6127   -5.6742  -14.6264 N   0  0  0  0  0  0  0  0  0  0  0  0
   17.7706   -4.6403  -15.1875 C   0  0  1  0  0  0  0  0  0  0  0  0
   16.3541   -4.8259  -14.7177 C   0  0  0  0  0  0  0  0  0  0  0  0
   15.3398   -3.5146  -15.4636 S   0  0  0  0  0  0  0  0  0  0  0  0
   18.2040   -3.2735  -14.7634 C   0  0  0  0  0  0  0  0  0  0  0  0
   18.4960   -3.0723  -13.5870 O   0  0  0  0  0  0  0  0  0  0  0  0
   18.2583   -2.2737  -15.7286 O   0  0  0  0  0  0  0  0  0  0  0  0
  2  3  1  0
  2  1  1  1
  3  4  1  0
  4  8  1  0
  5  4  2  0
  6  2  1  0
  7  6  2  0
  9  6  1  0
  9 13  1  0
 10  9  1  0
 11 10  1  0
 11 12  1  0
 12 13  1  0
 13 14  1  6
 14 16  1  0
 14 15  2  0
 16 17  1  0
 17 20  1  0
 17 18  1  1
 19 18  1  0
 20 22  1  0
 21 20  2  0
M  END
$$$$
