DPC.pdb
     RDKit          3D

 22 22  0  0  1  0  0  0  0  0999 V2000
   23.6161  -14.4456  -17.4936 N   0  0  0  0  0  0  0  0  0  0  0  0
   24.1102  -13.1253  -17.8320 C   0  0  1  0  0  0  0  0  0  0  0  0
   23.7320  -12.7585  -19.2636 C   0  0  0  0  0  0  0  0  0  0  0  0
   24.1708  -13.8578  -20.1445 C   0  0  0  0  0  0  0  0  0  0  0  0
   25.3737  -14.2379  -20.0992 O   0  0  0  0  0  0  0  0  0  0  0  0
   23.8129  -12.0685  -16.8789 C   0  0  0  0  0  0  0  0  0  0  0  0
   22.5630  -11.8986  -16.6083 O   0  0  0  0  0  0  0  0  0  0  0  0
   23.2554  -14.4538  -21.0023 O   0  0  0  0  0  0  0  0  0  0  0  0
   24.7412  -11.2149  -16.2269 N   0  0  0  0  0  0  0  0  0  0  0  0
   26.0563  -11.6969  -15.8493 C   0  0  0  0  0  0  0  0  0  0  0  0
   26.9317  -10.4790  -15.9663 C   0  0  0  0  0  0  0  0  0  0  0  0
   26.0363   -9.3051  -16.1360 C   0  0  0  0  0  0  0  0  0  0  0  0
   24.6654   -9.8957  -15.6961 C   0  0  1  0  0  0  0  0  0  0  0  0
   23.6172   -9.0028  -16.1510 C   0  0  0  0  0  0  0  0  0  0  0  0
   23.3773   -8.7847  -17.3361 O   0  0  0  0  0  0  0  0  0  0  0  0
   22.8042   -8.3239  -15.2037 N   0  0  0  0  0  0  0  0  0  0  0  0
   21.8392   -7.3176  -15.5895 C   0  0  1  0  0  0  0  0  0  0  0  0
   20.4458   -7.8252  -15.3400 C   0  0  0  0  0  0  0  0  0  0  0  0
   20.3957   -9.5802  -15.8114 S   0  0  0  0  0  0  0  0  0  0  0  0
   22.0003   -6.0564  -14.8026 C   0  0  0  0  0  0  0  0  0  0  0  0
   22.7854   -6.0321  -13.8577 O   0  0  0  0  0  0  0  0  0  0  0  0
   21.2451   -4.9496  -15.1755 O   0  0  0  0  0  0  0  0  0  0  0  0
  2  3  1  0
  2  1  1  1
  3  4  1  0
  4  8  1  0
  5  4  2  0
  6  2  1  0
  7  6  2  0
  9  6  1  0
  9 13  1  0
 10  9  1  0
 11 10  1  0
 11 12  1  0
 12 13  1  0
 13 14  1  6
 14 16  1  0
 14 15  2  0
 16 17  1  0
 17 20  1  0
 17 18  1  1
 19 18  1  0
 20 22  1  0
 21 20  2  0
M  END
$$$$
