WVE.pdb
     RDKit          3D

 31 32  0  0  1  0  0  0  0  0999 V2000
   25.2526  -21.3698   -8.1276 N   0  0  0  0  0  0  0  0  0  0  0  0
   26.2977  -20.5343   -8.7749 C   0  0  1  0  0  0  0  0  0  0  0  0
   27.5251  -20.7534   -7.9820 C   0  0  0  0  0  0  0  0  0  0  0  0
   27.4171  -20.4047   -6.5699 C   0  0  0  0  0  0  0  0  0  0  0  0
   26.1838  -20.4196   -5.9065 C   0  0  0  0  0  0  0  0  0  0  0  0
   26.4404  -20.0054   -4.6608 N   0  0  0  0  0  0  0  0  0  0  0  0
   27.7434  -19.7338   -4.4969 C   0  0  0  0  0  0  0  0  0  0  0  0
   28.5010  -19.3041   -3.4260 C   0  0  0  0  0  0  0  0  0  0  0  0
   29.8508  -19.1353   -3.5708 C   0  0  0  0  0  0  0  0  0  0  0  0
   30.4696  -19.3883   -4.7719 C   0  0  0  0  0  0  0  0  0  0  0  0
   29.7389  -19.8156   -5.8518 C   0  0  0  0  0  0  0  0  0  0  0  0
   28.3721  -19.9827   -5.6964 C   0  0  0  0  0  0  0  0  0  0  0  0
   26.3127  -20.9402  -10.1851 C   0  0  0  0  0  0  0  0  0  0  0  0
   26.9823  -21.9443  -10.5487 O   0  0  0  0  0  0  0  0  0  0  0  0
   23.4951  -21.1078  -13.1618 C   0  0  0  0  0  0  0  0  0  0  0  0
   24.9199  -21.5178  -13.1245 C   0  0  1  0  0  0  0  0  0  0  0  0
   25.3948  -21.9865  -14.5067 C   0  0  0  0  0  0  0  0  0  0  0  0
   25.9075  -20.5147  -12.6450 C   0  0  2  0  0  0  0  0  0  0  0  0
   25.6086  -20.2614  -11.2109 N   0  0  0  0  0  0  0  0  0  0  0  0
   25.9141  -19.2244  -13.3593 C   0  0  0  0  0  0  0  0  0  0  0  0
   26.5024  -18.2463  -12.8458 O   0  0  0  0  0  0  0  0  0  0  0  0
   25.2830  -19.0628  -14.6007 N   0  0  0  0  0  0  0  0  0  0  0  0
   25.8444  -18.2361  -15.6689 C   0  0  1  0  0  0  0  0  0  0  0  0
   27.2712  -18.5340  -15.9136 C   0  0  0  0  0  0  0  0  0  0  0  0
   28.0875  -17.2730  -15.9911 C   0  0  0  0  0  0  0  0  0  0  0  0
   28.6627  -17.0972  -17.3673 C   0  0  0  0  0  0  0  0  0  0  0  0
   29.8982  -17.2951  -17.5870 O   0  0  0  0  0  0  0  0  0  0  0  0
   24.9775  -18.3060  -16.8272 C   0  0  0  0  0  0  0  0  0  0  0  0
   24.6560  -17.3359  -17.5888 O   0  0  0  0  0  0  0  0  0  0  0  0
   27.8672  -16.7157  -18.4338 O   0  0  0  0  0  0  0  0  0  0  0  0
   24.4081  -19.5226  -17.1981 O   0  0  0  0  0  0  0  0  0  0  0  0
  2 13  1  0
  2  1  1  1
  3  2  1  0
  4  3  1  0
  4  5  2  0
  6  5  1  0
  7 12  2  0
  7  6  1  0
  8  7  1  0
  9 10  1  0
  9  8  2  0
 10 11  2  0
 11 12  1  0
 12  4  1  0
 13 14  2  0
 16 15  1  6
 16 18  1  0
 16 17  1  0
 18 19  1  1
 19 13  1  0
 20 18  1  0
 21 20  2  0
 22 20  1  0
 23 24  1  6
 23 22  1  0
 25 26  1  0
 25 24  1  0
 26 30  1  0
 27 26  2  0
 28 31  1  0
 28 23  1  0
 29 28  2  0
M  END
$$$$
