WVE.pdb
     RDKit          3D

 31 32  0  0  1  0  0  0  0  0999 V2000
   28.5008  -23.5179  -16.2160 N   0  0  0  0  0  0  0  0  0  0  0  0
   27.0398  -23.7833  -16.2819 C   0  0  1  0  0  0  0  0  0  0  0  0
   26.8197  -24.9869  -15.4537 C   0  0  0  0  0  0  0  0  0  0  0  0
   27.2448  -26.2415  -16.0644 C   0  0  0  0  0  0  0  0  0  0  0  0
   28.5789  -26.6641  -16.0108 C   0  0  0  0  0  0  0  0  0  0  0  0
   28.6217  -27.8082  -16.7024 N   0  0  0  0  0  0  0  0  0  0  0  0
   27.4124  -28.1319  -17.1833 C   0  0  0  0  0  0  0  0  0  0  0  0
   26.9334  -29.1928  -17.9252 C   0  0  0  0  0  0  0  0  0  0  0  0
   25.6058  -29.2523  -18.2501 C   0  0  0  0  0  0  0  0  0  0  0  0
   24.7352  -28.2676  -17.8476 C   0  0  0  0  0  0  0  0  0  0  0  0
   25.1864  -27.2024  -17.1099 C   0  0  0  0  0  0  0  0  0  0  0  0
   26.5328  -27.1496  -16.7864 C   0  0  0  0  0  0  0  0  0  0  0  0
   26.3909  -22.5358  -15.8618 C   0  0  0  0  0  0  0  0  0  0  0  0
   26.9304  -21.8032  -14.9895 O   0  0  0  0  0  0  0  0  0  0  0  0
   26.3117  -19.3988  -16.7378 C   0  0  0  0  0  0  0  0  0  0  0  0
   24.8664  -19.7165  -16.6400 C   0  0  1  0  0  0  0  0  0  0  0  0
   24.2565  -19.9421  -18.0302 C   0  0  0  0  0  0  0  0  0  0  0  0
   24.4779  -20.8826  -15.8028 C   0  0  2  0  0  0  0  0  0  0  0  0
   25.1539  -22.0752  -16.3780 N   0  0  0  0  0  0  0  0  0  0  0  0
   23.0320  -21.1587  -15.7135 C   0  0  0  0  0  0  0  0  0  0  0  0
   22.4476  -21.6722  -16.6939 O   0  0  0  0  0  0  0  0  0  0  0  0
   22.2929  -20.8659  -14.5587 N   0  0  0  0  0  0  0  0  0  0  0  0
   20.8703  -21.1820  -14.4318 C   0  0  1  0  0  0  0  0  0  0  0  0
   20.4714  -21.4052  -13.0263 C   0  0  0  0  0  0  0  0  0  0  0  0
   19.0231  -21.7980  -12.9249 C   0  0  0  0  0  0  0  0  0  0  0  0
   18.6929  -22.2517  -11.5318 C   0  0  0  0  0  0  0  0  0  0  0  0
   19.5407  -22.1398  -10.5923 O   0  0  0  0  0  0  0  0  0  0  0  0
   20.0990  -20.1936  -15.1573 C   0  0  0  0  0  0  0  0  0  0  0  0
   20.3986  -18.9638  -15.3069 O   0  0  0  0  0  0  0  0  0  0  0  0
   17.4598  -22.8035  -11.2304 O   0  0  0  0  0  0  0  0  0  0  0  0
   18.9041  -20.5589  -15.7742 O   0  0  0  0  0  0  0  0  0  0  0  0
  2 13  1  0
  2  1  1  1
  3  2  1  0
  4  3  1  0
  4  5  2  0
  6  5  1  0
  7 12  2  0
  7  6  1  0
  8  7  1  0
  9 10  1  0
  9  8  2  0
 10 11  2  0
 11 12  1  0
 12  4  1  0
 13 14  2  0
 16 15  1  6
 16 18  1  0
 16 17  1  0
 18 19  1  6
 19 13  1  0
 20 18  1  0
 21 20  2  0
 22 20  1  0
 23 24  1  1
 23 22  1  0
 25 26  1  0
 25 24  1  0
 26 30  1  0
 27 26  2  0
 28 31  1  0
 28 23  1  0
 29 28  2  0
M  END
$$$$
