WVE.pdb
     RDKit          3D

 31 32  0  0  1  0  0  0  0  0999 V2000
   23.7278  -20.9416  -17.8710 N   0  0  0  0  0  0  0  0  0  0  0  0
   23.9371  -20.0117  -16.7304 C   0  0  1  0  0  0  0  0  0  0  0  0
   22.5962  -19.7893  -16.1513 C   0  0  0  0  0  0  0  0  0  0  0  0
   21.7228  -18.9221  -16.9340 C   0  0  0  0  0  0  0  0  0  0  0  0
   20.6773  -19.4440  -17.7059 C   0  0  0  0  0  0  0  0  0  0  0  0
   20.1242  -18.3924  -18.3202 N   0  0  0  0  0  0  0  0  0  0  0  0
   20.7466  -17.2519  -17.9880 C   0  0  0  0  0  0  0  0  0  0  0  0
   20.5556  -15.9273  -18.3264 C   0  0  0  0  0  0  0  0  0  0  0  0
   21.3654  -14.9638  -17.7902 C   0  0  0  0  0  0  0  0  0  0  0  0
   22.3723  -15.2943  -16.9147 C   0  0  0  0  0  0  0  0  0  0  0  0
   22.5832  -16.6036  -16.5629 C   0  0  0  0  0  0  0  0  0  0  0  0
   21.7589  -17.5730  -17.1117 C   0  0  0  0  0  0  0  0  0  0  0  0
   24.9520  -20.6471  -15.8819 C   0  0  0  0  0  0  0  0  0  0  0  0
   24.9117  -21.8885  -15.6671 O   0  0  0  0  0  0  0  0  0  0  0  0
   28.2588  -18.5003  -14.0980 C   0  0  0  0  0  0  0  0  0  0  0  0
   28.0499  -19.9658  -14.0062 C   0  0  1  0  0  0  0  0  0  0  0  0
   28.7173  -20.5398  -12.7489 C   0  0  0  0  0  0  0  0  0  0  0  0
   26.6466  -20.4580  -14.0141 C   0  0  2  0  0  0  0  0  0  0  0  0
   26.0130  -19.9450  -15.2572 N   0  0  0  0  0  0  0  0  0  0  0  0
   25.8165  -20.0571  -12.8629 C   0  0  0  0  0  0  0  0  0  0  0  0
   24.9428  -19.1748  -13.0191 O   0  0  0  0  0  0  0  0  0  0  0  0
   25.9755  -20.6397  -11.5976 N   0  0  0  0  0  0  0  0  0  0  0  0
   24.9677  -20.5234  -10.5438 C   0  0  1  0  0  0  0  0  0  0  0  0
   23.6281  -20.9452  -11.0038 C   0  0  0  0  0  0  0  0  0  0  0  0
   22.6261  -19.8322  -10.8632 C   0  0  0  0  0  0  0  0  0  0  0  0
   21.2815  -20.2611  -11.3767 C   0  0  0  0  0  0  0  0  0  0  0  0
   21.1064  -21.4273  -11.8489 O   0  0  0  0  0  0  0  0  0  0  0  0
   25.4576  -21.1743   -9.3461 C   0  0  0  0  0  0  0  0  0  0  0  0
   24.9125  -21.1444   -8.1944 O   0  0  0  0  0  0  0  0  0  0  0  0
   20.1966  -19.4020  -11.3511 O   0  0  0  0  0  0  0  0  0  0  0  0
   26.6335  -21.9206   -9.3908 O   0  0  0  0  0  0  0  0  0  0  0  0
  2 13  1  0
  2  1  1  6
  3  2  1  0
  4  3  1  0
  4  5  2  0
  6  5  1  0
  7 12  2  0
  7  6  1  0
  8  7  1  0
  9 10  1  0
  9  8  2  0
 10 11  2  0
 11 12  1  0
 12  4  1  0
 13 14  2  0
 16 15  1  1
 16 18  1  0
 16 17  1  0
 18 19  1  6
 19 13  1  0
 20 18  1  0
 21 20  2  0
 22 20  1  0
 23 24  1  6
 23 22  1  0
 25 26  1  0
 25 24  1  0
 26 30  1  0
 27 26  2  0
 28 31  1  0
 28 23  1  0
 29 28  2  0
M  END
$$$$
