WVE.pdb
     RDKit          3D

 31 32  0  0  1  0  0  0  0  0999 V2000
   23.6648  -20.2880  -16.3104 N   0  0  0  0  0  0  0  0  0  0  0  0
   22.5668  -19.4416  -15.7744 C   0  0  1  0  0  0  0  0  0  0  0  0
   21.7320  -19.0920  -16.9422 C   0  0  0  0  0  0  0  0  0  0  0  0
   21.9695  -17.7627  -17.4938 C   0  0  0  0  0  0  0  0  0  0  0  0
   23.2666  -17.2954  -17.7395 C   0  0  0  0  0  0  0  0  0  0  0  0
   23.1190  -16.0438  -18.1878 N   0  0  0  0  0  0  0  0  0  0  0  0
   21.8252  -15.6953  -18.2413 C   0  0  0  0  0  0  0  0  0  0  0  0
   21.1605  -14.5526  -18.6387 C   0  0  0  0  0  0  0  0  0  0  0  0
   19.7938  -14.5098  -18.5957 C   0  0  0  0  0  0  0  0  0  0  0  0
   19.0665  -15.5922  -18.1609 C   0  0  0  0  0  0  0  0  0  0  0  0
   19.7033  -16.7395  -17.7598 C   0  0  0  0  0  0  0  0  0  0  0  0
   21.0878  -16.7735  -17.8056 C   0  0  0  0  0  0  0  0  0  0  0  0
   21.9473  -20.2284  -14.7016 C   0  0  0  0  0  0  0  0  0  0  0  0
   22.0021  -21.4874  -14.7261 O   0  0  0  0  0  0  0  0  0  0  0  0
   20.2208  -18.4187  -11.1622 C   0  0  0  0  0  0  0  0  0  0  0  0
   20.8868  -19.7416  -11.2395 C   0  0  1  0  0  0  0  0  0  0  0  0
   20.4261  -20.6580  -10.0978 C   0  0  0  0  0  0  0  0  0  0  0  0
   20.7318  -20.5122  -12.5020 C   0  0  2  0  0  0  0  0  0  0  0  0
   21.2614  -19.6601  -13.5991 N   0  0  0  0  0  0  0  0  0  0  0  0
   19.3560  -20.9186  -12.8442 C   0  0  0  0  0  0  0  0  0  0  0  0
   18.6039  -20.1004  -13.4196 O   0  0  0  0  0  0  0  0  0  0  0  0
   18.8672  -22.1985  -12.5466 N   0  0  0  0  0  0  0  0  0  0  0  0
   17.5092  -22.6225  -12.8870 C   0  0  1  0  0  0  0  0  0  0  0  0
   17.3174  -24.0770  -12.7080 C   0  0  0  0  0  0  0  0  0  0  0  0
   15.9166  -24.4919  -13.0658 C   0  0  0  0  0  0  0  0  0  0  0  0
   15.7079  -25.9523  -12.7847 C   0  0  0  0  0  0  0  0  0  0  0  0
   16.6039  -26.6377  -12.2005 O   0  0  0  0  0  0  0  0  0  0  0  0
   16.5607  -21.7715  -12.1984 C   0  0  0  0  0  0  0  0  0  0  0  0
   16.6032  -21.4337  -10.9701 O   0  0  0  0  0  0  0  0  0  0  0  0
   14.5376  -26.5934  -13.1524 O   0  0  0  0  0  0  0  0  0  0  0  0
   15.4742  -21.2386  -12.8893 O   0  0  0  0  0  0  0  0  0  0  0  0
  2 13  1  0
  2  1  1  6
  3  2  1  0
  4  3  1  0
  4  5  2  0
  6  5  1  0
  7 12  2  0
  7  6  1  0
  8  7  1  0
  9 10  1  0
  9  8  2  0
 10 11  2  0
 11 12  1  0
 12  4  1  0
 13 14  2  0
 16 15  1  6
 16 18  1  0
 16 17  1  0
 18 19  1  6
 19 13  1  0
 20 18  1  0
 21 20  2  0
 22 20  1  0
 23 24  1  1
 23 22  1  0
 25 26  1  0
 25 24  1  0
 26 30  1  0
 27 26  2  0
 28 31  1  0
 28 23  1  0
 29 28  2  0
M  END
$$$$
