WVE.pdb
     RDKit          3D

 31 32  0  0  1  0  0  0  0  0999 V2000
   28.5413  -20.5376   -9.7039 N   0  0  0  0  0  0  0  0  0  0  0  0
   27.0748  -20.6753   -9.5040 C   0  0  1  0  0  0  0  0  0  0  0  0
   26.6759  -19.5074   -8.6917 C   0  0  0  0  0  0  0  0  0  0  0  0
   27.4465  -19.3153   -7.4683 C   0  0  0  0  0  0  0  0  0  0  0  0
   28.3377  -18.2441   -7.3275 C   0  0  0  0  0  0  0  0  0  0  0  0
   28.9008  -18.4006   -6.1244 N   0  0  0  0  0  0  0  0  0  0  0  0
   28.4263  -19.4900   -5.5028 C   0  0  0  0  0  0  0  0  0  0  0  0
   28.6645  -20.0652   -4.2707 C   0  0  0  0  0  0  0  0  0  0  0  0
   27.9881  -21.1968   -3.9052 C   0  0  0  0  0  0  0  0  0  0  0  0
   27.0694  -21.7743   -4.7490 C   0  0  0  0  0  0  0  0  0  0  0  0
   26.8151  -21.2225   -5.9793 C   0  0  0  0  0  0  0  0  0  0  0  0
   27.5057  -20.0771   -6.3417 C   0  0  0  0  0  0  0  0  0  0  0  0
   26.5014  -20.8012  -10.8490 C   0  0  0  0  0  0  0  0  0  0  0  0
   27.2564  -20.9148  -11.8519 O   0  0  0  0  0  0  0  0  0  0  0  0
   26.5067  -22.4577  -13.0609 C   0  0  0  0  0  0  0  0  0  0  0  0
   25.0496  -22.1817  -13.0689 C   0  0  1  0  0  0  0  0  0  0  0  0
   24.2769  -23.2781  -12.3230 C   0  0  0  0  0  0  0  0  0  0  0  0
   24.5976  -20.8789  -12.5121 C   0  0  2  0  0  0  0  0  0  0  0  0
   25.1100  -20.8004  -11.1187 N   0  0  0  0  0  0  0  0  0  0  0  0
   23.1396  -20.6583  -12.4904 C   0  0  0  0  0  0  0  0  0  0  0  0
   22.4859  -21.0026  -11.4803 O   0  0  0  0  0  0  0  0  0  0  0  0
   22.4644  -20.0694  -13.5688 N   0  0  0  0  0  0  0  0  0  0  0  0
   21.2507  -19.2710  -13.3978 C   0  0  1  0  0  0  0  0  0  0  0  0
   21.2468  -18.0700  -14.2591 C   0  0  0  0  0  0  0  0  0  0  0  0
   21.0686  -18.4362  -15.7071 C   0  0  0  0  0  0  0  0  0  0  0  0
   20.0017  -17.5901  -16.3407 C   0  0  0  0  0  0  0  0  0  0  0  0
   19.3870  -16.7052  -15.6677 O   0  0  0  0  0  0  0  0  0  0  0  0
   20.0946  -20.1357  -13.5156 C   0  0  0  0  0  0  0  0  0  0  0  0
   18.9103  -19.8693  -13.1270 O   0  0  0  0  0  0  0  0  0  0  0  0
   19.6572  -17.7482  -17.6719 O   0  0  0  0  0  0  0  0  0  0  0  0
   20.2230  -21.3937  -14.1011 O   0  0  0  0  0  0  0  0  0  0  0  0
  2 13  1  0
  2  1  1  6
  3  2  1  0
  4  3  1  0
  4  5  2  0
  6  5  1  0
  7 12  2  0
  7  6  1  0
  8  7  1  0
  9 10  1  0
  9  8  2  0
 10 11  2  0
 11 12  1  0
 12  4  1  0
 13 14  2  0
 16 15  1  1
 16 18  1  0
 16 17  1  0
 18 19  1  1
 19 13  1  0
 20 18  1  0
 21 20  2  0
 22 20  1  0
 23 24  1  6
 23 22  1  0
 25 26  1  0
 25 24  1  0
 26 30  1  0
 27 26  2  0
 28 31  1  0
 28 23  1  0
 29 28  2  0
M  END
$$$$
