WVE.pdb
     RDKit          3D

 31 32  0  0  1  0  0  0  0  0999 V2000
   28.6301  -20.5465   -9.5367 N   0  0  0  0  0  0  0  0  0  0  0  0
   27.1571  -20.6712   -9.3813 C   0  0  1  0  0  0  0  0  0  0  0  0
   26.7512  -19.5283   -8.5374 C   0  0  0  0  0  0  0  0  0  0  0  0
   27.4388  -19.4344   -7.2546 C   0  0  0  0  0  0  0  0  0  0  0  0
   28.3252  -18.3864   -6.9764 C   0  0  0  0  0  0  0  0  0  0  0  0
   28.8050  -18.6363   -5.7531 N   0  0  0  0  0  0  0  0  0  0  0  0
   28.2829  -19.7627   -5.2462 C   0  0  0  0  0  0  0  0  0  0  0  0
   28.4339  -20.4287   -4.0465 C   0  0  0  0  0  0  0  0  0  0  0  0
   27.7273  -21.5762   -3.8110 C   0  0  0  0  0  0  0  0  0  0  0  0
   26.8640  -22.0805   -4.7543 C   0  0  0  0  0  0  0  0  0  0  0  0
   26.6966  -21.4378   -5.9549 C   0  0  0  0  0  0  0  0  0  0  0  0
   27.4172  -20.2768   -6.1855 C   0  0  0  0  0  0  0  0  0  0  0  0
   26.6189  -20.7400  -10.7448 C   0  0  0  0  0  0  0  0  0  0  0  0
   27.2226  -20.1713  -11.6940 O   0  0  0  0  0  0  0  0  0  0  0  0
   24.1796  -23.7106  -12.3541 C   0  0  0  0  0  0  0  0  0  0  0  0
   24.8180  -22.5890  -13.0849 C   0  0  1  0  0  0  0  0  0  0  0  0
   24.1943  -22.4117  -14.4759 C   0  0  0  0  0  0  0  0  0  0  0  0
   24.8059  -21.2529  -12.4319 C   0  0  2  0  0  0  0  0  0  0  0  0
   25.4238  -21.4193  -11.0900 N   0  0  0  0  0  0  0  0  0  0  0  0
   23.4800  -20.6290  -12.2653 C   0  0  0  0  0  0  0  0  0  0  0  0
   22.9901  -20.5354  -11.1174 O   0  0  0  0  0  0  0  0  0  0  0  0
   22.7534  -20.1331  -13.3570 N   0  0  0  0  0  0  0  0  0  0  0  0
   21.4921  -19.4089  -13.2009 C   0  0  1  0  0  0  0  0  0  0  0  0
   21.4655  -18.1585  -13.9883 C   0  0  0  0  0  0  0  0  0  0  0  0
   20.3486  -18.1703  -14.9956 C   0  0  0  0  0  0  0  0  0  0  0  0
   20.3872  -16.9323  -15.8449 C   0  0  0  0  0  0  0  0  0  0  0  0
   21.0330  -16.9128  -16.9388 O   0  0  0  0  0  0  0  0  0  0  0  0
   20.3906  -20.3216  -13.4288 C   0  0  0  0  0  0  0  0  0  0  0  0
   19.2383  -20.2638  -12.8871 O   0  0  0  0  0  0  0  0  0  0  0  0
   19.7232  -15.7794  -15.4631 O   0  0  0  0  0  0  0  0  0  0  0  0
   20.5411  -21.3869  -14.3144 O   0  0  0  0  0  0  0  0  0  0  0  0
  2 13  1  0
  2  1  1  6
  3  2  1  0
  4  3  1  0
  4  5  2  0
  6  5  1  0
  7 12  2  0
  7  6  1  0
  8  7  1  0
  9 10  1  0
  9  8  2  0
 10 11  2  0
 11 12  1  0
 12  4  1  0
 13 14  2  0
 16 15  1  1
 16 18  1  0
 16 17  1  0
 18 19  1  1
 19 13  1  0
 20 18  1  0
 21 20  2  0
 22 20  1  0
 23 24  1  6
 23 22  1  0
 25 26  1  0
 25 24  1  0
 26 30  1  0
 27 26  2  0
 28 31  1  0
 28 23  1  0
 29 28  2  0
M  END
$$$$
