WVE.pdb
     RDKit          3D

 31 32  0  0  1  0  0  0  0  0999 V2000
   25.8417  -20.9043  -13.4101 N   0  0  0  0  0  0  0  0  0  0  0  0
   24.5830  -20.4806  -12.7426 C   0  0  1  0  0  0  0  0  0  0  0  0
   23.4922  -20.9625  -13.6149 C   0  0  0  0  0  0  0  0  0  0  0  0
   23.2994  -20.1963  -14.8410 C   0  0  0  0  0  0  0  0  0  0  0  0
   24.1041  -20.4070  -15.9676 C   0  0  0  0  0  0  0  0  0  0  0  0
   23.6924  -19.5152  -16.8755 N   0  0  0  0  0  0  0  0  0  0  0  0
   22.6891  -18.7636  -16.3993 C   0  0  0  0  0  0  0  0  0  0  0  0
   21.9251  -17.7442  -16.9311 C   0  0  0  0  0  0  0  0  0  0  0  0
   20.9323  -17.1750  -16.1815 C   0  0  0  0  0  0  0  0  0  0  0  0
   20.6808  -17.6035  -14.8999 C   0  0  0  0  0  0  0  0  0  0  0  0
   21.4264  -18.6145  -14.3480 C   0  0  0  0  0  0  0  0  0  0  0  0
   22.4306  -19.1845  -15.1140 C   0  0  0  0  0  0  0  0  0  0  0  0
   24.6569  -21.0184  -11.3791 C   0  0  0  0  0  0  0  0  0  0  0  0
   24.9167  -22.2375  -11.1918 O   0  0  0  0  0  0  0  0  0  0  0  0
   25.1817  -20.4850   -6.5131 C   0  0  0  0  0  0  0  0  0  0  0  0
   25.1788  -20.0846   -7.9411 C   0  0  1  0  0  0  0  0  0  0  0  0
   26.6025  -20.0783   -8.5145 C   0  0  0  0  0  0  0  0  0  0  0  0
   24.3405  -20.8842   -8.8735 C   0  0  2  0  0  0  0  0  0  0  0  0
   24.4461  -20.2439  -10.2110 N   0  0  0  0  0  0  0  0  0  0  0  0
   22.9137  -21.0005   -8.5188 C   0  0  0  0  0  0  0  0  0  0  0  0
   22.1545  -20.0256   -8.7181 O   0  0  0  0  0  0  0  0  0  0  0  0
   22.3817  -22.1748   -7.9680 N   0  0  0  0  0  0  0  0  0  0  0  0
   20.9834  -22.2882   -7.5536 C   0  0  1  0  0  0  0  0  0  0  0  0
   20.2673  -23.3504   -8.2906 C   0  0  0  0  0  0  0  0  0  0  0  0
   18.8579  -23.5085   -7.7897 C   0  0  0  0  0  0  0  0  0  0  0  0
   18.1361  -24.5736   -8.5642 C   0  0  0  0  0  0  0  0  0  0  0  0
   18.7150  -25.1992   -9.5063 O   0  0  0  0  0  0  0  0  0  0  0  0
   20.9230  -22.3720   -6.1087 C   0  0  0  0  0  0  0  0  0  0  0  0
   21.8619  -22.7518   -5.3350 O   0  0  0  0  0  0  0  0  0  0  0  0
   16.8234  -24.9048   -8.2763 O   0  0  0  0  0  0  0  0  0  0  0  0
   19.7535  -22.0172   -5.4392 O   0  0  0  0  0  0  0  0  0  0  0  0
  2 13  1  0
  2  1  1  6
  3  2  1  0
  4  3  1  0
  4  5  2  0
  6  5  1  0
  7 12  2  0
  7  6  1  0
  8  7  1  0
  9 10  1  0
  9  8  2  0
 10 11  2  0
 11 12  1  0
 12  4  1  0
 13 14  2  0
 16 15  1  1
 16 18  1  0
 16 17  1  0
 18 19  1  6
 19 13  1  0
 20 18  1  0
 21 20  2  0
 22 20  1  0
 23 24  1  6
 23 22  1  0
 25 26  1  0
 25 24  1  0
 26 30  1  0
 27 26  2  0
 28 31  1  0
 28 23  1  0
 29 28  2  0
M  END
$$$$
