SCF.pdb
     RDKit          3D

 24 24  0  0  1  0  0  0  0  0999 V2000
    9.6879  -19.9081   22.8752 O   0  0  0  0  0  0  0  0  0  0  0  0
    8.4672  -19.9643   22.2328 C   0  0  0  0  0  0  0  0  0  0  0  0
    8.5958  -19.2883   20.8846 C   0  0  2  0  0  0  0  0  0  0  0  0
    9.5111  -20.0040   20.0451 N   0  0  0  0  0  0  0  0  0  0  0  0
    9.0009  -17.8822   21.1198 C   0  0  0  0  0  0  0  0  0  0  0  0
   10.1860  -17.5779   20.8431 O   0  0  0  0  0  0  0  0  0  0  0  0
    8.1564  -16.8853   21.6243 N   0  0  0  0  0  0  0  0  0  0  0  0
    8.5185  -15.4943   21.7929 C   0  0  1  0  0  0  0  0  0  0  0  0
    7.4930  -14.5563   21.2162 C   0  0  0  0  0  0  0  0  0  0  0  0
    5.8609  -15.0060   21.8279 S   0  0  0  0  0  0  0  0  0  0  0  0
    8.6448  -15.1767   23.2430 C   0  0  0  0  0  0  0  0  0  0  0  0
    8.4509  -13.9939   23.6688 O   0  0  0  0  0  0  0  0  0  0  0  0
    8.9809  -16.1686   24.1849 N   0  0  0  0  0  0  0  0  0  0  0  0
    8.9517  -15.9184   25.6333 C   0  0  1  0  0  0  0  0  0  0  0  0
    7.5484  -15.3931   25.9213 C   0  0  0  0  0  0  0  0  0  0  0  0
    7.5289  -13.9582   26.2225 C   0  0  0  0  0  0  0  0  0  0  0  0
    8.6878  -13.2171   26.2703 C   0  0  0  0  0  0  0  0  0  0  0  0
    8.6161  -11.8649   26.5599 C   0  0  0  0  0  0  0  0  0  0  0  0
    7.4146  -11.2321   26.8036 C   0  0  0  0  0  0  0  0  0  0  0  0
    6.2587  -11.9699   26.7563 C   0  0  0  0  0  0  0  0  0  0  0  0
    6.3261  -13.3379   26.4638 C   0  0  0  0  0  0  0  0  0  0  0  0
    9.1448  -17.2102   26.3219 C   0  0  0  0  0  0  0  0  0  0  0  0
    9.4755  -17.2235   27.6608 O   0  0  0  0  0  0  0  0  0  0  0  0
    9.0241  -18.3280   25.7504 O   0  0  0  0  0  0  0  0  0  0  0  0
  1  2  1  0
  2  3  1  0
  3  5  1  0
  3  4  1  6
  5  6  2  0
  7  8  1  0
  7  5  1  0
  8 11  1  0
  9 10  1  0
  8  9  1  1
 11 12  2  0
 11 13  1  0
 13 14  1  0
 14 22  1  0
 14 15  1  1
 16 15  1  0
 16 17  2  0
 18 17  1  0
 19 18  2  0
 20 21  2  0
 20 19  1  0
 21 16  1  0
 22 24  2  0
 22 23  1  0
M  END
$$$$
