SCF.pdb
     RDKit          3D

 24 24  0  0  1  0  0  0  0  0999 V2000
    7.2712  -18.8291   23.6275 O   0  0  0  0  0  0  0  0  0  0  0  0
    6.4668  -19.4865   22.7184 C   0  0  0  0  0  0  0  0  0  0  0  0
    6.6511  -18.8503   21.3573 C   0  0  2  0  0  0  0  0  0  0  0  0
    6.9603  -19.8445   20.3720 N   0  0  0  0  0  0  0  0  0  0  0  0
    7.6992  -17.8099   21.4817 C   0  0  0  0  0  0  0  0  0  0  0  0
    8.8808  -18.1624   21.2506 O   0  0  0  0  0  0  0  0  0  0  0  0
    7.4578  -16.4766   21.8360 N   0  0  0  0  0  0  0  0  0  0  0  0
    8.4637  -15.4385   21.9055 C   0  0  1  0  0  0  0  0  0  0  0  0
    7.9144  -14.0783   21.5702 C   0  0  0  0  0  0  0  0  0  0  0  0
    6.3464  -13.8406   22.4216 S   0  0  0  0  0  0  0  0  0  0  0  0
    9.0199  -15.3647   23.2856 C   0  0  0  0  0  0  0  0  0  0  0  0
   10.0088  -14.6091   23.5486 O   0  0  0  0  0  0  0  0  0  0  0  0
    8.4732  -16.1239   24.3386 N   0  0  0  0  0  0  0  0  0  0  0  0
    9.0407  -16.1087   25.6947 C   0  0  1  0  0  0  0  0  0  0  0  0
    7.8637  -15.8094   26.6186 C   0  0  0  0  0  0  0  0  0  0  0  0
    7.4774  -14.3950   26.6078 C   0  0  0  0  0  0  0  0  0  0  0  0
    6.1942  -14.0018   26.3020 C   0  0  0  0  0  0  0  0  0  0  0  0
    5.8798  -12.6533   26.3047 C   0  0  0  0  0  0  0  0  0  0  0  0
    6.8155  -11.6850   26.6054 C   0  0  0  0  0  0  0  0  0  0  0  0
    8.0949  -12.0758   26.9103 C   0  0  0  0  0  0  0  0  0  0  0  0
    8.4178  -13.4386   26.9089 C   0  0  0  0  0  0  0  0  0  0  0  0
    9.5629  -17.4591   25.9842 C   0  0  0  0  0  0  0  0  0  0  0  0
   10.1997  -17.6983   27.1840 O   0  0  0  0  0  0  0  0  0  0  0  0
    9.4617  -18.4301   25.1857 O   0  0  0  0  0  0  0  0  0  0  0  0
  1  2  1  0
  2  3  1  0
  3  5  1  0
  3  4  1  6
  5  6  2  0
  7  8  1  0
  7  5  1  0
  8 11  1  0
  9 10  1  0
  8  9  1  1
 11 12  2  0
 11 13  1  0
 13 14  1  0
 14 22  1  0
 14 15  1  1
 16 15  1  0
 16 17  2  0
 18 17  1  0
 19 18  2  0
 20 21  2  0
 20 19  1  0
 21 16  1  0
 22 24  2  0
 22 23  1  0
M  END
$$$$
