SCF.pdb
     RDKit          3D

 24 24  0  0  1  0  0  0  0  0999 V2000
    7.5832  -17.7443   19.4375 O   0  0  0  0  0  0  0  0  0  0  0  0
    6.4043  -18.3304   19.0222 C   0  0  0  0  0  0  0  0  0  0  0  0
    5.9648  -19.3324   20.0682 C   0  0  2  0  0  0  0  0  0  0  0  0
    4.7982  -20.0414   19.6309 N   0  0  0  0  0  0  0  0  0  0  0  0
    5.7565  -18.5987   21.3390 C   0  0  0  0  0  0  0  0  0  0  0  0
    4.5703  -18.3596   21.6698 O   0  0  0  0  0  0  0  0  0  0  0  0
    6.7855  -18.1614   22.1824 N   0  0  0  0  0  0  0  0  0  0  0  0
    6.6306  -17.8321   23.5830 C   0  0  1  0  0  0  0  0  0  0  0  0
    6.1311  -18.9943   24.3980 C   0  0  0  0  0  0  0  0  0  0  0  0
    6.6730  -18.8045   26.1040 S   0  0  0  0  0  0  0  0  0  0  0  0
    7.9438  -17.4212   24.1543 C   0  0  0  0  0  0  0  0  0  0  0  0
    8.9375  -18.2151   24.1367 O   0  0  0  0  0  0  0  0  0  0  0  0
    8.1281  -16.1485   24.7290 N   0  0  0  0  0  0  0  0  0  0  0  0
    9.4500  -15.6591   25.1462 C   0  0  1  0  0  0  0  0  0  0  0  0
    9.3860  -14.1433   24.9842 C   0  0  0  0  0  0  0  0  0  0  0  0
    8.2412  -13.5449   25.6780 C   0  0  0  0  0  0  0  0  0  0  0  0
    8.3132  -13.1806   27.0034 C   0  0  0  0  0  0  0  0  0  0  0  0
    7.2036  -12.6200   27.6134 C   0  0  0  0  0  0  0  0  0  0  0  0
    6.0215  -12.4132   26.9327 C   0  0  0  0  0  0  0  0  0  0  0  0
    5.9486  -12.7760   25.6115 C   0  0  0  0  0  0  0  0  0  0  0  0
    7.0682  -13.3435   24.9902 C   0  0  0  0  0  0  0  0  0  0  0  0
    9.6296  -15.9946   26.5729 C   0  0  0  0  0  0  0  0  0  0  0  0
   10.8560  -15.7898   27.1697 O   0  0  0  0  0  0  0  0  0  0  0  0
    8.7119  -16.4678   27.2971 O   0  0  0  0  0  0  0  0  0  0  0  0
  1  2  1  0
  2  3  1  0
  3  5  1  0
  3  4  1  6
  5  6  2  0
  7  8  1  0
  7  5  1  0
  8 11  1  0
  9 10  1  0
  8  9  1  1
 11 12  2  0
 11 13  1  0
 13 14  1  0
 14 22  1  0
 14 15  1  1
 16 15  1  0
 16 17  2  0
 18 17  1  0
 19 18  2  0
 20 21  2  0
 20 19  1  0
 21 16  1  0
 22 24  2  0
 22 23  1  0
M  END
$$$$
