SCF.pdb
     RDKit          3D

 24 24  0  0  1  0  0  0  0  0999 V2000
    8.9220  -20.6479   22.5463 O   0  0  0  0  0  0  0  0  0  0  0  0
    7.9527  -19.7149   22.2367 C   0  0  0  0  0  0  0  0  0  0  0  0
    8.2680  -19.1176   20.8821 C   0  0  2  0  0  0  0  0  0  0  0  0
    9.1552  -19.9705   20.1472 N   0  0  0  0  0  0  0  0  0  0  0  0
    8.8180  -17.7592   21.1031 C   0  0  0  0  0  0  0  0  0  0  0  0
   10.0389  -17.5946   20.8662 O   0  0  0  0  0  0  0  0  0  0  0  0
    8.0719  -16.6628   21.5532 N   0  0  0  0  0  0  0  0  0  0  0  0
    8.5995  -15.3352   21.7842 C   0  0  1  0  0  0  0  0  0  0  0  0
    7.5914  -14.2551   21.4988 C   0  0  0  0  0  0  0  0  0  0  0  0
    6.0000  -14.7232   22.1978 S   0  0  0  0  0  0  0  0  0  0  0  0
    9.0091  -15.1947   23.2098 C   0  0  0  0  0  0  0  0  0  0  0  0
    9.7379  -14.2216   23.5839 O   0  0  0  0  0  0  0  0  0  0  0  0
    8.6059  -16.1281   24.1845 N   0  0  0  0  0  0  0  0  0  0  0  0
    9.0418  -16.0383   25.5856 C   0  0  1  0  0  0  0  0  0  0  0  0
    7.7900  -15.6595   26.3716 C   0  0  0  0  0  0  0  0  0  0  0  0
    7.6142  -14.2092   26.4970 C   0  0  0  0  0  0  0  0  0  0  0  0
    8.6827  -13.3719   26.7249 C   0  0  0  0  0  0  0  0  0  0  0  0
    8.4640  -12.0091   26.8365 C   0  0  0  0  0  0  0  0  0  0  0  0
    7.2033  -11.4595   26.7262 C   0  0  0  0  0  0  0  0  0  0  0  0
    6.1376  -12.2932   26.4990 C   0  0  0  0  0  0  0  0  0  0  0  0
    6.3537  -13.6723   26.3854 C   0  0  0  0  0  0  0  0  0  0  0  0
    9.5005  -17.3774   26.0058 C   0  0  0  0  0  0  0  0  0  0  0  0
    9.4402  -18.4271   25.1132 O   0  0  0  0  0  0  0  0  0  0  0  0
    9.9542  -17.6283   27.1556 O   0  0  0  0  0  0  0  0  0  0  0  0
  1  2  1  0
  2  3  1  0
  3  5  1  0
  3  4  1  1
  5  6  2  0
  7  8  1  0
  7  5  1  0
  8 11  1  0
  9 10  1  0
  8  9  1  1
 11 12  2  0
 11 13  1  0
 13 14  1  0
 14 22  1  0
 14 15  1  1
 16 15  1  0
 16 17  2  0
 18 17  1  0
 19 18  2  0
 20 21  2  0
 20 19  1  0
 21 16  1  0
 22 24  2  0
 22 23  1  0
M  END
$$$$
