SCF.pdb
     RDKit          3D

 24 24  0  0  1  0  0  0  0  0999 V2000
   10.9324  -18.1193   20.0567 O   0  0  0  0  0  0  0  0  0  0  0  0
   10.1102  -19.2156   19.8889 C   0  0  0  0  0  0  0  0  0  0  0  0
    8.7906  -18.7497   19.3121 C   0  0  2  0  0  0  0  0  0  0  0  0
    8.9623  -18.2849   17.9671 N   0  0  0  0  0  0  0  0  0  0  0  0
    8.2402  -17.7146   20.2188 C   0  0  0  0  0  0  0  0  0  0  0  0
    7.4686  -16.8657   19.7110 O   0  0  0  0  0  0  0  0  0  0  0  0
    8.5227  -17.6250   21.5876 N   0  0  0  0  0  0  0  0  0  0  0  0
    7.7783  -16.8307   22.5411 C   0  0  1  0  0  0  0  0  0  0  0  0
    6.3937  -17.3675   22.7842 C   0  0  0  0  0  0  0  0  0  0  0  0
    6.4254  -18.4857   24.1943 S   0  0  0  0  0  0  0  0  0  0  0  0
    8.4863  -16.8190   23.8519 C   0  0  0  0  0  0  0  0  0  0  0  0
    8.9366  -17.8959   24.3572 O   0  0  0  0  0  0  0  0  0  0  0  0
    8.6795  -15.6232   24.5709 N   0  0  0  0  0  0  0  0  0  0  0  0
    9.6256  -15.5250   25.6917 C   0  0  1  0  0  0  0  0  0  0  0  0
    9.7569  -14.0316   25.9760 C   0  0  0  0  0  0  0  0  0  0  0  0
    8.4597  -13.3546   26.0718 C   0  0  0  0  0  0  0  0  0  0  0  0
    7.8886  -13.0627   27.2897 C   0  0  0  0  0  0  0  0  0  0  0  0
    6.6611  -12.4228   27.3266 C   0  0  0  0  0  0  0  0  0  0  0  0
    5.9877  -12.0661   26.1765 C   0  0  0  0  0  0  0  0  0  0  0  0
    6.5561  -12.3566   24.9620 C   0  0  0  0  0  0  0  0  0  0  0  0
    7.7975  -13.0037   24.9194 C   0  0  0  0  0  0  0  0  0  0  0  0
    9.0195  -16.1969   26.8586 C   0  0  0  0  0  0  0  0  0  0  0  0
    9.7820  -16.4192   27.9861 O   0  0  0  0  0  0  0  0  0  0  0  0
    7.8215  -16.5897   26.8904 O   0  0  0  0  0  0  0  0  0  0  0  0
  1  2  1  0
  2  3  1  0
  3  5  1  0
  3  4  1  6
  5  6  2  0
  7  8  1  0
  7  5  1  0
  8 11  1  0
  9 10  1  0
  8  9  1  1
 11 12  2  0
 11 13  1  0
 13 14  1  0
 14 22  1  0
 14 15  1  1
 16 15  1  0
 16 17  2  0
 18 17  1  0
 19 18  2  0
 20 21  2  0
 20 19  1  0
 21 16  1  0
 22 24  2  0
 22 23  1  0
M  END
$$$$
