SCF.pdb
     RDKit          3D

 24 24  0  0  1  0  0  0  0  0999 V2000
    8.8568  -19.3565   21.4189 O   0  0  0  0  0  0  0  0  0  0  0  0
    9.7117  -19.3654   20.3350 C   0  0  0  0  0  0  0  0  0  0  0  0
    9.4824  -18.1077   19.5247 C   0  0  2  0  0  0  0  0  0  0  0  0
   10.3627  -18.0668   18.3941 N   0  0  0  0  0  0  0  0  0  0  0  0
    9.6478  -16.9477   20.4322 C   0  0  0  0  0  0  0  0  0  0  0  0
   10.8199  -16.5539   20.6440 O   0  0  0  0  0  0  0  0  0  0  0  0
    8.5934  -16.2725   21.0598 N   0  0  0  0  0  0  0  0  0  0  0  0
    8.7443  -15.1704   21.9855 C   0  0  1  0  0  0  0  0  0  0  0  0
    7.6264  -14.1688   21.8785 C   0  0  0  0  0  0  0  0  0  0  0  0
    6.0513  -15.0020   22.1331 S   0  0  0  0  0  0  0  0  0  0  0  0
    8.7495  -15.6821   23.3847 C   0  0  0  0  0  0  0  0  0  0  0  0
    8.0933  -16.7258   23.6977 O   0  0  0  0  0  0  0  0  0  0  0  0
    9.4762  -15.0318   24.4011 N   0  0  0  0  0  0  0  0  0  0  0  0
    9.4109  -15.4557   25.8072 C   0  0  1  0  0  0  0  0  0  0  0  0
    7.9240  -15.4835   26.1491 C   0  0  0  0  0  0  0  0  0  0  0  0
    7.3463  -14.1426   26.2847 C   0  0  0  0  0  0  0  0  0  0  0  0
    6.0164  -13.9023   26.0238 C   0  0  0  0  0  0  0  0  0  0  0  0
    5.5192  -12.6177   26.1659 C   0  0  0  0  0  0  0  0  0  0  0  0
    6.3174  -11.5646   26.5626 C   0  0  0  0  0  0  0  0  0  0  0  0
    7.6433  -11.8031   26.8228 C   0  0  0  0  0  0  0  0  0  0  0  0
    8.1508  -13.1006   26.6806 C   0  0  0  0  0  0  0  0  0  0  0  0
    9.9622  -16.8226   25.8962 C   0  0  0  0  0  0  0  0  0  0  0  0
   10.3809  -17.4621   24.7482 O   0  0  0  0  0  0  0  0  0  0  0  0
   10.0769  -17.4572   26.9800 O   0  0  0  0  0  0  0  0  0  0  0  0
  1  2  1  0
  2  3  1  0
  3  5  1  0
  3  4  1  6
  5  6  2  0
  7  8  1  0
  7  5  1  0
  8 11  1  0
  9 10  1  0
  8  9  1  1
 11 12  2  0
 11 13  1  0
 13 14  1  0
 14 22  1  0
 14 15  1  6
 16 15  1  0
 16 17  2  0
 18 17  1  0
 19 18  2  0
 20 21  2  0
 20 19  1  0
 21 16  1  0
 22 24  2  0
 22 23  1  0
M  END
$$$$
