SCF.pdb
     RDKit          3D

 24 24  0  0  1  0  0  0  0  0999 V2000
    8.1210  -19.2958   23.0347 O   0  0  0  0  0  0  0  0  0  0  0  0
    8.7706  -19.8424   21.9461 C   0  0  0  0  0  0  0  0  0  0  0  0
    8.5944  -18.9180   20.7605 C   0  0  2  0  0  0  0  0  0  0  0  0
    9.2121  -19.4715   19.5914 N   0  0  0  0  0  0  0  0  0  0  0  0
    9.1415  -17.5923   21.1345 C   0  0  0  0  0  0  0  0  0  0  0  0
   10.3793  -17.4318   21.0086 O   0  0  0  0  0  0  0  0  0  0  0  0
    8.3751  -16.5222   21.6128 N   0  0  0  0  0  0  0  0  0  0  0  0
    8.8678  -15.1800   21.8367 C   0  0  1  0  0  0  0  0  0  0  0  0
    7.8410  -14.1270   21.5185 C   0  0  0  0  0  0  0  0  0  0  0  0
    6.2810  -14.5558   22.3075 S   0  0  0  0  0  0  0  0  0  0  0  0
    9.2466  -15.0124   23.2678 C   0  0  0  0  0  0  0  0  0  0  0  0
    9.9197  -14.0023   23.6482 O   0  0  0  0  0  0  0  0  0  0  0  0
    8.8748  -15.9602   24.2411 N   0  0  0  0  0  0  0  0  0  0  0  0
    9.2414  -15.8166   25.6575 C   0  0  1  0  0  0  0  0  0  0  0  0
    7.9161  -15.7089   26.4060 C   0  0  0  0  0  0  0  0  0  0  0  0
    7.3535  -14.3551   26.3746 C   0  0  0  0  0  0  0  0  0  0  0  0
    6.0439  -14.1282   26.0168 C   0  0  0  0  0  0  0  0  0  0  0  0
    5.5605  -12.8307   26.0020 C   0  0  0  0  0  0  0  0  0  0  0  0
    6.3526  -11.7515   26.3359 C   0  0  0  0  0  0  0  0  0  0  0  0
    7.6582  -11.9766   26.6926 C   0  0  0  0  0  0  0  0  0  0  0  0
    8.1518  -13.2872   26.7091 C   0  0  0  0  0  0  0  0  0  0  0  0
    9.9426  -17.0480   26.0727 C   0  0  0  0  0  0  0  0  0  0  0  0
   10.4843  -17.1271   27.3387 O   0  0  0  0  0  0  0  0  0  0  0  0
   10.0813  -18.0549   25.3262 O   0  0  0  0  0  0  0  0  0  0  0  0
  1  2  1  0
  2  3  1  0
  3  5  1  0
  3  4  1  6
  5  6  2  0
  7  8  1  0
  7  5  1  0
  8 11  1  0
  9 10  1  0
  8  9  1  1
 11 12  2  0
 11 13  1  0
 13 14  1  0
 14 22  1  0
 14 15  1  1
 16 15  1  0
 16 17  2  0
 18 17  1  0
 19 18  2  0
 20 21  2  0
 20 19  1  0
 21 16  1  0
 22 24  2  0
 22 23  1  0
M  END
$$$$
