SCF.pdb
     RDKit          3D

 24 24  0  0  1  0  0  0  0  0999 V2000
    9.0531  -12.3293   20.6341 O   0  0  0  0  0  0  0  0  0  0  0  0
    8.1547  -12.5338   19.6061 C   0  0  0  0  0  0  0  0  0  0  0  0
    8.2248  -13.9848   19.1807 C   0  0  2  0  0  0  0  0  0  0  0  0
    7.4338  -14.2063   18.0060 N   0  0  0  0  0  0  0  0  0  0  0  0
    7.8002  -14.8154   20.3323 C   0  0  0  0  0  0  0  0  0  0  0  0
    6.5695  -15.0206   20.4625 O   0  0  0  0  0  0  0  0  0  0  0  0
    8.6735  -15.3781   21.2716 N   0  0  0  0  0  0  0  0  0  0  0  0
    8.2743  -16.2156   22.3822 C   0  0  1  0  0  0  0  0  0  0  0  0
    8.5650  -17.6722   22.1413 C   0  0  0  0  0  0  0  0  0  0  0  0
   10.3114  -17.8773   21.7562 S   0  0  0  0  0  0  0  0  0  0  0  0
    9.0142  -15.8127   23.6110 C   0  0  0  0  0  0  0  0  0  0  0  0
   10.1991  -15.3562   23.5362 O   0  0  0  0  0  0  0  0  0  0  0  0
    8.4306  -15.9229   24.8882 N   0  0  0  0  0  0  0  0  0  0  0  0
    9.1140  -15.4636   26.1062 C   0  0  1  0  0  0  0  0  0  0  0  0
    8.0042  -14.9523   27.0201 C   0  0  0  0  0  0  0  0  0  0  0  0
    7.3737  -13.7271   26.5187 C   0  0  0  0  0  0  0  0  0  0  0  0
    6.1201  -13.7435   25.9505 C   0  0  0  0  0  0  0  0  0  0  0  0
    5.5686  -12.5593   25.4913 C   0  0  0  0  0  0  0  0  0  0  0  0
    6.2379  -11.3564   25.5849 C   0  0  0  0  0  0  0  0  0  0  0  0
    7.4875  -11.3389   26.1511 C   0  0  0  0  0  0  0  0  0  0  0  0
    8.0496  -12.5341   26.6170 C   0  0  0  0  0  0  0  0  0  0  0  0
    9.7660  -16.6324   26.7299 C   0  0  0  0  0  0  0  0  0  0  0  0
    9.5177  -17.8945   26.2323 O   0  0  0  0  0  0  0  0  0  0  0  0
   10.5535  -16.5481   27.7114 O   0  0  0  0  0  0  0  0  0  0  0  0
  1  2  1  0
  2  3  1  0
  3  5  1  0
  3  4  1  6
  5  6  2  0
  7  8  1  0
  7  5  1  0
  8 11  1  0
  9 10  1  0
  8  9  1  6
 11 12  2  0
 11 13  1  0
 13 14  1  0
 14 22  1  0
 14 15  1  1
 16 15  1  0
 16 17  2  0
 18 17  1  0
 19 18  2  0
 20 21  2  0
 20 19  1  0
 21 16  1  0
 22 24  2  0
 22 23  1  0
M  END
$$$$
