SCF.pdb
     RDKit          3D

 24 24  0  0  1  0  0  0  0  0999 V2000
   10.0796  -17.3579   19.7543 O   0  0  0  0  0  0  0  0  0  0  0  0
    9.1740  -17.2616   18.7167 C   0  0  0  0  0  0  0  0  0  0  0  0
    7.9096  -17.9974   19.1052 C   0  0  2  0  0  0  0  0  0  0  0  0
    6.9539  -17.9594   18.0376 N   0  0  0  0  0  0  0  0  0  0  0  0
    7.4025  -17.3949   20.3608 C   0  0  0  0  0  0  0  0  0  0  0  0
    6.5734  -16.4600   20.2486 O   0  0  0  0  0  0  0  0  0  0  0  0
    7.7846  -17.7972   21.6467 N   0  0  0  0  0  0  0  0  0  0  0  0
    7.2513  -17.2597   22.8800 C   0  0  1  0  0  0  0  0  0  0  0  0
    6.2891  -18.2014   23.5522 C   0  0  0  0  0  0  0  0  0  0  0  0
    7.1559  -19.7081   24.0197 S   0  0  0  0  0  0  0  0  0  0  0  0
    8.3607  -16.9989   23.8396 C   0  0  0  0  0  0  0  0  0  0  0  0
    9.4249  -17.6949   23.8079 O   0  0  0  0  0  0  0  0  0  0  0  0
    8.2692  -15.9797   24.8076 N   0  0  0  0  0  0  0  0  0  0  0  0
    9.3529  -15.7033   25.7617 C   0  0  1  0  0  0  0  0  0  0  0  0
    9.5088  -14.1854   25.7627 C   0  0  0  0  0  0  0  0  0  0  0  0
    8.2708  -13.4866   26.1219 C   0  0  0  0  0  0  0  0  0  0  0  0
    8.0642  -12.9947   27.3907 C   0  0  0  0  0  0  0  0  0  0  0  0
    6.8773  -12.3429   27.6801 C   0  0  0  0  0  0  0  0  0  0  0  0
    5.8890  -12.1691   26.7331 C   0  0  0  0  0  0  0  0  0  0  0  0
    6.0938  -12.6591   25.4680 C   0  0  0  0  0  0  0  0  0  0  0  0
    7.2927  -13.3192   25.1705 C   0  0  0  0  0  0  0  0  0  0  0  0
    8.9096  -16.1535   27.0962 C   0  0  0  0  0  0  0  0  0  0  0  0
    9.7693  -16.0465   28.1694 O   0  0  0  0  0  0  0  0  0  0  0  0
    7.7687  -16.6413   27.3224 O   0  0  0  0  0  0  0  0  0  0  0  0
  1  2  1  0
  2  3  1  0
  3  5  1  0
  3  4  1  6
  5  6  2  0
  7  8  1  0
  7  5  1  0
  8 11  1  0
  9 10  1  0
  8  9  1  1
 11 12  2  0
 11 13  1  0
 13 14  1  0
 14 22  1  0
 14 15  1  1
 16 15  1  0
 16 17  2  0
 18 17  1  0
 19 18  2  0
 20 21  2  0
 20 19  1  0
 21 16  1  0
 22 24  2  0
 22 23  1  0
M  END
$$$$
