SCF.pdb
     RDKit          3D

 24 24  0  0  1  0  0  0  0  0999 V2000
    8.8730  -12.0856   19.3762 O   0  0  0  0  0  0  0  0  0  0  0  0
    9.7751  -13.0754   19.0410 C   0  0  0  0  0  0  0  0  0  0  0  0
    9.0141  -14.2553   18.4753 C   0  0  2  0  0  0  0  0  0  0  0  0
    8.2120  -13.8513   17.3581 N   0  0  0  0  0  0  0  0  0  0  0  0
    8.2199  -14.8515   19.5755 C   0  0  0  0  0  0  0  0  0  0  0  0
    7.0059  -15.0700   19.3468 O   0  0  0  0  0  0  0  0  0  0  0  0
    8.7313  -15.1820   20.8366 N   0  0  0  0  0  0  0  0  0  0  0  0
    8.0399  -15.9686   21.8354 C   0  0  1  0  0  0  0  0  0  0  0  0
    7.9443  -17.4229   21.4612 C   0  0  0  0  0  0  0  0  0  0  0  0
    9.5787  -18.1718   21.5517 S   0  0  0  0  0  0  0  0  0  0  0  0
    8.7675  -15.8910   23.1332 C   0  0  0  0  0  0  0  0  0  0  0  0
   10.0299  -15.7380   23.1626 O   0  0  0  0  0  0  0  0  0  0  0  0
    8.0868  -15.9840   24.3628 N   0  0  0  0  0  0  0  0  0  0  0  0
    8.7625  -15.7779   25.6520 C   0  0  1  0  0  0  0  0  0  0  0  0
    7.6571  -15.3777   26.6248 C   0  0  0  0  0  0  0  0  0  0  0  0
    7.2057  -13.9955   26.4354 C   0  0  0  0  0  0  0  0  0  0  0  0
    5.8742  -13.6900   26.2671 C   0  0  0  0  0  0  0  0  0  0  0  0
    5.4990  -12.3688   26.0910 C   0  0  0  0  0  0  0  0  0  0  0  0
    6.4210  -11.3424   26.0786 C   0  0  0  0  0  0  0  0  0  0  0  0
    7.7485  -11.6458   26.2462 C   0  0  0  0  0  0  0  0  0  0  0  0
    8.1329  -12.9807   26.4246 C   0  0  0  0  0  0  0  0  0  0  0  0
    9.3443  -17.0684   26.0718 C   0  0  0  0  0  0  0  0  0  0  0  0
   10.2406  -17.1007   27.1196 O   0  0  0  0  0  0  0  0  0  0  0  0
    9.0677  -18.1684   25.5204 O   0  0  0  0  0  0  0  0  0  0  0  0
  1  2  1  0
  2  3  1  0
  3  5  1  0
  3  4  1  6
  5  6  2  0
  7  8  1  0
  7  5  1  0
  8 11  1  0
  9 10  1  0
  8  9  1  6
 11 12  2  0
 11 13  1  0
 13 14  1  0
 14 22  1  0
 14 15  1  1
 16 15  1  0
 16 17  2  0
 18 17  1  0
 19 18  2  0
 20 21  2  0
 20 19  1  0
 21 16  1  0
 22 24  2  0
 22 23  1  0
M  END
$$$$
