PGA.pdb
     RDKit          3D

 17 17  0  0  1  0  0  0  0  0999 V2000
    7.3830  -15.1069   22.9364 N   0  0  0  0  0  0  0  0  0  0  0  0
    6.9349  -13.7708   22.5985 C   0  0  0  0  0  0  0  0  0  0  0  0
    7.8327  -13.2847   21.4857 C   0  0  0  0  0  0  0  0  0  0  0  0
    8.1951  -14.5477   20.7768 C   0  0  0  0  0  0  0  0  0  0  0  0
    8.1498  -15.6025   21.8398 C   0  0  1  0  0  0  0  0  0  0  0  0
    9.5501  -15.8683   22.3022 C   0  0  0  0  0  0  0  0  0  0  0  0
   10.4196  -16.2788   21.4936 O   0  0  0  0  0  0  0  0  0  0  0  0
    9.9260  -15.6635   23.6582 N   0  0  0  0  0  0  0  0  0  0  0  0
   11.2545  -15.9633   24.1515 C   0  0  0  0  0  0  0  0  0  0  0  0
   11.3926  -15.6558   25.5975 C   0  0  0  0  0  0  0  0  0  0  0  0
   12.4332  -15.9458   26.2558 O   0  0  0  0  0  0  0  0  0  0  0  0
    9.2135  -13.7073   27.9053 C   0  0  0  0  0  0  0  0  0  0  0  0
   10.3831  -14.6435   27.6287 C   0  0  2  0  0  0  0  0  0  0  0  0
   10.2989  -15.0133   26.2320 N   0  0  0  0  0  0  0  0  0  0  0  0
   10.2053  -15.8558   28.4561 C   0  0  0  0  0  0  0  0  0  0  0  0
    9.7125  -16.9203   27.9759 O   0  0  0  0  0  0  0  0  0  0  0  0
   10.5717  -15.8711   29.7882 O   0  0  0  0  0  0  0  0  0  0  0  0
  1  2  1  0
  1  5  1  0
  2  3  1  0
  3  4  1  0
  5  6  1  1
  5  4  1  0
  6  7  2  0
  8  9  1  0
  8  6  1  0
  9 10  1  0
 10 14  1  0
 11 10  2  0
 13 12  1  1
 14 13  1  0
 15 13  1  0
 16 15  2  0
 17 15  1  0
M  END
$$$$
