PGA.pdb
     RDKit          3D

 17 17  0  0  1  0  0  0  0  0999 V2000
    9.1589  -13.7205   19.7631 N   0  0  0  0  0  0  0  0  0  0  0  0
    8.6943  -14.4378   18.5926 C   0  0  0  0  0  0  0  0  0  0  0  0
    7.3163  -14.9578   18.9259 C   0  0  0  0  0  0  0  0  0  0  0  0
    6.7974  -13.9333   19.8799 C   0  0  0  0  0  0  0  0  0  0  0  0
    8.0203  -13.3991   20.5608 C   0  0  1  0  0  0  0  0  0  0  0  0
    8.1511  -14.0712   21.8937 C   0  0  0  0  0  0  0  0  0  0  0  0
    7.1272  -14.3891   22.5486 O   0  0  0  0  0  0  0  0  0  0  0  0
    9.4286  -14.3633   22.4456 N   0  0  0  0  0  0  0  0  0  0  0  0
    9.5975  -14.8704   23.7919 C   0  0  0  0  0  0  0  0  0  0  0  0
   10.1419  -16.2517   23.8009 C   0  0  0  0  0  0  0  0  0  0  0  0
   10.3225  -16.9022   24.8708 O   0  0  0  0  0  0  0  0  0  0  0  0
   10.5765  -18.7402   21.1217 C   0  0  0  0  0  0  0  0  0  0  0  0
   10.9796  -18.1816   22.4806 C   0  0  2  0  0  0  0  0  0  0  0  0
   10.4602  -16.8324   22.5467 N   0  0  0  0  0  0  0  0  0  0  0  0
   12.4562  -18.1290   22.5345 C   0  0  0  0  0  0  0  0  0  0  0  0
   13.0863  -17.0370   22.4037 O   0  0  0  0  0  0  0  0  0  0  0  0
   13.2047  -19.2737   22.7303 O   0  0  0  0  0  0  0  0  0  0  0  0
  1  2  1  0
  1  5  1  0
  2  3  1  0
  3  4  1  0
  5  6  1  1
  5  4  1  0
  6  7  2  0
  8  9  1  0
  8  6  1  0
  9 10  1  0
 10 14  1  0
 11 10  2  0
 13 12  1  6
 14 13  1  0
 15 13  1  0
 16 15  2  0
 17 15  1  0
M  END
$$$$
