PGA.pdb
     RDKit          3D

 17 17  0  0  1  0  0  0  0  0999 V2000
    8.6836  -14.4214   19.9303 N   0  0  0  0  0  0  0  0  0  0  0  0
    7.4992  -13.7033   19.5038 C   0  0  0  0  0  0  0  0  0  0  0  0
    6.7947  -13.2511   20.7607 C   0  0  0  0  0  0  0  0  0  0  0  0
    7.9210  -13.0647   21.7229 C   0  0  0  0  0  0  0  0  0  0  0  0
    8.9624  -14.0456   21.2783 C   0  0  1  0  0  0  0  0  0  0  0  0
    8.8733  -15.2590   22.1531 C   0  0  0  0  0  0  0  0  0  0  0  0
    8.3972  -16.3319   21.7055 O   0  0  0  0  0  0  0  0  0  0  0  0
    9.3225  -15.2254   23.5018 N   0  0  0  0  0  0  0  0  0  0  0  0
   10.2952  -16.1641   24.0220 C   0  0  0  0  0  0  0  0  0  0  0  0
   10.6164  -15.8988   25.4470 C   0  0  0  0  0  0  0  0  0  0  0  0
   11.5100  -16.5406   26.0714 O   0  0  0  0  0  0  0  0  0  0  0  0
    9.2899  -13.3295   27.8133 C   0  0  0  0  0  0  0  0  0  0  0  0
   10.2542  -14.4440   27.4275 C   0  0  2  0  0  0  0  0  0  0  0  0
    9.8748  -14.8821   26.1013 N   0  0  0  0  0  0  0  0  0  0  0  0
   10.0630  -15.5635   28.3742 C   0  0  0  0  0  0  0  0  0  0  0  0
   10.5487  -15.5328   29.5446 O   0  0  0  0  0  0  0  0  0  0  0  0
    9.3449  -16.6878   28.0147 O   0  0  0  0  0  0  0  0  0  0  0  0
  1  2  1  0
  1  5  1  0
  2  3  1  0
  3  4  1  0
  5  6  1  1
  5  4  1  0
  6  7  2  0
  8  9  1  0
  8  6  1  0
  9 10  1  0
 10 14  1  0
 11 10  2  0
 13 12  1  1
 14 13  1  0
 15 13  1  0
 16 15  2  0
 17 15  1  0
M  END
$$$$
