PGA.pdb
     RDKit          3D

 17 17  0  0  1  0  0  0  0  0999 V2000
    7.3168  -14.8617   20.5619 N   0  0  0  0  0  0  0  0  0  0  0  0
    6.4337  -13.7393   20.3157 C   0  0  0  0  0  0  0  0  0  0  0  0
    7.2320  -12.4915   20.6095 C   0  0  0  0  0  0  0  0  0  0  0  0
    8.6267  -12.9032   20.2712 C   0  0  0  0  0  0  0  0  0  0  0  0
    8.6588  -14.3775   20.5358 C   0  0  1  0  0  0  0  0  0  0  0  0
    9.2869  -14.6036   21.8773 C   0  0  0  0  0  0  0  0  0  0  0  0
   10.4743  -14.2532   22.0906 O   0  0  0  0  0  0  0  0  0  0  0  0
    8.5589  -15.2161   22.9342 N   0  0  0  0  0  0  0  0  0  0  0  0
    9.1787  -15.6009   24.1855 C   0  0  0  0  0  0  0  0  0  0  0  0
    8.8369  -14.6645   25.2858 C   0  0  0  0  0  0  0  0  0  0  0  0
    9.2489  -14.8310   26.4702 O   0  0  0  0  0  0  0  0  0  0  0  0
    7.1963  -11.3534   25.3737 C   0  0  0  0  0  0  0  0  0  0  0  0
    7.4937  -12.7049   26.0108 C   0  0  2  0  0  0  0  0  0  0  0  0
    8.0169  -13.5536   24.9617 N   0  0  0  0  0  0  0  0  0  0  0  0
    6.2179  -13.2739   26.4950 C   0  0  0  0  0  0  0  0  0  0  0  0
    5.6614  -14.2496   25.9076 O   0  0  0  0  0  0  0  0  0  0  0  0
    5.5843  -12.7598   27.6100 O   0  0  0  0  0  0  0  0  0  0  0  0
  1  2  1  0
  1  5  1  0
  2  3  1  0
  3  4  1  0
  5  6  1  1
  5  4  1  0
  6  7  2  0
  8  9  1  0
  8  6  1  0
  9 10  1  0
 10 14  1  0
 11 10  2  0
 13 12  1  6
 14 13  1  0
 15 13  1  0
 16 15  2  0
 17 15  1  0
M  END
$$$$
