PGA.pdb
     RDKit          3D

 17 17  0  0  1  0  0  0  0  0999 V2000
    7.5870  -16.2903   21.4633 N   0  0  0  0  0  0  0  0  0  0  0  0
    6.3326  -15.5939   21.6676 C   0  0  0  0  0  0  0  0  0  0  0  0
    6.6467  -14.3805   22.5099 C   0  0  0  0  0  0  0  0  0  0  0  0
    8.0472  -14.0528   22.1095 C   0  0  0  0  0  0  0  0  0  0  0  0
    8.6464  -15.3704   21.7230 C   0  0  1  0  0  0  0  0  0  0  0  0
    9.4616  -15.8752   22.8746 C   0  0  0  0  0  0  0  0  0  0  0  0
    9.1083  -16.9056   23.5004 O   0  0  0  0  0  0  0  0  0  0  0  0
   10.6467  -15.2045   23.2839 N   0  0  0  0  0  0  0  0  0  0  0  0
   11.6843  -15.8580   24.0550 C   0  0  0  0  0  0  0  0  0  0  0  0
   11.5347  -15.6087   25.5110 C   0  0  0  0  0  0  0  0  0  0  0  0
   12.3407  -16.0783   26.3655 O   0  0  0  0  0  0  0  0  0  0  0  0
    9.2156  -13.3596   27.3679 C   0  0  0  0  0  0  0  0  0  0  0  0
   10.2925  -14.4359   27.3141 C   0  0  2  0  0  0  0  0  0  0  0  0
   10.4371  -14.8109   25.9238 N   0  0  0  0  0  0  0  0  0  0  0  0
    9.8092  -15.6062   28.0775 C   0  0  0  0  0  0  0  0  0  0  0  0
    9.2882  -16.6065   27.4991 O   0  0  0  0  0  0  0  0  0  0  0  0
    9.9089  -15.6509   29.4548 O   0  0  0  0  0  0  0  0  0  0  0  0
  1  2  1  0
  1  5  1  0
  2  3  1  0
  3  4  1  0
  5  6  1  1
  5  4  1  0
  6  7  2  0
  8  9  1  0
  8  6  1  0
  9 10  1  0
 10 14  1  0
 11 10  2  0
 13 12  1  6
 14 13  1  0
 15 13  1  0
 16 15  2  0
 17 15  1  0
M  END
$$$$
