PGA.pdb
     RDKit          3D

 17 17  0  0  1  0  0  0  0  0999 V2000
    6.3309  -19.1839   21.3015 N   0  0  0  0  0  0  0  0  0  0  0  0
    5.5661  -18.9146   20.1004 C   0  0  0  0  0  0  0  0  0  0  0  0
    6.1057  -17.6260   19.5270 C   0  0  0  0  0  0  0  0  0  0  0  0
    7.5369  -17.6482   19.9515 C   0  0  0  0  0  0  0  0  0  0  0  0
    7.5380  -18.4263   21.2318 C   0  0  1  0  0  0  0  0  0  0  0  0
    7.5743  -17.4571   22.3740 C   0  0  0  0  0  0  0  0  0  0  0  0
    8.5924  -16.7492   22.5751 O   0  0  0  0  0  0  0  0  0  0  0  0
    6.4646  -17.3164   23.2520 N   0  0  0  0  0  0  0  0  0  0  0  0
    6.4353  -16.3370   24.3188 C   0  0  0  0  0  0  0  0  0  0  0  0
    6.9075  -16.9045   25.6070 C   0  0  0  0  0  0  0  0  0  0  0  0
    6.8819  -16.2469   26.6873 O   0  0  0  0  0  0  0  0  0  0  0  0
    7.4474  -20.2897   26.7972 C   0  0  0  0  0  0  0  0  0  0  0  0
    7.9095  -18.8380   26.8016 C   0  0  2  0  0  0  0  0  0  0  0  0
    7.3987  -18.2349   25.5892 N   0  0  0  0  0  0  0  0  0  0  0  0
    9.3872  -18.8274   26.7554 C   0  0  0  0  0  0  0  0  0  0  0  0
   10.0845  -19.2210   27.7380 O   0  0  0  0  0  0  0  0  0  0  0  0
   10.0634  -18.3860   25.6343 O   0  0  0  0  0  0  0  0  0  0  0  0
  1  2  1  0
  1  5  1  0
  2  3  1  0
  3  4  1  0
  5  6  1  1
  5  4  1  0
  6  7  2  0
  8  9  1  0
  8  6  1  0
  9 10  1  0
 10 14  1  0
 11 10  2  0
 13 12  1  6
 14 13  1  0
 15 13  1  0
 16 15  2  0
 17 15  1  0
M  END
$$$$
