PGA.pdb
     RDKit          3D

 17 17  0  0  1  0  0  0  0  0999 V2000
    9.2577  -13.6536   18.4730 N   0  0  0  0  0  0  0  0  0  0  0  0
    8.2900  -13.8819   17.4187 C   0  0  0  0  0  0  0  0  0  0  0  0
    6.9518  -14.0619   18.0949 C   0  0  0  0  0  0  0  0  0  0  0  0
    7.0830  -13.2173   19.3191 C   0  0  0  0  0  0  0  0  0  0  0  0
    8.5461  -13.2440   19.6400 C   0  0  1  0  0  0  0  0  0  0  0  0
    8.7730  -14.2478   20.7292 C   0  0  0  0  0  0  0  0  0  0  0  0
    9.7614  -15.0220   20.6845 O   0  0  0  0  0  0  0  0  0  0  0  0
    7.8811  -14.3476   21.8321 N   0  0  0  0  0  0  0  0  0  0  0  0
    8.3418  -14.3875   23.2047 C   0  0  0  0  0  0  0  0  0  0  0  0
    8.9799  -15.6857   23.5391 C   0  0  0  0  0  0  0  0  0  0  0  0
    8.7391  -16.3016   24.6175 O   0  0  0  0  0  0  0  0  0  0  0  0
   11.1369  -17.9469   21.5147 C   0  0  0  0  0  0  0  0  0  0  0  0
   10.5115  -17.5094   22.8333 C   0  0  2  0  0  0  0  0  0  0  0  0
    9.8871  -16.2262   22.5923 N   0  0  0  0  0  0  0  0  0  0  0  0
   11.5983  -17.3348   23.8203 C   0  0  0  0  0  0  0  0  0  0  0  0
   11.9285  -18.2654   24.6151 O   0  0  0  0  0  0  0  0  0  0  0  0
   12.2958  -16.1456   23.9115 O   0  0  0  0  0  0  0  0  0  0  0  0
  1  2  1  0
  1  5  1  0
  2  3  1  0
  3  4  1  0
  5  6  1  1
  5  4  1  0
  6  7  2  0
  8  9  1  0
  8  6  1  0
  9 10  1  0
 10 14  1  0
 11 10  2  0
 13 12  1  6
 14 13  1  0
 15 13  1  0
 16 15  2  0
 17 15  1  0
M  END
$$$$
