PGA.pdb
     RDKit          3D

 17 17  0  0  1  0  0  0  0  0999 V2000
    8.4961  -15.2513   19.5432 N   0  0  0  0  0  0  0  0  0  0  0  0
    7.6028  -14.9945   18.4313 C   0  0  0  0  0  0  0  0  0  0  0  0
    6.9252  -13.6761   18.7199 C   0  0  0  0  0  0  0  0  0  0  0  0
    7.9559  -12.9399   19.5103 C   0  0  0  0  0  0  0  0  0  0  0  0
    8.7289  -14.0134   20.2135 C   0  0  1  0  0  0  0  0  0  0  0  0
    8.2232  -14.1159   21.6204 C   0  0  0  0  0  0  0  0  0  0  0  0
    8.1900  -13.1007   22.3596 O   0  0  0  0  0  0  0  0  0  0  0  0
    7.7718  -15.3564   22.1489 N   0  0  0  0  0  0  0  0  0  0  0  0
    7.2528  -15.4864   23.4949 C   0  0  0  0  0  0  0  0  0  0  0  0
    8.0822  -14.7521   24.4834 C   0  0  0  0  0  0  0  0  0  0  0  0
    9.3453  -14.7223   24.4197 O   0  0  0  0  0  0  0  0  0  0  0  0
    7.1339  -12.3631   27.1665 C   0  0  0  0  0  0  0  0  0  0  0  0
    8.1419  -13.2771   26.4810 C   0  0  2  0  0  0  0  0  0  0  0  0
    7.4008  -14.0703   25.5238 N   0  0  0  0  0  0  0  0  0  0  0  0
    8.7158  -14.1759   27.5051 C   0  0  0  0  0  0  0  0  0  0  0  0
    9.4689  -13.7376   28.4256 O   0  0  0  0  0  0  0  0  0  0  0  0
    8.4502  -15.5318   27.4947 O   0  0  0  0  0  0  0  0  0  0  0  0
  1  2  1  0
  1  5  1  0
  2  3  1  0
  3  4  1  0
  5  6  1  1
  5  4  1  0
  6  7  2  0
  8  9  1  0
  8  6  1  0
  9 10  1  0
 10 14  1  0
 11 10  2  0
 13 12  1  1
 14 13  1  0
 15 13  1  0
 16 15  2  0
 17 15  1  0
M  END
$$$$
