PGA.pdb
     RDKit          3D

 17 17  0  0  1  0  0  0  0  0999 V2000
    7.4113  -15.2441   22.6541 N   0  0  0  0  0  0  0  0  0  0  0  0
    6.9054  -13.9346   22.2942 C   0  0  0  0  0  0  0  0  0  0  0  0
    7.8057  -13.4115   21.2005 C   0  0  0  0  0  0  0  0  0  0  0  0
    8.2491  -14.6595   20.5113 C   0  0  0  0  0  0  0  0  0  0  0  0
    8.2297  -15.7079   21.5813 C   0  0  1  0  0  0  0  0  0  0  0  0
    9.6294  -15.8995   22.0809 C   0  0  0  0  0  0  0  0  0  0  0  0
   10.5405  -16.2631   21.2962 O   0  0  0  0  0  0  0  0  0  0  0  0
    9.9578  -15.6757   23.4462 N   0  0  0  0  0  0  0  0  0  0  0  0
   11.2858  -15.9086   23.9758 C   0  0  0  0  0  0  0  0  0  0  0  0
   11.3991  -15.4893   25.3955 C   0  0  0  0  0  0  0  0  0  0  0  0
   12.4358  -15.7087   26.0865 O   0  0  0  0  0  0  0  0  0  0  0  0
    9.2093  -13.3624   27.5145 C   0  0  0  0  0  0  0  0  0  0  0  0
   10.3292  -14.3812   27.3441 C   0  0  2  0  0  0  0  0  0  0  0  0
   10.2858  -14.8210   25.9660 N   0  0  0  0  0  0  0  0  0  0  0  0
   10.0379  -15.5336   28.2235 C   0  0  0  0  0  0  0  0  0  0  0  0
    9.5656  -16.6162   27.7636 O   0  0  0  0  0  0  0  0  0  0  0  0
   10.2712  -15.4706   29.5838 O   0  0  0  0  0  0  0  0  0  0  0  0
  1  2  1  0
  1  5  1  0
  2  3  1  0
  3  4  1  0
  5  6  1  1
  5  4  1  0
  6  7  2  0
  8  9  1  0
  8  6  1  0
  9 10  1  0
 10 14  1  0
 11 10  2  0
 13 12  1  6
 14 13  1  0
 15 13  1  0
 16 15  2  0
 17 15  1  0
M  END
$$$$
