PGA.pdb
     RDKit          3D

 17 17  0  0  1  0  0  0  0  0999 V2000
    7.9442  -14.9884   18.9090 N   0  0  0  0  0  0  0  0  0  0  0  0
    6.8164  -14.1450   19.2506 C   0  0  0  0  0  0  0  0  0  0  0  0
    7.3783  -12.9549   19.9914 C   0  0  0  0  0  0  0  0  0  0  0  0
    8.7378  -12.8040   19.3930 C   0  0  0  0  0  0  0  0  0  0  0  0
    9.1259  -14.1923   18.9851 C   0  0  1  0  0  0  0  0  0  0  0  0
   10.0307  -14.7586   20.0368 C   0  0  0  0  0  0  0  0  0  0  0  0
   11.1240  -14.2000   20.3029 O   0  0  0  0  0  0  0  0  0  0  0  0
    9.6760  -15.9340   20.7541 N   0  0  0  0  0  0  0  0  0  0  0  0
   10.6183  -16.6513   21.5881 C   0  0  0  0  0  0  0  0  0  0  0  0
   10.5347  -16.2303   23.0094 C   0  0  0  0  0  0  0  0  0  0  0  0
   11.3949  -16.5756   23.8704 O   0  0  0  0  0  0  0  0  0  0  0  0
    8.0321  -14.1201   24.8090 C   0  0  0  0  0  0  0  0  0  0  0  0
    9.2214  -15.0715   24.7706 C   0  0  2  0  0  0  0  0  0  0  0  0
    9.4376  -15.4118   23.3806 N   0  0  0  0  0  0  0  0  0  0  0  0
    8.8523  -16.2966   25.5114 C   0  0  0  0  0  0  0  0  0  0  0  0
    8.1929  -17.2300   24.9631 O   0  0  0  0  0  0  0  0  0  0  0  0
    9.2147  -16.4680   26.8335 O   0  0  0  0  0  0  0  0  0  0  0  0
  1  2  1  0
  1  5  1  0
  2  3  1  0
  3  4  1  0
  5  6  1  1
  5  4  1  0
  6  7  2  0
  8  9  1  0
  8  6  1  0
  9 10  1  0
 10 14  1  0
 11 10  2  0
 13 12  1  6
 14 13  1  0
 15 13  1  0
 16 15  2  0
 17 15  1  0
M  END
$$$$
