PGA.pdb
     RDKit          3D

 17 17  0  0  1  0  0  0  0  0999 V2000
    7.5301  -15.0889   20.2693 N   0  0  0  0  0  0  0  0  0  0  0  0
    6.8562  -13.8380   19.9843 C   0  0  0  0  0  0  0  0  0  0  0  0
    7.3007  -12.8589   21.0446 C   0  0  0  0  0  0  0  0  0  0  0  0
    8.6794  -13.3288   21.3724 C   0  0  0  0  0  0  0  0  0  0  0  0
    8.6468  -14.8035   21.1105 C   0  0  1  0  0  0  0  0  0  0  0  0
    8.4680  -15.5122   22.4187 C   0  0  0  0  0  0  0  0  0  0  0  0
    9.3622  -15.4568   23.2993 O   0  0  0  0  0  0  0  0  0  0  0  0
    7.2897  -16.2595   22.6928 N   0  0  0  0  0  0  0  0  0  0  0  0
    7.0675  -16.9257   23.9597 C   0  0  0  0  0  0  0  0  0  0  0  0
    6.7713  -15.9620   25.0496 C   0  0  0  0  0  0  0  0  0  0  0  0
    5.6451  -15.9132   25.6239 O   0  0  0  0  0  0  0  0  0  0  0  0
    8.9616  -13.9327   27.1817 C   0  0  0  0  0  0  0  0  0  0  0  0
    7.6056  -14.1419   26.5196 C   0  0  2  0  0  0  0  0  0  0  0  0
    7.8116  -15.0788   25.4359 N   0  0  0  0  0  0  0  0  0  0  0  0
    7.1663  -12.8475   25.9560 C   0  0  0  0  0  0  0  0  0  0  0  0
    7.3689  -12.5501   24.7406 O   0  0  0  0  0  0  0  0  0  0  0  0
    6.5165  -11.9120   26.7380 O   0  0  0  0  0  0  0  0  0  0  0  0
  1  2  1  0
  1  5  1  0
  2  3  1  0
  3  4  1  0
  5  6  1  1
  5  4  1  0
  6  7  2  0
  8  9  1  0
  8  6  1  0
  9 10  1  0
 10 14  1  0
 11 10  2  0
 13 12  1  6
 14 13  1  0
 15 13  1  0
 16 15  2  0
 17 15  1  0
M  END
$$$$
