PGA.pdb
     RDKit          3D

 17 17  0  0  1  0  0  0  0  0999 V2000
    7.2638  -14.9484   21.0148 N   0  0  0  0  0  0  0  0  0  0  0  0
    6.4576  -13.7475   21.1032 C   0  0  0  0  0  0  0  0  0  0  0  0
    7.4156  -12.6020   21.3278 C   0  0  0  0  0  0  0  0  0  0  0  0
    8.6516  -13.0616   20.6276 C   0  0  0  0  0  0  0  0  0  0  0  0
    8.6041  -14.5561   20.7219 C   0  0  1  0  0  0  0  0  0  0  0  0
    9.4970  -14.9875   21.8453 C   0  0  0  0  0  0  0  0  0  0  0  0
   10.7302  -14.7518   21.8038 O   0  0  0  0  0  0  0  0  0  0  0  0
    8.9733  -15.6696   22.9778 N   0  0  0  0  0  0  0  0  0  0  0  0
    9.8076  -16.4399   23.8771 C   0  0  0  0  0  0  0  0  0  0  0  0
   10.2350  -15.6451   25.0561 C   0  0  0  0  0  0  0  0  0  0  0  0
   11.4227  -15.6629   25.4913 O   0  0  0  0  0  0  0  0  0  0  0  0
    8.4222  -13.1487   27.1462 C   0  0  0  0  0  0  0  0  0  0  0  0
    9.5772  -14.1098   26.8945 C   0  0  2  0  0  0  0  0  0  0  0  0
    9.2501  -14.8480   25.6934 N   0  0  0  0  0  0  0  0  0  0  0  0
    9.6452  -15.0522   28.0317 C   0  0  0  0  0  0  0  0  0  0  0  0
    9.1467  -16.2154   27.9600 O   0  0  0  0  0  0  0  0  0  0  0  0
   10.2574  -14.6965   29.2181 O   0  0  0  0  0  0  0  0  0  0  0  0
  1  2  1  0
  1  5  1  0
  2  3  1  0
  3  4  1  0
  5  6  1  1
  5  4  1  0
  6  7  2  0
  8  9  1  0
  8  6  1  0
  9 10  1  0
 10 14  1  0
 11 10  2  0
 13 12  1  1
 14 13  1  0
 15 13  1  0
 16 15  2  0
 17 15  1  0
M  END
$$$$
