PGA.pdb
     RDKit          3D

 17 17  0  0  1  0  0  0  0  0999 V2000
    8.2314  -15.3596   20.3364 N   0  0  0  0  0  0  0  0  0  0  0  0
    7.2625  -14.8734   19.3746 C   0  0  0  0  0  0  0  0  0  0  0  0
    7.0702  -13.4037   19.6635 C   0  0  0  0  0  0  0  0  0  0  0  0
    8.4008  -12.9954   20.2039 C   0  0  0  0  0  0  0  0  0  0  0  0
    8.9398  -14.2336   20.8525 C   0  0  1  0  0  0  0  0  0  0  0  0
    8.6983  -14.1378   22.3283 C   0  0  0  0  0  0  0  0  0  0  0  0
    9.1329  -13.1565   22.9813 O   0  0  0  0  0  0  0  0  0  0  0  0
    7.9763  -15.1485   23.0204 N   0  0  0  0  0  0  0  0  0  0  0  0
    7.6667  -15.0557   24.4324 C   0  0  0  0  0  0  0  0  0  0  0  0
    8.8899  -15.0936   25.2729 C   0  0  0  0  0  0  0  0  0  0  0  0
    9.9926  -15.5426   24.8454 O   0  0  0  0  0  0  0  0  0  0  0  0
    9.6305  -13.5288   28.5519 C   0  0  0  0  0  0  0  0  0  0  0  0
    9.9555  -14.5210   27.4423 C   0  0  2  0  0  0  0  0  0  0  0  0
    8.7824  -14.6005   26.5984 N   0  0  0  0  0  0  0  0  0  0  0  0
   10.1887  -15.8424   28.0631 C   0  0  0  0  0  0  0  0  0  0  0  0
    9.3055  -16.7513   28.0402 O   0  0  0  0  0  0  0  0  0  0  0  0
   11.3832  -16.1345   28.6930 O   0  0  0  0  0  0  0  0  0  0  0  0
  1  2  1  0
  1  5  1  0
  2  3  1  0
  3  4  1  0
  5  6  1  1
  5  4  1  0
  6  7  2  0
  8  9  1  0
  8  6  1  0
  9 10  1  0
 10 14  1  0
 11 10  2  0
 13 12  1  1
 14 13  1  0
 15 13  1  0
 16 15  2  0
 17 15  1  0
M  END
$$$$
