PGA.pdb
     RDKit          3D

 17 17  0  0  1  0  0  0  0  0999 V2000
    8.2158  -15.2920   20.0861 N   0  0  0  0  0  0  0  0  0  0  0  0
    7.1418  -14.8792   19.2050 C   0  0  0  0  0  0  0  0  0  0  0  0
    6.7765  -13.4692   19.6037 C   0  0  0  0  0  0  0  0  0  0  0  0
    8.0700  -12.9226   20.1107 C   0  0  0  0  0  0  0  0  0  0  0  0
    8.7991  -14.1166   20.6468 C   0  0  1  0  0  0  0  0  0  0  0  0
    8.6269  -14.1469   22.1350 C   0  0  0  0  0  0  0  0  0  0  0  0
    8.9474  -13.1524   22.8325 O   0  0  0  0  0  0  0  0  0  0  0  0
    8.1001  -15.2943   22.7892 N   0  0  0  0  0  0  0  0  0  0  0  0
    7.7236  -15.2888   24.1878 C   0  0  0  0  0  0  0  0  0  0  0  0
    8.8897  -15.0529   25.0761 C   0  0  0  0  0  0  0  0  0  0  0  0
   10.0823  -15.1049   24.6573 O   0  0  0  0  0  0  0  0  0  0  0  0
    9.1648  -13.4282   28.3377 C   0  0  0  0  0  0  0  0  0  0  0  0
    9.7051  -14.4477   27.3429 C   0  0  2  0  0  0  0  0  0  0  0  0
    8.6203  -14.7613   26.4377 N   0  0  0  0  0  0  0  0  0  0  0  0
   10.0716  -15.6687   28.0917 C   0  0  0  0  0  0  0  0  0  0  0  0
    9.3411  -16.7044   28.0704 O   0  0  0  0  0  0  0  0  0  0  0  0
   11.2288  -15.7242   28.8445 O   0  0  0  0  0  0  0  0  0  0  0  0
  1  2  1  0
  1  5  1  0
  2  3  1  0
  3  4  1  0
  5  6  1  1
  5  4  1  0
  6  7  2  0
  8  9  1  0
  8  6  1  0
  9 10  1  0
 10 14  1  0
 11 10  2  0
 13 12  1  1
 14 13  1  0
 15 13  1  0
 16 15  2  0
 17 15  1  0
M  END
$$$$
