LCY.pdb
     RDKit          3D

 27 27  0  0  1  0  0  0  0  0999 V2000
    7.0251  -11.8509   20.6136 C   0  0  0  0  0  0  0  0  0  0  0  0
    7.5705  -13.1663   20.1694 C   0  0  1  0  0  0  0  0  0  0  0  0
    8.9275  -12.9148   19.5212 C   0  0  0  0  0  0  0  0  0  0  0  0
    7.7244  -14.0998   21.3178 C   0  0  0  0  0  0  0  0  0  0  0  0
    8.3441  -15.4333   20.9727 C   0  0  2  0  0  0  0  0  0  0  0  0
    7.3664  -16.2401   20.2796 N   0  0  0  0  0  0  0  0  0  0  0  0
    8.6478  -16.1356   22.2431 C   0  0  0  0  0  0  0  0  0  0  0  0
    7.6488  -16.6993   22.8084 O   0  0  0  0  0  0  0  0  0  0  0  0
    9.9333  -16.2127   22.8408 N   0  0  0  0  0  0  0  0  0  0  0  0
   10.1010  -17.0130   24.0167 C   0  0  1  0  0  0  0  0  0  0  0  0
   11.1212  -18.1112   23.7748 C   0  0  0  0  0  0  0  0  0  0  0  0
   12.6828  -17.4757   23.1684 S   0  0  0  0  0  0  0  0  0  0  0  0
   10.4518  -16.2090   25.2173 C   0  0  0  0  0  0  0  0  0  0  0  0
   11.1045  -15.1429   25.1804 O   0  0  0  0  0  0  0  0  0  0  0  0
    6.2295  -11.7455   25.3714 O   0  0  0  0  0  0  0  0  0  0  0  0
    6.9591  -12.6580   26.1224 C   0  0  0  0  0  0  0  0  0  0  0  0
    8.1065  -12.3082   26.7969 C   0  0  0  0  0  0  0  0  0  0  0  0
    8.8050  -13.2460   27.5341 C   0  0  0  0  0  0  0  0  0  0  0  0
    8.3951  -14.5577   27.6300 C   0  0  0  0  0  0  0  0  0  0  0  0
    9.1392  -15.5601   28.4159 C   0  0  0  0  0  0  0  0  0  0  0  0
   10.3927  -16.0655   27.7374 C   0  0  2  0  0  0  0  0  0  0  0  0
   10.0143  -16.6887   26.4823 N   0  0  0  0  0  0  0  0  0  0  0  0
   11.1895  -16.9534   28.5851 C   0  0  0  0  0  0  0  0  0  0  0  0
   11.6823  -16.5131   29.6509 O   0  0  0  0  0  0  0  0  0  0  0  0
    7.2354  -14.8838   26.9404 C   0  0  0  0  0  0  0  0  0  0  0  0
    6.5265  -13.9607   26.2004 C   0  0  0  0  0  0  0  0  0  0  0  0
   11.4206  -18.2719   28.2520 O   0  0  0  0  0  0  0  0  0  0  0  0
  2  3  1  1
  2  1  1  0
  4  2  1  0
  4  5  1  0
  5  7  1  0
  5  6  1  6
  7  8  2  0
  9 10  1  0
  9  7  1  0
 10 11  1  6
 11 12  1  0
 13 14  2  0
 13 10  1  0
 15 16  1  0
 16 26  2  0
 16 17  1  0
 17 18  2  0
 18 19  1  0
 19 20  1  0
 21 20  1  1
 21 22  1  0
 21 23  1  0
 22 13  1  0
 23 27  1  0
 24 23  2  0
 25 19  2  0
 26 25  1  0
M  END
$$$$
