LCY.pdb
     RDKit          3D

 27 27  0  0  1  0  0  0  0  0999 V2000
    6.5342  -12.9160   27.0666 C   0  0  0  0  0  0  0  0  0  0  0  0
    6.1943  -13.5632   25.7664 C   0  0  1  0  0  0  0  0  0  0  0  0
    6.8244  -12.7340   24.6527 C   0  0  0  0  0  0  0  0  0  0  0  0
    6.7080  -14.9585   25.7099 C   0  0  0  0  0  0  0  0  0  0  0  0
    6.3164  -15.7291   24.4712 C   0  0  2  0  0  0  0  0  0  0  0  0
    5.7556  -17.0004   24.8668 N   0  0  0  0  0  0  0  0  0  0  0  0
    7.5548  -16.0307   23.7132 C   0  0  0  0  0  0  0  0  0  0  0  0
    8.2084  -17.0526   24.1182 O   0  0  0  0  0  0  0  0  0  0  0  0
    8.0344  -15.2781   22.6089 N   0  0  0  0  0  0  0  0  0  0  0  0
    9.1674  -15.7656   21.8810 C   0  0  1  0  0  0  0  0  0  0  0  0
    9.2360  -15.1241   20.5066 C   0  0  0  0  0  0  0  0  0  0  0  0
    7.6619  -15.1631   19.6516 S   0  0  0  0  0  0  0  0  0  0  0  0
   10.4464  -15.5921   22.6193 C   0  0  0  0  0  0  0  0  0  0  0  0
   11.1526  -14.5615   22.5645 O   0  0  0  0  0  0  0  0  0  0  0  0
   11.4701  -15.0337   31.0837 O   0  0  0  0  0  0  0  0  0  0  0  0
   11.1716  -15.2466   29.7442 C   0  0  0  0  0  0  0  0  0  0  0  0
   10.9158  -16.4994   29.2355 C   0  0  0  0  0  0  0  0  0  0  0  0
   10.6223  -16.6702   27.8955 C   0  0  0  0  0  0  0  0  0  0  0  0
   10.5715  -15.6122   27.0147 C   0  0  0  0  0  0  0  0  0  0  0  0
   10.2587  -15.7924   25.5843 C   0  0  0  0  0  0  0  0  0  0  0  0
   11.3485  -16.4886   24.8003 C   0  0  2  0  0  0  0  0  0  0  0  0
   10.8869  -16.6693   23.4361 N   0  0  0  0  0  0  0  0  0  0  0  0
   11.7882  -17.7430   25.4130 C   0  0  0  0  0  0  0  0  0  0  0  0
   12.7544  -17.7356   26.2123 O   0  0  0  0  0  0  0  0  0  0  0  0
   10.8333  -14.3601   27.5534 C   0  0  0  0  0  0  0  0  0  0  0  0
   11.1277  -14.1719   28.8877 C   0  0  0  0  0  0  0  0  0  0  0  0
   11.1717  -18.9467   25.1414 O   0  0  0  0  0  0  0  0  0  0  0  0
  2  3  1  6
  2  1  1  0
  4  2  1  0
  4  5  1  0
  5  7  1  0
  5  6  1  1
  7  8  2  0
  9 10  1  0
  9  7  1  0
 10 11  1  6
 11 12  1  0
 13 14  2  0
 13 10  1  0
 15 16  1  0
 16 26  2  0
 16 17  1  0
 17 18  2  0
 18 19  1  0
 19 20  1  0
 21 20  1  1
 21 22  1  0
 21 23  1  0
 22 13  1  0
 23 27  1  0
 24 23  2  0
 25 19  2  0
 26 25  1  0
M  END
$$$$
