LCY.pdb
     RDKit          3D

 27 27  0  0  1  0  0  0  0  0999 V2000
    7.1573  -12.0104   18.6774 C   0  0  0  0  0  0  0  0  0  0  0  0
    7.5473  -13.4436   18.5407 C   0  0  1  0  0  0  0  0  0  0  0  0
    9.0658  -13.5272   18.6498 C   0  0  0  0  0  0  0  0  0  0  0  0
    6.9180  -14.2755   19.6017 C   0  0  0  0  0  0  0  0  0  0  0  0
    7.3180  -15.7320   19.5865 C   0  0  2  0  0  0  0  0  0  0  0  0
    6.2644  -16.5019   18.9666 N   0  0  0  0  0  0  0  0  0  0  0  0
    7.4072  -16.1933   20.9931 C   0  0  0  0  0  0  0  0  0  0  0  0
    6.3342  -16.0699   21.6780 O   0  0  0  0  0  0  0  0  0  0  0  0
    8.5702  -16.7412   21.5956 N   0  0  0  0  0  0  0  0  0  0  0  0
    8.5537  -17.0207   23.0003 C   0  0  1  0  0  0  0  0  0  0  0  0
    8.3975  -18.5107   23.2469 C   0  0  0  0  0  0  0  0  0  0  0  0
    8.7472  -18.9657   24.9442 S   0  0  0  0  0  0  0  0  0  0  0  0
    9.7430  -16.4804   23.7106 C   0  0  0  0  0  0  0  0  0  0  0  0
   10.9250  -16.7108   23.3734 O   0  0  0  0  0  0  0  0  0  0  0  0
    9.6514  -17.0638   31.5752 O   0  0  0  0  0  0  0  0  0  0  0  0
    9.7496  -16.3432   30.3920 C   0  0  0  0  0  0  0  0  0  0  0  0
   10.6309  -15.2979   30.2358 C   0  0  0  0  0  0  0  0  0  0  0  0
   10.6987  -14.6048   29.0417 C   0  0  0  0  0  0  0  0  0  0  0  0
    9.9006  -14.9198   27.9640 C   0  0  0  0  0  0  0  0  0  0  0  0
    9.9712  -14.1813   26.6889 C   0  0  0  0  0  0  0  0  0  0  0  0
   10.5817  -14.9726   25.5539 C   0  0  2  0  0  0  0  0  0  0  0  0
    9.5138  -15.6510   24.8426 N   0  0  0  0  0  0  0  0  0  0  0  0
   11.6339  -15.8908   25.9916 C   0  0  0  0  0  0  0  0  0  0  0  0
   12.7323  -15.4308   26.3847 O   0  0  0  0  0  0  0  0  0  0  0  0
    9.0210  -15.9777   28.1480 C   0  0  0  0  0  0  0  0  0  0  0  0
    8.9404  -16.6797   29.3325 C   0  0  0  0  0  0  0  0  0  0  0  0
   11.4602  -17.2593   25.9886 O   0  0  0  0  0  0  0  0  0  0  0  0
  2  3  1  1
  2  1  1  0
  4  2  1  0
  4  5  1  0
  5  7  1  0
  5  6  1  6
  7  8  2  0
  9 10  1  0
  9  7  1  0
 10 11  1  6
 11 12  1  0
 13 14  2  0
 13 10  1  0
 15 16  1  0
 16 26  2  0
 16 17  1  0
 17 18  2  0
 18 19  1  0
 19 20  1  0
 21 20  1  1
 21 22  1  0
 21 23  1  0
 22 13  1  0
 23 27  1  0
 24 23  2  0
 25 19  2  0
 26 25  1  0
M  END
$$$$
