LCY.pdb
     RDKit          3D

 27 27  0  0  1  0  0  0  0  0999 V2000
    5.9475  -12.8955   27.0590 C   0  0  0  0  0  0  0  0  0  0  0  0
    6.0784  -13.2040   25.6056 C   0  0  1  0  0  0  0  0  0  0  0  0
    6.5947  -11.9512   24.9065 C   0  0  0  0  0  0  0  0  0  0  0  0
    7.0199  -14.3336   25.3785 C   0  0  0  0  0  0  0  0  0  0  0  0
    6.4969  -15.4230   24.4723 C   0  0  2  0  0  0  0  0  0  0  0  0
    6.0376  -16.5274   25.2825 N   0  0  0  0  0  0  0  0  0  0  0  0
    7.6354  -15.9321   23.6698 C   0  0  0  0  0  0  0  0  0  0  0  0
    8.3060  -16.8772   24.2106 O   0  0  0  0  0  0  0  0  0  0  0  0
    8.0060  -15.4474   22.3879 N   0  0  0  0  0  0  0  0  0  0  0  0
    9.2173  -15.9263   21.7924 C   0  0  1  0  0  0  0  0  0  0  0  0
    9.3249  -15.4606   20.3512 C   0  0  0  0  0  0  0  0  0  0  0  0
    7.9318  -15.9859   19.3545 S   0  0  0  0  0  0  0  0  0  0  0  0
   10.4293  -15.5537   22.5691 C   0  0  0  0  0  0  0  0  0  0  0  0
   10.8840  -14.3911   22.6432 O   0  0  0  0  0  0  0  0  0  0  0  0
   11.3288  -14.9301   30.9203 O   0  0  0  0  0  0  0  0  0  0  0  0
   11.0618  -15.2345   29.5918 C   0  0  0  0  0  0  0  0  0  0  0  0
   10.6791  -16.4925   29.1858 C   0  0  0  0  0  0  0  0  0  0  0  0
   10.4222  -16.7560   27.8534 C   0  0  0  0  0  0  0  0  0  0  0  0
   10.5342  -15.7885   26.8792 C   0  0  0  0  0  0  0  0  0  0  0  0
   10.2608  -16.0676   25.4566 C   0  0  0  0  0  0  0  0  0  0  0  0
   11.4812  -16.4849   24.6670 C   0  0  2  0  0  0  0  0  0  0  0  0
   11.1078  -16.5894   23.2683 N   0  0  0  0  0  0  0  0  0  0  0  0
   12.1046  -17.7086   25.1726 C   0  0  0  0  0  0  0  0  0  0  0  0
   12.8952  -17.6444   26.1439 O   0  0  0  0  0  0  0  0  0  0  0  0
   10.9216  -14.5290   27.3154 C   0  0  0  0  0  0  0  0  0  0  0  0
   11.1818  -14.2490   28.6406 C   0  0  0  0  0  0  0  0  0  0  0  0
   11.8512  -18.9445   24.6147 O   0  0  0  0  0  0  0  0  0  0  0  0
  2  3  1  6
  2  1  1  0
  4  2  1  0
  4  5  1  0
  5  7  1  0
  5  6  1  1
  7  8  2  0
  9 10  1  0
  9  7  1  0
 10 11  1  6
 11 12  1  0
 13 14  2  0
 13 10  1  0
 15 16  1  0
 16 26  2  0
 16 17  1  0
 17 18  2  0
 18 19  1  0
 19 20  1  0
 21 20  1  1
 21 22  1  0
 21 23  1  0
 22 13  1  0
 23 27  1  0
 24 23  2  0
 25 19  2  0
 26 25  1  0
M  END
$$$$
