LCY.pdb
     RDKit          3D

 27 27  0  0  1  0  0  0  0  0999 V2000
    6.7674  -11.6353   26.3335 C   0  0  0  0  0  0  0  0  0  0  0  0
    6.1471  -12.9025   25.8492 C   0  0  1  0  0  0  0  0  0  0  0  0
    5.3730  -12.5865   24.5742 C   0  0  0  0  0  0  0  0  0  0  0  0
    7.1816  -13.9347   25.5696 C   0  0  0  0  0  0  0  0  0  0  0  0
    6.6524  -15.2183   24.9747 C   0  0  2  0  0  0  0  0  0  0  0  0
    6.1067  -16.0364   26.0332 N   0  0  0  0  0  0  0  0  0  0  0  0
    7.8026  -15.9665   24.4123 C   0  0  0  0  0  0  0  0  0  0  0  0
    8.4715  -16.6562   25.2563 O   0  0  0  0  0  0  0  0  0  0  0  0
    8.1856  -15.9590   23.0452 N   0  0  0  0  0  0  0  0  0  0  0  0
    9.3664  -16.6696   22.6551 C   0  0  1  0  0  0  0  0  0  0  0  0
    9.4237  -16.8230   21.1456 C   0  0  0  0  0  0  0  0  0  0  0  0
   10.8697  -17.7309   20.6025 S   0  0  0  0  0  0  0  0  0  0  0  0
   10.6126  -16.0509   23.1798 C   0  0  0  0  0  0  0  0  0  0  0  0
   10.9591  -14.8713   22.9514 O   0  0  0  0  0  0  0  0  0  0  0  0
    9.9144  -16.6772   30.3186 O   0  0  0  0  0  0  0  0  0  0  0  0
   10.5174  -16.2930   29.1280 C   0  0  0  0  0  0  0  0  0  0  0  0
   10.3119  -15.0550   28.5631 C   0  0  0  0  0  0  0  0  0  0  0  0
   10.9306  -14.7099   27.3761 C   0  0  0  0  0  0  0  0  0  0  0  0
   11.7712  -15.5733   26.7085 C   0  0  0  0  0  0  0  0  0  0  0  0
   12.4323  -15.2070   25.4416 C   0  0  0  0  0  0  0  0  0  0  0  0
   12.7168  -16.3834   24.5349 C   0  0  2  0  0  0  0  0  0  0  0  0
   11.4574  -16.8573   23.9909 N   0  0  0  0  0  0  0  0  0  0  0  0
   13.4781  -17.4469   25.1917 C   0  0  0  0  0  0  0  0  0  0  0  0
   12.9803  -18.5936   25.2904 O   0  0  0  0  0  0  0  0  0  0  0  0
   11.9611  -16.8148   27.2997 C   0  0  0  0  0  0  0  0  0  0  0  0
   11.3517  -17.1753   28.4833 C   0  0  0  0  0  0  0  0  0  0  0  0
   14.7378  -17.2326   25.7114 O   0  0  0  0  0  0  0  0  0  0  0  0
  2  3  1  6
  2  1  1  0
  4  2  1  0
  4  5  1  0
  5  7  1  0
  5  6  1  1
  7  8  2  0
  9 10  1  0
  9  7  1  0
 10 11  1  6
 11 12  1  0
 13 14  2  0
 13 10  1  0
 15 16  1  0
 16 26  2  0
 16 17  1  0
 17 18  2  0
 18 19  1  0
 19 20  1  0
 21 20  1  1
 21 22  1  0
 21 23  1  0
 22 13  1  0
 23 27  1  0
 24 23  2  0
 25 19  2  0
 26 25  1  0
M  END
$$$$
