LCY.pdb
     RDKit          3D

 27 27  0  0  1  0  0  0  0  0999 V2000
    7.7045  -14.0992   18.2578 C   0  0  0  0  0  0  0  0  0  0  0  0
    8.0818  -13.5509   19.5927 C   0  0  1  0  0  0  0  0  0  0  0  0
    7.6579  -12.0868   19.6334 C   0  0  0  0  0  0  0  0  0  0  0  0
    7.4137  -14.3010   20.6903 C   0  0  0  0  0  0  0  0  0  0  0  0
    7.8297  -15.7478   20.8147 C   0  0  2  0  0  0  0  0  0  0  0  0
    7.0465  -16.5421   19.8966 N   0  0  0  0  0  0  0  0  0  0  0  0
    7.4751  -16.2067   22.1796 C   0  0  0  0  0  0  0  0  0  0  0  0
    6.6371  -15.4694   22.8038 O   0  0  0  0  0  0  0  0  0  0  0  0
    7.9937  -17.3710   22.8049 N   0  0  0  0  0  0  0  0  0  0  0  0
    7.7928  -17.5467   24.2121 C   0  0  1  0  0  0  0  0  0  0  0  0
    7.1621  -18.8980   24.4973 C   0  0  0  0  0  0  0  0  0  0  0  0
    8.2609  -20.2618   24.1192 S   0  0  0  0  0  0  0  0  0  0  0  0
    9.0389  -17.3582   25.0013 C   0  0  0  0  0  0  0  0  0  0  0  0
   10.1890  -17.3802   24.5107 O   0  0  0  0  0  0  0  0  0  0  0  0
    5.9453  -11.5693   26.9544 O   0  0  0  0  0  0  0  0  0  0  0  0
    7.0160  -12.4533   26.9230 C   0  0  0  0  0  0  0  0  0  0  0  0
    7.8168  -12.6812   28.0188 C   0  0  0  0  0  0  0  0  0  0  0  0
    8.8737  -13.5693   27.9475 C   0  0  0  0  0  0  0  0  0  0  0  0
    9.1747  -14.2608   26.7948 C   0  0  0  0  0  0  0  0  0  0  0  0
   10.3023  -15.2089   26.7166 C   0  0  0  0  0  0  0  0  0  0  0  0
    9.9737  -16.5967   27.2196 C   0  0  2  0  0  0  0  0  0  0  0  0
    8.9060  -17.1398   26.4000 N   0  0  0  0  0  0  0  0  0  0  0  0
    9.6562  -16.6323   28.6478 C   0  0  0  0  0  0  0  0  0  0  0  0
    8.5030  -16.9584   29.0172 O   0  0  0  0  0  0  0  0  0  0  0  0
    8.3517  -14.0126   25.7049 C   0  0  0  0  0  0  0  0  0  0  0  0
    7.2933  -13.1299   25.7588 C   0  0  0  0  0  0  0  0  0  0  0  0
   10.5892  -16.3179   29.6140 O   0  0  0  0  0  0  0  0  0  0  0  0
  2  3  1  6
  2  1  1  0
  4  2  1  0
  4  5  1  0
  5  7  1  0
  5  6  1  6
  7  8  2  0
  9 10  1  0
  9  7  1  0
 10 11  1  6
 11 12  1  0
 13 14  2  0
 13 10  1  0
 15 16  1  0
 16 26  2  0
 16 17  1  0
 17 18  2  0
 18 19  1  0
 19 20  1  0
 21 20  1  6
 21 22  1  0
 21 23  1  0
 22 13  1  0
 23 27  1  0
 24 23  2  0
 25 19  2  0
 26 25  1  0
M  END
$$$$
