LCY.pdb
     RDKit          3D

 27 27  0  0  1  0  0  0  0  0999 V2000
    7.3378  -12.3441   19.1898 C   0  0  0  0  0  0  0  0  0  0  0  0
    8.0901  -13.5090   18.6401 C   0  0  1  0  0  0  0  0  0  0  0  0
    9.5779  -13.1871   18.7260 C   0  0  0  0  0  0  0  0  0  0  0  0
    7.7963  -14.7493   19.4078 C   0  0  0  0  0  0  0  0  0  0  0  0
    8.5928  -15.9609   18.9846 C   0  0  2  0  0  0  0  0  0  0  0  0
    7.7111  -16.8947   18.3228 N   0  0  0  0  0  0  0  0  0  0  0  0
    9.0795  -16.6361   20.2119 C   0  0  0  0  0  0  0  0  0  0  0  0
    8.1711  -17.1560   20.9467 O   0  0  0  0  0  0  0  0  0  0  0  0
   10.4419  -16.7324   20.5996 N   0  0  0  0  0  0  0  0  0  0  0  0
   10.7586  -17.3076   21.8724 C   0  0  1  0  0  0  0  0  0  0  0  0
   12.1189  -17.9809   21.8311 C   0  0  0  0  0  0  0  0  0  0  0  0
   12.5835  -18.6868   23.4110 S   0  0  0  0  0  0  0  0  0  0  0  0
   10.6791  -16.3253   22.9859 C   0  0  0  0  0  0  0  0  0  0  0  0
   11.0766  -15.1423   22.9063 O   0  0  0  0  0  0  0  0  0  0  0  0
    5.7022  -11.4583   27.9260 O   0  0  0  0  0  0  0  0  0  0  0  0
    6.3385  -12.3700   27.0937 C   0  0  0  0  0  0  0  0  0  0  0  0
    5.7879  -13.5915   26.7800 C   0  0  0  0  0  0  0  0  0  0  0  0
    6.4529  -14.4721   25.9474 C   0  0  0  0  0  0  0  0  0  0  0  0
    7.6811  -14.1769   25.3977 C   0  0  0  0  0  0  0  0  0  0  0  0
    8.3926  -15.1153   24.5092 C   0  0  0  0  0  0  0  0  0  0  0  0
    9.5235  -15.8604   25.1821 C   0  0  2  0  0  0  0  0  0  0  0  0
   10.1147  -16.7663   24.2142 N   0  0  0  0  0  0  0  0  0  0  0  0
    9.1142  -16.5431   26.4102 C   0  0  0  0  0  0  0  0  0  0  0  0
    9.2570  -15.9674   27.5151 O   0  0  0  0  0  0  0  0  0  0  0  0
    8.2138  -12.9389   25.7301 C   0  0  0  0  0  0  0  0  0  0  0  0
    7.5638  -12.0486   26.5592 C   0  0  0  0  0  0  0  0  0  0  0  0
    8.5699  -17.8106   26.3974 O   0  0  0  0  0  0  0  0  0  0  0  0
  2  3  1  1
  2  1  1  0
  4  2  1  0
  4  5  1  0
  5  7  1  0
  5  6  1  1
  7  8  2  0
  9 10  1  0
  9  7  1  0
 10 11  1  6
 11 12  1  0
 13 14  2  0
 13 10  1  0
 15 16  1  0
 16 26  2  0
 16 17  1  0
 17 18  2  0
 18 19  1  0
 19 20  1  0
 21 20  1  6
 21 22  1  0
 21 23  1  0
 22 13  1  0
 23 27  1  0
 24 23  2  0
 25 19  2  0
 26 25  1  0
M  END
$$$$
