FAN.pdb
     RDKit          3D

 25 25  0  0  1  0  0  0  0  0999 V2000
    8.5554  -15.2182   25.5560 N   0  0  0  0  0  0  0  0  0  0  0  0
    7.5493  -15.7536   24.6811 C   0  0  1  0  0  0  0  0  0  0  0  0
    6.5608  -14.6773   24.2300 C   0  0  0  0  0  0  0  0  0  0  0  0
    6.4183  -13.5927   25.1820 C   0  0  0  0  0  0  0  0  0  0  0  0
    7.0681  -12.3947   24.9898 C   0  0  0  0  0  0  0  0  0  0  0  0
    6.9362  -11.3440   25.9028 C   0  0  0  0  0  0  0  0  0  0  0  0
    6.1473  -11.5116   27.0053 C   0  0  0  0  0  0  0  0  0  0  0  0
    5.4866  -12.6934   27.2253 C   0  0  0  0  0  0  0  0  0  0  0  0
    5.6303  -13.7346   26.3006 C   0  0  0  0  0  0  0  0  0  0  0  0
    8.1223  -16.3012   23.4214 C   0  0  0  0  0  0  0  0  0  0  0  0
    7.3542  -16.9875   22.7001 O   0  0  0  0  0  0  0  0  0  0  0  0
   10.6043  -15.7389   20.9416 C   0  0  0  0  0  0  0  0  0  0  0  0
   10.0877  -16.8093   21.9103 C   0  0  2  0  0  0  0  0  0  0  0  0
    9.4478  -16.1031   22.9931 N   0  0  0  0  0  0  0  0  0  0  0  0
   11.2617  -17.5914   22.3727 C   0  0  0  0  0  0  0  0  0  0  0  0
   11.8745  -18.3245   21.5522 O   0  0  0  0  0  0  0  0  0  0  0  0
   12.9507  -15.6547   24.8533 N   0  0  0  0  0  0  0  0  0  0  0  0
   14.1161  -16.2752   24.2797 C   0  0  0  0  0  0  0  0  0  0  0  0
   15.1293  -15.5708   24.1777 O   0  0  0  0  0  0  0  0  0  0  0  0
   14.0785  -17.6760   23.8449 C   0  0  0  0  0  0  0  0  0  0  0  0
   12.8143  -18.3518   24.2137 C   0  0  2  0  0  0  0  0  0  0  0  0
   11.6924  -17.5172   23.7226 N   0  0  0  0  0  0  0  0  0  0  0  0
   12.6471  -18.5265   25.6532 C   0  0  0  0  0  0  0  0  0  0  0  0
   13.4058  -19.2042   26.3500 O   0  0  0  0  0  0  0  0  0  0  0  0
   11.5796  -17.9125   26.3430 O   0  0  0  0  0  0  0  0  0  0  0  0
  2  1  1  1
  2 10  1  0
  3  2  1  0
  4  3  1  0
  5  4  2  0
  6  5  1  0
  7  8  1  0
  7  6  2  0
  8  9  2  0
  9  4  1  0
 10 14  1  0
 10 11  2  0
 13 12  1  6
 14 13  1  0
 15 22  1  0
 15 13  1  0
 16 15  2  0
 18 20  1  0
 18 17  1  0
 19 18  2  0
 21 20  1  1
 21 23  1  0
 21 22  1  0
 23 25  1  0
 24 23  2  0
M  END
$$$$
