FAN.pdb
     RDKit          3D

 25 25  0  0  1  0  0  0  0  0999 V2000
    9.5225  -17.5834   21.4573 N   0  0  0  0  0  0  0  0  0  0  0  0
    9.2402  -16.1970   21.7077 C   0  0  1  0  0  0  0  0  0  0  0  0
    7.7840  -15.8504   21.3941 C   0  0  0  0  0  0  0  0  0  0  0  0
    7.6391  -14.6554   20.5854 C   0  0  0  0  0  0  0  0  0  0  0  0
    7.6998  -13.4047   21.1568 C   0  0  0  0  0  0  0  0  0  0  0  0
    7.5609  -12.2475   20.3843 C   0  0  0  0  0  0  0  0  0  0  0  0
    7.3614  -12.3626   19.0379 C   0  0  0  0  0  0  0  0  0  0  0  0
    7.2960  -13.5947   18.4385 C   0  0  0  0  0  0  0  0  0  0  0  0
    7.4371  -14.7425   19.2275 C   0  0  0  0  0  0  0  0  0  0  0  0
    9.4238  -15.8272   23.1376 C   0  0  0  0  0  0  0  0  0  0  0  0
   10.6053  -15.6536   23.5315 O   0  0  0  0  0  0  0  0  0  0  0  0
    7.2152  -14.7133   25.9143 C   0  0  0  0  0  0  0  0  0  0  0  0
    8.5402  -15.3353   25.4574 C   0  0  2  0  0  0  0  0  0  0  0  0
    8.3761  -15.6622   24.0621 N   0  0  0  0  0  0  0  0  0  0  0  0
    8.7717  -16.5434   26.2886 C   0  0  0  0  0  0  0  0  0  0  0  0
    8.9302  -16.4142   27.5313 O   0  0  0  0  0  0  0  0  0  0  0  0
    6.1656  -19.9797   24.6604 N   0  0  0  0  0  0  0  0  0  0  0  0
    6.9100  -20.0040   25.8922 C   0  0  0  0  0  0  0  0  0  0  0  0
    6.2607  -19.8738   26.9385 O   0  0  0  0  0  0  0  0  0  0  0  0
    8.3671  -20.1760   25.8808 C   0  0  0  0  0  0  0  0  0  0  0  0
    9.0783  -19.0404   26.5097 C   0  0  2  0  0  0  0  0  0  0  0  0
    8.8150  -17.8312   25.6944 N   0  0  0  0  0  0  0  0  0  0  0  0
   10.5242  -19.2277   26.5806 C   0  0  0  0  0  0  0  0  0  0  0  0
   11.0849  -19.8734   27.4690 O   0  0  0  0  0  0  0  0  0  0  0  0
   11.3808  -18.6649   25.6101 O   0  0  0  0  0  0  0  0  0  0  0  0
  2  1  1  1
  2 10  1  0
  3  2  1  0
  4  3  1  0
  5  4  2  0
  6  5  1  0
  7  8  1  0
  7  6  2  0
  8  9  2  0
  9  4  1  0
 10 14  1  0
 10 11  2  0
 13 12  1  1
 14 13  1  0
 15 22  1  0
 15 13  1  0
 16 15  2  0
 18 20  1  0
 18 17  1  0
 19 18  2  0
 21 20  1  6
 21 23  1  0
 21 22  1  0
 23 25  1  0
 24 23  2  0
M  END
$$$$
