FAN.pdb
     RDKit          3D

 25 25  0  0  1  0  0  0  0  0999 V2000
    8.3380  -15.5325   25.2033 N   0  0  0  0  0  0  0  0  0  0  0  0
    7.0060  -15.6808   24.6854 C   0  0  1  0  0  0  0  0  0  0  0  0
    6.2146  -14.3752   24.7773 C   0  0  0  0  0  0  0  0  0  0  0  0
    6.7197  -13.4672   25.7889 C   0  0  0  0  0  0  0  0  0  0  0  0
    6.1451  -13.4121   27.0384 C   0  0  0  0  0  0  0  0  0  0  0  0
    6.6259  -12.5394   28.0193 C   0  0  0  0  0  0  0  0  0  0  0  0
    7.6855  -11.7273   27.7303 C   0  0  0  0  0  0  0  0  0  0  0  0
    8.2799  -11.7584   26.4944 C   0  0  0  0  0  0  0  0  0  0  0  0
    7.7853  -12.6383   25.5245 C   0  0  0  0  0  0  0  0  0  0  0  0
    6.9926  -16.0372   23.2404 C   0  0  0  0  0  0  0  0  0  0  0  0
    5.8696  -16.2654   22.7228 O   0  0  0  0  0  0  0  0  0  0  0  0
    7.3552  -14.9884   20.4922 C   0  0  0  0  0  0  0  0  0  0  0  0
    8.1356  -16.2111   20.9893 C   0  0  2  0  0  0  0  0  0  0  0  0
    8.1385  -16.1336   22.4297 N   0  0  0  0  0  0  0  0  0  0  0  0
    9.5055  -16.1213   20.4244 C   0  0  0  0  0  0  0  0  0  0  0  0
    9.6669  -16.2352   19.1805 O   0  0  0  0  0  0  0  0  0  0  0  0
   11.5971  -13.1681   19.4567 N   0  0  0  0  0  0  0  0  0  0  0  0
   12.2523  -14.4446   19.3403 C   0  0  0  0  0  0  0  0  0  0  0  0
   12.3556  -14.9162   18.2001 O   0  0  0  0  0  0  0  0  0  0  0  0
   12.7638  -15.1326   20.5310 C   0  0  0  0  0  0  0  0  0  0  0  0
   11.9819  -16.3434   20.8676 C   0  0  2  0  0  0  0  0  0  0  0  0
   10.6237  -15.9098   21.2720 N   0  0  0  0  0  0  0  0  0  0  0  0
   12.5520  -17.1165   21.9667 C   0  0  0  0  0  0  0  0  0  0  0  0
   13.6834  -17.6063   21.9402 O   0  0  0  0  0  0  0  0  0  0  0  0
   11.8193  -17.3511   23.1501 O   0  0  0  0  0  0  0  0  0  0  0  0
  2  1  1  6
  2 10  1  0
  3  2  1  0
  4  3  1  0
  5  4  2  0
  6  5  1  0
  7  8  1  0
  7  6  2  0
  8  9  2  0
  9  4  1  0
 10 14  1  0
 10 11  2  0
 13 12  1  6
 14 13  1  0
 15 22  1  0
 15 13  1  0
 16 15  2  0
 18 20  1  0
 18 17  1  0
 19 18  2  0
 21 20  1  1
 21 23  1  0
 21 22  1  0
 23 25  1  0
 24 23  2  0
M  END
$$$$
