FAN.pdb
     RDKit          3D

 25 25  0  0  1  0  0  0  0  0999 V2000
    6.7534  -14.3030   20.8316 N   0  0  0  0  0  0  0  0  0  0  0  0
    7.2911  -14.0908   22.1470 C   0  0  1  0  0  0  0  0  0  0  0  0
    6.2046  -13.6838   23.1435 C   0  0  0  0  0  0  0  0  0  0  0  0
    6.7099  -13.4572   24.4838 C   0  0  0  0  0  0  0  0  0  0  0  0
    7.4062  -12.3104   24.7912 C   0  0  0  0  0  0  0  0  0  0  0  0
    7.8968  -12.0842   26.0808 C   0  0  0  0  0  0  0  0  0  0  0  0
    7.6802  -13.0198   27.0521 C   0  0  0  0  0  0  0  0  0  0  0  0
    6.9900  -14.1731   26.7775 C   0  0  0  0  0  0  0  0  0  0  0  0
    6.5060  -14.3829   25.4808 C   0  0  0  0  0  0  0  0  0  0  0  0
    7.8966  -15.3233   22.7209 C   0  0  0  0  0  0  0  0  0  0  0  0
    7.1521  -16.3329   22.8093 O   0  0  0  0  0  0  0  0  0  0  0  0
   11.3031  -16.5775   22.9331 C   0  0  0  0  0  0  0  0  0  0  0  0
    9.8906  -16.6585   23.5242 C   0  0  2  0  0  0  0  0  0  0  0  0
    9.2278  -15.4291   23.1637 N   0  0  0  0  0  0  0  0  0  0  0  0
   10.0339  -16.8033   24.9947 C   0  0  0  0  0  0  0  0  0  0  0  0
   10.5150  -15.8503   25.6628 O   0  0  0  0  0  0  0  0  0  0  0  0
    6.8227  -19.1834   26.2560 N   0  0  0  0  0  0  0  0  0  0  0  0
    7.5653  -18.9128   27.4591 C   0  0  0  0  0  0  0  0  0  0  0  0
    6.9495  -18.3640   28.3826 O   0  0  0  0  0  0  0  0  0  0  0  0
    8.9823  -19.2796   27.5603 C   0  0  0  0  0  0  0  0  0  0  0  0
    9.8830  -18.2026   27.0916 C   0  0  2  0  0  0  0  0  0  0  0  0
    9.6350  -17.9999   25.6447 N   0  0  0  0  0  0  0  0  0  0  0  0
   11.2988  -18.5124   27.2652 C   0  0  0  0  0  0  0  0  0  0  0  0
   11.8753  -18.4778   28.3547 O   0  0  0  0  0  0  0  0  0  0  0  0
   12.1053  -18.8779   26.1660 O   0  0  0  0  0  0  0  0  0  0  0  0
  2  1  1  6
  2 10  1  0
  3  2  1  0
  4  3  1  0
  5  4  2  0
  6  5  1  0
  7  8  1  0
  7  6  2  0
  8  9  2  0
  9  4  1  0
 10 14  1  0
 10 11  2  0
 13 12  1  6
 14 13  1  0
 15 22  1  0
 15 13  1  0
 16 15  2  0
 18 20  1  0
 18 17  1  0
 19 18  2  0
 21 20  1  6
 21 23  1  0
 21 22  1  0
 23 25  1  0
 24 23  2  0
M  END
$$$$
