FAN.pdb
     RDKit          3D

 25 25  0  0  1  0  0  0  0  0999 V2000
    6.7945  -16.6294   26.1651 N   0  0  0  0  0  0  0  0  0  0  0  0
    7.1975  -16.1734   24.8635 C   0  0  1  0  0  0  0  0  0  0  0  0
    8.1629  -14.9906   24.9522 C   0  0  0  0  0  0  0  0  0  0  0  0
    7.6026  -13.8416   25.6370 C   0  0  0  0  0  0  0  0  0  0  0  0
    8.1371  -13.3981   26.8253 C   0  0  0  0  0  0  0  0  0  0  0  0
    7.6027  -12.2913   27.4920 C   0  0  0  0  0  0  0  0  0  0  0  0
    6.5305  -11.6395   26.9524 C   0  0  0  0  0  0  0  0  0  0  0  0
    5.9749  -12.0569   25.7696 C   0  0  0  0  0  0  0  0  0  0  0  0
    6.5229  -13.1669   25.1159 C   0  0  0  0  0  0  0  0  0  0  0  0
    7.9352  -17.2149   24.0979 C   0  0  0  0  0  0  0  0  0  0  0  0
    8.5088  -18.1115   24.7675 O   0  0  0  0  0  0  0  0  0  0  0  0
    8.2399  -18.1330   20.4877 C   0  0  0  0  0  0  0  0  0  0  0  0
    8.7151  -18.2788   21.9382 C   0  0  2  0  0  0  0  0  0  0  0  0
    8.0301  -17.2594   22.6948 N   0  0  0  0  0  0  0  0  0  0  0  0
   10.1865  -18.0819   21.9437 C   0  0  0  0  0  0  0  0  0  0  0  0
   10.9157  -18.8733   21.2895 O   0  0  0  0  0  0  0  0  0  0  0  0
   14.8904  -15.9845   22.5846 N   0  0  0  0  0  0  0  0  0  0  0  0
   13.9289  -15.2345   21.8196 C   0  0  0  0  0  0  0  0  0  0  0  0
   14.3720  -14.3254   21.1052 O   0  0  0  0  0  0  0  0  0  0  0  0
   12.4988  -15.5522   21.9007 C   0  0  0  0  0  0  0  0  0  0  0  0
   12.2345  -16.7920   22.6649 C   0  0  2  0  0  0  0  0  0  0  0  0
   10.7695  -17.0156   22.6763 N   0  0  0  0  0  0  0  0  0  0  0  0
   12.6897  -16.7290   24.0503 C   0  0  0  0  0  0  0  0  0  0  0  0
   11.9648  -16.3979   24.9913 O   0  0  0  0  0  0  0  0  0  0  0  0
   14.0194  -17.0524   24.3963 O   0  0  0  0  0  0  0  0  0  0  0  0
  2  1  1  1
  2 10  1  0
  3  2  1  0
  4  3  1  0
  5  4  2  0
  6  5  1  0
  7  8  1  0
  7  6  2  0
  8  9  2  0
  9  4  1  0
 10 14  1  0
 10 11  2  0
 13 12  1  6
 14 13  1  0
 15 22  1  0
 15 13  1  0
 16 15  2  0
 18 20  1  0
 18 17  1  0
 19 18  2  0
 21 20  1  1
 21 23  1  0
 21 22  1  0
 23 25  1  0
 24 23  2  0
M  END
$$$$
