FAN.pdb
     RDKit          3D

 25 25  0  0  1  0  0  0  0  0999 V2000
    9.0020  -14.5180   24.2623 N   0  0  0  0  0  0  0  0  0  0  0  0
    7.8419  -15.2046   23.7653 C   0  0  1  0  0  0  0  0  0  0  0  0
    6.5476  -14.5848   24.2944 C   0  0  0  0  0  0  0  0  0  0  0  0
    6.7631  -13.6316   25.3658 C   0  0  0  0  0  0  0  0  0  0  0  0
    6.8814  -12.2862   25.1007 C   0  0  0  0  0  0  0  0  0  0  0  0
    7.0893  -11.3606   26.1278 C   0  0  0  0  0  0  0  0  0  0  0  0
    7.1764  -11.8018   27.4176 C   0  0  0  0  0  0  0  0  0  0  0  0
    7.0627  -13.1362   27.7147 C   0  0  0  0  0  0  0  0  0  0  0  0
    6.8547  -14.0487   26.6736 C   0  0  0  0  0  0  0  0  0  0  0  0
    7.7262  -15.1292   22.2834 C   0  0  0  0  0  0  0  0  0  0  0  0
    6.7958  -15.7879   21.7528 O   0  0  0  0  0  0  0  0  0  0  0  0
    8.5580  -12.9433   19.5503 C   0  0  0  0  0  0  0  0  0  0  0  0
    8.5693  -14.4062   20.0095 C   0  0  2  0  0  0  0  0  0  0  0  0
    8.5782  -14.3797   21.4517 N   0  0  0  0  0  0  0  0  0  0  0  0
    9.7957  -15.0340   19.4566 C   0  0  0  0  0  0  0  0  0  0  0  0
    9.8978  -15.1932   18.2115 O   0  0  0  0  0  0  0  0  0  0  0  0
   13.3323  -13.2648   19.2527 N   0  0  0  0  0  0  0  0  0  0  0  0
   13.3003  -14.6536   18.8753 C   0  0  0  0  0  0  0  0  0  0  0  0
   13.3721  -14.9040   17.6648 O   0  0  0  0  0  0  0  0  0  0  0  0
   13.1874  -15.7021   19.8954 C   0  0  0  0  0  0  0  0  0  0  0  0
   11.8829  -16.4001   19.8511 C   0  0  2  0  0  0  0  0  0  0  0  0
   10.8437  -15.4518   20.3172 N   0  0  0  0  0  0  0  0  0  0  0  0
   11.8271  -17.5825   20.7052 C   0  0  0  0  0  0  0  0  0  0  0  0
   11.0499  -17.7007   21.6552 O   0  0  0  0  0  0  0  0  0  0  0  0
   12.6825  -18.6831   20.4834 O   0  0  0  0  0  0  0  0  0  0  0  0
  2  1  1  1
  2 10  1  0
  3  2  1  0
  4  3  1  0
  5  4  2  0
  6  5  1  0
  7  8  1  0
  7  6  2  0
  8  9  2  0
  9  4  1  0
 10 14  1  0
 10 11  2  0
 13 12  1  6
 14 13  1  0
 15 22  1  0
 15 13  1  0
 16 15  2  0
 18 20  1  0
 18 17  1  0
 19 18  2  0
 21 20  1  1
 21 23  1  0
 21 22  1  0
 23 25  1  0
 24 23  2  0
M  END
$$$$
