FAN.pdb
     RDKit          3D

 25 25  0  0  1  0  0  0  0  0999 V2000
    5.6773  -16.0519   25.8509 N   0  0  0  0  0  0  0  0  0  0  0  0
    6.5806  -15.8231   24.7572 C   0  0  1  0  0  0  0  0  0  0  0  0
    7.7152  -14.8754   25.1493 C   0  0  0  0  0  0  0  0  0  0  0  0
    7.2490  -13.5918   25.6370 C   0  0  0  0  0  0  0  0  0  0  0  0
    7.3784  -12.4560   24.8705 C   0  0  0  0  0  0  0  0  0  0  0  0
    6.9317  -11.2145   25.3333 C   0  0  0  0  0  0  0  0  0  0  0  0
    6.3565  -11.1294   26.5693 C   0  0  0  0  0  0  0  0  0  0  0  0
    6.2131  -12.2430   27.3575 C   0  0  0  0  0  0  0  0  0  0  0  0
    6.6661  -13.4777   26.8779 C   0  0  0  0  0  0  0  0  0  0  0  0
    7.2589  -17.0694   24.3081 C   0  0  0  0  0  0  0  0  0  0  0  0
    7.8460  -17.0269   23.1969 O   0  0  0  0  0  0  0  0  0  0  0  0
    6.9559  -19.9622   23.3878 C   0  0  0  0  0  0  0  0  0  0  0  0
    7.8343  -19.5205   24.5643 C   0  0  2  0  0  0  0  0  0  0  0  0
    7.2847  -18.2731   25.0362 N   0  0  0  0  0  0  0  0  0  0  0  0
    9.2170  -19.3598   24.0483 C   0  0  0  0  0  0  0  0  0  0  0  0
    9.8798  -20.3839   23.7352 O   0  0  0  0  0  0  0  0  0  0  0  0
   13.4088  -17.3064   21.8011 N   0  0  0  0  0  0  0  0  0  0  0  0
   12.3550  -16.3266   21.8422 C   0  0  0  0  0  0  0  0  0  0  0  0
   12.5948  -15.2282   21.3233 O   0  0  0  0  0  0  0  0  0  0  0  0
   11.0687  -16.6397   22.4746 C   0  0  0  0  0  0  0  0  0  0  0  0
   11.1152  -17.8868   23.2704 C   0  0  2  0  0  0  0  0  0  0  0  0
    9.7898  -18.0692   23.9079 N   0  0  0  0  0  0  0  0  0  0  0  0
   12.1222  -17.8648   24.3270 C   0  0  0  0  0  0  0  0  0  0  0  0
   11.8555  -17.6953   25.5189 O   0  0  0  0  0  0  0  0  0  0  0  0
   13.4914  -18.0412   24.0330 O   0  0  0  0  0  0  0  0  0  0  0  0
  2  1  1  1
  2 10  1  0
  3  2  1  0
  4  3  1  0
  5  4  2  0
  6  5  1  0
  7  8  1  0
  7  6  2  0
  8  9  2  0
  9  4  1  0
 10 14  1  0
 10 11  2  0
 13 12  1  6
 14 13  1  0
 15 22  1  0
 15 13  1  0
 16 15  2  0
 18 20  1  0
 18 17  1  0
 19 18  2  0
 21 20  1  1
 21 23  1  0
 21 22  1  0
 23 25  1  0
 24 23  2  0
M  END
$$$$
