FAN.pdb
     RDKit          3D

 25 25  0  0  1  0  0  0  0  0999 V2000
    5.8227  -17.3357   25.4628 N   0  0  0  0  0  0  0  0  0  0  0  0
    6.6298  -16.2364   25.0105 C   0  0  1  0  0  0  0  0  0  0  0  0
    7.5665  -15.7324   26.1095 C   0  0  0  0  0  0  0  0  0  0  0  0
    7.4322  -14.3126   26.3724 C   0  0  0  0  0  0  0  0  0  0  0  0
    8.5044  -13.4625   26.2238 C   0  0  0  0  0  0  0  0  0  0  0  0
    8.3835  -12.0924   26.4753 C   0  0  0  0  0  0  0  0  0  0  0  0
    7.1780  -11.5903   26.8759 C   0  0  0  0  0  0  0  0  0  0  0  0
    6.0903  -12.4113   27.0333 C   0  0  0  0  0  0  0  0  0  0  0  0
    6.2298  -13.7804   26.7770 C   0  0  0  0  0  0  0  0  0  0  0  0
    7.5268  -16.6134   23.8843 C   0  0  0  0  0  0  0  0  0  0  0  0
    7.9231  -17.8063   23.8496 O   0  0  0  0  0  0  0  0  0  0  0  0
    8.7400  -14.8762   20.7928 C   0  0  0  0  0  0  0  0  0  0  0  0
    8.6937  -16.1154   21.6947 C   0  0  2  0  0  0  0  0  0  0  0  0
    7.9528  -15.7340   22.8721 N   0  0  0  0  0  0  0  0  0  0  0  0
   10.0962  -16.4826   22.0143 C   0  0  0  0  0  0  0  0  0  0  0  0
   10.7997  -17.0480   21.1358 O   0  0  0  0  0  0  0  0  0  0  0  0
   12.9560  -15.9471   21.4152 N   0  0  0  0  0  0  0  0  0  0  0  0
   13.4680  -15.4267   22.6559 C   0  0  0  0  0  0  0  0  0  0  0  0
   14.3727  -14.5850   22.5761 O   0  0  0  0  0  0  0  0  0  0  0  0
   12.9267  -15.8881   23.9391 C   0  0  0  0  0  0  0  0  0  0  0  0
   11.8584  -16.8993   23.7747 C   0  0  2  0  0  0  0  0  0  0  0  0
   10.6424  -16.2021   23.2935 N   0  0  0  0  0  0  0  0  0  0  0  0
   11.5180  -17.5919   25.0137 C   0  0  0  0  0  0  0  0  0  0  0  0
   12.2261  -18.4630   25.5240 O   0  0  0  0  0  0  0  0  0  0  0  0
   10.3285  -17.2937   25.7125 O   0  0  0  0  0  0  0  0  0  0  0  0
  2  1  1  1
  2 10  1  0
  3  2  1  0
  4  3  1  0
  5  4  2  0
  6  5  1  0
  7  8  1  0
  7  6  2  0
  8  9  2  0
  9  4  1  0
 10 14  1  0
 10 11  2  0
 13 12  1  6
 14 13  1  0
 15 22  1  0
 15 13  1  0
 16 15  2  0
 18 20  1  0
 18 17  1  0
 19 18  2  0
 21 20  1  1
 21 23  1  0
 21 22  1  0
 23 25  1  0
 24 23  2  0
M  END
$$$$
