FAN.pdb
     RDKit          3D

 25 25  0  0  1  0  0  0  0  0999 V2000
    6.6163  -16.6810   25.9134 N   0  0  0  0  0  0  0  0  0  0  0  0
    7.2025  -16.0695   24.7528 C   0  0  1  0  0  0  0  0  0  0  0  0
    8.1516  -14.9314   25.1313 C   0  0  0  0  0  0  0  0  0  0  0  0
    7.4642  -13.7290   25.5611 C   0  0  0  0  0  0  0  0  0  0  0  0
    6.9900  -13.6085   26.8476 C   0  0  0  0  0  0  0  0  0  0  0  0
    6.3261  -12.4527   27.2700 C   0  0  0  0  0  0  0  0  0  0  0  0
    6.1460  -11.4252   26.3881 C   0  0  0  0  0  0  0  0  0  0  0  0
    6.6069  -11.5146   25.0991 C   0  0  0  0  0  0  0  0  0  0  0  0
    7.2692  -12.6793   24.6936 C   0  0  0  0  0  0  0  0  0  0  0  0
    8.0362  -17.0199   23.9675 C   0  0  0  0  0  0  0  0  0  0  0  0
    8.6323  -17.9191   24.6136 O   0  0  0  0  0  0  0  0  0  0  0  0
    8.4376  -17.7515   20.3297 C   0  0  0  0  0  0  0  0  0  0  0  0
    8.8843  -17.9691   21.7803 C   0  0  2  0  0  0  0  0  0  0  0  0
    8.1972  -16.9770   22.5705 N   0  0  0  0  0  0  0  0  0  0  0  0
   10.3575  -17.7908   21.8211 C   0  0  0  0  0  0  0  0  0  0  0  0
   11.0955  -18.6340   21.2464 O   0  0  0  0  0  0  0  0  0  0  0  0
   11.8046  -14.1137   20.0377 N   0  0  0  0  0  0  0  0  0  0  0  0
   12.6673  -15.0907   20.6488 C   0  0  0  0  0  0  0  0  0  0  0  0
   13.3085  -15.8238   19.8842 O   0  0  0  0  0  0  0  0  0  0  0  0
   12.7638  -15.1921   22.1093 C   0  0  0  0  0  0  0  0  0  0  0  0
   12.4028  -16.5372   22.6106 C   0  0  2  0  0  0  0  0  0  0  0  0
   10.9324  -16.6846   22.4988 N   0  0  0  0  0  0  0  0  0  0  0  0
   12.7708  -16.7553   24.0062 C   0  0  0  0  0  0  0  0  0  0  0  0
   13.9308  -16.7024   24.4212 O   0  0  0  0  0  0  0  0  0  0  0  0
   11.7927  -17.0463   24.9813 O   0  0  0  0  0  0  0  0  0  0  0  0
  2  1  1  1
  2 10  1  0
  3  2  1  0
  4  3  1  0
  5  4  2  0
  6  5  1  0
  7  8  1  0
  7  6  2  0
  8  9  2  0
  9  4  1  0
 10 14  1  0
 10 11  2  0
 13 12  1  6
 14 13  1  0
 15 22  1  0
 15 13  1  0
 16 15  2  0
 18 20  1  0
 18 17  1  0
 19 18  2  0
 21 20  1  1
 21 23  1  0
 21 22  1  0
 23 25  1  0
 24 23  2  0
M  END
$$$$
