FAN.pdb
     RDKit          3D

 25 25  0  0  1  0  0  0  0  0999 V2000
    8.9531  -14.3860   23.3653 N   0  0  0  0  0  0  0  0  0  0  0  0
    8.7394  -15.1729   24.5483 C   0  0  1  0  0  0  0  0  0  0  0  0
    7.2734  -15.1532   24.9838 C   0  0  0  0  0  0  0  0  0  0  0  0
    6.8290  -13.8527   25.4469 C   0  0  0  0  0  0  0  0  0  0  0  0
    5.8171  -13.7410   26.3730 C   0  0  0  0  0  0  0  0  0  0  0  0
    5.3826  -12.4911   26.8246 C   0  0  0  0  0  0  0  0  0  0  0  0
    5.9747  -11.3611   26.3363 C   0  0  0  0  0  0  0  0  0  0  0  0
    6.9858  -11.4389   25.4124 C   0  0  0  0  0  0  0  0  0  0  0  0
    7.4079  -12.6988   24.9716 C   0  0  0  0  0  0  0  0  0  0  0  0
    9.0593  -16.6116   24.3412 C   0  0  0  0  0  0  0  0  0  0  0  0
    8.7268  -17.4045   25.2589 O   0  0  0  0  0  0  0  0  0  0  0  0
   10.0533  -18.7746   21.5115 C   0  0  0  0  0  0  0  0  0  0  0  0
   10.0876  -18.5104   23.0215 C   0  0  2  0  0  0  0  0  0  0  0  0
    9.6999  -17.1327   23.2022 N   0  0  0  0  0  0  0  0  0  0  0  0
   11.4755  -18.7633   23.4836 C   0  0  0  0  0  0  0  0  0  0  0  0
   11.9798  -19.9058   23.3207 O   0  0  0  0  0  0  0  0  0  0  0  0
   14.3580  -17.4938   21.9992 N   0  0  0  0  0  0  0  0  0  0  0  0
   14.7621  -16.5513   23.0095 C   0  0  0  0  0  0  0  0  0  0  0  0
   15.4234  -15.5759   22.6293 O   0  0  0  0  0  0  0  0  0  0  0  0
   14.3950  -16.7598   24.4146 C   0  0  0  0  0  0  0  0  0  0  0  0
   13.5956  -17.9890   24.6168 C   0  0  2  0  0  0  0  0  0  0  0  0
   12.2295  -17.7328   24.1026 N   0  0  0  0  0  0  0  0  0  0  0  0
   13.4811  -18.3841   26.0173 C   0  0  0  0  0  0  0  0  0  0  0  0
   12.5333  -18.0669   26.7395 O   0  0  0  0  0  0  0  0  0  0  0  0
   14.4757  -19.1715   26.6364 O   0  0  0  0  0  0  0  0  0  0  0  0
  2  1  1  6
  2 10  1  0
  3  2  1  0
  4  3  1  0
  5  4  2  0
  6  5  1  0
  7  8  1  0
  7  6  2  0
  8  9  2  0
  9  4  1  0
 10 14  1  0
 10 11  2  0
 13 12  1  6
 14 13  1  0
 15 22  1  0
 15 13  1  0
 16 15  2  0
 18 20  1  0
 18 17  1  0
 19 18  2  0
 21 20  1  1
 21 23  1  0
 21 22  1  0
 23 25  1  0
 24 23  2  0
M  END
$$$$
