FAN.pdb
     RDKit          3D

 25 25  0  0  1  0  0  0  0  0999 V2000
    5.9445  -16.7306   22.8742 N   0  0  0  0  0  0  0  0  0  0  0  0
    7.2538  -16.9664   22.3315 C   0  0  1  0  0  0  0  0  0  0  0  0
    8.2119  -15.8163   22.6451 C   0  0  0  0  0  0  0  0  0  0  0  0
    7.9596  -14.6266   21.8553 C   0  0  0  0  0  0  0  0  0  0  0  0
    7.5182  -13.4657   22.4486 C   0  0  0  0  0  0  0  0  0  0  0  0
    7.2725  -12.3143   21.6943 C   0  0  0  0  0  0  0  0  0  0  0  0
    7.4748  -12.3442   20.3438 C   0  0  0  0  0  0  0  0  0  0  0  0
    7.9141  -13.4857   19.7226 C   0  0  0  0  0  0  0  0  0  0  0  0
    8.1550  -14.6290   20.4936 C   0  0  0  0  0  0  0  0  0  0  0  0
    7.9016  -18.1748   22.9103 C   0  0  0  0  0  0  0  0  0  0  0  0
    7.6058  -18.4630   24.0981 O   0  0  0  0  0  0  0  0  0  0  0  0
   10.0650  -20.9319   21.6090 C   0  0  0  0  0  0  0  0  0  0  0  0
    9.4911  -20.1404   22.7902 C   0  0  2  0  0  0  0  0  0  0  0  0
    8.8093  -19.0022   22.2240 N   0  0  0  0  0  0  0  0  0  0  0  0
   10.6330  -19.7352   23.6479 C   0  0  0  0  0  0  0  0  0  0  0  0
   11.3095  -20.6228   24.2315 O   0  0  0  0  0  0  0  0  0  0  0  0
   12.7010  -15.5265   22.0669 N   0  0  0  0  0  0  0  0  0  0  0  0
   13.1241  -16.4775   23.0612 C   0  0  0  0  0  0  0  0  0  0  0  0
   14.0803  -17.2060   22.7645 O   0  0  0  0  0  0  0  0  0  0  0  0
   12.4382  -16.5593   24.3557 C   0  0  0  0  0  0  0  0  0  0  0  0
   12.0617  -17.9456   24.7128 C   0  0  2  0  0  0  0  0  0  0  0  0
   10.9625  -18.3648   23.8116 N   0  0  0  0  0  0  0  0  0  0  0  0
   11.5924  -18.0844   26.0879 C   0  0  0  0  0  0  0  0  0  0  0  0
   12.3462  -18.1613   27.0607 O   0  0  0  0  0  0  0  0  0  0  0  0
   10.2138  -18.1396   26.3857 O   0  0  0  0  0  0  0  0  0  0  0  0
  2  1  1  1
  2 10  1  0
  3  2  1  0
  4  3  1  0
  5  4  2  0
  6  5  1  0
  7  8  1  0
  7  6  2  0
  8  9  2  0
  9  4  1  0
 10 14  1  0
 10 11  2  0
 13 12  1  6
 14 13  1  0
 15 22  1  0
 15 13  1  0
 16 15  2  0
 18 20  1  0
 18 17  1  0
 19 18  2  0
 21 20  1  6
 21 23  1  0
 21 22  1  0
 23 25  1  0
 24 23  2  0
M  END
$$$$
