FAN.pdb
     RDKit          3D

 25 25  0  0  1  0  0  0  0  0999 V2000
    5.8820  -17.3535   25.6653 N   0  0  0  0  0  0  0  0  0  0  0  0
    6.5433  -16.1832   25.1578 C   0  0  1  0  0  0  0  0  0  0  0  0
    7.5297  -15.6053   26.1738 C   0  0  0  0  0  0  0  0  0  0  0  0
    7.3500  -14.1850   26.4053 C   0  0  0  0  0  0  0  0  0  0  0  0
    8.3690  -13.2944   26.1550 C   0  0  0  0  0  0  0  0  0  0  0  0
    8.2041  -11.9236   26.3756 C   0  0  0  0  0  0  0  0  0  0  0  0
    7.0087  -11.4618   26.8485 C   0  0  0  0  0  0  0  0  0  0  0  0
    5.9736  -12.3238   27.1079 C   0  0  0  0  0  0  0  0  0  0  0  0
    6.1567  -13.6930   26.8811 C   0  0  0  0  0  0  0  0  0  0  0  0
    7.3616  -16.4704   23.9483 C   0  0  0  0  0  0  0  0  0  0  0  0
    7.8324  -17.6318   23.8446 O   0  0  0  0  0  0  0  0  0  0  0  0
    8.3162  -14.5367   20.8774 C   0  0  0  0  0  0  0  0  0  0  0  0
    8.3040  -15.8395   21.6860 C   0  0  2  0  0  0  0  0  0  0  0  0
    7.6377  -15.5399   22.9297 N   0  0  0  0  0  0  0  0  0  0  0  0
    9.7170  -16.2439   21.8948 C   0  0  0  0  0  0  0  0  0  0  0  0
   10.3675  -16.7275   20.9309 O   0  0  0  0  0  0  0  0  0  0  0  0
   12.8877  -16.3021   21.0403 N   0  0  0  0  0  0  0  0  0  0  0  0
   13.3057  -15.5128   22.1692 C   0  0  0  0  0  0  0  0  0  0  0  0
   14.2124  -14.6931   21.9710 O   0  0  0  0  0  0  0  0  0  0  0  0
   12.6719  -15.6908   23.4804 C   0  0  0  0  0  0  0  0  0  0  0  0
   11.6282  -16.7403   23.4693 C   0  0  2  0  0  0  0  0  0  0  0  0
   10.3322  -16.0896   23.1641 N   0  0  0  0  0  0  0  0  0  0  0  0
   11.4912  -17.4372   24.7446 C   0  0  0  0  0  0  0  0  0  0  0  0
   12.2024  -18.3862   25.0823 O   0  0  0  0  0  0  0  0  0  0  0  0
   10.5112  -17.0517   25.6845 O   0  0  0  0  0  0  0  0  0  0  0  0
  2  1  1  1
  2 10  1  0
  3  2  1  0
  4  3  1  0
  5  4  2  0
  6  5  1  0
  7  8  1  0
  7  6  2  0
  8  9  2  0
  9  4  1  0
 10 14  1  0
 10 11  2  0
 13 12  1  6
 14 13  1  0
 15 22  1  0
 15 13  1  0
 16 15  2  0
 18 20  1  0
 18 17  1  0
 19 18  2  0
 21 20  1  1
 21 23  1  0
 21 22  1  0
 23 25  1  0
 24 23  2  0
M  END
$$$$
