FAN.pdb
     RDKit          3D

 25 25  0  0  1  0  0  0  0  0999 V2000
    6.6264  -16.4659   25.7874 N   0  0  0  0  0  0  0  0  0  0  0  0
    6.9294  -15.4232   24.8465 C   0  0  1  0  0  0  0  0  0  0  0  0
    8.0157  -14.4841   25.3731 C   0  0  0  0  0  0  0  0  0  0  0  0
    7.4941  -13.3960   26.1774 C   0  0  0  0  0  0  0  0  0  0  0  0
    6.1445  -13.1281   26.2126 C   0  0  0  0  0  0  0  0  0  0  0  0
    5.6335  -12.0808   26.9854 C   0  0  0  0  0  0  0  0  0  0  0  0
    6.4911  -11.3106   27.7182 C   0  0  0  0  0  0  0  0  0  0  0  0
    7.8414  -11.5520   27.7042 C   0  0  0  0  0  0  0  0  0  0  0  0
    8.3354  -12.6047   26.9248 C   0  0  0  0  0  0  0  0  0  0  0  0
    7.4676  -15.9520   23.5636 C   0  0  0  0  0  0  0  0  0  0  0  0
    7.8222  -17.1584   23.5515 O   0  0  0  0  0  0  0  0  0  0  0  0
    7.7923  -14.5910   20.0861 C   0  0  0  0  0  0  0  0  0  0  0  0
    7.9758  -15.7316   21.0943 C   0  0  2  0  0  0  0  0  0  0  0  0
    7.6026  -15.1999   22.3822 N   0  0  0  0  0  0  0  0  0  0  0  0
    9.4039  -16.1348   21.0511 C   0  0  0  0  0  0  0  0  0  0  0  0
    9.8510  -16.7067   20.0220 O   0  0  0  0  0  0  0  0  0  0  0  0
   13.4017  -16.1194   19.7202 N   0  0  0  0  0  0  0  0  0  0  0  0
   12.8265  -15.1087   20.5686 C   0  0  0  0  0  0  0  0  0  0  0  0
   12.5464  -14.0268   20.0355 O   0  0  0  0  0  0  0  0  0  0  0  0
   12.5938  -15.3733   21.9929 C   0  0  0  0  0  0  0  0  0  0  0  0
   11.6200  -16.4653   22.2164 C   0  0  2  0  0  0  0  0  0  0  0  0
   10.2594  -15.8811   22.1544 N   0  0  0  0  0  0  0  0  0  0  0  0
   11.7686  -17.1204   23.5123 C   0  0  0  0  0  0  0  0  0  0  0  0
   10.8944  -17.1163   24.3820 O   0  0  0  0  0  0  0  0  0  0  0  0
   12.9522  -17.8119   23.8483 O   0  0  0  0  0  0  0  0  0  0  0  0
  2  1  1  1
  2 10  1  0
  3  2  1  0
  4  3  1  0
  5  4  2  0
  6  5  1  0
  7  8  1  0
  7  6  2  0
  8  9  2  0
  9  4  1  0
 10 14  1  0
 10 11  2  0
 13 12  1  6
 14 13  1  0
 15 22  1  0
 15 13  1  0
 16 15  2  0
 18 20  1  0
 18 17  1  0
 19 18  2  0
 21 20  1  1
 21 23  1  0
 21 22  1  0
 23 25  1  0
 24 23  2  0
M  END
$$$$
