MNA.pdb
     RDKit          3D

 22 21  0  0  1  0  0  0  0  0999 V2000
    5.0264  -11.1388   26.2834 C   0  0  0  0  0  0  0  0  0  0  0  0
    6.1784  -12.3316   25.6052 S   0  0  0  0  0  0  0  0  0  0  0  0
    5.3386  -13.9323   25.3902 C   0  0  0  0  0  0  0  0  0  0  0  0
    6.2816  -14.9684   24.8427 C   0  0  0  0  0  0  0  0  0  0  0  0
    7.7249  -14.6352   25.0379 C   0  0  2  0  0  0  0  0  0  0  0  0
    8.0744  -13.4528   24.2266 N   0  0  0  0  0  0  0  0  0  0  0  0
    8.6728  -15.7353   24.7845 C   0  0  0  0  0  0  0  0  0  0  0  0
    8.4618  -16.9090   25.2119 O   0  0  0  0  0  0  0  0  0  0  0  0
   13.0206  -18.3232   22.6619 N   0  0  0  0  0  0  0  0  0  0  0  0
   13.1580  -17.0098   23.1805 C   0  0  0  0  0  0  0  0  0  0  0  0
   14.2812  -16.6438   23.6731 O   0  0  0  0  0  0  0  0  0  0  0  0
   12.0013  -16.0844   23.1463 C   0  0  0  0  0  0  0  0  0  0  0  0
   10.9837  -16.4997   24.1753 C   0  0  2  0  0  0  0  0  0  0  0  0
    9.8753  -15.5824   24.0580 N   0  0  0  0  0  0  0  0  0  0  0  0
   11.5296  -16.5301   25.5442 C   0  0  0  0  0  0  0  0  0  0  0  0
   12.5083  -17.2699   25.7890 O   0  0  0  0  0  0  0  0  0  0  0  0
   11.3327  -14.5982   28.7274 C   0  0  0  0  0  0  0  0  0  0  0  0
   11.5746  -15.8363   27.8954 C   0  0  2  0  0  0  0  0  0  0  0  0
   10.9878  -15.7522   26.5956 N   0  0  0  0  0  0  0  0  0  0  0  0
   11.0869  -17.0618   28.5813 C   0  0  0  0  0  0  0  0  0  0  0  0
   11.5825  -17.4591   29.8130 O   0  0  0  0  0  0  0  0  0  0  0  0
   10.2037  -17.7731   28.0478 O   0  0  0  0  0  0  0  0  0  0  0  0
  2  1  1  0
  3  2  1  0
  4  5  1  0
  4  3  1  0
  5  7  1  0
  5  6  1  6
  7  8  2  0
  9 10  1  0
 10 11  2  0
 12 10  1  0
 13 12  1  6
 14 13  1  0
 14  7  1  0
 15 16  2  0
 15 13  1  0
 18 17  1  1
 18 19  1  0
 18 20  1  0
 19 15  1  0
 20 21  1  0
 22 20  2  0
M  END
$$$$
