MNA.pdb
     RDKit          3D

 22 21  0  0  1  0  0  0  0  0999 V2000
    7.9876  -11.6274   27.5904 C   0  0  0  0  0  0  0  0  0  0  0  0
    6.3692  -11.6784   26.8237 S   0  0  0  0  0  0  0  0  0  0  0  0
    6.4561  -12.6488   25.2860 C   0  0  0  0  0  0  0  0  0  0  0  0
    6.7731  -14.0907   25.5736 C   0  0  0  0  0  0  0  0  0  0  0  0
    7.8607  -14.6528   24.7173 C   0  0  2  0  0  0  0  0  0  0  0  0
    7.6219  -14.2846   23.3081 N   0  0  0  0  0  0  0  0  0  0  0  0
    8.0844  -16.1044   24.8423 C   0  0  0  0  0  0  0  0  0  0  0  0
    8.2392  -16.6605   25.9699 O   0  0  0  0  0  0  0  0  0  0  0  0
    5.6656  -18.8837   24.2013 N   0  0  0  0  0  0  0  0  0  0  0  0
    6.2883  -18.8266   22.9278 C   0  0  0  0  0  0  0  0  0  0  0  0
    5.5889  -18.5213   21.9003 O   0  0  0  0  0  0  0  0  0  0  0  0
    7.7350  -19.1227   22.8063 C   0  0  0  0  0  0  0  0  0  0  0  0
    8.5001  -18.3793   23.8688 C   0  0  2  0  0  0  0  0  0  0  0  0
    8.1444  -16.9863   23.7395 N   0  0  0  0  0  0  0  0  0  0  0  0
    9.9569  -18.5853   23.7787 C   0  0  0  0  0  0  0  0  0  0  0  0
   10.4201  -19.7289   23.9854 O   0  0  0  0  0  0  0  0  0  0  0  0
   13.0833  -16.7831   22.7870 C   0  0  0  0  0  0  0  0  0  0  0  0
   12.2596  -17.7654   23.5873 C   0  0  2  0  0  0  0  0  0  0  0  0
   10.8547  -17.5363   23.4664 N   0  0  0  0  0  0  0  0  0  0  0  0
   12.6414  -17.7584   25.0241 C   0  0  0  0  0  0  0  0  0  0  0  0
   13.8598  -18.2534   25.4614 O   0  0  0  0  0  0  0  0  0  0  0  0
   11.8533  -17.2983   25.8831 O   0  0  0  0  0  0  0  0  0  0  0  0
  2  1  1  0
  3  2  1  0
  4  5  1  0
  4  3  1  0
  5  7  1  0
  5  6  1  6
  7  8  2  0
  9 10  1  0
 10 11  2  0
 12 10  1  0
 13 12  1  6
 14 13  1  0
 14  7  1  0
 15 16  2  0
 15 13  1  0
 18 17  1  6
 18 19  1  0
 18 20  1  0
 19 15  1  0
 20 21  1  0
 22 20  2  0
M  END
$$$$
