MNA.pdb
     RDKit          3D

 22 21  0  0  1  0  0  0  0  0999 V2000
    5.8196  -12.0620   26.6107 C   0  0  0  0  0  0  0  0  0  0  0  0
    6.5223  -11.8413   24.9775 S   0  0  0  0  0  0  0  0  0  0  0  0
    5.9947  -13.2099   23.8994 C   0  0  0  0  0  0  0  0  0  0  0  0
    6.6953  -14.4890   24.2673 C   0  0  0  0  0  0  0  0  0  0  0  0
    8.1855  -14.3811   24.2752 C   0  0  2  0  0  0  0  0  0  0  0  0
    8.6520  -13.8697   22.9716 N   0  0  0  0  0  0  0  0  0  0  0  0
    8.9117  -15.6113   24.6385 C   0  0  0  0  0  0  0  0  0  0  0  0
    8.4276  -16.4567   25.4483 O   0  0  0  0  0  0  0  0  0  0  0  0
   10.9091  -18.5186   21.9339 N   0  0  0  0  0  0  0  0  0  0  0  0
   11.6164  -17.3518   22.3226 C   0  0  0  0  0  0  0  0  0  0  0  0
   11.8031  -16.4171   21.4683 O   0  0  0  0  0  0  0  0  0  0  0  0
   12.1290  -17.2337   23.7078 C   0  0  0  0  0  0  0  0  0  0  0  0
   10.9823  -17.0282   24.6616 C   0  0  2  0  0  0  0  0  0  0  0  0
   10.1848  -15.9503   24.1270 N   0  0  0  0  0  0  0  0  0  0  0  0
   11.4238  -16.7536   26.0409 C   0  0  0  0  0  0  0  0  0  0  0  0
   12.3069  -17.4795   26.5493 O   0  0  0  0  0  0  0  0  0  0  0  0
   10.8773  -14.2540   28.7926 C   0  0  0  0  0  0  0  0  0  0  0  0
   11.2510  -15.5892   28.1916 C   0  0  2  0  0  0  0  0  0  0  0  0
   10.8858  -15.6973   26.8147 N   0  0  0  0  0  0  0  0  0  0  0  0
   10.6557  -16.7190   28.9528 C   0  0  0  0  0  0  0  0  0  0  0  0
   11.0550  -17.0242   30.2443 O   0  0  0  0  0  0  0  0  0  0  0  0
    9.7666  -17.4313   28.4305 O   0  0  0  0  0  0  0  0  0  0  0  0
  2  1  1  0
  3  2  1  0
  4  5  1  0
  4  3  1  0
  5  7  1  0
  5  6  1  6
  7  8  2  0
  9 10  1  0
 10 11  2  0
 12 10  1  0
 13 12  1  6
 14 13  1  0
 14  7  1  0
 15 16  2  0
 15 13  1  0
 18 17  1  1
 18 19  1  0
 18 20  1  0
 19 15  1  0
 20 21  1  0
 22 20  2  0
M  END
$$$$
