MNA.pdb
     RDKit          3D

 22 21  0  0  1  0  0  0  0  0999 V2000
    7.6453  -11.1254   26.5115 C   0  0  0  0  0  0  0  0  0  0  0  0
    5.9962  -11.7921   26.2971 S   0  0  0  0  0  0  0  0  0  0  0  0
    5.9319  -12.7716   24.7641 C   0  0  0  0  0  0  0  0  0  0  0  0
    6.5045  -14.1462   24.9763 C   0  0  0  0  0  0  0  0  0  0  0  0
    7.5627  -14.5189   23.9895 C   0  0  2  0  0  0  0  0  0  0  0  0
    6.9333  -14.9176   22.7154 N   0  0  0  0  0  0  0  0  0  0  0  0
    8.5191  -15.5468   24.4384 C   0  0  0  0  0  0  0  0  0  0  0  0
    8.2453  -16.3453   25.3830 O   0  0  0  0  0  0  0  0  0  0  0  0
   11.6259  -16.8380   20.9007 N   0  0  0  0  0  0  0  0  0  0  0  0
   11.3465  -17.4061   22.1703 C   0  0  0  0  0  0  0  0  0  0  0  0
   10.6373  -18.4694   22.2398 O   0  0  0  0  0  0  0  0  0  0  0  0
   11.8765  -16.7604   23.3940 C   0  0  0  0  0  0  0  0  0  0  0  0
   10.7815  -16.6316   24.4194 C   0  0  2  0  0  0  0  0  0  0  0  0
    9.7989  -15.7296   23.8674 N   0  0  0  0  0  0  0  0  0  0  0  0
   11.2732  -16.1728   25.7312 C   0  0  0  0  0  0  0  0  0  0  0  0
   12.2125  -15.3475   25.7703 O   0  0  0  0  0  0  0  0  0  0  0  0
   10.4364  -14.9739   28.7313 C   0  0  0  0  0  0  0  0  0  0  0  0
   11.2439  -16.1272   28.1824 C   0  0  2  0  0  0  0  0  0  0  0  0
   10.7220  -16.6314   26.9518 N   0  0  0  0  0  0  0  0  0  0  0  0
   11.3540  -17.2366   29.1659 C   0  0  0  0  0  0  0  0  0  0  0  0
   10.8706  -18.5070   28.8955 O   0  0  0  0  0  0  0  0  0  0  0  0
   11.8941  -17.0398   30.2796 O   0  0  0  0  0  0  0  0  0  0  0  0
  2  1  1  0
  3  2  1  0
  4  5  1  0
  4  3  1  0
  5  7  1  0
  5  6  1  6
  7  8  2  0
  9 10  1  0
 10 11  2  0
 12 10  1  0
 13 12  1  6
 14 13  1  0
 14  7  1  0
 15 16  2  0
 15 13  1  0
 18 17  1  1
 18 19  1  0
 18 20  1  0
 19 15  1  0
 20 21  1  0
 22 20  2  0
M  END
$$$$
