MNA.pdb
     RDKit          3D

 22 21  0  0  1  0  0  0  0  0999 V2000
    8.9849  -11.5022   19.3793 C   0  0  0  0  0  0  0  0  0  0  0  0
    7.5185  -12.4739   19.0394 S   0  0  0  0  0  0  0  0  0  0  0  0
    7.8850  -14.2377   19.3004 C   0  0  0  0  0  0  0  0  0  0  0  0
    9.2856  -14.5694   18.8638 C   0  0  0  0  0  0  0  0  0  0  0  0
    9.6771  -15.9890   19.1164 C   0  0  2  0  0  0  0  0  0  0  0  0
    8.8715  -16.5350   20.2259 N   0  0  0  0  0  0  0  0  0  0  0  0
   11.1129  -16.2211   19.3561 C   0  0  0  0  0  0  0  0  0  0  0  0
   11.6701  -17.3185   19.0559 O   0  0  0  0  0  0  0  0  0  0  0  0
   13.0185  -14.8208   17.9406 N   0  0  0  0  0  0  0  0  0  0  0  0
   14.0486  -14.1924   18.6867 C   0  0  0  0  0  0  0  0  0  0  0  0
   14.8204  -13.3520   18.1066 O   0  0  0  0  0  0  0  0  0  0  0  0
   14.2168  -14.5190   20.1221 C   0  0  0  0  0  0  0  0  0  0  0  0
   13.2507  -15.6047   20.5159 C   0  0  2  0  0  0  0  0  0  0  0  0
   11.9773  -15.2612   19.9293 N   0  0  0  0  0  0  0  0  0  0  0  0
   13.1528  -15.7854   21.9756 C   0  0  0  0  0  0  0  0  0  0  0  0
   14.0369  -15.2878   22.7075 O   0  0  0  0  0  0  0  0  0  0  0  0
   10.7295  -16.2575   24.6014 C   0  0  0  0  0  0  0  0  0  0  0  0
   12.0676  -16.6296   24.0056 C   0  0  2  0  0  0  0  0  0  0  0  0
   12.0939  -16.5023   22.5829 N   0  0  0  0  0  0  0  0  0  0  0  0
   12.4738  -18.0077   24.3878 C   0  0  0  0  0  0  0  0  0  0  0  0
   12.6839  -18.3705   25.7087 O   0  0  0  0  0  0  0  0  0  0  0  0
   12.6390  -18.8830   23.5062 O   0  0  0  0  0  0  0  0  0  0  0  0
  2  1  1  0
  3  2  1  0
  4  5  1  0
  4  3  1  0
  5  7  1  0
  5  6  1  1
  7  8  2  0
  9 10  1  0
 10 11  2  0
 12 10  1  0
 13 12  1  1
 14 13  1  0
 14  7  1  0
 15 16  2  0
 15 13  1  0
 18 17  1  6
 18 19  1  0
 18 20  1  0
 19 15  1  0
 20 21  1  0
 22 20  2  0
M  END
$$$$
