MNA.pdb
     RDKit          3D

 22 21  0  0  1  0  0  0  0  0999 V2000
    6.5153  -11.2084   25.7459 C   0  0  0  0  0  0  0  0  0  0  0  0
    5.1819  -12.2865   26.2652 S   0  0  0  0  0  0  0  0  0  0  0  0
    5.2484  -13.8365   25.3128 C   0  0  0  0  0  0  0  0  0  0  0  0
    6.6039  -14.4795   25.4203 C   0  0  0  0  0  0  0  0  0  0  0  0
    6.7805  -15.6691   24.5338 C   0  0  2  0  0  0  0  0  0  0  0  0
    5.7682  -16.6901   24.8676 N   0  0  0  0  0  0  0  0  0  0  0  0
    8.1300  -16.2620   24.5240 C   0  0  0  0  0  0  0  0  0  0  0  0
    8.3593  -17.4058   25.0179 O   0  0  0  0  0  0  0  0  0  0  0  0
   13.0046  -17.2456   22.1542 N   0  0  0  0  0  0  0  0  0  0  0  0
   12.7601  -16.0599   22.8940 C   0  0  0  0  0  0  0  0  0  0  0  0
   13.7283  -15.4942   23.5111 O   0  0  0  0  0  0  0  0  0  0  0  0
   11.3904  -15.4968   22.9429 C   0  0  0  0  0  0  0  0  0  0  0  0
   10.5820  -16.2093   23.9944 C   0  0  2  0  0  0  0  0  0  0  0  0
    9.2637  -15.6215   23.9747 N   0  0  0  0  0  0  0  0  0  0  0  0
   11.1939  -16.1420   25.3338 C   0  0  0  0  0  0  0  0  0  0  0  0
   12.2696  -16.7469   25.5386 O   0  0  0  0  0  0  0  0  0  0  0  0
   10.9560  -14.0999   28.4352 C   0  0  0  0  0  0  0  0  0  0  0  0
   11.2979  -15.3452   27.6502 C   0  0  2  0  0  0  0  0  0  0  0  0
   10.6098  -15.4171   26.4003 N   0  0  0  0  0  0  0  0  0  0  0  0
   11.0304  -16.5790   28.4353 C   0  0  0  0  0  0  0  0  0  0  0  0
   10.1431  -17.5491   27.9970 O   0  0  0  0  0  0  0  0  0  0  0  0
   11.6115  -16.7675   29.5296 O   0  0  0  0  0  0  0  0  0  0  0  0
  2  1  1  0
  3  2  1  0
  4  5  1  0
  4  3  1  0
  5  7  1  0
  5  6  1  1
  7  8  2  0
  9 10  1  0
 10 11  2  0
 12 10  1  0
 13 12  1  6
 14 13  1  0
 14  7  1  0
 15 16  2  0
 15 13  1  0
 18 17  1  1
 18 19  1  0
 18 20  1  0
 19 15  1  0
 20 21  1  0
 22 20  2  0
M  END
$$$$
