MNA.pdb
     RDKit          3D

 22 21  0  0  1  0  0  0  0  0999 V2000
    5.7431  -11.2840   26.7199 C   0  0  0  0  0  0  0  0  0  0  0  0
    7.1763  -12.3337   26.9521 S   0  0  0  0  0  0  0  0  0  0  0  0
    6.6377  -14.0607   27.1543 C   0  0  0  0  0  0  0  0  0  0  0  0
    6.3898  -14.7096   25.8201 C   0  0  0  0  0  0  0  0  0  0  0  0
    7.6278  -15.2187   25.1565 C   0  0  2  0  0  0  0  0  0  0  0  0
    8.7905  -14.4266   25.6027 N   0  0  0  0  0  0  0  0  0  0  0  0
    7.5807  -15.2849   23.6847 C   0  0  0  0  0  0  0  0  0  0  0  0
    6.7693  -16.0447   23.0770 O   0  0  0  0  0  0  0  0  0  0  0  0
    8.7214  -12.3571   18.5662 N   0  0  0  0  0  0  0  0  0  0  0  0
    8.1138  -13.3707   19.3512 C   0  0  0  0  0  0  0  0  0  0  0  0
    7.5101  -14.3378   18.7695 O   0  0  0  0  0  0  0  0  0  0  0  0
    8.1851  -13.2936   20.8292 C   0  0  0  0  0  0  0  0  0  0  0  0
    8.4188  -14.6663   21.4020 C   0  0  2  0  0  0  0  0  0  0  0  0
    8.4180  -14.5232   22.8384 N   0  0  0  0  0  0  0  0  0  0  0  0
    9.6616  -15.2897   20.9124 C   0  0  0  0  0  0  0  0  0  0  0  0
    9.7547  -15.5821   19.6995 O   0  0  0  0  0  0  0  0  0  0  0  0
   13.1503  -15.6090   21.2477 C   0  0  0  0  0  0  0  0  0  0  0  0
   11.8390  -16.3600   21.2659 C   0  0  2  0  0  0  0  0  0  0  0  0
   10.7570  -15.5712   21.7638 N   0  0  0  0  0  0  0  0  0  0  0  0
   11.9384  -17.6179   22.0519 C   0  0  0  0  0  0  0  0  0  0  0  0
   12.9443  -18.5447   21.8284 O   0  0  0  0  0  0  0  0  0  0  0  0
   11.0977  -17.8698   22.9466 O   0  0  0  0  0  0  0  0  0  0  0  0
  2  1  1  0
  3  2  1  0
  4  5  1  0
  4  3  1  0
  5  7  1  0
  5  6  1  6
  7  8  2  0
  9 10  1  0
 10 11  2  0
 12 10  1  0
 13 12  1  6
 14 13  1  0
 14  7  1  0
 15 16  2  0
 15 13  1  0
 18 17  1  1
 18 19  1  0
 18 20  1  0
 19 15  1  0
 20 21  1  0
 22 20  2  0
M  END
$$$$
