MNA.pdb
     RDKit          3D

 22 21  0  0  1  0  0  0  0  0999 V2000
    6.9381  -12.0344   26.5458 C   0  0  0  0  0  0  0  0  0  0  0  0
    8.1482  -13.2447   27.0758 S   0  0  0  0  0  0  0  0  0  0  0  0
    7.8970  -14.7966   26.1580 C   0  0  0  0  0  0  0  0  0  0  0  0
    6.4530  -14.9702   25.7743 C   0  0  0  0  0  0  0  0  0  0  0  0
    6.1929  -16.1750   24.9299 C   0  0  2  0  0  0  0  0  0  0  0  0
    6.5707  -17.3924   25.6741 N   0  0  0  0  0  0  0  0  0  0  0  0
    6.8221  -16.1670   23.5970 C   0  0  0  0  0  0  0  0  0  0  0  0
    7.3324  -17.2118   23.0942 O   0  0  0  0  0  0  0  0  0  0  0  0
    8.4499  -12.5096   18.9990 N   0  0  0  0  0  0  0  0  0  0  0  0
    7.7757  -13.6694   19.4605 C   0  0  0  0  0  0  0  0  0  0  0  0
    7.6452  -14.6731   18.6769 O   0  0  0  0  0  0  0  0  0  0  0  0
    7.2320  -13.7007   20.8385 C   0  0  0  0  0  0  0  0  0  0  0  0
    7.5383  -15.0285   21.4789 C   0  0  2  0  0  0  0  0  0  0  0  0
    6.9101  -15.0183   22.7784 N   0  0  0  0  0  0  0  0  0  0  0  0
    8.9837  -15.3035   21.5692 C   0  0  0  0  0  0  0  0  0  0  0  0
    9.6371  -15.4594   20.5138 O   0  0  0  0  0  0  0  0  0  0  0  0
   11.9409  -14.6659   23.3278 C   0  0  0  0  0  0  0  0  0  0  0  0
   11.0429  -15.7685   22.8163 C   0  0  2  0  0  0  0  0  0  0  0  0
    9.6631  -15.3982   22.8076 N   0  0  0  0  0  0  0  0  0  0  0  0
   11.2150  -17.0222   23.5965 C   0  0  0  0  0  0  0  0  0  0  0  0
   10.1386  -17.6889   24.1598 O   0  0  0  0  0  0  0  0  0  0  0  0
   12.3582  -17.5076   23.7644 O   0  0  0  0  0  0  0  0  0  0  0  0
  2  1  1  0
  3  2  1  0
  4  5  1  0
  4  3  1  0
  5  7  1  0
  5  6  1  1
  7  8  2  0
  9 10  1  0
 10 11  2  0
 12 10  1  0
 13 12  1  1
 14 13  1  0
 14  7  1  0
 15 16  2  0
 15 13  1  0
 18 17  1  1
 18 19  1  0
 18 20  1  0
 19 15  1  0
 20 21  1  0
 22 20  2  0
M  END
$$$$
