MNA.pdb
     RDKit          3D

 22 21  0  0  1  0  0  0  0  0999 V2000
    8.4183  -11.3108   19.2992 C   0  0  0  0  0  0  0  0  0  0  0  0
    7.7424  -12.3018   20.6299 S   0  0  0  0  0  0  0  0  0  0  0  0
    8.4639  -13.9719   20.5701 C   0  0  0  0  0  0  0  0  0  0  0  0
    7.9712  -14.8151   21.7141 C   0  0  0  0  0  0  0  0  0  0  0  0
    8.6198  -16.1585   21.7978 C   0  0  2  0  0  0  0  0  0  0  0  0
    8.0790  -17.0363   20.7417 N   0  0  0  0  0  0  0  0  0  0  0  0
    8.5437  -16.8222   23.1118 C   0  0  0  0  0  0  0  0  0  0  0  0
    8.0041  -17.9594   23.2541 O   0  0  0  0  0  0  0  0  0  0  0  0
   11.9706  -19.8497   25.3024 N   0  0  0  0  0  0  0  0  0  0  0  0
   11.7364  -18.4699   25.5352 C   0  0  0  0  0  0  0  0  0  0  0  0
   12.2327  -17.9161   26.5770 O   0  0  0  0  0  0  0  0  0  0  0  0
   10.9211  -17.6930   24.5724 C   0  0  0  0  0  0  0  0  0  0  0  0
    9.7718  -17.0356   25.2893 C   0  0  2  0  0  0  0  0  0  0  0  0
    9.0550  -16.2616   24.3041 N   0  0  0  0  0  0  0  0  0  0  0  0
   10.2036  -16.2084   26.4305 C   0  0  0  0  0  0  0  0  0  0  0  0
   10.7647  -16.7628   27.4015 O   0  0  0  0  0  0  0  0  0  0  0  0
    8.8738  -13.2645   27.9971 C   0  0  0  0  0  0  0  0  0  0  0  0
   10.0823  -14.1306   27.7263 C   0  0  2  0  0  0  0  0  0  0  0  0
   10.0073  -14.8070   26.4702 N   0  0  0  0  0  0  0  0  0  0  0  0
   10.3001  -15.1228   28.8118 C   0  0  0  0  0  0  0  0  0  0  0  0
   10.8484  -14.7650   30.0332 O   0  0  0  0  0  0  0  0  0  0  0  0
    9.9882  -16.3243   28.6387 O   0  0  0  0  0  0  0  0  0  0  0  0
  2  1  1  0
  3  2  1  0
  4  5  1  0
  4  3  1  0
  5  7  1  0
  5  6  1  6
  7  8  2  0
  9 10  1  0
 10 11  2  0
 12 10  1  0
 13 12  1  6
 14 13  1  0
 14  7  1  0
 15 16  2  0
 15 13  1  0
 18 17  1  1
 18 19  1  0
 18 20  1  0
 19 15  1  0
 20 21  1  0
 22 20  2  0
M  END
$$$$
