DMC.pdb
     RDKit          3D

 23 22  0  0  1  0  0  0  0  0999 V2000
    9.9690  -16.0029   20.3353 N   0  0  0  0  0  0  0  0  0  0  0  0
    9.9123  -16.9313   21.4398 C   0  0  1  0  0  0  0  0  0  0  0  0
   11.1249  -17.8118   21.3978 C   0  0  0  0  0  0  0  0  0  0  0  0
   10.9581  -18.7760   20.2830 C   0  0  0  0  0  0  0  0  0  0  0  0
   11.2354  -18.4727   19.1033 O   0  0  0  0  0  0  0  0  0  0  0  0
    9.7311  -16.1953   22.6819 C   0  0  0  0  0  0  0  0  0  0  0  0
   10.4115  -15.1592   22.8881 O   0  0  0  0  0  0  0  0  0  0  0  0
   10.4802  -20.0402   20.5873 O   0  0  0  0  0  0  0  0  0  0  0  0
    6.4122  -11.7800   26.3511 C   0  0  0  0  0  0  0  0  0  0  0  0
    7.3828  -13.3047   26.2930 S   0  0  0  0  0  0  0  0  0  0  0  0
    6.4361  -14.5458   25.3527 C   0  0  0  0  0  0  0  0  0  0  0  0
    7.1676  -15.8490   25.2848 C   0  0  0  0  0  0  0  0  0  0  0  0
    8.6148  -15.7146   24.9044 C   0  0  2  0  0  0  0  0  0  0  0  0
    8.8232  -16.5656   23.7045 N   0  0  0  0  0  0  0  0  0  0  0  0
    9.5671  -16.2190   25.9047 C   0  0  0  0  0  0  0  0  0  0  0  0
   10.0185  -17.4198   25.8720 O   0  0  0  0  0  0  0  0  0  0  0  0
   10.0813  -15.4482   26.9866 N   0  0  0  0  0  0  0  0  0  0  0  0
   11.0008  -15.9927   27.9856 C   0  0  1  0  0  0  0  0  0  0  0  0
   11.2510  -14.8905   28.9932 C   0  0  0  0  0  0  0  0  0  0  0  0
   10.8206  -13.2720   28.3169 S   0  0  0  0  0  0  0  0  0  0  0  0
   10.4641  -17.1925   28.6260 C   0  0  0  0  0  0  0  0  0  0  0  0
   11.1733  -17.8531   29.4202 O   0  0  0  0  0  0  0  0  0  0  0  0
    9.1758  -17.6351   28.3831 O   0  0  0  0  0  0  0  0  0  0  0  0
  2  1  1  6
  2  3  1  0
  3  4  1  0
  4  8  1  0
  5  4  2  0
  6  2  1  0
  7  6  2  0
  9 10  1  0
 10 11  1  0
 11 12  1  0
 13 12  1  1
 13 15  1  0
 13 14  1  0
 14  6  1  0
 15 17  1  0
 16 15  2  0
 18 17  1  0
 18 21  1  0
 18 19  1  1
 20 19  1  0
 21 22  2  0
 21 23  1  0
M  END
$$$$
