DMC.pdb
     RDKit          3D

 23 22  0  0  1  0  0  0  0  0999 V2000
    8.6991  -17.9643   21.1809 N   0  0  0  0  0  0  0  0  0  0  0  0
   10.0257  -17.3990   21.2571 C   0  0  1  0  0  0  0  0  0  0  0  0
   10.4118  -16.8806   19.9046 C   0  0  0  0  0  0  0  0  0  0  0  0
   10.4163  -18.0209   18.9558 C   0  0  0  0  0  0  0  0  0  0  0  0
   10.8530  -19.1454   19.2804 O   0  0  0  0  0  0  0  0  0  0  0  0
   10.0715  -16.4147   22.3277 C   0  0  0  0  0  0  0  0  0  0  0  0
   11.0921  -15.6930   22.4568 O   0  0  0  0  0  0  0  0  0  0  0  0
    9.9166  -17.8045   17.6820 O   0  0  0  0  0  0  0  0  0  0  0  0
    5.9560  -11.6273   26.9927 C   0  0  0  0  0  0  0  0  0  0  0  0
    5.9377  -13.0106   25.8282 S   0  0  0  0  0  0  0  0  0  0  0  0
    7.6494  -13.5988   25.6170 C   0  0  0  0  0  0  0  0  0  0  0  0
    7.7342  -14.6542   24.5602 C   0  0  0  0  0  0  0  0  0  0  0  0
    9.1282  -15.1575   24.3142 C   0  0  2  0  0  0  0  0  0  0  0  0
    9.0275  -16.2007   23.2611 N   0  0  0  0  0  0  0  0  0  0  0  0
    9.7558  -15.8281   25.4623 C   0  0  0  0  0  0  0  0  0  0  0  0
    9.8115  -17.1065   25.5585 O   0  0  0  0  0  0  0  0  0  0  0  0
   10.3578  -15.1492   26.5604 N   0  0  0  0  0  0  0  0  0  0  0  0
   11.2050  -15.8223   27.5448 C   0  0  1  0  0  0  0  0  0  0  0  0
   11.6098  -14.7740   28.5597 C   0  0  0  0  0  0  0  0  0  0  0  0
   10.1982  -13.7649   29.0606 S   0  0  0  0  0  0  0  0  0  0  0  0
   10.5183  -16.9460   28.1798 C   0  0  0  0  0  0  0  0  0  0  0  0
   11.1263  -17.6742   28.9982 O   0  0  0  0  0  0  0  0  0  0  0  0
    9.1948  -17.2417   27.9051 O   0  0  0  0  0  0  0  0  0  0  0  0
  2  1  1  6
  2  3  1  0
  3  4  1  0
  4  8  1  0
  5  4  2  0
  6  2  1  0
  7  6  2  0
  9 10  1  0
 10 11  1  0
 11 12  1  0
 13 12  1  1
 13 15  1  0
 13 14  1  0
 14  6  1  0
 15 17  1  0
 16 15  2  0
 18 17  1  0
 18 21  1  0
 18 19  1  1
 20 19  1  0
 21 22  2  0
 21 23  1  0
M  END
$$$$
