DMC.pdb
     RDKit          3D

 23 22  0  0  1  0  0  0  0  0999 V2000
   10.1028  -16.1765   19.9934 N   0  0  0  0  0  0  0  0  0  0  0  0
    9.0734  -16.6875   20.8675 C   0  0  1  0  0  0  0  0  0  0  0  0
    9.1928  -18.1801   20.9390 C   0  0  0  0  0  0  0  0  0  0  0  0
    8.9002  -18.7326   19.5937 C   0  0  0  0  0  0  0  0  0  0  0  0
    8.0090  -18.2498   18.8635 O   0  0  0  0  0  0  0  0  0  0  0  0
    9.1445  -16.0042   22.1502 C   0  0  0  0  0  0  0  0  0  0  0  0
   10.2689  -15.7386   22.6445 O   0  0  0  0  0  0  0  0  0  0  0  0
    9.6511  -19.8133   19.1610 O   0  0  0  0  0  0  0  0  0  0  0  0
    7.5425  -11.7970   27.8945 C   0  0  0  0  0  0  0  0  0  0  0  0
    7.7909  -12.4280   26.2182 S   0  0  0  0  0  0  0  0  0  0  0  0
    6.7181  -13.8838   25.9938 C   0  0  0  0  0  0  0  0  0  0  0  0
    6.8027  -14.4100   24.5959 C   0  0  0  0  0  0  0  0  0  0  0  0
    8.1590  -14.9410   24.2275 C   0  0  2  0  0  0  0  0  0  0  0  0
    8.0149  -15.6042   22.9058 N   0  0  0  0  0  0  0  0  0  0  0  0
    8.6813  -15.9813   25.1258 C   0  0  0  0  0  0  0  0  0  0  0  0
    8.0862  -17.1070   25.2846 O   0  0  0  0  0  0  0  0  0  0  0  0
    9.8752  -15.8568   25.8928 N   0  0  0  0  0  0  0  0  0  0  0  0
   10.3275  -16.8817   26.8335 C   0  0  1  0  0  0  0  0  0  0  0  0
   11.7903  -17.1324   26.5336 C   0  0  0  0  0  0  0  0  0  0  0  0
   12.5512  -18.1735   27.7982 S   0  0  0  0  0  0  0  0  0  0  0  0
   10.1274  -16.4746   28.2234 C   0  0  0  0  0  0  0  0  0  0  0  0
   10.2038  -17.3206   29.1445 O   0  0  0  0  0  0  0  0  0  0  0  0
    9.8512  -15.1630   28.5669 O   0  0  0  0  0  0  0  0  0  0  0  0
  2  1  1  6
  2  3  1  0
  3  4  1  0
  4  8  1  0
  5  4  2  0
  6  2  1  0
  7  6  2  0
  9 10  1  0
 10 11  1  0
 11 12  1  0
 13 12  1  1
 13 15  1  0
 13 14  1  0
 14  6  1  0
 15 17  1  0
 16 15  2  0
 18 17  1  0
 18 21  1  0
 18 19  1  1
 20 19  1  0
 21 22  2  0
 21 23  1  0
M  END
$$$$
