DMC.pdb
     RDKit          3D

 23 22  0  0  1  0  0  0  0  0999 V2000
    8.3208  -16.5692   20.2709 N   0  0  0  0  0  0  0  0  0  0  0  0
    9.6583  -16.7925   20.7673 C   0  0  1  0  0  0  0  0  0  0  0  0
   10.6398  -16.4809   19.6779 C   0  0  0  0  0  0  0  0  0  0  0  0
   10.1295  -17.0663   18.4140 C   0  0  0  0  0  0  0  0  0  0  0  0
   10.8764  -17.2672   17.4330 O   0  0  0  0  0  0  0  0  0  0  0  0
    9.8492  -16.0412   21.9987 C   0  0  0  0  0  0  0  0  0  0  0  0
   10.9956  -15.6156   22.2885 O   0  0  0  0  0  0  0  0  0  0  0  0
    8.7840  -17.3893   18.3477 O   0  0  0  0  0  0  0  0  0  0  0  0
    6.5971  -11.9543   27.9228 C   0  0  0  0  0  0  0  0  0  0  0  0
    6.3889  -12.7729   26.3239 S   0  0  0  0  0  0  0  0  0  0  0  0
    7.9250  -13.6762   25.9432 C   0  0  0  0  0  0  0  0  0  0  0  0
    7.8601  -14.3112   24.5902 C   0  0  0  0  0  0  0  0  0  0  0  0
    9.0997  -15.0733   24.2163 C   0  0  2  0  0  0  0  0  0  0  0  0
    8.8161  -15.7440   22.9214 N   0  0  0  0  0  0  0  0  0  0  0  0
    9.4620  -16.1577   25.1408 C   0  0  0  0  0  0  0  0  0  0  0  0
    8.7395  -17.2097   25.2746 O   0  0  0  0  0  0  0  0  0  0  0  0
   10.6256  -16.1595   25.9625 N   0  0  0  0  0  0  0  0  0  0  0  0
   10.9692  -17.2677   26.8535 C   0  0  1  0  0  0  0  0  0  0  0  0
   12.4518  -17.5217   26.6803 C   0  0  0  0  0  0  0  0  0  0  0  0
   12.8917  -17.6803   24.9358 S   0  0  0  0  0  0  0  0  0  0  0  0
   10.6350  -16.9731   28.2461 C   0  0  0  0  0  0  0  0  0  0  0  0
   10.1030  -15.8797   28.5482 O   0  0  0  0  0  0  0  0  0  0  0  0
   10.8896  -17.8752   29.2640 O   0  0  0  0  0  0  0  0  0  0  0  0
  2  1  1  6
  2  3  1  0
  3  4  1  0
  4  8  1  0
  5  4  2  0
  6  2  1  0
  7  6  2  0
  9 10  1  0
 10 11  1  0
 11 12  1  0
 13 12  1  1
 13 15  1  0
 13 14  1  0
 14  6  1  0
 15 17  1  0
 16 15  2  0
 18 17  1  0
 18 21  1  0
 18 19  1  1
 20 19  1  0
 21 22  2  0
 21 23  1  0
M  END
$$$$
