DMC.pdb
     RDKit          3D

 23 22  0  0  1  0  0  0  0  0999 V2000
    9.2992  -16.2280   20.3378 N   0  0  0  0  0  0  0  0  0  0  0  0
   10.3419  -16.5954   21.2668 C   0  0  1  0  0  0  0  0  0  0  0  0
   11.6740  -16.3602   20.6207 C   0  0  0  0  0  0  0  0  0  0  0  0
   11.7307  -17.1603   19.3728 C   0  0  0  0  0  0  0  0  0  0  0  0
   10.7782  -17.8827   19.0103 O   0  0  0  0  0  0  0  0  0  0  0  0
   10.1380  -15.8941   22.5253 C   0  0  0  0  0  0  0  0  0  0  0  0
   10.9422  -14.9895   22.8631 O   0  0  0  0  0  0  0  0  0  0  0  0
   12.8834  -17.0852   18.6081 O   0  0  0  0  0  0  0  0  0  0  0  0
    5.8574  -11.8884   25.2809 C   0  0  0  0  0  0  0  0  0  0  0  0
    7.0291  -13.1422   25.8513 S   0  0  0  0  0  0  0  0  0  0  0  0
    6.7408  -14.6665   24.8952 C   0  0  0  0  0  0  0  0  0  0  0  0
    7.6676  -15.7597   25.3243 C   0  0  0  0  0  0  0  0  0  0  0  0
    9.0687  -15.6079   24.8038 C   0  0  2  0  0  0  0  0  0  0  0  0
    9.0752  -16.1586   23.4239 N   0  0  0  0  0  0  0  0  0  0  0  0
   10.0865  -16.3800   25.5317 C   0  0  0  0  0  0  0  0  0  0  0  0
   11.2593  -16.5842   25.0528 O   0  0  0  0  0  0  0  0  0  0  0  0
    9.8872  -16.9653   26.8150 N   0  0  0  0  0  0  0  0  0  0  0  0
   10.5693  -16.4933   28.0198 C   0  0  1  0  0  0  0  0  0  0  0  0
   10.0774  -15.0841   28.2746 C   0  0  0  0  0  0  0  0  0  0  0  0
   10.8980  -14.3505   29.7065 S   0  0  0  0  0  0  0  0  0  0  0  0
   10.3181  -17.3642   29.1670 C   0  0  0  0  0  0  0  0  0  0  0  0
    9.1541  -17.7539   29.4186 O   0  0  0  0  0  0  0  0  0  0  0  0
   11.3384  -17.7830   30.0025 O   0  0  0  0  0  0  0  0  0  0  0  0
  2  1  1  6
  2  3  1  0
  3  4  1  0
  4  8  1  0
  5  4  2  0
  6  2  1  0
  7  6  2  0
  9 10  1  0
 10 11  1  0
 11 12  1  0
 13 12  1  1
 13 15  1  0
 13 14  1  0
 14  6  1  0
 15 17  1  0
 16 15  2  0
 18 17  1  0
 18 21  1  0
 18 19  1  1
 20 19  1  0
 21 22  2  0
 21 23  1  0
M  END
$$$$
