DMC.pdb
     RDKit          3D

 23 22  0  0  1  0  0  0  0  0999 V2000
    8.7664  -17.4618   21.1986 N   0  0  0  0  0  0  0  0  0  0  0  0
   10.0152  -16.7386   21.2497 C   0  0  1  0  0  0  0  0  0  0  0  0
   10.2296  -16.0448   19.9383 C   0  0  0  0  0  0  0  0  0  0  0  0
   10.3687  -17.0797   18.8846 C   0  0  0  0  0  0  0  0  0  0  0  0
    9.4947  -17.2481   18.0080 O   0  0  0  0  0  0  0  0  0  0  0  0
   10.0217  -15.8658   22.4140 C   0  0  0  0  0  0  0  0  0  0  0  0
   10.9335  -15.0098   22.5363 O   0  0  0  0  0  0  0  0  0  0  0  0
   11.5089  -17.8664   18.8972 O   0  0  0  0  0  0  0  0  0  0  0  0
    6.5905  -12.6760   27.0189 C   0  0  0  0  0  0  0  0  0  0  0  0
    6.0596  -12.5488   25.2949 S   0  0  0  0  0  0  0  0  0  0  0  0
    7.1915  -13.5496   24.2761 C   0  0  0  0  0  0  0  0  0  0  0  0
    7.7727  -14.6815   25.0629 C   0  0  0  0  0  0  0  0  0  0  0  0
    9.1713  -15.0495   24.6561 C   0  0  2  0  0  0  0  0  0  0  0  0
    9.0546  -15.9070   23.4484 N   0  0  0  0  0  0  0  0  0  0  0  0
    9.9074  -15.8619   25.6359 C   0  0  0  0  0  0  0  0  0  0  0  0
   10.0046  -17.1370   25.5292 O   0  0  0  0  0  0  0  0  0  0  0  0
   10.5782  -15.3347   26.7766 N   0  0  0  0  0  0  0  0  0  0  0  0
   11.3855  -16.1583   27.6766 C   0  0  1  0  0  0  0  0  0  0  0  0
   11.9848  -15.2211   28.7039 C   0  0  0  0  0  0  0  0  0  0  0  0
   10.7935  -13.9668   29.2229 S   0  0  0  0  0  0  0  0  0  0  0  0
   10.5947  -17.2125   28.3097 C   0  0  0  0  0  0  0  0  0  0  0  0
    9.3501  -17.2374   28.1676 O   0  0  0  0  0  0  0  0  0  0  0  0
   11.1813  -18.2042   29.0759 O   0  0  0  0  0  0  0  0  0  0  0  0
  2  1  1  6
  2  3  1  0
  3  4  1  0
  4  8  1  0
  5  4  2  0
  6  2  1  0
  7  6  2  0
  9 10  1  0
 10 11  1  0
 11 12  1  0
 13 12  1  1
 13 15  1  0
 13 14  1  0
 14  6  1  0
 15 17  1  0
 16 15  2  0
 18 17  1  0
 18 21  1  0
 18 19  1  1
 20 19  1  0
 21 22  2  0
 21 23  1  0
M  END
$$$$
