DMC.pdb
     RDKit          3D

 23 22  0  0  1  0  0  0  0  0999 V2000
    8.9316  -16.5732   20.2874 N   0  0  0  0  0  0  0  0  0  0  0  0
    7.8029  -16.5823   21.1880 C   0  0  1  0  0  0  0  0  0  0  0  0
    7.1790  -17.9453   21.1722 C   0  0  0  0  0  0  0  0  0  0  0  0
    6.5874  -18.1679   19.8302 C   0  0  0  0  0  0  0  0  0  0  0  0
    6.8123  -17.3945   18.8752 O   0  0  0  0  0  0  0  0  0  0  0  0
    8.2265  -16.1165   22.4997 C   0  0  0  0  0  0  0  0  0  0  0  0
    9.3629  -16.4376   22.9294 O   0  0  0  0  0  0  0  0  0  0  0  0
    5.7671  -19.2711   19.6598 O   0  0  0  0  0  0  0  0  0  0  0  0
    6.2946  -10.7459   25.5976 C   0  0  0  0  0  0  0  0  0  0  0  0
    6.3104  -11.8834   27.0033 S   0  0  0  0  0  0  0  0  0  0  0  0
    7.3347  -13.3233   26.5581 C   0  0  0  0  0  0  0  0  0  0  0  0
    7.0374  -13.7921   25.1689 C   0  0  0  0  0  0  0  0  0  0  0  0
    7.8933  -14.9420   24.7193 C   0  0  2  0  0  0  0  0  0  0  0  0
    7.4367  -15.3076   23.3536 N   0  0  0  0  0  0  0  0  0  0  0  0
    7.7487  -16.1696   25.5155 C   0  0  0  0  0  0  0  0  0  0  0  0
    6.6030  -16.6945   25.7577 O   0  0  0  0  0  0  0  0  0  0  0  0
    8.8362  -16.8921   26.0850 N   0  0  0  0  0  0  0  0  0  0  0  0
    8.6516  -18.0518   26.9574 C   0  0  1  0  0  0  0  0  0  0  0  0
    8.7382  -19.2787   26.0742 C   0  0  0  0  0  0  0  0  0  0  0  0
    7.2377  -19.4877   25.0910 S   0  0  0  0  0  0  0  0  0  0  0  0
    9.6443  -18.0924   28.0301 C   0  0  0  0  0  0  0  0  0  0  0  0
    9.6366  -19.0312   28.8598 O   0  0  0  0  0  0  0  0  0  0  0  0
   10.6119  -17.1128   28.1662 O   0  0  0  0  0  0  0  0  0  0  0  0
  2  1  1  6
  2  3  1  0
  3  4  1  0
  4  8  1  0
  5  4  2  0
  6  2  1  0
  7  6  2  0
  9 10  1  0
 10 11  1  0
 11 12  1  0
 13 12  1  1
 13 15  1  0
 13 14  1  0
 14  6  1  0
 15 17  1  0
 16 15  2  0
 18 17  1  0
 18 21  1  0
 18 19  1  6
 20 19  1  0
 21 22  2  0
 21 23  1  0
M  END
$$$$
