DMC.pdb
     RDKit          3D

 23 22  0  0  1  0  0  0  0  0999 V2000
    8.7262  -17.3462   20.9254 N   0  0  0  0  0  0  0  0  0  0  0  0
    9.9844  -16.6945   21.2038 C   0  0  1  0  0  0  0  0  0  0  0  0
   10.4006  -15.9058   19.9989 C   0  0  0  0  0  0  0  0  0  0  0  0
   10.7239  -16.8601   18.9102 C   0  0  0  0  0  0  0  0  0  0  0  0
   11.2701  -17.9600   19.1396 O   0  0  0  0  0  0  0  0  0  0  0  0
    9.8685  -15.9232   22.4321 C   0  0  0  0  0  0  0  0  0  0  0  0
   10.7060  -15.0173   22.6713 O   0  0  0  0  0  0  0  0  0  0  0  0
   10.4002  -16.4959   17.6134 O   0  0  0  0  0  0  0  0  0  0  0  0
    6.5037  -11.3513   25.9788 C   0  0  0  0  0  0  0  0  0  0  0  0
    6.0140  -13.0873   26.1069 S   0  0  0  0  0  0  0  0  0  0  0  0
    6.6733  -13.9725   24.6569 C   0  0  0  0  0  0  0  0  0  0  0  0
    7.3627  -15.2373   25.0605 C   0  0  0  0  0  0  0  0  0  0  0  0
    8.8053  -15.3022   24.6459 C   0  0  2  0  0  0  0  0  0  0  0  0
    8.8583  -16.1189   23.4059 N   0  0  0  0  0  0  0  0  0  0  0  0
    9.6925  -15.9877   25.5971 C   0  0  0  0  0  0  0  0  0  0  0  0
    9.9455  -17.2427   25.5109 O   0  0  0  0  0  0  0  0  0  0  0  0
   10.3530  -15.3486   26.6854 N   0  0  0  0  0  0  0  0  0  0  0  0
   11.1869  -16.0714   27.6457 C   0  0  1  0  0  0  0  0  0  0  0  0
   11.7051  -15.0450   28.6310 C   0  0  0  0  0  0  0  0  0  0  0  0
   10.4097  -13.8810   29.1095 S   0  0  0  0  0  0  0  0  0  0  0  0
   10.4459  -17.1359   28.3206 C   0  0  0  0  0  0  0  0  0  0  0  0
    9.2076  -17.2402   28.1605 O   0  0  0  0  0  0  0  0  0  0  0  0
   11.0738  -18.0513   29.1466 O   0  0  0  0  0  0  0  0  0  0  0  0
  2  1  1  6
  2  3  1  0
  3  4  1  0
  4  8  1  0
  5  4  2  0
  6  2  1  0
  7  6  2  0
  9 10  1  0
 10 11  1  0
 11 12  1  0
 13 12  1  1
 13 15  1  0
 13 14  1  0
 14  6  1  0
 15 17  1  0
 16 15  2  0
 18 17  1  0
 18 21  1  0
 18 19  1  1
 20 19  1  0
 21 22  2  0
 21 23  1  0
M  END
$$$$
