DMC.pdb
     RDKit          3D

 23 22  0  0  1  0  0  0  0  0999 V2000
    8.9323  -17.6232   21.2319 N   0  0  0  0  0  0  0  0  0  0  0  0
   10.2040  -16.9546   21.3772 C   0  0  1  0  0  0  0  0  0  0  0  0
   10.6579  -16.4750   20.0314 C   0  0  0  0  0  0  0  0  0  0  0  0
   10.3251  -17.5192   19.0317 C   0  0  0  0  0  0  0  0  0  0  0  0
    9.7821  -18.5954   19.3598 O   0  0  0  0  0  0  0  0  0  0  0  0
   10.0926  -15.9182   22.3924 C   0  0  0  0  0  0  0  0  0  0  0  0
   10.9854  -15.0376   22.4734 O   0  0  0  0  0  0  0  0  0  0  0  0
   10.6360  -17.2674   17.7054 O   0  0  0  0  0  0  0  0  0  0  0  0
    5.7407  -11.3318   25.6619 C   0  0  0  0  0  0  0  0  0  0  0  0
    6.8192  -12.6778   26.2053 S   0  0  0  0  0  0  0  0  0  0  0  0
    6.9046  -13.9131   24.8684 C   0  0  0  0  0  0  0  0  0  0  0  0
    7.8063  -15.0489   25.2357 C   0  0  0  0  0  0  0  0  0  0  0  0
    9.1461  -15.0050   24.5574 C   0  0  2  0  0  0  0  0  0  0  0  0
    9.0278  -15.8218   23.3220 N   0  0  0  0  0  0  0  0  0  0  0  0
   10.2457  -15.6154   25.3191 C   0  0  0  0  0  0  0  0  0  0  0  0
   11.4763  -15.3438   25.0767 O   0  0  0  0  0  0  0  0  0  0  0  0
   10.0683  -16.5458   26.3830 N   0  0  0  0  0  0  0  0  0  0  0  0
   10.6476  -16.3546   27.7126 C   0  0  1  0  0  0  0  0  0  0  0  0
    9.9507  -15.1567   28.3226 C   0  0  0  0  0  0  0  0  0  0  0  0
   10.6719  -14.7202   29.9199 S   0  0  0  0  0  0  0  0  0  0  0  0
   10.4996  -17.5443   28.5495 C   0  0  0  0  0  0  0  0  0  0  0  0
    9.4080  -18.1584   28.5836 O   0  0  0  0  0  0  0  0  0  0  0  0
   11.5415  -18.0275   29.3213 O   0  0  0  0  0  0  0  0  0  0  0  0
  2  1  1  6
  2  3  1  0
  3  4  1  0
  4  8  1  0
  5  4  2  0
  6  2  1  0
  7  6  2  0
  9 10  1  0
 10 11  1  0
 11 12  1  0
 13 12  1  1
 13 15  1  0
 13 14  1  0
 14  6  1  0
 15 17  1  0
 16 15  2  0
 18 17  1  0
 18 21  1  0
 18 19  1  1
 20 19  1  0
 21 22  2  0
 21 23  1  0
M  END
$$$$
