DMC.pdb
     RDKit          3D

 23 22  0  0  1  0  0  0  0  0999 V2000
    8.5215  -17.5296   21.5193 N   0  0  0  0  0  0  0  0  0  0  0  0
    9.6652  -16.6484   21.4930 C   0  0  1  0  0  0  0  0  0  0  0  0
    9.6429  -15.8605   20.2179 C   0  0  0  0  0  0  0  0  0  0  0  0
    9.8977  -16.7933   19.0930 C   0  0  0  0  0  0  0  0  0  0  0  0
   10.6337  -17.7944   19.2220 O   0  0  0  0  0  0  0  0  0  0  0  0
    9.6880  -15.8486   22.7083 C   0  0  0  0  0  0  0  0  0  0  0  0
   10.6126  -15.0150   22.8791 O   0  0  0  0  0  0  0  0  0  0  0  0
    9.2900  -16.5226   17.8779 O   0  0  0  0  0  0  0  0  0  0  0  0
    7.0919  -11.3593   26.6328 C   0  0  0  0  0  0  0  0  0  0  0  0
    5.9054  -12.4989   25.8822 S   0  0  0  0  0  0  0  0  0  0  0  0
    6.7962  -13.5339   24.6756 C   0  0  0  0  0  0  0  0  0  0  0  0
    7.3571  -14.7607   25.3224 C   0  0  0  0  0  0  0  0  0  0  0  0
    8.7785  -15.0559   24.9357 C   0  0  2  0  0  0  0  0  0  0  0  0
    8.7233  -15.9387   23.7420 N   0  0  0  0  0  0  0  0  0  0  0  0
    9.5486  -15.8089   25.9366 C   0  0  0  0  0  0  0  0  0  0  0  0
    9.4067  -17.0742   26.0957 O   0  0  0  0  0  0  0  0  0  0  0  0
   10.5131  -15.2311   26.8114 N   0  0  0  0  0  0  0  0  0  0  0  0
   11.1771  -15.9858   27.8741 C   0  0  1  0  0  0  0  0  0  0  0  0
   10.9478  -15.2200   29.1601 C   0  0  0  0  0  0  0  0  0  0  0  0
   10.7353  -13.4545   28.8444 S   0  0  0  0  0  0  0  0  0  0  0  0
   10.6735  -17.3552   27.9687 C   0  0  0  0  0  0  0  0  0  0  0  0
   11.1077  -18.1257   28.8562 O   0  0  0  0  0  0  0  0  0  0  0  0
    9.7157  -17.8422   27.0970 O   0  0  0  0  0  0  0  0  0  0  0  0
  2  1  1  1
  2  3  1  0
  3  4  1  0
  4  8  1  0
  5  4  2  0
  6  2  1  0
  7  6  2  0
  9 10  1  0
 10 11  1  0
 11 12  1  0
 13 12  1  1
 13 15  1  0
 13 14  1  0
 14  6  1  0
 15 17  1  0
 16 15  2  0
 18 17  1  0
 18 21  1  0
 18 19  1  1
 20 19  1  0
 21 22  2  0
 21 23  1  0
M  END
$$$$
