DMC.pdb
     RDKit          3D

 23 22  0  0  1  0  0  0  0  0999 V2000
    9.7510  -18.0444   20.9941 N   0  0  0  0  0  0  0  0  0  0  0  0
   10.9310  -17.2802   21.3240 C   0  0  1  0  0  0  0  0  0  0  0  0
   11.5726  -16.8042   20.0556 C   0  0  0  0  0  0  0  0  0  0  0  0
   12.3108  -17.9422   19.4551 C   0  0  0  0  0  0  0  0  0  0  0  0
   12.7209  -18.8988   20.1461 O   0  0  0  0  0  0  0  0  0  0  0  0
   10.5787  -16.2285   22.2658 C   0  0  0  0  0  0  0  0  0  0  0  0
   11.4269  -15.3451   22.5473 O   0  0  0  0  0  0  0  0  0  0  0  0
   12.5374  -17.9173   18.0887 O   0  0  0  0  0  0  0  0  0  0  0  0
    6.1410  -12.1847   26.8692 C   0  0  0  0  0  0  0  0  0  0  0  0
    6.6863  -13.7604   26.1695 S   0  0  0  0  0  0  0  0  0  0  0  0
    7.0915  -13.4929   24.4131 C   0  0  0  0  0  0  0  0  0  0  0  0
    7.5353  -14.7629   23.7590 C   0  0  0  0  0  0  0  0  0  0  0  0
    9.0165  -15.0019   23.8380 C   0  0  2  0  0  0  0  0  0  0  0  0
    9.3204  -16.1196   22.9076 N   0  0  0  0  0  0  0  0  0  0  0  0
    9.5018  -15.4508   25.1513 C   0  0  0  0  0  0  0  0  0  0  0  0
    9.5055  -16.6884   25.4904 O   0  0  0  0  0  0  0  0  0  0  0  0
   10.0110  -14.5839   26.1604 N   0  0  0  0  0  0  0  0  0  0  0  0
   10.4630  -15.0621   27.4668 C   0  0  1  0  0  0  0  0  0  0  0  0
   10.3060  -13.9057   28.4316 C   0  0  0  0  0  0  0  0  0  0  0  0
   10.6821  -14.4074   30.1254 S   0  0  0  0  0  0  0  0  0  0  0  0
    9.7112  -16.2353   27.9096 C   0  0  0  0  0  0  0  0  0  0  0  0
   10.3088  -17.2076   28.4268 O   0  0  0  0  0  0  0  0  0  0  0  0
    8.3363  -16.3138   27.7761 O   0  0  0  0  0  0  0  0  0  0  0  0
  2  1  1  6
  2  3  1  0
  3  4  1  0
  4  8  1  0
  5  4  2  0
  6  2  1  0
  7  6  2  0
  9 10  1  0
 10 11  1  0
 11 12  1  0
 13 12  1  1
 13 15  1  0
 13 14  1  0
 14  6  1  0
 15 17  1  0
 16 15  2  0
 18 17  1  0
 18 21  1  0
 18 19  1  1
 20 19  1  0
 21 22  2  0
 21 23  1  0
M  END
$$$$
