DMC.pdb
     RDKit          3D

 23 22  0  0  1  0  0  0  0  0999 V2000
   11.0664  -16.3729   19.7255 N   0  0  0  0  0  0  0  0  0  0  0  0
   11.1905  -16.9712   21.0339 C   0  0  1  0  0  0  0  0  0  0  0  0
   12.6277  -17.3237   21.2733 C   0  0  0  0  0  0  0  0  0  0  0  0
   13.0206  -18.3595   20.2867 C   0  0  0  0  0  0  0  0  0  0  0  0
   14.0816  -18.2765   19.6325 O   0  0  0  0  0  0  0  0  0  0  0  0
   10.6017  -16.0868   22.0281 C   0  0  0  0  0  0  0  0  0  0  0  0
   10.8657  -14.8588   21.9928 O   0  0  0  0  0  0  0  0  0  0  0  0
   12.1689  -19.4371   20.1064 O   0  0  0  0  0  0  0  0  0  0  0  0
    6.3656  -12.2445   25.9437 C   0  0  0  0  0  0  0  0  0  0  0  0
    7.4270  -13.6856   25.6856 S   0  0  0  0  0  0  0  0  0  0  0  0
    6.7785  -14.6220   24.2632 C   0  0  0  0  0  0  0  0  0  0  0  0
    7.6232  -15.8221   23.9728 C   0  0  0  0  0  0  0  0  0  0  0  0
    9.0998  -15.5457   23.9949 C   0  0  2  0  0  0  0  0  0  0  0  0
    9.7309  -16.5136   23.0609 N   0  0  0  0  0  0  0  0  0  0  0  0
    9.7538  -15.7785   25.2911 C   0  0  0  0  0  0  0  0  0  0  0  0
   10.2911  -16.9044   25.5914 O   0  0  0  0  0  0  0  0  0  0  0  0
    9.8625  -14.8038   26.3241 N   0  0  0  0  0  0  0  0  0  0  0  0
   10.5609  -15.0544   27.5848 C   0  0  1  0  0  0  0  0  0  0  0  0
   10.3084  -13.8513   28.4688 C   0  0  0  0  0  0  0  0  0  0  0  0
   10.9162  -14.1296   30.1466 S   0  0  0  0  0  0  0  0  0  0  0  0
   10.1117  -16.2913   28.2220 C   0  0  0  0  0  0  0  0  0  0  0  0
    8.8917  -16.5746   28.2568 O   0  0  0  0  0  0  0  0  0  0  0  0
   11.0017  -17.1792   28.8000 O   0  0  0  0  0  0  0  0  0  0  0  0
  2  1  1  6
  2  3  1  0
  3  4  1  0
  4  8  1  0
  5  4  2  0
  6  2  1  0
  7  6  2  0
  9 10  1  0
 10 11  1  0
 11 12  1  0
 13 12  1  1
 13 15  1  0
 13 14  1  0
 14  6  1  0
 15 17  1  0
 16 15  2  0
 18 17  1  0
 18 21  1  0
 18 19  1  1
 20 19  1  0
 21 22  2  0
 21 23  1  0
M  END
$$$$
