DMC.pdb
     RDKit          3D

 23 22  0  0  1  0  0  0  0  0999 V2000
    9.3006  -18.0969   21.2015 N   0  0  0  0  0  0  0  0  0  0  0  0
   10.5558  -17.3917   21.3126 C   0  0  1  0  0  0  0  0  0  0  0  0
   11.0184  -17.0027   19.9408 C   0  0  0  0  0  0  0  0  0  0  0  0
   11.7016  -18.1714   19.3342 C   0  0  0  0  0  0  0  0  0  0  0  0
   11.8147  -19.2565   19.9427 O   0  0  0  0  0  0  0  0  0  0  0  0
   10.4087  -16.2860   22.2470 C   0  0  0  0  0  0  0  0  0  0  0  0
   11.3329  -15.4410   22.3511 O   0  0  0  0  0  0  0  0  0  0  0  0
   12.2188  -18.0272   18.0572 O   0  0  0  0  0  0  0  0  0  0  0  0
    5.5971  -11.5836   26.3195 C   0  0  0  0  0  0  0  0  0  0  0  0
    5.7752  -13.0128   25.2261 S   0  0  0  0  0  0  0  0  0  0  0  0
    7.5454  -13.4327   25.1229 C   0  0  0  0  0  0  0  0  0  0  0  0
    7.7832  -14.5478   24.1544 C   0  0  0  0  0  0  0  0  0  0  0  0
    9.2206  -14.9742   24.0594 C   0  0  2  0  0  0  0  0  0  0  0  0
    9.2744  -16.0822   23.0711 N   0  0  0  0  0  0  0  0  0  0  0  0
    9.7833  -15.5341   25.2970 C   0  0  0  0  0  0  0  0  0  0  0  0
    9.9458  -16.7962   25.4624 O   0  0  0  0  0  0  0  0  0  0  0  0
   10.2018  -14.7563   26.4146 N   0  0  0  0  0  0  0  0  0  0  0  0
   10.7858  -15.3445   27.6200 C   0  0  1  0  0  0  0  0  0  0  0  0
   10.6966  -14.2920   28.7048 C   0  0  0  0  0  0  0  0  0  0  0  0
   11.2320  -14.9464   30.3008 S   0  0  0  0  0  0  0  0  0  0  0  0
   10.1042  -16.5772   28.0120 C   0  0  0  0  0  0  0  0  0  0  0  0
    8.8543  -16.6485   27.9629 O   0  0  0  0  0  0  0  0  0  0  0  0
   10.8022  -17.6911   28.4440 O   0  0  0  0  0  0  0  0  0  0  0  0
  2  1  1  6
  2  3  1  0
  3  4  1  0
  4  8  1  0
  5  4  2  0
  6  2  1  0
  7  6  2  0
  9 10  1  0
 10 11  1  0
 11 12  1  0
 13 12  1  1
 13 15  1  0
 13 14  1  0
 14  6  1  0
 15 17  1  0
 16 15  2  0
 18 17  1  0
 18 21  1  0
 18 19  1  1
 20 19  1  0
 21 22  2  0
 21 23  1  0
M  END
$$$$
