DMC.pdb
     RDKit          3D

 23 22  0  0  1  0  0  0  0  0999 V2000
    6.9257  -16.8761   21.4812 N   0  0  0  0  0  0  0  0  0  0  0  0
    8.2091  -16.3142   21.1315 C   0  0  1  0  0  0  0  0  0  0  0  0
    8.0665  -15.5281   19.8630 C   0  0  0  0  0  0  0  0  0  0  0  0
    8.1290  -16.4746   18.7226 C   0  0  0  0  0  0  0  0  0  0  0  0
    8.5021  -17.6578   18.8689 O   0  0  0  0  0  0  0  0  0  0  0  0
    8.7334  -15.5640   22.2627 C   0  0  0  0  0  0  0  0  0  0  0  0
    9.8791  -15.0536   22.1847 O   0  0  0  0  0  0  0  0  0  0  0  0
    7.7578  -16.0068   17.4726 O   0  0  0  0  0  0  0  0  0  0  0  0
    6.4469  -11.9964   27.2700 C   0  0  0  0  0  0  0  0  0  0  0  0
    6.1842  -11.5784   25.5304 S   0  0  0  0  0  0  0  0  0  0  0  0
    7.1193  -12.7662   24.5127 C   0  0  0  0  0  0  0  0  0  0  0  0
    7.6360  -13.9007   25.3399 C   0  0  0  0  0  0  0  0  0  0  0  0
    8.6874  -14.7246   24.6522 C   0  0  2  0  0  0  0  0  0  0  0  0
    8.0346  -15.3586   23.4778 N   0  0  0  0  0  0  0  0  0  0  0  0
    9.2172  -15.8415   25.4483 C   0  0  0  0  0  0  0  0  0  0  0  0
    8.5173  -16.4293   26.3491 O   0  0  0  0  0  0  0  0  0  0  0  0
   10.5281  -16.3803   25.3062 N   0  0  0  0  0  0  0  0  0  0  0  0
   10.9638  -17.6030   25.9809 C   0  0  1  0  0  0  0  0  0  0  0  0
   10.1459  -18.7364   25.3984 C   0  0  0  0  0  0  0  0  0  0  0  0
    8.7740  -19.1825   26.4850 S   0  0  0  0  0  0  0  0  0  0  0  0
   12.3976  -17.8370   25.8162 C   0  0  0  0  0  0  0  0  0  0  0  0
   13.0766  -17.0889   25.0752 O   0  0  0  0  0  0  0  0  0  0  0  0
   13.0462  -18.8750   26.4614 O   0  0  0  0  0  0  0  0  0  0  0  0
  2  1  1  1
  2  3  1  0
  3  4  1  0
  4  8  1  0
  5  4  2  0
  6  2  1  0
  7  6  2  0
  9 10  1  0
 10 11  1  0
 11 12  1  0
 13 12  1  1
 13 15  1  0
 13 14  1  0
 14  6  1  0
 15 17  1  0
 16 15  2  0
 18 17  1  0
 18 21  1  0
 18 19  1  6
 20 19  1  0
 21 22  2  0
 21 23  1  0
M  END
$$$$
