DMC.pdb
     RDKit          3D

 23 22  0  0  1  0  0  0  0  0999 V2000
    8.9531  -17.9205   20.9705 N   0  0  0  0  0  0  0  0  0  0  0  0
    9.7980  -16.7569   20.8392 C   0  0  1  0  0  0  0  0  0  0  0  0
    9.5937  -16.1583   19.4801 C   0  0  0  0  0  0  0  0  0  0  0  0
    9.9575  -17.1779   18.4660 C   0  0  0  0  0  0  0  0  0  0  0  0
    9.6388  -18.3787   18.5962 O   0  0  0  0  0  0  0  0  0  0  0  0
    9.5517  -15.8519   21.9517 C   0  0  0  0  0  0  0  0  0  0  0  0
   10.0559  -14.7011   21.9321 O   0  0  0  0  0  0  0  0  0  0  0  0
   10.6702  -16.7589   17.3544 O   0  0  0  0  0  0  0  0  0  0  0  0
    6.8323  -11.6568   26.8857 C   0  0  0  0  0  0  0  0  0  0  0  0
    7.3275  -12.6437   25.4537 S   0  0  0  0  0  0  0  0  0  0  0  0
    6.7870  -14.3615   25.7326 C   0  0  0  0  0  0  0  0  0  0  0  0
    7.1331  -15.2352   24.5686 C   0  0  0  0  0  0  0  0  0  0  0  0
    8.5917  -15.2185   24.2086 C   0  0  2  0  0  0  0  0  0  0  0  0
    8.7668  -16.1755   23.0859 N   0  0  0  0  0  0  0  0  0  0  0  0
    9.4956  -15.6950   25.2658 C   0  0  0  0  0  0  0  0  0  0  0  0
    9.7042  -16.9441   25.4730 O   0  0  0  0  0  0  0  0  0  0  0  0
   10.2215  -14.8440   26.1479 N   0  0  0  0  0  0  0  0  0  0  0  0
   11.0693  -15.3524   27.2262 C   0  0  1  0  0  0  0  0  0  0  0  0
   11.4615  -14.1585   28.0709 C   0  0  0  0  0  0  0  0  0  0  0  0
   10.5344  -14.1170   29.6204 S   0  0  0  0  0  0  0  0  0  0  0  0
   10.3882  -16.3719   28.0227 C   0  0  0  0  0  0  0  0  0  0  0  0
    9.1368  -16.4337   28.0292 O   0  0  0  0  0  0  0  0  0  0  0  0
   11.0882  -17.2901   28.7853 O   0  0  0  0  0  0  0  0  0  0  0  0
  2  1  1  1
  2  3  1  0
  3  4  1  0
  4  8  1  0
  5  4  2  0
  6  2  1  0
  7  6  2  0
  9 10  1  0
 10 11  1  0
 11 12  1  0
 13 12  1  1
 13 15  1  0
 13 14  1  0
 14  6  1  0
 15 17  1  0
 16 15  2  0
 18 17  1  0
 18 21  1  0
 18 19  1  1
 20 19  1  0
 21 22  2  0
 21 23  1  0
M  END
$$$$
