DMC.pdb
     RDKit          3D

 23 22  0  0  1  0  0  0  0  0999 V2000
    8.6992  -17.2617   20.6079 N   0  0  0  0  0  0  0  0  0  0  0  0
    9.9731  -17.1263   21.2743 C   0  0  1  0  0  0  0  0  0  0  0  0
   11.0016  -16.6915   20.2741 C   0  0  0  0  0  0  0  0  0  0  0  0
   10.9348  -17.6113   19.1122 C   0  0  0  0  0  0  0  0  0  0  0  0
   11.2557  -18.8150   19.2063 O   0  0  0  0  0  0  0  0  0  0  0  0
    9.8263  -16.2479   22.4250 C   0  0  0  0  0  0  0  0  0  0  0  0
   10.8329  -15.6388   22.8666 O   0  0  0  0  0  0  0  0  0  0  0  0
   10.5015  -17.0945   17.9022 O   0  0  0  0  0  0  0  0  0  0  0  0
    7.3181  -11.7486   27.5144 C   0  0  0  0  0  0  0  0  0  0  0  0
    7.8127  -12.5733   25.9830 S   0  0  0  0  0  0  0  0  0  0  0  0
    6.8320  -14.1002   25.8172 C   0  0  0  0  0  0  0  0  0  0  0  0
    7.1095  -14.7848   24.5162 C   0  0  0  0  0  0  0  0  0  0  0  0
    8.5441  -15.1941   24.3387 C   0  0  2  0  0  0  0  0  0  0  0  0
    8.6046  -16.0197   23.1050 N   0  0  0  0  0  0  0  0  0  0  0  0
    9.0789  -16.0542   25.4046 C   0  0  0  0  0  0  0  0  0  0  0  0
    8.6297  -17.2375   25.6159 O   0  0  0  0  0  0  0  0  0  0  0  0
   10.1285  -15.6784   26.2912 N   0  0  0  0  0  0  0  0  0  0  0  0
   10.7520  -16.6129   27.2281 C   0  0  1  0  0  0  0  0  0  0  0  0
   12.2492  -16.4347   27.0888 C   0  0  0  0  0  0  0  0  0  0  0  0
   12.7491  -14.7444   27.4826 S   0  0  0  0  0  0  0  0  0  0  0  0
   10.3107  -16.3846   28.6032 C   0  0  0  0  0  0  0  0  0  0  0  0
    9.5775  -15.4055   28.8747 O   0  0  0  0  0  0  0  0  0  0  0  0
   10.6801  -17.2264   29.6373 O   0  0  0  0  0  0  0  0  0  0  0  0
  2  1  1  6
  2  3  1  0
  3  4  1  0
  4  8  1  0
  5  4  2  0
  6  2  1  0
  7  6  2  0
  9 10  1  0
 10 11  1  0
 11 12  1  0
 13 12  1  1
 13 15  1  0
 13 14  1  0
 14  6  1  0
 15 17  1  0
 16 15  2  0
 18 17  1  0
 18 21  1  0
 18 19  1  1
 20 19  1  0
 21 22  2  0
 21 23  1  0
M  END
$$$$
