CLW.pdb
     RDKit          3D

 29 30  0  0  1  0  0  0  0  0999 V2000
    9.1714  -18.9407   18.6493 N   0  0  0  0  0  0  0  0  0  0  0  0
    8.7227  -18.7053   20.0036 C   0  0  1  0  0  0  0  0  0  0  0  0
    9.2319  -19.8507   20.8543 C   0  0  0  0  0  0  0  0  0  0  0  0
    8.6022  -19.7128   22.5476 S   0  0  0  0  0  0  0  0  0  0  0  0
    9.2569  -17.4039   20.4529 C   0  0  0  0  0  0  0  0  0  0  0  0
   10.4412  -17.1039   20.2000 O   0  0  0  0  0  0  0  0  0  0  0  0
    7.8130  -12.2938   20.2467 C   0  0  0  0  0  0  0  0  0  0  0  0
    7.2166  -13.6749   20.6155 C   0  0  1  0  0  0  0  0  0  0  0  0
    7.4919  -14.5347   19.3878 C   0  0  0  0  0  0  0  0  0  0  0  0
    7.9081  -14.1668   21.8348 C   0  0  0  0  0  0  0  0  0  0  0  0
    8.9745  -15.2025   21.6399 C   0  0  2  0  0  0  0  0  0  0  0  0
    8.4685  -16.4498   21.1787 N   0  0  0  0  0  0  0  0  0  0  0  0
    9.8368  -15.3100   22.8571 C   0  0  0  0  0  0  0  0  0  0  0  0
   10.3800  -14.2614   23.2940 O   0  0  0  0  0  0  0  0  0  0  0  0
   10.0612  -16.5208   23.5234 N   0  0  0  0  0  0  0  0  0  0  0  0
   10.1842  -16.6301   24.9732 C   0  0  1  0  0  0  0  0  0  0  0  0
    8.8030  -16.3896   25.5726 C   0  0  0  0  0  0  0  0  0  0  0  0
    8.8030  -15.1374   26.4002 C   0  0  0  0  0  0  0  0  0  0  0  0
    9.5760  -14.8579   27.5074 C   0  0  0  0  0  0  0  0  0  0  0  0
    9.2825  -13.6298   27.9696 N   0  0  0  0  0  0  0  0  0  0  0  0
    8.3245  -13.0674   27.1985 C   0  0  0  0  0  0  0  0  0  0  0  0
    7.6938  -11.8421   27.2566 C   0  0  0  0  0  0  0  0  0  0  0  0
    6.7336  -11.5313   26.3165 C   0  0  0  0  0  0  0  0  0  0  0  0
    6.4422  -12.4742   25.3450 C   0  0  0  0  0  0  0  0  0  0  0  0
    7.0685  -13.7004   25.2811 C   0  0  0  0  0  0  0  0  0  0  0  0
    8.0235  -14.0141   26.2132 C   0  0  0  0  0  0  0  0  0  0  0  0
   10.5973  -17.9990   25.3482 C   0  0  0  0  0  0  0  0  0  0  0  0
   11.3329  -18.2664   26.5027 O   0  0  0  0  0  0  0  0  0  0  0  0
   10.2690  -18.9565   24.5915 O   0  0  0  0  0  0  0  0  0  0  0  0
  2  1  1  6
  2  3  1  0
  2  5  1  0
  3  4  1  0
  5 12  1  0
  5  6  2  0
  8  7  1  6
  8  9  1  0
 10  8  1  0
 11 13  1  0
 11 10  1  1
 12 11  1  0
 13 14  2  0
 15 13  1  0
 16 15  1  0
 16 17  1  1
 17 18  1  0
 18 19  2  0
 19 20  1  0
 21 22  2  0
 21 20  1  0
 23 22  1  0
 24 23  2  0
 25 24  1  0
 25 26  2  0
 26 18  1  0
 26 21  1  0
 27 16  1  0
 28 27  1  0
 29 27  2  0
M  END
$$$$
