CLW.pdb
     RDKit          3D

 29 30  0  0  1  0  0  0  0  0999 V2000
    7.5406  -20.6887   19.8635 N   0  0  0  0  0  0  0  0  0  0  0  0
    6.8046  -19.5150   20.2781 C   0  0  1  0  0  0  0  0  0  0  0  0
    6.2763  -19.7818   21.6726 C   0  0  0  0  0  0  0  0  0  0  0  0
    6.7090  -18.4202   22.7868 S   0  0  0  0  0  0  0  0  0  0  0  0
    7.7186  -18.3554   20.2465 C   0  0  0  0  0  0  0  0  0  0  0  0
    8.9468  -18.5358   20.3702 O   0  0  0  0  0  0  0  0  0  0  0  0
    7.4546  -12.3293   18.6655 C   0  0  0  0  0  0  0  0  0  0  0  0
    8.3293  -13.4617   19.2585 C   0  0  1  0  0  0  0  0  0  0  0  0
    8.8338  -12.8858   20.5762 C   0  0  0  0  0  0  0  0  0  0  0  0
    7.4724  -14.6614   19.4404 C   0  0  0  0  0  0  0  0  0  0  0  0
    8.1261  -15.8827   20.0139 C   0  0  2  0  0  0  0  0  0  0  0  0
    7.2570  -17.0075   20.0775 N   0  0  0  0  0  0  0  0  0  0  0  0
    8.8007  -15.5628   21.3098 C   0  0  0  0  0  0  0  0  0  0  0  0
    9.8224  -14.8274   21.2813 O   0  0  0  0  0  0  0  0  0  0  0  0
    8.3439  -16.0454   22.5424 N   0  0  0  0  0  0  0  0  0  0  0  0
    8.7806  -15.5099   23.8274 C   0  0  1  0  0  0  0  0  0  0  0  0
    7.6217  -15.6586   24.8070 C   0  0  0  0  0  0  0  0  0  0  0  0
    7.8813  -14.8577   26.0495 C   0  0  0  0  0  0  0  0  0  0  0  0
    8.6411  -15.2183   27.1424 C   0  0  0  0  0  0  0  0  0  0  0  0
    8.6291  -14.2283   28.0521 N   0  0  0  0  0  0  0  0  0  0  0  0
    7.8759  -13.2002   27.6000 C   0  0  0  0  0  0  0  0  0  0  0  0
    7.5572  -11.9768   28.1514 C   0  0  0  0  0  0  0  0  0  0  0  0
    6.7499  -11.1081   27.4473 C   0  0  0  0  0  0  0  0  0  0  0  0
    6.2898  -11.5076   26.2036 C   0  0  0  0  0  0  0  0  0  0  0  0
    6.6043  -12.7286   25.6468 C   0  0  0  0  0  0  0  0  0  0  0  0
    7.4064  -13.5956   26.3427 C   0  0  0  0  0  0  0  0  0  0  0  0
    9.9101  -16.3050   24.3538 C   0  0  0  0  0  0  0  0  0  0  0  0
   10.3213  -17.4995   23.7625 O   0  0  0  0  0  0  0  0  0  0  0  0
   10.5208  -15.8817   25.3762 O   0  0  0  0  0  0  0  0  0  0  0  0
  2  1  1  1
  2  3  1  0
  2  5  1  0
  3  4  1  0
  5 12  1  0
  5  6  2  0
  8  7  1  1
  8  9  1  0
 10  8  1  0
 11 13  1  0
 11 10  1  1
 12 11  1  0
 13 14  2  0
 15 13  1  0
 16 15  1  0
 16 17  1  1
 17 18  1  0
 18 19  2  0
 19 20  1  0
 21 22  2  0
 21 20  1  0
 23 22  1  0
 24 23  2  0
 25 24  1  0
 25 26  2  0
 26 18  1  0
 26 21  1  0
 27 16  1  0
 28 27  1  0
 29 27  2  0
M  END
$$$$
