CLW.pdb
     RDKit          3D

 29 30  0  0  1  0  0  0  0  0999 V2000
    7.9661  -19.4640   19.2525 N   0  0  0  0  0  0  0  0  0  0  0  0
    7.5890  -18.8186   20.4903 C   0  0  1  0  0  0  0  0  0  0  0  0
    7.7675  -19.8325   21.6017 C   0  0  0  0  0  0  0  0  0  0  0  0
    7.3795  -19.0890   23.2077 S   0  0  0  0  0  0  0  0  0  0  0  0
    8.4498  -17.6337   20.6804 C   0  0  0  0  0  0  0  0  0  0  0  0
    9.6399  -17.6711   20.3078 O   0  0  0  0  0  0  0  0  0  0  0  0
    7.0527  -14.3907   19.2618 C   0  0  0  0  0  0  0  0  0  0  0  0
    8.0039  -13.4562   20.0499 C   0  0  1  0  0  0  0  0  0  0  0  0
    7.3118  -12.0994   20.0004 C   0  0  0  0  0  0  0  0  0  0  0  0
    8.1372  -13.9890   21.4301 C   0  0  0  0  0  0  0  0  0  0  0  0
    8.8215  -15.3141   21.5837 C   0  0  2  0  0  0  0  0  0  0  0  0
    7.9782  -16.4199   21.2826 N   0  0  0  0  0  0  0  0  0  0  0  0
    9.4964  -15.4103   22.9149 C   0  0  0  0  0  0  0  0  0  0  0  0
   10.4215  -14.5955   23.1714 O   0  0  0  0  0  0  0  0  0  0  0  0
    9.1422  -16.3629   23.8781 N   0  0  0  0  0  0  0  0  0  0  0  0
    9.8074  -16.4849   25.1709 C   0  0  1  0  0  0  0  0  0  0  0  0
    8.7338  -16.7607   26.2179 C   0  0  0  0  0  0  0  0  0  0  0  0
    7.6519  -15.7232   26.1432 C   0  0  0  0  0  0  0  0  0  0  0  0
    6.3575  -15.8845   25.6959 C   0  0  0  0  0  0  0  0  0  0  0  0
    5.6957  -14.7175   25.7856 N   0  0  0  0  0  0  0  0  0  0  0  0
    6.5144  -13.7643   26.2855 C   0  0  0  0  0  0  0  0  0  0  0  0
    6.3142  -12.4282   26.5631 C   0  0  0  0  0  0  0  0  0  0  0  0
    7.3532  -11.6823   27.0793 C   0  0  0  0  0  0  0  0  0  0  0  0
    8.5652  -12.3156   27.2983 C   0  0  0  0  0  0  0  0  0  0  0  0
    8.7721  -13.6502   27.0232 C   0  0  0  0  0  0  0  0  0  0  0  0
    7.7426  -14.3958   26.5100 C   0  0  0  0  0  0  0  0  0  0  0  0
   10.7269  -17.6424   25.1640 C   0  0  0  0  0  0  0  0  0  0  0  0
   10.7987  -18.5319   24.0921 O   0  0  0  0  0  0  0  0  0  0  0  0
   11.4718  -17.8267   26.1683 O   0  0  0  0  0  0  0  0  0  0  0  0
  2  1  1  6
  2  3  1  0
  2  5  1  0
  3  4  1  0
  5 12  1  0
  5  6  2  0
  8  7  1  6
  8  9  1  0
 10  8  1  0
 11 13  1  0
 11 10  1  1
 12 11  1  0
 13 14  2  0
 15 13  1  0
 16 15  1  0
 16 17  1  1
 17 18  1  0
 18 19  2  0
 19 20  1  0
 21 22  2  0
 21 20  1  0
 23 22  1  0
 24 23  2  0
 25 24  1  0
 25 26  2  0
 26 18  1  0
 26 21  1  0
 27 16  1  0
 28 27  1  0
 29 27  2  0
M  END
$$$$
