CLW.pdb
     RDKit          3D

 29 30  0  0  1  0  0  0  0  0999 V2000
    6.8394  -19.5301   20.1676 N   0  0  0  0  0  0  0  0  0  0  0  0
    6.8180  -18.7646   21.3941 C   0  0  1  0  0  0  0  0  0  0  0  0
    7.0092  -19.7386   22.5386 C   0  0  0  0  0  0  0  0  0  0  0  0
    7.0227  -18.8612   24.1236 S   0  0  0  0  0  0  0  0  0  0  0  0
    7.8997  -17.7607   21.3371 C   0  0  0  0  0  0  0  0  0  0  0  0
    8.9783  -18.0487   20.7802 O   0  0  0  0  0  0  0  0  0  0  0  0
    7.1207  -12.3967   20.4599 C   0  0  0  0  0  0  0  0  0  0  0  0
    7.5202  -13.8926   20.5018 C   0  0  1  0  0  0  0  0  0  0  0  0
    8.2285  -14.1220   19.1721 C   0  0  0  0  0  0  0  0  0  0  0  0
    8.4073  -14.1020   21.6749 C   0  0  0  0  0  0  0  0  0  0  0  0
    8.8391  -15.5096   21.9574 C   0  0  2  0  0  0  0  0  0  0  0  0
    7.7704  -16.4472   21.8998 N   0  0  0  0  0  0  0  0  0  0  0  0
    9.6367  -15.5751   23.2209 C   0  0  0  0  0  0  0  0  0  0  0  0
   10.6899  -14.8890   23.2940 O   0  0  0  0  0  0  0  0  0  0  0  0
    9.2605  -16.3630   24.3156 N   0  0  0  0  0  0  0  0  0  0  0  0
   10.0608  -16.4881   25.5291 C   0  0  1  0  0  0  0  0  0  0  0  0
    9.1332  -16.2649   26.7184 C   0  0  0  0  0  0  0  0  0  0  0  0
    7.9033  -15.5192   26.2895 C   0  0  0  0  0  0  0  0  0  0  0  0
    6.7438  -16.0406   25.7553 C   0  0  0  0  0  0  0  0  0  0  0  0
    5.8732  -15.0481   25.5004 N   0  0  0  0  0  0  0  0  0  0  0  0
    6.4173  -13.8607   25.8508 C   0  0  0  0  0  0  0  0  0  0  0  0
    5.9353  -12.5699   25.7881 C   0  0  0  0  0  0  0  0  0  0  0  0
    6.7290  -11.5304   26.2260 C   0  0  0  0  0  0  0  0  0  0  0  0
    7.9890  -11.8325   26.7148 C   0  0  0  0  0  0  0  0  0  0  0  0
    8.4769  -13.1200   26.7803 C   0  0  0  0  0  0  0  0  0  0  0  0
    7.6919  -14.1566   26.3462 C   0  0  0  0  0  0  0  0  0  0  0  0
   10.6044  -17.8580   25.6425 C   0  0  0  0  0  0  0  0  0  0  0  0
   11.5029  -18.2236   26.6448 O   0  0  0  0  0  0  0  0  0  0  0  0
   10.2379  -18.7240   24.7981 O   0  0  0  0  0  0  0  0  0  0  0  0
  2  1  1  6
  2  3  1  0
  2  5  1  0
  3  4  1  0
  5 12  1  0
  5  6  2  0
  8  7  1  6
  8  9  1  0
 10  8  1  0
 11 13  1  0
 11 10  1  1
 12 11  1  0
 13 14  2  0
 15 13  1  0
 16 15  1  0
 16 17  1  1
 17 18  1  0
 18 19  2  0
 19 20  1  0
 21 22  2  0
 21 20  1  0
 23 22  1  0
 24 23  2  0
 25 24  1  0
 25 26  2  0
 26 18  1  0
 26 21  1  0
 27 16  1  0
 28 27  1  0
 29 27  2  0
M  END
$$$$
