CLW.pdb
     RDKit          3D

 29 30  0  0  1  0  0  0  0  0999 V2000
    8.8493  -19.2588   17.8038 N   0  0  0  0  0  0  0  0  0  0  0  0
    8.3948  -18.7124   19.0631 C   0  0  1  0  0  0  0  0  0  0  0  0
    8.4586  -19.8257   20.0886 C   0  0  0  0  0  0  0  0  0  0  0  0
    7.7780  -19.2694   21.6728 S   0  0  0  0  0  0  0  0  0  0  0  0
    9.2703  -17.5790   19.4236 C   0  0  0  0  0  0  0  0  0  0  0  0
   10.4925  -17.6439   19.1817 O   0  0  0  0  0  0  0  0  0  0  0  0
    7.0375  -12.4385   20.1234 C   0  0  0  0  0  0  0  0  0  0  0  0
    7.8232  -13.6722   19.6139 C   0  0  1  0  0  0  0  0  0  0  0  0
    8.4217  -13.2075   18.2916 C   0  0  0  0  0  0  0  0  0  0  0  0
    8.8533  -14.0157   20.6276 C   0  0  0  0  0  0  0  0  0  0  0  0
    9.6102  -15.2934   20.4211 C   0  0  2  0  0  0  0  0  0  0  0  0
    8.7775  -16.3855   20.0490 N   0  0  0  0  0  0  0  0  0  0  0  0
   10.4977  -15.5778   21.5908 C   0  0  0  0  0  0  0  0  0  0  0  0
   11.6034  -14.9789   21.6561 O   0  0  0  0  0  0  0  0  0  0  0  0
   10.1495  -16.4763   22.6067 N   0  0  0  0  0  0  0  0  0  0  0  0
    9.5594  -16.0654   23.8762 C   0  0  1  0  0  0  0  0  0  0  0  0
    8.2637  -15.3246   23.5642 C   0  0  0  0  0  0  0  0  0  0  0  0
    7.5563  -14.9510   24.8340 C   0  0  0  0  0  0  0  0  0  0  0  0
    6.8644  -15.7816   25.6902 C   0  0  0  0  0  0  0  0  0  0  0  0
    6.3726  -15.0682   26.7185 N   0  0  0  0  0  0  0  0  0  0  0  0
    6.7162  -13.7678   26.5792 C   0  0  0  0  0  0  0  0  0  0  0  0
    6.4587  -12.6567   27.3548 C   0  0  0  0  0  0  0  0  0  0  0  0
    6.9461  -11.4287   26.9589 C   0  0  0  0  0  0  0  0  0  0  0  0
    7.6806  -11.3653   25.7865 C   0  0  0  0  0  0  0  0  0  0  0  0
    7.9415  -12.4715   25.0068 C   0  0  0  0  0  0  0  0  0  0  0  0
    7.4593  -13.6943   25.3960 C   0  0  0  0  0  0  0  0  0  0  0  0
    9.2072  -17.2530   24.6829 C   0  0  0  0  0  0  0  0  0  0  0  0
    9.1010  -17.2059   26.0729 O   0  0  0  0  0  0  0  0  0  0  0  0
    8.9961  -18.3466   24.0858 O   0  0  0  0  0  0  0  0  0  0  0  0
  2  1  1  6
  2  3  1  0
  2  5  1  0
  3  4  1  0
  5 12  1  0
  5  6  2  0
  8  7  1  1
  8  9  1  0
 10  8  1  0
 11 13  1  0
 11 10  1  1
 12 11  1  0
 13 14  2  0
 15 13  1  0
 16 15  1  0
 16 17  1  6
 17 18  1  0
 18 19  2  0
 19 20  1  0
 21 22  2  0
 21 20  1  0
 23 22  1  0
 24 23  2  0
 25 24  1  0
 25 26  2  0
 26 18  1  0
 26 21  1  0
 27 16  1  0
 28 27  1  0
 29 27  2  0
M  END
$$$$
