CLW.pdb
     RDKit          3D

 29 30  0  0  1  0  0  0  0  0999 V2000
    5.7028  -17.9272   24.1890 N   0  0  0  0  0  0  0  0  0  0  0  0
    5.8432  -17.7899   22.7564 C   0  0  1  0  0  0  0  0  0  0  0  0
    4.4674  -17.4990   22.1929 C   0  0  0  0  0  0  0  0  0  0  0  0
    3.2818  -18.7594   22.7298 S   0  0  0  0  0  0  0  0  0  0  0  0
    6.7948  -16.6940   22.4833 C   0  0  0  0  0  0  0  0  0  0  0  0
    7.1765  -16.4870   21.3137 O   0  0  0  0  0  0  0  0  0  0  0  0
    7.5061  -12.0069   25.7559 C   0  0  0  0  0  0  0  0  0  0  0  0
    7.6866  -13.4869   25.3363 C   0  0  1  0  0  0  0  0  0  0  0  0
    6.3526  -14.1346   25.6872 C   0  0  0  0  0  0  0  0  0  0  0  0
    7.9835  -13.5225   23.8812 C   0  0  0  0  0  0  0  0  0  0  0  0
    8.3171  -14.8585   23.2884 C   0  0  2  0  0  0  0  0  0  0  0  0
    7.3117  -15.8398   23.5137 N   0  0  0  0  0  0  0  0  0  0  0  0
    9.6895  -15.2908   23.6963 C   0  0  0  0  0  0  0  0  0  0  0  0
   10.6448  -14.4938   23.5026 O   0  0  0  0  0  0  0  0  0  0  0  0
    9.9504  -16.5365   24.2801 N   0  0  0  0  0  0  0  0  0  0  0  0
   11.2564  -17.1858   24.2396 C   0  0  1  0  0  0  0  0  0  0  0  0
   11.8574  -17.1005   25.6383 C   0  0  0  0  0  0  0  0  0  0  0  0
   10.7710  -17.0769   26.6736 C   0  0  0  0  0  0  0  0  0  0  0  0
    9.9172  -18.1015   27.0243 C   0  0  0  0  0  0  0  0  0  0  0  0
    9.0831  -17.6874   27.9942 N   0  0  0  0  0  0  0  0  0  0  0  0
    9.3523  -16.4007   28.3111 C   0  0  0  0  0  0  0  0  0  0  0  0
    8.7871  -15.5376   29.2266 C   0  0  0  0  0  0  0  0  0  0  0  0
    9.2763  -14.2527   29.3351 C   0  0  0  0  0  0  0  0  0  0  0  0
   10.3255  -13.8820   28.5105 C   0  0  0  0  0  0  0  0  0  0  0  0
   10.8948  -14.7393   27.5936 C   0  0  0  0  0  0  0  0  0  0  0  0
   10.4121  -16.0175   27.4818 C   0  0  0  0  0  0  0  0  0  0  0  0
   11.1035  -18.6187   23.9099 C   0  0  0  0  0  0  0  0  0  0  0  0
   12.1965  -19.4762   23.7848 O   0  0  0  0  0  0  0  0  0  0  0  0
    9.9384  -19.0766   23.7367 O   0  0  0  0  0  0  0  0  0  0  0  0
  2  1  1  1
  2  3  1  0
  2  5  1  0
  3  4  1  0
  5 12  1  0
  5  6  2  0
  8  7  1  6
  8  9  1  0
 10  8  1  0
 11 13  1  0
 11 10  1  1
 12 11  1  0
 13 14  2  0
 15 13  1  0
 16 15  1  0
 16 17  1  1
 17 18  1  0
 18 19  2  0
 19 20  1  0
 21 22  2  0
 21 20  1  0
 23 22  1  0
 24 23  2  0
 25 24  1  0
 25 26  2  0
 26 18  1  0
 26 21  1  0
 27 16  1  0
 28 27  1  0
 29 27  2  0
M  END
$$$$
