CLW.pdb
     RDKit          3D

 29 30  0  0  1  0  0  0  0  0999 V2000
   12.3822  -17.1493   18.4865 N   0  0  0  0  0  0  0  0  0  0  0  0
   11.2975  -17.7429   19.2362 C   0  0  1  0  0  0  0  0  0  0  0  0
   11.7452  -19.1265   19.6608 C   0  0  0  0  0  0  0  0  0  0  0  0
   10.4430  -19.9506   20.6137 S   0  0  0  0  0  0  0  0  0  0  0  0
   11.0034  -16.8777   20.3963 C   0  0  0  0  0  0  0  0  0  0  0  0
   11.9439  -16.4025   21.0643 O   0  0  0  0  0  0  0  0  0  0  0  0
    5.9842  -14.2396   20.9731 C   0  0  0  0  0  0  0  0  0  0  0  0
    7.5118  -14.4637   20.8496 C   0  0  1  0  0  0  0  0  0  0  0  0
    8.0939  -13.0556   20.8739 C   0  0  0  0  0  0  0  0  0  0  0  0
    7.9523  -15.2931   22.0006 C   0  0  0  0  0  0  0  0  0  0  0  0
    9.3629  -15.8003   21.9721 C   0  0  2  0  0  0  0  0  0  0  0  0
    9.6666  -16.5498   20.8013 N   0  0  0  0  0  0  0  0  0  0  0  0
    9.6979  -16.5052   23.2479 C   0  0  0  0  0  0  0  0  0  0  0  0
   10.3839  -17.5589   23.1813 O   0  0  0  0  0  0  0  0  0  0  0  0
    9.2816  -16.0425   24.5022 N   0  0  0  0  0  0  0  0  0  0  0  0
   10.0650  -16.2101   25.7217 C   0  0  1  0  0  0  0  0  0  0  0  0
    9.1401  -15.9441   26.9043 C   0  0  0  0  0  0  0  0  0  0  0  0
    7.9444  -15.1505   26.4648 C   0  0  0  0  0  0  0  0  0  0  0  0
    6.7465  -15.6294   25.9776 C   0  0  0  0  0  0  0  0  0  0  0  0
    5.9269  -14.6020   25.6936 N   0  0  0  0  0  0  0  0  0  0  0  0
    6.5434  -13.4325   25.9778 C   0  0  0  0  0  0  0  0  0  0  0  0
    6.1325  -12.1208   25.8643 C   0  0  0  0  0  0  0  0  0  0  0  0
    6.9918  -11.1088   26.2381 C   0  0  0  0  0  0  0  0  0  0  0  0
    8.2435  -11.4590   26.7162 C   0  0  0  0  0  0  0  0  0  0  0  0
    8.6606  -12.7676   26.8322 C   0  0  0  0  0  0  0  0  0  0  0  0
    7.8101  -13.7770   26.4620 C   0  0  0  0  0  0  0  0  0  0  0  0
   10.5391  -17.6056   25.8355 C   0  0  0  0  0  0  0  0  0  0  0  0
   11.4393  -18.0098   26.8212 O   0  0  0  0  0  0  0  0  0  0  0  0
   10.1094  -18.4579   25.0070 O   0  0  0  0  0  0  0  0  0  0  0  0
  2  1  1  1
  2  3  1  0
  2  5  1  0
  3  4  1  0
  5 12  1  0
  5  6  2  0
  8  7  1  1
  8  9  1  0
 10  8  1  0
 11 13  1  0
 11 10  1  1
 12 11  1  0
 13 14  2  0
 15 13  1  0
 16 15  1  0
 16 17  1  1
 17 18  1  0
 18 19  2  0
 19 20  1  0
 21 22  2  0
 21 20  1  0
 23 22  1  0
 24 23  2  0
 25 24  1  0
 25 26  2  0
 26 18  1  0
 26 21  1  0
 27 16  1  0
 28 27  1  0
 29 27  2  0
M  END
$$$$
