CLW.pdb
     RDKit          3D

 29 30  0  0  1  0  0  0  0  0999 V2000
    7.4312  -19.6680   19.7554 N   0  0  0  0  0  0  0  0  0  0  0  0
    7.1369  -18.6946   20.7834 C   0  0  1  0  0  0  0  0  0  0  0  0
    6.7963  -19.4592   22.0461 C   0  0  0  0  0  0  0  0  0  0  0  0
    8.3064  -20.0202   22.8754 S   0  0  0  0  0  0  0  0  0  0  0  0
    8.3222  -17.8322   20.9629 C   0  0  0  0  0  0  0  0  0  0  0  0
    9.4222  -18.1927   20.4976 O   0  0  0  0  0  0  0  0  0  0  0  0
    7.7364  -12.2759   21.4967 C   0  0  0  0  0  0  0  0  0  0  0  0
    7.7168  -13.8247   21.5062 C   0  0  1  0  0  0  0  0  0  0  0  0
    6.8449  -14.1894   20.3108 C   0  0  0  0  0  0  0  0  0  0  0  0
    9.1158  -14.3059   21.3718 C   0  0  0  0  0  0  0  0  0  0  0  0
    9.3938  -15.7150   21.8019 C   0  0  2  0  0  0  0  0  0  0  0  0
    8.2717  -16.5779   21.6578 N   0  0  0  0  0  0  0  0  0  0  0  0
   10.0083  -15.7408   23.1652 C   0  0  0  0  0  0  0  0  0  0  0  0
   11.0213  -15.0225   23.3732 O   0  0  0  0  0  0  0  0  0  0  0  0
    9.5049  -16.5259   24.2096 N   0  0  0  0  0  0  0  0  0  0  0  0
   10.2405  -16.7938   25.4408 C   0  0  1  0  0  0  0  0  0  0  0  0
    9.8467  -15.7256   26.4551 C   0  0  0  0  0  0  0  0  0  0  0  0
    8.4108  -15.3311   26.2681 C   0  0  0  0  0  0  0  0  0  0  0  0
    7.3393  -16.1532   25.9895 C   0  0  0  0  0  0  0  0  0  0  0  0
    6.2155  -15.4208   25.8954 N   0  0  0  0  0  0  0  0  0  0  0  0
    6.5010  -14.1156   26.1046 C   0  0  0  0  0  0  0  0  0  0  0  0
    5.7079  -12.9872   26.1141 C   0  0  0  0  0  0  0  0  0  0  0  0
    6.2840  -11.7587   26.3616 C   0  0  0  0  0  0  0  0  0  0  0  0
    7.6488  -11.7125   26.5922 C   0  0  0  0  0  0  0  0  0  0  0  0
    8.4471  -12.8361   26.5841 C   0  0  0  0  0  0  0  0  0  0  0  0
    7.8793  -14.0595   26.3386 C   0  0  0  0  0  0  0  0  0  0  0  0
    9.8410  -18.1031   25.9989 C   0  0  0  0  0  0  0  0  0  0  0  0
   10.4534  -18.6522   27.1254 O   0  0  0  0  0  0  0  0  0  0  0  0
    8.9107  -18.7424   25.4304 O   0  0  0  0  0  0  0  0  0  0  0  0
  2  1  1  6
  2  3  1  0
  2  5  1  0
  3  4  1  0
  5 12  1  0
  5  6  2  0
  8  7  1  6
  8  9  1  0
 10  8  1  0
 11 13  1  0
 11 10  1  1
 12 11  1  0
 13 14  2  0
 15 13  1  0
 16 15  1  0
 16 17  1  1
 17 18  1  0
 18 19  2  0
 19 20  1  0
 21 22  2  0
 21 20  1  0
 23 22  1  0
 24 23  2  0
 25 24  1  0
 25 26  2  0
 26 18  1  0
 26 21  1  0
 27 16  1  0
 28 27  1  0
 29 27  2  0
M  END
$$$$
