CLW.pdb
     RDKit          3D

 29 30  0  0  1  0  0  0  0  0999 V2000
    6.7388  -19.6762   20.9194 N   0  0  0  0  0  0  0  0  0  0  0  0
    6.4768  -18.4512   21.6418 C   0  0  1  0  0  0  0  0  0  0  0  0
    6.0846  -18.8341   23.0541 C   0  0  0  0  0  0  0  0  0  0  0  0
    7.5472  -19.3071   24.0132 S   0  0  0  0  0  0  0  0  0  0  0  0
    7.6986  -17.6221   21.6137 C   0  0  0  0  0  0  0  0  0  0  0  0
    8.7727  -18.1212   21.2216 O   0  0  0  0  0  0  0  0  0  0  0  0
    7.3634  -12.2458   20.3545 C   0  0  0  0  0  0  0  0  0  0  0  0
    7.7438  -13.7468   20.3907 C   0  0  1  0  0  0  0  0  0  0  0  0
    8.5354  -13.9573   19.1056 C   0  0  0  0  0  0  0  0  0  0  0  0
    8.5498  -13.9905   21.6145 C   0  0  0  0  0  0  0  0  0  0  0  0
    8.8671  -15.4178   21.9460 C   0  0  2  0  0  0  0  0  0  0  0  0
    7.7131  -16.2467   22.0218 N   0  0  0  0  0  0  0  0  0  0  0  0
    9.7519  -15.4978   23.1491 C   0  0  0  0  0  0  0  0  0  0  0  0
   10.8511  -14.8843   23.1191 O   0  0  0  0  0  0  0  0  0  0  0  0
    9.4080  -16.2220   24.2971 N   0  0  0  0  0  0  0  0  0  0  0  0
   10.2577  -16.3047   25.4803 C   0  0  1  0  0  0  0  0  0  0  0  0
    9.3702  -16.0900   26.7014 C   0  0  0  0  0  0  0  0  0  0  0  0
    8.0586  -15.4844   26.2945 C   0  0  0  0  0  0  0  0  0  0  0  0
    6.9325  -16.1377   25.8399 C   0  0  0  0  0  0  0  0  0  0  0  0
    5.9621  -15.2444   25.5783 N   0  0  0  0  0  0  0  0  0  0  0  0
    6.4055  -13.9953   25.8460 C   0  0  0  0  0  0  0  0  0  0  0  0
    5.8015  -12.7595   25.7439 C   0  0  0  0  0  0  0  0  0  0  0  0
    6.5107  -11.6298   26.0946 C   0  0  0  0  0  0  0  0  0  0  0  0
    7.8129  -11.7885   26.5386 C   0  0  0  0  0  0  0  0  0  0  0  0
    8.4226  -13.0202   26.6430 C   0  0  0  0  0  0  0  0  0  0  0  0
    7.7218  -14.1461   26.2957 C   0  0  0  0  0  0  0  0  0  0  0  0
   10.8458  -17.6562   25.5924 C   0  0  0  0  0  0  0  0  0  0  0  0
   10.4797  -18.7019   24.7450 O   0  0  0  0  0  0  0  0  0  0  0  0
   11.7106  -17.8650   26.4901 O   0  0  0  0  0  0  0  0  0  0  0  0
  2  1  1  6
  2  3  1  0
  2  5  1  0
  3  4  1  0
  5 12  1  0
  5  6  2  0
  8  7  1  1
  8  9  1  0
 10  8  1  0
 11 13  1  0
 11 10  1  1
 12 11  1  0
 13 14  2  0
 15 13  1  0
 16 15  1  0
 16 17  1  1
 17 18  1  0
 18 19  2  0
 19 20  1  0
 21 22  2  0
 21 20  1  0
 23 22  1  0
 24 23  2  0
 25 24  1  0
 25 26  2  0
 26 18  1  0
 26 21  1  0
 27 16  1  0
 28 27  1  0
 29 27  2  0
M  END
$$$$
