CLW.pdb
     RDKit          3D

 29 30  0  0  1  0  0  0  0  0999 V2000
    9.6325  -19.1533   18.8111 N   0  0  0  0  0  0  0  0  0  0  0  0
    9.0673  -18.9211   20.1216 C   0  0  1  0  0  0  0  0  0  0  0  0
    9.4969  -20.0708   21.0097 C   0  0  0  0  0  0  0  0  0  0  0  0
    8.8258  -19.8677   22.6803 S   0  0  0  0  0  0  0  0  0  0  0  0
    9.5633  -17.6227   20.6207 C   0  0  0  0  0  0  0  0  0  0  0  0
   10.7767  -17.3491   20.5251 O   0  0  0  0  0  0  0  0  0  0  0  0
    6.5807  -12.9997   20.0753 C   0  0  0  0  0  0  0  0  0  0  0  0
    7.6416  -14.1281   20.0670 C   0  0  1  0  0  0  0  0  0  0  0  0
    8.6872  -13.6433   19.0700 C   0  0  0  0  0  0  0  0  0  0  0  0
    8.1769  -14.2701   21.4454 C   0  0  0  0  0  0  0  0  0  0  0  0
    9.1615  -15.3759   21.6814 C   0  0  2  0  0  0  0  0  0  0  0  0
    8.7047  -16.6423   21.2208 N   0  0  0  0  0  0  0  0  0  0  0  0
    9.6243  -15.3781   23.1035 C   0  0  0  0  0  0  0  0  0  0  0  0
   10.2018  -14.3483   23.5412 O   0  0  0  0  0  0  0  0  0  0  0  0
    9.4417  -16.4713   23.9592 N   0  0  0  0  0  0  0  0  0  0  0  0
    9.9229  -16.5038   25.3362 C   0  0  1  0  0  0  0  0  0  0  0  0
    8.7431  -16.8737   26.2285 C   0  0  0  0  0  0  0  0  0  0  0  0
    7.6158  -15.9020   26.0343 C   0  0  0  0  0  0  0  0  0  0  0  0
    6.4060  -16.1267   25.4118 C   0  0  0  0  0  0  0  0  0  0  0  0
    5.6638  -15.0058   25.4406 N   0  0  0  0  0  0  0  0  0  0  0  0
    6.3448  -14.0220   26.0707 C   0  0  0  0  0  0  0  0  0  0  0  0
    6.0230  -12.7107   26.3523 C   0  0  0  0  0  0  0  0  0  0  0  0
    6.9332  -11.9208   27.0232 C   0  0  0  0  0  0  0  0  0  0  0  0
    8.1436  -12.4862   27.3882 C   0  0  0  0  0  0  0  0  0  0  0  0
    8.4716  -13.7957   27.1099 C   0  0  0  0  0  0  0  0  0  0  0  0
    7.5703  -14.5848   26.4434 C   0  0  0  0  0  0  0  0  0  0  0  0
   10.9456  -17.5593   25.4942 C   0  0  0  0  0  0  0  0  0  0  0  0
   11.6300  -17.7617   26.6926 O   0  0  0  0  0  0  0  0  0  0  0  0
   11.2043  -18.3013   24.5044 O   0  0  0  0  0  0  0  0  0  0  0  0
  2  1  1  6
  2  3  1  0
  2  5  1  0
  3  4  1  0
  5 12  1  0
  5  6  2  0
  8  7  1  1
  8  9  1  0
 10  8  1  0
 11 13  1  0
 11 10  1  1
 12 11  1  0
 13 14  2  0
 15 13  1  0
 16 15  1  0
 16 17  1  1
 17 18  1  0
 18 19  2  0
 19 20  1  0
 21 22  2  0
 21 20  1  0
 23 22  1  0
 24 23  2  0
 25 24  1  0
 25 26  2  0
 26 18  1  0
 26 21  1  0
 27 16  1  0
 28 27  1  0
 29 27  2  0
M  END
$$$$
