AIF.pdb
     RDKit          3D

 25 25  0  0  1  0  0  0  0  0999 V2000
    8.1544  -19.7407   20.3220 C   0  0  0  0  0  0  0  0  0  0  0  0
    8.5171  -18.5181   19.5326 C   0  0  2  0  0  0  0  0  0  0  0  0
    9.5678  -18.8304   18.6136 N   0  0  0  0  0  0  0  0  0  0  0  0
    8.9115  -17.3784   20.4285 C   0  0  0  0  0  0  0  0  0  0  0  0
   10.0915  -17.2826   20.8307 O   0  0  0  0  0  0  0  0  0  0  0  0
    7.5326  -12.2768   19.3317 C   0  0  0  0  0  0  0  0  0  0  0  0
    8.1679  -13.5516   19.8569 C   0  0  0  0  0  0  0  0  0  0  0  0
    7.6423  -13.9544   21.2162 C   0  0  2  0  0  0  0  0  0  0  0  0
    8.0155  -12.8391   22.1935 C   0  0  0  0  0  0  0  0  0  0  0  0
    8.1977  -15.2790   21.6667 C   0  0  2  0  0  0  0  0  0  0  0  0
    7.9786  -16.4018   20.8342 N   0  0  0  0  0  0  0  0  0  0  0  0
    8.1014  -15.5259   23.1005 C   0  0  0  0  0  0  0  0  0  0  0  0
    7.0319  -15.9594   23.5874 O   0  0  0  0  0  0  0  0  0  0  0  0
    9.1761  -15.3003   24.0162 N   0  0  0  0  0  0  0  0  0  0  0  0
    8.9668  -15.6314   25.4326 C   0  0  1  0  0  0  0  0  0  0  0  0
    7.5065  -15.4637   25.7870 C   0  0  0  0  0  0  0  0  0  0  0  0
    7.1978  -14.0673   26.0855 C   0  0  0  0  0  0  0  0  0  0  0  0
    5.9137  -13.6094   26.0889 C   0  0  0  0  0  0  0  0  0  0  0  0
    5.6607  -12.2909   26.3867 C   0  0  0  0  0  0  0  0  0  0  0  0
    6.6825  -11.4187   26.6831 C   0  0  0  0  0  0  0  0  0  0  0  0
    7.9813  -11.8773   26.6807 C   0  0  0  0  0  0  0  0  0  0  0  0
    8.2322  -13.1894   26.3843 C   0  0  0  0  0  0  0  0  0  0  0  0
    9.5225  -16.9497   25.7539 C   0  0  0  0  0  0  0  0  0  0  0  0
   10.1027  -17.8336   24.8662 O   0  0  0  0  0  0  0  0  0  0  0  0
    9.4771  -17.3447   26.9691 O   0  0  0  0  0  0  0  0  0  0  0  0
  2  4  1  0
  2  1  1  1
  3  2  1  0
  4  5  2  0
  6  7  1  0
  8 10  1  0
  8  9  1  1
  8  7  1  0
 10 11  1  6
 11  4  1  0
 12 14  1  0
 12 10  1  0
 13 12  2  0
 15 14  1  0
 15 16  1  6
 17 16  1  0
 18 17  2  0
 19 18  1  0
 20 19  2  0
 20 21  1  0
 21 22  2  0
 22 17  1  0
 23 24  1  0
 23 15  1  0
 25 23  2  0
M  END
$$$$
