AIF.pdb
     RDKit          3D

 25 25  0  0  1  0  0  0  0  0999 V2000
    7.6190  -19.6299   21.0468 C   0  0  0  0  0  0  0  0  0  0  0  0
    7.9193  -18.5906   20.0080 C   0  0  2  0  0  0  0  0  0  0  0  0
    8.7148  -19.1639   18.9666 N   0  0  0  0  0  0  0  0  0  0  0  0
    8.6025  -17.3932   20.6054 C   0  0  0  0  0  0  0  0  0  0  0  0
    9.8476  -17.3791   20.7180 O   0  0  0  0  0  0  0  0  0  0  0  0
    6.9626  -12.1785   19.6898 C   0  0  0  0  0  0  0  0  0  0  0  0
    7.7960  -13.4025   20.0242 C   0  0  0  0  0  0  0  0  0  0  0  0
    7.6797  -13.8155   21.4741 C   0  0  2  0  0  0  0  0  0  0  0  0
    8.3029  -12.6993   22.3132 C   0  0  0  0  0  0  0  0  0  0  0  0
    8.3526  -15.1354   21.7411 C   0  0  2  0  0  0  0  0  0  0  0  0
    7.8717  -16.2712   21.0481 N   0  0  0  0  0  0  0  0  0  0  0  0
    8.7338  -15.3565   23.1310 C   0  0  0  0  0  0  0  0  0  0  0  0
    9.7829  -14.8392   23.5789 O   0  0  0  0  0  0  0  0  0  0  0  0
    7.9695  -16.1469   24.0450 N   0  0  0  0  0  0  0  0  0  0  0  0
    8.3552  -16.1420   25.4630 C   0  0  1  0  0  0  0  0  0  0  0  0
    7.1737  -15.7328   26.3133 C   0  0  0  0  0  0  0  0  0  0  0  0
    7.1262  -14.2820   26.4789 C   0  0  0  0  0  0  0  0  0  0  0  0
    8.2481  -13.5637   26.7691 C   0  0  0  0  0  0  0  0  0  0  0  0
    8.1669  -12.1978   26.9055 C   0  0  0  0  0  0  0  0  0  0  0  0
    6.9700  -11.5366   26.7544 C   0  0  0  0  0  0  0  0  0  0  0  0
    5.8342  -12.2586   26.4612 C   0  0  0  0  0  0  0  0  0  0  0  0
    5.9158  -13.6177   26.3256 C   0  0  0  0  0  0  0  0  0  0  0  0
    8.9678  -17.4176   25.8476 C   0  0  0  0  0  0  0  0  0  0  0  0
    9.7820  -17.6398   26.9401 O   0  0  0  0  0  0  0  0  0  0  0  0
    8.7425  -18.4411   25.1152 O   0  0  0  0  0  0  0  0  0  0  0  0
  2  4  1  0
  2  1  1  1
  3  2  1  0
  4  5  2  0
  6  7  1  0
  8 10  1  0
  8  9  1  1
  8  7  1  0
 10 11  1  1
 11  4  1  0
 12 14  1  0
 12 10  1  0
 13 12  2  0
 15 14  1  0
 15 16  1  1
 17 16  1  0
 18 17  2  0
 19 18  1  0
 20 19  2  0
 20 21  1  0
 21 22  2  0
 22 17  1  0
 23 24  1  0
 23 15  1  0
 25 23  2  0
M  END
$$$$
