AIF.pdb
     RDKit          3D

 25 25  0  0  1  0  0  0  0  0999 V2000
   10.4130  -17.5970   15.1755 C   0  0  0  0  0  0  0  0  0  0  0  0
   10.0118  -16.1525   15.1360 C   0  0  2  0  0  0  0  0  0  0  0  0
   10.6833  -15.4936   14.0585 N   0  0  0  0  0  0  0  0  0  0  0  0
   10.2931  -15.4647   16.4418 C   0  0  0  0  0  0  0  0  0  0  0  0
   11.4121  -14.9444   16.6426 O   0  0  0  0  0  0  0  0  0  0  0  0
    6.1940  -12.9057   19.2127 C   0  0  0  0  0  0  0  0  0  0  0  0
    7.5386  -13.3090   18.6347 C   0  0  0  0  0  0  0  0  0  0  0  0
    8.2477  -14.3533   19.4669 C   0  0  2  0  0  0  0  0  0  0  0  0
    8.6102  -13.6985   20.8004 C   0  0  0  0  0  0  0  0  0  0  0  0
    9.4723  -14.8905   18.7756 C   0  0  2  0  0  0  0  0  0  0  0  0
    9.3202  -15.3878   17.4599 N   0  0  0  0  0  0  0  0  0  0  0  0
   10.3788  -15.6422   19.6354 C   0  0  0  0  0  0  0  0  0  0  0  0
   10.2962  -16.8909   19.6869 O   0  0  0  0  0  0  0  0  0  0  0  0
   11.3856  -15.0335   20.4479 N   0  0  0  0  0  0  0  0  0  0  0  0
   12.1616  -15.8901   21.3556 C   0  0  1  0  0  0  0  0  0  0  0  0
   13.6008  -15.4275   21.3902 C   0  0  0  0  0  0  0  0  0  0  0  0
   14.2086  -15.5101   20.0643 C   0  0  0  0  0  0  0  0  0  0  0  0
   14.1707  -14.4569   19.1995 C   0  0  0  0  0  0  0  0  0  0  0  0
   14.7647  -14.5673   17.9641 C   0  0  0  0  0  0  0  0  0  0  0  0
   15.4003  -15.7253   17.5802 C   0  0  0  0  0  0  0  0  0  0  0  0
   15.4409  -16.7917   18.4510 C   0  0  0  0  0  0  0  0  0  0  0  0
   14.8497  -16.6811   19.6801 C   0  0  0  0  0  0  0  0  0  0  0  0
   11.5209  -15.9815   22.6714 C   0  0  0  0  0  0  0  0  0  0  0  0
   11.8764  -16.8318   23.6992 O   0  0  0  0  0  0  0  0  0  0  0  0
   10.5320  -15.2091   22.9168 O   0  0  0  0  0  0  0  0  0  0  0  0
  2  4  1  0
  2  1  1  1
  3  2  1  0
  4  5  2  0
  6  7  1  0
  8 10  1  0
  8  9  1  1
  8  7  1  0
 10 11  1  6
 11  4  1  0
 12 14  1  0
 12 10  1  0
 13 12  2  0
 15 14  1  0
 15 16  1  1
 17 16  1  0
 18 17  2  0
 19 18  1  0
 20 19  2  0
 20 21  1  0
 21 22  2  0
 22 17  1  0
 23 24  1  0
 23 15  1  0
 25 23  2  0
M  END
$$$$
