AIF.pdb
     RDKit          3D

 25 25  0  0  1  0  0  0  0  0999 V2000
    7.7001  -18.9524   18.7567 C   0  0  0  0  0  0  0  0  0  0  0  0
    7.7528  -18.6584   20.2264 C   0  0  2  0  0  0  0  0  0  0  0  0
    6.4244  -18.5634   20.7482 N   0  0  0  0  0  0  0  0  0  0  0  0
    8.5304  -17.4050   20.5119 C   0  0  0  0  0  0  0  0  0  0  0  0
    9.7524  -17.3578   20.2512 O   0  0  0  0  0  0  0  0  0  0  0  0
    6.9603  -12.4825   19.0931 C   0  0  0  0  0  0  0  0  0  0  0  0
    7.7741  -13.6801   19.5494 C   0  0  0  0  0  0  0  0  0  0  0  0
    7.9011  -13.7667   21.0536 C   0  0  2  0  0  0  0  0  0  0  0  0
    8.7369  -12.5688   21.5061 C   0  0  0  0  0  0  0  0  0  0  0  0
    8.5276  -15.0628   21.4938 C   0  0  2  0  0  0  0  0  0  0  0  0
    7.9151  -16.2663   21.0721 N   0  0  0  0  0  0  0  0  0  0  0  0
    9.0439  -15.0595   22.8574 C   0  0  0  0  0  0  0  0  0  0  0  0
    8.5130  -14.3256   23.7226 O   0  0  0  0  0  0  0  0  0  0  0  0
   10.1475  -15.8603   23.2876 N   0  0  0  0  0  0  0  0  0  0  0  0
   10.5315  -15.8149   24.7054 C   0  0  1  0  0  0  0  0  0  0  0  0
    9.3417  -16.1674   25.5694 C   0  0  0  0  0  0  0  0  0  0  0  0
    9.2814  -15.3103   26.7510 C   0  0  0  0  0  0  0  0  0  0  0  0
    8.4584  -14.2245   26.7988 C   0  0  0  0  0  0  0  0  0  0  0  0
    8.4193  -13.4479   27.9330 C   0  0  0  0  0  0  0  0  0  0  0  0
    9.1980  -13.7455   29.0274 C   0  0  0  0  0  0  0  0  0  0  0  0
   10.0309  -14.8417   28.9831 C   0  0  0  0  0  0  0  0  0  0  0  0
   10.0692  -15.6140   27.8542 C   0  0  0  0  0  0  0  0  0  0  0  0
   11.7257  -16.6285   24.9548 C   0  0  0  0  0  0  0  0  0  0  0  0
   11.8202  -18.0014   24.8452 O   0  0  0  0  0  0  0  0  0  0  0  0
   12.7991  -16.0324   25.3115 O   0  0  0  0  0  0  0  0  0  0  0  0
  2  4  1  0
  2  1  1  6
  3  2  1  0
  4  5  2  0
  6  7  1  0
  8 10  1  0
  8  9  1  6
  8  7  1  0
 10 11  1  1
 11  4  1  0
 12 14  1  0
 12 10  1  0
 13 12  2  0
 15 14  1  0
 15 16  1  1
 17 16  1  0
 18 17  2  0
 19 18  1  0
 20 19  2  0
 20 21  1  0
 21 22  2  0
 22 17  1  0
 23 24  1  0
 23 15  1  0
 25 23  2  0
M  END
$$$$
