AIF.pdb
     RDKit          3D

 25 25  0  0  1  0  0  0  0  0999 V2000
   11.0409  -18.9600   20.1356 C   0  0  0  0  0  0  0  0  0  0  0  0
   10.9815  -17.5580   19.6062 C   0  0  2  0  0  0  0  0  0  0  0  0
   12.2559  -17.1886   19.0721 N   0  0  0  0  0  0  0  0  0  0  0  0
   10.5429  -16.5857   20.6642 C   0  0  0  0  0  0  0  0  0  0  0  0
   11.3850  -16.0997   21.4503 O   0  0  0  0  0  0  0  0  0  0  0  0
    7.0544  -12.5177   19.7317 C   0  0  0  0  0  0  0  0  0  0  0  0
    8.1256  -13.4152   20.3247 C   0  0  0  0  0  0  0  0  0  0  0  0
    7.5835  -14.3726   21.3618 C   0  0  2  0  0  0  0  0  0  0  0  0
    7.1026  -13.5318   22.5451 C   0  0  0  0  0  0  0  0  0  0  0  0
    8.6153  -15.3793   21.7953 C   0  0  2  0  0  0  0  0  0  0  0  0
    9.1929  -16.2004   20.7984 N   0  0  0  0  0  0  0  0  0  0  0  0
    8.3345  -16.0322   23.0685 C   0  0  0  0  0  0  0  0  0  0  0  0
    7.8464  -17.1856   23.0827 O   0  0  0  0  0  0  0  0  0  0  0  0
    8.5858  -15.4281   24.3398 N   0  0  0  0  0  0  0  0  0  0  0  0
    8.3899  -16.2402   25.5489 C   0  0  1  0  0  0  0  0  0  0  0  0
    8.7160  -15.4185   26.7756 C   0  0  0  0  0  0  0  0  0  0  0  0
    7.9979  -14.1463   26.7589 C   0  0  0  0  0  0  0  0  0  0  0  0
    6.6479  -14.0910   26.9411 C   0  0  0  0  0  0  0  0  0  0  0  0
    6.0078  -12.8740   26.9313 C   0  0  0  0  0  0  0  0  0  0  0  0
    6.7053  -11.7037   26.7403 C   0  0  0  0  0  0  0  0  0  0  0  0
    8.0694  -11.7552   26.5559 C   0  0  0  0  0  0  0  0  0  0  0  0
    8.7056  -12.9666   26.5658 C   0  0  0  0  0  0  0  0  0  0  0  0
    7.0571  -16.8514   25.5637 C   0  0  0  0  0  0  0  0  0  0  0  0
    5.9974  -16.5279   24.7401 O   0  0  0  0  0  0  0  0  0  0  0  0
    6.8265  -17.7774   26.4146 O   0  0  0  0  0  0  0  0  0  0  0  0
  2  4  1  0
  2  1  1  1
  3  2  1  0
  4  5  2  0
  6  7  1  0
  8 10  1  0
  8  9  1  1
  8  7  1  0
 10 11  1  6
 11  4  1  0
 12 14  1  0
 12 10  1  0
 13 12  2  0
 15 14  1  0
 15 16  1  1
 17 16  1  0
 18 17  2  0
 19 18  1  0
 20 19  2  0
 20 21  1  0
 21 22  2  0
 22 17  1  0
 23 24  1  0
 23 15  1  0
 25 23  2  0
M  END
$$$$
