AIF.pdb
     RDKit          3D

 25 25  0  0  1  0  0  0  0  0999 V2000
    8.7264  -20.2538   21.9374 C   0  0  0  0  0  0  0  0  0  0  0  0
    8.4455  -19.2804   20.8316 C   0  0  2  0  0  0  0  0  0  0  0  0
    9.0005  -19.7674   19.6065 N   0  0  0  0  0  0  0  0  0  0  0  0
    8.9756  -17.9116   21.1521 C   0  0  0  0  0  0  0  0  0  0  0  0
   10.2041  -17.7416   21.3110 O   0  0  0  0  0  0  0  0  0  0  0  0
    7.7268  -11.8719   20.4344 C   0  0  0  0  0  0  0  0  0  0  0  0
    8.3345  -13.0009   21.2473 C   0  0  0  0  0  0  0  0  0  0  0  0
    7.7669  -14.3557   20.8891 C   0  0  2  0  0  0  0  0  0  0  0  0
    6.2737  -14.3210   21.2168 C   0  0  0  0  0  0  0  0  0  0  0  0
    8.4586  -15.4708   21.6268 C   0  0  2  0  0  0  0  0  0  0  0  0
    8.1178  -16.7996   21.2805 N   0  0  0  0  0  0  0  0  0  0  0  0
    8.6734  -15.2224   23.0474 C   0  0  0  0  0  0  0  0  0  0  0  0
    8.3934  -14.1023   23.5330 O   0  0  0  0  0  0  0  0  0  0  0  0
    9.1973  -16.1987   23.9511 N   0  0  0  0  0  0  0  0  0  0  0  0
    8.9876  -15.9991   25.3919 C   0  0  1  0  0  0  0  0  0  0  0  0
    7.5224  -15.7446   25.6654 C   0  0  0  0  0  0  0  0  0  0  0  0
    7.2921  -14.3465   26.0213 C   0  0  0  0  0  0  0  0  0  0  0  0
    8.2503  -13.6067   26.6484 C   0  0  0  0  0  0  0  0  0  0  0  0
    8.0019  -12.2898   26.9567 C   0  0  0  0  0  0  0  0  0  0  0  0
    6.7995  -11.6993   26.6437 C   0  0  0  0  0  0  0  0  0  0  0  0
    5.8287  -12.4433   26.0101 C   0  0  0  0  0  0  0  0  0  0  0  0
    6.0765  -13.7536   25.7037 C   0  0  0  0  0  0  0  0  0  0  0  0
    9.5680  -17.1002   26.1670 C   0  0  0  0  0  0  0  0  0  0  0  0
    9.8268  -17.1012   27.5232 O   0  0  0  0  0  0  0  0  0  0  0  0
    9.8751  -18.1772   25.5502 O   0  0  0  0  0  0  0  0  0  0  0  0
  2  4  1  0
  2  1  1  1
  3  2  1  0
  4  5  2  0
  6  7  1  0
  8 10  1  0
  8  9  1  1
  8  7  1  0
 10 11  1  1
 11  4  1  0
 12 14  1  0
 12 10  1  0
 13 12  2  0
 15 14  1  0
 15 16  1  6
 17 16  1  0
 18 17  2  0
 19 18  1  0
 20 19  2  0
 20 21  1  0
 21 22  2  0
 22 17  1  0
 23 24  1  0
 23 15  1  0
 25 23  2  0
M  END
$$$$
