AIF.pdb
     RDKit          3D

 25 25  0  0  1  0  0  0  0  0999 V2000
    7.9266  -12.0290   20.3462 C   0  0  0  0  0  0  0  0  0  0  0  0
    8.0367  -13.3079   19.5706 C   0  0  2  0  0  0  0  0  0  0  0  0
    6.9958  -13.3704   18.5915 N   0  0  0  0  0  0  0  0  0  0  0  0
    7.9941  -14.5077   20.4738 C   0  0  0  0  0  0  0  0  0  0  0  0
    6.8946  -15.0225   20.7731 O   0  0  0  0  0  0  0  0  0  0  0  0
   10.5487  -18.9161   19.4431 C   0  0  0  0  0  0  0  0  0  0  0  0
    9.6276  -17.8667   20.0390 C   0  0  0  0  0  0  0  0  0  0  0  0
   10.0985  -17.3667   21.3859 C   0  0  2  0  0  0  0  0  0  0  0  0
    9.9987  -18.5388   22.3630 C   0  0  0  0  0  0  0  0  0  0  0  0
    9.2911  -16.1902   21.8655 C   0  0  2  0  0  0  0  0  0  0  0  0
    9.1719  -15.0773   21.0002 N   0  0  0  0  0  0  0  0  0  0  0  0
    9.4491  -15.8773   23.2809 C   0  0  0  0  0  0  0  0  0  0  0  0
   10.4478  -15.2276   23.6674 O   0  0  0  0  0  0  0  0  0  0  0  0
    8.5143  -16.2728   24.2878 N   0  0  0  0  0  0  0  0  0  0  0  0
    8.8234  -15.9569   25.6894 C   0  0  1  0  0  0  0  0  0  0  0  0
    7.5577  -15.5610   26.4159 C   0  0  0  0  0  0  0  0  0  0  0  0
    7.2665  -14.1423   26.2239 C   0  0  0  0  0  0  0  0  0  0  0  0
    6.1949  -13.7311   25.4883 C   0  0  0  0  0  0  0  0  0  0  0  0
    5.9453  -12.3870   25.3396 C   0  0  0  0  0  0  0  0  0  0  0  0
    6.7592  -11.4426   25.9212 C   0  0  0  0  0  0  0  0  0  0  0  0
    7.8429  -11.8539   26.6653 C   0  0  0  0  0  0  0  0  0  0  0  0
    8.0907  -13.1916   26.8127 C   0  0  0  0  0  0  0  0  0  0  0  0
    9.5722  -17.0468   26.3232 C   0  0  0  0  0  0  0  0  0  0  0  0
    9.8048  -18.2994   25.7915 O   0  0  0  0  0  0  0  0  0  0  0  0
   10.0685  -16.8437   27.4838 O   0  0  0  0  0  0  0  0  0  0  0  0
  2  4  1  0
  2  1  1  1
  3  2  1  0
  4  5  2  0
  6  7  1  0
  8 10  1  0
  8  9  1  1
  8  7  1  0
 10 11  1  6
 11  4  1  0
 12 14  1  0
 12 10  1  0
 13 12  2  0
 15 14  1  0
 15 16  1  1
 17 16  1  0
 18 17  2  0
 19 18  1  0
 20 19  2  0
 20 21  1  0
 21 22  2  0
 22 17  1  0
 23 24  1  0
 23 15  1  0
 25 23  2  0
M  END
$$$$
