AIF.pdb
     RDKit          3D

 25 25  0  0  1  0  0  0  0  0999 V2000
    9.0715  -19.7207   20.3697 C   0  0  0  0  0  0  0  0  0  0  0  0
    9.1706  -18.4006   19.6648 C   0  0  2  0  0  0  0  0  0  0  0  0
   10.2261  -18.4458   18.7004 N   0  0  0  0  0  0  0  0  0  0  0  0
    9.3790  -17.2711   20.6332 C   0  0  0  0  0  0  0  0  0  0  0  0
   10.4866  -17.1304   21.1960 O   0  0  0  0  0  0  0  0  0  0  0  0
    7.2843  -12.3221   19.5600 C   0  0  0  0  0  0  0  0  0  0  0  0
    8.0880  -13.5171   20.0404 C   0  0  0  0  0  0  0  0  0  0  0  0
    7.6661  -13.9979   21.4104 C   0  0  2  0  0  0  0  0  0  0  0  0
    7.9411  -12.8591   22.3932 C   0  0  0  0  0  0  0  0  0  0  0  0
    8.3916  -15.2526   21.8169 C   0  0  2  0  0  0  0  0  0  0  0  0
    8.3497  -16.3538   20.9296 N   0  0  0  0  0  0  0  0  0  0  0  0
    8.3003  -15.5788   23.2351 C   0  0  0  0  0  0  0  0  0  0  0  0
    7.3306  -16.2489   23.6587 O   0  0  0  0  0  0  0  0  0  0  0  0
    9.2705  -15.1742   24.2042 N   0  0  0  0  0  0  0  0  0  0  0  0
    9.0870  -15.6054   25.5971 C   0  0  1  0  0  0  0  0  0  0  0  0
    7.6389  -15.4370   25.9983 C   0  0  0  0  0  0  0  0  0  0  0  0
    7.2993  -14.0242   26.1502 C   0  0  0  0  0  0  0  0  0  0  0  0
    8.2409  -13.1013   26.4968 C   0  0  0  0  0  0  0  0  0  0  0  0
    7.8866  -11.7781   26.6184 C   0  0  0  0  0  0  0  0  0  0  0  0
    6.5938  -11.3635   26.3963 C   0  0  0  0  0  0  0  0  0  0  0  0
    5.6394  -12.2928   26.0459 C   0  0  0  0  0  0  0  0  0  0  0  0
    5.9928  -13.6092   25.9251 C   0  0  0  0  0  0  0  0  0  0  0  0
    9.6227  -16.9541   25.8068 C   0  0  0  0  0  0  0  0  0  0  0  0
   10.2046  -17.7631   24.8513 O   0  0  0  0  0  0  0  0  0  0  0  0
    9.5560  -17.4548   26.9814 O   0  0  0  0  0  0  0  0  0  0  0  0
  2  4  1  0
  2  1  1  1
  3  2  1  0
  4  5  2  0
  6  7  1  0
  8 10  1  0
  8  9  1  1
  8  7  1  0
 10 11  1  6
 11  4  1  0
 12 14  1  0
 12 10  1  0
 13 12  2  0
 15 14  1  0
 15 16  1  6
 17 16  1  0
 18 17  2  0
 19 18  1  0
 20 19  2  0
 20 21  1  0
 21 22  2  0
 22 17  1  0
 23 24  1  0
 23 15  1  0
 25 23  2  0
M  END
$$$$
