AIF.pdb
     RDKit          3D

 25 25  0  0  1  0  0  0  0  0999 V2000
    9.2037  -20.2962   21.7923 C   0  0  0  0  0  0  0  0  0  0  0  0
    8.8600  -19.3077   20.7180 C   0  0  2  0  0  0  0  0  0  0  0  0
    9.4550  -19.7115   19.4815 N   0  0  0  0  0  0  0  0  0  0  0  0
    9.2894  -17.9165   21.0889 C   0  0  0  0  0  0  0  0  0  0  0  0
   10.4953  -17.6774   21.3165 O   0  0  0  0  0  0  0  0  0  0  0  0
    7.3396  -11.9895   20.6217 C   0  0  0  0  0  0  0  0  0  0  0  0
    8.1676  -13.0634   21.3042 C   0  0  0  0  0  0  0  0  0  0  0  0
    7.6768  -14.4623   21.0073 C   0  0  2  0  0  0  0  0  0  0  0  0
    6.2815  -14.5910   21.6196 C   0  0  0  0  0  0  0  0  0  0  0  0
    8.6068  -15.5142   21.5503 C   0  0  2  0  0  0  0  0  0  0  0  0
    8.3609  -16.8598   21.1891 N   0  0  0  0  0  0  0  0  0  0  0  0
    9.0379  -15.2970   22.9262 C   0  0  0  0  0  0  0  0  0  0  0  0
    9.3633  -14.1476   23.3027 O   0  0  0  0  0  0  0  0  0  0  0  0
    9.1169  -16.3370   23.9042 N   0  0  0  0  0  0  0  0  0  0  0  0
    8.7784  -16.0121   25.2969 C   0  0  1  0  0  0  0  0  0  0  0  0
    7.4041  -15.3843   25.3564 C   0  0  0  0  0  0  0  0  0  0  0  0
    7.4755  -14.0171   25.8664 C   0  0  0  0  0  0  0  0  0  0  0  0
    8.6480  -13.4886   26.3186 C   0  0  0  0  0  0  0  0  0  0  0  0
    8.6792  -12.1936   26.7799 C   0  0  0  0  0  0  0  0  0  0  0  0
    7.5451  -11.4151   26.7949 C   0  0  0  0  0  0  0  0  0  0  0  0
    6.3584  -11.9452   26.3389 C   0  0  0  0  0  0  0  0  0  0  0  0
    6.3281  -13.2339   25.8800 C   0  0  0  0  0  0  0  0  0  0  0  0
    8.9516  -17.1789   26.1679 C   0  0  0  0  0  0  0  0  0  0  0  0
    8.8153  -18.5030   25.8017 O   0  0  0  0  0  0  0  0  0  0  0  0
    9.2583  -16.9783   27.3928 O   0  0  0  0  0  0  0  0  0  0  0  0
  2  4  1  0
  2  1  1  1
  3  2  1  0
  4  5  2  0
  6  7  1  0
  8 10  1  0
  8  9  1  1
  8  7  1  0
 10 11  1  1
 11  4  1  0
 12 14  1  0
 12 10  1  0
 13 12  2  0
 15 14  1  0
 15 16  1  6
 17 16  1  0
 18 17  2  0
 19 18  1  0
 20 19  2  0
 20 21  1  0
 21 22  2  0
 22 17  1  0
 23 24  1  0
 23 15  1  0
 25 23  2  0
M  END
$$$$
