AIF.pdb
     RDKit          3D

 25 25  0  0  1  0  0  0  0  0999 V2000
   10.8512  -19.0815   20.2916 C   0  0  0  0  0  0  0  0  0  0  0  0
   10.9644  -17.6937   19.7344 C   0  0  2  0  0  0  0  0  0  0  0  0
   12.3030  -17.4598   19.2879 N   0  0  0  0  0  0  0  0  0  0  0  0
   10.5476  -16.6584   20.7402 C   0  0  0  0  0  0  0  0  0  0  0  0
   11.3949  -16.1729   21.5211 O   0  0  0  0  0  0  0  0  0  0  0  0
    6.9221  -12.6183   19.7681 C   0  0  0  0  0  0  0  0  0  0  0  0
    8.0343  -13.4864   20.3285 C   0  0  0  0  0  0  0  0  0  0  0  0
    7.5562  -14.4317   21.4074 C   0  0  2  0  0  0  0  0  0  0  0  0
    7.0912  -13.5746   22.5853 C   0  0  0  0  0  0  0  0  0  0  0  0
    8.6314  -15.3969   21.8297 C   0  0  2  0  0  0  0  0  0  0  0  0
    9.2127  -16.2127   20.8306 N   0  0  0  0  0  0  0  0  0  0  0  0
    8.4031  -16.0400   23.1182 C   0  0  0  0  0  0  0  0  0  0  0  0
    7.8857  -17.1799   23.1624 O   0  0  0  0  0  0  0  0  0  0  0  0
    8.7393  -15.4410   24.3722 N   0  0  0  0  0  0  0  0  0  0  0  0
    8.5281  -16.2236   25.5980 C   0  0  1  0  0  0  0  0  0  0  0  0
    8.7225  -15.3396   26.8093 C   0  0  0  0  0  0  0  0  0  0  0  0
    7.9892  -14.0845   26.6638 C   0  0  0  0  0  0  0  0  0  0  0  0
    8.6381  -12.8877   26.5914 C   0  0  0  0  0  0  0  0  0  0  0  0
    7.9148  -11.7277   26.4421 C   0  0  0  0  0  0  0  0  0  0  0  0
    6.5415  -11.7496   26.3636 C   0  0  0  0  0  0  0  0  0  0  0  0
    5.8820  -12.9567   26.4363 C   0  0  0  0  0  0  0  0  0  0  0  0
    6.6025  -14.1104   26.5849 C   0  0  0  0  0  0  0  0  0  0  0  0
    7.2423  -16.9275   25.5596 C   0  0  0  0  0  0  0  0  0  0  0  0
    6.9202  -18.0844   26.2406 O   0  0  0  0  0  0  0  0  0  0  0  0
    6.3103  -16.4437   24.8303 O   0  0  0  0  0  0  0  0  0  0  0  0
  2  4  1  0
  2  1  1  1
  3  2  1  0
  4  5  2  0
  6  7  1  0
  8 10  1  0
  8  9  1  1
  8  7  1  0
 10 11  1  6
 11  4  1  0
 12 14  1  0
 12 10  1  0
 13 12  2  0
 15 14  1  0
 15 16  1  1
 17 16  1  0
 18 17  2  0
 19 18  1  0
 20 19  2  0
 20 21  1  0
 21 22  2  0
 22 17  1  0
 23 24  1  0
 23 15  1  0
 25 23  2  0
M  END
$$$$
