AIF.pdb
     RDKit          3D

 25 25  0  0  1  0  0  0  0  0999 V2000
    5.0641  -19.0107   22.4291 C   0  0  0  0  0  0  0  0  0  0  0  0
    5.4871  -18.2711   21.1948 C   0  0  2  0  0  0  0  0  0  0  0  0
    5.7920  -19.2031   20.1535 N   0  0  0  0  0  0  0  0  0  0  0  0
    6.6578  -17.3690   21.4649 C   0  0  0  0  0  0  0  0  0  0  0  0
    7.7891  -17.8614   21.6671 O   0  0  0  0  0  0  0  0  0  0  0  0
    6.9619  -12.5604   18.8112 C   0  0  0  0  0  0  0  0  0  0  0  0
    7.2563  -13.8603   19.5381 C   0  0  0  0  0  0  0  0  0  0  0  0
    7.4087  -13.6781   21.0313 C   0  0  2  0  0  0  0  0  0  0  0  0
    8.6578  -12.8254   21.2572 C   0  0  0  0  0  0  0  0  0  0  0  0
    7.5127  -14.9949   21.7532 C   0  0  2  0  0  0  0  0  0  0  0  0
    6.5163  -15.9662   21.4973 N   0  0  0  0  0  0  0  0  0  0  0  0
    7.9624  -14.8990   23.1370 C   0  0  0  0  0  0  0  0  0  0  0  0
    7.4923  -14.0107   23.8844 O   0  0  0  0  0  0  0  0  0  0  0  0
    8.9321  -15.7756   23.7164 N   0  0  0  0  0  0  0  0  0  0  0  0
    9.3083  -15.5683   25.1218 C   0  0  1  0  0  0  0  0  0  0  0  0
    8.0651  -15.5018   25.9799 C   0  0  0  0  0  0  0  0  0  0  0  0
    7.7014  -14.1163   26.2671 C   0  0  0  0  0  0  0  0  0  0  0  0
    8.6448  -13.1885   26.5956 C   0  0  0  0  0  0  0  0  0  0  0  0
    8.2662  -11.8907   26.8473 C   0  0  0  0  0  0  0  0  0  0  0  0
    6.9473  -11.5063   26.7741 C   0  0  0  0  0  0  0  0  0  0  0  0
    5.9911  -12.4406   26.4424 C   0  0  0  0  0  0  0  0  0  0  0  0
    6.3686  -13.7318   26.1921 C   0  0  0  0  0  0  0  0  0  0  0  0
   10.2940  -16.5631   25.5564 C   0  0  0  0  0  0  0  0  0  0  0  0
   11.1812  -16.4340   26.6062 O   0  0  0  0  0  0  0  0  0  0  0  0
   10.3602  -17.6678   24.9161 O   0  0  0  0  0  0  0  0  0  0  0  0
  2  4  1  0
  2  1  1  1
  3  2  1  0
  4  5  2  0
  6  7  1  0
  8 10  1  0
  8  9  1  6
  8  7  1  0
 10 11  1  1
 11  4  1  0
 12 14  1  0
 12 10  1  0
 13 12  2  0
 15 14  1  0
 15 16  1  1
 17 16  1  0
 18 17  2  0
 19 18  1  0
 20 19  2  0
 20 21  1  0
 21 22  2  0
 22 17  1  0
 23 24  1  0
 23 15  1  0
 25 23  2  0
M  END
$$$$
