AIF.pdb
     RDKit          3D

 25 25  0  0  1  0  0  0  0  0999 V2000
    7.8533  -20.1966   22.2969 C   0  0  0  0  0  0  0  0  0  0  0  0
    7.8422  -19.3801   21.0389 C   0  0  2  0  0  0  0  0  0  0  0  0
    8.4295  -20.1292   19.9714 N   0  0  0  0  0  0  0  0  0  0  0  0
    8.5509  -18.0685   21.2250 C   0  0  0  0  0  0  0  0  0  0  0  0
    9.7998  -18.0247   21.1841 O   0  0  0  0  0  0  0  0  0  0  0  0
    7.5575  -12.0006   20.2972 C   0  0  0  0  0  0  0  0  0  0  0  0
    8.3014  -13.1219   21.0000 C   0  0  0  0  0  0  0  0  0  0  0  0
    7.5492  -14.4332   20.9753 C   0  0  2  0  0  0  0  0  0  0  0  0
    6.2490  -14.2230   21.7522 C   0  0  0  0  0  0  0  0  0  0  0  0
    8.3570  -15.5589   21.5637 C   0  0  2  0  0  0  0  0  0  0  0  0
    7.8402  -16.8707   21.4470 N   0  0  0  0  0  0  0  0  0  0  0  0
    9.0091  -15.2459   22.8298 C   0  0  0  0  0  0  0  0  0  0  0  0
    9.3481  -14.0666   23.0808 O   0  0  0  0  0  0  0  0  0  0  0  0
    9.2967  -16.2220   23.8342 N   0  0  0  0  0  0  0  0  0  0  0  0
    8.9733  -15.9012   25.2314 C   0  0  1  0  0  0  0  0  0  0  0  0
    7.5163  -15.5126   25.3432 C   0  0  0  0  0  0  0  0  0  0  0  0
    7.3770  -14.1315   25.7989 C   0  0  0  0  0  0  0  0  0  0  0  0
    8.4564  -13.4081   26.2115 C   0  0  0  0  0  0  0  0  0  0  0  0
    8.2883  -12.1065   26.6220 C   0  0  0  0  0  0  0  0  0  0  0  0
    7.0462  -11.5152   26.6252 C   0  0  0  0  0  0  0  0  0  0  0  0
    5.9530  -12.2427   26.2091 C   0  0  0  0  0  0  0  0  0  0  0  0
    6.1211  -13.5378   25.8007 C   0  0  0  0  0  0  0  0  0  0  0  0
    9.3838  -16.9848   26.1301 C   0  0  0  0  0  0  0  0  0  0  0  0
    9.7779  -16.8532   27.4467 O   0  0  0  0  0  0  0  0  0  0  0  0
    9.3870  -18.1793   25.6742 O   0  0  0  0  0  0  0  0  0  0  0  0
  2  4  1  0
  2  1  1  1
  3  2  1  0
  4  5  2  0
  6  7  1  0
  8 10  1  0
  8  9  1  1
  8  7  1  0
 10 11  1  1
 11  4  1  0
 12 14  1  0
 12 10  1  0
 13 12  2  0
 15 14  1  0
 15 16  1  6
 17 16  1  0
 18 17  2  0
 19 18  1  0
 20 19  2  0
 20 21  1  0
 21 22  2  0
 22 17  1  0
 23 24  1  0
 23 15  1  0
 25 23  2  0
M  END
$$$$
