NET.pdb
     RDKit          3D

 25 24  0  0  1  0  0  0  0  0999 V2000
   15.6701  -13.0670  -14.6489 N   0  0  0  0  0  0  0  0  0  0  0  0
   15.4402  -11.6835  -14.4126 C   0  0  0  0  0  0  0  0  0  0  0  0
   14.3042  -11.2912  -14.0310 O   0  0  0  0  0  0  0  0  0  0  0  0
   16.5110  -10.6783  -14.6045 C   0  0  0  0  0  0  0  0  0  0  0  0
   16.1780   -9.8463  -15.7989 C   0  0  2  0  0  0  0  0  0  0  0  0
   16.2189  -10.6212  -17.0136 N   0  0  0  0  0  0  0  0  0  0  0  0
   17.0889   -8.6852  -15.9570 C   0  0  0  0  0  0  0  0  0  0  0  0
   18.0858   -8.7174  -16.7527 O   0  0  0  0  0  0  0  0  0  0  0  0
   16.9210   -7.4624  -15.2410 N   0  0  0  0  0  0  0  0  0  0  0  0
   17.8140   -6.3355  -15.4299 C   0  0  1  0  0  0  0  0  0  0  0  0
   17.0470   -5.0447  -15.5077 C   0  0  0  0  0  0  0  0  0  0  0  0
   17.9101   -3.8458  -15.7043 C   0  0  0  0  0  0  0  0  0  0  0  0
   17.0373   -2.6501  -15.8226 C   0  0  0  0  0  0  0  0  0  0  0  0
   16.7899   -1.9084  -14.8372 O   0  0  0  0  0  0  0  0  0  0  0  0
   18.8233   -6.3186  -14.3381 C   0  0  0  0  0  0  0  0  0  0  0  0
   18.4938   -6.3286  -13.1240 O   0  0  0  0  0  0  0  0  0  0  0  0
   16.4572   -2.3020  -17.0318 O   0  0  0  0  0  0  0  0  0  0  0  0
   21.7481   -8.7523  -14.0708 C   0  0  0  0  0  0  0  0  0  0  0  0
   22.2750   -7.3485  -14.0939 C   0  0  1  0  0  0  0  0  0  0  0  0
   22.7298   -7.0000  -15.3661 O   0  0  0  0  0  0  0  0  0  0  0  0
   21.2416   -6.3344  -13.6180 C   0  0  2  0  0  0  0  0  0  0  0  0
   20.2134   -6.2900  -14.6395 N   0  0  0  0  0  0  0  0  0  0  0  0
   21.8631   -5.0157  -13.4592 C   0  0  0  0  0  0  0  0  0  0  0  0
   21.6407   -4.1095  -14.3019 O   0  0  0  0  0  0  0  0  0  0  0  0
   22.6977   -4.7155  -12.4073 O   0  0  0  0  0  0  0  0  0  0  0  0
  1  2  1  0
  2  3  2  0
  4  2  1  0
  4  5  1  0
  5  6  1  6
  7  9  1  0
  7  5  1  0
  8  7  2  0
 10  9  1  0
 10 11  1  1
 11 12  1  0
 12 13  1  0
 13 17  1  0
 14 13  2  0
 15 10  1  0
 16 15  2  0
 19 18  1  6
 19 21  1  0
 20 19  1  0
 21 23  1  0
 21 22  1  6
 22 15  1  0
 23 25  1  0
 24 23  2  0
M  END
$$$$
