NET.pdb
     RDKit          3D

 25 24  0  0  1  0  0  0  0  0999 V2000
   16.2607  -11.6355  -17.3191 N   0  0  0  0  0  0  0  0  0  0  0  0
   15.4387  -11.2248  -16.2336 C   0  0  0  0  0  0  0  0  0  0  0  0
   14.2586  -11.6588  -16.1393 O   0  0  0  0  0  0  0  0  0  0  0  0
   15.9362  -10.2898  -15.1981 C   0  0  0  0  0  0  0  0  0  0  0  0
   17.3433   -9.9147  -15.5281 C   0  0  2  0  0  0  0  0  0  0  0  0
   18.2606  -10.9880  -15.2384 N   0  0  0  0  0  0  0  0  0  0  0  0
   17.7972   -8.7050  -14.7978 C   0  0  0  0  0  0  0  0  0  0  0  0
   17.8621   -8.6747  -13.5239 O   0  0  0  0  0  0  0  0  0  0  0  0
   18.1898   -7.5013  -15.4559 N   0  0  0  0  0  0  0  0  0  0  0  0
   18.6041   -6.3244  -14.7167 C   0  0  1  0  0  0  0  0  0  0  0  0
   20.0969   -6.2943  -14.5402 C   0  0  0  0  0  0  0  0  0  0  0  0
   20.5918   -5.0822  -13.8283 C   0  0  0  0  0  0  0  0  0  0  0  0
   22.0661   -5.1880  -13.6848 C   0  0  0  0  0  0  0  0  0  0  0  0
   22.6105   -6.1799  -13.1352 O   0  0  0  0  0  0  0  0  0  0  0  0
   18.1003   -5.1071  -15.4062 C   0  0  0  0  0  0  0  0  0  0  0  0
   18.3870   -4.8514  -16.6042 O   0  0  0  0  0  0  0  0  0  0  0  0
   22.9060   -4.1909  -14.1541 O   0  0  0  0  0  0  0  0  0  0  0  0
   14.4470   -3.9172  -15.7566 C   0  0  0  0  0  0  0  0  0  0  0  0
   15.2616   -2.9235  -14.9833 C   0  0  1  0  0  0  0  0  0  0  0  0
   15.1019   -3.0996  -13.6084 O   0  0  0  0  0  0  0  0  0  0  0  0
   16.7412   -2.9820  -15.3442 C   0  0  2  0  0  0  0  0  0  0  0  0
   17.2659   -4.1813  -14.7202 N   0  0  0  0  0  0  0  0  0  0  0  0
   17.4334   -1.7944  -14.8338 C   0  0  0  0  0  0  0  0  0  0  0  0
   18.2782   -1.9069  -13.9094 O   0  0  0  0  0  0  0  0  0  0  0  0
   17.1972   -0.5329  -15.3298 O   0  0  0  0  0  0  0  0  0  0  0  0
  1  2  1  0
  2  3  2  0
  4  2  1  0
  4  5  1  0
  5  6  1  1
  7  9  1  0
  7  5  1  0
  8  7  2  0
 10  9  1  0
 10 11  1  6
 11 12  1  0
 12 13  1  0
 13 17  1  0
 14 13  2  0
 15 10  1  0
 16 15  2  0
 19 18  1  6
 19 21  1  0
 20 19  1  0
 21 23  1  0
 21 22  1  1
 22 15  1  0
 23 25  1  0
 24 23  2  0
M  END
$$$$
