NET.pdb
     RDKit          3D

 25 24  0  0  1  0  0  0  0  0999 V2000
   17.6957  -13.7279  -18.1103 N   0  0  0  0  0  0  0  0  0  0  0  0
   17.7334  -12.5580  -17.3026 C   0  0  0  0  0  0  0  0  0  0  0  0
   16.7798  -11.7341  -17.3445 O   0  0  0  0  0  0  0  0  0  0  0  0
   18.8755  -12.2769  -16.4023 C   0  0  0  0  0  0  0  0  0  0  0  0
   18.3968  -11.4241  -15.2738 C   0  0  2  0  0  0  0  0  0  0  0  0
   17.0401  -11.7429  -14.9061 N   0  0  0  0  0  0  0  0  0  0  0  0
   18.4661   -9.9746  -15.5851 C   0  0  0  0  0  0  0  0  0  0  0  0
   19.4624   -9.4668  -16.1996 O   0  0  0  0  0  0  0  0  0  0  0  0
   17.4383   -9.0524  -15.2258 N   0  0  0  0  0  0  0  0  0  0  0  0
   17.5459   -7.6353  -15.5139 C   0  0  1  0  0  0  0  0  0  0  0  0
   16.2176   -6.9489  -15.3565 C   0  0  0  0  0  0  0  0  0  0  0  0
   16.2334   -5.5137  -15.7576 C   0  0  0  0  0  0  0  0  0  0  0  0
   14.8722   -4.9534  -15.5607 C   0  0  0  0  0  0  0  0  0  0  0  0
   13.8412   -5.5625  -15.9457 O   0  0  0  0  0  0  0  0  0  0  0  0
   18.5903   -7.0336  -14.6431 C   0  0  0  0  0  0  0  0  0  0  0  0
   18.6073   -7.2147  -13.3982 O   0  0  0  0  0  0  0  0  0  0  0  0
   14.6833   -3.7289  -14.9405 O   0  0  0  0  0  0  0  0  0  0  0  0
   23.0902   -5.2300  -14.2545 C   0  0  0  0  0  0  0  0  0  0  0  0
   21.9654   -6.0041  -14.8746 C   0  0  1  0  0  0  0  0  0  0  0  0
   22.1022   -7.3723  -14.6372 O   0  0  0  0  0  0  0  0  0  0  0  0
   20.6003   -5.5289  -14.3916 C   0  0  2  0  0  0  0  0  0  0  0  0
   19.6172   -6.2225  -15.2012 N   0  0  0  0  0  0  0  0  0  0  0  0
   20.4781   -4.0784  -14.5686 C   0  0  0  0  0  0  0  0  0  0  0  0
   20.5148   -3.3170  -13.5687 O   0  0  0  0  0  0  0  0  0  0  0  0
   20.3214   -3.4969  -15.8057 O   0  0  0  0  0  0  0  0  0  0  0  0
  1  2  1  0
  2  3  2  0
  4  2  1  0
  4  5  1  0
  5  6  1  6
  7  9  1  0
  7  5  1  0
  8  7  2  0
 10  9  1  0
 10 11  1  1
 11 12  1  0
 12 13  1  0
 13 17  1  0
 14 13  2  0
 15 10  1  0
 16 15  2  0
 19 18  1  1
 19 21  1  0
 20 19  1  0
 21 23  1  0
 21 22  1  6
 22 15  1  0
 23 25  1  0
 24 23  2  0
M  END
$$$$
