NET.pdb
     RDKit          3D

 25 24  0  0  1  0  0  0  0  0999 V2000
   13.8214  -12.0804  -16.3846 N   0  0  0  0  0  0  0  0  0  0  0  0
   14.8435  -11.1132  -16.1781 C   0  0  0  0  0  0  0  0  0  0  0  0
   15.2528  -10.4149  -17.1449 O   0  0  0  0  0  0  0  0  0  0  0  0
   15.4480  -10.9007  -14.8427 C   0  0  0  0  0  0  0  0  0  0  0  0
   16.8854  -10.5374  -15.0202 C   0  0  2  0  0  0  0  0  0  0  0  0
   17.7030  -11.7023  -15.2486 N   0  0  0  0  0  0  0  0  0  0  0  0
   17.4364   -9.8038  -13.8536 C   0  0  0  0  0  0  0  0  0  0  0  0
   17.4560  -10.3173  -12.6858 O   0  0  0  0  0  0  0  0  0  0  0  0
   17.9784   -8.4872  -13.9486 N   0  0  0  0  0  0  0  0  0  0  0  0
   18.5771   -7.8213  -12.8080 C   0  0  1  0  0  0  0  0  0  0  0  0
   19.8282   -7.0882  -13.2050 C   0  0  0  0  0  0  0  0  0  0  0  0
   20.4510   -6.3188  -12.0909 C   0  0  0  0  0  0  0  0  0  0  0  0
   21.6420   -5.6052  -12.6180 C   0  0  0  0  0  0  0  0  0  0  0  0
   21.8909   -4.4112  -12.3104 O   0  0  0  0  0  0  0  0  0  0  0  0
   17.5755   -6.9163  -12.1844 C   0  0  0  0  0  0  0  0  0  0  0  0
   17.0907   -5.9318  -12.7998 O   0  0  0  0  0  0  0  0  0  0  0  0
   22.5322   -6.2314  -13.4754 O   0  0  0  0  0  0  0  0  0  0  0  0
   14.2135   -7.6856  -10.5325 C   0  0  0  0  0  0  0  0  0  0  0  0
   15.1564   -7.1074   -9.5198 C   0  0  1  0  0  0  0  0  0  0  0  0
   15.7527   -8.1099   -8.7541 O   0  0  0  0  0  0  0  0  0  0  0  0
   16.2310   -6.2369  -10.1601 C   0  0  2  0  0  0  0  0  0  0  0  0
   17.1290   -7.1409  -10.8525 N   0  0  0  0  0  0  0  0  0  0  0  0
   16.9546   -5.4864   -9.1288 C   0  0  0  0  0  0  0  0  0  0  0  0
   16.3783   -4.5605   -8.5032 O   0  0  0  0  0  0  0  0  0  0  0  0
   18.2651   -5.7534   -8.8054 O   0  0  0  0  0  0  0  0  0  0  0  0
  1  2  1  0
  2  3  2  0
  4  2  1  0
  4  5  1  0
  5  6  1  1
  7  9  1  0
  7  5  1  0
  8  7  2  0
 10  9  1  0
 10 11  1  6
 11 12  1  0
 12 13  1  0
 13 17  1  0
 14 13  2  0
 15 10  1  0
 16 15  2  0
 19 18  1  6
 19 21  1  0
 20 19  1  0
 21 23  1  0
 21 22  1  1
 22 15  1  0
 23 25  1  0
 24 23  2  0
M  END
$$$$
