NET.pdb
     RDKit          3D

 25 24  0  0  1  0  0  0  0  0999 V2000
   15.9238  -11.3411  -16.9803 N   0  0  0  0  0  0  0  0  0  0  0  0
   15.0177  -11.1336  -15.9039 C   0  0  0  0  0  0  0  0  0  0  0  0
   13.7782  -11.2702  -16.0903 O   0  0  0  0  0  0  0  0  0  0  0  0
   15.4953  -10.7570  -14.5533 C   0  0  0  0  0  0  0  0  0  0  0  0
   16.9849  -10.6581  -14.5827 C   0  0  2  0  0  0  0  0  0  0  0  0
   17.6048  -11.9568  -14.5008 N   0  0  0  0  0  0  0  0  0  0  0  0
   17.5223   -9.8161  -13.4850 C   0  0  0  0  0  0  0  0  0  0  0  0
   17.6113  -10.2497  -12.2883 O   0  0  0  0  0  0  0  0  0  0  0  0
   17.9735   -8.4769  -13.6822 N   0  0  0  0  0  0  0  0  0  0  0  0
   18.4175   -7.6479  -12.5782 C   0  0  1  0  0  0  0  0  0  0  0  0
   19.6410   -6.8584  -12.9525 C   0  0  0  0  0  0  0  0  0  0  0  0
   20.1209   -5.9494  -11.8734 C   0  0  0  0  0  0  0  0  0  0  0  0
   21.3024   -5.2030  -12.3756 C   0  0  0  0  0  0  0  0  0  0  0  0
   21.2374   -3.9847  -12.6821 O   0  0  0  0  0  0  0  0  0  0  0  0
   17.2999   -6.7694  -12.1415 C   0  0  0  0  0  0  0  0  0  0  0  0
   16.5648   -6.1653  -12.9645 O   0  0  0  0  0  0  0  0  0  0  0  0
   22.5318   -5.8238  -12.5274 O   0  0  0  0  0  0  0  0  0  0  0  0
   14.5820   -7.5039   -9.3121 C   0  0  0  0  0  0  0  0  0  0  0  0
   15.4312   -6.3049   -9.0117 C   0  0  1  0  0  0  0  0  0  0  0  0
   16.4633   -6.6248   -8.1288 O   0  0  0  0  0  0  0  0  0  0  0  0
   16.0067   -5.6724  -10.2731 C   0  0  2  0  0  0  0  0  0  0  0  0
   17.0252   -6.5837  -10.7581 N   0  0  0  0  0  0  0  0  0  0  0  0
   16.5952   -4.3661   -9.9605 C   0  0  0  0  0  0  0  0  0  0  0  0
   17.8300   -4.1805  -10.1078 O   0  0  0  0  0  0  0  0  0  0  0  0
   15.8430   -3.3088   -9.5028 O   0  0  0  0  0  0  0  0  0  0  0  0
  1  2  1  0
  2  3  2  0
  4  2  1  0
  4  5  1  0
  5  6  1  1
  7  9  1  0
  7  5  1  0
  8  7  2  0
 10  9  1  0
 10 11  1  6
 11 12  1  0
 12 13  1  0
 13 17  1  0
 14 13  2  0
 15 10  1  0
 16 15  2  0
 19 18  1  6
 19 21  1  0
 20 19  1  0
 21 23  1  0
 21 22  1  1
 22 15  1  0
 23 25  1  0
 24 23  2  0
M  END
$$$$
