NET.pdb
     RDKit          3D

 25 24  0  0  1  0  0  0  0  0999 V2000
   25.0505  -21.3582   -8.4863 N   0  0  0  0  0  0  0  0  0  0  0  0
   25.6463  -20.1801   -9.0153 C   0  0  0  0  0  0  0  0  0  0  0  0
   26.0968  -19.2984   -8.2346 O   0  0  0  0  0  0  0  0  0  0  0  0
   25.7536  -19.9571  -10.4757 C   0  0  0  0  0  0  0  0  0  0  0  0
   25.1608  -21.1305  -11.1839 C   0  0  2  0  0  0  0  0  0  0  0  0
   26.0095  -22.2917  -11.0895 N   0  0  0  0  0  0  0  0  0  0  0  0
   24.9021  -20.8588  -12.6199 C   0  0  0  0  0  0  0  0  0  0  0  0
   25.7357  -21.1914  -13.5269 O   0  0  0  0  0  0  0  0  0  0  0  0
   23.7184  -20.2142  -13.0881 N   0  0  0  0  0  0  0  0  0  0  0  0
   23.4183  -20.0970  -14.5020 C   0  0  1  0  0  0  0  0  0  0  0  0
   21.9583  -19.8148  -14.7235 C   0  0  0  0  0  0  0  0  0  0  0  0
   21.0540  -20.8528  -14.1529 C   0  0  0  0  0  0  0  0  0  0  0  0
   19.6541  -20.5058  -14.5071 C   0  0  0  0  0  0  0  0  0  0  0  0
   18.6768  -21.1767  -14.0864 O   0  0  0  0  0  0  0  0  0  0  0  0
   24.2855  -19.0499  -15.1044 C   0  0  0  0  0  0  0  0  0  0  0  0
   24.1576  -17.8314  -14.8187 O   0  0  0  0  0  0  0  0  0  0  0  0
   19.3677  -19.4215  -15.3207 O   0  0  0  0  0  0  0  0  0  0  0  0
   27.9249  -18.7877  -14.8233 C   0  0  0  0  0  0  0  0  0  0  0  0
   27.6158  -18.9022  -16.2863 C   0  0  1  0  0  0  0  0  0  0  0  0
   27.7964  -20.2092  -16.7404 O   0  0  0  0  0  0  0  0  0  0  0  0
   26.2059  -18.4290  -16.6189 C   0  0  2  0  0  0  0  0  0  0  0  0
   25.3013  -19.4013  -16.0363 N   0  0  0  0  0  0  0  0  0  0  0  0
   26.0232  -18.3664  -18.0725 C   0  0  0  0  0  0  0  0  0  0  0  0
   26.6706  -17.5303  -18.7528 O   0  0  0  0  0  0  0  0  0  0  0  0
   25.1569  -19.1984  -18.7436 O   0  0  0  0  0  0  0  0  0  0  0  0
  1  2  1  0
  2  3  2  0
  4  2  1  0
  4  5  1  0
  5  6  1  6
  7  9  1  0
  7  5  1  0
  8  7  2  0
 10  9  1  0
 10 11  1  1
 11 12  1  0
 12 13  1  0
 13 17  1  0
 14 13  2  0
 15 10  1  0
 16 15  2  0
 19 18  1  1
 19 21  1  0
 20 19  1  0
 21 23  1  0
 21 22  1  6
 22 15  1  0
 23 25  1  0
 24 23  2  0
M  END
$$$$
