NET.pdb
     RDKit          3D

 25 24  0  0  1  0  0  0  0  0999 V2000
   15.5973  -13.8099  -15.9535 N   0  0  0  0  0  0  0  0  0  0  0  0
   16.0806  -13.1322  -14.8004 C   0  0  0  0  0  0  0  0  0  0  0  0
   15.5907  -13.3908  -13.6677 O   0  0  0  0  0  0  0  0  0  0  0  0
   17.1565  -12.1185  -14.8940 C   0  0  0  0  0  0  0  0  0  0  0  0
   17.4978  -11.9142  -16.3333 C   0  0  2  0  0  0  0  0  0  0  0  0
   18.3082  -12.9908  -16.8447 N   0  0  0  0  0  0  0  0  0  0  0  0
   18.2152  -10.6373  -16.5735 C   0  0  0  0  0  0  0  0  0  0  0  0
   19.4475  -10.6114  -16.9034 O   0  0  0  0  0  0  0  0  0  0  0  0
   17.5899   -9.3602  -16.4553 N   0  0  0  0  0  0  0  0  0  0  0  0
   18.3142   -8.1274  -16.6977 C   0  0  1  0  0  0  0  0  0  0  0  0
   17.3817   -7.0263  -17.1198 C   0  0  0  0  0  0  0  0  0  0  0  0
   16.4718   -7.4068  -18.2371 C   0  0  0  0  0  0  0  0  0  0  0  0
   15.0684   -7.2519  -17.7768 C   0  0  0  0  0  0  0  0  0  0  0  0
   14.5492   -6.1202  -17.5979 O   0  0  0  0  0  0  0  0  0  0  0  0
   19.0899   -7.7648  -15.4820 C   0  0  0  0  0  0  0  0  0  0  0  0
   18.5696   -7.7537  -14.3366 O   0  0  0  0  0  0  0  0  0  0  0  0
   14.2701   -8.3559  -17.5244 O   0  0  0  0  0  0  0  0  0  0  0  0
   22.2609   -9.3152  -14.1639 C   0  0  0  0  0  0  0  0  0  0  0  0
   22.5278   -7.8747  -14.4840 C   0  0  1  0  0  0  0  0  0  0  0  0
   23.1395   -7.7388  -15.7308 O   0  0  0  0  0  0  0  0  0  0  0  0
   21.2628   -7.0263  -14.4330 C   0  0  2  0  0  0  0  0  0  0  0  0
   20.4651   -7.4142  -15.5803 N   0  0  0  0  0  0  0  0  0  0  0  0
   21.6056   -5.6024  -14.5055 C   0  0  0  0  0  0  0  0  0  0  0  0
   21.3418   -4.9435  -15.5433 O   0  0  0  0  0  0  0  0  0  0  0  0
   22.2166   -4.9371  -13.4676 O   0  0  0  0  0  0  0  0  0  0  0  0
  1  2  1  0
  2  3  2  0
  4  2  1  0
  4  5  1  0
  5  6  1  1
  7  9  1  0
  7  5  1  0
  8  7  2  0
 10  9  1  0
 10 11  1  1
 11 12  1  0
 12 13  1  0
 13 17  1  0
 14 13  2  0
 15 10  1  0
 16 15  2  0
 19 18  1  6
 19 21  1  0
 20 19  1  0
 21 23  1  0
 21 22  1  6
 22 15  1  0
 23 25  1  0
 24 23  2  0
M  END
$$$$
