NET.pdb
     RDKit          3D

 25 24  0  0  1  0  0  0  0  0999 V2000
   13.9612  -11.7945   -8.9053 N   0  0  0  0  0  0  0  0  0  0  0  0
   14.9752  -11.9682   -9.8872 C   0  0  0  0  0  0  0  0  0  0  0  0
   15.4220  -13.1215  -10.1322 O   0  0  0  0  0  0  0  0  0  0  0  0
   15.5278  -10.8181  -10.6394 C   0  0  0  0  0  0  0  0  0  0  0  0
   14.8698   -9.5684  -10.1545 C   0  0  2  0  0  0  0  0  0  0  0  0
   13.4412   -9.6142  -10.3405 N   0  0  0  0  0  0  0  0  0  0  0  0
   15.3881   -8.3523  -10.8293 C   0  0  0  0  0  0  0  0  0  0  0  0
   15.0286   -8.0360  -12.0120 O   0  0  0  0  0  0  0  0  0  0  0  0
   16.3145   -7.4577  -10.2151 N   0  0  0  0  0  0  0  0  0  0  0  0
   16.8443   -6.3039  -10.9159 C   0  0  1  0  0  0  0  0  0  0  0  0
   16.1669   -5.0395  -10.4656 C   0  0  0  0  0  0  0  0  0  0  0  0
   16.1022   -4.8890   -8.9844 C   0  0  0  0  0  0  0  0  0  0  0  0
   15.3741   -3.6338   -8.6686 C   0  0  0  0  0  0  0  0  0  0  0  0
   14.9569   -2.8631   -9.5710 O   0  0  0  0  0  0  0  0  0  0  0  0
   18.3177   -6.2449  -10.7239 C   0  0  0  0  0  0  0  0  0  0  0  0
   18.8457   -6.3099   -9.5838 O   0  0  0  0  0  0  0  0  0  0  0  0
   15.1240   -3.2597   -7.3582 O   0  0  0  0  0  0  0  0  0  0  0  0
   20.8107   -8.6241  -11.7947 C   0  0  0  0  0  0  0  0  0  0  0  0
   21.1199   -7.3365  -12.4987 C   0  0  1  0  0  0  0  0  0  0  0  0
   20.5823   -7.3225  -13.7862 O   0  0  0  0  0  0  0  0  0  0  0  0
   20.6323   -6.1200  -11.7210 C   0  0  2  0  0  0  0  0  0  0  0  0
   19.1872   -6.1110  -11.8419 N   0  0  0  0  0  0  0  0  0  0  0  0
   21.2014   -4.8944  -12.2905 C   0  0  0  0  0  0  0  0  0  0  0  0
   20.4685   -4.0986  -12.9312 O   0  0  0  0  0  0  0  0  0  0  0  0
   22.5305   -4.5657  -12.1542 O   0  0  0  0  0  0  0  0  0  0  0  0
  1  2  1  0
  2  3  2  0
  4  2  1  0
  4  5  1  0
  5  6  1  6
  7  9  1  0
  7  5  1  0
  8  7  2  0
 10  9  1  0
 10 11  1  1
 11 12  1  0
 12 13  1  0
 13 17  1  0
 14 13  2  0
 15 10  1  0
 16 15  2  0
 19 18  1  1
 19 21  1  0
 20 19  1  0
 21 23  1  0
 21 22  1  6
 22 15  1  0
 23 25  1  0
 24 23  2  0
M  END
$$$$
