SHP.pdb
     RDKit          3D

 24 25  0  0  1  0  0  0  0  0999 V2000
    9.8909  -13.3653   19.9969 O   0  0  0  0  0  0  0  0  0  0  0  0
    9.0724  -14.3134   19.3726 C   0  0  0  0  0  0  0  0  0  0  0  0
    7.6895  -14.1525   19.8889 C   0  0  2  0  0  0  0  0  0  0  0  0
    7.2283  -12.8190   19.5735 N   0  0  0  0  0  0  0  0  0  0  0  0
    7.4816  -14.4248   21.2938 C   0  0  0  0  0  0  0  0  0  0  0  0
    6.9631  -13.5061   22.0149 O   0  0  0  0  0  0  0  0  0  0  0  0
    7.7863  -15.6052   21.9831 N   0  0  0  0  0  0  0  0  0  0  0  0
    7.4522  -15.8995   23.3646 C   0  0  1  0  0  0  0  0  0  0  0  0
    7.4686  -17.3929   23.6061 C   0  0  0  0  0  0  0  0  0  0  0  0
    7.1929  -17.7161   25.0289 C   0  0  0  0  0  0  0  0  0  0  0  0
    6.9292  -16.7967   26.0133 C   0  0  0  0  0  0  0  0  0  0  0  0
    6.7333  -17.4844   27.1584 N   0  0  0  0  0  0  0  0  0  0  0  0
    6.8667  -18.8030   26.9198 C   0  0  0  0  0  0  0  0  0  0  0  0
    7.1504  -18.9168   25.5966 N   0  0  0  0  0  0  0  0  0  0  0  0
    8.4302  -15.2676   24.2556 C   0  0  0  0  0  0  0  0  0  0  0  0
    9.6828  -15.3257   23.9718 O   0  0  0  0  0  0  0  0  0  0  0  0
    8.0801  -14.5832   25.4285 N   0  0  0  0  0  0  0  0  0  0  0  0
    6.7005  -14.5101   25.9578 C   0  0  0  0  0  0  0  0  0  0  0  0
    6.6062  -13.1920   26.6513 C   0  0  0  0  0  0  0  0  0  0  0  0
    8.0009  -12.5881   26.5354 C   0  0  0  0  0  0  0  0  0  0  0  0
    8.8539  -13.8578   26.4199 C   0  0  1  0  0  0  0  0  0  0  0  0
    8.9167  -14.5659   27.7121 C   0  0  0  0  0  0  0  0  0  0  0  0
    9.5137  -14.0672   28.6794 O   0  0  0  0  0  0  0  0  0  0  0  0
    8.3055  -15.7929   27.8435 O   0  0  0  0  0  0  0  0  0  0  0  0
  2  1  1  0
  3  5  1  0
  3  2  1  0
  3  4  1  1
  5  6  2  0
  7  5  1  0
  8  7  1  0
  9 10  1  0
  8  9  1  6
 10 14  1  0
 11 12  1  0
 11 10  2  0
 12 13  1  0
 13 14  2  0
 15  8  1  0
 15 17  1  0
 16 15  2  0
 17 18  1  0
 19 18  1  0
 20 19  1  0
 20 21  1  0
 21 17  1  0
 21 22  1  1
 22 24  1  0
 23 22  2  0
M  END
$$$$
