SHP.pdb
     RDKit          3D

 24 25  0  0  1  0  0  0  0  0999 V2000
    8.7220  -20.8799   19.3964 O   0  0  0  0  0  0  0  0  0  0  0  0
    7.7642  -20.0476   18.8063 C   0  0  0  0  0  0  0  0  0  0  0  0
    8.4088  -18.7519   18.4740 C   0  0  2  0  0  0  0  0  0  0  0  0
    9.6079  -19.0124   17.7092 N   0  0  0  0  0  0  0  0  0  0  0  0
    8.7134  -17.8718   19.5802 C   0  0  0  0  0  0  0  0  0  0  0  0
    9.9097  -17.8604   20.0289 O   0  0  0  0  0  0  0  0  0  0  0  0
    7.8343  -17.0042   20.2406 N   0  0  0  0  0  0  0  0  0  0  0  0
    8.1585  -16.1586   21.3749 C   0  0  1  0  0  0  0  0  0  0  0  0
    7.2817  -14.9257   21.3831 C   0  0  0  0  0  0  0  0  0  0  0  0
    7.5137  -14.0862   20.1805 C   0  0  0  0  0  0  0  0  0  0  0  0
    8.2306  -12.9160   20.1577 C   0  0  0  0  0  0  0  0  0  0  0  0
    8.2103  -12.4612   18.8867 N   0  0  0  0  0  0  0  0  0  0  0  0
    7.5035  -13.3100   18.1163 C   0  0  0  0  0  0  0  0  0  0  0  0
    7.0853  -14.3041   18.9417 N   0  0  0  0  0  0  0  0  0  0  0  0
    7.9417  -16.8988   22.6218 C   0  0  0  0  0  0  0  0  0  0  0  0
    7.0196  -17.7926   22.6812 O   0  0  0  0  0  0  0  0  0  0  0  0
    8.6960  -16.6922   23.7859 N   0  0  0  0  0  0  0  0  0  0  0  0
    9.2953  -15.3918   24.1580 C   0  0  0  0  0  0  0  0  0  0  0  0
   10.5385  -15.7245   24.9137 C   0  0  0  0  0  0  0  0  0  0  0  0
   10.5523  -17.2466   24.9937 C   0  0  0  0  0  0  0  0  0  0  0  0
    9.0518  -17.5518   24.9005 C   0  0  1  0  0  0  0  0  0  0  0  0
    8.3615  -17.1707   26.1469 C   0  0  0  0  0  0  0  0  0  0  0  0
    7.7357  -16.1014   26.2230 O   0  0  0  0  0  0  0  0  0  0  0  0
    8.4137  -18.0123   27.2356 O   0  0  0  0  0  0  0  0  0  0  0  0
  2  1  1  0
  3  5  1  0
  3  2  1  0
  3  4  1  1
  5  6  2  0
  7  5  1  0
  8  7  1  0
  9 10  1  0
  8  9  1  1
 10 14  1  0
 11 12  1  0
 11 10  2  0
 12 13  1  0
 13 14  2  0
 15  8  1  0
 15 17  1  0
 16 15  2  0
 17 18  1  0
 19 18  1  0
 20 19  1  0
 20 21  1  0
 21 17  1  0
 21 22  1  1
 22 24  1  0
 23 22  2  0
M  END
$$$$
