SHP.pdb
     RDKit          3D

 24 25  0  0  1  0  0  0  0  0999 V2000
    8.1946  -21.3053   18.7908 O   0  0  0  0  0  0  0  0  0  0  0  0
    7.1594  -20.7217   18.0518 C   0  0  0  0  0  0  0  0  0  0  0  0
    7.7403  -19.6692   17.1801 C   0  0  2  0  0  0  0  0  0  0  0  0
    8.7334  -20.2739   16.3208 N   0  0  0  0  0  0  0  0  0  0  0  0
    8.3013  -18.5114   17.8402 C   0  0  0  0  0  0  0  0  0  0  0  0
    9.5611  -18.4908   18.0525 O   0  0  0  0  0  0  0  0  0  0  0  0
    7.6154  -17.3757   18.2889 N   0  0  0  0  0  0  0  0  0  0  0  0
    8.2037  -16.2307   18.9594 C   0  0  1  0  0  0  0  0  0  0  0  0
    7.2706  -15.0417   18.8926 C   0  0  0  0  0  0  0  0  0  0  0  0
    7.9197  -13.8118   19.4131 C   0  0  0  0  0  0  0  0  0  0  0  0
    7.6715  -13.2425   20.6371 C   0  0  0  0  0  0  0  0  0  0  0  0
    8.4557  -12.1478   20.7335 N   0  0  0  0  0  0  0  0  0  0  0  0
    9.1846  -12.0161   19.6088 C   0  0  0  0  0  0  0  0  0  0  0  0
    8.8330  -13.0574   18.8112 N   0  0  0  0  0  0  0  0  0  0  0  0
    8.4523  -16.5556   20.3674 C   0  0  0  0  0  0  0  0  0  0  0  0
    7.6741  -17.3754   20.9800 O   0  0  0  0  0  0  0  0  0  0  0  0
    9.5134  -16.0183   21.1103 N   0  0  0  0  0  0  0  0  0  0  0  0
   10.3062  -14.8449   20.6822 C   0  0  0  0  0  0  0  0  0  0  0  0
   11.6744  -15.0608   21.2380 C   0  0  0  0  0  0  0  0  0  0  0  0
   11.5730  -16.3558   22.0355 C   0  0  0  0  0  0  0  0  0  0  0  0
   10.0839  -16.3493   22.4037 C   0  0  1  0  0  0  0  0  0  0  0  0
    9.8007  -15.3213   23.4226 C   0  0  0  0  0  0  0  0  0  0  0  0
   10.2075  -15.4552   24.5877 O   0  0  0  0  0  0  0  0  0  0  0  0
    9.0773  -14.2024   23.0744 O   0  0  0  0  0  0  0  0  0  0  0  0
  2  1  1  0
  3  5  1  0
  3  2  1  0
  3  4  1  1
  5  6  2  0
  7  5  1  0
  8  7  1  0
  9 10  1  0
  8  9  1  1
 10 14  1  0
 11 12  1  0
 11 10  2  0
 12 13  1  0
 13 14  2  0
 15  8  1  0
 15 17  1  0
 16 15  2  0
 17 18  1  0
 19 18  1  0
 20 19  1  0
 20 21  1  0
 21 17  1  0
 21 22  1  1
 22 24  1  0
 23 22  2  0
M  END
$$$$
