SHP.pdb
     RDKit          3D

 24 25  0  0  1  0  0  0  0  0999 V2000
    9.7092  -12.9497   19.9173 O   0  0  0  0  0  0  0  0  0  0  0  0
    9.0455  -14.0115   19.2924 C   0  0  0  0  0  0  0  0  0  0  0  0
    7.6535  -14.0631   19.8069 C   0  0  2  0  0  0  0  0  0  0  0  0
    6.9801  -12.8350   19.4481 N   0  0  0  0  0  0  0  0  0  0  0  0
    7.4894  -14.3184   21.2207 C   0  0  0  0  0  0  0  0  0  0  0  0
    7.1486  -13.3434   21.9731 O   0  0  0  0  0  0  0  0  0  0  0  0
    7.6623  -15.5375   21.8881 N   0  0  0  0  0  0  0  0  0  0  0  0
    7.3702  -15.7961   23.2862 C   0  0  1  0  0  0  0  0  0  0  0  0
    7.3611  -17.2843   23.5580 C   0  0  0  0  0  0  0  0  0  0  0  0
    7.3096  -17.5702   25.0142 C   0  0  0  0  0  0  0  0  0  0  0  0
    8.3959  -17.8477   25.8059 C   0  0  0  0  0  0  0  0  0  0  0  0
    7.9349  -18.0468   27.0591 N   0  0  0  0  0  0  0  0  0  0  0  0
    6.5961  -17.9026   27.0742 C   0  0  0  0  0  0  0  0  0  0  0  0
    6.2372  -17.6087   25.7979 N   0  0  0  0  0  0  0  0  0  0  0  0
    8.3929  -15.1696   24.1295 C   0  0  0  0  0  0  0  0  0  0  0  0
    9.6030  -15.0800   23.7046 O   0  0  0  0  0  0  0  0  0  0  0  0
    8.1311  -14.6451   25.4034 N   0  0  0  0  0  0  0  0  0  0  0  0
    6.8047  -14.6945   26.0568 C   0  0  0  0  0  0  0  0  0  0  0  0
    6.7330  -13.4735   26.9119 C   0  0  0  0  0  0  0  0  0  0  0  0
    8.0911  -12.8010   26.7487 C   0  0  0  0  0  0  0  0  0  0  0  0
    8.9697  -14.0104   26.4042 C   0  0  1  0  0  0  0  0  0  0  0  0
    9.1741  -14.8638   27.5896 C   0  0  0  0  0  0  0  0  0  0  0  0
    8.5605  -15.9359   27.7118 O   0  0  0  0  0  0  0  0  0  0  0  0
   10.0558  -14.4643   28.5691 O   0  0  0  0  0  0  0  0  0  0  0  0
  2  1  1  0
  3  5  1  0
  3  2  1  0
  3  4  1  1
  5  6  2  0
  7  5  1  0
  8  7  1  0
  9 10  1  0
  8  9  1  6
 10 14  1  0
 11 12  1  0
 11 10  2  0
 12 13  1  0
 13 14  2  0
 15  8  1  0
 15 17  1  0
 16 15  2  0
 17 18  1  0
 19 18  1  0
 20 19  1  0
 20 21  1  0
 21 17  1  0
 21 22  1  1
 22 24  1  0
 23 22  2  0
M  END
$$$$
