SHP.pdb
     RDKit          3D

 24 25  0  0  1  0  0  0  0  0999 V2000
   12.5477  -16.2910   21.7493 O   0  0  0  0  0  0  0  0  0  0  0  0
   12.2387  -15.8009   20.4754 C   0  0  0  0  0  0  0  0  0  0  0  0
   10.7874  -16.0027   20.2341 C   0  0  2  0  0  0  0  0  0  0  0  0
   10.4832  -15.6083   18.8768 N   0  0  0  0  0  0  0  0  0  0  0  0
    9.8769  -15.3528   21.1503 C   0  0  0  0  0  0  0  0  0  0  0  0
    9.5911  -14.1243   20.9453 O   0  0  0  0  0  0  0  0  0  0  0  0
    9.2502  -15.9188   22.2676 N   0  0  0  0  0  0  0  0  0  0  0  0
    8.3463  -15.2388   23.1772 C   0  0  1  0  0  0  0  0  0  0  0  0
    7.1428  -16.1063   23.4738 C   0  0  0  0  0  0  0  0  0  0  0  0
    6.4435  -16.5095   22.2275 C   0  0  0  0  0  0  0  0  0  0  0  0
    5.6424  -15.6927   21.4691 C   0  0  0  0  0  0  0  0  0  0  0  0
    5.1990  -16.4267   20.4263 N   0  0  0  0  0  0  0  0  0  0  0  0
    5.6976  -17.6748   20.5103 C   0  0  0  0  0  0  0  0  0  0  0  0
    6.4624  -17.6973   21.6322 N   0  0  0  0  0  0  0  0  0  0  0  0
    9.0383  -14.9472   24.4365 C   0  0  0  0  0  0  0  0  0  0  0  0
   10.2848  -15.2366   24.5614 O   0  0  0  0  0  0  0  0  0  0  0  0
    8.4141  -14.3551   25.5438 N   0  0  0  0  0  0  0  0  0  0  0  0
    6.9565  -14.1204   25.6385 C   0  0  0  0  0  0  0  0  0  0  0  0
    6.8011  -12.8935   26.4739 C   0  0  0  0  0  0  0  0  0  0  0  0
    8.2203  -12.5150   26.8812 C   0  0  0  0  0  0  0  0  0  0  0  0
    8.9091  -13.8845   26.8250 C   0  0  1  0  0  0  0  0  0  0  0  0
    8.4701  -14.7379   27.9449 C   0  0  0  0  0  0  0  0  0  0  0  0
    7.5717  -15.5794   27.7858 O   0  0  0  0  0  0  0  0  0  0  0  0
    9.0654  -14.5970   29.1787 O   0  0  0  0  0  0  0  0  0  0  0  0
  2  1  1  0
  3  5  1  0
  3  2  1  0
  3  4  1  6
  5  6  2  0
  7  5  1  0
  8  7  1  0
  9 10  1  0
  8  9  1  1
 10 14  1  0
 11 12  1  0
 11 10  2  0
 12 13  1  0
 13 14  2  0
 15  8  1  0
 15 17  1  0
 16 15  2  0
 17 18  1  0
 19 18  1  0
 20 19  1  0
 20 21  1  0
 21 17  1  0
 21 22  1  1
 22 24  1  0
 23 22  2  0
M  END
$$$$
