SHP.pdb
     RDKit          3D

 24 25  0  0  1  0  0  0  0  0999 V2000
   11.3030  -16.1613   20.0043 O   0  0  0  0  0  0  0  0  0  0  0  0
   10.6266  -17.1459   20.7333 C   0  0  0  0  0  0  0  0  0  0  0  0
    9.1675  -16.9649   20.5253 C   0  0  2  0  0  0  0  0  0  0  0  0
    8.9500  -16.4334   19.1984 N   0  0  0  0  0  0  0  0  0  0  0  0
    8.4645  -16.1590   21.4986 C   0  0  0  0  0  0  0  0  0  0  0  0
    8.1550  -14.9614   21.1781 O   0  0  0  0  0  0  0  0  0  0  0  0
    8.0685  -16.5389   22.7871 N   0  0  0  0  0  0  0  0  0  0  0  0
    7.4020  -15.6938   23.7610 C   0  0  1  0  0  0  0  0  0  0  0  0
    6.2537  -16.4367   24.4080 C   0  0  0  0  0  0  0  0  0  0  0  0
    6.7172  -17.6819   25.0710 C   0  0  0  0  0  0  0  0  0  0  0  0
    7.0083  -18.8598   24.4293 C   0  0  0  0  0  0  0  0  0  0  0  0
    7.3936  -19.7434   25.3744 N   0  0  0  0  0  0  0  0  0  0  0  0
    7.3519  -19.1545   26.5848 C   0  0  0  0  0  0  0  0  0  0  0  0
    6.9307  -17.8820   26.3672 N   0  0  0  0  0  0  0  0  0  0  0  0
    8.3526  -15.2960   24.8040 C   0  0  0  0  0  0  0  0  0  0  0  0
    9.5551  -15.7504   24.7782 O   0  0  0  0  0  0  0  0  0  0  0  0
    8.0290  -14.4269   25.8559 N   0  0  0  0  0  0  0  0  0  0  0  0
    6.6448  -14.0426   26.2093 C   0  0  0  0  0  0  0  0  0  0  0  0
    6.7403  -12.6575   26.7565 C   0  0  0  0  0  0  0  0  0  0  0  0
    8.2301  -12.3351   26.7481 C   0  0  0  0  0  0  0  0  0  0  0  0
    8.8282  -13.7435   26.8569 C   0  0  1  0  0  0  0  0  0  0  0  0
    8.6264  -14.2951   28.2097 C   0  0  0  0  0  0  0  0  0  0  0  0
    7.7274  -15.1225   28.4289 O   0  0  0  0  0  0  0  0  0  0  0  0
    9.4458  -13.8860   29.2382 O   0  0  0  0  0  0  0  0  0  0  0  0
  2  1  1  0
  3  5  1  0
  3  2  1  0
  3  4  1  6
  5  6  2  0
  7  5  1  0
  8  7  1  0
  9 10  1  0
  8  9  1  1
 10 14  1  0
 11 12  1  0
 11 10  2  0
 12 13  1  0
 13 14  2  0
 15  8  1  0
 15 17  1  0
 16 15  2  0
 17 18  1  0
 19 18  1  0
 20 19  1  0
 20 21  1  0
 21 17  1  0
 21 22  1  1
 22 24  1  0
 23 22  2  0
M  END
$$$$
