SHP.pdb
     RDKit          3D

 24 25  0  0  1  0  0  0  0  0999 V2000
   12.7567  -19.3918   21.0862 O   0  0  0  0  0  0  0  0  0  0  0  0
   12.8527  -18.2472   21.8856 C   0  0  0  0  0  0  0  0  0  0  0  0
   11.9065  -17.2289   21.3633 C   0  0  2  0  0  0  0  0  0  0  0  0
   12.5896  -16.4238   20.3756 N   0  0  0  0  0  0  0  0  0  0  0  0
   11.2659  -16.3731   22.3370 C   0  0  0  0  0  0  0  0  0  0  0  0
   11.9164  -15.3626   22.7711 O   0  0  0  0  0  0  0  0  0  0  0  0
    9.9828  -16.5177   22.8794 N   0  0  0  0  0  0  0  0  0  0  0  0
    9.4088  -15.7149   23.9438 C   0  0  1  0  0  0  0  0  0  0  0  0
    7.8977  -15.7587   23.8830 C   0  0  0  0  0  0  0  0  0  0  0  0
    7.2872  -14.8515   24.8875 C   0  0  0  0  0  0  0  0  0  0  0  0
    6.6994  -15.2508   26.0619 C   0  0  0  0  0  0  0  0  0  0  0  0
    6.2709  -14.1363   26.6918 N   0  0  0  0  0  0  0  0  0  0  0  0
    6.5722  -13.0549   25.9479 C   0  0  0  0  0  0  0  0  0  0  0  0
    7.1992  -13.5265   24.8394 N   0  0  0  0  0  0  0  0  0  0  0  0
    9.8429  -16.2342   25.2444 C   0  0  0  0  0  0  0  0  0  0  0  0
   10.3218  -17.4243   25.3287 O   0  0  0  0  0  0  0  0  0  0  0  0
    9.7704  -15.4975   26.4355 N   0  0  0  0  0  0  0  0  0  0  0  0
    8.9106  -14.3071   26.6155 C   0  0  0  0  0  0  0  0  0  0  0  0
    9.6321  -13.4345   27.5878 C   0  0  0  0  0  0  0  0  0  0  0  0
   10.8758  -14.2257   27.9758 C   0  0  0  0  0  0  0  0  0  0  0  0
   10.3875  -15.6605   27.7395 C   0  0  1  0  0  0  0  0  0  0  0  0
    9.4162  -16.0604   28.7748 C   0  0  0  0  0  0  0  0  0  0  0  0
    9.7297  -16.0487   29.9758 O   0  0  0  0  0  0  0  0  0  0  0  0
    8.1492  -16.4502   28.4018 O   0  0  0  0  0  0  0  0  0  0  0  0
  2  1  1  0
  3  5  1  0
  3  2  1  0
  3  4  1  6
  5  6  2  0
  7  5  1  0
  8  7  1  0
  9 10  1  0
  8  9  1  1
 10 14  1  0
 11 12  1  0
 11 10  2  0
 12 13  1  0
 13 14  2  0
 15  8  1  0
 15 17  1  0
 16 15  2  0
 17 18  1  0
 19 18  1  0
 20 19  1  0
 20 21  1  0
 21 17  1  0
 21 22  1  1
 22 24  1  0
 23 22  2  0
M  END
$$$$
