SHP.pdb
     RDKit          3D

 24 25  0  0  1  0  0  0  0  0999 V2000
   13.2559  -18.5104   20.9995 O   0  0  0  0  0  0  0  0  0  0  0  0
   12.5034  -17.7452   21.8976 C   0  0  0  0  0  0  0  0  0  0  0  0
   11.3882  -17.1082   21.1522 C   0  0  2  0  0  0  0  0  0  0  0  0
   11.9139  -16.5275   19.9370 N   0  0  0  0  0  0  0  0  0  0  0  0
   10.6029  -16.1262   21.8662 C   0  0  0  0  0  0  0  0  0  0  0  0
   10.8553  -14.8901   21.6633 O   0  0  0  0  0  0  0  0  0  0  0  0
    9.5690  -16.3681   22.7795 N   0  0  0  0  0  0  0  0  0  0  0  0
    8.8582  -15.3657   23.5519 C   0  0  1  0  0  0  0  0  0  0  0  0
    7.4058  -15.7564   23.7161 C   0  0  0  0  0  0  0  0  0  0  0  0
    6.7470  -15.9629   22.4015 C   0  0  0  0  0  0  0  0  0  0  0  0
    6.3174  -14.9631   21.5650 C   0  0  0  0  0  0  0  0  0  0  0  0
    5.7783  -15.5567   20.4789 N   0  0  0  0  0  0  0  0  0  0  0  0
    5.8575  -16.8945   20.6115 C   0  0  0  0  0  0  0  0  0  0  0  0
    6.4600  -17.1167   21.8081 N   0  0  0  0  0  0  0  0  0  0  0  0
    9.4656  -15.2422   24.8806 C   0  0  0  0  0  0  0  0  0  0  0  0
   10.5817  -15.8302   25.1291 O   0  0  0  0  0  0  0  0  0  0  0  0
    8.8953  -14.5030   25.9270 N   0  0  0  0  0  0  0  0  0  0  0  0
    7.5071  -13.9918   25.9118 C   0  0  0  0  0  0  0  0  0  0  0  0
    7.5360  -12.7288   26.7064 C   0  0  0  0  0  0  0  0  0  0  0  0
    8.9715  -12.6131   27.2056 C   0  0  0  0  0  0  0  0  0  0  0  0
    9.3861  -14.0899   27.2294 C   0  0  1  0  0  0  0  0  0  0  0  0
    8.7183  -14.8036   28.3339 C   0  0  0  0  0  0  0  0  0  0  0  0
    9.1046  -14.6619   29.5050 O   0  0  0  0  0  0  0  0  0  0  0  0
    7.6553  -15.6350   28.0596 O   0  0  0  0  0  0  0  0  0  0  0  0
  2  1  1  0
  3  5  1  0
  3  2  1  0
  3  4  1  6
  5  6  2  0
  7  5  1  0
  8  7  1  0
  9 10  1  0
  8  9  1  1
 10 14  1  0
 11 12  1  0
 11 10  2  0
 12 13  1  0
 13 14  2  0
 15  8  1  0
 15 17  1  0
 16 15  2  0
 17 18  1  0
 19 18  1  0
 20 19  1  0
 20 21  1  0
 21 17  1  0
 21 22  1  1
 22 24  1  0
 23 22  2  0
M  END
$$$$
