SHP.pdb
     RDKit          3D

 24 25  0  0  1  0  0  0  0  0999 V2000
   11.4095  -15.7730   14.2323 O   0  0  0  0  0  0  0  0  0  0  0  0
   11.0748  -17.1318   14.2252 C   0  0  0  0  0  0  0  0  0  0  0  0
    9.5949  -17.2509   14.2521 C   0  0  2  0  0  0  0  0  0  0  0  0
    9.0551  -16.5984   13.0802 N   0  0  0  0  0  0  0  0  0  0  0  0
    8.9226  -16.7668   15.4373 C   0  0  0  0  0  0  0  0  0  0  0  0
    8.3211  -15.6414   15.3711 O   0  0  0  0  0  0  0  0  0  0  0  0
    8.8460  -17.3967   16.6859 N   0  0  0  0  0  0  0  0  0  0  0  0
    8.1843  -16.8750   17.8677 C   0  0  1  0  0  0  0  0  0  0  0  0
    7.8008  -18.0029   18.8003 C   0  0  0  0  0  0  0  0  0  0  0  0
    6.8187  -18.9200   18.1685 C   0  0  0  0  0  0  0  0  0  0  0  0
    5.4913  -18.6385   17.9616 C   0  0  0  0  0  0  0  0  0  0  0  0
    4.9432  -19.7188   17.3658 N   0  0  0  0  0  0  0  0  0  0  0  0
    5.8861  -20.6651   17.1948 C   0  0  0  0  0  0  0  0  0  0  0  0
    7.0342  -20.1445   17.6997 N   0  0  0  0  0  0  0  0  0  0  0  0
    9.0863  -15.9630   18.5779 C   0  0  0  0  0  0  0  0  0  0  0  0
   10.3497  -16.0039   18.3432 O   0  0  0  0  0  0  0  0  0  0  0  0
    8.6500  -15.0211   19.5209 N   0  0  0  0  0  0  0  0  0  0  0  0
    7.2620  -14.9465   20.0276 C   0  0  0  0  0  0  0  0  0  0  0  0
    7.0230  -13.5051   20.3317 C   0  0  0  0  0  0  0  0  0  0  0  0
    8.3504  -12.8171   20.0351 C   0  0  0  0  0  0  0  0  0  0  0  0
    9.3302  -13.9752   20.2632 C   0  0  1  0  0  0  0  0  0  0  0  0
    9.4448  -14.2891   21.6997 C   0  0  0  0  0  0  0  0  0  0  0  0
   10.1293  -13.5767   22.4512 O   0  0  0  0  0  0  0  0  0  0  0  0
    8.7840  -15.3845   22.2094 O   0  0  0  0  0  0  0  0  0  0  0  0
  2  1  1  0
  3  5  1  0
  3  2  1  0
  3  4  1  6
  5  6  2  0
  7  5  1  0
  8  7  1  0
  9 10  1  0
  8  9  1  1
 10 14  1  0
 11 12  1  0
 11 10  2  0
 12 13  1  0
 13 14  2  0
 15  8  1  0
 15 17  1  0
 16 15  2  0
 17 18  1  0
 19 18  1  0
 20 19  1  0
 20 21  1  0
 21 17  1  0
 21 22  1  1
 22 24  1  0
 23 22  2  0
M  END
$$$$
