SHP.pdb
     RDKit          3D

 24 25  0  0  1  0  0  0  0  0999 V2000
   10.4256  -16.5261   17.3290 O   0  0  0  0  0  0  0  0  0  0  0  0
   10.0723  -15.4835   16.4649 C   0  0  0  0  0  0  0  0  0  0  0  0
    8.6308  -15.1829   16.6566 C   0  0  2  0  0  0  0  0  0  0  0  0
    8.2289  -14.1944   15.6810 N   0  0  0  0  0  0  0  0  0  0  0  0
    8.2219  -14.7630   17.9785 C   0  0  0  0  0  0  0  0  0  0  0  0
    8.4500  -13.5541   18.3238 O   0  0  0  0  0  0  0  0  0  0  0  0
    7.5877  -15.5393   18.9566 N   0  0  0  0  0  0  0  0  0  0  0  0
    7.2329  -15.1054   20.2956 C   0  0  1  0  0  0  0  0  0  0  0  0
    5.9540  -15.7757   20.7472 C   0  0  0  0  0  0  0  0  0  0  0  0
    6.1419  -17.2372   20.9299 C   0  0  0  0  0  0  0  0  0  0  0  0
    6.6443  -18.0956   19.9840 C   0  0  0  0  0  0  0  0  0  0  0  0
    6.6575  -19.3291   20.5325 N   0  0  0  0  0  0  0  0  0  0  0  0
    6.1792  -19.2675   21.7899 C   0  0  0  0  0  0  0  0  0  0  0  0
    5.8686  -17.9637   22.0084 N   0  0  0  0  0  0  0  0  0  0  0  0
    8.3054  -15.4589   21.2307 C   0  0  0  0  0  0  0  0  0  0  0  0
    9.3443  -16.0841   20.8033 O   0  0  0  0  0  0  0  0  0  0  0  0
    8.2732  -15.1499   22.5983 N   0  0  0  0  0  0  0  0  0  0  0  0
    7.0597  -14.6923   23.3100 C   0  0  0  0  0  0  0  0  0  0  0  0
    7.5471  -13.7933   24.3970 C   0  0  0  0  0  0  0  0  0  0  0  0
    9.0668  -13.8359   24.2881 C   0  0  0  0  0  0  0  0  0  0  0  0
    9.2696  -15.2170   23.6521 C   0  0  1  0  0  0  0  0  0  0  0  0
    8.9870  -16.2884   24.6254 C   0  0  0  0  0  0  0  0  0  0  0  0
    7.8682  -16.8243   24.6706 O   0  0  0  0  0  0  0  0  0  0  0  0
    9.9768  -16.6964   25.4915 O   0  0  0  0  0  0  0  0  0  0  0  0
  2  1  1  0
  3  5  1  0
  3  2  1  0
  3  4  1  6
  5  6  2  0
  7  5  1  0
  8  7  1  0
  9 10  1  0
  8  9  1  1
 10 14  1  0
 11 12  1  0
 11 10  2  0
 12 13  1  0
 13 14  2  0
 15  8  1  0
 15 17  1  0
 16 15  2  0
 17 18  1  0
 19 18  1  0
 20 19  1  0
 20 21  1  0
 21 17  1  0
 21 22  1  1
 22 24  1  0
 23 22  2  0
M  END
$$$$
