SHP.pdb
     RDKit          3D

 24 25  0  0  1  0  0  0  0  0999 V2000
    9.5528  -12.8791   20.1050 O   0  0  0  0  0  0  0  0  0  0  0  0
    9.0339  -14.0040   19.4539 C   0  0  0  0  0  0  0  0  0  0  0  0
    7.6195  -14.1772   19.8713 C   0  0  2  0  0  0  0  0  0  0  0  0
    6.8733  -13.0014   19.4827 N   0  0  0  0  0  0  0  0  0  0  0  0
    7.3822  -14.4704   21.2673 C   0  0  0  0  0  0  0  0  0  0  0  0
    6.8413  -13.5653   21.9892 O   0  0  0  0  0  0  0  0  0  0  0  0
    7.6799  -15.6582   21.9470 N   0  0  0  0  0  0  0  0  0  0  0  0
    7.4369  -15.9228   23.3533 C   0  0  1  0  0  0  0  0  0  0  0  0
    7.5664  -17.4020   23.6432 C   0  0  0  0  0  0  0  0  0  0  0  0
    7.3939  -17.6891   25.0898 C   0  0  0  0  0  0  0  0  0  0  0  0
    8.4050  -18.0161   25.9586 C   0  0  0  0  0  0  0  0  0  0  0  0
    7.8435  -18.1981   27.1727 N   0  0  0  0  0  0  0  0  0  0  0  0
    6.5148  -17.9953   27.0890 C   0  0  0  0  0  0  0  0  0  0  0  0
    6.2653  -17.6826   25.7912 N   0  0  0  0  0  0  0  0  0  0  0  0
    8.4139  -15.1957   24.1697 C   0  0  0  0  0  0  0  0  0  0  0  0
    9.6187  -15.0509   23.7448 O   0  0  0  0  0  0  0  0  0  0  0  0
    8.1126  -14.6299   25.4170 N   0  0  0  0  0  0  0  0  0  0  0  0
    6.8218  -14.8174   26.1151 C   0  0  0  0  0  0  0  0  0  0  0  0
    6.6023  -13.5646   26.8958 C   0  0  0  0  0  0  0  0  0  0  0  0
    7.8499  -12.7249   26.6473 C   0  0  0  0  0  0  0  0  0  0  0  0
    8.8790  -13.8227   26.3491 C   0  0  1  0  0  0  0  0  0  0  0  0
    9.2279  -14.5611   27.5771 C   0  0  0  0  0  0  0  0  0  0  0  0
    8.7629  -15.6922   27.7900 O   0  0  0  0  0  0  0  0  0  0  0  0
   10.0787  -13.9869   28.4952 O   0  0  0  0  0  0  0  0  0  0  0  0
  2  1  1  0
  3  5  1  0
  3  2  1  0
  3  4  1  1
  5  6  2  0
  7  5  1  0
  8  7  1  0
  9 10  1  0
  8  9  1  6
 10 14  1  0
 11 12  1  0
 11 10  2  0
 12 13  1  0
 13 14  2  0
 15  8  1  0
 15 17  1  0
 16 15  2  0
 17 18  1  0
 19 18  1  0
 20 19  1  0
 20 21  1  0
 21 17  1  0
 21 22  1  1
 22 24  1  0
 23 22  2  0
M  END
$$$$
