SHP.pdb
     RDKit          3D

 24 25  0  0  1  0  0  0  0  0999 V2000
   13.1213  -17.3888   22.2613 O   0  0  0  0  0  0  0  0  0  0  0  0
   12.3595  -17.9126   21.2108 C   0  0  0  0  0  0  0  0  0  0  0  0
   11.3913  -16.8764   20.7707 C   0  0  2  0  0  0  0  0  0  0  0  0
   12.1027  -15.8638   20.0231 N   0  0  0  0  0  0  0  0  0  0  0  0
   10.5887  -16.2539   21.8001 C   0  0  0  0  0  0  0  0  0  0  0  0
   10.9146  -15.0819   22.1913 O   0  0  0  0  0  0  0  0  0  0  0  0
    9.4651  -16.7913   22.4405 N   0  0  0  0  0  0  0  0  0  0  0  0
    8.6967  -16.1563   23.4955 C   0  0  1  0  0  0  0  0  0  0  0  0
    7.4638  -16.9724   23.8163 C   0  0  0  0  0  0  0  0  0  0  0  0
    6.7237  -16.4066   24.9726 C   0  0  0  0  0  0  0  0  0  0  0  0
    6.8390  -16.8329   26.2722 C   0  0  0  0  0  0  0  0  0  0  0  0
    6.0094  -16.0709   27.0163 N   0  0  0  0  0  0  0  0  0  0  0  0
    5.3803  -15.1834   26.2225 C   0  0  0  0  0  0  0  0  0  0  0  0
    5.8406  -15.4138   24.9658 N   0  0  0  0  0  0  0  0  0  0  0  0
    9.5161  -16.0454   24.7063 C   0  0  0  0  0  0  0  0  0  0  0  0
   10.5693  -16.7718   24.8328 O   0  0  0  0  0  0  0  0  0  0  0  0
    9.2202  -15.1736   25.7642 N   0  0  0  0  0  0  0  0  0  0  0  0
    7.9936  -14.3494   25.8325 C   0  0  0  0  0  0  0  0  0  0  0  0
    8.3807  -13.1148   26.5763 C   0  0  0  0  0  0  0  0  0  0  0  0
    9.8386  -13.3324   26.9641 C   0  0  0  0  0  0  0  0  0  0  0  0
    9.8966  -14.8646   27.0111 C   0  0  1  0  0  0  0  0  0  0  0  0
    9.1709  -15.3804   28.1869 C   0  0  0  0  0  0  0  0  0  0  0  0
    8.0738  -15.9461   28.0563 O   0  0  0  0  0  0  0  0  0  0  0  0
    9.7190  -15.2311   29.4414 O   0  0  0  0  0  0  0  0  0  0  0  0
  2  1  1  0
  3  5  1  0
  3  2  1  0
  3  4  1  1
  5  6  2  0
  7  5  1  0
  8  7  1  0
  9 10  1  0
  8  9  1  1
 10 14  1  0
 11 12  1  0
 11 10  2  0
 12 13  1  0
 13 14  2  0
 15  8  1  0
 15 17  1  0
 16 15  2  0
 17 18  1  0
 19 18  1  0
 20 19  1  0
 20 21  1  0
 21 17  1  0
 21 22  1  1
 22 24  1  0
 23 22  2  0
M  END
$$$$
