TQL.pdb
     RDKit          3D

 25 24  0  0  1  0  0  0  0  0999 V2000
   15.8718  -10.6382  -18.7268 C   0  0  0  0  0  0  0  0  0  0  0  0
   15.7919  -11.6954  -17.6248 C   0  0  1  0  0  0  0  0  0  0  0  0
   14.7713  -12.5829  -17.8544 O   0  0  0  0  0  0  0  0  0  0  0  0
   17.1346  -12.4013  -17.6176 C   0  0  2  0  0  0  0  0  0  0  0  0
   17.0157  -13.4831  -16.6532 N   0  0  0  0  0  0  0  0  0  0  0  0
   18.1817  -11.4612  -17.2073 C   0  0  0  0  0  0  0  0  0  0  0  0
   18.1373  -10.9575  -16.0533 O   0  0  0  0  0  0  0  0  0  0  0  0
   23.8203  -11.5139  -19.6231 N   0  0  0  0  0  0  0  0  0  0  0  0
   23.4768  -12.1996  -18.4398 C   0  0  0  0  0  0  0  0  0  0  0  0
   24.1153  -13.2341  -18.1356 O   0  0  0  0  0  0  0  0  0  0  0  0
   22.4031  -11.7266  -17.5676 C   0  0  0  0  0  0  0  0  0  0  0  0
   21.6973  -10.5413  -18.0916 C   0  0  0  0  0  0  0  0  0  0  0  0
   20.3524  -10.2208  -17.5554 C   0  0  2  0  0  0  0  0  0  0  0  0
   19.2794  -11.0523  -18.0189 N   0  0  0  0  0  0  0  0  0  0  0  0
   20.0162   -8.7810  -17.6158 C   0  0  0  0  0  0  0  0  0  0  0  0
   19.4129   -8.2687  -18.5876 O   0  0  0  0  0  0  0  0  0  0  0  0
   16.4092   -5.2540  -16.3930 C   0  0  0  0  0  0  0  0  0  0  0  0
   17.9276   -5.0781  -16.5428 C   0  0  2  0  0  0  0  0  0  0  0  0
   18.1587   -4.2472  -17.7624 C   0  0  0  0  0  0  0  0  0  0  0  0
   18.5011   -6.4486  -16.6185 C   0  0  0  0  0  0  0  0  0  0  0  0
   19.9986   -6.5276  -16.5066 C   0  0  2  0  0  0  0  0  0  0  0  0
   20.3829   -7.9318  -16.5415 N   0  0  0  0  0  0  0  0  0  0  0  0
   20.5290   -5.9344  -15.2784 C   0  0  0  0  0  0  0  0  0  0  0  0
   20.9483   -6.6564  -14.3577 O   0  0  0  0  0  0  0  0  0  0  0  0
   20.5666   -4.5662  -15.1360 O   0  0  0  0  0  0  0  0  0  0  0  0
  2  1  1  6
  3  2  1  0
  4  6  1  0
  4  5  1  1
  4  2  1  0
  6 14  1  0
  7  6  2  0
  9 11  1  0
  9  8  1  0
 10  9  2  0
 12 11  1  0
 13 12  1  6
 14 13  1  0
 15 13  1  0
 16 15  2  0
 18 17  1  6
 18 19  1  0
 20 18  1  0
 21 20  1  1
 21 22  1  0
 21 23  1  0
 22 15  1  0
 23 25  1  0
 24 23  2  0
M  END
$$$$
