TQL.pdb
     RDKit          3D

 25 24  0  0  1  0  0  0  0  0999 V2000
   16.8443  -12.4215  -16.6604 C   0  0  0  0  0  0  0  0  0  0  0  0
   16.6138  -12.7945  -18.1254 C   0  0  1  0  0  0  0  0  0  0  0  0
   15.7373  -13.8432  -18.2438 O   0  0  0  0  0  0  0  0  0  0  0  0
   16.0659  -11.5499  -18.7977 C   0  0  2  0  0  0  0  0  0  0  0  0
   15.9682  -11.8669  -20.2135 N   0  0  0  0  0  0  0  0  0  0  0  0
   16.9880  -10.4305  -18.5853 C   0  0  0  0  0  0  0  0  0  0  0  0
   18.1286  -10.4642  -19.1195 O   0  0  0  0  0  0  0  0  0  0  0  0
   17.5982   -4.2409  -16.7388 N   0  0  0  0  0  0  0  0  0  0  0  0
   16.5749   -4.9846  -16.1158 C   0  0  0  0  0  0  0  0  0  0  0  0
   15.9225   -4.4525  -15.1877 O   0  0  0  0  0  0  0  0  0  0  0  0
   16.2613   -6.3502  -16.5334 C   0  0  0  0  0  0  0  0  0  0  0  0
   17.1106   -6.8387  -17.6368 C   0  0  0  0  0  0  0  0  0  0  0  0
   17.6474   -8.2190  -17.5622 C   0  0  2  0  0  0  0  0  0  0  0  0
   16.7039   -9.2715  -17.8062 N   0  0  0  0  0  0  0  0  0  0  0  0
   18.4748   -8.4709  -16.3615 C   0  0  0  0  0  0  0  0  0  0  0  0
   18.0230   -9.0321  -15.3359 O   0  0  0  0  0  0  0  0  0  0  0  0
   23.4101  -10.9492  -14.9575 C   0  0  0  0  0  0  0  0  0  0  0  0
   22.5129   -9.8404  -14.3877 C   0  0  2  0  0  0  0  0  0  0  0  0
   21.8826  -10.3765  -13.1442 C   0  0  0  0  0  0  0  0  0  0  0  0
   21.5456   -9.4924  -15.4629 C   0  0  0  0  0  0  0  0  0  0  0  0
   20.6911   -8.2844  -15.1947 C   0  0  2  0  0  0  0  0  0  0  0  0
   19.8341   -8.0686  -16.3521 N   0  0  0  0  0  0  0  0  0  0  0  0
   21.4590   -7.0620  -14.9547 C   0  0  0  0  0  0  0  0  0  0  0  0
   22.0616   -6.8948  -13.8806 O   0  0  0  0  0  0  0  0  0  0  0  0
   21.5184   -6.0859  -15.9229 O   0  0  0  0  0  0  0  0  0  0  0  0
  2  1  1  1
  3  2  1  0
  4  6  1  0
  4  5  1  6
  4  2  1  0
  6 14  1  0
  7  6  2  0
  9 11  1  0
  9  8  1  0
 10  9  2  0
 12 11  1  0
 13 12  1  1
 14 13  1  0
 15 13  1  0
 16 15  2  0
 18 17  1  6
 18 19  1  0
 20 18  1  0
 21 20  1  6
 21 22  1  0
 21 23  1  0
 22 15  1  0
 23 25  1  0
 24 23  2  0
M  END
$$$$
