TQL.pdb
     RDKit          3D

 25 24  0  0  1  0  0  0  0  0999 V2000
   17.3179  -21.8754    4.9245 C   0  0  0  0  0  0  0  0  0  0  0  0
   17.0440  -21.9844    3.4240 C   0  0  1  0  0  0  0  0  0  0  0  0
   17.2483  -23.2622    2.9686 O   0  0  0  0  0  0  0  0  0  0  0  0
   15.6009  -21.5609    3.2255 C   0  0  2  0  0  0  0  0  0  0  0  0
   15.3173  -21.7475    1.8115 N   0  0  0  0  0  0  0  0  0  0  0  0
   15.4467  -20.1517    3.5980 C   0  0  0  0  0  0  0  0  0  0  0  0
   15.6126  -19.2627    2.7207 O   0  0  0  0  0  0  0  0  0  0  0  0
   12.3241  -17.4503    8.5273 N   0  0  0  0  0  0  0  0  0  0  0  0
   11.7236  -17.6993    7.2759 C   0  0  0  0  0  0  0  0  0  0  0  0
   10.4740  -17.6664    7.1896 O   0  0  0  0  0  0  0  0  0  0  0  0
   12.5259  -17.9871    6.0880 C   0  0  0  0  0  0  0  0  0  0  0  0
   13.9765  -18.0361    6.3543 C   0  0  0  0  0  0  0  0  0  0  0  0
   14.8978  -18.2994    5.2227 C   0  0  2  0  0  0  0  0  0  0  0  0
   15.1159  -19.6803    4.9015 N   0  0  0  0  0  0  0  0  0  0  0  0
   16.1604  -17.5308    5.2930 C   0  0  0  0  0  0  0  0  0  0  0  0
   17.2455  -18.0463    5.6503 O   0  0  0  0  0  0  0  0  0  0  0  0
   17.8331  -11.9997    3.2518 C   0  0  0  0  0  0  0  0  0  0  0  0
   18.3615  -13.2780    3.9196 C   0  0  2  0  0  0  0  0  0  0  0  0
   19.4860  -13.7849    3.0773 C   0  0  0  0  0  0  0  0  0  0  0  0
   17.2038  -14.2068    4.0179 C   0  0  0  0  0  0  0  0  0  0  0  0
   17.3822  -15.3610    4.9652 C   0  0  2  0  0  0  0  0  0  0  0  0
   16.1624  -16.1562    4.9465 N   0  0  0  0  0  0  0  0  0  0  0  0
   17.6464  -14.9537    6.3457 C   0  0  0  0  0  0  0  0  0  0  0  0
   18.7727  -15.1123    6.8468 O   0  0  0  0  0  0  0  0  0  0  0  0
   16.6434  -14.3896    7.1003 O   0  0  0  0  0  0  0  0  0  0  0  0
  2  1  1  1
  3  2  1  0
  4  6  1  0
  4  5  1  6
  4  2  1  0
  6 14  1  0
  7  6  2  0
  9 11  1  0
  9  8  1  0
 10  9  2  0
 12 11  1  0
 13 12  1  1
 14 13  1  0
 15 13  1  0
 16 15  2  0
 18 17  1  6
 18 19  1  0
 20 18  1  0
 21 20  1  6
 21 22  1  0
 21 23  1  0
 22 15  1  0
 23 25  1  0
 24 23  2  0
M  END
$$$$
