TQL.pdb
     RDKit          3D

 25 24  0  0  1  0  0  0  0  0999 V2000
   28.3383  -23.2844  -16.3222 C   0  0  0  0  0  0  0  0  0  0  0  0
   29.2062  -22.2891  -17.0932 C   0  0  1  0  0  0  0  0  0  0  0  0
   30.2716  -22.9119  -17.6924 O   0  0  0  0  0  0  0  0  0  0  0  0
   28.2991  -21.6490  -18.1271 C   0  0  2  0  0  0  0  0  0  0  0  0
   29.1270  -20.7040  -18.8593 N   0  0  0  0  0  0  0  0  0  0  0  0
   27.2000  -20.9526  -17.4524 C   0  0  0  0  0  0  0  0  0  0  0  0
   27.3421  -19.7412  -17.1366 O   0  0  0  0  0  0  0  0  0  0  0  0
   23.9648  -17.7619  -17.4346 N   0  0  0  0  0  0  0  0  0  0  0  0
   22.8801  -18.2764  -16.6948 C   0  0  0  0  0  0  0  0  0  0  0  0
   22.1199  -17.4751  -16.1031 O   0  0  0  0  0  0  0  0  0  0  0  0
   22.6264  -19.7138  -16.6112 C   0  0  0  0  0  0  0  0  0  0  0  0
   23.6888  -20.5361  -17.2218 C   0  0  0  0  0  0  0  0  0  0  0  0
   24.8987  -20.8420  -16.4209 C   0  0  2  0  0  0  0  0  0  0  0  0
   25.9464  -21.5378  -17.1107 N   0  0  0  0  0  0  0  0  0  0  0  0
   24.6017  -21.4375  -15.0992 C   0  0  0  0  0  0  0  0  0  0  0  0
   25.0744  -22.5391  -14.7334 O   0  0  0  0  0  0  0  0  0  0  0  0
   23.9245  -20.4597  -10.0192 C   0  0  0  0  0  0  0  0  0  0  0  0
   25.0149  -21.3043  -10.6949 C   0  0  2  0  0  0  0  0  0  0  0  0
   26.3096  -20.9703  -10.0292 C   0  0  0  0  0  0  0  0  0  0  0  0
   24.9666  -20.9671  -12.1430 C   0  0  0  0  0  0  0  0  0  0  0  0
   23.6273  -21.1478  -12.8024 C   0  0  2  0  0  0  0  0  0  0  0  0
   23.7509  -20.7496  -14.1977 N   0  0  0  0  0  0  0  0  0  0  0  0
   22.5584  -20.3579  -12.1900 C   0  0  0  0  0  0  0  0  0  0  0  0
   22.3656  -19.1798  -12.5360 O   0  0  0  0  0  0  0  0  0  0  0  0
   21.7566  -20.9188  -11.2225 O   0  0  0  0  0  0  0  0  0  0  0  0
  2  1  1  6
  3  2  1  0
  4  6  1  0
  4  5  1  1
  4  2  1  0
  6 14  1  0
  7  6  2  0
  9 11  1  0
  9  8  1  0
 10  9  2  0
 12 11  1  0
 13 12  1  6
 14 13  1  0
 15 13  1  0
 16 15  2  0
 18 17  1  1
 18 19  1  0
 20 18  1  0
 21 20  1  1
 21 22  1  0
 21 23  1  0
 22 15  1  0
 23 25  1  0
 24 23  2  0
M  END
$$$$
