TQL.pdb
     RDKit          3D

 25 24  0  0  1  0  0  0  0  0999 V2000
   19.8423  -12.7599  -18.5258 C   0  0  0  0  0  0  0  0  0  0  0  0
   20.7699  -12.0375  -17.5479 C   0  0  1  0  0  0  0  0  0  0  0  0
   21.5923  -12.9187  -16.8929 O   0  0  0  0  0  0  0  0  0  0  0  0
   21.5759  -11.0552  -18.3766 C   0  0  2  0  0  0  0  0  0  0  0  0
   22.4410  -11.8590  -19.2252 N   0  0  0  0  0  0  0  0  0  0  0  0
   22.3744  -10.2038  -17.4901 C   0  0  0  0  0  0  0  0  0  0  0  0
   21.7882   -9.4796  -16.6418 O   0  0  0  0  0  0  0  0  0  0  0  0
   28.7725   -9.8957  -16.3751 N   0  0  0  0  0  0  0  0  0  0  0  0
   27.9744  -10.9765  -16.8036 C   0  0  0  0  0  0  0  0  0  0  0  0
   28.5286  -12.0707  -17.0600 O   0  0  0  0  0  0  0  0  0  0  0  0
   26.5254  -10.8454  -16.9474 C   0  0  0  0  0  0  0  0  0  0  0  0
   26.0184   -9.5023  -16.6059 C   0  0  0  0  0  0  0  0  0  0  0  0
   24.5539   -9.2701  -16.6242 C   0  0  2  0  0  0  0  0  0  0  0  0
   23.7968  -10.1175  -17.4995 N   0  0  0  0  0  0  0  0  0  0  0  0
   24.1799   -7.8446  -16.7569 C   0  0  0  0  0  0  0  0  0  0  0  0
   24.3724   -7.1912  -17.8090 O   0  0  0  0  0  0  0  0  0  0  0  0
   20.4244   -4.5635  -18.1651 C   0  0  0  0  0  0  0  0  0  0  0  0
   21.5312   -4.3709  -17.1177 C   0  0  2  0  0  0  0  0  0  0  0  0
   22.4828   -3.3559  -17.6610 C   0  0  0  0  0  0  0  0  0  0  0  0
   22.1312   -5.7134  -16.8928 C   0  0  0  0  0  0  0  0  0  0  0  0
   23.1195   -5.7964  -15.7625 C   0  0  2  0  0  0  0  0  0  0  0  0
   23.5790   -7.1746  -15.6616 N   0  0  0  0  0  0  0  0  0  0  0  0
   22.5668   -5.3982  -14.4672 C   0  0  0  0  0  0  0  0  0  0  0  0
   22.1931   -6.2559  -13.6490 O   0  0  0  0  0  0  0  0  0  0  0  0
   22.4577   -4.0644  -14.1468 O   0  0  0  0  0  0  0  0  0  0  0  0
  2  1  1  6
  3  2  1  0
  4  6  1  0
  4  5  1  6
  4  2  1  0
  6 14  1  0
  7  6  2  0
  9 11  1  0
  9  8  1  0
 10  9  2  0
 12 11  1  0
 13 12  1  6
 14 13  1  0
 15 13  1  0
 16 15  2  0
 18 17  1  6
 18 19  1  0
 20 18  1  0
 21 20  1  6
 21 22  1  0
 21 23  1  0
 22 15  1  0
 23 25  1  0
 24 23  2  0
M  END
$$$$
