TQL.pdb
     RDKit          3D

 25 24  0  0  1  0  0  0  0  0999 V2000
   19.2986  -14.5505  -15.4539 C   0  0  0  0  0  0  0  0  0  0  0  0
   19.6380  -15.1023  -16.8391 C   0  0  1  0  0  0  0  0  0  0  0  0
   19.3986  -16.4510  -16.9140 O   0  0  0  0  0  0  0  0  0  0  0  0
   18.7694  -14.3407  -17.8223 C   0  0  2  0  0  0  0  0  0  0  0  0
   19.1036  -14.8580  -19.1396 N   0  0  0  0  0  0  0  0  0  0  0  0
   19.0742  -12.9093  -17.7410 C   0  0  0  0  0  0  0  0  0  0  0  0
   20.1806  -12.4912  -18.1752 O   0  0  0  0  0  0  0  0  0  0  0  0
   16.1975   -7.8704  -18.8200 N   0  0  0  0  0  0  0  0  0  0  0  0
   17.0536   -7.3086  -17.8504 C   0  0  0  0  0  0  0  0  0  0  0  0
   17.2300   -6.0680  -17.8481 O   0  0  0  0  0  0  0  0  0  0  0  0
   17.7281   -8.1395  -16.8543 C   0  0  0  0  0  0  0  0  0  0  0  0
   17.4309   -9.5786  -16.9887 C   0  0  0  0  0  0  0  0  0  0  0  0
   18.5628  -10.5343  -17.0557 C   0  0  2  0  0  0  0  0  0  0  0  0
   18.2072  -11.9165  -17.1993 N   0  0  0  0  0  0  0  0  0  0  0  0
   19.5836  -10.3210  -16.0058 C   0  0  0  0  0  0  0  0  0  0  0  0
   19.5796  -10.9511  -14.9223 O   0  0  0  0  0  0  0  0  0  0  0  0
   25.1764  -10.7128  -15.5663 C   0  0  0  0  0  0  0  0  0  0  0  0
   24.0687   -9.9431  -14.8317 C   0  0  2  0  0  0  0  0  0  0  0  0
   23.9156  -10.5672  -13.4834 C   0  0  0  0  0  0  0  0  0  0  0  0
   22.8570  -10.0352  -15.6897 C   0  0  0  0  0  0  0  0  0  0  0  0
   21.6947   -9.1849  -15.2569 C   0  0  2  0  0  0  0  0  0  0  0  0
   20.6144   -9.3708  -16.2156 N   0  0  0  0  0  0  0  0  0  0  0  0
   22.0057   -7.7568  -15.1833 C   0  0  0  0  0  0  0  0  0  0  0  0
   21.7571   -7.0056  -16.1418 O   0  0  0  0  0  0  0  0  0  0  0  0
   22.5779   -7.2353  -14.0456 O   0  0  0  0  0  0  0  0  0  0  0  0
  2  1  1  1
  3  2  1  0
  4  6  1  0
  4  5  1  6
  4  2  1  0
  6 14  1  0
  7  6  2  0
  9 11  1  0
  9  8  1  0
 10  9  2  0
 12 11  1  0
 13 12  1  1
 14 13  1  0
 15 13  1  0
 16 15  2  0
 18 17  1  6
 18 19  1  0
 20 18  1  0
 21 20  1  6
 21 22  1  0
 21 23  1  0
 22 15  1  0
 23 25  1  0
 24 23  2  0
M  END
$$$$
