TQL.pdb
     RDKit          3D

 25 24  0  0  1  0  0  0  0  0999 V2000
   19.8761  -10.6639  -19.0333 C   0  0  0  0  0  0  0  0  0  0  0  0
   19.2671  -11.4832  -17.8948 C   0  0  1  0  0  0  0  0  0  0  0  0
   18.4498  -12.4759  -18.3729 O   0  0  0  0  0  0  0  0  0  0  0  0
   20.4348  -12.0661  -17.1214 C   0  0  2  0  0  0  0  0  0  0  0  0
   19.8570  -12.9728  -16.1423 N   0  0  0  0  0  0  0  0  0  0  0  0
   21.1679  -10.9879  -16.4520 C   0  0  0  0  0  0  0  0  0  0  0  0
   20.5451  -10.2045  -15.6865 O   0  0  0  0  0  0  0  0  0  0  0  0
   27.3914  -10.2089  -15.0874 N   0  0  0  0  0  0  0  0  0  0  0  0
   26.9435  -10.5444  -16.3818 C   0  0  0  0  0  0  0  0  0  0  0  0
   27.7748  -10.9752  -17.2146 O   0  0  0  0  0  0  0  0  0  0  0  0
   25.5391  -10.4050  -16.7637 C   0  0  0  0  0  0  0  0  0  0  0  0
   24.6894   -9.8503  -15.6923 C   0  0  0  0  0  0  0  0  0  0  0  0
   23.2471   -9.6414  -15.9661 C   0  0  2  0  0  0  0  0  0  0  0  0
   22.5637  -10.7366  -16.5914 N   0  0  0  0  0  0  0  0  0  0  0  0
   22.9469   -8.3456  -16.6146 C   0  0  0  0  0  0  0  0  0  0  0  0
   22.7946   -8.2298  -17.8532 O   0  0  0  0  0  0  0  0  0  0  0  0
   19.0913   -5.1420  -18.0283 C   0  0  0  0  0  0  0  0  0  0  0  0
   20.5436   -4.8104  -17.6543 C   0  0  2  0  0  0  0  0  0  0  0  0
   21.2220   -4.3314  -18.8958 C   0  0  0  0  0  0  0  0  0  0  0  0
   21.1222   -6.0560  -17.0827 C   0  0  0  0  0  0  0  0  0  0  0  0
   22.4495   -5.8935  -16.3950 C   0  0  2  0  0  0  0  0  0  0  0  0
   22.8230   -7.1782  -15.8199 N   0  0  0  0  0  0  0  0  0  0  0  0
   22.4398   -4.8945  -15.3256 C   0  0  0  0  0  0  0  0  0  0  0  0
   22.4106   -5.2451  -14.1335 O   0  0  0  0  0  0  0  0  0  0  0  0
   22.4632   -3.5542  -15.6364 O   0  0  0  0  0  0  0  0  0  0  0  0
  2  1  1  6
  3  2  1  0
  4  6  1  0
  4  5  1  1
  4  2  1  0
  6 14  1  0
  7  6  2  0
  9 11  1  0
  9  8  1  0
 10  9  2  0
 12 11  1  0
 13 12  1  6
 14 13  1  0
 15 13  1  0
 16 15  2  0
 18 17  1  6
 18 19  1  0
 20 18  1  0
 21 20  1  1
 21 22  1  0
 21 23  1  0
 22 15  1  0
 23 25  1  0
 24 23  2  0
M  END
$$$$
