TQL.pdb
     RDKit          3D

 25 24  0  0  1  0  0  0  0  0999 V2000
   44.2102   -7.3950   -4.5746 C   0  0  0  0  0  0  0  0  0  0  0  0
   44.1633   -7.9987   -3.1704 C   0  0  1  0  0  0  0  0  0  0  0  0
   43.8741   -7.0477   -2.2251 O   0  0  0  0  0  0  0  0  0  0  0  0
   43.0919   -9.0721   -3.2070 C   0  0  2  0  0  0  0  0  0  0  0  0
   43.0857   -9.6801   -1.8860 N   0  0  0  0  0  0  0  0  0  0  0  0
   43.4287  -10.0679   -4.2284 C   0  0  0  0  0  0  0  0  0  0  0  0
   44.2452  -10.9852   -3.9465 O   0  0  0  0  0  0  0  0  0  0  0  0
   40.3638  -11.4726   -9.6825 N   0  0  0  0  0  0  0  0  0  0  0  0
   41.5106  -12.2915   -9.7355 C   0  0  0  0  0  0  0  0  0  0  0  0
   41.6400  -13.0862  -10.6957 O   0  0  0  0  0  0  0  0  0  0  0  0
   42.5435  -12.2264   -8.7030 C   0  0  0  0  0  0  0  0  0  0  0  0
   42.2272  -11.2850   -7.6116 C   0  0  0  0  0  0  0  0  0  0  0  0
   43.2135  -11.1074   -6.5186 C   0  0  2  0  0  0  0  0  0  0  0  0
   42.9009  -10.0949   -5.5518 N   0  0  0  0  0  0  0  0  0  0  0  0
   44.6139  -11.0238   -6.9896 C   0  0  0  0  0  0  0  0  0  0  0  0
   45.1382   -9.9476   -7.3609 O   0  0  0  0  0  0  0  0  0  0  0  0
   49.4133  -12.5091   -7.8726 C   0  0  0  0  0  0  0  0  0  0  0  0
   49.0770  -12.6915   -6.3851 C   0  0  2  0  0  0  0  0  0  0  0  0
   49.8481  -13.8747   -5.8988 C   0  0  0  0  0  0  0  0  0  0  0  0
   47.5999  -12.8500   -6.3075 C   0  0  0  0  0  0  0  0  0  0  0  0
   46.8197  -12.1563   -7.3898 C   0  0  2  0  0  0  0  0  0  0  0  0
   45.4093  -12.1966   -7.0295 N   0  0  0  0  0  0  0  0  0  0  0  0
   46.9761  -12.7662   -8.7109 C   0  0  0  0  0  0  0  0  0  0  0  0
   46.2992  -13.7574   -9.0335 O   0  0  0  0  0  0  0  0  0  0  0  0
   47.8783  -12.2419   -9.6079 O   0  0  0  0  0  0  0  0  0  0  0  0
  2  1  1  6
  3  2  1  0
  4  6  1  0
  4  5  1  1
  4  2  1  0
  6 14  1  0
  7  6  2  0
  9 11  1  0
  9  8  1  0
 10  9  2  0
 12 11  1  0
 13 12  1  6
 14 13  1  0
 15 13  1  0
 16 15  2  0
 18 17  1  6
 18 19  1  0
 20 18  1  0
 21 20  1  1
 21 22  1  0
 21 23  1  0
 22 15  1  0
 23 25  1  0
 24 23  2  0
M  END
$$$$
