TQL.pdb
     RDKit          3D

 25 24  0  0  1  0  0  0  0  0999 V2000
   26.3643  -18.3585  -15.5547 C   0  0  0  0  0  0  0  0  0  0  0  0
   26.9884  -19.5457  -16.2891 C   0  0  1  0  0  0  0  0  0  0  0  0
   27.9952  -19.1426  -17.1292 O   0  0  0  0  0  0  0  0  0  0  0  0
   27.5174  -20.4771  -15.2148 C   0  0  2  0  0  0  0  0  0  0  0  0
   28.1283  -21.5949  -15.9161 N   0  0  0  0  0  0  0  0  0  0  0  0
   26.4078  -20.9417  -14.3775 C   0  0  0  0  0  0  0  0  0  0  0  0
   25.6379  -21.8363  -14.8186 O   0  0  0  0  0  0  0  0  0  0  0  0
   25.1801  -20.6226   -8.0732 N   0  0  0  0  0  0  0  0  0  0  0  0
   26.3730  -20.8481   -8.7906 C   0  0  0  0  0  0  0  0  0  0  0  0
   27.4426  -20.9882   -8.1530 O   0  0  0  0  0  0  0  0  0  0  0  0
   26.3828  -20.9259  -10.2505 C   0  0  0  0  0  0  0  0  0  0  0  0
   25.0479  -20.7635  -10.8581 C   0  0  0  0  0  0  0  0  0  0  0  0
   24.9295  -20.8110  -12.3355 C   0  0  2  0  0  0  0  0  0  0  0  0
   26.1107  -20.4599  -13.0696 N   0  0  0  0  0  0  0  0  0  0  0  0
   23.7203  -20.1359  -12.8568 C   0  0  0  0  0  0  0  0  0  0  0  0
   23.6803  -18.9042  -13.0855 O   0  0  0  0  0  0  0  0  0  0  0  0
   21.5460  -19.4957  -16.4424 C   0  0  0  0  0  0  0  0  0  0  0  0
   21.6282  -20.9596  -15.9848 C   0  0  2  0  0  0  0  0  0  0  0  0
   21.1406  -21.8047  -17.1158 C   0  0  0  0  0  0  0  0  0  0  0  0
   20.8058  -21.0575  -14.7491 C   0  0  0  0  0  0  0  0  0  0  0  0
   21.3164  -20.2741  -13.5715 C   0  0  2  0  0  0  0  0  0  0  0  0
   22.5513  -20.8955  -13.1139 N   0  0  0  0  0  0  0  0  0  0  0  0
   20.3807  -20.2244  -12.4474 C   0  0  0  0  0  0  0  0  0  0  0  0
   20.5619  -20.9330  -11.4425 O   0  0  0  0  0  0  0  0  0  0  0  0
   19.2892  -19.3878  -12.4976 O   0  0  0  0  0  0  0  0  0  0  0  0
  2  1  1  1
  3  2  1  0
  4  6  1  0
  4  5  1  6
  4  2  1  0
  6 14  1  0
  7  6  2  0
  9 11  1  0
  9  8  1  0
 10  9  2  0
 12 11  1  0
 13 12  1  1
 14 13  1  0
 15 13  1  0
 16 15  2  0
 18 17  1  6
 18 19  1  0
 20 18  1  0
 21 20  1  6
 21 22  1  0
 21 23  1  0
 22 15  1  0
 23 25  1  0
 24 23  2  0
M  END
$$$$
