TQL.pdb
     RDKit          3D

 25 24  0  0  1  0  0  0  0  0999 V2000
   20.9310  -18.8206  -11.6089 C   0  0  0  0  0  0  0  0  0  0  0  0
   19.8608  -19.7644  -12.1587 C   0  0  1  0  0  0  0  0  0  0  0  0
   18.6060  -19.3948  -11.7453 O   0  0  0  0  0  0  0  0  0  0  0  0
   19.9759  -19.7001  -13.6700 C   0  0  2  0  0  0  0  0  0  0  0  0
   18.8827  -20.5045  -14.1918 N   0  0  0  0  0  0  0  0  0  0  0  0
   21.2663  -20.2552  -14.0884 C   0  0  0  0  0  0  0  0  0  0  0  0
   21.4865  -21.4855  -13.9293 O   0  0  0  0  0  0  0  0  0  0  0  0
   25.0269  -20.5473  -18.9239 N   0  0  0  0  0  0  0  0  0  0  0  0
   23.6479  -20.2919  -18.7766 C   0  0  0  0  0  0  0  0  0  0  0  0
   22.9005  -20.4239  -19.7737 O   0  0  0  0  0  0  0  0  0  0  0  0
   23.0798  -19.8851  -17.4924 C   0  0  0  0  0  0  0  0  0  0  0  0
   24.0707  -19.8318  -16.4002 C   0  0  0  0  0  0  0  0  0  0  0  0
   23.6083  -20.0612  -15.0100 C   0  0  2  0  0  0  0  0  0  0  0  0
   22.3274  -19.5080  -14.6772 N   0  0  0  0  0  0  0  0  0  0  0  0
   24.6341  -19.7637  -13.9858 C   0  0  0  0  0  0  0  0  0  0  0  0
   24.7657  -18.6282  -13.4720 O   0  0  0  0  0  0  0  0  0  0  0  0
   26.0805  -19.4489   -9.8407 C   0  0  0  0  0  0  0  0  0  0  0  0
   25.3198  -20.6756  -10.3658 C   0  0  2  0  0  0  0  0  0  0  0  0
   24.9600  -21.5131   -9.1826 C   0  0  0  0  0  0  0  0  0  0  0  0
   26.2268  -21.3451  -11.3363 C   0  0  0  0  0  0  0  0  0  0  0  0
   26.5538  -20.5477  -12.5686 C   0  0  2  0  0  0  0  0  0  0  0  0
   25.5118  -20.7908  -13.5564 N   0  0  0  0  0  0  0  0  0  0  0  0
   27.8450  -20.8907  -13.1660 C   0  0  0  0  0  0  0  0  0  0  0  0
   28.9017  -20.6979  -12.5407 O   0  0  0  0  0  0  0  0  0  0  0  0
   27.8958  -21.4319  -14.4301 O   0  0  0  0  0  0  0  0  0  0  0  0
  2  1  1  1
  3  2  1  0
  4  6  1  0
  4  5  1  6
  4  2  1  0
  6 14  1  0
  7  6  2  0
  9 11  1  0
  9  8  1  0
 10  9  2  0
 12 11  1  0
 13 12  1  6
 14 13  1  0
 15 13  1  0
 16 15  2  0
 18 17  1  1
 18 19  1  0
 20 18  1  0
 21 20  1  1
 21 22  1  0
 21 23  1  0
 22 15  1  0
 23 25  1  0
 24 23  2  0
M  END
$$$$
