TQL.pdb
     RDKit          3D

 25 24  0  0  1  0  0  0  0  0999 V2000
   27.0522  -21.9860  -11.7728 C   0  0  0  0  0  0  0  0  0  0  0  0
   26.2927  -21.3200  -12.9209 C   0  0  1  0  0  0  0  0  0  0  0  0
   27.0977  -21.1403  -14.0171 O   0  0  0  0  0  0  0  0  0  0  0  0
   25.1285  -22.2366  -13.2460 C   0  0  2  0  0  0  0  0  0  0  0  0
   25.6916  -23.3575  -13.9815 N   0  0  0  0  0  0  0  0  0  0  0  0
   24.1538  -21.5186  -14.0724 C   0  0  0  0  0  0  0  0  0  0  0  0
   24.2324  -21.6019  -15.3271 O   0  0  0  0  0  0  0  0  0  0  0  0
   19.1002  -20.4392  -11.9719 N   0  0  0  0  0  0  0  0  0  0  0  0
   19.4822  -21.6257  -12.6312 C   0  0  0  0  0  0  0  0  0  0  0  0
   19.0670  -22.7219  -12.1883 O   0  0  0  0  0  0  0  0  0  0  0  0
   20.3414  -21.5992  -13.8138 C   0  0  0  0  0  0  0  0  0  0  0  0
   20.7518  -20.2393  -14.2136 C   0  0  0  0  0  0  0  0  0  0  0  0
   22.1958  -19.9600  -14.4026 C   0  0  2  0  0  0  0  0  0  0  0  0
   23.0924  -20.7103  -13.5715 N   0  0  0  0  0  0  0  0  0  0  0  0
   22.5239  -18.5173  -14.4268 C   0  0  0  0  0  0  0  0  0  0  0  0
   22.8385  -17.8790  -13.3951 O   0  0  0  0  0  0  0  0  0  0  0  0
   27.0782  -16.6031  -16.2118 C   0  0  0  0  0  0  0  0  0  0  0  0
   25.7182  -15.9168  -16.0158 C   0  0  2  0  0  0  0  0  0  0  0  0
   25.8779  -14.9257  -14.9099 C   0  0  0  0  0  0  0  0  0  0  0  0
   24.7410  -17.0012  -15.7292 C   0  0  0  0  0  0  0  0  0  0  0  0
   23.2940  -16.6223  -15.8843 C   0  0  2  0  0  0  0  0  0  0  0  0
   22.4862  -17.8123  -15.6561 N   0  0  0  0  0  0  0  0  0  0  0  0
   22.9643  -16.0871  -17.2059 C   0  0  0  0  0  0  0  0  0  0  0  0
   22.6742  -16.8508  -18.1425 O   0  0  0  0  0  0  0  0  0  0  0  0
   22.9736  -14.7277  -17.4193 O   0  0  0  0  0  0  0  0  0  0  0  0
  2  1  1  1
  3  2  1  0
  4  6  1  0
  4  5  1  6
  4  2  1  0
  6 14  1  0
  7  6  2  0
  9 11  1  0
  9  8  1  0
 10  9  2  0
 12 11  1  0
 13 12  1  1
 14 13  1  0
 15 13  1  0
 16 15  2  0
 18 17  1  1
 18 19  1  0
 20 18  1  0
 21 20  1  6
 21 22  1  0
 21 23  1  0
 22 15  1  0
 23 25  1  0
 24 23  2  0
M  END
$$$$
