TQL.pdb
     RDKit          3D

 25 24  0  0  1  0  0  0  0  0999 V2000
   24.0239   -9.6310  -17.6318 C   0  0  0  0  0  0  0  0  0  0  0  0
   23.3496  -10.4161  -18.7576 C   0  0  1  0  0  0  0  0  0  0  0  0
   24.2521  -11.1959  -19.4354 O   0  0  0  0  0  0  0  0  0  0  0  0
   22.2820  -11.2688  -18.0982 C   0  0  2  0  0  0  0  0  0  0  0  0
   21.7146  -12.0916  -19.1545 N   0  0  0  0  0  0  0  0  0  0  0  0
   21.2535  -10.4032  -17.5139 C   0  0  0  0  0  0  0  0  0  0  0  0
   20.6365   -9.5943  -18.2571 O   0  0  0  0  0  0  0  0  0  0  0  0
   16.0262   -9.8657  -14.9275 N   0  0  0  0  0  0  0  0  0  0  0  0
   16.6157  -11.0432  -15.4321 C   0  0  0  0  0  0  0  0  0  0  0  0
   15.8718  -11.9408  -15.8913 O   0  0  0  0  0  0  0  0  0  0  0  0
   18.0657  -11.2308  -15.4336 C   0  0  0  0  0  0  0  0  0  0  0  0
   18.8053  -10.1121  -14.8179 C   0  0  0  0  0  0  0  0  0  0  0  0
   19.9131   -9.4879  -15.5807 C   0  0  2  0  0  0  0  0  0  0  0  0
   20.8756  -10.3925  -16.1399 N   0  0  0  0  0  0  0  0  0  0  0  0
   20.5494   -8.3500  -14.8806 C   0  0  0  0  0  0  0  0  0  0  0  0
   21.5923   -8.4758  -14.1970 O   0  0  0  0  0  0  0  0  0  0  0  0
   23.0895   -4.4584  -14.0169 C   0  0  0  0  0  0  0  0  0  0  0  0
   22.8657   -4.7130  -15.5150 C   0  0  2  0  0  0  0  0  0  0  0  0
   22.2920   -3.4622  -16.0956 C   0  0  0  0  0  0  0  0  0  0  0  0
   21.9704   -5.8974  -15.6079 C   0  0  0  0  0  0  0  0  0  0  0  0
   20.7468   -5.8503  -14.7350 C   0  0  2  0  0  0  0  0  0  0  0  0
   19.9711   -7.0591  -14.9753 N   0  0  0  0  0  0  0  0  0  0  0  0
   19.8878   -4.6928  -14.9880 C   0  0  0  0  0  0  0  0  0  0  0  0
   19.1087   -4.6837  -15.9563 O   0  0  0  0  0  0  0  0  0  0  0  0
   19.9385   -3.6026  -14.1499 O   0  0  0  0  0  0  0  0  0  0  0  0
  2  1  1  1
  3  2  1  0
  4  6  1  0
  4  5  1  6
  4  2  1  0
  6 14  1  0
  7  6  2  0
  9 11  1  0
  9  8  1  0
 10  9  2  0
 12 11  1  0
 13 12  1  1
 14 13  1  0
 15 13  1  0
 16 15  2  0
 18 17  1  1
 18 19  1  0
 20 18  1  0
 21 20  1  6
 21 22  1  0
 21 23  1  0
 22 15  1  0
 23 25  1  0
 24 23  2  0
M  END
$$$$
