REM.pdb
     RDKit          3D

 29 28  0  0  1  0  0  0  0  0999 V2000
   22.1398  -30.1055  -18.6121 N   0  0  0  0  0  0  0  0  0  0  0  0
   23.2324  -30.5291  -17.8040 C   0  0  0  0  0  0  0  0  0  0  0  0
   23.8389  -31.6485  -17.9415 N   0  0  0  0  0  0  0  0  0  0  0  0
   23.6785  -29.6366  -16.7680 N   0  0  0  0  0  0  0  0  0  0  0  0
   23.1818  -28.2903  -16.6847 C   0  0  0  0  0  0  0  0  0  0  0  0
   21.7963  -28.2755  -16.1380 C   0  0  0  0  0  0  0  0  0  0  0  0
   21.6330  -27.6865  -14.7822 C   0  0  0  0  0  0  0  0  0  0  0  0
   21.7815  -26.1955  -14.7252 C   0  0  2  0  0  0  0  0  0  0  0  0
   23.1752  -25.7970  -14.7356 N   0  0  0  0  0  0  0  0  0  0  0  0
   21.1200  -25.5981  -13.5524 C   0  0  0  0  0  0  0  0  0  0  0  0
   21.7892  -25.2494  -12.5462 O   0  0  0  0  0  0  0  0  0  0  0  0
   24.5932  -31.9595  -17.3036 N   0  0  0  0  0  0  0  0  0  0  0  0
   19.7171  -25.3898  -13.5005 C   0  0  2  0  0  0  0  0  0  0  0  0
   19.0292  -24.6938  -12.4488 C   0  0  0  0  0  0  0  0  0  0  0  0
   18.1220  -23.6236  -12.9402 C   0  0  0  0  0  0  0  0  0  0  0  0
   17.3352  -22.8533  -11.9650 C   0  0  0  0  0  0  0  0  0  0  0  0
   16.5315  -21.7384  -12.4212 O   0  0  0  0  0  0  0  0  0  0  0  0
   16.8853  -20.8795  -13.2513 C   0  0  0  0  0  0  0  0  0  0  0  0
   18.5082  -25.5385  -11.3652 O   0  0  0  0  0  0  0  0  0  0  0  0
   17.8047  -26.5758  -11.6311 O   0  0  0  0  0  0  0  0  0  0  0  0
   15.2100  -21.5310  -11.9296 C   0  0  0  0  0  0  0  0  0  0  0  0
   17.6883  -26.7820   -3.5328 S   0  0  0  0  0  0  0  0  0  0  0  0
   18.3368  -25.6480   -4.8183 C   0  0  0  0  0  0  0  0  0  0  0  0
   17.7676  -26.2660   -6.4281 C   0  0  0  0  0  0  0  0  0  0  0  0
   18.3716  -25.4963   -7.5718 C   0  0  1  0  0  0  0  0  0  0  0  0
   18.1657  -26.1142   -8.9190 N   0  0  0  0  0  0  0  0  0  0  0  0
   18.7239  -25.2968   -9.9818 C   0  0  0  0  0  0  0  0  0  0  0  0
   16.7210  -26.2632   -9.1691 O   0  0  0  0  0  0  0  0  0  0  0  0
   16.1064  -27.4718   -8.8859 O   0  0  0  0  0  0  0  0  0  0  0  0
  2  3  2  0
  2  1  1  0
  4  2  1  0
  5  4  1  0
  6  5  1  0
  7  8  1  0
  7  6  1  0
  8  9  1  1
 10  8  1  0
 10 12  1  0
 11 10  2  0
 13 12  1  0
 13 18  1  0
 13 14  1  1
 15 14  1  0
 15 16  1  0
 16 17  2  0
 18 26  1  0
 19 18  2  0
 20 16  1  0
 21 22  1  0
 22 23  1  0
 23 24  1  0
 25 24  1  1
 25 27  1  0
 26 25  1  0
 27 29  2  0
 27 28  1  0
M  END
$$$$
