REM.pdb
     RDKit          3D

 29 28  0  0  1  0  0  0  0  0999 V2000
   30.8894  -23.5466  -18.4413 N   0  0  0  0  0  0  0  0  0  0  0  0
   30.3579  -23.1732  -19.7079 C   0  0  0  0  0  0  0  0  0  0  0  0
   30.3964  -23.9134  -20.7521 N   0  0  0  0  0  0  0  0  0  0  0  0
   29.7391  -21.8790  -19.8140 N   0  0  0  0  0  0  0  0  0  0  0  0
   29.6978  -20.9828  -18.6910 C   0  0  0  0  0  0  0  0  0  0  0  0
   28.7656  -21.4927  -17.6472 C   0  0  0  0  0  0  0  0  0  0  0  0
   27.8226  -20.4987  -17.0686 C   0  0  0  0  0  0  0  0  0  0  0  0
   26.5619  -20.2996  -17.8557 C   0  0  2  0  0  0  0  0  0  0  0  0
   26.8080  -19.5655  -19.0812 N   0  0  0  0  0  0  0  0  0  0  0  0
   25.5092  -19.6129  -17.0876 C   0  0  0  0  0  0  0  0  0  0  0  0
   25.4830  -18.3575  -17.0147 O   0  0  0  0  0  0  0  0  0  0  0  0
   29.9830  -23.6274  -21.6576 N   0  0  0  0  0  0  0  0  0  0  0  0
   24.4886  -20.3223  -16.4026 C   0  0  2  0  0  0  0  0  0  0  0  0
   23.6122  -19.7521  -15.4176 C   0  0  0  0  0  0  0  0  0  0  0  0
   22.3183  -19.2800  -15.9769 C   0  0  0  0  0  0  0  0  0  0  0  0
   21.8370  -19.8551  -17.2422 C   0  0  0  0  0  0  0  0  0  0  0  0
   20.5806  -19.3982  -17.7988 O   0  0  0  0  0  0  0  0  0  0  0  0
   19.4731  -19.4493  -17.2307 C   0  0  0  0  0  0  0  0  0  0  0  0
   23.5414  -20.4731  -14.1392 O   0  0  0  0  0  0  0  0  0  0  0  0
   23.3174  -21.7345  -14.1163 O   0  0  0  0  0  0  0  0  0  0  0  0
   20.5150  -18.8276  -19.1031 C   0  0  0  0  0  0  0  0  0  0  0  0
   25.5839  -20.7599   -6.4867 S   0  0  0  0  0  0  0  0  0  0  0  0
   25.8343  -19.9839   -8.1280 C   0  0  0  0  0  0  0  0  0  0  0  0
   24.5534  -20.6333   -9.2393 C   0  0  0  0  0  0  0  0  0  0  0  0
   24.6712  -20.0635  -10.6274 C   0  0  1  0  0  0  0  0  0  0  0  0
   23.6783  -20.6003  -11.6098 N   0  0  0  0  0  0  0  0  0  0  0  0
   23.7061  -19.8685  -12.8640 C   0  0  0  0  0  0  0  0  0  0  0  0
   22.3228  -20.4829  -11.0433 O   0  0  0  0  0  0  0  0  0  0  0  0
   21.4856  -19.4761  -11.4950 O   0  0  0  0  0  0  0  0  0  0  0  0
  2  3  2  0
  2  1  1  0
  4  2  1  0
  5  4  1  0
  6  5  1  0
  7  8  1  0
  7  6  1  0
  8  9  1  6
 10  8  1  0
 10 12  1  0
 11 10  2  0
 13 12  1  0
 13 18  1  0
 13 14  1  6
 15 14  1  0
 15 16  1  0
 16 17  2  0
 18 26  1  0
 19 18  2  0
 20 16  1  0
 21 22  1  0
 22 23  1  0
 23 24  1  0
 25 24  1  6
 25 27  1  0
 26 25  1  0
 27 29  2  0
 27 28  1  0
M  END
$$$$
