REM.pdb
     RDKit          3D

 29 28  0  0  1  0  0  0  0  0999 V2000
   10.5898  -13.5535  -13.1711 N   0  0  0  0  0  0  0  0  0  0  0  0
   11.1071  -13.7158  -11.8550 C   0  0  0  0  0  0  0  0  0  0  0  0
   10.3932  -13.6933  -10.7922 N   0  0  0  0  0  0  0  0  0  0  0  0
   12.5247  -13.9177  -11.7180 N   0  0  0  0  0  0  0  0  0  0  0  0
   13.4117  -13.7276  -12.8328 C   0  0  0  0  0  0  0  0  0  0  0  0
   13.4061  -12.3038  -13.2706 C   0  0  0  0  0  0  0  0  0  0  0  0
   14.3082  -11.3856  -12.5256 C   0  0  0  0  0  0  0  0  0  0  0  0
   15.6104  -11.0953  -13.2101 C   0  0  2  0  0  0  0  0  0  0  0  0
   16.3559  -12.3096  -13.4764 N   0  0  0  0  0  0  0  0  0  0  0  0
   16.4628  -10.1654  -12.4495 C   0  0  0  0  0  0  0  0  0  0  0  0
   17.6889  -10.3994  -12.2944 O   0  0  0  0  0  0  0  0  0  0  0  0
   10.7960  -13.7974   -9.8438 N   0  0  0  0  0  0  0  0  0  0  0  0
   15.9512   -8.9786  -11.8633 C   0  0  2  0  0  0  0  0  0  0  0  0
   16.7473   -7.8516  -11.4637 C   0  0  0  0  0  0  0  0  0  0  0  0
   17.7915   -7.4816  -12.4551 C   0  0  0  0  0  0  0  0  0  0  0  0
   18.6760   -6.3424  -12.1666 C   0  0  0  0  0  0  0  0  0  0  0  0
   19.7352   -6.0108  -13.0968 O   0  0  0  0  0  0  0  0  0  0  0  0
   19.6652   -5.1598  -14.0039 C   0  0  0  0  0  0  0  0  0  0  0  0
   16.0078   -6.7374  -10.8548 O   0  0  0  0  0  0  0  0  0  0  0  0
   15.2407   -5.9998  -11.5683 O   0  0  0  0  0  0  0  0  0  0  0  0
   20.9993   -6.6663  -13.0404 C   0  0  0  0  0  0  0  0  0  0  0  0
   12.5360   -4.8173   -3.9925 S   0  0  0  0  0  0  0  0  0  0  0  0
   13.8085   -5.8306   -4.8369 C   0  0  0  0  0  0  0  0  0  0  0  0
   13.9035   -5.2624   -6.5590 C   0  0  0  0  0  0  0  0  0  0  0  0
   14.9659   -5.9935   -7.3349 C   0  0  2  0  0  0  0  0  0  0  0  0
   15.0373   -5.6364   -8.7863 N   0  0  0  0  0  0  0  0  0  0  0  0
   16.0699   -6.3865   -9.4793 C   0  0  0  0  0  0  0  0  0  0  0  0
   15.3490   -4.2021   -8.9185 O   0  0  0  0  0  0  0  0  0  0  0  0
   14.3346   -3.2721   -8.7621 O   0  0  0  0  0  0  0  0  0  0  0  0
  2  3  2  0
  2  1  1  0
  4  2  1  0
  5  4  1  0
  6  5  1  0
  7  8  1  0
  7  6  1  0
  8  9  1  1
 10  8  1  0
 10 12  1  0
 11 10  2  0
 13 12  1  0
 13 18  1  0
 13 14  1  6
 15 14  1  0
 15 16  1  0
 16 17  2  0
 18 26  1  0
 19 18  2  0
 20 16  1  0
 21 22  1  0
 22 23  1  0
 23 24  1  0
 25 24  1  6
 25 27  1  0
 26 25  1  0
 27 29  2  0
 27 28  1  0
M  END
$$$$
