REM.pdb
     RDKit          3D

 29 28  0  0  1  0  0  0  0  0999 V2000
   28.5720  -27.4418  -16.6675 N   0  0  0  0  0  0  0  0  0  0  0  0
   28.9167  -26.5155  -17.6919 C   0  0  0  0  0  0  0  0  0  0  0  0
   29.7211  -26.7723  -18.6546 N   0  0  0  0  0  0  0  0  0  0  0  0
   28.3189  -25.2085  -17.6353 N   0  0  0  0  0  0  0  0  0  0  0  0
   27.3446  -24.8819  -16.6303 C   0  0  0  0  0  0  0  0  0  0  0  0
   26.9201  -23.4594  -16.7541 C   0  0  0  0  0  0  0  0  0  0  0  0
   25.9549  -22.9724  -15.7328 C   0  0  0  0  0  0  0  0  0  0  0  0
   24.5490  -23.4601  -15.9171 C   0  0  2  0  0  0  0  0  0  0  0  0
   24.0045  -23.0489  -17.1961 N   0  0  0  0  0  0  0  0  0  0  0  0
   23.6429  -23.0156  -14.8442 C   0  0  0  0  0  0  0  0  0  0  0  0
   23.9127  -23.2493  -13.6381 O   0  0  0  0  0  0  0  0  0  0  0  0
   29.9289  -26.0927  -19.4080 N   0  0  0  0  0  0  0  0  0  0  0  0
   22.4397  -22.3130  -15.1137 C   0  0  1  0  0  0  0  0  0  0  0  0
   21.5055  -21.8723  -14.1154 C   0  0  0  0  0  0  0  0  0  0  0  0
   21.1342  -20.4384  -14.2421 C   0  0  0  0  0  0  0  0  0  0  0  0
   20.1198  -19.8821  -13.3339 C   0  0  0  0  0  0  0  0  0  0  0  0
   19.7565  -18.4846  -13.4436 O   0  0  0  0  0  0  0  0  0  0  0  0
   20.0761  -17.7220  -14.3753 C   0  0  0  0  0  0  0  0  0  0  0  0
   20.4070  -22.8027  -13.8208 O   0  0  0  0  0  0  0  0  0  0  0  0
   19.6205  -23.1953  -14.7530 O   0  0  0  0  0  0  0  0  0  0  0  0
   18.9669  -17.8464  -12.4435 C   0  0  0  0  0  0  0  0  0  0  0  0
   18.5983  -25.4448   -7.6830 S   0  0  0  0  0  0  0  0  0  0  0  0
   18.4469  -26.7262   -8.9847 C   0  0  0  0  0  0  0  0  0  0  0  0
   18.1082  -25.8739  -10.5520 C   0  0  0  0  0  0  0  0  0  0  0  0
   19.2743  -25.0340  -10.9992 C   0  0  1  0  0  0  0  0  0  0  0  0
   19.0397  -24.2577  -12.2567 N   0  0  0  0  0  0  0  0  0  0  0  0
   20.1239  -23.3317  -12.5327 C   0  0  0  0  0  0  0  0  0  0  0  0
   17.7970  -23.4773  -12.1207 O   0  0  0  0  0  0  0  0  0  0  0  0
   16.6153  -23.9931  -12.6270 O   0  0  0  0  0  0  0  0  0  0  0  0
  2  3  2  0
  2  1  1  0
  4  2  1  0
  5  4  1  0
  6  5  1  0
  7  8  1  0
  7  6  1  0
  8  9  1  6
 10  8  1  0
 10 12  1  0
 11 10  2  0
 13 12  1  0
 13 18  1  0
 13 14  1  1
 15 14  1  0
 15 16  1  0
 16 17  2  0
 18 26  1  0
 19 18  2  0
 20 16  1  0
 21 22  1  0
 22 23  1  0
 23 24  1  0
 25 24  1  6
 25 27  1  0
 26 25  1  0
 27 29  2  0
 27 28  1  0
M  END
$$$$
