REM.pdb
     RDKit          3D

 29 28  0  0  1  0  0  0  0  0999 V2000
   23.5085  -20.6379  -10.1369 N   0  0  0  0  0  0  0  0  0  0  0  0
   24.4151  -20.9375   -9.0812 C   0  0  0  0  0  0  0  0  0  0  0  0
   24.0684  -21.4325   -7.9523 N   0  0  0  0  0  0  0  0  0  0  0  0
   25.8095  -20.6636   -9.3044 N   0  0  0  0  0  0  0  0  0  0  0  0
   26.2649  -20.1002  -10.5458 C   0  0  0  0  0  0  0  0  0  0  0  0
   27.2565  -21.0003  -11.1977 C   0  0  0  0  0  0  0  0  0  0  0  0
   26.9098  -21.4780  -12.5628 C   0  0  0  0  0  0  0  0  0  0  0  0
   26.9155  -20.4136  -13.6189 C   0  0  2  0  0  0  0  0  0  0  0  0
   27.1826  -19.1047  -13.0563 N   0  0  0  0  0  0  0  0  0  0  0  0
   25.6584  -20.3596  -14.3850 C   0  0  0  0  0  0  0  0  0  0  0  0
   25.3865  -21.2453  -15.2357 O   0  0  0  0  0  0  0  0  0  0  0  0
   24.7333  -21.5623   -7.1690 N   0  0  0  0  0  0  0  0  0  0  0  0
   24.7071  -19.3222  -14.2041 C   0  0  2  0  0  0  0  0  0  0  0  0
   23.4958  -19.1781  -14.9628 C   0  0  0  0  0  0  0  0  0  0  0  0
   22.2801  -19.6170  -14.2284 C   0  0  0  0  0  0  0  0  0  0  0  0
   22.1344  -21.0375  -13.8763 C   0  0  0  0  0  0  0  0  0  0  0  0
   20.8565  -21.6909  -14.0694 O   0  0  0  0  0  0  0  0  0  0  0  0
   19.8127  -21.1410  -14.4693 C   0  0  0  0  0  0  0  0  0  0  0  0
   23.3742  -17.9318  -15.7317 O   0  0  0  0  0  0  0  0  0  0  0  0
   23.5519  -16.7976  -15.1628 O   0  0  0  0  0  0  0  0  0  0  0  0
   20.6904  -23.0810  -13.8030 C   0  0  0  0  0  0  0  0  0  0  0  0
   25.3356  -17.1657  -21.6341 S   0  0  0  0  0  0  0  0  0  0  0  0
   24.0917  -15.8275  -21.7787 C   0  0  0  0  0  0  0  0  0  0  0  0
   23.3804  -15.5638  -20.1288 C   0  0  0  0  0  0  0  0  0  0  0  0
   23.4263  -16.8126  -19.2901 C   0  0  2  0  0  0  0  0  0  0  0  0
   22.9814  -16.6307  -17.8730 N   0  0  0  0  0  0  0  0  0  0  0  0
   23.0615  -17.8676  -17.1162 C   0  0  0  0  0  0  0  0  0  0  0  0
   21.5792  -16.1774  -17.8589 O   0  0  0  0  0  0  0  0  0  0  0  0
   21.3043  -14.8246  -17.9727 O   0  0  0  0  0  0  0  0  0  0  0  0
  2  3  2  0
  2  1  1  0
  4  2  1  0
  5  4  1  0
  6  5  1  0
  7  8  1  0
  7  6  1  0
  8  9  1  1
 10  8  1  0
 10 12  1  0
 11 10  2  0
 13 12  1  0
 13 18  1  0
 13 14  1  6
 15 14  1  0
 15 16  1  0
 16 17  2  0
 18 26  1  0
 19 18  2  0
 20 16  1  0
 21 22  1  0
 22 23  1  0
 23 24  1  0
 25 24  1  1
 25 27  1  0
 26 25  1  0
 27 29  2  0
 27 28  1  0
M  END
$$$$
