REM.pdb
     RDKit          3D

 29 28  0  0  1  0  0  0  0  0999 V2000
   22.4752  -17.4506  -15.5809 N   0  0  0  0  0  0  0  0  0  0  0  0
   21.5470  -16.8019  -16.4434 C   0  0  0  0  0  0  0  0  0  0  0  0
   21.3009  -15.5454  -16.4228 N   0  0  0  0  0  0  0  0  0  0  0  0
   20.8437  -17.6172  -17.3972 N   0  0  0  0  0  0  0  0  0  0  0  0
   21.0834  -19.0318  -17.4827 C   0  0  0  0  0  0  0  0  0  0  0  0
   20.1155  -19.7800  -16.6329 C   0  0  0  0  0  0  0  0  0  0  0  0
   20.6983  -20.7901  -15.7098 C   0  0  0  0  0  0  0  0  0  0  0  0
   21.8542  -21.5608  -16.2740 C   0  0  2  0  0  0  0  0  0  0  0  0
   21.4369  -22.8519  -16.7841 N   0  0  0  0  0  0  0  0  0  0  0  0
   22.9417  -21.7578  -15.3002 C   0  0  0  0  0  0  0  0  0  0  0  0
   22.8418  -22.6229  -14.3927 O   0  0  0  0  0  0  0  0  0  0  0  0
   20.6061  -15.0998  -17.0483 N   0  0  0  0  0  0  0  0  0  0  0  0
   24.1368  -20.9934  -15.3369 C   0  0  2  0  0  0  0  0  0  0  0  0
   25.2318  -21.1377  -14.4184 C   0  0  0  0  0  0  0  0  0  0  0  0
   26.5519  -21.2811  -15.0867 C   0  0  0  0  0  0  0  0  0  0  0  0
   26.6934  -22.2504  -16.1839 C   0  0  0  0  0  0  0  0  0  0  0  0
   27.9362  -22.3098  -16.9247 O   0  0  0  0  0  0  0  0  0  0  0  0
   28.9279  -21.5790  -16.7394 C   0  0  0  0  0  0  0  0  0  0  0  0
   25.1927  -20.2573  -13.2425 O   0  0  0  0  0  0  0  0  0  0  0  0
   24.3672  -19.2787  -13.1909 O   0  0  0  0  0  0  0  0  0  0  0  0
   28.1263  -23.2563  -17.9730 C   0  0  0  0  0  0  0  0  0  0  0  0
   20.7735  -20.6611   -9.5797 S   0  0  0  0  0  0  0  0  0  0  0  0
   22.4556  -19.9359   -9.5204 C   0  0  0  0  0  0  0  0  0  0  0  0
   23.6327  -21.3044   -9.3224 C   0  0  0  0  0  0  0  0  0  0  0  0
   24.4931  -21.4876  -10.5436 C   0  0  2  0  0  0  0  0  0  0  0  0
   25.5377  -20.4336  -10.7360 N   0  0  0  0  0  0  0  0  0  0  0  0
   26.0287  -20.3996  -12.1025 C   0  0  0  0  0  0  0  0  0  0  0  0
   26.6799  -20.7142   -9.8480 O   0  0  0  0  0  0  0  0  0  0  0  0
   26.9325  -19.8664   -8.7822 O   0  0  0  0  0  0  0  0  0  0  0  0
  2  3  2  0
  2  1  1  0
  4  2  1  0
  5  4  1  0
  6  5  1  0
  7  8  1  0
  7  6  1  0
  8  9  1  1
 10  8  1  0
 10 12  1  0
 11 10  2  0
 13 12  1  0
 13 18  1  0
 13 14  1  6
 15 14  1  0
 15 16  1  0
 16 17  2  0
 18 26  1  0
 19 18  2  0
 20 16  1  0
 21 22  1  0
 22 23  1  0
 23 24  1  0
 25 24  1  6
 25 27  1  0
 26 25  1  0
 27 29  2  0
 27 28  1  0
M  END
$$$$
