REM.pdb
     RDKit          3D

 29 28  0  0  1  0  0  0  0  0999 V2000
   16.9853  -24.5787   -7.9203 N   0  0  0  0  0  0  0  0  0  0  0  0
   18.1395  -24.8612   -7.1365 C   0  0  0  0  0  0  0  0  0  0  0  0
   18.2530  -25.8728   -6.3596 N   0  0  0  0  0  0  0  0  0  0  0  0
   19.2459  -23.9466   -7.2284 N   0  0  0  0  0  0  0  0  0  0  0  0
   19.1968  -22.8096   -8.1063 C   0  0  0  0  0  0  0  0  0  0  0  0
   19.3085  -23.2397   -9.5281 C   0  0  0  0  0  0  0  0  0  0  0  0
   19.3173  -22.1524  -10.5428 C   0  0  0  0  0  0  0  0  0  0  0  0
   20.3313  -21.0753  -10.2976 C   0  0  2  0  0  0  0  0  0  0  0  0
   19.7772  -19.9887   -9.5144 N   0  0  0  0  0  0  0  0  0  0  0  0
   20.8997  -20.5292  -11.5421 C   0  0  0  0  0  0  0  0  0  0  0  0
   20.5366  -19.4053  -11.9745 O   0  0  0  0  0  0  0  0  0  0  0  0
   19.0890  -26.0364   -5.7706 N   0  0  0  0  0  0  0  0  0  0  0  0
   21.8694  -21.2329  -12.3026 C   0  0  2  0  0  0  0  0  0  0  0  0
   22.4618  -20.7547  -13.5208 C   0  0  0  0  0  0  0  0  0  0  0  0
   23.7875  -21.3605  -13.8135 C   0  0  0  0  0  0  0  0  0  0  0  0
   24.4902  -20.9752  -15.0468 C   0  0  0  0  0  0  0  0  0  0  0  0
   25.8227  -21.4849  -15.2952 O   0  0  0  0  0  0  0  0  0  0  0  0
   26.1511  -22.2306  -16.2375 C   0  0  0  0  0  0  0  0  0  0  0  0
   21.5448  -20.6197  -14.6610 O   0  0  0  0  0  0  0  0  0  0  0  0
   20.9932  -21.6547  -15.1771 O   0  0  0  0  0  0  0  0  0  0  0  0
   26.9113  -21.1545  -14.4370 C   0  0  0  0  0  0  0  0  0  0  0  0
   17.6495  -15.7994  -19.7008 S   0  0  0  0  0  0  0  0  0  0  0  0
   18.8340  -15.8918  -18.3053 C   0  0  0  0  0  0  0  0  0  0  0  0
   19.1086  -17.6489  -17.9386 C   0  0  0  0  0  0  0  0  0  0  0  0
   20.0227  -17.8412  -16.7585 C   0  0  2  0  0  0  0  0  0  0  0  0
   20.3189  -19.2691  -16.4233 N   0  0  0  0  0  0  0  0  0  0  0  0
   21.1982  -19.3853  -15.2733 C   0  0  0  0  0  0  0  0  0  0  0  0
   20.9836  -19.9097  -17.5721 O   0  0  0  0  0  0  0  0  0  0  0  0
   20.2176  -20.5928  -18.5023 O   0  0  0  0  0  0  0  0  0  0  0  0
  2  3  2  0
  2  1  1  0
  4  2  1  0
  5  4  1  0
  6  5  1  0
  7  8  1  0
  7  6  1  0
  8  9  1  6
 10  8  1  0
 10 12  1  0
 11 10  2  0
 13 12  1  0
 13 18  1  0
 13 14  1  1
 15 14  1  0
 15 16  1  0
 16 17  2  0
 18 26  1  0
 19 18  2  0
 20 16  1  0
 21 22  1  0
 22 23  1  0
 23 24  1  0
 25 24  1  1
 25 27  1  0
 26 25  1  0
 27 29  2  0
 27 28  1  0
M  END
$$$$
