REM.pdb
     RDKit          3D

 29 28  0  0  1  0  0  0  0  0999 V2000
   25.7015  -22.8910  -16.0145 N   0  0  0  0  0  0  0  0  0  0  0  0
   26.9416  -22.2719  -16.3387 C   0  0  0  0  0  0  0  0  0  0  0  0
   28.0083  -22.9114  -16.6434 N   0  0  0  0  0  0  0  0  0  0  0  0
   26.9919  -20.8345  -16.3207 N   0  0  0  0  0  0  0  0  0  0  0  0
   25.7939  -20.0525  -16.1829 C   0  0  0  0  0  0  0  0  0  0  0  0
   25.2323  -19.7134  -17.5202 C   0  0  0  0  0  0  0  0  0  0  0  0
   23.8024  -19.3050  -17.5461 C   0  0  0  0  0  0  0  0  0  0  0  0
   23.4785  -18.1057  -16.7064 C   0  0  2  0  0  0  0  0  0  0  0  0
   24.4450  -17.0426  -16.8986 N   0  0  0  0  0  0  0  0  0  0  0  0
   23.3886  -18.4191  -15.2699 C   0  0  0  0  0  0  0  0  0  0  0  0
   23.7921  -17.5977  -14.4072 O   0  0  0  0  0  0  0  0  0  0  0  0
   28.9229  -22.4445  -16.7778 N   0  0  0  0  0  0  0  0  0  0  0  0
   22.8510  -19.6440  -14.7958 C   0  0  2  0  0  0  0  0  0  0  0  0
   22.5763  -19.9406  -13.4173 C   0  0  0  0  0  0  0  0  0  0  0  0
   21.2559  -20.5886  -13.2017 C   0  0  0  0  0  0  0  0  0  0  0  0
   20.8661  -20.9744  -11.8369 C   0  0  0  0  0  0  0  0  0  0  0  0
   19.5984  -21.6400  -11.6205 O   0  0  0  0  0  0  0  0  0  0  0  0
   19.4457  -22.8549  -11.3914 C   0  0  0  0  0  0  0  0  0  0  0  0
   23.7023  -20.4928  -12.6515 O   0  0  0  0  0  0  0  0  0  0  0  0
   23.7586  -21.7462  -12.3916 O   0  0  0  0  0  0  0  0  0  0  0  0
   18.3701  -20.9182  -11.6554 C   0  0  0  0  0  0  0  0  0  0  0  0
   26.2818  -18.7673   -6.8118 S   0  0  0  0  0  0  0  0  0  0  0  0
   25.7320  -20.4883   -7.1199 C   0  0  0  0  0  0  0  0  0  0  0  0
   26.2018  -20.9144   -8.8214 C   0  0  0  0  0  0  0  0  0  0  0  0
   25.2355  -20.3528   -9.8294 C   0  0  1  0  0  0  0  0  0  0  0  0
   25.7791  -20.2354  -11.2186 N   0  0  0  0  0  0  0  0  0  0  0  0
   24.7867  -19.7251  -12.1481 C   0  0  0  0  0  0  0  0  0  0  0  0
   26.2019  -21.5667  -11.6885 O   0  0  0  0  0  0  0  0  0  0  0  0
   25.2491  -22.5570  -11.8622 O   0  0  0  0  0  0  0  0  0  0  0  0
  2  3  2  0
  2  1  1  0
  4  2  1  0
  5  4  1  0
  6  5  1  0
  7  8  1  0
  7  6  1  0
  8  9  1  1
 10  8  1  0
 10 12  1  0
 11 10  2  0
 13 12  1  0
 13 18  1  0
 13 14  1  6
 15 14  1  0
 15 16  1  0
 16 17  2  0
 18 26  1  0
 19 18  2  0
 20 16  1  0
 21 22  1  0
 22 23  1  0
 23 24  1  0
 25 24  1  1
 25 27  1  0
 26 25  1  0
 27 29  2  0
 27 28  1  0
M  END
$$$$
