REM.pdb
     RDKit          3D

 29 28  0  0  1  0  0  0  0  0999 V2000
   24.6009  -16.4793  -21.3607 N   0  0  0  0  0  0  0  0  0  0  0  0
   25.6362  -17.2663  -21.9395 C   0  0  0  0  0  0  0  0  0  0  0  0
   25.4616  -18.0892  -22.9049 N   0  0  0  0  0  0  0  0  0  0  0  0
   26.9616  -17.1223  -21.3997 N   0  0  0  0  0  0  0  0  0  0  0  0
   27.2547  -16.1211  -20.4109 C   0  0  0  0  0  0  0  0  0  0  0  0
   27.0524  -14.7558  -20.9712 C   0  0  0  0  0  0  0  0  0  0  0  0
   27.4345  -13.6218  -20.0880 C   0  0  0  0  0  0  0  0  0  0  0  0
   27.2196  -12.2632  -20.6850 C   0  0  2  0  0  0  0  0  0  0  0  0
   28.2822  -11.9104  -21.6056 N   0  0  0  0  0  0  0  0  0  0  0  0
   27.0931  -11.2042  -19.6690 C   0  0  0  0  0  0  0  0  0  0  0  0
   26.2255  -11.2852  -18.7619 O   0  0  0  0  0  0  0  0  0  0  0  0
   26.2293  -18.6615  -23.2996 N   0  0  0  0  0  0  0  0  0  0  0  0
   27.9304  -10.0584  -19.6633 C   0  0  1  0  0  0  0  0  0  0  0  0
   27.9091   -9.0315  -18.6590 C   0  0  0  0  0  0  0  0  0  0  0  0
   29.2366   -8.4057  -18.4222 C   0  0  0  0  0  0  0  0  0  0  0  0
   30.3318   -9.2352  -17.8971 C   0  0  0  0  0  0  0  0  0  0  0  0
   31.6419   -8.6475  -17.7086 O   0  0  0  0  0  0  0  0  0  0  0  0
   31.9588   -7.4752  -17.9859 C   0  0  0  0  0  0  0  0  0  0  0  0
   26.7612   -8.1158  -18.7132 O   0  0  0  0  0  0  0  0  0  0  0  0
   26.4862   -7.4819  -19.7922 O   0  0  0  0  0  0  0  0  0  0  0  0
   32.7194   -9.4050  -17.1644 C   0  0  0  0  0  0  0  0  0  0  0  0
   19.5064   -6.1241  -16.4730 S   0  0  0  0  0  0  0  0  0  0  0  0
   20.8995   -7.2992  -16.2790 C   0  0  0  0  0  0  0  0  0  0  0  0
   22.3622   -6.5417  -17.0433 C   0  0  0  0  0  0  0  0  0  0  0  0
   23.5457   -7.4715  -17.0364 C   0  0  1  0  0  0  0  0  0  0  0  0
   24.7789   -6.9186  -17.6789 N   0  0  0  0  0  0  0  0  0  0  0  0
   25.8863   -7.8566  -17.6241 C   0  0  0  0  0  0  0  0  0  0  0  0
   25.1856   -5.6910  -16.9723 O   0  0  0  0  0  0  0  0  0  0  0  0
   24.5471   -4.4976  -17.2669 O   0  0  0  0  0  0  0  0  0  0  0  0
  2  3  2  0
  2  1  1  0
  4  2  1  0
  5  4  1  0
  6  5  1  0
  7  8  1  0
  7  6  1  0
  8  9  1  6
 10  8  1  0
 10 12  1  0
 11 10  2  0
 13 12  1  0
 13 18  1  0
 13 14  1  1
 15 14  1  0
 15 16  1  0
 16 17  2  0
 18 26  1  0
 19 18  2  0
 20 16  1  0
 21 22  1  0
 22 23  1  0
 23 24  1  0
 25 24  1  6
 25 27  1  0
 26 25  1  0
 27 29  2  0
 27 28  1  0
M  END
$$$$
