REM.pdb
     RDKit          3D

 29 28  0  0  1  0  0  0  0  0999 V2000
   17.3194  -21.8277  -14.0980 N   0  0  0  0  0  0  0  0  0  0  0  0
   17.6563  -22.2735  -12.7888 C   0  0  0  0  0  0  0  0  0  0  0  0
   17.0095  -23.1716  -12.1447 N   0  0  0  0  0  0  0  0  0  0  0  0
   18.7986  -21.6717  -12.1548 N   0  0  0  0  0  0  0  0  0  0  0  0
   19.4022  -20.4820  -12.6899 C   0  0  0  0  0  0  0  0  0  0  0  0
   20.7671  -20.7748  -13.2097 C   0  0  0  0  0  0  0  0  0  0  0  0
   21.7752  -21.1990  -12.2019 C   0  0  0  0  0  0  0  0  0  0  0  0
   22.7522  -20.1326  -11.8063 C   0  0  2  0  0  0  0  0  0  0  0  0
   23.4131  -19.5587  -12.9618 N   0  0  0  0  0  0  0  0  0  0  0  0
   23.7726  -20.6131  -10.8588 C   0  0  0  0  0  0  0  0  0  0  0  0
   23.4383  -21.1125   -9.7539 O   0  0  0  0  0  0  0  0  0  0  0  0
   17.2508  -23.4508  -11.1770 N   0  0  0  0  0  0  0  0  0  0  0  0
   25.1614  -20.5376  -11.1412 C   0  0  1  0  0  0  0  0  0  0  0  0
   26.2019  -21.0220  -10.2773 C   0  0  0  0  0  0  0  0  0  0  0  0
   27.3878  -21.5394  -11.0094 C   0  0  0  0  0  0  0  0  0  0  0  0
   27.2509  -21.8877  -12.4318 C   0  0  0  0  0  0  0  0  0  0  0  0
   28.3179  -21.5533  -13.3520 O   0  0  0  0  0  0  0  0  0  0  0  0
   29.3608  -20.9369  -13.0617 C   0  0  0  0  0  0  0  0  0  0  0  0
   26.4800  -20.1950   -9.0949 O   0  0  0  0  0  0  0  0  0  0  0  0
   25.6248  -19.3305   -8.6911 O   0  0  0  0  0  0  0  0  0  0  0  0
   28.2503  -21.9233  -14.7265 C   0  0  0  0  0  0  0  0  0  0  0  0
   24.5731  -20.0423   -3.6391 S   0  0  0  0  0  0  0  0  0  0  0  0
   26.3372  -20.4085   -3.3031 C   0  0  0  0  0  0  0  0  0  0  0  0
   27.3190  -19.5923   -4.5944 C   0  0  0  0  0  0  0  0  0  0  0  0
   27.0867  -20.2048   -5.9494 C   0  0  1  0  0  0  0  0  0  0  0  0
   27.8637  -19.5743   -7.0620 N   0  0  0  0  0  0  0  0  0  0  0  0
   27.6696  -20.2706   -8.3217 C   0  0  0  0  0  0  0  0  0  0  0  0
   29.3001  -19.6152   -6.7349 O   0  0  0  0  0  0  0  0  0  0  0  0
   29.8491  -18.5988   -5.9706 O   0  0  0  0  0  0  0  0  0  0  0  0
  2  3  2  0
  2  1  1  0
  4  2  1  0
  5  4  1  0
  6  5  1  0
  7  8  1  0
  7  6  1  0
  8  9  1  6
 10  8  1  0
 10 12  1  0
 11 10  2  0
 13 12  1  0
 13 18  1  0
 13 14  1  1
 15 14  1  0
 15 16  1  0
 16 17  2  0
 18 26  1  0
 19 18  2  0
 20 16  1  0
 21 22  1  0
 22 23  1  0
 23 24  1  0
 25 24  1  6
 25 27  1  0
 26 25  1  0
 27 29  2  0
 27 28  1  0
M  END
$$$$
