REM.pdb
     RDKit          3D

 29 28  0  0  1  0  0  0  0  0999 V2000
   28.4041  -21.8456  -20.5057 N   0  0  0  0  0  0  0  0  0  0  0  0
   29.4418  -22.0700  -19.5576 C   0  0  0  0  0  0  0  0  0  0  0  0
   30.1734  -23.1205  -19.5251 N   0  0  0  0  0  0  0  0  0  0  0  0
   29.6781  -21.0459  -18.5755 N   0  0  0  0  0  0  0  0  0  0  0  0
   28.8626  -19.8633  -18.5267 C   0  0  0  0  0  0  0  0  0  0  0  0
   27.7562  -20.0296  -17.5434 C   0  0  0  0  0  0  0  0  0  0  0  0
   28.1631  -20.2907  -16.1369 C   0  0  0  0  0  0  0  0  0  0  0  0
   27.3933  -21.3816  -15.4546 C   0  0  2  0  0  0  0  0  0  0  0  0
   26.8079  -22.3004  -16.4108 N   0  0  0  0  0  0  0  0  0  0  0  0
   26.3326  -20.8680  -14.5708 C   0  0  0  0  0  0  0  0  0  0  0  0
   26.5981  -20.0357  -13.6659 O   0  0  0  0  0  0  0  0  0  0  0  0
   30.8666  -23.2980  -18.7764 N   0  0  0  0  0  0  0  0  0  0  0  0
   24.9803  -21.2803  -14.6945 C   0  0  1  0  0  0  0  0  0  0  0  0
   23.8999  -20.8071  -13.8744 C   0  0  0  0  0  0  0  0  0  0  0  0
   22.5908  -20.7756  -14.5780 C   0  0  0  0  0  0  0  0  0  0  0  0
   21.3863  -20.3939  -13.8251 C   0  0  0  0  0  0  0  0  0  0  0  0
   20.0981  -20.4133  -14.4864 O   0  0  0  0  0  0  0  0  0  0  0  0
   19.7687  -19.7041  -15.4561 C   0  0  0  0  0  0  0  0  0  0  0  0
   23.8825  -21.3137  -12.4951 O   0  0  0  0  0  0  0  0  0  0  0  0
   24.0338  -22.5642  -12.2604 O   0  0  0  0  0  0  0  0  0  0  0  0
   19.0601  -21.2892  -14.0551 C   0  0  0  0  0  0  0  0  0  0  0  0
   27.0191  -19.0502   -7.8673 S   0  0  0  0  0  0  0  0  0  0  0  0
   26.0906  -20.1604   -6.7429 C   0  0  0  0  0  0  0  0  0  0  0  0
   24.7438  -20.9082   -7.7046 C   0  0  0  0  0  0  0  0  0  0  0  0
   24.7777  -20.4802   -9.1471 C   0  0  1  0  0  0  0  0  0  0  0  0
   23.6620  -21.0199   -9.9856 N   0  0  0  0  0  0  0  0  0  0  0  0
   23.7038  -20.5029  -11.3421 C   0  0  0  0  0  0  0  0  0  0  0  0
   22.3728  -20.6290   -9.3881 O   0  0  0  0  0  0  0  0  0  0  0  0
   21.4785  -19.8824  -10.1374 O   0  0  0  0  0  0  0  0  0  0  0  0
  2  3  2  0
  2  1  1  0
  4  2  1  0
  5  4  1  0
  6  5  1  0
  7  8  1  0
  7  6  1  0
  8  9  1  6
 10  8  1  0
 10 12  1  0
 11 10  2  0
 13 12  1  0
 13 18  1  0
 13 14  1  6
 15 14  1  0
 15 16  1  0
 16 17  2  0
 18 26  1  0
 19 18  2  0
 20 16  1  0
 21 22  1  0
 22 23  1  0
 23 24  1  0
 25 24  1  6
 25 27  1  0
 26 25  1  0
 27 29  2  0
 27 28  1  0
M  END
$$$$
