REM.pdb
     RDKit          3D

 29 28  0  0  1  0  0  0  0  0999 V2000
   25.2048  -24.6129  -15.1795 N   0  0  0  0  0  0  0  0  0  0  0  0
   24.4017  -24.1126  -16.2429 C   0  0  0  0  0  0  0  0  0  0  0  0
   24.8532  -23.7922  -17.3976 N   0  0  0  0  0  0  0  0  0  0  0  0
   22.9928  -23.9596  -15.9970 N   0  0  0  0  0  0  0  0  0  0  0  0
   22.3921  -24.4602  -14.7910 C   0  0  0  0  0  0  0  0  0  0  0  0
   20.9381  -24.1386  -14.7567 C   0  0  0  0  0  0  0  0  0  0  0  0
   20.5716  -22.7287  -15.0562 C   0  0  0  0  0  0  0  0  0  0  0  0
   21.0859  -21.7247  -14.0684 C   0  0  2  0  0  0  0  0  0  0  0  0
   20.2490  -21.6615  -12.8864 N   0  0  0  0  0  0  0  0  0  0  0  0
   21.2136  -20.3727  -14.6392 C   0  0  0  0  0  0  0  0  0  0  0  0
   20.3751  -19.4771  -14.3622 O   0  0  0  0  0  0  0  0  0  0  0  0
   24.2444  -23.4499  -18.1624 N   0  0  0  0  0  0  0  0  0  0  0  0
   22.2721  -20.0194  -15.5159 C   0  0  2  0  0  0  0  0  0  0  0  0
   22.4246  -18.7359  -16.1428 C   0  0  0  0  0  0  0  0  0  0  0  0
   23.7857  -18.5024  -16.6930 C   0  0  0  0  0  0  0  0  0  0  0  0
   24.0462  -17.2683  -17.4497 C   0  0  0  0  0  0  0  0  0  0  0  0
   25.3420  -17.0716  -18.0656 O   0  0  0  0  0  0  0  0  0  0  0  0
   26.4422  -17.1667  -17.4890 C   0  0  0  0  0  0  0  0  0  0  0  0
   21.3015  -18.3057  -16.9871 O   0  0  0  0  0  0  0  0  0  0  0  0
   20.8646  -19.0640  -17.9229 O   0  0  0  0  0  0  0  0  0  0  0  0
   25.4603  -16.7381  -19.4460 C   0  0  0  0  0  0  0  0  0  0  0  0
   17.7993  -15.9032  -22.8285 S   0  0  0  0  0  0  0  0  0  0  0  0
   19.2070  -16.4987  -21.8172 C   0  0  0  0  0  0  0  0  0  0  0  0
   18.7588  -16.2727  -20.0721 C   0  0  0  0  0  0  0  0  0  0  0  0
   19.8129  -16.8163  -19.1455 C   0  0  2  0  0  0  0  0  0  0  0  0
   19.5087  -16.6549  -17.6893 N   0  0  0  0  0  0  0  0  0  0  0  0
   20.6237  -17.0641  -16.8536 C   0  0  0  0  0  0  0  0  0  0  0  0
   18.3464  -17.4912  -17.3406 O   0  0  0  0  0  0  0  0  0  0  0  0
   17.0734  -17.0464  -17.6573 O   0  0  0  0  0  0  0  0  0  0  0  0
  2  3  2  0
  2  1  1  0
  4  2  1  0
  5  4  1  0
  6  5  1  0
  7  8  1  0
  7  6  1  0
  8  9  1  1
 10  8  1  0
 10 12  1  0
 11 10  2  0
 13 12  1  0
 13 18  1  0
 13 14  1  1
 15 14  1  0
 15 16  1  0
 16 17  2  0
 18 26  1  0
 19 18  2  0
 20 16  1  0
 21 22  1  0
 22 23  1  0
 23 24  1  0
 25 24  1  6
 25 27  1  0
 26 25  1  0
 27 29  2  0
 27 28  1  0
M  END
$$$$
