REM.pdb
     RDKit          3D

 29 28  0  0  1  0  0  0  0  0999 V2000
   23.5862  -25.6684  -15.2329 N   0  0  0  0  0  0  0  0  0  0  0  0
   24.6539  -24.7479  -15.0354 C   0  0  0  0  0  0  0  0  0  0  0  0
   25.8944  -25.0585  -15.1004 N   0  0  0  0  0  0  0  0  0  0  0  0
   24.3090  -23.3821  -14.7442 N   0  0  0  0  0  0  0  0  0  0  0  0
   22.9454  -22.9321  -14.8078 C   0  0  0  0  0  0  0  0  0  0  0  0
   22.8499  -21.4937  -14.4328 C   0  0  0  0  0  0  0  0  0  0  0  0
   21.9218  -21.1675  -13.3175 C   0  0  0  0  0  0  0  0  0  0  0  0
   20.4665  -21.2489  -13.6697 C   0  0  2  0  0  0  0  0  0  0  0  0
   20.0519  -20.1269  -14.4885 N   0  0  0  0  0  0  0  0  0  0  0  0
   19.5938  -21.3277  -12.4856 C   0  0  0  0  0  0  0  0  0  0  0  0
   19.0482  -20.2944  -12.0203 O   0  0  0  0  0  0  0  0  0  0  0  0
   26.6532  -24.3611  -14.9978 N   0  0  0  0  0  0  0  0  0  0  0  0
   19.3296  -22.5539  -11.8218 C   0  0  2  0  0  0  0  0  0  0  0  0
   18.4036  -22.7160  -10.7355 C   0  0  0  0  0  0  0  0  0  0  0  0
   17.0873  -22.0686  -10.9765 C   0  0  0  0  0  0  0  0  0  0  0  0
   16.3213  -22.4369  -12.1768 C   0  0  0  0  0  0  0  0  0  0  0  0
   15.0801  -21.7497  -12.4673 O   0  0  0  0  0  0  0  0  0  0  0  0
   14.5972  -20.8116  -11.8051 C   0  0  0  0  0  0  0  0  0  0  0  0
   18.3667  -24.0538  -10.1287 O   0  0  0  0  0  0  0  0  0  0  0  0
   18.4879  -25.1011  -10.8570 O   0  0  0  0  0  0  0  0  0  0  0  0
   14.2794  -22.1141  -13.5884 C   0  0  0  0  0  0  0  0  0  0  0  0
   18.3052  -25.2467   -3.6514 S   0  0  0  0  0  0  0  0  0  0  0  0
   17.5155  -26.7947   -4.2336 C   0  0  0  0  0  0  0  0  0  0  0  0
   17.8371  -26.9343   -6.0153 C   0  0  0  0  0  0  0  0  0  0  0  0
   17.9319  -25.5859   -6.6772 C   0  0  1  0  0  0  0  0  0  0  0  0
   18.2058  -25.6293   -8.1477 N   0  0  0  0  0  0  0  0  0  0  0  0
   18.1999  -24.3032   -8.7399 C   0  0  0  0  0  0  0  0  0  0  0  0
   17.1626  -26.4303   -8.8124 O   0  0  0  0  0  0  0  0  0  0  0  0
   17.4190  -27.7572   -9.1159 O   0  0  0  0  0  0  0  0  0  0  0  0
  2  3  2  0
  2  1  1  0
  4  2  1  0
  5  4  1  0
  6  5  1  0
  7  8  1  0
  7  6  1  0
  8  9  1  1
 10  8  1  0
 10 12  1  0
 11 10  2  0
 13 12  1  0
 13 18  1  0
 13 14  1  1
 15 14  1  0
 15 16  1  0
 16 17  2  0
 18 26  1  0
 19 18  2  0
 20 16  1  0
 21 22  1  0
 22 23  1  0
 23 24  1  0
 25 24  1  1
 25 27  1  0
 26 25  1  0
 27 29  2  0
 27 28  1  0
M  END
$$$$
