REM.pdb
     RDKit          3D

 29 28  0  0  1  0  0  0  0  0999 V2000
   25.7285  -20.7860   -8.9591 N   0  0  0  0  0  0  0  0  0  0  0  0
   24.5281  -20.6793   -9.7167 C   0  0  0  0  0  0  0  0  0  0  0  0
   23.3631  -20.5371   -9.2046 N   0  0  0  0  0  0  0  0  0  0  0  0
   24.6391  -20.7357  -11.1497 N   0  0  0  0  0  0  0  0  0  0  0  0
   25.7308  -21.4242  -11.7822 C   0  0  0  0  0  0  0  0  0  0  0  0
   26.8924  -20.5098  -11.9642 C   0  0  0  0  0  0  0  0  0  0  0  0
   27.0694  -19.9382  -13.3258 C   0  0  0  0  0  0  0  0  0  0  0  0
   26.6805  -20.8563  -14.4457 C   0  0  2  0  0  0  0  0  0  0  0  0
   27.8113  -21.6298  -14.9192 N   0  0  0  0  0  0  0  0  0  0  0  0
   26.0739  -20.1459  -15.5847 C   0  0  0  0  0  0  0  0  0  0  0  0
   26.7628  -19.3748  -16.3009 O   0  0  0  0  0  0  0  0  0  0  0  0
   22.4978  -20.5293   -9.7736 N   0  0  0  0  0  0  0  0  0  0  0  0
   24.7041  -20.2939  -15.9250 C   0  0  2  0  0  0  0  0  0  0  0  0
   24.0446  -19.5982  -16.9949 C   0  0  0  0  0  0  0  0  0  0  0  0
   24.0589  -20.3404  -18.2829 C   0  0  0  0  0  0  0  0  0  0  0  0
   23.4812  -19.7057  -19.4773 C   0  0  0  0  0  0  0  0  0  0  0  0
   23.4347  -20.4432  -20.7227 O   0  0  0  0  0  0  0  0  0  0  0  0
   23.8389  -21.6093  -20.8918 C   0  0  0  0  0  0  0  0  0  0  0  0
   22.7789  -18.9421  -16.6388 O   0  0  0  0  0  0  0  0  0  0  0  0
   22.0476  -19.4094  -15.6962 O   0  0  0  0  0  0  0  0  0  0  0  0
   22.8959  -19.8603  -21.9062 C   0  0  0  0  0  0  0  0  0  0  0  0
   19.6162  -15.2166  -12.5824 S   0  0  0  0  0  0  0  0  0  0  0  0
   20.0872  -14.2984  -14.0970 C   0  0  0  0  0  0  0  0  0  0  0  0
   19.8647  -15.4212  -15.5067 C   0  0  0  0  0  0  0  0  0  0  0  0
   21.1231  -16.1840  -15.8225 C   0  0  1  0  0  0  0  0  0  0  0  0
   20.9939  -17.1663  -16.9439 N   0  0  0  0  0  0  0  0  0  0  0  0
   22.2674  -17.7801  -17.2768 C   0  0  0  0  0  0  0  0  0  0  0  0
   20.4957  -16.4705  -18.1437 O   0  0  0  0  0  0  0  0  0  0  0  0
   19.1295  -16.3453  -18.3348 O   0  0  0  0  0  0  0  0  0  0  0  0
  2  3  2  0
  2  1  1  0
  4  2  1  0
  5  4  1  0
  6  5  1  0
  7  8  1  0
  7  6  1  0
  8  9  1  6
 10  8  1  0
 10 12  1  0
 11 10  2  0
 13 12  1  0
 13 18  1  0
 13 14  1  1
 15 14  1  0
 15 16  1  0
 16 17  2  0
 18 26  1  0
 19 18  2  0
 20 16  1  0
 21 22  1  0
 22 23  1  0
 23 24  1  0
 25 24  1  1
 25 27  1  0
 26 25  1  0
 27 29  2  0
 27 28  1  0
M  END
$$$$
