VRL.pdb
     RDKit          3D

 27 26  0  0  1  0  0  0  0  0999 V2000
   13.4137  -15.8514   19.6840 C   0  0  0  0  0  0  0  0  0  0  0  0
   12.2384  -15.6969   20.6228 C   0  0  2  0  0  0  0  0  0  0  0  0
   12.6993  -16.1734   21.9906 C   0  0  0  0  0  0  0  0  0  0  0  0
   11.0631  -16.5684   20.2063 C   0  0  2  0  0  0  0  0  0  0  0  0
   10.5663  -16.1627   18.9046 N   0  0  0  0  0  0  0  0  0  0  0  0
    9.9366  -16.4210   21.1945 C   0  0  0  0  0  0  0  0  0  0  0  0
    9.1431  -15.4582   21.1283 O   0  0  0  0  0  0  0  0  0  0  0  0
    4.5391  -22.4251   23.6095 N   0  0  0  0  0  0  0  0  0  0  0  0
    5.0120  -21.5693   22.5828 C   0  0  0  0  0  0  0  0  0  0  0  0
    4.7970  -21.8399   21.3488 N   0  0  0  0  0  0  0  0  0  0  0  0
    5.7263  -20.4109   22.9246 N   0  0  0  0  0  0  0  0  0  0  0  0
    6.1596  -20.0900   24.2625 C   0  0  0  0  0  0  0  0  0  0  0  0
    6.8371  -18.7227   24.1942 C   0  0  0  0  0  0  0  0  0  0  0  0
    7.9855  -18.7140   23.2234 C   0  0  0  0  0  0  0  0  0  0  0  0
    8.6412  -17.3770   23.0990 C   0  0  2  0  0  0  0  0  0  0  0  0
    9.7808  -17.3896   22.2087 N   0  0  0  0  0  0  0  0  0  0  0  0
    8.9653  -16.7192   24.3837 C   0  0  0  0  0  0  0  0  0  0  0  0
   10.0687  -16.8094   24.9664 O   0  0  0  0  0  0  0  0  0  0  0  0
    5.1970  -21.2683   20.5744 C   0  0  0  0  0  0  0  0  0  0  0  0
    8.3339  -12.3680   26.0948 C   0  0  2  0  0  0  0  0  0  0  0  0
    7.0610  -13.1949   25.8663 C   0  0  0  0  0  0  0  0  0  0  0  0
    5.9061  -12.2861   26.1089 C   0  0  0  0  0  0  0  0  0  0  0  0
    7.1612  -14.3797   26.7560 C   0  0  2  0  0  0  0  0  0  0  0  0
    8.1927  -15.4022   26.3413 N   0  0  0  0  0  0  0  0  0  0  0  0
    7.9798  -15.9196   25.0336 C   0  0  0  0  0  0  0  0  0  0  0  0
    8.3935  -16.4605   27.3652 O   0  0  0  0  0  0  0  0  0  0  0  0
    7.8385  -17.5836   27.3165 O   0  0  0  0  0  0  0  0  0  0  0  0
  2  1  1  6
  2  3  1  0
  4  2  1  0
  4  5  1  6
  6  4  1  0
  6  7  2  0
  9 10  2  0
  9  8  1  0
 11  9  1  0
 12 13  1  0
 12 11  1  0
 13 14  1  0
 15 14  1  1
 15 16  1  0
 16  6  1  0
 17 15  1  0
 18 17  2  0
 20 19  1  6
 20 22  1  0
 21 20  1  0
 23 22  1  6
 23 24  1  0
 24 17  1  0
 25 23  1  0
 25 27  1  0
 26 25  2  0
M  END
$$$$
