VRL.pdb
     RDKit          3D

 27 26  0  0  1  0  0  0  0  0999 V2000
    7.5465  -12.4047   18.3898 C   0  0  0  0  0  0  0  0  0  0  0  0
    7.6212  -13.2742   19.6246 C   0  0  2  0  0  0  0  0  0  0  0  0
    8.4246  -12.5042   20.6600 C   0  0  0  0  0  0  0  0  0  0  0  0
    8.3544  -14.5795   19.3542 C   0  0  2  0  0  0  0  0  0  0  0  0
    7.6623  -15.3494   18.3372 N   0  0  0  0  0  0  0  0  0  0  0  0
    8.4029  -15.4126   20.6075 C   0  0  0  0  0  0  0  0  0  0  0  0
    7.3724  -15.9535   21.0621 O   0  0  0  0  0  0  0  0  0  0  0  0
   12.3123  -18.5180   18.5399 N   0  0  0  0  0  0  0  0  0  0  0  0
   11.5473  -19.6376   18.9542 C   0  0  0  0  0  0  0  0  0  0  0  0
   10.7278  -20.2086   18.1514 N   0  0  0  0  0  0  0  0  0  0  0  0
   11.6903  -20.1249   20.2622 N   0  0  0  0  0  0  0  0  0  0  0  0
   11.8517  -19.2888   21.4265 C   0  0  0  0  0  0  0  0  0  0  0  0
   10.7425  -18.2398   21.3774 C   0  0  0  0  0  0  0  0  0  0  0  0
   10.7930  -17.3148   22.5620 C   0  0  0  0  0  0  0  0  0  0  0  0
    9.7227  -16.2722   22.5410 C   0  0  2  0  0  0  0  0  0  0  0  0
    9.6353  -15.5807   21.2738 N   0  0  0  0  0  0  0  0  0  0  0  0
    9.7546  -15.3225   23.6747 C   0  0  0  0  0  0  0  0  0  0  0  0
   10.2706  -14.1837   23.6297 O   0  0  0  0  0  0  0  0  0  0  0  0
   10.1349  -21.0157   18.4404 C   0  0  0  0  0  0  0  0  0  0  0  0
    7.9138  -12.1905   26.7734 C   0  0  1  0  0  0  0  0  0  0  0  0
    6.8554  -12.8563   25.8831 C   0  0  0  0  0  0  0  0  0  0  0  0
    5.8183  -13.4192   26.7919 C   0  0  0  0  0  0  0  0  0  0  0  0
    7.5765  -13.8323   25.0270 C   0  0  1  0  0  0  0  0  0  0  0  0
    8.5460  -14.7287   25.7604 N   0  0  0  0  0  0  0  0  0  0  0  0
    9.1682  -15.6932   24.9204 C   0  0  0  0  0  0  0  0  0  0  0  0
    7.9617  -15.3155   26.9945 O   0  0  0  0  0  0  0  0  0  0  0  0
    8.2534  -14.9264   28.1500 O   0  0  0  0  0  0  0  0  0  0  0  0
  2  1  1  6
  2  3  1  0
  4  2  1  0
  4  5  1  6
  6  4  1  0
  6  7  2  0
  9 10  2  0
  9  8  1  0
 11  9  1  0
 12 13  1  0
 12 11  1  0
 13 14  1  0
 15 14  1  6
 15 16  1  0
 16  6  1  0
 17 15  1  0
 18 17  2  0
 20 19  1  6
 20 22  1  0
 21 20  1  0
 23 22  1  6
 23 24  1  0
 24 17  1  0
 25 23  1  0
 25 27  1  0
 26 25  2  0
M  END
$$$$
