VRL.pdb
     RDKit          3D

 27 26  0  0  1  0  0  0  0  0999 V2000
    6.6825  -22.3763   24.4147 C   0  0  0  0  0  0  0  0  0  0  0  0
    7.3561  -21.1727   23.7950 C   0  0  2  0  0  0  0  0  0  0  0  0
    8.8067  -21.5548   23.5500 C   0  0  0  0  0  0  0  0  0  0  0  0
    7.3502  -19.9753   24.7335 C   0  0  2  0  0  0  0  0  0  0  0  0
    5.9888  -19.5820   25.0463 N   0  0  0  0  0  0  0  0  0  0  0  0
    8.0280  -18.8023   24.0765 C   0  0  0  0  0  0  0  0  0  0  0  0
    9.2393  -18.8448   23.7730 O   0  0  0  0  0  0  0  0  0  0  0  0
    9.9214  -13.9550   19.5344 N   0  0  0  0  0  0  0  0  0  0  0  0
    8.7405  -13.3438   19.0422 C   0  0  0  0  0  0  0  0  0  0  0  0
    8.7779  -12.1869   18.4922 N   0  0  0  0  0  0  0  0  0  0  0  0
    7.5147  -14.0161   19.1608 N   0  0  0  0  0  0  0  0  0  0  0  0
    6.7439  -14.0892   20.3779 C   0  0  0  0  0  0  0  0  0  0  0  0
    7.6549  -14.6926   21.4453 C   0  0  0  0  0  0  0  0  0  0  0  0
    7.0047  -15.8536   22.1460 C   0  0  0  0  0  0  0  0  0  0  0  0
    7.8779  -16.4778   23.1856 C   0  0  2  0  0  0  0  0  0  0  0  0
    7.2767  -17.6398   23.8020 N   0  0  0  0  0  0  0  0  0  0  0  0
    8.4080  -15.5405   24.1998 C   0  0  0  0  0  0  0  0  0  0  0  0
    8.4975  -14.3027   24.0413 O   0  0  0  0  0  0  0  0  0  0  0  0
    7.9268  -11.7244   18.1075 C   0  0  0  0  0  0  0  0  0  0  0  0
    8.7997  -12.2166   25.9396 C   0  0  2  0  0  0  0  0  0  0  0  0
    7.6489  -13.2310   25.8898 C   0  0  0  0  0  0  0  0  0  0  0  0
    6.3890  -12.4661   26.1044 C   0  0  0  0  0  0  0  0  0  0  0  0
    7.9619  -14.2751   26.8984 C   0  0  2  0  0  0  0  0  0  0  0  0
    9.1261  -15.1712   26.5475 N   0  0  0  0  0  0  0  0  0  0  0  0
    8.8577  -16.0429   25.4561 C   0  0  0  0  0  0  0  0  0  0  0  0
    9.6876  -15.8707   27.7324 O   0  0  0  0  0  0  0  0  0  0  0  0
   10.0589  -15.2783   28.7730 O   0  0  0  0  0  0  0  0  0  0  0  0
  2  1  1  1
  2  3  1  0
  4  2  1  0
  4  5  1  6
  6  4  1  0
  6  7  2  0
  9 10  2  0
  9  8  1  0
 11  9  1  0
 12 13  1  0
 12 11  1  0
 13 14  1  0
 15 14  1  1
 15 16  1  0
 16  6  1  0
 17 15  1  0
 18 17  2  0
 20 19  1  6
 20 22  1  0
 21 20  1  0
 23 22  1  6
 23 24  1  0
 24 17  1  0
 25 23  1  0
 25 27  1  0
 26 25  2  0
M  END
$$$$
