VRL.pdb
     RDKit          3D

 27 26  0  0  1  0  0  0  0  0999 V2000
    7.2620  -12.2071   18.6459 C   0  0  0  0  0  0  0  0  0  0  0  0
    7.4084  -13.0647   19.8827 C   0  0  2  0  0  0  0  0  0  0  0  0
    8.3012  -12.3012   20.8472 C   0  0  0  0  0  0  0  0  0  0  0  0
    8.0925  -14.3884   19.5757 C   0  0  2  0  0  0  0  0  0  0  0  0
    7.2810  -15.1815   18.6711 N   0  0  0  0  0  0  0  0  0  0  0  0
    8.2751  -15.1802   20.8433 C   0  0  0  0  0  0  0  0  0  0  0  0
    7.3072  -15.7459   21.3950 O   0  0  0  0  0  0  0  0  0  0  0  0
   14.4642  -15.2093   20.1628 N   0  0  0  0  0  0  0  0  0  0  0  0
   15.1364  -15.2378   21.4108 C   0  0  0  0  0  0  0  0  0  0  0  0
   16.1366  -14.4695   21.6378 N   0  0  0  0  0  0  0  0  0  0  0  0
   14.6994  -16.1211   22.4097 N   0  0  0  0  0  0  0  0  0  0  0  0
   13.5541  -16.9885   22.2814 C   0  0  0  0  0  0  0  0  0  0  0  0
   12.3131  -16.1127   22.4433 C   0  0  0  0  0  0  0  0  0  0  0  0
   11.0493  -16.9277   22.4527 C   0  0  0  0  0  0  0  0  0  0  0  0
    9.8138  -16.0968   22.5787 C   0  0  2  0  0  0  0  0  0  0  0  0
    9.5628  -15.2806   21.4114 N   0  0  0  0  0  0  0  0  0  0  0  0
    9.7196  -15.3038   23.8239 C   0  0  0  0  0  0  0  0  0  0  0  0
   10.4511  -14.3264   24.0976 O   0  0  0  0  0  0  0  0  0  0  0  0
   16.6243  -14.4461   22.5586 C   0  0  0  0  0  0  0  0  0  0  0  0
    8.1564  -12.1371   26.0215 C   0  0  2  0  0  0  0  0  0  0  0  0
    7.1233  -13.2247   25.6962 C   0  0  0  0  0  0  0  0  0  0  0  0
    5.7799  -12.6363   25.9562 C   0  0  0  0  0  0  0  0  0  0  0  0
    7.4882  -14.4115   26.5110 C   0  0  2  0  0  0  0  0  0  0  0  0
    8.7790  -15.0863   26.1112 N   0  0  0  0  0  0  0  0  0  0  0  0
    8.7416  -15.6452   24.8037 C   0  0  0  0  0  0  0  0  0  0  0  0
    9.2708  -16.0374   27.1417 O   0  0  0  0  0  0  0  0  0  0  0  0
    9.5040  -15.7101   28.3292 O   0  0  0  0  0  0  0  0  0  0  0  0
  2  1  1  6
  2  3  1  0
  4  2  1  0
  4  5  1  6
  6  4  1  0
  6  7  2  0
  9 10  2  0
  9  8  1  0
 11  9  1  0
 12 13  1  0
 12 11  1  0
 13 14  1  0
 15 14  1  6
 15 16  1  0
 16  6  1  0
 17 15  1  0
 18 17  2  0
 20 19  1  6
 20 22  1  0
 21 20  1  0
 23 22  1  6
 23 24  1  0
 24 17  1  0
 25 23  1  0
 25 27  1  0
 26 25  2  0
M  END
$$$$
