VRL.pdb
     RDKit          3D

 27 26  0  0  1  0  0  0  0  0999 V2000
    8.1751  -12.5834   18.3029 C   0  0  0  0  0  0  0  0  0  0  0  0
    7.8847  -13.3070   19.5985 C   0  0  2  0  0  0  0  0  0  0  0  0
    8.5747  -12.5265   20.7054 C   0  0  0  0  0  0  0  0  0  0  0  0
    8.4619  -14.7145   19.6024 C   0  0  2  0  0  0  0  0  0  0  0  0
    7.8515  -15.5165   18.5583 N   0  0  0  0  0  0  0  0  0  0  0  0
    8.1786  -15.3841   20.9209 C   0  0  0  0  0  0  0  0  0  0  0  0
    7.0091  -15.6524   21.2695 O   0  0  0  0  0  0  0  0  0  0  0  0
    7.4183  -20.9289   21.3121 N   0  0  0  0  0  0  0  0  0  0  0  0
    8.4657  -21.1222   20.3763 C   0  0  0  0  0  0  0  0  0  0  0  0
    8.2537  -21.7253   19.2657 N   0  0  0  0  0  0  0  0  0  0  0  0
    9.7522  -20.6468   20.6728 N   0  0  0  0  0  0  0  0  0  0  0  0
   10.0999  -19.9505   21.8873 C   0  0  0  0  0  0  0  0  0  0  0  0
    9.3633  -18.6126   21.8589 C   0  0  0  0  0  0  0  0  0  0  0  0
    9.7128  -17.7551   23.0438 C   0  0  0  0  0  0  0  0  0  0  0  0
    9.0505  -16.4158   23.0173 C   0  0  2  0  0  0  0  0  0  0  0  0
    9.2562  -15.7108   21.7713 N   0  0  0  0  0  0  0  0  0  0  0  0
    9.3425  -15.5524   24.1823 C   0  0  0  0  0  0  0  0  0  0  0  0
   10.4248  -14.9521   24.3648 O   0  0  0  0  0  0  0  0  0  0  0  0
    9.0060  -21.8761   18.5603 C   0  0  0  0  0  0  0  0  0  0  0  0
    7.4702  -12.1046   25.9743 C   0  0  2  0  0  0  0  0  0  0  0  0
    6.6167  -13.3279   26.3365 C   0  0  0  0  0  0  0  0  0  0  0  0
    5.3794  -12.8142   26.9875 C   0  0  0  0  0  0  0  0  0  0  0  0
    7.4751  -14.2119   27.1654 C   0  0  2  0  0  0  0  0  0  0  0  0
    8.6709  -14.7930   26.4486 N   0  0  0  0  0  0  0  0  0  0  0  0
    8.3485  -15.3664   25.1875 C   0  0  0  0  0  0  0  0  0  0  0  0
    9.4749  -15.6944   27.3143 O   0  0  0  0  0  0  0  0  0  0  0  0
    9.6216  -16.9190   27.0895 O   0  0  0  0  0  0  0  0  0  0  0  0
  2  1  1  6
  2  3  1  0
  4  2  1  0
  4  5  1  6
  6  4  1  0
  6  7  2  0
  9 10  2  0
  9  8  1  0
 11  9  1  0
 12 13  1  0
 12 11  1  0
 13 14  1  0
 15 14  1  6
 15 16  1  0
 16  6  1  0
 17 15  1  0
 18 17  2  0
 20 19  1  6
 20 22  1  0
 21 20  1  0
 23 22  1  6
 23 24  1  0
 24 17  1  0
 25 23  1  0
 25 27  1  0
 26 25  2  0
M  END
$$$$
