VRL.pdb
     RDKit          3D

 27 26  0  0  1  0  0  0  0  0999 V2000
    8.1982  -13.0155   17.3518 C   0  0  0  0  0  0  0  0  0  0  0  0
    7.8785  -13.7462   18.6365 C   0  0  2  0  0  0  0  0  0  0  0  0
    6.9774  -12.8335   19.4521 C   0  0  0  0  0  0  0  0  0  0  0  0
    9.1282  -14.0127   19.4620 C   0  0  2  0  0  0  0  0  0  0  0  0
   10.0160  -14.9214   18.7604 N   0  0  0  0  0  0  0  0  0  0  0  0
    8.7538  -14.6555   20.7711 C   0  0  0  0  0  0  0  0  0  0  0  0
    7.9884  -14.0820   21.5751 O   0  0  0  0  0  0  0  0  0  0  0  0
    8.5339  -21.1555   17.7453 N   0  0  0  0  0  0  0  0  0  0  0  0
    9.5876  -20.6815   18.5669 C   0  0  0  0  0  0  0  0  0  0  0  0
   10.6865  -20.2665   18.0546 N   0  0  0  0  0  0  0  0  0  0  0  0
    9.4234  -20.6685   19.9604 N   0  0  0  0  0  0  0  0  0  0  0  0
    8.7506  -19.6206   20.6883 C   0  0  0  0  0  0  0  0  0  0  0  0
    9.8146  -18.5962   21.0778 C   0  0  0  0  0  0  0  0  0  0  0  0
    9.5281  -17.9714   22.4153 C   0  0  0  0  0  0  0  0  0  0  0  0
    8.9216  -16.6097   22.3113 C   0  0  2  0  0  0  0  0  0  0  0  0
    9.2794  -15.9261   21.0880 N   0  0  0  0  0  0  0  0  0  0  0  0
    9.1243  -15.7446   23.4939 C   0  0  0  0  0  0  0  0  0  0  0  0
   10.2391  -15.3391   23.8915 O   0  0  0  0  0  0  0  0  0  0  0  0
   11.4741  -19.9105   18.6371 C   0  0  0  0  0  0  0  0  0  0  0  0
    5.7464  -12.0244   27.0296 C   0  0  1  0  0  0  0  0  0  0  0  0
    7.1277  -12.6519   26.7962 C   0  0  0  0  0  0  0  0  0  0  0  0
    8.0935  -11.5277   26.6478 C   0  0  0  0  0  0  0  0  0  0  0  0
    6.9890  -13.5559   25.6262 C   0  0  2  0  0  0  0  0  0  0  0  0
    8.1509  -14.4956   25.4061 N   0  0  0  0  0  0  0  0  0  0  0  0
    7.9976  -15.3228   24.2591 C   0  0  0  0  0  0  0  0  0  0  0  0
    8.5141  -15.2537   26.6316 O   0  0  0  0  0  0  0  0  0  0  0  0
    9.0748  -14.7339   27.6251 O   0  0  0  0  0  0  0  0  0  0  0  0
  2  1  1  6
  2  3  1  0
  4  2  1  0
  4  5  1  6
  6  4  1  0
  6  7  2  0
  9 10  2  0
  9  8  1  0
 11  9  1  0
 12 13  1  0
 12 11  1  0
 13 14  1  0
 15 14  1  1
 15 16  1  0
 16  6  1  0
 17 15  1  0
 18 17  2  0
 20 19  1  1
 20 22  1  0
 21 20  1  0
 23 22  1  6
 23 24  1  0
 24 17  1  0
 25 23  1  0
 25 27  1  0
 26 25  2  0
M  END
$$$$
