VRL.pdb
     RDKit          3D

 27 26  0  0  1  0  0  0  0  0999 V2000
    7.4998  -12.2740   18.4606 C   0  0  0  0  0  0  0  0  0  0  0  0
    7.4570  -13.1167   19.7154 C   0  0  2  0  0  0  0  0  0  0  0  0
    8.2517  -12.3720   20.7757 C   0  0  0  0  0  0  0  0  0  0  0  0
    8.1216  -14.4699   19.5113 C   0  0  2  0  0  0  0  0  0  0  0  0
    7.4428  -15.2168   18.4685 N   0  0  0  0  0  0  0  0  0  0  0  0
    8.0451  -15.2781   20.7794 C   0  0  0  0  0  0  0  0  0  0  0  0
    7.0004  -15.8871   21.0935 O   0  0  0  0  0  0  0  0  0  0  0  0
   13.2772  -18.6368   24.3111 N   0  0  0  0  0  0  0  0  0  0  0  0
   12.6354  -19.7431   24.9229 C   0  0  0  0  0  0  0  0  0  0  0  0
   13.1348  -20.3021   25.9623 N   0  0  0  0  0  0  0  0  0  0  0  0
   11.4372  -20.2321   24.3805 N   0  0  0  0  0  0  0  0  0  0  0  0
   10.8489  -19.7565   23.1524 C   0  0  0  0  0  0  0  0  0  0  0  0
   10.0175  -18.5247   23.5056 C   0  0  0  0  0  0  0  0  0  0  0  0
   10.0412  -17.4984   22.4067 C   0  0  0  0  0  0  0  0  0  0  0  0
    9.2435  -16.2758   22.7256 C   0  0  2  0  0  0  0  0  0  0  0  0
    9.1755  -15.3442   21.6214 N   0  0  0  0  0  0  0  0  0  0  0  0
    9.6198  -15.5963   23.9845 C   0  0  0  0  0  0  0  0  0  0  0  0
   10.7244  -15.0455   24.1887 O   0  0  0  0  0  0  0  0  0  0  0  0
   12.6964  -21.1328   26.4140 C   0  0  0  0  0  0  0  0  0  0  0  0
    7.9838  -12.1312   25.5667 C   0  0  1  0  0  0  0  0  0  0  0  0
    7.1226  -13.3442   25.9451 C   0  0  0  0  0  0  0  0  0  0  0  0
    5.8209  -12.8133   26.4374 C   0  0  0  0  0  0  0  0  0  0  0  0
    7.9160  -14.1393   26.9166 C   0  0  2  0  0  0  0  0  0  0  0  0
    9.0330  -14.9554   26.3101 N   0  0  0  0  0  0  0  0  0  0  0  0
    8.6877  -15.5442   25.0623 C   0  0  0  0  0  0  0  0  0  0  0  0
    9.6224  -15.9229   27.2720 O   0  0  0  0  0  0  0  0  0  0  0  0
    9.6554  -17.1605   27.0749 O   0  0  0  0  0  0  0  0  0  0  0  0
  2  1  1  6
  2  3  1  0
  4  2  1  0
  4  5  1  6
  6  4  1  0
  6  7  2  0
  9 10  2  0
  9  8  1  0
 11  9  1  0
 12 13  1  0
 12 11  1  0
 13 14  1  0
 15 14  1  6
 15 16  1  0
 16  6  1  0
 17 15  1  0
 18 17  2  0
 20 19  1  6
 20 22  1  0
 21 20  1  0
 23 22  1  6
 23 24  1  0
 24 17  1  0
 25 23  1  0
 25 27  1  0
 26 25  2  0
M  END
$$$$
