VRL.pdb
     RDKit          3D

 27 26  0  0  1  0  0  0  0  0999 V2000
    7.0575  -12.9287   20.5695 C   0  0  0  0  0  0  0  0  0  0  0  0
    8.4894  -13.1563   20.1398 C   0  0  2  0  0  0  0  0  0  0  0  0
    8.7050  -12.3456   18.8723 C   0  0  0  0  0  0  0  0  0  0  0  0
    8.7532  -14.6156   19.8005 C   0  0  2  0  0  0  0  0  0  0  0  0
    7.8853  -15.0511   18.7221 N   0  0  0  0  0  0  0  0  0  0  0  0
    8.4686  -15.4827   20.9981 C   0  0  0  0  0  0  0  0  0  0  0  0
    7.3289  -15.9551   21.1955 O   0  0  0  0  0  0  0  0  0  0  0  0
   10.9796  -20.2608   19.1998 N   0  0  0  0  0  0  0  0  0  0  0  0
   11.9280  -19.7582   20.1262 C   0  0  0  0  0  0  0  0  0  0  0  0
   13.0451  -19.2731   19.7273 N   0  0  0  0  0  0  0  0  0  0  0  0
   11.6380  -19.7943   21.4986 N   0  0  0  0  0  0  0  0  0  0  0  0
   10.3272  -20.0482   22.0444 C   0  0  0  0  0  0  0  0  0  0  0  0
    9.5690  -18.7225   22.0146 C   0  0  0  0  0  0  0  0  0  0  0  0
    9.9670  -17.8234   23.1524 C   0  0  0  0  0  0  0  0  0  0  0  0
    9.2726  -16.5005   23.1282 C   0  0  2  0  0  0  0  0  0  0  0  0
    9.5107  -15.7621   21.9076 N   0  0  0  0  0  0  0  0  0  0  0  0
    9.4951  -15.6572   24.3229 C   0  0  0  0  0  0  0  0  0  0  0  0
   10.5591  -15.0476   24.5708 O   0  0  0  0  0  0  0  0  0  0  0  0
   13.7554  -18.8919   20.3880 C   0  0  0  0  0  0  0  0  0  0  0  0
    8.0002  -12.0021   25.5659 C   0  0  2  0  0  0  0  0  0  0  0  0
    6.9291  -13.0673   25.8383 C   0  0  0  0  0  0  0  0  0  0  0  0
    5.6701  -12.3408   26.1634 C   0  0  0  0  0  0  0  0  0  0  0  0
    7.4710  -13.9490   26.9033 C   0  0  2  0  0  0  0  0  0  0  0  0
    8.6576  -14.7885   26.4927 N   0  0  0  0  0  0  0  0  0  0  0  0
    8.4501  -15.5036   25.2808 C   0  0  0  0  0  0  0  0  0  0  0  0
    9.1646  -15.6427   27.5982 O   0  0  0  0  0  0  0  0  0  0  0  0
    9.5046  -15.1938   28.7182 O   0  0  0  0  0  0  0  0  0  0  0  0
  2  1  1  6
  2  3  1  0
  4  2  1  0
  4  5  1  6
  6  4  1  0
  6  7  2  0
  9 10  2  0
  9  8  1  0
 11  9  1  0
 12 13  1  0
 12 11  1  0
 13 14  1  0
 15 14  1  1
 15 16  1  0
 16  6  1  0
 17 15  1  0
 18 17  2  0
 20 19  1  6
 20 22  1  0
 21 20  1  0
 23 22  1  6
 23 24  1  0
 24 17  1  0
 25 23  1  0
 25 27  1  0
 26 25  2  0
M  END
$$$$
