VRL.pdb
     RDKit          3D

 27 26  0  0  1  0  0  0  0  0999 V2000
    8.2121  -18.9918   19.8443 C   0  0  0  0  0  0  0  0  0  0  0  0
    9.3782  -19.6670   20.5306 C   0  0  2  0  0  0  0  0  0  0  0  0
    9.0504  -21.1494   20.6036 C   0  0  0  0  0  0  0  0  0  0  0  0
    9.5622  -19.1680   21.9558 C   0  0  2  0  0  0  0  0  0  0  0  0
    8.3414  -19.3498   22.7191 N   0  0  0  0  0  0  0  0  0  0  0  0
    9.8852  -17.6974   21.9492 C   0  0  0  0  0  0  0  0  0  0  0  0
   10.9129  -17.2657   21.3846 O   0  0  0  0  0  0  0  0  0  0  0  0
    9.6954  -13.8462   18.5073 N   0  0  0  0  0  0  0  0  0  0  0  0
    8.4148  -13.2881   18.7496 C   0  0  0  0  0  0  0  0  0  0  0  0
    8.1545  -12.0743   18.4315 N   0  0  0  0  0  0  0  0  0  0  0  0
    7.4202  -14.0770   19.3473 N   0  0  0  0  0  0  0  0  0  0  0  0
    7.6692  -15.3379   20.0021 C   0  0  0  0  0  0  0  0  0  0  0  0
    7.1631  -15.2012   21.4368 C   0  0  0  0  0  0  0  0  0  0  0  0
    8.1655  -14.5130   22.3216 C   0  0  0  0  0  0  0  0  0  0  0  0
    9.3151  -15.3890   22.7013 C   0  0  2  0  0  0  0  0  0  0  0  0
    9.0087  -16.7983   22.5929 N   0  0  0  0  0  0  0  0  0  0  0  0
    9.9393  -15.0694   24.0037 C   0  0  0  0  0  0  0  0  0  0  0  0
   10.2486  -13.9159   24.3763 O   0  0  0  0  0  0  0  0  0  0  0  0
    7.2535  -11.6133   18.6805 C   0  0  0  0  0  0  0  0  0  0  0  0
   10.1011  -15.2474   29.2471 C   0  0  1  0  0  0  0  0  0  0  0  0
   10.7722  -14.3308   28.2148 C   0  0  0  0  0  0  0  0  0  0  0  0
   10.5775  -12.9319   28.6878 C   0  0  0  0  0  0  0  0  0  0  0  0
   10.1733  -14.6672   26.8982 C   0  0  2  0  0  0  0  0  0  0  0  0
   10.7974  -15.8513   26.1983 N   0  0  0  0  0  0  0  0  0  0  0  0
   10.2238  -16.1200   24.9248 C   0  0  0  0  0  0  0  0  0  0  0  0
   10.8806  -17.0525   27.0693 O   0  0  0  0  0  0  0  0  0  0  0  0
    9.9475  -17.8800   27.1966 O   0  0  0  0  0  0  0  0  0  0  0  0
  2  1  1  1
  2  3  1  0
  4  2  1  0
  4  5  1  1
  6  4  1  0
  6  7  2  0
  9 10  2  0
  9  8  1  0
 11  9  1  0
 12 13  1  0
 12 11  1  0
 13 14  1  0
 15 14  1  1
 15 16  1  0
 16  6  1  0
 17 15  1  0
 18 17  2  0
 20 19  1  1
 20 22  1  0
 21 20  1  0
 23 22  1  6
 23 24  1  0
 24 17  1  0
 25 23  1  0
 25 27  1  0
 26 25  2  0
M  END
$$$$
