CTL.pdb
     RDKit          3D

 22 21  0  0  1  0  0  0  0  0999 V2000
   19.0342  -13.6545  -18.6396 N   0  0  0  0  0  0  0  0  0  0  0  0
   18.8566  -12.8835  -17.4289 C   0  0  1  0  0  0  0  0  0  0  0  0
   19.8810  -13.3869  -16.4131 C   0  0  0  0  0  0  0  0  0  0  0  0
   19.2630  -14.8703  -15.5853 S   0  0  0  0  0  0  0  0  0  0  0  0
   19.0420  -11.4376  -17.6670 C   0  0  0  0  0  0  0  0  0  0  0  0
   19.9956  -11.0903  -18.4291 O   0  0  0  0  0  0  0  0  0  0  0  0
   16.7756   -9.0448  -19.2526 C   0  0  0  0  0  0  0  0  0  0  0  0
   17.1548   -8.4095  -17.9350 C   0  0  1  0  0  0  0  0  0  0  0  0
   16.0615   -8.5330  -17.0810 O   0  0  0  0  0  0  0  0  0  0  0  0
   18.3929   -9.0618  -17.3453 C   0  0  2  0  0  0  0  0  0  0  0  0
   18.1975  -10.4520  -17.0766 N   0  0  0  0  0  0  0  0  0  0  0  0
   18.8159   -8.3499  -16.1054 C   0  0  0  0  0  0  0  0  0  0  0  0
   19.1285   -9.0292  -15.0944 O   0  0  0  0  0  0  0  0  0  0  0  0
   22.9493   -5.5728  -13.8374 C   0  0  0  0  0  0  0  0  0  0  0  0
   21.5494   -6.0742  -13.4839 C   0  0  2  0  0  0  0  0  0  0  0  0
   21.6609   -6.9181  -12.2600 C   0  0  0  0  0  0  0  0  0  0  0  0
   20.9055   -6.7493  -14.6545 C   0  0  0  0  0  0  0  0  0  0  0  0
   19.5207   -6.2789  -14.8742 C   0  0  2  0  0  0  0  0  0  0  0  0
   18.8851   -6.9512  -16.0039 N   0  0  0  0  0  0  0  0  0  0  0  0
   19.4211   -4.8321  -15.0765 C   0  0  0  0  0  0  0  0  0  0  0  0
   19.4110   -4.3134  -16.1959 O   0  0  0  0  0  0  0  0  0  0  0  0
   19.3329   -3.9822  -13.9812 O   0  0  0  0  0  0  0  0  0  0  0  0
  2  1  1  6
  3  2  1  0
  4  3  1  0
  5 11  1  0
  5  2  1  0
  6  5  2  0
  8 10  1  0
  8  7  1  6
  9  8  1  0
 10 11  1  1
 10 12  1  0
 12 19  1  0
 13 12  2  0
 15 14  1  6
 16 15  1  0
 17 15  1  0
 18 17  1  6
 19 18  1  0
 20 18  1  0
 20 22  1  0
 21 20  2  0
M  END
$$$$
