CTL.pdb
     RDKit          3D

 22 21  0  0  1  0  0  0  0  0999 V2000
   20.5226   -8.7821  -15.5992 N   0  0  0  0  0  0  0  0  0  0  0  0
   20.1253   -8.4048  -14.2607 C   0  0  1  0  0  0  0  0  0  0  0  0
   21.3865   -7.9703  -13.5157 C   0  0  0  0  0  0  0  0  0  0  0  0
   22.2245   -9.4098  -12.8134 S   0  0  0  0  0  0  0  0  0  0  0  0
   19.1353   -7.3088  -14.2707 C   0  0  0  0  0  0  0  0  0  0  0  0
   19.5790   -6.1239  -14.3706 O   0  0  0  0  0  0  0  0  0  0  0  0
   16.5496   -6.6067  -16.8208 C   0  0  0  0  0  0  0  0  0  0  0  0
   15.8404   -6.7217  -15.4913 C   0  0  1  0  0  0  0  0  0  0  0  0
   15.2783   -7.9943  -15.4258 O   0  0  0  0  0  0  0  0  0  0  0  0
   16.7949   -6.4791  -14.3353 C   0  0  2  0  0  0  0  0  0  0  0  0
   17.7326   -7.5458  -14.1734 N   0  0  0  0  0  0  0  0  0  0  0  0
   16.0360   -6.2612  -13.0705 C   0  0  0  0  0  0  0  0  0  0  0  0
   15.2595   -5.2752  -12.9930 O   0  0  0  0  0  0  0  0  0  0  0  0
   13.2856   -7.3997   -8.7793 C   0  0  0  0  0  0  0  0  0  0  0  0
   14.7466   -7.7596   -8.5113 C   0  0  2  0  0  0  0  0  0  0  0  0
   15.3327   -6.6881   -7.6564 C   0  0  0  0  0  0  0  0  0  0  0  0
   15.4832   -8.0155   -9.7892 C   0  0  0  0  0  0  0  0  0  0  0  0
   15.3825   -6.8754  -10.7259 C   0  0  2  0  0  0  0  0  0  0  0  0
   16.1417   -7.1036  -11.9522 N   0  0  0  0  0  0  0  0  0  0  0  0
   15.8100   -5.6019  -10.1432 C   0  0  0  0  0  0  0  0  0  0  0  0
   15.0160   -4.7813   -9.6759 O   0  0  0  0  0  0  0  0  0  0  0  0
   17.1598   -5.2760  -10.1006 O   0  0  0  0  0  0  0  0  0  0  0  0
  2  1  1  6
  3  2  1  0
  4  3  1  0
  5 11  1  0
  5  2  1  0
  6  5  2  0
  8 10  1  0
  8  7  1  6
  9  8  1  0
 10 11  1  1
 10 12  1  0
 12 19  1  0
 13 12  2  0
 15 14  1  6
 16 15  1  0
 17 15  1  0
 18 17  1  1
 19 18  1  0
 20 18  1  0
 20 22  1  0
 21 20  2  0
M  END
$$$$
