CTL.pdb
     RDKit          3D

 22 21  0  0  1  0  0  0  0  0999 V2000
   14.2921  -12.7514  -16.9846 N   0  0  0  0  0  0  0  0  0  0  0  0
   15.0720  -12.0697  -15.9753 C   0  0  1  0  0  0  0  0  0  0  0  0
   15.4138  -13.0935  -14.8940 C   0  0  0  0  0  0  0  0  0  0  0  0
   13.9787  -13.3860  -13.8344 S   0  0  0  0  0  0  0  0  0  0  0  0
   16.3084  -11.4886  -16.5370 C   0  0  0  0  0  0  0  0  0  0  0  0
   16.9775  -12.2082  -17.3403 O   0  0  0  0  0  0  0  0  0  0  0  0
   16.6617   -9.1450  -19.0378 C   0  0  0  0  0  0  0  0  0  0  0  0
   17.4246   -8.5273  -17.8888 C   0  0  1  0  0  0  0  0  0  0  0  0
   16.5935   -7.5797  -17.2963 O   0  0  0  0  0  0  0  0  0  0  0  0
   17.8615   -9.5822  -16.8876 C   0  0  2  0  0  0  0  0  0  0  0  0
   16.7536  -10.1750  -16.2063 N   0  0  0  0  0  0  0  0  0  0  0  0
   18.8221   -9.0021  -15.9059 C   0  0  0  0  0  0  0  0  0  0  0  0
   18.3830   -8.5853  -14.8037 O   0  0  0  0  0  0  0  0  0  0  0  0
   22.2892  -10.4391  -13.4637 C   0  0  0  0  0  0  0  0  0  0  0  0
   22.6243  -10.2470  -14.9425 C   0  0  2  0  0  0  0  0  0  0  0  0
   23.9642  -10.8516  -15.1906 C   0  0  0  0  0  0  0  0  0  0  0  0
   22.5012   -8.8097  -15.3423 C   0  0  0  0  0  0  0  0  0  0  0  0
   21.1210   -8.3041  -15.1783 C   0  0  2  0  0  0  0  0  0  0  0  0
   20.2012   -8.8949  -16.1465 N   0  0  0  0  0  0  0  0  0  0  0  0
   21.0191   -6.8462  -15.2680 C   0  0  0  0  0  0  0  0  0  0  0  0
   20.6359   -6.2648  -16.2864 O   0  0  0  0  0  0  0  0  0  0  0  0
   21.3615   -6.0577  -14.1766 O   0  0  0  0  0  0  0  0  0  0  0  0
  2  1  1  6
  3  2  1  0
  4  3  1  0
  5 11  1  0
  5  2  1  0
  6  5  2  0
  8 10  1  0
  8  7  1  6
  9  8  1  0
 10 11  1  1
 10 12  1  0
 12 19  1  0
 13 12  2  0
 15 14  1  1
 16 15  1  0
 17 15  1  0
 18 17  1  6
 19 18  1  0
 20 18  1  0
 20 22  1  0
 21 20  2  0
M  END
$$$$
