CTL.pdb
     RDKit          3D

 22 21  0  0  1  0  0  0  0  0999 V2000
   26.5219  -18.5540  -16.7444 N   0  0  0  0  0  0  0  0  0  0  0  0
   27.2457  -18.8691  -15.5326 C   0  0  1  0  0  0  0  0  0  0  0  0
   28.3285  -17.8053  -15.3582 C   0  0  0  0  0  0  0  0  0  0  0  0
   29.5771  -17.9662  -16.6555 S   0  0  0  0  0  0  0  0  0  0  0  0
   26.3573  -18.8911  -14.3528 C   0  0  0  0  0  0  0  0  0  0  0  0
   25.3675  -18.0967  -14.3541 O   0  0  0  0  0  0  0  0  0  0  0  0
   23.8385  -19.9124  -14.0924 C   0  0  0  0  0  0  0  0  0  0  0  0
   24.3348  -20.6650  -12.8796 C   0  0  1  0  0  0  0  0  0  0  0  0
   24.6206  -21.9670  -13.2833 O   0  0  0  0  0  0  0  0  0  0  0  0
   25.5557  -19.9931  -12.2761 C   0  0  2  0  0  0  0  0  0  0  0  0
   26.5807  -19.7603  -13.2447 N   0  0  0  0  0  0  0  0  0  0  0  0
   26.0889  -20.8027  -11.1433 C   0  0  0  0  0  0  0  0  0  0  0  0
   27.2758  -21.2142  -11.1996 O   0  0  0  0  0  0  0  0  0  0  0  0
   27.3705  -18.6904   -6.3279 C   0  0  0  0  0  0  0  0  0  0  0  0
   27.3175  -20.0700   -6.9836 C   0  0  2  0  0  0  0  0  0  0  0  0
   28.6899  -20.6506   -6.9399 C   0  0  0  0  0  0  0  0  0  0  0  0
   26.7113  -19.9958   -8.3503 C   0  0  0  0  0  0  0  0  0  0  0  0
   25.9155  -21.2005   -8.6708 C   0  0  2  0  0  0  0  0  0  0  0  0
   25.3322  -21.1335  -10.0078 N   0  0  0  0  0  0  0  0  0  0  0  0
   24.8449  -21.4659   -7.7078 C   0  0  0  0  0  0  0  0  0  0  0  0
   23.7061  -21.0079   -7.8321 O   0  0  0  0  0  0  0  0  0  0  0  0
   25.0916  -22.2633   -6.5973 O   0  0  0  0  0  0  0  0  0  0  0  0
  2  1  1  6
  3  2  1  0
  4  3  1  0
  5 11  1  0
  5  2  1  0
  6  5  2  0
  8 10  1  0
  8  7  1  6
  9  8  1  0
 10 11  1  6
 10 12  1  0
 12 19  1  0
 13 12  2  0
 15 14  1  6
 16 15  1  0
 17 15  1  0
 18 17  1  1
 19 18  1  0
 20 18  1  0
 20 22  1  0
 21 20  2  0
M  END
$$$$
