CTL.pdb
     RDKit          3D

 22 21  0  0  1  0  0  0  0  0999 V2000
   17.2293  -13.7502  -16.6952 N   0  0  0  0  0  0  0  0  0  0  0  0
   16.9899  -12.3240  -16.6731 C   0  0  1  0  0  0  0  0  0  0  0  0
   16.2381  -12.0075  -15.3812 C   0  0  0  0  0  0  0  0  0  0  0  0
   14.6655  -12.8981  -15.3393 S   0  0  0  0  0  0  0  0  0  0  0  0
   18.2498  -11.5553  -16.7319 C   0  0  0  0  0  0  0  0  0  0  0  0
   19.3133  -12.1521  -16.3804 O   0  0  0  0  0  0  0  0  0  0  0  0
   19.3908   -9.2492  -19.7265 C   0  0  0  0  0  0  0  0  0  0  0  0
   19.5789   -8.5270  -18.4124 C   0  0  1  0  0  0  0  0  0  0  0  0
   18.5726   -7.5692  -18.3138 O   0  0  0  0  0  0  0  0  0  0  0  0
   19.5381   -9.4939  -17.2421 C   0  0  2  0  0  0  0  0  0  0  0  0
   18.2960  -10.1967  -17.1624 N   0  0  0  0  0  0  0  0  0  0  0  0
   19.8087   -8.7756  -15.9638 C   0  0  0  0  0  0  0  0  0  0  0  0
   18.8545   -8.5718  -15.1705 O   0  0  0  0  0  0  0  0  0  0  0  0
   23.1952   -8.8821  -11.2037 C   0  0  0  0  0  0  0  0  0  0  0  0
   22.1839   -8.0553  -11.9974 C   0  0  2  0  0  0  0  0  0  0  0  0
   20.9844   -7.8497  -11.1364 C   0  0  0  0  0  0  0  0  0  0  0  0
   21.9010   -8.6798  -13.3281 C   0  0  0  0  0  0  0  0  0  0  0  0
   21.3451   -7.7053  -14.2918 C   0  0  2  0  0  0  0  0  0  0  0  0
   21.0809   -8.3106  -15.5942 N   0  0  0  0  0  0  0  0  0  0  0  0
   22.1948   -6.5292  -14.4881 C   0  0  0  0  0  0  0  0  0  0  0  0
   22.8885   -6.3669  -15.4954 O   0  0  0  0  0  0  0  0  0  0  0  0
   22.2429   -5.5372  -13.5167 O   0  0  0  0  0  0  0  0  0  0  0  0
  2  1  1  1
  3  2  1  0
  4  3  1  0
  5 11  1  0
  5  2  1  0
  6  5  2  0
  8 10  1  0
  8  7  1  6
  9  8  1  0
 10 11  1  1
 10 12  1  0
 12 19  1  0
 13 12  2  0
 15 14  1  1
 16 15  1  0
 17 15  1  0
 18 17  1  1
 19 18  1  0
 20 18  1  0
 20 22  1  0
 21 20  2  0
M  END
$$$$
