CTL.pdb
     RDKit          3D

 22 21  0  0  1  0  0  0  0  0999 V2000
   22.8154  -11.2175  -22.0214 N   0  0  0  0  0  0  0  0  0  0  0  0
   23.1569  -10.0111  -21.3006 C   0  0  1  0  0  0  0  0  0  0  0  0
   23.5114   -8.9455  -22.3365 C   0  0  0  0  0  0  0  0  0  0  0  0
   23.8703   -7.3739  -21.5185 S   0  0  0  0  0  0  0  0  0  0  0  0
   22.0421   -9.5456  -20.4506 C   0  0  0  0  0  0  0  0  0  0  0  0
   20.9930   -9.1383  -21.0374 O   0  0  0  0  0  0  0  0  0  0  0  0
   19.6256  -11.0916  -18.7516 C   0  0  0  0  0  0  0  0  0  0  0  0
   20.2035  -10.2239  -17.6576 C   0  0  1  0  0  0  0  0  0  0  0  0
   20.9820  -11.0418  -16.8423 O   0  0  0  0  0  0  0  0  0  0  0  0
   21.0203   -9.0812  -18.2349 C   0  0  2  0  0  0  0  0  0  0  0  0
   22.1165   -9.5441  -19.0267 N   0  0  0  0  0  0  0  0  0  0  0  0
   21.5098   -8.1888  -17.1453 C   0  0  0  0  0  0  0  0  0  0  0  0
   22.7458   -7.9811  -17.0427 O   0  0  0  0  0  0  0  0  0  0  0  0
   21.2412   -2.8601  -14.9198 C   0  0  0  0  0  0  0  0  0  0  0  0
   21.6472   -4.3002  -14.6076 C   0  0  2  0  0  0  0  0  0  0  0  0
   23.1219   -4.3232  -14.3902 C   0  0  0  0  0  0  0  0  0  0  0  0
   21.1541   -5.2413  -15.6621 C   0  0  0  0  0  0  0  0  0  0  0  0
   21.1551   -6.6455  -15.1975 C   0  0  2  0  0  0  0  0  0  0  0  0
   20.6594   -7.5625  -16.2200 N   0  0  0  0  0  0  0  0  0  0  0  0
   20.3842   -6.8547  -13.9704 C   0  0  0  0  0  0  0  0  0  0  0  0
   19.2792   -7.4032  -13.9612 O   0  0  0  0  0  0  0  0  0  0  0  0
   20.8924   -6.4283  -12.7498 O   0  0  0  0  0  0  0  0  0  0  0  0
  2  1  1  6
  3  2  1  0
  4  3  1  0
  5 11  1  0
  5  2  1  0
  6  5  2  0
  8 10  1  0
  8  7  1  6
  9  8  1  0
 10 11  1  1
 10 12  1  0
 12 19  1  0
 13 12  2  0
 15 14  1  6
 16 15  1  0
 17 15  1  0
 18 17  1  6
 19 18  1  0
 20 18  1  0
 20 22  1  0
 21 20  2  0
M  END
$$$$
