CTL.pdb
     RDKit          3D

 22 21  0  0  1  0  0  0  0  0999 V2000
   15.2020  -12.1891  -15.0540 N   0  0  0  0  0  0  0  0  0  0  0  0
   15.3355  -10.9871  -15.8471 C   0  0  1  0  0  0  0  0  0  0  0  0
   14.7837   -9.8291  -15.0171 C   0  0  0  0  0  0  0  0  0  0  0  0
   12.9770   -9.8824  -14.9938 S   0  0  0  0  0  0  0  0  0  0  0  0
   16.7419  -10.7262  -16.2155 C   0  0  0  0  0  0  0  0  0  0  0  0
   17.6222  -11.5110  -15.7463 O   0  0  0  0  0  0  0  0  0  0  0  0
   20.0511   -8.5646  -19.1873 C   0  0  0  0  0  0  0  0  0  0  0  0
   18.6045   -8.7256  -18.7809 C   0  0  1  0  0  0  0  0  0  0  0  0
   17.9556   -9.4093  -19.8062 O   0  0  0  0  0  0  0  0  0  0  0  0
   18.4826   -9.4650  -17.4601 C   0  0  2  0  0  0  0  0  0  0  0  0
   17.1213   -9.6435  -17.0622 N   0  0  0  0  0  0  0  0  0  0  0  0
   19.2442   -8.7542  -16.3934 C   0  0  0  0  0  0  0  0  0  0  0  0
   18.6759   -7.8298  -15.7578 O   0  0  0  0  0  0  0  0  0  0  0  0
   24.3483   -9.2225  -13.0177 C   0  0  0  0  0  0  0  0  0  0  0  0
   22.9652   -8.5933  -13.1824 C   0  0  2  0  0  0  0  0  0  0  0  0
   22.3231   -8.5409  -11.8380 C   0  0  0  0  0  0  0  0  0  0  0  0
   22.1686   -9.3059  -14.2305 C   0  0  0  0  0  0  0  0  0  0  0  0
   21.2833   -8.3855  -14.9764 C   0  0  2  0  0  0  0  0  0  0  0  0
   20.5719   -9.0631  -16.0568 N   0  0  0  0  0  0  0  0  0  0  0  0
   21.9831   -7.2265  -15.5340 C   0  0  0  0  0  0  0  0  0  0  0  0
   22.4282   -7.2049  -16.6845 O   0  0  0  0  0  0  0  0  0  0  0  0
   22.1692   -6.0886  -14.7590 O   0  0  0  0  0  0  0  0  0  0  0  0
  2  1  1  1
  3  2  1  0
  4  3  1  0
  5 11  1  0
  5  2  1  0
  6  5  2  0
  8 10  1  0
  8  7  1  6
  9  8  1  0
 10 11  1  1
 10 12  1  0
 12 19  1  0
 13 12  2  0
 15 14  1  1
 16 15  1  0
 17 15  1  0
 18 17  1  6
 19 18  1  0
 20 18  1  0
 20 22  1  0
 21 20  2  0
M  END
$$$$
