CTL.pdb
     RDKit          3D

 22 21  0  0  1  0  0  0  0  0999 V2000
   16.0219  -14.2817  -15.3233 N   0  0  0  0  0  0  0  0  0  0  0  0
   15.2354  -13.2435  -14.6946 C   0  0  1  0  0  0  0  0  0  0  0  0
   14.1545  -13.9309  -13.8618 C   0  0  0  0  0  0  0  0  0  0  0  0
   13.1789  -12.7005  -12.9663 S   0  0  0  0  0  0  0  0  0  0  0  0
   16.0633  -12.3716  -13.8367 C   0  0  0  0  0  0  0  0  0  0  0  0
   16.8526  -12.9379  -13.0199 O   0  0  0  0  0  0  0  0  0  0  0  0
   18.8261  -10.4292  -14.5861 C   0  0  0  0  0  0  0  0  0  0  0  0
   17.9207   -9.4334  -13.8987 C   0  0  1  0  0  0  0  0  0  0  0  0
   17.3650   -8.6227  -14.8855 O   0  0  0  0  0  0  0  0  0  0  0  0
   16.8443  -10.1353  -13.0894 C   0  0  2  0  0  0  0  0  0  0  0  0
   15.9973  -10.9488  -13.9041 N   0  0  0  0  0  0  0  0  0  0  0  0
   16.0325   -9.1413  -12.3304 C   0  0  0  0  0  0  0  0  0  0  0  0
   14.9111   -8.8012  -12.7867 O   0  0  0  0  0  0  0  0  0  0  0  0
   15.5085   -6.3672   -6.8627 C   0  0  0  0  0  0  0  0  0  0  0  0
   15.0398   -6.4880   -8.3124 C   0  0  2  0  0  0  0  0  0  0  0  0
   13.5492   -6.5181   -8.3106 C   0  0  0  0  0  0  0  0  0  0  0  0
   15.6896   -7.6508   -8.9953 C   0  0  0  0  0  0  0  0  0  0  0  0
   15.7064   -7.4926  -10.4657 C   0  0  2  0  0  0  0  0  0  0  0  0
   16.4547   -8.5597  -11.1243 N   0  0  0  0  0  0  0  0  0  0  0  0
   16.2441   -6.2045  -10.9079 C   0  0  0  0  0  0  0  0  0  0  0  0
   17.4423   -6.0257  -11.1416 O   0  0  0  0  0  0  0  0  0  0  0  0
   15.3940   -5.1194  -11.0806 O   0  0  0  0  0  0  0  0  0  0  0  0
  2  1  1  1
  3  2  1  0
  4  3  1  0
  5 11  1  0
  5  2  1  0
  6  5  2  0
  8 10  1  0
  8  7  1  6
  9  8  1  0
 10 11  1  6
 10 12  1  0
 12 19  1  0
 13 12  2  0
 15 14  1  1
 16 15  1  0
 17 15  1  0
 18 17  1  1
 19 18  1  0
 20 18  1  0
 20 22  1  0
 21 20  2  0
M  END
$$$$
