CTL.pdb
     RDKit          3D

 22 21  0  0  1  0  0  0  0  0999 V2000
   18.5465  -10.7761  -15.7261 N   0  0  0  0  0  0  0  0  0  0  0  0
   19.2444   -9.7020  -16.3976 C   0  0  1  0  0  0  0  0  0  0  0  0
   18.4610   -9.3723  -17.6672 C   0  0  0  0  0  0  0  0  0  0  0  0
   18.5798  -10.7369  -18.8468 S   0  0  0  0  0  0  0  0  0  0  0  0
   19.3587   -8.5030  -15.5426 C   0  0  0  0  0  0  0  0  0  0  0  0
   18.4174   -8.2820  -14.7203 O   0  0  0  0  0  0  0  0  0  0  0  0
   21.9281   -5.1703  -13.1349 C   0  0  0  0  0  0  0  0  0  0  0  0
   21.8597   -6.4042  -14.0048 C   0  0  1  0  0  0  0  0  0  0  0  0
   22.0107   -7.5112  -13.1732 O   0  0  0  0  0  0  0  0  0  0  0  0
   20.5510   -6.4645  -14.7729 C   0  0  2  0  0  0  0  0  0  0  0  0
   20.4711   -7.6142  -15.6184 N   0  0  0  0  0  0  0  0  0  0  0  0
   20.3586   -5.2205  -15.5720 C   0  0  0  0  0  0  0  0  0  0  0  0
   21.0802   -5.0342  -16.5848 O   0  0  0  0  0  0  0  0  0  0  0  0
   16.2846   -0.6629  -16.5540 C   0  0  0  0  0  0  0  0  0  0  0  0
   17.5782   -1.3917  -16.9165 C   0  0  2  0  0  0  0  0  0  0  0  0
   17.5297   -1.7142  -18.3712 C   0  0  0  0  0  0  0  0  0  0  0  0
   17.8043   -2.5693  -16.0204 C   0  0  0  0  0  0  0  0  0  0  0  0
   19.2013   -3.0513  -16.0789 C   0  0  2  0  0  0  0  0  0  0  0  0
   19.4079   -4.2377  -15.2530 N   0  0  0  0  0  0  0  0  0  0  0  0
   20.1850   -2.0377  -15.6930 C   0  0  0  0  0  0  0  0  0  0  0  0
   20.6649   -1.2330  -16.4957 O   0  0  0  0  0  0  0  0  0  0  0  0
   20.6153   -1.9539  -14.3748 O   0  0  0  0  0  0  0  0  0  0  0  0
  2  1  1  1
  3  2  1  0
  4  3  1  0
  5 11  1  0
  5  2  1  0
  6  5  2  0
  8 10  1  0
  8  7  1  1
  9  8  1  0
 10 11  1  6
 10 12  1  0
 12 19  1  0
 13 12  2  0
 15 14  1  1
 16 15  1  0
 17 15  1  0
 18 17  1  1
 19 18  1  0
 20 18  1  0
 20 22  1  0
 21 20  2  0
M  END
$$$$
