CTL.pdb
     RDKit          3D

 22 21  0  0  1  0  0  0  0  0999 V2000
   27.1141  -12.6568  -18.7879 N   0  0  0  0  0  0  0  0  0  0  0  0
   27.5500  -11.7139  -17.7816 C   0  0  1  0  0  0  0  0  0  0  0  0
   27.5521  -12.4461  -16.4406 C   0  0  0  0  0  0  0  0  0  0  0  0
   25.8612  -12.8558  -15.9498 S   0  0  0  0  0  0  0  0  0  0  0  0
   28.8964  -11.1819  -18.0748 C   0  0  0  0  0  0  0  0  0  0  0  0
   29.7811  -12.0107  -18.4506 O   0  0  0  0  0  0  0  0  0  0  0  0
   29.8545   -9.5312  -20.8647 C   0  0  0  0  0  0  0  0  0  0  0  0
   30.2792   -8.5689  -19.7796 C   0  0  1  0  0  0  0  0  0  0  0  0
   29.3093   -7.5724  -19.7012 O   0  0  0  0  0  0  0  0  0  0  0  0
   30.4497   -9.2800  -18.4487 C   0  0  2  0  0  0  0  0  0  0  0  0
   29.2148   -9.7978  -17.9485 N   0  0  0  0  0  0  0  0  0  0  0  0
   31.0715   -8.3676  -17.4468 C   0  0  0  0  0  0  0  0  0  0  0  0
   30.3553   -7.9061  -16.5220 O   0  0  0  0  0  0  0  0  0  0  0  0
   34.4560   -8.8675  -14.7188 C   0  0  0  0  0  0  0  0  0  0  0  0
   34.9725   -8.4722  -16.1019 C   0  0  2  0  0  0  0  0  0  0  0  0
   36.4563   -8.6165  -16.0949 C   0  0  0  0  0  0  0  0  0  0  0  0
   34.4762   -7.1163  -16.4969 C   0  0  0  0  0  0  0  0  0  0  0  0
   32.9988   -7.0514  -16.5221 C   0  0  2  0  0  0  0  0  0  0  0  0
   32.4242   -7.9925  -17.4795 N   0  0  0  0  0  0  0  0  0  0  0  0
   32.4783   -5.7142  -16.8131 C   0  0  0  0  0  0  0  0  0  0  0  0
   32.0775   -5.3822  -17.9317 O   0  0  0  0  0  0  0  0  0  0  0  0
   32.4209   -4.7574  -15.8075 O   0  0  0  0  0  0  0  0  0  0  0  0
  2  1  1  6
  3  2  1  0
  4  3  1  0
  5 11  1  0
  5  2  1  0
  6  5  2  0
  8 10  1  0
  8  7  1  6
  9  8  1  0
 10 11  1  1
 10 12  1  0
 12 19  1  0
 13 12  2  0
 15 14  1  1
 16 15  1  0
 17 15  1  0
 18 17  1  6
 19 18  1  0
 20 18  1  0
 20 22  1  0
 21 20  2  0
M  END
$$$$
