CTL.pdb
     RDKit          3D

 22 21  0  0  1  0  0  0  0  0999 V2000
   16.4971  -13.1294  -17.3696 N   0  0  0  0  0  0  0  0  0  0  0  0
   16.1398  -12.0236  -16.5085 C   0  0  1  0  0  0  0  0  0  0  0  0
   16.3030  -12.4979  -15.0653 C   0  0  0  0  0  0  0  0  0  0  0  0
   14.8007  -13.3357  -14.5094 S   0  0  0  0  0  0  0  0  0  0  0  0
   16.9877  -10.8397  -16.7556 C   0  0  0  0  0  0  0  0  0  0  0  0
   18.2001  -11.0465  -17.0689 O   0  0  0  0  0  0  0  0  0  0  0  0
   17.4499   -5.9977  -17.6595 C   0  0  0  0  0  0  0  0  0  0  0  0
   16.5361   -7.1505  -17.3134 C   0  0  1  0  0  0  0  0  0  0  0  0
   15.7310   -7.3940  -18.4235 O   0  0  0  0  0  0  0  0  0  0  0  0
   17.3302   -8.3854  -16.9254 C   0  0  2  0  0  0  0  0  0  0  0  0
   16.4884   -9.5080  -16.6529 N   0  0  0  0  0  0  0  0  0  0  0  0
   18.2022   -8.0958  -15.7511 C   0  0  0  0  0  0  0  0  0  0  0  0
   17.7306   -8.2472  -14.5953 O   0  0  0  0  0  0  0  0  0  0  0  0
   23.6154   -7.0940  -13.8369 C   0  0  0  0  0  0  0  0  0  0  0  0
   22.4423   -8.0121  -13.4945 C   0  0  2  0  0  0  0  0  0  0  0  0
   22.9940   -9.2402  -12.8543 C   0  0  0  0  0  0  0  0  0  0  0  0
   21.5837   -8.2622  -14.6949 C   0  0  0  0  0  0  0  0  0  0  0  0
   20.3764   -7.4078  -14.7017 C   0  0  2  0  0  0  0  0  0  0  0  0
   19.5320   -7.6599  -15.8661 N   0  0  0  0  0  0  0  0  0  0  0  0
   20.6749   -5.9756  -14.6436 C   0  0  0  0  0  0  0  0  0  0  0  0
   20.7925   -5.3604  -13.5807 O   0  0  0  0  0  0  0  0  0  0  0  0
   20.8380   -5.2519  -15.8183 O   0  0  0  0  0  0  0  0  0  0  0  0
  2  1  1  6
  3  2  1  0
  4  3  1  0
  5 11  1  0
  5  2  1  0
  6  5  2  0
  8 10  1  0
  8  7  1  6
  9  8  1  0
 10 11  1  1
 10 12  1  0
 12 19  1  0
 13 12  2  0
 15 14  1  6
 16 15  1  0
 17 15  1  0
 18 17  1  6
 19 18  1  0
 20 18  1  0
 20 22  1  0
 21 20  2  0
M  END
$$$$
