NWD.pdb
     RDKit          3D

 31 32  0  0  1  0  0  0  0  0999 V2000
   28.1584  -21.7542  -18.5012 N   0  0  0  0  0  0  0  0  0  0  0  0
   26.7493  -22.0290  -18.5520 C   0  0  0  0  0  0  0  0  0  0  0  0
   26.1860  -21.8191  -19.6252 O   0  0  0  0  0  0  0  0  0  0  0  0
   26.1090  -22.5233  -17.3595 C   0  0  0  0  0  0  0  0  0  0  0  0
   26.9772  -22.6703  -16.1287 C   0  0  2  0  0  0  0  0  0  0  0  0
   27.4031  -24.0952  -16.1266 N   0  0  0  0  0  0  0  0  0  0  0  0
   26.2647  -22.4540  -14.8602 C   0  0  0  0  0  0  0  0  0  0  0  0
   25.5964  -23.4260  -14.3799 O   0  0  0  0  0  0  0  0  0  0  0  0
   26.2560  -21.2634  -14.1185 N   0  0  0  0  0  0  0  0  0  0  0  0
   25.5095  -21.1511  -12.8530 C   0  0  1  0  0  0  0  0  0  0  0  0
   26.0788  -20.0481  -11.9945 C   0  0  0  0  0  0  0  0  0  0  0  0
   27.2042  -20.4655  -11.1435 C   0  0  0  0  0  0  0  0  0  0  0  0
   28.3840  -21.0005  -11.5914 C   0  0  0  0  0  0  0  0  0  0  0  0
   29.1603  -21.2512  -10.5434 N   0  0  0  0  0  0  0  0  0  0  0  0
   28.5510  -20.9061   -9.3948 C   0  0  0  0  0  0  0  0  0  0  0  0
   28.9630  -20.9823   -8.0850 C   0  0  0  0  0  0  0  0  0  0  0  0
   28.1043  -20.5421   -7.0859 C   0  0  0  0  0  0  0  0  0  0  0  0
   26.8642  -20.0424   -7.4446 C   0  0  0  0  0  0  0  0  0  0  0  0
   26.4616  -19.9706   -8.7604 C   0  0  0  0  0  0  0  0  0  0  0  0
   27.3075  -20.4062   -9.7711 C   0  0  0  0  0  0  0  0  0  0  0  0
   24.1251  -20.7539  -13.2192 C   0  0  0  0  0  0  0  0  0  0  0  0
   23.8813  -19.8393  -14.0436 O   0  0  0  0  0  0  0  0  0  0  0  0
   22.9960  -21.3971  -12.6477 N   0  0  0  0  0  0  0  0  0  0  0  0
   21.6172  -20.9354  -12.9482 C   0  0  1  0  0  0  0  0  0  0  0  0
   20.6988  -22.1310  -12.9522 C   0  0  0  0  0  0  0  0  0  0  0  0
   20.8585  -22.9064  -14.1821 C   0  0  0  0  0  0  0  0  0  0  0  0
   20.8436  -24.1534  -14.2220 O   0  0  0  0  0  0  0  0  0  0  0  0
   21.2496  -19.9326  -11.9188 C   0  0  0  0  0  0  0  0  0  0  0  0
   21.8470  -19.9029  -10.7888 O   0  0  0  0  0  0  0  0  0  0  0  0
   21.0446  -22.2822  -15.4346 O   0  0  0  0  0  0  0  0  0  0  0  0
   20.2756  -19.0046  -12.1137 O   0  0  0  0  0  0  0  0  0  0  0  0
  1  2  1  0
  2  3  2  0
  4  2  1  0
  4  5  1  0
  5  7  1  0
  5  6  1  1
  7  8  2  0
  9 10  1  0
  9  7  1  0
 10 11  1  1
 11 12  1  0
 12 13  2  0
 14 13  1  0
 15 14  1  0
 16 15  2  0
 17 16  1  0
 18 19  1  0
 18 17  2  0
 19 20  2  0
 20 15  1  0
 20 12  1  0
 21 22  2  0
 21 10  1  0
 23 21  1  0
 24 28  1  0
 24 23  1  0
 24 25  1  1
 26 25  1  0
 26 27  2  0
 28 31  1  0
 29 28  2  0
 30 26  1  0
M  END
$$$$
