NWD.pdb
     RDKit          3D

 31 32  0  0  1  0  0  0  0  0999 V2000
   25.5668  -19.2999  -15.7535 N   0  0  0  0  0  0  0  0  0  0  0  0
   26.9304  -19.5072  -16.1552 C   0  0  0  0  0  0  0  0  0  0  0  0
   27.1444  -19.5687  -17.3649 O   0  0  0  0  0  0  0  0  0  0  0  0
   27.9323  -19.6258  -15.1264 C   0  0  0  0  0  0  0  0  0  0  0  0
   28.1064  -20.9908  -14.4964 C   0  0  2  0  0  0  0  0  0  0  0  0
   27.4519  -21.9359  -15.4398 N   0  0  0  0  0  0  0  0  0  0  0  0
   27.4139  -21.1521  -13.2088 C   0  0  0  0  0  0  0  0  0  0  0  0
   26.2719  -21.7159  -13.2139 O   0  0  0  0  0  0  0  0  0  0  0  0
   27.9019  -20.7415  -11.9594 N   0  0  0  0  0  0  0  0  0  0  0  0
   27.1215  -20.9412  -10.7255 C   0  0  1  0  0  0  0  0  0  0  0  0
   27.8740  -20.4145   -9.5280 C   0  0  0  0  0  0  0  0  0  0  0  0
   27.1704  -20.5902   -8.2478 C   0  0  0  0  0  0  0  0  0  0  0  0
   25.9510  -21.1952   -8.0873 C   0  0  0  0  0  0  0  0  0  0  0  0
   25.6341  -21.1741   -6.7977 N   0  0  0  0  0  0  0  0  0  0  0  0
   26.5953  -20.5751   -6.0718 C   0  0  0  0  0  0  0  0  0  0  0  0
   26.6996  -20.3286   -4.7229 C   0  0  0  0  0  0  0  0  0  0  0  0
   27.8305  -19.6781   -4.2463 C   0  0  0  0  0  0  0  0  0  0  0  0
   28.8122  -19.3012   -5.1463 C   0  0  0  0  0  0  0  0  0  0  0  0
   28.6974  -19.5532   -6.4961 C   0  0  0  0  0  0  0  0  0  0  0  0
   27.5738  -20.2023   -6.9890 C   0  0  0  0  0  0  0  0  0  0  0  0
   25.8933  -20.1174  -10.8709 C   0  0  0  0  0  0  0  0  0  0  0  0
   25.9293  -18.9001  -11.1746 O   0  0  0  0  0  0  0  0  0  0  0  0
   24.6025  -20.6735  -10.6707 N   0  0  0  0  0  0  0  0  0  0  0  0
   23.3884  -20.0030  -11.2011 C   0  0  1  0  0  0  0  0  0  0  0  0
   23.4194  -20.0710  -12.7069 C   0  0  0  0  0  0  0  0  0  0  0  0
   22.2251  -19.4519  -13.2810 C   0  0  0  0  0  0  0  0  0  0  0  0
   21.0629  -19.7113  -12.9083 O   0  0  0  0  0  0  0  0  0  0  0  0
   22.2102  -20.6914  -10.6195 C   0  0  0  0  0  0  0  0  0  0  0  0
   21.3357  -20.0427   -9.9496 O   0  0  0  0  0  0  0  0  0  0  0  0
   22.3087  -18.4983  -14.3186 O   0  0  0  0  0  0  0  0  0  0  0  0
   21.9958  -22.0261  -10.7630 O   0  0  0  0  0  0  0  0  0  0  0  0
  1  2  1  0
  2  3  2  0
  4  2  1  0
  4  5  1  0
  5  7  1  0
  5  6  1  6
  7  8  2  0
  9 10  1  0
  9  7  1  0
 10 11  1  1
 11 12  1  0
 12 13  2  0
 14 13  1  0
 15 14  1  0
 16 15  2  0
 17 16  1  0
 18 19  1  0
 18 17  2  0
 19 20  2  0
 20 15  1  0
 20 12  1  0
 21 22  2  0
 21 10  1  0
 23 21  1  0
 24 28  1  0
 24 23  1  0
 24 25  1  6
 26 25  1  0
 26 27  2  0
 28 31  1  0
 29 28  2  0
 30 26  1  0
M  END
$$$$
