NWD.pdb
     RDKit          3D

 31 32  0  0  1  0  0  0  0  0999 V2000
   27.3986  -20.9526  -19.1551 N   0  0  0  0  0  0  0  0  0  0  0  0
   27.8032  -20.4084  -17.8888 C   0  0  0  0  0  0  0  0  0  0  0  0
   28.6914  -19.5577  -17.9140 O   0  0  0  0  0  0  0  0  0  0  0  0
   27.1484  -20.8918  -16.6998 C   0  0  0  0  0  0  0  0  0  0  0  0
   28.0399  -21.4032  -15.5888 C   0  0  2  0  0  0  0  0  0  0  0  0
   28.4559  -22.7628  -16.0248 N   0  0  0  0  0  0  0  0  0  0  0  0
   27.3542  -21.5787  -14.2995 C   0  0  0  0  0  0  0  0  0  0  0  0
   26.3140  -22.3131  -14.2738 O   0  0  0  0  0  0  0  0  0  0  0  0
   27.7463  -21.0088  -13.0791 N   0  0  0  0  0  0  0  0  0  0  0  0
   26.9601  -21.2087  -11.8490 C   0  0  1  0  0  0  0  0  0  0  0  0
   27.6895  -20.6470  -10.6531 C   0  0  0  0  0  0  0  0  0  0  0  0
   26.9033  -20.6519   -9.4095 C   0  0  0  0  0  0  0  0  0  0  0  0
   25.5771  -20.9832   -9.3086 C   0  0  0  0  0  0  0  0  0  0  0  0
   25.2096  -20.8773   -8.0368 N   0  0  0  0  0  0  0  0  0  0  0  0
   26.2394  -20.4845   -7.2653 C   0  0  0  0  0  0  0  0  0  0  0  0
   26.3279  -20.2465   -5.9138 C   0  0  0  0  0  0  0  0  0  0  0  0
   27.5463  -19.8428   -5.3831 C   0  0  0  0  0  0  0  0  0  0  0  0
   28.6282  -19.6947   -6.2338 C   0  0  0  0  0  0  0  0  0  0  0  0
   28.5283  -19.9360   -7.5867 C   0  0  0  0  0  0  0  0  0  0  0  0
   27.3181  -20.3400   -8.1334 C   0  0  0  0  0  0  0  0  0  0  0  0
   25.7142  -20.4163  -12.0169 C   0  0  0  0  0  0  0  0  0  0  0  0
   25.7232  -19.1725  -12.1848 O   0  0  0  0  0  0  0  0  0  0  0  0
   24.4365  -21.0346  -11.9953 N   0  0  0  0  0  0  0  0  0  0  0  0
   23.2069  -20.2645  -12.3109 C   0  0  1  0  0  0  0  0  0  0  0  0
   22.8977  -20.4301  -13.7772 C   0  0  0  0  0  0  0  0  0  0  0  0
   21.6658  -19.7263  -14.1325 C   0  0  0  0  0  0  0  0  0  0  0  0
   21.0423  -18.9819  -13.3488 O   0  0  0  0  0  0  0  0  0  0  0  0
   22.1247  -20.7758  -11.4347 C   0  0  0  0  0  0  0  0  0  0  0  0
   21.9451  -22.0320  -11.2784 O   0  0  0  0  0  0  0  0  0  0  0  0
   21.0862  -19.8445  -15.4143 O   0  0  0  0  0  0  0  0  0  0  0  0
   21.2779  -19.9542  -10.7595 O   0  0  0  0  0  0  0  0  0  0  0  0
  1  2  1  0
  2  3  2  0
  4  2  1  0
  4  5  1  0
  5  7  1  0
  5  6  1  6
  7  8  2  0
  9 10  1  0
  9  7  1  0
 10 11  1  1
 11 12  1  0
 12 13  2  0
 14 13  1  0
 15 14  1  0
 16 15  2  0
 17 16  1  0
 18 19  1  0
 18 17  2  0
 19 20  2  0
 20 15  1  0
 20 12  1  0
 21 22  2  0
 21 10  1  0
 23 21  1  0
 24 28  1  0
 24 23  1  0
 24 25  1  6
 26 25  1  0
 26 27  2  0
 28 31  1  0
 29 28  2  0
 30 26  1  0
M  END
$$$$
