NWD.pdb
     RDKit          3D

 31 32  0  0  1  0  0  0  0  0999 V2000
   13.9219  -21.8639    2.5394 N   0  0  0  0  0  0  0  0  0  0  0  0
   15.0638  -21.3382    1.8442 C   0  0  0  0  0  0  0  0  0  0  0  0
   15.2166  -21.7057    0.6803 O   0  0  0  0  0  0  0  0  0  0  0  0
   15.9331  -20.4321    2.5510 C   0  0  0  0  0  0  0  0  0  0  0  0
   15.5236  -20.0494    3.9568 C   0  0  2  0  0  0  0  0  0  0  0  0
   14.3319  -19.1764    3.7859 N   0  0  0  0  0  0  0  0  0  0  0  0
   16.5218  -19.2434    4.6761 C   0  0  0  0  0  0  0  0  0  0  0  0
   17.7382  -19.6173    4.6238 O   0  0  0  0  0  0  0  0  0  0  0  0
   16.2565  -18.0842    5.4202 N   0  0  0  0  0  0  0  0  0  0  0  0
   17.3329  -17.3461    6.1040 C   0  0  1  0  0  0  0  0  0  0  0  0
   17.1655  -15.8587    5.9102 C   0  0  0  0  0  0  0  0  0  0  0  0
   17.6648  -15.3581    4.6199 C   0  0  0  0  0  0  0  0  0  0  0  0
   17.5569  -16.0095    3.4188 C   0  0  0  0  0  0  0  0  0  0  0  0
   18.1156  -15.2575    2.4774 N   0  0  0  0  0  0  0  0  0  0  0  0
   18.6019  -14.1148    2.9945 C   0  0  0  0  0  0  0  0  0  0  0  0
   19.2519  -13.0531    2.4101 C   0  0  0  0  0  0  0  0  0  0  0  0
   19.6462  -11.9873    3.2087 C   0  0  0  0  0  0  0  0  0  0  0  0
   19.3706  -12.0319    4.5644 C   0  0  0  0  0  0  0  0  0  0  0  0
   18.7186  -13.1008    5.1396 C   0  0  0  0  0  0  0  0  0  0  0  0
   18.3177  -14.1741    4.3560 C   0  0  0  0  0  0  0  0  0  0  0  0
   17.1712  -17.6219    7.5552 C   0  0  0  0  0  0  0  0  0  0  0  0
   16.0472  -17.7820    8.0905 O   0  0  0  0  0  0  0  0  0  0  0  0
   18.2939  -17.7192    8.4186 N   0  0  0  0  0  0  0  0  0  0  0  0
   18.1220  -17.9142    9.8805 C   0  0  1  0  0  0  0  0  0  0  0  0
   19.4054  -18.4661   10.4472 C   0  0  0  0  0  0  0  0  0  0  0  0
   19.2217  -18.8921   11.8343 C   0  0  0  0  0  0  0  0  0  0  0  0
   18.1244  -18.8661   12.4276 O   0  0  0  0  0  0  0  0  0  0  0  0
   17.7545  -16.6010   10.4643 C   0  0  0  0  0  0  0  0  0  0  0  0
   18.4467  -15.5553   10.2152 O   0  0  0  0  0  0  0  0  0  0  0  0
   20.2974  -19.3717   12.6126 O   0  0  0  0  0  0  0  0  0  0  0  0
   16.6809  -16.4363   11.2817 O   0  0  0  0  0  0  0  0  0  0  0  0
  1  2  1  0
  2  3  2  0
  4  2  1  0
  4  5  1  0
  5  7  1  0
  5  6  1  6
  7  8  2  0
  9 10  1  0
  9  7  1  0
 10 11  1  1
 11 12  1  0
 12 13  2  0
 14 13  1  0
 15 14  1  0
 16 15  2  0
 17 16  1  0
 18 19  1  0
 18 17  2  0
 19 20  2  0
 20 15  1  0
 20 12  1  0
 21 22  2  0
 21 10  1  0
 23 21  1  0
 24 28  1  0
 24 23  1  0
 24 25  1  1
 26 25  1  0
 26 27  2  0
 28 31  1  0
 29 28  2  0
 30 26  1  0
M  END
$$$$
