NWD.pdb
     RDKit          3D

 31 32  0  0  1  0  0  0  0  0999 V2000
   28.3243  -22.5914  -19.5459 N   0  0  0  0  0  0  0  0  0  0  0  0
   27.1867  -23.3967  -19.1980 C   0  0  0  0  0  0  0  0  0  0  0  0
   26.6539  -24.0213  -20.1140 O   0  0  0  0  0  0  0  0  0  0  0  0
   26.7599  -23.4132  -17.8219 C   0  0  0  0  0  0  0  0  0  0  0  0
   27.5662  -22.5832  -16.8464 C   0  0  2  0  0  0  0  0  0  0  0  0
   28.7857  -23.3890  -16.5724 N   0  0  0  0  0  0  0  0  0  0  0  0
   26.9106  -22.3774  -15.5459 C   0  0  0  0  0  0  0  0  0  0  0  0
   26.2865  -23.3614  -15.0319 O   0  0  0  0  0  0  0  0  0  0  0  0
   26.9123  -21.1847  -14.8076 N   0  0  0  0  0  0  0  0  0  0  0  0
   26.2694  -21.0982  -13.4846 C   0  0  1  0  0  0  0  0  0  0  0  0
   26.8650  -19.9721  -12.6753 C   0  0  0  0  0  0  0  0  0  0  0  0
   27.7010  -20.4150  -11.5485 C   0  0  0  0  0  0  0  0  0  0  0  0
   28.9828  -20.8902  -11.6482 C   0  0  0  0  0  0  0  0  0  0  0  0
   29.4200  -21.1884  -10.4301 N   0  0  0  0  0  0  0  0  0  0  0  0
   28.4806  -20.9334   -9.5016 C   0  0  0  0  0  0  0  0  0  0  0  0
   28.4846  -21.0834   -8.1346 C   0  0  0  0  0  0  0  0  0  0  0  0
   27.3480  -20.7304   -7.4186 C   0  0  0  0  0  0  0  0  0  0  0  0
   26.2517  -20.2399   -8.1068 C   0  0  0  0  0  0  0  0  0  0  0  0
   26.2585  -20.0935   -9.4769 C   0  0  0  0  0  0  0  0  0  0  0  0
   27.3862  -20.4417  -10.2076 C   0  0  0  0  0  0  0  0  0  0  0  0
   24.8452  -20.7555  -13.7345 C   0  0  0  0  0  0  0  0  0  0  0  0
   24.4971  -19.8852  -14.5693 O   0  0  0  0  0  0  0  0  0  0  0  0
   23.7950  -21.4033  -13.0326 N   0  0  0  0  0  0  0  0  0  0  0  0
   22.3755  -21.0363  -13.2675 C   0  0  1  0  0  0  0  0  0  0  0  0
   21.5683  -22.3015  -13.4115 C   0  0  0  0  0  0  0  0  0  0  0  0
   21.7032  -22.8550  -14.7586 C   0  0  0  0  0  0  0  0  0  0  0  0
   21.6700  -22.1651  -15.7978 O   0  0  0  0  0  0  0  0  0  0  0  0
   21.9363  -20.2024  -12.1222 C   0  0  0  0  0  0  0  0  0  0  0  0
   22.7124  -19.9912  -11.1284 O   0  0  0  0  0  0  0  0  0  0  0  0
   21.8838  -24.2376  -14.9789 O   0  0  0  0  0  0  0  0  0  0  0  0
   20.7070  -19.6250  -12.0642 O   0  0  0  0  0  0  0  0  0  0  0  0
  1  2  1  0
  2  3  2  0
  4  2  1  0
  4  5  1  0
  5  7  1  0
  5  6  1  1
  7  8  2  0
  9 10  1  0
  9  7  1  0
 10 11  1  1
 11 12  1  0
 12 13  2  0
 14 13  1  0
 15 14  1  0
 16 15  2  0
 17 16  1  0
 18 19  1  0
 18 17  2  0
 19 20  2  0
 20 15  1  0
 20 12  1  0
 21 22  2  0
 21 10  1  0
 23 21  1  0
 24 28  1  0
 24 23  1  0
 24 25  1  1
 26 25  1  0
 26 27  2  0
 28 31  1  0
 29 28  2  0
 30 26  1  0
M  END
$$$$
