NWD.pdb
     RDKit          3D

 31 32  0  0  1  0  0  0  0  0999 V2000
   28.9218  -17.7796  -16.0205 N   0  0  0  0  0  0  0  0  0  0  0  0
   27.8366  -18.4723  -16.6578 C   0  0  0  0  0  0  0  0  0  0  0  0
   27.5461  -18.1103  -17.7969 O   0  0  0  0  0  0  0  0  0  0  0  0
   27.1782  -19.5249  -15.9264 C   0  0  0  0  0  0  0  0  0  0  0  0
   27.7107  -19.8324  -14.5435 C   0  0  2  0  0  0  0  0  0  0  0  0
   28.8306  -20.7852  -14.7660 N   0  0  0  0  0  0  0  0  0  0  0  0
   26.7515  -20.5248  -13.6695 C   0  0  0  0  0  0  0  0  0  0  0  0
   26.1786  -21.5679  -14.1232 O   0  0  0  0  0  0  0  0  0  0  0  0
   26.4076  -20.1412  -12.3647 N   0  0  0  0  0  0  0  0  0  0  0  0
   25.4978  -20.9542  -11.5386 C   0  0  1  0  0  0  0  0  0  0  0  0
   25.6324  -20.5888  -10.0804 C   0  0  0  0  0  0  0  0  0  0  0  0
   26.9566  -20.8744   -9.5063 C   0  0  0  0  0  0  0  0  0  0  0  0
   27.9079  -21.6866  -10.0668 C   0  0  0  0  0  0  0  0  0  0  0  0
   28.9718  -21.7038   -9.2722 N   0  0  0  0  0  0  0  0  0  0  0  0
   28.7799  -20.9313   -8.1877 C   0  0  0  0  0  0  0  0  0  0  0  0
   29.5904  -20.6501   -7.1129 C   0  0  0  0  0  0  0  0  0  0  0  0
   29.1176  -19.7997   -6.1217 C   0  0  0  0  0  0  0  0  0  0  0  0
   27.8472  -19.2656   -6.2513 C   0  0  0  0  0  0  0  0  0  0  0  0
   27.0434  -19.5541   -7.3326 C   0  0  0  0  0  0  0  0  0  0  0  0
   27.5004  -20.4020   -8.3320 C   0  0  0  0  0  0  0  0  0  0  0  0
   24.1187  -20.5927  -11.9576 C   0  0  0  0  0  0  0  0  0  0  0  0
   23.6938  -19.4118  -11.9335 O   0  0  0  0  0  0  0  0  0  0  0  0
   23.2022  -21.5772  -12.4113 N   0  0  0  0  0  0  0  0  0  0  0  0
   21.8503  -21.2004  -12.8963 C   0  0  1  0  0  0  0  0  0  0  0  0
   21.3114  -22.3253  -13.7433 C   0  0  0  0  0  0  0  0  0  0  0  0
   19.9479  -22.0364  -14.1867 C   0  0  0  0  0  0  0  0  0  0  0  0
   18.9277  -22.3543  -13.5425 O   0  0  0  0  0  0  0  0  0  0  0  0
   21.0107  -20.9262  -11.7046 C   0  0  0  0  0  0  0  0  0  0  0  0
   21.1434  -21.6150  -10.6357 O   0  0  0  0  0  0  0  0  0  0  0  0
   19.6885  -21.3637  -15.4004 O   0  0  0  0  0  0  0  0  0  0  0  0
   20.0701  -19.9450  -11.6801 O   0  0  0  0  0  0  0  0  0  0  0  0
  1  2  1  0
  2  3  2  0
  4  2  1  0
  4  5  1  0
  5  7  1  0
  5  6  1  6
  7  8  2  0
  9 10  1  0
  9  7  1  0
 10 11  1  1
 11 12  1  0
 12 13  2  0
 14 13  1  0
 15 14  1  0
 16 15  2  0
 17 16  1  0
 18 19  1  0
 18 17  2  0
 19 20  2  0
 20 15  1  0
 20 12  1  0
 21 22  2  0
 21 10  1  0
 23 21  1  0
 24 28  1  0
 24 23  1  0
 24 25  1  1
 26 25  1  0
 26 27  2  0
 28 31  1  0
 29 28  2  0
 30 26  1  0
M  END
$$$$
