NWD.pdb
     RDKit          3D

 31 32  0  0  1  0  0  0  0  0999 V2000
   27.7807  -23.2261  -18.4558 N   0  0  0  0  0  0  0  0  0  0  0  0
   26.3774  -22.9195  -18.4341 C   0  0  0  0  0  0  0  0  0  0  0  0
   25.8562  -22.6507  -19.5154 O   0  0  0  0  0  0  0  0  0  0  0  0
   25.6938  -22.9492  -17.1660 C   0  0  0  0  0  0  0  0  0  0  0  0
   26.5325  -23.2590  -15.9449 C   0  0  2  0  0  0  0  0  0  0  0  0
   26.6051  -24.7435  -15.8949 N   0  0  0  0  0  0  0  0  0  0  0  0
   25.9247  -22.8357  -14.6742 C   0  0  0  0  0  0  0  0  0  0  0  0
   25.2515  -23.6969  -14.0205 O   0  0  0  0  0  0  0  0  0  0  0  0
   26.0221  -21.5570  -14.1056 N   0  0  0  0  0  0  0  0  0  0  0  0
   25.3557  -21.2284  -12.8331 C   0  0  1  0  0  0  0  0  0  0  0  0
   26.0164  -20.0408  -12.1768 C   0  0  0  0  0  0  0  0  0  0  0  0
   27.1018  -20.3912  -11.2473 C   0  0  0  0  0  0  0  0  0  0  0  0
   28.3380  -20.8598  -11.6090 C   0  0  0  0  0  0  0  0  0  0  0  0
   29.0527  -21.0631  -10.5083 N   0  0  0  0  0  0  0  0  0  0  0  0
   28.3468  -20.7496   -9.4068 C   0  0  0  0  0  0  0  0  0  0  0  0
   28.6707  -20.7984   -8.0712 C   0  0  0  0  0  0  0  0  0  0  0  0
   27.7214  -20.4047   -7.1369 C   0  0  0  0  0  0  0  0  0  0  0  0
   26.4831  -19.9771   -7.5837 C   0  0  0  0  0  0  0  0  0  0  0  0
   26.1691  -19.9321   -8.9246 C   0  0  0  0  0  0  0  0  0  0  0  0
   27.1062  -20.3220   -9.8714 C   0  0  0  0  0  0  0  0  0  0  0  0
   23.9687  -20.8240  -13.1809 C   0  0  0  0  0  0  0  0  0  0  0  0
   23.7122  -20.0314  -14.1198 O   0  0  0  0  0  0  0  0  0  0  0  0
   22.8513  -21.3202  -12.4595 N   0  0  0  0  0  0  0  0  0  0  0  0
   21.4722  -20.8718  -12.7787 C   0  0  1  0  0  0  0  0  0  0  0  0
   20.5089  -21.9668  -12.3966 C   0  0  0  0  0  0  0  0  0  0  0  0
   20.1993  -22.8135  -13.5483 C   0  0  0  0  0  0  0  0  0  0  0  0
   20.6110  -22.5885  -14.7044 O   0  0  0  0  0  0  0  0  0  0  0  0
   21.2315  -19.6105  -12.0361 C   0  0  0  0  0  0  0  0  0  0  0  0
   21.8670  -19.3528  -10.9570 O   0  0  0  0  0  0  0  0  0  0  0  0
   19.3956  -23.9678  -13.4268 O   0  0  0  0  0  0  0  0  0  0  0  0
   20.3390  -18.6733  -12.4521 O   0  0  0  0  0  0  0  0  0  0  0  0
  1  2  1  0
  2  3  2  0
  4  2  1  0
  4  5  1  0
  5  7  1  0
  5  6  1  1
  7  8  2  0
  9 10  1  0
  9  7  1  0
 10 11  1  6
 11 12  1  0
 12 13  2  0
 14 13  1  0
 15 14  1  0
 16 15  2  0
 17 16  1  0
 18 19  1  0
 18 17  2  0
 19 20  2  0
 20 15  1  0
 20 12  1  0
 21 22  2  0
 21 10  1  0
 23 21  1  0
 24 28  1  0
 24 23  1  0
 24 25  1  1
 26 25  1  0
 26 27  2  0
 28 31  1  0
 29 28  2  0
 30 26  1  0
M  END
$$$$
