NWD.pdb
     RDKit          3D

 31 32  0  0  1  0  0  0  0  0999 V2000
   28.0566  -18.8599  -21.1299 N   0  0  0  0  0  0  0  0  0  0  0  0
   28.6878  -19.7855  -20.2307 C   0  0  0  0  0  0  0  0  0  0  0  0
   29.8939  -19.9694  -20.3877 O   0  0  0  0  0  0  0  0  0  0  0  0
   27.8736  -20.4208  -19.2259 C   0  0  0  0  0  0  0  0  0  0  0  0
   27.2591  -19.5212  -18.1754 C   0  0  2  0  0  0  0  0  0  0  0  0
   28.3779  -18.6639  -17.7013 N   0  0  0  0  0  0  0  0  0  0  0  0
   26.7590  -20.2344  -16.9901 C   0  0  0  0  0  0  0  0  0  0  0  0
   26.0363  -21.2662  -17.1775 O   0  0  0  0  0  0  0  0  0  0  0  0
   27.0105  -19.8822  -15.6558 N   0  0  0  0  0  0  0  0  0  0  0  0
   26.3452  -20.5757  -14.5388 C   0  0  1  0  0  0  0  0  0  0  0  0
   27.0649  -20.3062  -13.2399 C   0  0  0  0  0  0  0  0  0  0  0  0
   26.4482  -20.9420  -12.0650 C   0  0  0  0  0  0  0  0  0  0  0  0
   25.9570  -22.2208  -12.0191 C   0  0  0  0  0  0  0  0  0  0  0  0
   25.4818  -22.4486  -10.8001 N   0  0  0  0  0  0  0  0  0  0  0  0
   25.6313  -21.3689  -10.0116 C   0  0  0  0  0  0  0  0  0  0  0  0
   25.2939  -21.1454   -8.6973 C   0  0  0  0  0  0  0  0  0  0  0  0
   25.5752  -19.9070   -8.1348 C   0  0  0  0  0  0  0  0  0  0  0  0
   26.1854  -18.9420   -8.9174 C   0  0  0  0  0  0  0  0  0  0  0  0
   26.5193  -19.1767  -10.2334 C   0  0  0  0  0  0  0  0  0  0  0  0
   26.2452  -20.4088  -10.8111 C   0  0  0  0  0  0  0  0  0  0  0  0
   24.9901  -19.9768  -14.4238 C   0  0  0  0  0  0  0  0  0  0  0  0
   24.7999  -18.7362  -14.4069 O   0  0  0  0  0  0  0  0  0  0  0  0
   23.8293  -20.7881  -14.3261 N   0  0  0  0  0  0  0  0  0  0  0  0
   22.4874  -20.1853  -14.1245 C   0  0  1  0  0  0  0  0  0  0  0  0
   21.6767  -20.3831  -15.3801 C   0  0  0  0  0  0  0  0  0  0  0  0
   20.3154  -19.8773  -15.2063 C   0  0  0  0  0  0  0  0  0  0  0  0
   19.9763  -19.1009  -14.2904 O   0  0  0  0  0  0  0  0  0  0  0  0
   21.8796  -20.8389  -12.9397 C   0  0  0  0  0  0  0  0  0  0  0  0
   22.1169  -22.0667  -12.6737 O   0  0  0  0  0  0  0  0  0  0  0  0
   19.2702  -20.2419  -16.0824 O   0  0  0  0  0  0  0  0  0  0  0  0
   21.0515  -20.1828  -12.0843 O   0  0  0  0  0  0  0  0  0  0  0  0
  1  2  1  0
  2  3  2  0
  4  2  1  0
  4  5  1  0
  5  7  1  0
  5  6  1  1
  7  8  2  0
  9 10  1  0
  9  7  1  0
 10 11  1  1
 11 12  1  0
 12 13  2  0
 14 13  1  0
 15 14  1  0
 16 15  2  0
 17 16  1  0
 18 19  1  0
 18 17  2  0
 19 20  2  0
 20 15  1  0
 20 12  1  0
 21 22  2  0
 21 10  1  0
 23 21  1  0
 24 28  1  0
 24 23  1  0
 24 25  1  6
 26 25  1  0
 26 27  2  0
 28 31  1  0
 29 28  2  0
 30 26  1  0
M  END
$$$$
