NWD.pdb
     RDKit          3D

 31 32  0  0  1  0  0  0  0  0999 V2000
   29.6248  -17.3691  -15.4039 N   0  0  0  0  0  0  0  0  0  0  0  0
   28.8216  -18.0736  -16.3643 C   0  0  0  0  0  0  0  0  0  0  0  0
   28.9199  -17.7109  -17.5356 O   0  0  0  0  0  0  0  0  0  0  0  0
   27.9726  -19.1376  -15.8917 C   0  0  0  0  0  0  0  0  0  0  0  0
   28.0077  -19.4315  -14.4075 C   0  0  2  0  0  0  0  0  0  0  0  0
   29.3116  -20.1096  -14.1805 N   0  0  0  0  0  0  0  0  0  0  0  0
   26.9722  -20.3735  -13.9559 C   0  0  0  0  0  0  0  0  0  0  0  0
   26.1887  -20.8619  -14.8332 O   0  0  0  0  0  0  0  0  0  0  0  0
   26.7672  -20.7928  -12.6331 N   0  0  0  0  0  0  0  0  0  0  0  0
   25.7185  -21.7693  -12.2896 C   0  0  1  0  0  0  0  0  0  0  0  0
   25.8681  -22.2313  -10.8606 C   0  0  0  0  0  0  0  0  0  0  0  0
   26.1999  -21.1577   -9.9107 C   0  0  0  0  0  0  0  0  0  0  0  0
   25.3631  -20.1372   -9.5403 C   0  0  0  0  0  0  0  0  0  0  0  0
   25.9990  -19.3636   -8.6679 N   0  0  0  0  0  0  0  0  0  0  0  0
   27.2417  -19.8206   -8.4300 C   0  0  0  0  0  0  0  0  0  0  0  0
   28.2450  -19.3527   -7.6142 C   0  0  0  0  0  0  0  0  0  0  0  0
   29.4487  -20.0442   -7.5688 C   0  0  0  0  0  0  0  0  0  0  0  0
   29.5953  -21.1799   -8.3465 C   0  0  0  0  0  0  0  0  0  0  0  0
   28.5832  -21.6399   -9.1604 C   0  0  0  0  0  0  0  0  0  0  0  0
   27.3740  -20.9608   -9.2176 C   0  0  0  0  0  0  0  0  0  0  0  0
   24.4254  -21.0434  -12.3845 C   0  0  0  0  0  0  0  0  0  0  0  0
   24.2654  -19.8867  -11.9240 O   0  0  0  0  0  0  0  0  0  0  0  0
   23.2929  -21.6295  -13.0083 N   0  0  0  0  0  0  0  0  0  0  0  0
   22.0124  -20.8869  -13.1259 C   0  0  1  0  0  0  0  0  0  0  0  0
   21.8221  -20.4797  -14.5650 C   0  0  0  0  0  0  0  0  0  0  0  0
   20.5018  -19.8840  -14.7675 C   0  0  0  0  0  0  0  0  0  0  0  0
   20.1986  -18.7303  -14.4017 O   0  0  0  0  0  0  0  0  0  0  0  0
   20.9341  -21.7789  -12.6343 C   0  0  0  0  0  0  0  0  0  0  0  0
   21.0192  -23.0474  -12.7692 O   0  0  0  0  0  0  0  0  0  0  0  0
   19.4582  -20.5899  -15.4044 O   0  0  0  0  0  0  0  0  0  0  0  0
   19.8148  -21.3085  -12.0230 O   0  0  0  0  0  0  0  0  0  0  0  0
  1  2  1  0
  2  3  2  0
  4  2  1  0
  4  5  1  0
  5  7  1  0
  5  6  1  6
  7  8  2  0
  9 10  1  0
  9  7  1  0
 10 11  1  1
 11 12  1  0
 12 13  2  0
 14 13  1  0
 15 14  1  0
 16 15  2  0
 17 16  1  0
 18 19  1  0
 18 17  2  0
 19 20  2  0
 20 15  1  0
 20 12  1  0
 21 22  2  0
 21 10  1  0
 23 21  1  0
 24 28  1  0
 24 23  1  0
 24 25  1  6
 26 25  1  0
 26 27  2  0
 28 31  1  0
 29 28  2  0
 30 26  1  0
M  END
$$$$
