NWD.pdb
     RDKit          3D

 31 32  0  0  1  0  0  0  0  0999 V2000
   26.0986  -19.5866  -17.4508 N   0  0  0  0  0  0  0  0  0  0  0  0
   26.8445  -19.3790  -16.2408 C   0  0  0  0  0  0  0  0  0  0  0  0
   27.8987  -18.7538  -16.3447 O   0  0  0  0  0  0  0  0  0  0  0  0
   26.3105  -19.9105  -15.0125 C   0  0  0  0  0  0  0  0  0  0  0  0
   27.1967  -20.8614  -14.2373 C   0  0  2  0  0  0  0  0  0  0  0  0
   27.1029  -22.1545  -14.9656 N   0  0  0  0  0  0  0  0  0  0  0  0
   26.7372  -21.1294  -12.8660 C   0  0  0  0  0  0  0  0  0  0  0  0
   25.7731  -21.9469  -12.7106 O   0  0  0  0  0  0  0  0  0  0  0  0
   27.2714  -20.5649  -11.6982 N   0  0  0  0  0  0  0  0  0  0  0  0
   26.6877  -20.8413  -10.3737 C   0  0  1  0  0  0  0  0  0  0  0  0
   27.5076  -20.1938   -9.2845 C   0  0  0  0  0  0  0  0  0  0  0  0
   26.9865  -20.4124   -7.9260 C   0  0  0  0  0  0  0  0  0  0  0  0
   25.8234  -21.0683   -7.6166 C   0  0  0  0  0  0  0  0  0  0  0  0
   25.6789  -21.0746   -6.2964 N   0  0  0  0  0  0  0  0  0  0  0  0
   26.7034  -20.4450   -5.6933 C   0  0  0  0  0  0  0  0  0  0  0  0
   26.9753  -20.2096   -4.3660 C   0  0  0  0  0  0  0  0  0  0  0  0
   28.1329  -19.5189   -4.0315 C   0  0  0  0  0  0  0  0  0  0  0  0
   28.9719  -19.0922   -5.0465 C   0  0  0  0  0  0  0  0  0  0  0  0
   28.6898  -19.3336   -6.3734 C   0  0  0  0  0  0  0  0  0  0  0  0
   27.5371  -20.0224   -6.7250 C   0  0  0  0  0  0  0  0  0  0  0  0
   25.3510  -20.1923  -10.3634 C   0  0  0  0  0  0  0  0  0  0  0  0
   25.2061  -18.9455  -10.3703 O   0  0  0  0  0  0  0  0  0  0  0  0
   24.1569  -20.9599  -10.3448 N   0  0  0  0  0  0  0  0  0  0  0  0
   22.8334  -20.3241  -10.5660 C   0  0  1  0  0  0  0  0  0  0  0  0
   22.3417  -20.7006  -11.9406 C   0  0  0  0  0  0  0  0  0  0  0  0
   21.0066  -20.1551  -12.1838 C   0  0  0  0  0  0  0  0  0  0  0  0
   20.6175  -19.0538  -11.7449 O   0  0  0  0  0  0  0  0  0  0  0  0
   21.9300  -20.7898   -9.4856 C   0  0  0  0  0  0  0  0  0  0  0  0
   20.6896  -20.4804   -9.4885 O   0  0  0  0  0  0  0  0  0  0  0  0
   20.0469  -20.8533  -12.9482 O   0  0  0  0  0  0  0  0  0  0  0  0
   22.3603  -21.5584   -8.4502 O   0  0  0  0  0  0  0  0  0  0  0  0
  1  2  1  0
  2  3  2  0
  4  2  1  0
  4  5  1  0
  5  7  1  0
  5  6  1  6
  7  8  2  0
  9 10  1  0
  9  7  1  0
 10 11  1  1
 11 12  1  0
 12 13  2  0
 14 13  1  0
 15 14  1  0
 16 15  2  0
 17 16  1  0
 18 19  1  0
 18 17  2  0
 19 20  2  0
 20 15  1  0
 20 12  1  0
 21 22  2  0
 21 10  1  0
 23 21  1  0
 24 28  1  0
 24 23  1  0
 24 25  1  6
 26 25  1  0
 26 27  2  0
 28 31  1  0
 29 28  2  0
 30 26  1  0
M  END
$$$$
