NWD.pdb
     RDKit          3D

 31 32  0  0  1  0  0  0  0  0999 V2000
   29.0343  -19.4637  -17.0880 N   0  0  0  0  0  0  0  0  0  0  0  0
   27.6553  -19.7593  -17.3611 C   0  0  0  0  0  0  0  0  0  0  0  0
   27.2116  -19.3672  -18.4393 O   0  0  0  0  0  0  0  0  0  0  0  0
   26.9044  -20.4829  -16.3666 C   0  0  0  0  0  0  0  0  0  0  0  0
   27.6306  -20.8387  -15.0874 C   0  0  2  0  0  0  0  0  0  0  0  0
   28.4706  -22.0151  -15.4365 N   0  0  0  0  0  0  0  0  0  0  0  0
   26.7473  -21.2758  -13.9955 C   0  0  0  0  0  0  0  0  0  0  0  0
   26.1499  -22.3931  -14.1246 O   0  0  0  0  0  0  0  0  0  0  0  0
   26.5017  -20.5700  -12.8084 N   0  0  0  0  0  0  0  0  0  0  0  0
   25.5686  -21.0810  -11.7888 C   0  0  1  0  0  0  0  0  0  0  0  0
   25.7882  -20.3839  -10.4683 C   0  0  0  0  0  0  0  0  0  0  0  0
   27.0926  -20.6635   -9.8477 C   0  0  0  0  0  0  0  0  0  0  0  0
   28.0876  -21.4286  -10.3987 C   0  0  0  0  0  0  0  0  0  0  0  0
   29.1156  -21.4556   -9.5584 N   0  0  0  0  0  0  0  0  0  0  0  0
   28.8569  -20.7354   -8.4520 C   0  0  0  0  0  0  0  0  0  0  0  0
   29.6122  -20.4824   -7.3309 C   0  0  0  0  0  0  0  0  0  0  0  0
   29.0751  -19.6868   -6.3270 C   0  0  0  0  0  0  0  0  0  0  0  0
   27.7987  -19.1769   -6.4910 C   0  0  0  0  0  0  0  0  0  0  0  0
   27.0507  -19.4368   -7.6186 C   0  0  0  0  0  0  0  0  0  0  0  0
   27.5723  -20.2300   -8.6313 C   0  0  0  0  0  0  0  0  0  0  0  0
   24.2040  -20.7217  -12.2547 C   0  0  0  0  0  0  0  0  0  0  0  0
   23.9144  -19.5746  -12.6739 O   0  0  0  0  0  0  0  0  0  0  0  0
   23.1475  -21.6698  -12.2486 N   0  0  0  0  0  0  0  0  0  0  0  0
   21.8097  -21.3303  -12.7962 C   0  0  1  0  0  0  0  0  0  0  0  0
   21.1879  -22.5827  -13.3601 C   0  0  0  0  0  0  0  0  0  0  0  0
   19.8622  -22.3034  -13.9112 C   0  0  0  0  0  0  0  0  0  0  0  0
   19.6133  -21.3389  -14.6626 O   0  0  0  0  0  0  0  0  0  0  0  0
   21.0136  -20.7411  -11.6920 C   0  0  0  0  0  0  0  0  0  0  0  0
   21.2792  -21.0163  -10.4720 O   0  0  0  0  0  0  0  0  0  0  0  0
   18.7503  -23.1243  -13.6235 O   0  0  0  0  0  0  0  0  0  0  0  0
   19.9758  -19.8903  -11.9090 O   0  0  0  0  0  0  0  0  0  0  0  0
  1  2  1  0
  2  3  2  0
  4  2  1  0
  4  5  1  0
  5  7  1  0
  5  6  1  6
  7  8  2  0
  9 10  1  0
  9  7  1  0
 10 11  1  1
 11 12  1  0
 12 13  2  0
 14 13  1  0
 15 14  1  0
 16 15  2  0
 17 16  1  0
 18 19  1  0
 18 17  2  0
 19 20  2  0
 20 15  1  0
 20 12  1  0
 21 22  2  0
 21 10  1  0
 23 21  1  0
 24 28  1  0
 24 23  1  0
 24 25  1  1
 26 25  1  0
 26 27  2  0
 28 31  1  0
 29 28  2  0
 30 26  1  0
M  END
$$$$
