NWD.pdb
     RDKit          3D

 31 32  0  0  1  0  0  0  0  0999 V2000
   24.7154  -21.4584   -7.3925 N   0  0  0  0  0  0  0  0  0  0  0  0
   23.5275  -21.1409   -8.1353 C   0  0  0  0  0  0  0  0  0  0  0  0
   22.4618  -21.2108   -7.5250 O   0  0  0  0  0  0  0  0  0  0  0  0
   23.6699  -20.7692   -9.5202 C   0  0  0  0  0  0  0  0  0  0  0  0
   25.0595  -20.8606  -10.1127 C   0  0  2  0  0  0  0  0  0  0  0  0
   25.8640  -19.8601   -9.3622 N   0  0  0  0  0  0  0  0  0  0  0  0
   25.1370  -20.4696  -11.5285 C   0  0  0  0  0  0  0  0  0  0  0  0
   25.1754  -19.2261  -11.8011 O   0  0  0  0  0  0  0  0  0  0  0  0
   25.1773  -21.3496  -12.6202 N   0  0  0  0  0  0  0  0  0  0  0  0
   25.2837  -20.8542  -14.0038 C   0  0  1  0  0  0  0  0  0  0  0  0
   26.3807  -21.5778  -14.7461 C   0  0  0  0  0  0  0  0  0  0  0  0
   27.6738  -20.8760  -14.7463 C   0  0  0  0  0  0  0  0  0  0  0  0
   28.7394  -21.1722  -13.9366 C   0  0  0  0  0  0  0  0  0  0  0  0
   29.7312  -20.3352  -14.2184 N   0  0  0  0  0  0  0  0  0  0  0  0
   29.3795  -19.4770  -15.1929 C   0  0  0  0  0  0  0  0  0  0  0  0
   30.0690  -18.4535  -15.7998 C   0  0  0  0  0  0  0  0  0  0  0  0
   29.4392  -17.7206  -16.7974 C   0  0  0  0  0  0  0  0  0  0  0  0
   28.1397  -18.0468  -17.1453 C   0  0  0  0  0  0  0  0  0  0  0  0
   27.4581  -19.0745  -16.5306 C   0  0  0  0  0  0  0  0  0  0  0  0
   28.0727  -19.8168  -15.5317 C   0  0  0  0  0  0  0  0  0  0  0  0
   24.0005  -21.1982  -14.6698 C   0  0  0  0  0  0  0  0  0  0  0  0
   23.2770  -22.1507  -14.2894 O   0  0  0  0  0  0  0  0  0  0  0  0
   23.5238  -20.4574  -15.7830 N   0  0  0  0  0  0  0  0  0  0  0  0
   22.0733  -20.1991  -15.9675 C   0  0  1  0  0  0  0  0  0  0  0  0
   21.5311  -19.5738  -14.7073 C   0  0  0  0  0  0  0  0  0  0  0  0
   20.1221  -19.2161  -14.8678 C   0  0  0  0  0  0  0  0  0  0  0  0
   19.1780  -19.9059  -14.4320 O   0  0  0  0  0  0  0  0  0  0  0  0
   21.9251  -19.3210  -17.1537 C   0  0  0  0  0  0  0  0  0  0  0  0
   20.9341  -19.4555  -17.9502 O   0  0  0  0  0  0  0  0  0  0  0  0
   19.7264  -18.0404  -15.5416 O   0  0  0  0  0  0  0  0  0  0  0  0
   22.8170  -18.3407  -17.4565 O   0  0  0  0  0  0  0  0  0  0  0  0
  1  2  1  0
  2  3  2  0
  4  2  1  0
  4  5  1  0
  5  7  1  0
  5  6  1  1
  7  8  2  0
  9 10  1  0
  9  7  1  0
 10 11  1  6
 11 12  1  0
 12 13  2  0
 14 13  1  0
 15 14  1  0
 16 15  2  0
 17 16  1  0
 18 19  1  0
 18 17  2  0
 19 20  2  0
 20 15  1  0
 20 12  1  0
 21 22  2  0
 21 10  1  0
 23 21  1  0
 24 28  1  0
 24 23  1  0
 24 25  1  1
 26 25  1  0
 26 27  2  0
 28 31  1  0
 29 28  2  0
 30 26  1  0
M  END
$$$$
