NWD.pdb
     RDKit          3D

 31 32  0  0  1  0  0  0  0  0999 V2000
   29.0091  -22.3364  -17.3965 N   0  0  0  0  0  0  0  0  0  0  0  0
   28.9356  -21.2524  -16.4566 C   0  0  0  0  0  0  0  0  0  0  0  0
   29.3680  -20.1651  -16.8358 O   0  0  0  0  0  0  0  0  0  0  0  0
   28.3691  -21.5150  -15.1580 C   0  0  0  0  0  0  0  0  0  0  0  0
   27.0269  -20.8834  -14.8578 C   0  0  2  0  0  0  0  0  0  0  0  0
   27.3131  -19.4337  -14.6902 N   0  0  0  0  0  0  0  0  0  0  0  0
   26.4208  -21.3299  -13.5943 C   0  0  0  0  0  0  0  0  0  0  0  0
   26.1596  -22.5698  -13.4650 O   0  0  0  0  0  0  0  0  0  0  0  0
   26.1034  -20.5080  -12.5027 N   0  0  0  0  0  0  0  0  0  0  0  0
   25.2694  -20.9953  -11.3899 C   0  0  1  0  0  0  0  0  0  0  0  0
   25.6584  -20.3203  -10.0972 C   0  0  0  0  0  0  0  0  0  0  0  0
   26.9993  -20.6787   -9.6089 C   0  0  0  0  0  0  0  0  0  0  0  0
   27.9011  -21.4708  -10.2707 C   0  0  0  0  0  0  0  0  0  0  0  0
   28.9995  -21.5713   -9.5311 N   0  0  0  0  0  0  0  0  0  0  0  0
   28.8788  -20.8751   -8.3863 C   0  0  0  0  0  0  0  0  0  0  0  0
   29.7453  -20.6923   -7.3342 C   0  0  0  0  0  0  0  0  0  0  0  0
   29.3420  -19.9050   -6.2633 C   0  0  0  0  0  0  0  0  0  0  0  0
   28.0821  -19.3324   -6.2936 C   0  0  0  0  0  0  0  0  0  0  0  0
   27.2219  -19.5222   -7.3531 C   0  0  0  0  0  0  0  0  0  0  0  0
   27.6091  -20.3060   -8.4312 C   0  0  0  0  0  0  0  0  0  0  0  0
   23.8763  -20.5818  -11.7006 C   0  0  0  0  0  0  0  0  0  0  0  0
   23.5859  -19.4216  -12.0816 O   0  0  0  0  0  0  0  0  0  0  0  0
   22.7916  -21.4897  -11.5803 N   0  0  0  0  0  0  0  0  0  0  0  0
   21.3998  -21.0644  -11.8748 C   0  0  1  0  0  0  0  0  0  0  0  0
   20.9744  -21.6806  -13.1834 C   0  0  0  0  0  0  0  0  0  0  0  0
   21.3243  -20.8114  -14.3065 C   0  0  0  0  0  0  0  0  0  0  0  0
   20.8115  -19.6908  -14.5015 O   0  0  0  0  0  0  0  0  0  0  0  0
   20.5528  -21.4945  -10.7356 C   0  0  0  0  0  0  0  0  0  0  0  0
   19.3011  -21.2350  -10.7137 O   0  0  0  0  0  0  0  0  0  0  0  0
   22.2871  -21.1904  -15.2670 O   0  0  0  0  0  0  0  0  0  0  0  0
   21.0487  -22.1768   -9.6695 O   0  0  0  0  0  0  0  0  0  0  0  0
  1  2  1  0
  2  3  2  0
  4  2  1  0
  4  5  1  0
  5  7  1  0
  5  6  1  1
  7  8  2  0
  9 10  1  0
  9  7  1  0
 10 11  1  1
 11 12  1  0
 12 13  2  0
 14 13  1  0
 15 14  1  0
 16 15  2  0
 17 16  1  0
 18 19  1  0
 18 17  2  0
 19 20  2  0
 20 15  1  0
 20 12  1  0
 21 22  2  0
 21 10  1  0
 23 21  1  0
 24 28  1  0
 24 23  1  0
 24 25  1  6
 26 25  1  0
 26 27  2  0
 28 31  1  0
 29 28  2  0
 30 26  1  0
M  END
$$$$
