LVG.pdb
     RDKit          3D

 20 19  0  0  1  0  0  0  0  0999 V2000
    8.7815  -14.2985   19.4898 C   0  0  0  0  0  0  0  0  0  0  0  0
    8.1223  -13.4075   20.5465 C   0  0  1  0  0  0  0  0  0  0  0  0
    7.5730  -12.1977   19.8307 C   0  0  0  0  0  0  0  0  0  0  0  0
    7.0152  -14.2349   21.1653 C   0  0  0  0  0  0  0  0  0  0  0  0
    7.5664  -15.2011   22.2017 C   0  0  2  0  0  0  0  0  0  0  0  0
    6.5845  -16.1576   22.6085 N   0  0  0  0  0  0  0  0  0  0  0  0
    8.1472  -14.4416   23.3163 C   0  0  0  0  0  0  0  0  0  0  0  0
    9.2950  -13.9459   23.1620 O   0  0  0  0  0  0  0  0  0  0  0  0
    5.9068  -13.3437   26.8853 C   0  0  0  0  0  0  0  0  0  0  0  0
    7.0832  -12.6611   26.2863 C   0  0  2  0  0  0  0  0  0  0  0  0
    6.5631  -11.6242   25.3022 C   0  0  0  0  0  0  0  0  0  0  0  0
    8.1245  -13.5393   25.6818 C   0  0  2  0  0  0  0  0  0  0  0  0
    7.4870  -14.2346   24.5586 N   0  0  0  0  0  0  0  0  0  0  0  0
    8.7030  -14.5507   26.5659 C   0  0  0  0  0  0  0  0  0  0  0  0
    9.2578  -14.2064   27.6709 O   0  0  0  0  0  0  0  0  0  0  0  0
    8.7127  -15.9493   26.3127 N   0  0  0  0  0  0  0  0  0  0  0  0
    9.2532  -16.8945   27.3041 C   0  0  0  0  0  0  0  0  0  0  0  0
   10.3145  -17.6922   26.6611 C   0  0  0  0  0  0  0  0  0  0  0  0
   10.3267  -17.8922   25.4198 O   0  0  0  0  0  0  0  0  0  0  0  0
   11.3431  -18.2511   27.4219 O   0  0  0  0  0  0  0  0  0  0  0  0
  2  1  1  6
  3  2  1  0
  4  2  1  0
  5  7  1  0
  5  4  1  0
  5  6  1  1
  7  8  2  0
 10  9  1  6
 10 11  1  0
 10 12  1  0
 12 14  1  0
 13  7  1  0
 12 13  1  6
 14 15  2  0
 16 14  1  0
 16 17  1  0
 18 17  1  0
 18 20  1  0
 19 18  2  0
M  END
$$$$
