LVG.pdb
     RDKit          3D

 20 19  0  0  1  0  0  0  0  0999 V2000
    7.1162  -11.7998   27.7889 C   0  0  0  0  0  0  0  0  0  0  0  0
    6.3820  -13.0632   27.3305 C   0  0  1  0  0  0  0  0  0  0  0  0
    5.1804  -12.6170   26.5338 C   0  0  0  0  0  0  0  0  0  0  0  0
    7.3624  -13.8325   26.4701 C   0  0  0  0  0  0  0  0  0  0  0  0
    6.6766  -14.9848   25.7537 C   0  0  2  0  0  0  0  0  0  0  0  0
    6.2342  -15.9894   26.6699 N   0  0  0  0  0  0  0  0  0  0  0  0
    7.5594  -15.4970   24.6978 C   0  0  0  0  0  0  0  0  0  0  0  0
    8.2942  -16.4845   24.9662 O   0  0  0  0  0  0  0  0  0  0  0  0
    8.3397  -13.4632   20.8747 C   0  0  0  0  0  0  0  0  0  0  0  0
    8.0158  -14.9028   21.0511 C   0  0  2  0  0  0  0  0  0  0  0  0
    6.5238  -15.0729   20.8086 C   0  0  0  0  0  0  0  0  0  0  0  0
    8.4541  -15.5308   22.3296 C   0  0  2  0  0  0  0  0  0  0  0  0
    7.6310  -14.9413   23.3909 N   0  0  0  0  0  0  0  0  0  0  0  0
    9.8582  -15.3379   22.6909 C   0  0  0  0  0  0  0  0  0  0  0  0
   10.2116  -14.3355   23.4104 O   0  0  0  0  0  0  0  0  0  0  0  0
   10.9266  -16.1929   22.3070 N   0  0  0  0  0  0  0  0  0  0  0  0
   12.3135  -15.8964   22.7029 C   0  0  0  0  0  0  0  0  0  0  0  0
   13.1880  -16.9647   22.1828 C   0  0  0  0  0  0  0  0  0  0  0  0
   12.7238  -17.9397   21.5387 O   0  0  0  0  0  0  0  0  0  0  0  0
   14.5672  -16.9201   22.3946 O   0  0  0  0  0  0  0  0  0  0  0  0
  2  1  1  6
  3  2  1  0
  4  2  1  0
  5  7  1  0
  5  4  1  0
  5  6  1  1
  7  8  2  0
 10  9  1  1
 10 11  1  0
 10 12  1  0
 12 14  1  0
 13  7  1  0
 12 13  1  1
 14 15  2  0
 16 14  1  0
 16 17  1  0
 18 17  1  0
 18 20  1  0
 19 18  2  0
M  END
$$$$
