LVG.pdb
     RDKit          3D

 20 19  0  0  1  0  0  0  0  0999 V2000
    5.7284  -19.2561   22.7088 C   0  0  0  0  0  0  0  0  0  0  0  0
    6.0866  -17.8992   22.0957 C   0  0  1  0  0  0  0  0  0  0  0  0
    4.7941  -17.2463   21.6706 C   0  0  0  0  0  0  0  0  0  0  0  0
    6.7723  -17.1091   23.1906 C   0  0  0  0  0  0  0  0  0  0  0  0
    7.0848  -15.6936   22.7319 C   0  0  2  0  0  0  0  0  0  0  0  0
    7.7214  -15.6806   21.4517 N   0  0  0  0  0  0  0  0  0  0  0  0
    7.8479  -14.9997   23.7772 C   0  0  0  0  0  0  0  0  0  0  0  0
    9.1039  -14.9820   23.6818 O   0  0  0  0  0  0  0  0  0  0  0  0
    5.9139  -12.9866   27.1142 C   0  0  0  0  0  0  0  0  0  0  0  0
    7.2005  -12.5920   26.4836 C   0  0  2  0  0  0  0  0  0  0  0  0
    6.8947  -11.5321   25.4362 C   0  0  0  0  0  0  0  0  0  0  0  0
    8.0401  -13.6963   25.9393 C   0  0  2  0  0  0  0  0  0  0  0  0
    7.2489  -14.3473   24.8897 N   0  0  0  0  0  0  0  0  0  0  0  0
    8.4478  -14.7242   26.8967 C   0  0  0  0  0  0  0  0  0  0  0  0
    9.1270  -14.4080   27.9388 O   0  0  0  0  0  0  0  0  0  0  0  0
    8.1517  -16.1098   26.7849 N   0  0  0  0  0  0  0  0  0  0  0  0
    8.5201  -17.0516   27.8551 C   0  0  0  0  0  0  0  0  0  0  0  0
    9.8434  -17.6231   27.5415 C   0  0  0  0  0  0  0  0  0  0  0  0
   10.0452  -18.2748   26.4853 O   0  0  0  0  0  0  0  0  0  0  0  0
   10.9167  -17.4534   28.4182 O   0  0  0  0  0  0  0  0  0  0  0  0
  2  1  1  1
  3  2  1  0
  4  2  1  0
  5  7  1  0
  5  4  1  0
  5  6  1  6
  7  8  2  0
 10  9  1  6
 10 11  1  0
 10 12  1  0
 12 14  1  0
 13  7  1  0
 12 13  1  6
 14 15  2  0
 16 14  1  0
 16 17  1  0
 18 17  1  0
 18 20  1  0
 19 18  2  0
M  END
$$$$
