LVG.pdb
     RDKit          3D

 20 19  0  0  1  0  0  0  0  0999 V2000
    6.1269  -13.0595   26.5143 C   0  0  0  0  0  0  0  0  0  0  0  0
    7.5239  -13.6852   26.4679 C   0  0  1  0  0  0  0  0  0  0  0  0
    8.4333  -12.8087   27.2940 C   0  0  0  0  0  0  0  0  0  0  0  0
    7.3878  -15.0670   27.0722 C   0  0  0  0  0  0  0  0  0  0  0  0
    6.7221  -16.0277   26.0999 C   0  0  2  0  0  0  0  0  0  0  0  0
    6.3746  -17.2629   26.7308 N   0  0  0  0  0  0  0  0  0  0  0  0
    7.5738  -16.1900   24.9147 C   0  0  0  0  0  0  0  0  0  0  0  0
    8.4296  -17.1145   24.9212 O   0  0  0  0  0  0  0  0  0  0  0  0
    6.3166  -15.2013   21.0695 C   0  0  0  0  0  0  0  0  0  0  0  0
    7.6921  -14.8021   21.4662 C   0  0  2  0  0  0  0  0  0  0  0  0
    8.5507  -14.7955   20.2105 C   0  0  0  0  0  0  0  0  0  0  0  0
    8.3172  -15.5811   22.5723 C   0  0  2  0  0  0  0  0  0  0  0  0
    7.4866  -15.3628   23.7613 N   0  0  0  0  0  0  0  0  0  0  0  0
    9.6930  -15.2202   22.9133 C   0  0  0  0  0  0  0  0  0  0  0  0
    9.9470  -14.1022   23.4902 O   0  0  0  0  0  0  0  0  0  0  0  0
   10.8368  -16.0245   22.6582 N   0  0  0  0  0  0  0  0  0  0  0  0
   12.1908  -15.5350   22.9670 C   0  0  0  0  0  0  0  0  0  0  0  0
   13.1591  -16.6002   22.6444 C   0  0  0  0  0  0  0  0  0  0  0  0
   12.7831  -17.7373   22.2614 O   0  0  0  0  0  0  0  0  0  0  0  0
   14.5316  -16.3708   22.7572 O   0  0  0  0  0  0  0  0  0  0  0  0
  2  1  1  1
  3  2  1  0
  4  2  1  0
  5  7  1  0
  5  4  1  0
  5  6  1  1
  7  8  2  0
 10  9  1  6
 10 11  1  0
 10 12  1  0
 12 14  1  0
 13  7  1  0
 12 13  1  1
 14 15  2  0
 16 14  1  0
 16 17  1  0
 18 17  1  0
 18 20  1  0
 19 18  2  0
M  END
$$$$
