LVG.pdb
     RDKit          3D

 20 19  0  0  1  0  0  0  0  0999 V2000
    5.6239  -11.9078   26.7421 C   0  0  0  0  0  0  0  0  0  0  0  0
    6.8523  -12.7287   26.3390 C   0  0  1  0  0  0  0  0  0  0  0  0
    7.9663  -12.3606   27.2883 C   0  0  0  0  0  0  0  0  0  0  0  0
    6.4558  -14.1826   26.4878 C   0  0  0  0  0  0  0  0  0  0  0  0
    7.4902  -15.1006   25.8563 C   0  0  2  0  0  0  0  0  0  0  0  0
    8.8197  -14.6099   26.0466 N   0  0  0  0  0  0  0  0  0  0  0  0
    7.1425  -15.3313   24.4483 C   0  0  0  0  0  0  0  0  0  0  0  0
    5.9969  -15.7853   24.1869 O   0  0  0  0  0  0  0  0  0  0  0  0
    7.4779  -14.2903   19.7326 C   0  0  0  0  0  0  0  0  0  0  0  0
    7.7648  -14.1721   21.1860 C   0  0  2  0  0  0  0  0  0  0  0  0
    9.1035  -13.4654   21.3358 C   0  0  0  0  0  0  0  0  0  0  0  0
    7.7002  -15.4311   21.9807 C   0  0  2  0  0  0  0  0  0  0  0  0
    8.0259  -15.0712   23.3648 N   0  0  0  0  0  0  0  0  0  0  0  0
    8.6117  -16.4979   21.5678 C   0  0  0  0  0  0  0  0  0  0  0  0
    8.4528  -17.0869   20.4386 O   0  0  0  0  0  0  0  0  0  0  0  0
    9.7137  -16.9726   22.3296 N   0  0  0  0  0  0  0  0  0  0  0  0
   10.5660  -18.0642   21.8293 C   0  0  0  0  0  0  0  0  0  0  0  0
   11.8015  -17.4781   21.2759 C   0  0  0  0  0  0  0  0  0  0  0  0
   11.8302  -16.9666   20.1276 O   0  0  0  0  0  0  0  0  0  0  0  0
   12.9826  -17.4763   22.0203 O   0  0  0  0  0  0  0  0  0  0  0  0
  2  1  1  1
  3  2  1  0
  4  2  1  0
  5  7  1  0
  5  4  1  0
  5  6  1  6
  7  8  2  0
 10  9  1  6
 10 11  1  0
 10 12  1  0
 12 14  1  0
 13  7  1  0
 12 13  1  1
 14 15  2  0
 16 14  1  0
 16 17  1  0
 18 17  1  0
 18 20  1  0
 19 18  2  0
M  END
$$$$
