LVG.pdb
     RDKit          3D

 20 19  0  0  1  0  0  0  0  0999 V2000
    7.5237  -12.7892   18.9407 C   0  0  0  0  0  0  0  0  0  0  0  0
    7.5216  -14.0328   19.8345 C   0  0  1  0  0  0  0  0  0  0  0  0
    8.0837  -15.1705   19.0175 C   0  0  0  0  0  0  0  0  0  0  0  0
    8.4122  -13.7058   21.0148 C   0  0  0  0  0  0  0  0  0  0  0  0
    8.2912  -14.7615   22.1021 C   0  0  2  0  0  0  0  0  0  0  0  0
    6.9896  -15.3529   22.1231 N   0  0  0  0  0  0  0  0  0  0  0  0
    8.6975  -14.1841   23.3898 C   0  0  0  0  0  0  0  0  0  0  0  0
    9.8401  -13.6599   23.4707 O   0  0  0  0  0  0  0  0  0  0  0  0
    7.1598  -11.8401   27.3940 C   0  0  0  0  0  0  0  0  0  0  0  0
    7.0136  -12.7237   26.2081 C   0  0  2  0  0  0  0  0  0  0  0  0
    5.8451  -13.6610   26.4725 C   0  0  0  0  0  0  0  0  0  0  0  0
    8.2355  -13.4560   25.7702 C   0  0  2  0  0  0  0  0  0  0  0  0
    7.8740  -14.1836   24.5491 N   0  0  0  0  0  0  0  0  0  0  0  0
    8.7807  -14.4219   26.7236 C   0  0  0  0  0  0  0  0  0  0  0  0
    9.0828  -14.0571   27.9166 O   0  0  0  0  0  0  0  0  0  0  0  0
    9.0217  -15.7955   26.4491 N   0  0  0  0  0  0  0  0  0  0  0  0
    9.4949  -16.7070   27.5043 C   0  0  0  0  0  0  0  0  0  0  0  0
    9.6542  -18.0537   26.9236 C   0  0  0  0  0  0  0  0  0  0  0  0
    9.4866  -18.2648   25.6955 O   0  0  0  0  0  0  0  0  0  0  0  0
    9.9986  -19.1395   27.7309 O   0  0  0  0  0  0  0  0  0  0  0  0
  2  1  1  6
  3  2  1  0
  4  2  1  0
  5  7  1  0
  5  4  1  0
  5  6  1  1
  7  8  2  0
 10  9  1  1
 10 11  1  0
 10 12  1  0
 12 14  1  0
 13  7  1  0
 12 13  1  6
 14 15  2  0
 16 14  1  0
 16 17  1  0
 18 17  1  0
 18 20  1  0
 19 18  2  0
M  END
$$$$
