LVG.pdb
     RDKit          3D

 20 19  0  0  1  0  0  0  0  0999 V2000
    9.8214  -14.3787   29.3756 C   0  0  0  0  0  0  0  0  0  0  0  0
   10.3470  -15.1321   28.1503 C   0  0  1  0  0  0  0  0  0  0  0  0
   11.8515  -15.0131   28.1646 C   0  0  0  0  0  0  0  0  0  0  0  0
    9.9037  -16.5705   28.3170 C   0  0  0  0  0  0  0  0  0  0  0  0
    8.4013  -16.7067   28.1283 C   0  0  2  0  0  0  0  0  0  0  0  0
    7.9459  -18.0252   28.4422 N   0  0  0  0  0  0  0  0  0  0  0  0
    8.0374  -16.2632   26.7765 C   0  0  0  0  0  0  0  0  0  0  0  0
    7.9329  -17.1359   25.8740 O   0  0  0  0  0  0  0  0  0  0  0  0
    7.9572  -12.1112   25.3845 C   0  0  0  0  0  0  0  0  0  0  0  0
    6.8325  -13.0757   25.2692 C   0  0  2  0  0  0  0  0  0  0  0  0
    5.8852  -12.8206   26.4318 C   0  0  0  0  0  0  0  0  0  0  0  0
    7.2007  -14.5147   25.1477 C   0  0  2  0  0  0  0  0  0  0  0  0
    7.7968  -14.9053   26.4298 N   0  0  0  0  0  0  0  0  0  0  0  0
    8.1548  -14.8457   24.0897 C   0  0  0  0  0  0  0  0  0  0  0  0
    7.8342  -14.6951   22.8560 O   0  0  0  0  0  0  0  0  0  0  0  0
    9.4698  -15.3422   24.3001 N   0  0  0  0  0  0  0  0  0  0  0  0
   10.3381  -15.6916   23.1633 C   0  0  0  0  0  0  0  0  0  0  0  0
   11.6756  -16.0339   23.6832 C   0  0  0  0  0  0  0  0  0  0  0  0
   11.8310  -16.9025   24.5790 O   0  0  0  0  0  0  0  0  0  0  0  0
   12.8148  -15.3959   23.1889 O   0  0  0  0  0  0  0  0  0  0  0  0
  2  1  1  1
  3  2  1  0
  4  2  1  0
  5  7  1  0
  5  4  1  0
  5  6  1  6
  7  8  2  0
 10  9  1  1
 10 11  1  0
 10 12  1  0
 12 14  1  0
 13  7  1  0
 12 13  1  1
 14 15  2  0
 16 14  1  0
 16 17  1  0
 18 17  1  0
 18 20  1  0
 19 18  2  0
M  END
$$$$
