LVG.pdb
     RDKit          3D

 20 19  0  0  1  0  0  0  0  0999 V2000
    7.7563  -11.8421   27.5729 C   0  0  0  0  0  0  0  0  0  0  0  0
    6.7302  -12.8965   27.1475 C   0  0  1  0  0  0  0  0  0  0  0  0
    5.8265  -12.2526   26.1245 C   0  0  0  0  0  0  0  0  0  0  0  0
    7.5226  -14.0381   26.5459 C   0  0  0  0  0  0  0  0  0  0  0  0
    6.6237  -14.9692   25.7482 C   0  0  2  0  0  0  0  0  0  0  0  0
    5.9046  -15.8669   26.5976 N   0  0  0  0  0  0  0  0  0  0  0  0
    7.4169  -15.6445   24.7132 C   0  0  0  0  0  0  0  0  0  0  0  0
    7.8587  -16.7976   24.9625 O   0  0  0  0  0  0  0  0  0  0  0  0
    6.9264  -15.0213   20.6905 C   0  0  0  0  0  0  0  0  0  0  0  0
    8.3364  -15.0632   21.1583 C   0  0  2  0  0  0  0  0  0  0  0  0
    9.1758  -15.6619   20.0399 C   0  0  0  0  0  0  0  0  0  0  0  0
    8.5826  -15.7316   22.4674 C   0  0  2  0  0  0  0  0  0  0  0  0
    7.7137  -15.0702   23.4466 N   0  0  0  0  0  0  0  0  0  0  0  0
    9.9545  -15.6704   22.9709 C   0  0  0  0  0  0  0  0  0  0  0  0
   10.4069  -14.5885   23.4928 O   0  0  0  0  0  0  0  0  0  0  0  0
   10.8857  -16.7437   22.9403 N   0  0  0  0  0  0  0  0  0  0  0  0
   12.2448  -16.5827   23.4835 C   0  0  0  0  0  0  0  0  0  0  0  0
   13.1938  -16.5057   22.3567 C   0  0  0  0  0  0  0  0  0  0  0  0
   12.8161  -16.6555   21.1668 O   0  0  0  0  0  0  0  0  0  0  0  0
   14.5495  -16.2619   22.5848 O   0  0  0  0  0  0  0  0  0  0  0  0
  2  1  1  6
  3  2  1  0
  4  2  1  0
  5  7  1  0
  5  4  1  0
  5  6  1  1
  7  8  2  0
 10  9  1  6
 10 11  1  0
 10 12  1  0
 12 14  1  0
 13  7  1  0
 12 13  1  1
 14 15  2  0
 16 14  1  0
 16 17  1  0
 18 17  1  0
 18 20  1  0
 19 18  2  0
M  END
$$$$
