LVG.pdb
     RDKit          3D

 20 19  0  0  1  0  0  0  0  0999 V2000
    6.4021  -19.7638   23.4943 C   0  0  0  0  0  0  0  0  0  0  0  0
    6.3132  -18.4098   22.7842 C   0  0  1  0  0  0  0  0  0  0  0  0
    4.8577  -18.1660   22.4686 C   0  0  0  0  0  0  0  0  0  0  0  0
    6.8471  -17.3844   23.7623 C   0  0  0  0  0  0  0  0  0  0  0  0
    6.8748  -15.9968   23.1416 C   0  0  2  0  0  0  0  0  0  0  0  0
    7.2710  -16.0391   21.7684 N   0  0  0  0  0  0  0  0  0  0  0  0
    7.7038  -15.1096   23.9675 C   0  0  0  0  0  0  0  0  0  0  0  0
    8.9189  -14.9788   23.6621 O   0  0  0  0  0  0  0  0  0  0  0  0
    6.0741  -12.8605   27.3148 C   0  0  0  0  0  0  0  0  0  0  0  0
    7.2051  -12.4437   26.4455 C   0  0  2  0  0  0  0  0  0  0  0  0
    6.6374  -11.5690   25.3380 C   0  0  0  0  0  0  0  0  0  0  0  0
    8.0719  -13.5335   25.9144 C   0  0  2  0  0  0  0  0  0  0  0  0
    7.2120  -14.3906   25.0915 N   0  0  0  0  0  0  0  0  0  0  0  0
    8.7241  -14.3791   26.9138 C   0  0  0  0  0  0  0  0  0  0  0  0
    9.5271  -13.8664   27.7739 O   0  0  0  0  0  0  0  0  0  0  0  0
    8.5491  -15.7843   27.0361 N   0  0  0  0  0  0  0  0  0  0  0  0
    9.1883  -16.5346   28.1300 C   0  0  0  0  0  0  0  0  0  0  0  0
   10.4235  -17.1545   27.6139 C   0  0  0  0  0  0  0  0  0  0  0  0
   10.8649  -16.8863   26.4675 O   0  0  0  0  0  0  0  0  0  0  0  0
   11.1413  -18.0640   28.3929 O   0  0  0  0  0  0  0  0  0  0  0  0
  2  1  1  1
  3  2  1  0
  4  2  1  0
  5  7  1  0
  5  4  1  0
  5  6  1  6
  7  8  2  0
 10  9  1  6
 10 11  1  0
 10 12  1  0
 12 14  1  0
 13  7  1  0
 12 13  1  6
 14 15  2  0
 16 14  1  0
 16 17  1  0
 18 17  1  0
 18 20  1  0
 19 18  2  0
M  END
$$$$
