LVG.pdb
     RDKit          3D

 20 19  0  0  1  0  0  0  0  0999 V2000
    7.6283  -12.0186   27.5662 C   0  0  0  0  0  0  0  0  0  0  0  0
    6.6773  -13.0751   26.9965 C   0  0  1  0  0  0  0  0  0  0  0  0
    5.6811  -12.3539   26.1219 C   0  0  0  0  0  0  0  0  0  0  0  0
    7.5368  -14.0253   26.1893 C   0  0  0  0  0  0  0  0  0  0  0  0
    6.6889  -15.0874   25.5077 C   0  0  2  0  0  0  0  0  0  0  0  0
    6.1899  -16.0468   26.4430 N   0  0  0  0  0  0  0  0  0  0  0  0
    7.4494  -15.6825   24.4014 C   0  0  0  0  0  0  0  0  0  0  0  0
    7.9923  -16.8035   24.5902 O   0  0  0  0  0  0  0  0  0  0  0  0
    8.3915  -13.5451   20.6873 C   0  0  0  0  0  0  0  0  0  0  0  0
    7.9989  -14.9745   20.7931 C   0  0  2  0  0  0  0  0  0  0  0  0
    6.5052  -15.0640   20.5194 C   0  0  0  0  0  0  0  0  0  0  0  0
    8.3849  -15.6785   22.0487 C   0  0  2  0  0  0  0  0  0  0  0  0
    7.6071  -15.0648   23.1303 N   0  0  0  0  0  0  0  0  0  0  0  0
    9.7988  -15.6066   22.4159 C   0  0  0  0  0  0  0  0  0  0  0  0
   10.2323  -14.6426   23.1440 O   0  0  0  0  0  0  0  0  0  0  0  0
   10.7932  -16.5455   22.0289 N   0  0  0  0  0  0  0  0  0  0  0  0
   12.2131  -16.3187   22.3461 C   0  0  0  0  0  0  0  0  0  0  0  0
   13.0185  -17.3356   21.6436 C   0  0  0  0  0  0  0  0  0  0  0  0
   13.3316  -18.4221   22.1935 O   0  0  0  0  0  0  0  0  0  0  0  0
   13.4582  -17.1155   20.3369 O   0  0  0  0  0  0  0  0  0  0  0  0
  2  1  1  6
  3  2  1  0
  4  2  1  0
  5  7  1  0
  5  4  1  0
  5  6  1  1
  7  8  2  0
 10  9  1  1
 10 11  1  0
 10 12  1  0
 12 14  1  0
 13  7  1  0
 12 13  1  1
 14 15  2  0
 16 14  1  0
 16 17  1  0
 18 17  1  0
 18 20  1  0
 19 18  2  0
M  END
$$$$
