LVG.pdb
     RDKit          3D

 20 19  0  0  1  0  0  0  0  0999 V2000
    7.3519  -11.8882   27.7800 C   0  0  0  0  0  0  0  0  0  0  0  0
    6.4676  -13.0368   27.2859 C   0  0  1  0  0  0  0  0  0  0  0  0
    5.4458  -12.4418   26.3481 C   0  0  0  0  0  0  0  0  0  0  0  0
    7.3884  -13.9980   26.5640 C   0  0  0  0  0  0  0  0  0  0  0  0
    6.5962  -15.0375   25.7872 C   0  0  2  0  0  0  0  0  0  0  0  0
    5.9982  -16.0041   26.6547 N   0  0  0  0  0  0  0  0  0  0  0  0
    7.4512  -15.6262   24.7485 C   0  0  0  0  0  0  0  0  0  0  0  0
    8.0917  -16.6736   25.0308 O   0  0  0  0  0  0  0  0  0  0  0  0
    8.5329  -13.6563   20.9351 C   0  0  0  0  0  0  0  0  0  0  0  0
    8.0870  -15.0614   21.1233 C   0  0  2  0  0  0  0  0  0  0  0  0
    6.5918  -15.1116   20.8478 C   0  0  0  0  0  0  0  0  0  0  0  0
    8.4428  -15.7036   22.4202 C   0  0  2  0  0  0  0  0  0  0  0  0
    7.5965  -15.0806   23.4434 N   0  0  0  0  0  0  0  0  0  0  0  0
    9.8358  -15.5645   22.8442 C   0  0  0  0  0  0  0  0  0  0  0  0
   10.2317  -14.4944   23.4321 O   0  0  0  0  0  0  0  0  0  0  0  0
   10.8479  -16.5456   22.6626 N   0  0  0  0  0  0  0  0  0  0  0  0
   12.2266  -16.3050   23.1205 C   0  0  0  0  0  0  0  0  0  0  0  0
   13.1520  -16.6604   22.0280 C   0  0  0  0  0  0  0  0  0  0  0  0
   12.7304  -17.0189   20.8989 O   0  0  0  0  0  0  0  0  0  0  0  0
   14.5336  -16.6074   22.2215 O   0  0  0  0  0  0  0  0  0  0  0  0
  2  1  1  6
  3  2  1  0
  4  2  1  0
  5  7  1  0
  5  4  1  0
  5  6  1  1
  7  8  2  0
 10  9  1  1
 10 11  1  0
 10 12  1  0
 12 14  1  0
 13  7  1  0
 12 13  1  1
 14 15  2  0
 16 14  1  0
 16 17  1  0
 18 17  1  0
 18 20  1  0
 19 18  2  0
M  END
$$$$
