LVG.pdb
     RDKit          3D

 20 19  0  0  1  0  0  0  0  0999 V2000
    5.6074  -11.3118   26.2719 C   0  0  0  0  0  0  0  0  0  0  0  0
    6.7672  -12.2614   26.5856 C   0  0  1  0  0  0  0  0  0  0  0  0
    7.1748  -12.0106   28.0169 C   0  0  0  0  0  0  0  0  0  0  0  0
    6.2263  -13.6637   26.4013 C   0  0  0  0  0  0  0  0  0  0  0  0
    7.3544  -14.6692   26.2345 C   0  0  2  0  0  0  0  0  0  0  0  0
    8.6118  -14.1270   26.6464 N   0  0  0  0  0  0  0  0  0  0  0  0
    7.3544  -15.1780   24.8570 C   0  0  0  0  0  0  0  0  0  0  0  0
    6.3536  -15.8368   24.4680 O   0  0  0  0  0  0  0  0  0  0  0  0
    7.0298  -13.6967   21.7176 C   0  0  0  0  0  0  0  0  0  0  0  0
    8.2808  -14.4929   21.6196 C   0  0  2  0  0  0  0  0  0  0  0  0
    8.4014  -14.9879   20.1863 C   0  0  0  0  0  0  0  0  0  0  0  0
    8.4481  -15.5925   22.6115 C   0  0  2  0  0  0  0  0  0  0  0  0
    8.4199  -14.9688   23.9387 N   0  0  0  0  0  0  0  0  0  0  0  0
    9.6833  -16.3688   22.5065 C   0  0  0  0  0  0  0  0  0  0  0  0
   10.7604  -15.9543   23.0681 O   0  0  0  0  0  0  0  0  0  0  0  0
    9.8187  -17.6004   21.8102 N   0  0  0  0  0  0  0  0  0  0  0  0
   11.1081  -18.3104   21.7710 C   0  0  0  0  0  0  0  0  0  0  0  0
   11.3586  -18.7511   20.3856 C   0  0  0  0  0  0  0  0  0  0  0  0
   10.5504  -18.4946   19.4572 O   0  0  0  0  0  0  0  0  0  0  0  0
   12.5112  -19.4715   20.0665 O   0  0  0  0  0  0  0  0  0  0  0  0
  2  1  1  1
  3  2  1  0
  4  2  1  0
  5  7  1  0
  5  4  1  0
  5  6  1  6
  7  8  2  0
 10  9  1  6
 10 11  1  0
 10 12  1  0
 12 14  1  0
 13  7  1  0
 12 13  1  1
 14 15  2  0
 16 14  1  0
 16 17  1  0
 18 17  1  0
 18 20  1  0
 19 18  2  0
M  END
$$$$
