LVG.pdb
     RDKit          3D

 20 19  0  0  1  0  0  0  0  0999 V2000
    7.2408  -11.8630   27.5430 C   0  0  0  0  0  0  0  0  0  0  0  0
    6.4300  -13.1328   27.2682 C   0  0  1  0  0  0  0  0  0  0  0  0
    5.3396  -12.7637   26.2923 C   0  0  0  0  0  0  0  0  0  0  0  0
    7.3979  -14.1296   26.6661 C   0  0  0  0  0  0  0  0  0  0  0  0
    6.6584  -15.2466   25.9471 C   0  0  2  0  0  0  0  0  0  0  0  0
    6.2341  -16.2687   26.8524 N   0  0  0  0  0  0  0  0  0  0  0  0
    7.4847  -15.7450   24.8402 C   0  0  0  0  0  0  0  0  0  0  0  0
    8.2821  -16.6916   25.0748 O   0  0  0  0  0  0  0  0  0  0  0  0
    8.2872  -15.6459   19.8918 C   0  0  0  0  0  0  0  0  0  0  0  0
    7.7552  -15.1119   21.1725 C   0  0  2  0  0  0  0  0  0  0  0  0
    8.0227  -13.6145   21.1944 C   0  0  0  0  0  0  0  0  0  0  0  0
    8.2201  -15.7856   22.4178 C   0  0  2  0  0  0  0  0  0  0  0  0
    7.4351  -15.2193   23.5199 N   0  0  0  0  0  0  0  0  0  0  0  0
    9.6363  -15.6223   22.7452 C   0  0  0  0  0  0  0  0  0  0  0  0
   10.0508  -14.5513   23.3184 O   0  0  0  0  0  0  0  0  0  0  0  0
   10.6528  -16.5796   22.4802 N   0  0  0  0  0  0  0  0  0  0  0  0
   12.0717  -16.2615   22.7123 C   0  0  0  0  0  0  0  0  0  0  0  0
   12.8647  -16.8172   21.5994 C   0  0  0  0  0  0  0  0  0  0  0  0
   12.3509  -17.0446   20.4746 O   0  0  0  0  0  0  0  0  0  0  0  0
   14.2198  -17.1078   21.7682 O   0  0  0  0  0  0  0  0  0  0  0  0
  2  1  1  6
  3  2  1  0
  4  2  1  0
  5  7  1  0
  5  4  1  0
  5  6  1  1
  7  8  2  0
 10  9  1  6
 10 11  1  0
 10 12  1  0
 12 14  1  0
 13  7  1  0
 12 13  1  1
 14 15  2  0
 16 14  1  0
 16 17  1  0
 18 17  1  0
 18 20  1  0
 19 18  2  0
M  END
$$$$
