LVG.pdb
     RDKit          3D

 20 19  0  0  1  0  0  0  0  0999 V2000
    6.8403  -18.5094   20.9257 C   0  0  0  0  0  0  0  0  0  0  0  0
    6.8687  -16.9865   20.7672 C   0  0  1  0  0  0  0  0  0  0  0  0
    5.4360  -16.5200   20.6805 C   0  0  0  0  0  0  0  0  0  0  0  0
    7.5531  -16.4460   22.0052 C   0  0  0  0  0  0  0  0  0  0  0  0
    7.5340  -14.9259   22.0230 C   0  0  2  0  0  0  0  0  0  0  0  0
    8.0522  -14.3758   20.8092 N   0  0  0  0  0  0  0  0  0  0  0  0
    8.2194  -14.4436   23.2289 C   0  0  0  0  0  0  0  0  0  0  0  0
    9.4700  -14.2995   23.1828 O   0  0  0  0  0  0  0  0  0  0  0  0
    6.1869  -13.2931   27.0191 C   0  0  0  0  0  0  0  0  0  0  0  0
    7.4301  -12.7779   26.3885 C   0  0  2  0  0  0  0  0  0  0  0  0
    7.0448  -11.6045   25.5005 C   0  0  0  0  0  0  0  0  0  0  0  0
    8.2734  -13.7749   25.6702 C   0  0  2  0  0  0  0  0  0  0  0  0
    7.5509  -14.1306   24.4443 N   0  0  0  0  0  0  0  0  0  0  0  0
    8.5630  -15.0116   26.3955 C   0  0  0  0  0  0  0  0  0  0  0  0
    7.6063  -15.7420   26.8414 O   0  0  0  0  0  0  0  0  0  0  0  0
    9.8641  -15.5133   26.6702 N   0  0  0  0  0  0  0  0  0  0  0  0
   10.0503  -16.8338   27.2946 C   0  0  0  0  0  0  0  0  0  0  0  0
   10.4687  -16.6353   28.6952 C   0  0  0  0  0  0  0  0  0  0  0  0
   10.5208  -15.4894   29.2102 O   0  0  0  0  0  0  0  0  0  0  0  0
   10.8211  -17.7255   29.4929 O   0  0  0  0  0  0  0  0  0  0  0  0
  2  1  1  1
  3  2  1  0
  4  2  1  0
  5  7  1  0
  5  4  1  0
  5  6  1  6
  7  8  2  0
 10  9  1  6
 10 11  1  0
 10 12  1  0
 12 14  1  0
 13  7  1  0
 12 13  1  6
 14 15  2  0
 16 14  1  0
 16 17  1  0
 18 17  1  0
 18 20  1  0
 19 18  2  0
M  END
$$$$
