LVG.pdb
     RDKit          3D

 20 19  0  0  1  0  0  0  0  0999 V2000
    8.6469  -14.0226   19.4213 C   0  0  0  0  0  0  0  0  0  0  0  0
    8.0937  -13.2159   20.5997 C   0  0  1  0  0  0  0  0  0  0  0  0
    7.5564  -11.9210   20.0411 C   0  0  0  0  0  0  0  0  0  0  0  0
    6.9904  -14.0573   21.2064 C   0  0  0  0  0  0  0  0  0  0  0  0
    7.5548  -15.0921   22.1667 C   0  0  2  0  0  0  0  0  0  0  0  0
    6.5779  -16.0745   22.5202 N   0  0  0  0  0  0  0  0  0  0  0  0
    8.1509  -14.4104   23.3228 C   0  0  0  0  0  0  0  0  0  0  0  0
    9.2412  -13.8019   23.1554 O   0  0  0  0  0  0  0  0  0  0  0  0
    5.9413  -13.8300   26.8842 C   0  0  0  0  0  0  0  0  0  0  0  0
    7.1359  -13.0302   26.5073 C   0  0  2  0  0  0  0  0  0  0  0  0
    6.6488  -11.7972   25.7614 C   0  0  0  0  0  0  0  0  0  0  0  0
    8.2103  -13.7493   25.7661 C   0  0  2  0  0  0  0  0  0  0  0  0
    7.5668  -14.3990   24.6193 N   0  0  0  0  0  0  0  0  0  0  0  0
    8.9313  -14.7764   26.5175 C   0  0  0  0  0  0  0  0  0  0  0  0
    9.5147  -14.4831   27.6225 O   0  0  0  0  0  0  0  0  0  0  0  0
    9.0570  -16.1376   26.1285 N   0  0  0  0  0  0  0  0  0  0  0  0
    9.7072  -17.1205   27.0113 C   0  0  0  0  0  0  0  0  0  0  0  0
   10.8696  -17.6896   26.3032 C   0  0  0  0  0  0  0  0  0  0  0  0
   11.2039  -17.2892   25.1591 O   0  0  0  0  0  0  0  0  0  0  0  0
   11.6362  -18.6975   26.8912 O   0  0  0  0  0  0  0  0  0  0  0  0
  2  1  1  6
  3  2  1  0
  4  2  1  0
  5  7  1  0
  5  4  1  0
  5  6  1  1
  7  8  2  0
 10  9  1  6
 10 11  1  0
 10 12  1  0
 12 14  1  0
 13  7  1  0
 12 13  1  6
 14 15  2  0
 16 14  1  0
 16 17  1  0
 18 17  1  0
 18 20  1  0
 19 18  2  0
M  END
$$$$
