WKP.pdb
     RDKit          3D

 31 33  0  0  1  0  0  0  0  0999 V2000
   25.0330  -20.3986   -8.3834 N   0  0  0  0  0  0  0  0  0  0  0  0
   26.3684  -20.2962   -8.9909 C   0  0  1  0  0  0  0  0  0  0  0  0
   27.3634  -20.9835   -8.1246 C   0  0  0  0  0  0  0  0  0  0  0  0
   27.5166  -20.2171   -6.8616 C   0  0  0  0  0  0  0  0  0  0  0  0
   26.5965  -19.3528   -6.3480 C   0  0  0  0  0  0  0  0  0  0  0  0
   27.0744  -18.8562   -5.2088 N   0  0  0  0  0  0  0  0  0  0  0  0
   28.3010  -19.3742   -4.9508 C   0  0  0  0  0  0  0  0  0  0  0  0
   29.1802  -19.1623   -3.8988 C   0  0  0  0  0  0  0  0  0  0  0  0
   30.3715  -19.8492   -3.9219 C   0  0  0  0  0  0  0  0  0  0  0  0
   30.6828  -20.7153   -4.9491 C   0  0  0  0  0  0  0  0  0  0  0  0
   29.7798  -20.9002   -5.9807 C   0  0  0  0  0  0  0  0  0  0  0  0
   28.5836  -20.2316   -5.9888 C   0  0  0  0  0  0  0  0  0  0  0  0
   26.2672  -20.8846  -10.3483 C   0  0  0  0  0  0  0  0  0  0  0  0
   26.8237  -21.9966  -10.6155 O   0  0  0  0  0  0  0  0  0  0  0  0
   25.5609  -20.2833  -11.4347 N   0  0  0  0  0  0  0  0  0  0  0  0
   25.5060  -20.7949  -12.7743 C   0  0  1  0  0  0  0  0  0  0  0  0
   24.1184  -21.3926  -13.0658 C   0  0  0  0  0  0  0  0  0  0  0  0
   24.0796  -22.1308  -14.3691 C   0  0  0  0  0  0  0  0  0  0  0  0
   24.4056  -23.5805  -14.2997 C   0  0  0  0  0  0  0  0  0  0  0  0
   24.3436  -24.1866  -15.7082 C   0  0  0  0  0  0  0  0  0  0  0  0
   24.7775  -25.5540  -15.7054 N   0  0  0  0  0  0  0  0  0  0  0  0
   25.9414  -19.9270  -13.8554 C   0  0  0  0  0  0  0  0  0  0  0  0
   25.1911  -18.8984  -14.0869 O   0  0  0  0  0  0  0  0  0  0  0  0
   27.0823  -20.0616  -14.6870 N   0  0  0  0  0  0  0  0  0  0  0  0
   28.1020  -21.0594  -14.7206 C   0  0  0  0  0  0  0  0  0  0  0  0
   28.4528  -21.1631  -16.1900 C   0  0  0  0  0  0  0  0  0  0  0  0
   28.6064  -19.6676  -16.4914 C   0  0  0  0  0  0  0  0  0  0  0  0
   27.4487  -19.0965  -15.7456 C   0  0  1  0  0  0  0  0  0  0  0  0
   26.3346  -18.9560  -16.7063 C   0  0  0  0  0  0  0  0  0  0  0  0
   25.3107  -19.8734  -16.7287 O   0  0  0  0  0  0  0  0  0  0  0  0
   26.3256  -17.9991  -17.4997 O   0  0  0  0  0  0  0  0  0  0  0  0
  2  1  1  1
  2 13  1  0
  3  4  1  0
  3  2  1  0
  4 12  1  0
  4  5  2  0
  5  6  1  0
  6  7  1  0
  7  8  2  0
  9  8  1  0
 10  9  2  0
 11 12  2  0
 11 10  1  0
 12  7  1  0
 13 14  2  0
 15 13  1  0
 15 16  1  0
 16 17  1  6
 18 17  1  0
 19 18  1  0
 20 19  1  0
 21 20  1  0
 22 16  1  0
 22 24  1  0
 23 22  2  0
 24 28  1  0
 25 24  1  0
 25 26  1  0
 26 27  1  0
 28 27  1  0
 28 29  1  6
 29 30  1  0
 31 29  2  0
M  END
$$$$
