WKP.pdb
     RDKit          3D

 31 33  0  0  1  0  0  0  0  0999 V2000
   24.1584  -19.4627   -9.0971 N   0  0  0  0  0  0  0  0  0  0  0  0
   25.5161  -19.7450   -9.5867 C   0  0  1  0  0  0  0  0  0  0  0  0
   25.9930  -21.0336   -9.0167 C   0  0  0  0  0  0  0  0  0  0  0  0
   26.3087  -20.8390   -7.5784 C   0  0  0  0  0  0  0  0  0  0  0  0
   25.4343  -21.0189   -6.5486 C   0  0  0  0  0  0  0  0  0  0  0  0
   26.0676  -20.7562   -5.4072 N   0  0  0  0  0  0  0  0  0  0  0  0
   27.3531  -20.4029   -5.6560 C   0  0  0  0  0  0  0  0  0  0  0  0
   28.3849  -20.0452   -4.8004 C   0  0  0  0  0  0  0  0  0  0  0  0
   29.5985  -19.7347   -5.3682 C   0  0  0  0  0  0  0  0  0  0  0  0
   29.7856  -19.7764   -6.7340 C   0  0  0  0  0  0  0  0  0  0  0  0
   28.7320  -20.1380   -7.5546 C   0  0  0  0  0  0  0  0  0  0  0  0
   27.5095  -20.4536   -7.0217 C   0  0  0  0  0  0  0  0  0  0  0  0
   25.4443  -19.7501  -11.0680 C   0  0  0  0  0  0  0  0  0  0  0  0
   24.3412  -19.9683  -11.6623 O   0  0  0  0  0  0  0  0  0  0  0  0
   26.5605  -19.5157  -11.9279 N   0  0  0  0  0  0  0  0  0  0  0  0
   26.4793  -19.1493  -13.3130 C   0  0  1  0  0  0  0  0  0  0  0  0
   27.7934  -18.4952  -13.7746 C   0  0  0  0  0  0  0  0  0  0  0  0
   27.7300  -18.0355  -15.1992 C   0  0  0  0  0  0  0  0  0  0  0  0
   28.9976  -18.1456  -15.9700 C   0  0  0  0  0  0  0  0  0  0  0  0
   28.7828  -17.5998  -17.3881 C   0  0  0  0  0  0  0  0  0  0  0  0
   29.9954  -17.6487  -18.1532 N   0  0  0  0  0  0  0  0  0  0  0  0
   26.0329  -20.1561  -14.2610 C   0  0  0  0  0  0  0  0  0  0  0  0
   26.8570  -21.1305  -14.4755 O   0  0  0  0  0  0  0  0  0  0  0  0
   24.8109  -20.2086  -14.9790 N   0  0  0  0  0  0  0  0  0  0  0  0
   23.6502  -19.3813  -14.9101 C   0  0  0  0  0  0  0  0  0  0  0  0
   23.1491  -19.3483  -16.3387 C   0  0  0  0  0  0  0  0  0  0  0  0
   23.2016  -20.8526  -16.6310 C   0  0  0  0  0  0  0  0  0  0  0  0
   24.4996  -21.2296  -16.0021 C   0  0  1  0  0  0  0  0  0  0  0  0
   25.5254  -21.2056  -17.0657 C   0  0  0  0  0  0  0  0  0  0  0  0
   25.5870  -22.2122  -18.0005 O   0  0  0  0  0  0  0  0  0  0  0  0
   26.3379  -20.2662  -17.1133 O   0  0  0  0  0  0  0  0  0  0  0  0
  2  1  1  1
  2 13  1  0
  3  4  1  0
  3  2  1  0
  4 12  1  0
  4  5  2  0
  5  6  1  0
  6  7  1  0
  7  8  2  0
  9  8  1  0
 10  9  2  0
 11 12  2  0
 11 10  1  0
 12  7  1  0
 13 14  2  0
 15 13  1  0
 15 16  1  0
 16 17  1  6
 18 17  1  0
 19 18  1  0
 20 19  1  0
 21 20  1  0
 22 16  1  0
 22 24  1  0
 23 22  2  0
 24 28  1  0
 25 24  1  0
 25 26  1  0
 26 27  1  0
 28 27  1  0
 28 29  1  6
 29 30  1  0
 31 29  2  0
M  END
$$$$
