WKP.pdb
     RDKit          3D

 31 33  0  0  1  0  0  0  0  0999 V2000
   28.1013  -20.1699   -9.4446 N   0  0  0  0  0  0  0  0  0  0  0  0
   26.8658  -20.9636   -9.3635 C   0  0  1  0  0  0  0  0  0  0  0  0
   26.0784  -20.5387   -8.1751 C   0  0  0  0  0  0  0  0  0  0  0  0
   26.9291  -19.6789   -7.3132 C   0  0  0  0  0  0  0  0  0  0  0  0
   27.1199  -18.3398   -7.4798 C   0  0  0  0  0  0  0  0  0  0  0  0
   27.9381  -17.9081   -6.5222 N   0  0  0  0  0  0  0  0  0  0  0  0
   28.2989  -18.9374   -5.7160 C   0  0  0  0  0  0  0  0  0  0  0  0
   29.1233  -18.9799   -4.6010 C   0  0  0  0  0  0  0  0  0  0  0  0
   29.2954  -20.1989   -3.9878 C   0  0  0  0  0  0  0  0  0  0  0  0
   28.6743  -21.3361   -4.4602 C   0  0  0  0  0  0  0  0  0  0  0  0
   27.8593  -21.2533   -5.5751 C   0  0  0  0  0  0  0  0  0  0  0  0
   27.6660  -20.0544   -6.2102 C   0  0  0  0  0  0  0  0  0  0  0  0
   26.1459  -20.7665  -10.6449 C   0  0  0  0  0  0  0  0  0  0  0  0
   25.9710  -19.5984  -11.1167 O   0  0  0  0  0  0  0  0  0  0  0  0
   25.6084  -21.8271  -11.4365 N   0  0  0  0  0  0  0  0  0  0  0  0
   24.9743  -21.6706  -12.7143 C   0  0  1  0  0  0  0  0  0  0  0  0
   25.6180  -22.6060  -13.7528 C   0  0  0  0  0  0  0  0  0  0  0  0
   25.0621  -22.3968  -15.1283 C   0  0  0  0  0  0  0  0  0  0  0  0
   25.5736  -23.3182  -16.1783 C   0  0  0  0  0  0  0  0  0  0  0  0
   25.0229  -22.8914  -17.5457 C   0  0  0  0  0  0  0  0  0  0  0  0
   24.2077  -23.9214  -18.1223 N   0  0  0  0  0  0  0  0  0  0  0  0
   23.5240  -21.7426  -12.7706 C   0  0  0  0  0  0  0  0  0  0  0  0
   23.0070  -22.8936  -12.4832 O   0  0  0  0  0  0  0  0  0  0  0  0
   22.6037  -20.7144  -13.0982 N   0  0  0  0  0  0  0  0  0  0  0  0
   22.8179  -19.3688  -13.5226 C   0  0  0  0  0  0  0  0  0  0  0  0
   21.6710  -19.1078  -14.4764 C   0  0  0  0  0  0  0  0  0  0  0  0
   20.5266  -19.6352  -13.6027 C   0  0  0  0  0  0  0  0  0  0  0  0
   21.1350  -20.8727  -13.0361 C   0  0  1  0  0  0  0  0  0  0  0  0
   20.7134  -22.0005  -13.8930 C   0  0  0  0  0  0  0  0  0  0  0  0
   19.4743  -22.5746  -13.7336 O   0  0  0  0  0  0  0  0  0  0  0  0
   21.4877  -22.4315  -14.7646 O   0  0  0  0  0  0  0  0  0  0  0  0
  2  1  1  6
  2 13  1  0
  3  4  1  0
  3  2  1  0
  4 12  1  0
  4  5  2  0
  5  6  1  0
  6  7  1  0
  7  8  2  0
  9  8  1  0
 10  9  2  0
 11 12  2  0
 11 10  1  0
 12  7  1  0
 13 14  2  0
 15 13  1  0
 15 16  1  0
 16 17  1  6
 18 17  1  0
 19 18  1  0
 20 19  1  0
 21 20  1  0
 22 16  1  0
 22 24  1  0
 23 22  2  0
 24 28  1  0
 25 24  1  0
 25 26  1  0
 26 27  1  0
 28 27  1  0
 28 29  1  6
 29 30  1  0
 31 29  2  0
M  END
$$$$
