WKP.pdb
     RDKit          3D

 31 33  0  0  1  0  0  0  0  0999 V2000
   25.1314  -20.4764   -8.0397 N   0  0  0  0  0  0  0  0  0  0  0  0
   26.3093  -20.0851   -8.8286 C   0  0  1  0  0  0  0  0  0  0  0  0
   27.5412  -20.5993   -8.1721 C   0  0  0  0  0  0  0  0  0  0  0  0
   27.8616  -19.7399   -7.0039 C   0  0  0  0  0  0  0  0  0  0  0  0
   27.3256  -18.5110   -6.7593 C   0  0  0  0  0  0  0  0  0  0  0  0
   27.8436  -18.0432   -5.6254 N   0  0  0  0  0  0  0  0  0  0  0  0
   28.7188  -18.9397   -5.1060 C   0  0  0  0  0  0  0  0  0  0  0  0
   29.4939  -18.9000   -3.9561 C   0  0  0  0  0  0  0  0  0  0  0  0
   30.2974  -19.9858   -3.6972 C   0  0  0  0  0  0  0  0  0  0  0  0
   30.3334  -21.0728   -4.5453 C   0  0  0  0  0  0  0  0  0  0  0  0
   29.5456  -21.0752   -5.6825 C   0  0  0  0  0  0  0  0  0  0  0  0
   28.7334  -20.0096   -5.9706 C   0  0  0  0  0  0  0  0  0  0  0  0
   26.1059  -20.6218  -10.1960 C   0  0  0  0  0  0  0  0  0  0  0  0
   26.9558  -21.4136  -10.7142 O   0  0  0  0  0  0  0  0  0  0  0  0
   24.9811  -20.3149  -11.0211 N   0  0  0  0  0  0  0  0  0  0  0  0
   24.8097  -20.7365  -12.3820 C   0  0  1  0  0  0  0  0  0  0  0  0
   23.3152  -20.8977  -12.7114 C   0  0  0  0  0  0  0  0  0  0  0  0
   23.0906  -21.3847  -14.1104 C   0  0  0  0  0  0  0  0  0  0  0  0
   21.6734  -21.6350  -14.4871 C   0  0  0  0  0  0  0  0  0  0  0  0
   21.6042  -22.0710  -15.9568 C   0  0  0  0  0  0  0  0  0  0  0  0
   20.2617  -22.4039  -16.3376 N   0  0  0  0  0  0  0  0  0  0  0  0
   25.4985  -19.9893  -13.4207 C   0  0  0  0  0  0  0  0  0  0  0  0
   25.0606  -18.7905  -13.6347 O   0  0  0  0  0  0  0  0  0  0  0  0
   26.5884  -20.4041  -14.2278 N   0  0  0  0  0  0  0  0  0  0  0  0
   27.3692  -21.5984  -14.2019 C   0  0  0  0  0  0  0  0  0  0  0  0
   27.6980  -21.8425  -15.6597 C   0  0  0  0  0  0  0  0  0  0  0  0
   28.1722  -20.4304  -16.0235 C   0  0  0  0  0  0  0  0  0  0  0  0
   27.1605  -19.5901  -15.3215 C   0  0  1  0  0  0  0  0  0  0  0  0
   26.1086  -19.2574  -16.3047 C   0  0  0  0  0  0  0  0  0  0  0  0
   26.2716  -18.2044  -17.1738 O   0  0  0  0  0  0  0  0  0  0  0  0
   25.0687  -19.9372  -16.3443 O   0  0  0  0  0  0  0  0  0  0  0  0
  2  1  1  1
  2 13  1  0
  3  4  1  0
  3  2  1  0
  4 12  1  0
  4  5  2  0
  5  6  1  0
  6  7  1  0
  7  8  2  0
  9  8  1  0
 10  9  2  0
 11 12  2  0
 11 10  1  0
 12  7  1  0
 13 14  2  0
 15 13  1  0
 15 16  1  0
 16 17  1  6
 18 17  1  0
 19 18  1  0
 20 19  1  0
 21 20  1  0
 22 16  1  0
 22 24  1  0
 23 22  2  0
 24 28  1  0
 25 24  1  0
 25 26  1  0
 26 27  1  0
 28 27  1  0
 28 29  1  6
 29 30  1  0
 31 29  2  0
M  END
$$$$
