WKP.pdb
     RDKit          3D

 31 33  0  0  1  0  0  0  0  0999 V2000
   24.8520  -20.1738   -8.7673 N   0  0  0  0  0  0  0  0  0  0  0  0
   26.2272  -20.1581   -9.2881 C   0  0  1  0  0  0  0  0  0  0  0  0
   27.1098  -20.9467   -8.3871 C   0  0  0  0  0  0  0  0  0  0  0  0
   27.3523  -20.1690   -7.1452 C   0  0  0  0  0  0  0  0  0  0  0  0
   26.5497  -19.1763   -6.6679 C   0  0  0  0  0  0  0  0  0  0  0  0
   27.0797  -18.7123   -5.5380 N   0  0  0  0  0  0  0  0  0  0  0  0
   28.2254  -19.3788   -5.2504 C   0  0  0  0  0  0  0  0  0  0  0  0
   29.1163  -19.2521   -4.1945 C   0  0  0  0  0  0  0  0  0  0  0  0
   30.2072  -20.0898   -4.1835 C   0  0  0  0  0  0  0  0  0  0  0  0
   30.4101  -21.0200   -5.1812 C   0  0  0  0  0  0  0  0  0  0  0  0
   29.4989  -21.1161   -6.2178 C   0  0  0  0  0  0  0  0  0  0  0  0
   28.4011  -20.2969   -6.2596 C   0  0  0  0  0  0  0  0  0  0  0  0
   26.1679  -20.6959  -10.6688 C   0  0  0  0  0  0  0  0  0  0  0  0
   26.6097  -21.8596  -10.9303 O   0  0  0  0  0  0  0  0  0  0  0  0
   25.6277  -19.9873  -11.7853 N   0  0  0  0  0  0  0  0  0  0  0  0
   25.4871  -20.5126  -13.1133 C   0  0  1  0  0  0  0  0  0  0  0  0
   24.0003  -20.6194  -13.4952 C   0  0  0  0  0  0  0  0  0  0  0  0
   23.8048  -21.2004  -14.8624 C   0  0  0  0  0  0  0  0  0  0  0  0
   22.3923  -21.4178  -15.2754 C   0  0  0  0  0  0  0  0  0  0  0  0
   22.3563  -21.9485  -16.7149 C   0  0  0  0  0  0  0  0  0  0  0  0
   21.0254  -22.3225  -17.0980 N   0  0  0  0  0  0  0  0  0  0  0  0
   26.2595  -19.8945  -14.1777 C   0  0  0  0  0  0  0  0  0  0  0  0
   25.9218  -18.6840  -14.4869 O   0  0  0  0  0  0  0  0  0  0  0  0
   27.3353  -20.4462  -14.9192 N   0  0  0  0  0  0  0  0  0  0  0  0
   27.9608  -21.7268  -14.8464 C   0  0  0  0  0  0  0  0  0  0  0  0
   28.3412  -22.0212  -16.2822 C   0  0  0  0  0  0  0  0  0  0  0  0
   29.0054  -20.6808  -16.6190 C   0  0  0  0  0  0  0  0  0  0  0  0
   28.0654  -19.7172  -15.9783 C   0  0  1  0  0  0  0  0  0  0  0  0
   27.1211  -19.2663  -17.0218 C   0  0  0  0  0  0  0  0  0  0  0  0
   27.4792  -18.2792  -17.9095 O   0  0  0  0  0  0  0  0  0  0  0  0
   25.9942  -19.7857  -17.0953 O   0  0  0  0  0  0  0  0  0  0  0  0
  2  1  1  1
  2 13  1  0
  3  4  1  0
  3  2  1  0
  4 12  1  0
  4  5  2  0
  5  6  1  0
  6  7  1  0
  7  8  2  0
  9  8  1  0
 10  9  2  0
 11 12  2  0
 11 10  1  0
 12  7  1  0
 13 14  2  0
 15 13  1  0
 15 16  1  0
 16 17  1  6
 18 17  1  0
 19 18  1  0
 20 19  1  0
 21 20  1  0
 22 16  1  0
 22 24  1  0
 23 22  2  0
 24 28  1  0
 25 24  1  0
 25 26  1  0
 26 27  1  0
 28 27  1  0
 28 29  1  6
 29 30  1  0
 31 29  2  0
M  END
$$$$
