WKP.pdb
     RDKit          3D

 31 33  0  0  1  0  0  0  0  0999 V2000
   29.7853  -33.3396  -15.3168 N   0  0  0  0  0  0  0  0  0  0  0  0
   29.5021  -32.3022  -16.3200 C   0  0  1  0  0  0  0  0  0  0  0  0
   28.8658  -31.1312  -15.6592 C   0  0  0  0  0  0  0  0  0  0  0  0
   27.4296  -31.4289  -15.4256 C   0  0  0  0  0  0  0  0  0  0  0  0
   26.9172  -32.0061  -14.3023 C   0  0  0  0  0  0  0  0  0  0  0  0
   25.5981  -32.1135  -14.4477 N   0  0  0  0  0  0  0  0  0  0  0  0
   25.2181  -31.6172  -15.6513 C   0  0  0  0  0  0  0  0  0  0  0  0
   23.9681  -31.5127  -16.2439 C   0  0  0  0  0  0  0  0  0  0  0  0
   23.9076  -30.9517  -17.4982 C   0  0  0  0  0  0  0  0  0  0  0  0
   25.0430  -30.5094  -18.1441 C   0  0  0  0  0  0  0  0  0  0  0  0
   26.2719  -30.6308  -17.5202 C   0  0  0  0  0  0  0  0  0  0  0  0
   26.3680  -31.1850  -16.2706 C   0  0  0  0  0  0  0  0  0  0  0  0
   30.7924  -31.9766  -16.9745 C   0  0  0  0  0  0  0  0  0  0  0  0
   31.8554  -31.8557  -16.2867 O   0  0  0  0  0  0  0  0  0  0  0  0
   30.9541  -31.7809  -18.3802 N   0  0  0  0  0  0  0  0  0  0  0  0
   32.2051  -31.5703  -19.0510 C   0  0  1  0  0  0  0  0  0  0  0  0
   32.4446  -32.6695  -20.1009 C   0  0  0  0  0  0  0  0  0  0  0  0
   33.7813  -32.5398  -20.7652 C   0  0  0  0  0  0  0  0  0  0  0  0
   34.1038  -33.5827  -21.7758 C   0  0  0  0  0  0  0  0  0  0  0  0
   35.5495  -33.3992  -22.2566 C   0  0  0  0  0  0  0  0  0  0  0  0
   35.9096  -34.4029  -23.2162 N   0  0  0  0  0  0  0  0  0  0  0  0
   32.4720  -30.2520  -19.6010 C   0  0  0  0  0  0  0  0  0  0  0  0
   31.6156  -29.8222  -20.4708 O   0  0  0  0  0  0  0  0  0  0  0  0
   33.5482  -29.3766  -19.3061 N   0  0  0  0  0  0  0  0  0  0  0  0
   34.6234  -29.4978  -18.3757 C   0  0  0  0  0  0  0  0  0  0  0  0
   35.7801  -28.8151  -19.0749 C   0  0  0  0  0  0  0  0  0  0  0  0
   35.0600  -27.5299  -19.5001 C   0  0  0  0  0  0  0  0  0  0  0  0
   33.7480  -28.0665  -19.9617 C   0  0  1  0  0  0  0  0  0  0  0  0
   33.8379  -28.2447  -21.4259 C   0  0  0  0  0  0  0  0  0  0  0  0
   33.9520  -29.5017  -21.9716 O   0  0  0  0  0  0  0  0  0  0  0  0
   33.8099  -27.2481  -22.1682 O   0  0  0  0  0  0  0  0  0  0  0  0
  2  1  1  1
  2 13  1  0
  3  4  1  0
  3  2  1  0
  4 12  1  0
  4  5  2  0
  5  6  1  0
  6  7  1  0
  7  8  2  0
  9  8  1  0
 10  9  2  0
 11 12  2  0
 11 10  1  0
 12  7  1  0
 13 14  2  0
 15 13  1  0
 15 16  1  0
 16 17  1  6
 18 17  1  0
 19 18  1  0
 20 19  1  0
 21 20  1  0
 22 16  1  0
 22 24  1  0
 23 22  2  0
 24 28  1  0
 25 24  1  0
 25 26  1  0
 26 27  1  0
 28 27  1  0
 28 29  1  6
 29 30  1  0
 31 29  2  0
M  END
$$$$
