WKP.pdb
     RDKit          3D

 31 33  0  0  1  0  0  0  0  0999 V2000
   24.4112  -20.0282   -9.8784 N   0  0  0  0  0  0  0  0  0  0  0  0
   25.8368  -19.9895  -10.2376 C   0  0  1  0  0  0  0  0  0  0  0  0
   26.5483  -21.1141   -9.5730 C   0  0  0  0  0  0  0  0  0  0  0  0
   26.6943  -20.8073   -8.1271 C   0  0  0  0  0  0  0  0  0  0  0  0
   25.6860  -20.8330   -7.2106 C   0  0  0  0  0  0  0  0  0  0  0  0
   26.1887  -20.5070   -6.0216 N   0  0  0  0  0  0  0  0  0  0  0  0
   27.5187  -20.2631   -6.1268 C   0  0  0  0  0  0  0  0  0  0  0  0
   28.4589  -19.8954   -5.1753 C   0  0  0  0  0  0  0  0  0  0  0  0
   29.7546  -19.7191   -5.6016 C   0  0  0  0  0  0  0  0  0  0  0  0
   30.1084  -19.9000   -6.9223 C   0  0  0  0  0  0  0  0  0  0  0  0
   29.1420  -20.2670   -7.8418 C   0  0  0  0  0  0  0  0  0  0  0  0
   27.8415  -20.4510   -7.4508 C   0  0  0  0  0  0  0  0  0  0  0  0
   25.9067  -20.0444  -11.7179 C   0  0  0  0  0  0  0  0  0  0  0  0
   25.0903  -20.7616  -12.3787 O   0  0  0  0  0  0  0  0  0  0  0  0
   26.8555  -19.3233  -12.5054 N   0  0  0  0  0  0  0  0  0  0  0  0
   26.8438  -19.2261  -13.9370 C   0  0  1  0  0  0  0  0  0  0  0  0
   27.7308  -18.0588  -14.4045 C   0  0  0  0  0  0  0  0  0  0  0  0
   27.7397  -17.9133  -15.8957 C   0  0  0  0  0  0  0  0  0  0  0  0
   28.5547  -16.7892  -16.4297 C   0  0  0  0  0  0  0  0  0  0  0  0
   28.4807  -16.7869  -17.9625 C   0  0  0  0  0  0  0  0  0  0  0  0
   29.0623  -17.9772  -18.5129 N   0  0  0  0  0  0  0  0  0  0  0  0
   27.1120  -20.4297  -14.7058 C   0  0  0  0  0  0  0  0  0  0  0  0
   28.3020  -20.9226  -14.5809 O   0  0  0  0  0  0  0  0  0  0  0  0
   26.2376  -21.1335  -15.5728 N   0  0  0  0  0  0  0  0  0  0  0  0
   24.8719  -20.8995  -15.9142 C   0  0  0  0  0  0  0  0  0  0  0  0
   24.7859  -21.3334  -17.3624 C   0  0  0  0  0  0  0  0  0  0  0  0
   25.4924  -22.6882  -17.2344 C   0  0  0  0  0  0  0  0  0  0  0  0
   26.6240  -22.3456  -16.3263 C   0  0  1  0  0  0  0  0  0  0  0  0
   27.7971  -22.0567  -17.1774 C   0  0  0  0  0  0  0  0  0  0  0  0
   28.1318  -20.7603  -17.4902 O   0  0  0  0  0  0  0  0  0  0  0  0
   28.4854  -22.9958  -17.6126 O   0  0  0  0  0  0  0  0  0  0  0  0
  2  1  1  6
  2 13  1  0
  3  4  1  0
  3  2  1  0
  4 12  1  0
  4  5  2  0
  5  6  1  0
  6  7  1  0
  7  8  2  0
  9  8  1  0
 10  9  2  0
 11 12  2  0
 11 10  1  0
 12  7  1  0
 13 14  2  0
 15 13  1  0
 15 16  1  0
 16 17  1  1
 18 17  1  0
 19 18  1  0
 20 19  1  0
 21 20  1  0
 22 16  1  0
 22 24  1  0
 23 22  2  0
 24 28  1  0
 25 24  1  0
 25 26  1  0
 26 27  1  0
 28 27  1  0
 28 29  1  6
 29 30  1  0
 31 29  2  0
M  END
$$$$
