WKP.pdb
     RDKit          3D

 31 33  0  0  1  0  0  0  0  0999 V2000
   24.5210  -19.6628  -10.3580 N   0  0  0  0  0  0  0  0  0  0  0  0
   25.9332  -20.0159  -10.5679 C   0  0  1  0  0  0  0  0  0  0  0  0
   26.2589  -21.2451   -9.7962 C   0  0  0  0  0  0  0  0  0  0  0  0
   26.3674  -20.8978   -8.3562 C   0  0  0  0  0  0  0  0  0  0  0  0
   25.3200  -20.7885   -7.4910 C   0  0  0  0  0  0  0  0  0  0  0  0
   25.7969  -20.4671   -6.2902 N   0  0  0  0  0  0  0  0  0  0  0  0
   27.1480  -20.3592   -6.3369 C   0  0  0  0  0  0  0  0  0  0  0  0
   28.0750  -20.0484   -5.3526 C   0  0  0  0  0  0  0  0  0  0  0  0
   29.4003  -20.0169   -5.7192 C   0  0  0  0  0  0  0  0  0  0  0  0
   29.7953  -20.2832   -7.0135 C   0  0  0  0  0  0  0  0  0  0  0  0
   28.8409  -20.5893   -7.9671 C   0  0  0  0  0  0  0  0  0  0  0  0
   27.5117  -20.6294   -7.6358 C   0  0  0  0  0  0  0  0  0  0  0  0
   26.1216  -20.1745  -12.0303 C   0  0  0  0  0  0  0  0  0  0  0  0
   25.2818  -20.8308  -12.7243 O   0  0  0  0  0  0  0  0  0  0  0  0
   27.2164  -19.6240  -12.7643 N   0  0  0  0  0  0  0  0  0  0  0  0
   27.3861  -19.7033  -14.1870 C   0  0  1  0  0  0  0  0  0  0  0  0
   28.4998  -18.7479  -14.6503 C   0  0  0  0  0  0  0  0  0  0  0  0
   28.7533  -18.8422  -16.1240 C   0  0  0  0  0  0  0  0  0  0  0  0
   27.9937  -17.8848  -16.9722 C   0  0  0  0  0  0  0  0  0  0  0  0
   28.4117  -18.0576  -18.4386 C   0  0  0  0  0  0  0  0  0  0  0  0
   27.6455  -17.2054  -19.3016 N   0  0  0  0  0  0  0  0  0  0  0  0
   27.5411  -21.0189  -14.7843 C   0  0  0  0  0  0  0  0  0  0  0  0
   28.5874  -21.6844  -14.4140 O   0  0  0  0  0  0  0  0  0  0  0  0
   26.6931  -21.6670  -15.7183 N   0  0  0  0  0  0  0  0  0  0  0  0
   25.4209  -21.2904  -16.2437 C   0  0  0  0  0  0  0  0  0  0  0  0
   25.4540  -21.8079  -17.6664 C   0  0  0  0  0  0  0  0  0  0  0  0
   25.9567  -23.2276  -17.3784 C   0  0  0  0  0  0  0  0  0  0  0  0
   27.0056  -22.9659  -16.3519 C   0  0  1  0  0  0  0  0  0  0  0  0
   28.3003  -22.8825  -17.0594 C   0  0  0  0  0  0  0  0  0  0  0  0
   29.0268  -24.0194  -17.3246 O   0  0  0  0  0  0  0  0  0  0  0  0
   28.7338  -21.7737  -17.4169 O   0  0  0  0  0  0  0  0  0  0  0  0
  2  1  1  6
  2 13  1  0
  3  4  1  0
  3  2  1  0
  4 12  1  0
  4  5  2  0
  5  6  1  0
  6  7  1  0
  7  8  2  0
  9  8  1  0
 10  9  2  0
 11 12  2  0
 11 10  1  0
 12  7  1  0
 13 14  2  0
 15 13  1  0
 15 16  1  0
 16 17  1  1
 18 17  1  0
 19 18  1  0
 20 19  1  0
 21 20  1  0
 22 16  1  0
 22 24  1  0
 23 22  2  0
 24 28  1  0
 25 24  1  0
 25 26  1  0
 26 27  1  0
 28 27  1  0
 28 29  1  6
 29 30  1  0
 31 29  2  0
M  END
$$$$
