WKP.pdb
     RDKit          3D

 31 33  0  0  1  0  0  0  0  0999 V2000
   25.0428  -21.0430   -8.7276 N   0  0  0  0  0  0  0  0  0  0  0  0
   26.1031  -20.3518   -9.4765 C   0  0  1  0  0  0  0  0  0  0  0  0
   27.4316  -20.7398   -8.9311 C   0  0  0  0  0  0  0  0  0  0  0  0
   27.6524  -20.0307   -7.6448 C   0  0  0  0  0  0  0  0  0  0  0  0
   26.7905  -19.1398   -7.0783 C   0  0  0  0  0  0  0  0  0  0  0  0
   27.3186  -18.7122   -5.9332 N   0  0  0  0  0  0  0  0  0  0  0  0
   28.5213  -19.3028   -5.7233 C   0  0  0  0  0  0  0  0  0  0  0  0
   29.4330  -19.1769   -4.6853 C   0  0  0  0  0  0  0  0  0  0  0  0
   30.5856  -19.9235   -4.7617 C   0  0  0  0  0  0  0  0  0  0  0  0
   30.8284  -20.7651   -5.8269 C   0  0  0  0  0  0  0  0  0  0  0  0
   29.8947  -20.8636   -6.8431 C   0  0  0  0  0  0  0  0  0  0  0  0
   28.7357  -20.1338   -6.7985 C   0  0  0  0  0  0  0  0  0  0  0  0
   25.9260  -20.7158  -10.9032 C   0  0  0  0  0  0  0  0  0  0  0  0
   26.1683  -21.8979  -11.3051 O   0  0  0  0  0  0  0  0  0  0  0  0
   25.4813  -19.8105  -11.9147 N   0  0  0  0  0  0  0  0  0  0  0  0
   25.2967  -20.1380  -13.2996 C   0  0  1  0  0  0  0  0  0  0  0  0
   24.0954  -19.3705  -13.8787 C   0  0  0  0  0  0  0  0  0  0  0  0
   22.9518  -20.2769  -14.2186 C   0  0  0  0  0  0  0  0  0  0  0  0
   22.2193  -20.8543  -13.0597 C   0  0  0  0  0  0  0  0  0  0  0  0
   21.0387  -21.6931  -13.5674 C   0  0  0  0  0  0  0  0  0  0  0  0
   21.3267  -23.0963  -13.4905 N   0  0  0  0  0  0  0  0  0  0  0  0
   26.4487  -20.0526  -14.1812 C   0  0  0  0  0  0  0  0  0  0  0  0
   26.8689  -18.8567  -14.4423 O   0  0  0  0  0  0  0  0  0  0  0  0
   27.1716  -21.1100  -14.7900 N   0  0  0  0  0  0  0  0  0  0  0  0
   27.0480  -22.5253  -14.6556 C   0  0  0  0  0  0  0  0  0  0  0  0
   27.3857  -23.0467  -16.0366 C   0  0  0  0  0  0  0  0  0  0  0  0
   28.6712  -22.2447  -16.2723 C   0  0  0  0  0  0  0  0  0  0  0  0
   28.2848  -20.9063  -15.7416 C   0  0  1  0  0  0  0  0  0  0  0  0
   27.8246  -20.0961  -16.8887 C   0  0  0  0  0  0  0  0  0  0  0  0
   28.7320  -19.5139  -17.7422 O   0  0  0  0  0  0  0  0  0  0  0  0
   26.6064  -19.9413  -17.0811 O   0  0  0  0  0  0  0  0  0  0  0  0
  2  1  1  1
  2 13  1  0
  3  4  1  0
  3  2  1  0
  4 12  1  0
  4  5  2  0
  5  6  1  0
  6  7  1  0
  7  8  2  0
  9  8  1  0
 10  9  2  0
 11 12  2  0
 11 10  1  0
 12  7  1  0
 13 14  2  0
 15 13  1  0
 15 16  1  0
 16 17  1  6
 18 17  1  0
 19 18  1  0
 20 19  1  0
 21 20  1  0
 22 16  1  0
 22 24  1  0
 23 22  2  0
 24 28  1  0
 25 24  1  0
 25 26  1  0
 26 27  1  0
 28 27  1  0
 28 29  1  6
 29 30  1  0
 31 29  2  0
M  END
$$$$
