WKP.pdb
     RDKit          3D

 31 33  0  0  1  0  0  0  0  0999 V2000
   27.8840  -20.2478  -10.0732 N   0  0  0  0  0  0  0  0  0  0  0  0
   26.6115  -20.9043   -9.7376 C   0  0  1  0  0  0  0  0  0  0  0  0
   26.0255  -20.2656   -8.5288 C   0  0  0  0  0  0  0  0  0  0  0  0
   27.1247  -19.7555   -7.6700 C   0  0  0  0  0  0  0  0  0  0  0  0
   27.9992  -18.7682   -8.0133 C   0  0  0  0  0  0  0  0  0  0  0  0
   28.8395  -18.5776   -6.9981 N   0  0  0  0  0  0  0  0  0  0  0  0
   28.5417  -19.4221   -5.9795 C   0  0  0  0  0  0  0  0  0  0  0  0
   29.1268  -19.5936   -4.7334 C   0  0  0  0  0  0  0  0  0  0  0  0
   28.5860  -20.5508   -3.9071 C   0  0  0  0  0  0  0  0  0  0  0  0
   27.5046  -21.3119   -4.2989 C   0  0  0  0  0  0  0  0  0  0  0  0
   26.9486  -21.1112   -5.5497 C   0  0  0  0  0  0  0  0  0  0  0  0
   27.4628  -20.1657   -6.3980 C   0  0  0  0  0  0  0  0  0  0  0  0
   25.7452  -20.7962  -10.9364 C   0  0  0  0  0  0  0  0  0  0  0  0
   25.7278  -19.7296  -11.6290 O   0  0  0  0  0  0  0  0  0  0  0  0
   24.8889  -21.8385  -11.4063 N   0  0  0  0  0  0  0  0  0  0  0  0
   24.1335  -21.8063  -12.6259 C   0  0  1  0  0  0  0  0  0  0  0  0
   24.3132  -23.1209  -13.4053 C   0  0  0  0  0  0  0  0  0  0  0  0
   25.6963  -23.2670  -13.9626 C   0  0  0  0  0  0  0  0  0  0  0  0
   25.9403  -22.5969  -15.2681 C   0  0  0  0  0  0  0  0  0  0  0  0
   27.3647  -22.9103  -15.7455 C   0  0  0  0  0  0  0  0  0  0  0  0
   27.6887  -22.1741  -16.9334 N   0  0  0  0  0  0  0  0  0  0  0  0
   22.7326  -21.4272  -12.5520 C   0  0  0  0  0  0  0  0  0  0  0  0
   21.9904  -22.1648  -11.7906 O   0  0  0  0  0  0  0  0  0  0  0  0
   22.0758  -20.3532  -13.2051 N   0  0  0  0  0  0  0  0  0  0  0  0
   22.5659  -19.3788  -14.1252 C   0  0  0  0  0  0  0  0  0  0  0  0
   21.3905  -19.1355  -15.0485 C   0  0  0  0  0  0  0  0  0  0  0  0
   20.3035  -18.9439  -13.9841 C   0  0  0  0  0  0  0  0  0  0  0  0
   20.6470  -20.0233  -13.0148 C   0  0  1  0  0  0  0  0  0  0  0  0
   19.8109  -21.1950  -13.3491 C   0  0  0  0  0  0  0  0  0  0  0  0
   20.2356  -22.1146  -14.2790 O   0  0  0  0  0  0  0  0  0  0  0  0
   18.7149  -21.3481  -12.7831 O   0  0  0  0  0  0  0  0  0  0  0  0
  2  1  1  6
  2 13  1  0
  3  4  1  0
  3  2  1  0
  4 12  1  0
  4  5  2  0
  5  6  1  0
  6  7  1  0
  7  8  2  0
  9  8  1  0
 10  9  2  0
 11 12  2  0
 11 10  1  0
 12  7  1  0
 13 14  2  0
 15 13  1  0
 15 16  1  0
 16 17  1  1
 18 17  1  0
 19 18  1  0
 20 19  1  0
 21 20  1  0
 22 16  1  0
 22 24  1  0
 23 22  2  0
 24 28  1  0
 25 24  1  0
 25 26  1  0
 26 27  1  0
 28 27  1  0
 28 29  1  6
 29 30  1  0
 31 29  2  0
M  END
$$$$
