WKP.pdb
     RDKit          3D

 31 33  0  0  1  0  0  0  0  0999 V2000
   28.3432  -21.5770  -12.1488 N   0  0  0  0  0  0  0  0  0  0  0  0
   27.5186  -21.3095  -10.9608 C   0  0  1  0  0  0  0  0  0  0  0  0
   28.3020  -20.5103   -9.9808 C   0  0  0  0  0  0  0  0  0  0  0  0
   27.5334  -20.4100   -8.7139 C   0  0  0  0  0  0  0  0  0  0  0  0
   26.1932  -20.6220   -8.5866 C   0  0  0  0  0  0  0  0  0  0  0  0
   25.8579  -20.4463   -7.3100 N   0  0  0  0  0  0  0  0  0  0  0  0
   26.9529  -20.1197   -6.5794 C   0  0  0  0  0  0  0  0  0  0  0  0
   27.1016  -19.8451   -5.2277 C   0  0  0  0  0  0  0  0  0  0  0  0
   28.3657  -19.5404   -4.7795 C   0  0  0  0  0  0  0  0  0  0  0  0
   29.4450  -19.5083   -5.6375 C   0  0  0  0  0  0  0  0  0  0  0  0
   29.2565  -19.7881   -6.9792 C   0  0  0  0  0  0  0  0  0  0  0  0
   28.0102  -20.0956   -7.4591 C   0  0  0  0  0  0  0  0  0  0  0  0
   26.2952  -20.6190  -11.4359 C   0  0  0  0  0  0  0  0  0  0  0  0
   26.3230  -19.3825  -11.7325 O   0  0  0  0  0  0  0  0  0  0  0  0
   25.0264  -21.2540  -11.6012 N   0  0  0  0  0  0  0  0  0  0  0  0
   23.9755  -20.7975  -12.4652 C   0  0  1  0  0  0  0  0  0  0  0  0
   24.3580  -21.0156  -13.9396 C   0  0  0  0  0  0  0  0  0  0  0  0
   25.1202  -19.8569  -14.5067 C   0  0  0  0  0  0  0  0  0  0  0  0
   25.5250  -19.9862  -15.9323 C   0  0  0  0  0  0  0  0  0  0  0  0
   26.2682  -18.7169  -16.3700 C   0  0  0  0  0  0  0  0  0  0  0  0
   26.6943  -18.8091  -17.7367 N   0  0  0  0  0  0  0  0  0  0  0  0
   22.6236  -21.2597  -12.1998 C   0  0  0  0  0  0  0  0  0  0  0  0
   22.4249  -22.5299  -12.3478 O   0  0  0  0  0  0  0  0  0  0  0  0
   21.4961  -20.4987  -11.7983 N   0  0  0  0  0  0  0  0  0  0  0  0
   21.3283  -19.0908  -11.6367 C   0  0  0  0  0  0  0  0  0  0  0  0
   19.8910  -18.8522  -12.0497 C   0  0  0  0  0  0  0  0  0  0  0  0
   19.2322  -19.9666  -11.2279 C   0  0  0  0  0  0  0  0  0  0  0  0
   20.1909  -21.0897  -11.4329 C   0  0  1  0  0  0  0  0  0  0  0  0
   19.6769  -21.9061  -12.5523 C   0  0  0  0  0  0  0  0  0  0  0  0
   18.6874  -22.8374  -12.3417 O   0  0  0  0  0  0  0  0  0  0  0  0
   20.1447  -21.7474  -13.6929 O   0  0  0  0  0  0  0  0  0  0  0  0
  2  1  1  6
  2 13  1  0
  3  4  1  0
  3  2  1  0
  4 12  1  0
  4  5  2  0
  5  6  1  0
  6  7  1  0
  7  8  2  0
  9  8  1  0
 10  9  2  0
 11 12  2  0
 11 10  1  0
 12  7  1  0
 13 14  2  0
 15 13  1  0
 15 16  1  0
 16 17  1  6
 18 17  1  0
 19 18  1  0
 20 19  1  0
 21 20  1  0
 22 16  1  0
 22 24  1  0
 23 22  2  0
 24 28  1  0
 25 24  1  0
 25 26  1  0
 26 27  1  0
 28 27  1  0
 28 29  1  6
 29 30  1  0
 31 29  2  0
M  END
$$$$
