WKP.pdb
     RDKit          3D

 31 33  0  0  1  0  0  0  0  0999 V2000
   25.2288  -20.9171  -16.2483 N   0  0  0  0  0  0  0  0  0  0  0  0
   25.8905  -19.9432  -15.3670 C   0  0  1  0  0  0  0  0  0  0  0  0
   24.9642  -18.8128  -15.0899 C   0  0  0  0  0  0  0  0  0  0  0  0
   25.0495  -17.8333  -16.2031 C   0  0  0  0  0  0  0  0  0  0  0  0
   24.0293  -17.5082  -17.0463 C   0  0  0  0  0  0  0  0  0  0  0  0
   24.4715  -16.5984  -17.9120 N   0  0  0  0  0  0  0  0  0  0  0  0
   25.7727  -16.3085  -17.6622 C   0  0  0  0  0  0  0  0  0  0  0  0
   26.6512  -15.4356  -18.2873 C   0  0  0  0  0  0  0  0  0  0  0  0
   27.9321  -15.3643  -17.7913 C   0  0  0  0  0  0  0  0  0  0  0  0
   28.3304  -16.1290  -16.7149 C   0  0  0  0  0  0  0  0  0  0  0  0
   27.4250  -16.9881  -16.1181 C   0  0  0  0  0  0  0  0  0  0  0  0
   26.1409  -17.0838  -16.5871 C   0  0  0  0  0  0  0  0  0  0  0  0
   26.2990  -20.6795  -14.1463 C   0  0  0  0  0  0  0  0  0  0  0  0
   25.5608  -21.5970  -13.6657 O   0  0  0  0  0  0  0  0  0  0  0  0
   27.5110  -20.4387  -13.4298 N   0  0  0  0  0  0  0  0  0  0  0  0
   27.7641  -20.8269  -12.0717 C   0  0  1  0  0  0  0  0  0  0  0  0
   29.2615  -20.6927  -11.7437 C   0  0  0  0  0  0  0  0  0  0  0  0
   30.0235  -21.9481  -12.0410 C   0  0  0  0  0  0  0  0  0  0  0  0
   31.4751  -21.9139  -11.7177 C   0  0  0  0  0  0  0  0  0  0  0  0
   32.1512  -23.1776  -12.2666 C   0  0  0  0  0  0  0  0  0  0  0  0
   33.5553  -23.1855  -11.9726 N   0  0  0  0  0  0  0  0  0  0  0  0
   26.9432  -20.2366  -11.0280 C   0  0  0  0  0  0  0  0  0  0  0  0
   27.0393  -18.9528  -10.8963 O   0  0  0  0  0  0  0  0  0  0  0  0
   26.0503  -20.8857  -10.1376 N   0  0  0  0  0  0  0  0  0  0  0  0
   25.5505  -22.2223  -10.1246 C   0  0  0  0  0  0  0  0  0  0  0  0
   25.4202  -22.5411   -8.6500 C   0  0  0  0  0  0  0  0  0  0  0  0
   24.6847  -21.2701   -8.2086 C   0  0  0  0  0  0  0  0  0  0  0  0
   25.4184  -20.2238   -8.9762 C   0  0  1  0  0  0  0  0  0  0  0  0
   26.4590  -19.6734   -8.0829 C   0  0  0  0  0  0  0  0  0  0  0  0
   26.1386  -18.7325   -7.1327 O   0  0  0  0  0  0  0  0  0  0  0  0
   27.6331  -20.0663   -8.1934 O   0  0  0  0  0  0  0  0  0  0  0  0
  2  1  1  6
  2 13  1  0
  3  4  1  0
  3  2  1  0
  4 12  1  0
  4  5  2  0
  5  6  1  0
  6  7  1  0
  7  8  2  0
  9  8  1  0
 10  9  2  0
 11 12  2  0
 11 10  1  0
 12  7  1  0
 13 14  2  0
 15 13  1  0
 15 16  1  0
 16 17  1  1
 18 17  1  0
 19 18  1  0
 20 19  1  0
 21 20  1  0
 22 16  1  0
 22 24  1  0
 23 22  2  0
 24 28  1  0
 25 24  1  0
 25 26  1  0
 26 27  1  0
 28 27  1  0
 28 29  1  1
 29 30  1  0
 31 29  2  0
M  END
$$$$
