WKP.pdb
     RDKit          3D

 31 33  0  0  1  0  0  0  0  0999 V2000
   25.0443  -21.3149   -8.2881 N   0  0  0  0  0  0  0  0  0  0  0  0
   25.9059  -20.5067   -9.1640 C   0  0  1  0  0  0  0  0  0  0  0  0
   27.3274  -20.6803   -8.7617 C   0  0  0  0  0  0  0  0  0  0  0  0
   27.5384  -20.0361   -7.4401 C   0  0  0  0  0  0  0  0  0  0  0  0
   26.7074  -19.1192   -6.8690 C   0  0  0  0  0  0  0  0  0  0  0  0
   27.2144  -18.7681   -5.6890 N   0  0  0  0  0  0  0  0  0  0  0  0
   28.3727  -19.4356   -5.4601 C   0  0  0  0  0  0  0  0  0  0  0  0
   29.2493  -19.4036   -4.3854 C   0  0  0  0  0  0  0  0  0  0  0  0
   30.3597  -20.2127   -4.4506 C   0  0  0  0  0  0  0  0  0  0  0  0
   30.5951  -21.0248   -5.5401 C   0  0  0  0  0  0  0  0  0  0  0  0
   29.6973  -21.0290   -6.5927 C   0  0  0  0  0  0  0  0  0  0  0  0
   28.5807  -20.2351   -6.5601 C   0  0  0  0  0  0  0  0  0  0  0  0
   25.6325  -20.9437  -10.5545 C   0  0  0  0  0  0  0  0  0  0  0  0
   26.0792  -22.0544  -10.9841 O   0  0  0  0  0  0  0  0  0  0  0  0
   24.8703  -20.1904  -11.4989 N   0  0  0  0  0  0  0  0  0  0  0  0
   24.6761  -20.5399  -12.8771 C   0  0  1  0  0  0  0  0  0  0  0  0
   23.2106  -20.3140  -13.2883 C   0  0  0  0  0  0  0  0  0  0  0  0
   22.9519  -20.7080  -14.7106 C   0  0  0  0  0  0  0  0  0  0  0  0
   22.5230  -22.1165  -14.9225 C   0  0  0  0  0  0  0  0  0  0  0  0
   22.3092  -22.3661  -16.4215 C   0  0  0  0  0  0  0  0  0  0  0  0
   21.8877  -23.7148  -16.6691 N   0  0  0  0  0  0  0  0  0  0  0  0
   25.5891  -19.9797  -13.8591 C   0  0  0  0  0  0  0  0  0  0  0  0
   25.3827  -18.7422  -14.1765 O   0  0  0  0  0  0  0  0  0  0  0  0
   26.6767  -20.6138  -14.5122 N   0  0  0  0  0  0  0  0  0  0  0  0
   27.2579  -21.9032  -14.3219 C   0  0  0  0  0  0  0  0  0  0  0  0
   27.6879  -22.3108  -15.7155 C   0  0  0  0  0  0  0  0  0  0  0  0
   28.4075  -21.0177  -16.1168 C   0  0  0  0  0  0  0  0  0  0  0  0
   27.4727  -19.9841  -15.5873 C   0  0  1  0  0  0  0  0  0  0  0  0
   26.5871  -19.5826  -16.7002 C   0  0  0  0  0  0  0  0  0  0  0  0
   27.0684  -18.8155  -17.7349 O   0  0  0  0  0  0  0  0  0  0  0  0
   25.3975  -19.9430  -16.6983 O   0  0  0  0  0  0  0  0  0  0  0  0
  2  1  1  1
  2 13  1  0
  3  4  1  0
  3  2  1  0
  4 12  1  0
  4  5  2  0
  5  6  1  0
  6  7  1  0
  7  8  2  0
  9  8  1  0
 10  9  2  0
 11 12  2  0
 11 10  1  0
 12  7  1  0
 13 14  2  0
 15 13  1  0
 15 16  1  0
 16 17  1  6
 18 17  1  0
 19 18  1  0
 20 19  1  0
 21 20  1  0
 22 16  1  0
 22 24  1  0
 23 22  2  0
 24 28  1  0
 25 24  1  0
 25 26  1  0
 26 27  1  0
 28 27  1  0
 28 29  1  6
 29 30  1  0
 31 29  2  0
M  END
$$$$
