WKP.pdb
     RDKit          3D

 31 33  0  0  1  0  0  0  0  0999 V2000
   21.5926  -14.7683  -17.9307 N   0  0  0  0  0  0  0  0  0  0  0  0
   22.8328  -15.4747  -18.2852 C   0  0  1  0  0  0  0  0  0  0  0  0
   23.8989  -14.4843  -18.5941 C   0  0  0  0  0  0  0  0  0  0  0  0
   23.7007  -13.9752  -19.9752 C   0  0  0  0  0  0  0  0  0  0  0  0
   23.1424  -12.7751  -20.2999 C   0  0  0  0  0  0  0  0  0  0  0  0
   23.1322  -12.6600  -21.6264 N   0  0  0  0  0  0  0  0  0  0  0  0
   23.6752  -13.7646  -22.1960 C   0  0  0  0  0  0  0  0  0  0  0  0
   23.8790  -14.1009  -23.5264 C   0  0  0  0  0  0  0  0  0  0  0  0
   24.4645  -15.3175  -23.7887 C   0  0  0  0  0  0  0  0  0  0  0  0
   24.8354  -16.1717  -22.7715 C   0  0  0  0  0  0  0  0  0  0  0  0
   24.6156  -15.8006  -21.4569 C   0  0  0  0  0  0  0  0  0  0  0  0
   24.0345  -14.5955  -21.1602 C   0  0  0  0  0  0  0  0  0  0  0  0
   23.1654  -16.3561  -17.1398 C   0  0  0  0  0  0  0  0  0  0  0  0
   22.9792  -15.9632  -15.9446 O   0  0  0  0  0  0  0  0  0  0  0  0
   23.6994  -17.6747  -17.2685 N   0  0  0  0  0  0  0  0  0  0  0  0
   23.8369  -18.6230  -16.2003 C   0  0  1  0  0  0  0  0  0  0  0  0
   22.5512  -19.4550  -16.0504 C   0  0  0  0  0  0  0  0  0  0  0  0
   22.6651  -20.4882  -14.9714 C   0  0  0  0  0  0  0  0  0  0  0  0
   22.0985  -20.1067  -13.6499 C   0  0  0  0  0  0  0  0  0  0  0  0
   22.3272  -21.2458  -12.6472 C   0  0  0  0  0  0  0  0  0  0  0  0
   21.9650  -20.8483  -11.3173 N   0  0  0  0  0  0  0  0  0  0  0  0
   25.0160  -19.4722  -16.1882 C   0  0  0  0  0  0  0  0  0  0  0  0
   24.9828  -20.4911  -16.9855 O   0  0  0  0  0  0  0  0  0  0  0  0
   26.1974  -19.3271  -15.4171 N   0  0  0  0  0  0  0  0  0  0  0  0
   26.5176  -18.4252  -14.3586 C   0  0  0  0  0  0  0  0  0  0  0  0
   27.4092  -19.2438  -13.4486 C   0  0  0  0  0  0  0  0  0  0  0  0
   28.3619  -19.8046  -14.5111 C   0  0  0  0  0  0  0  0  0  0  0  0
   27.4111  -20.1503  -15.6061 C   0  0  1  0  0  0  0  0  0  0  0  0
   27.0760  -21.5821  -15.4599 C   0  0  0  0  0  0  0  0  0  0  0  0
   27.9997  -22.5518  -15.7719 O   0  0  0  0  0  0  0  0  0  0  0  0
   25.9488  -21.9098  -15.0512 O   0  0  0  0  0  0  0  0  0  0  0  0
  2  1  1  1
  2 13  1  0
  3  4  1  0
  3  2  1  0
  4 12  1  0
  4  5  2  0
  5  6  1  0
  6  7  1  0
  7  8  2  0
  9  8  1  0
 10  9  2  0
 11 12  2  0
 11 10  1  0
 12  7  1  0
 13 14  2  0
 15 13  1  0
 15 16  1  0
 16 17  1  6
 18 17  1  0
 19 18  1  0
 20 19  1  0
 21 20  1  0
 22 16  1  0
 22 24  1  0
 23 22  2  0
 24 28  1  0
 25 24  1  0
 25 26  1  0
 26 27  1  0
 28 27  1  0
 28 29  1  1
 29 30  1  0
 31 29  2  0
M  END
$$$$
