WKP.pdb
     RDKit          3D

 31 33  0  0  1  0  0  0  0  0999 V2000
   28.1434  -21.8585  -10.7671 N   0  0  0  0  0  0  0  0  0  0  0  0
   26.9593  -21.2169  -10.1762 C   0  0  1  0  0  0  0  0  0  0  0  0
   27.3615  -19.9519   -9.5048 C   0  0  0  0  0  0  0  0  0  0  0  0
   28.3373  -20.2641   -8.4294 C   0  0  0  0  0  0  0  0  0  0  0  0
   29.4913  -20.9702   -8.5933 C   0  0  0  0  0  0  0  0  0  0  0  0
   30.1088  -21.0481   -7.4163 N   0  0  0  0  0  0  0  0  0  0  0  0
   29.3864  -20.4049   -6.4656 C   0  0  0  0  0  0  0  0  0  0  0  0
   29.6190  -20.2182   -5.1107 C   0  0  0  0  0  0  0  0  0  0  0  0
   28.6805  -19.5072   -4.3998 C   0  0  0  0  0  0  0  0  0  0  0  0
   27.5515  -18.9987   -5.0070 C   0  0  0  0  0  0  0  0  0  0  0  0
   27.3548  -19.2057   -6.3607 C   0  0  0  0  0  0  0  0  0  0  0  0
   28.2700  -19.9096   -7.0988 C   0  0  0  0  0  0  0  0  0  0  0  0
   25.9886  -21.0126  -11.2786 C   0  0  0  0  0  0  0  0  0  0  0  0
   26.1217  -20.0398  -12.0870 O   0  0  0  0  0  0  0  0  0  0  0  0
   24.8635  -21.8573  -11.5261 N   0  0  0  0  0  0  0  0  0  0  0  0
   24.0271  -21.8065  -12.6911 C   0  0  1  0  0  0  0  0  0  0  0  0
   23.7666  -23.2244  -13.2289 C   0  0  0  0  0  0  0  0  0  0  0  0
   24.1881  -23.3767  -14.6586 C   0  0  0  0  0  0  0  0  0  0  0  0
   25.6125  -23.7467  -14.8758 C   0  0  0  0  0  0  0  0  0  0  0  0
   25.9308  -23.6968  -16.3762 C   0  0  0  0  0  0  0  0  0  0  0  0
   27.3402  -23.8209  -16.6130 N   0  0  0  0  0  0  0  0  0  0  0  0
   22.7953  -21.0395  -12.6147 C   0  0  0  0  0  0  0  0  0  0  0  0
   21.9727  -21.3894  -11.6790 O   0  0  0  0  0  0  0  0  0  0  0  0
   22.3801  -19.9572  -13.4319 N   0  0  0  0  0  0  0  0  0  0  0  0
   23.0372  -19.2966  -14.5128 C   0  0  0  0  0  0  0  0  0  0  0  0
   21.9043  -18.9238  -15.4459 C   0  0  0  0  0  0  0  0  0  0  0  0
   20.9578  -18.2998  -14.4135 C   0  0  0  0  0  0  0  0  0  0  0  0
   21.0860  -19.2585  -13.2791 C   0  0  1  0  0  0  0  0  0  0  0  0
   19.9749  -20.2258  -13.3949 C   0  0  0  0  0  0  0  0  0  0  0  0
   18.7736  -19.9891  -12.7691 O   0  0  0  0  0  0  0  0  0  0  0  0
   20.1302  -21.2614  -14.0646 O   0  0  0  0  0  0  0  0  0  0  0  0
  2  1  1  6
  2 13  1  0
  3  4  1  0
  3  2  1  0
  4 12  1  0
  4  5  2  0
  5  6  1  0
  6  7  1  0
  7  8  2  0
  9  8  1  0
 10  9  2  0
 11 12  2  0
 11 10  1  0
 12  7  1  0
 13 14  2  0
 15 13  1  0
 15 16  1  0
 16 17  1  1
 18 17  1  0
 19 18  1  0
 20 19  1  0
 21 20  1  0
 22 16  1  0
 22 24  1  0
 23 22  2  0
 24 28  1  0
 25 24  1  0
 25 26  1  0
 26 27  1  0
 28 27  1  0
 28 29  1  6
 29 30  1  0
 31 29  2  0
M  END
$$$$
