FKM.pdb
     RDKit          3D

 29 29  0  0  1  0  0  0  0  0999 V2000
   21.7619  -21.7116  -14.2966 N   0  0  0  0  0  0  0  0  0  0  0  0
   22.3226  -20.5740  -13.5787 C   0  0  1  0  0  0  0  0  0  0  0  0
   21.2422  -19.8510  -12.7989 C   0  0  0  0  0  0  0  0  0  0  0  0
   20.3104  -19.1282  -13.6960 C   0  0  0  0  0  0  0  0  0  0  0  0
   19.0390  -19.5979  -13.9440 C   0  0  0  0  0  0  0  0  0  0  0  0
   18.2094  -18.8735  -14.7980 C   0  0  0  0  0  0  0  0  0  0  0  0
   18.6228  -17.7164  -15.3917 C   0  0  0  0  0  0  0  0  0  0  0  0
   19.8936  -17.2405  -15.1481 C   0  0  0  0  0  0  0  0  0  0  0  0
   20.7305  -17.9645  -14.2913 C   0  0  0  0  0  0  0  0  0  0  0  0
   23.2884  -21.1169  -12.6014 C   0  0  0  0  0  0  0  0  0  0  0  0
   23.0124  -22.0252  -11.7715 O   0  0  0  0  0  0  0  0  0  0  0  0
   24.6144  -20.5913  -12.5852 N   0  0  0  0  0  0  0  0  0  0  0  0
   25.6494  -21.1226  -11.7244 C   0  0  1  0  0  0  0  0  0  0  0  0
   26.9231  -21.1525  -12.5197 C   0  0  0  0  0  0  0  0  0  0  0  0
   26.8275  -21.9924  -13.7704 C   0  0  0  0  0  0  0  0  0  0  0  0
   28.1681  -22.1603  -14.4441 C   0  0  0  0  0  0  0  0  0  0  0  0
   27.9586  -22.9745  -15.7035 C   0  0  0  0  0  0  0  0  0  0  0  0
   29.2352  -23.2610  -16.3119 N   0  0  0  0  0  0  0  0  0  0  0  0
   25.7545  -20.3658  -10.4551 C   0  0  0  0  0  0  0  0  0  0  0  0
   25.3617  -19.1708  -10.3967 O   0  0  0  0  0  0  0  0  0  0  0  0
   28.4858  -20.3349   -2.9243 C   0  0  0  0  0  0  0  0  0  0  0  0
   28.1138  -21.2613   -4.4363 S   0  0  0  0  0  0  0  0  0  0  0  0
   27.6363  -20.2091   -5.7927 C   0  0  0  0  0  0  0  0  0  0  0  0
   27.1670  -20.9731   -6.9873 C   0  0  0  0  0  0  0  0  0  0  0  0
   26.7380  -20.1133   -8.1312 C   0  0  2  0  0  0  0  0  0  0  0  0
   26.2846  -20.9138   -9.2628 N   0  0  0  0  0  0  0  0  0  0  0  0
   27.8425  -19.2687   -8.5782 C   0  0  0  0  0  0  0  0  0  0  0  0
   28.6580  -19.5875   -9.4786 O   0  0  0  0  0  0  0  0  0  0  0  0
   28.0695  -18.0029   -8.0088 O   0  0  0  0  0  0  0  0  0  0  0  0
  2  1  1  1
  3  4  1  0
  3  2  1  0
  4  9  2  0
  4  5  1  0
  5  6  2  0
  6  7  1  0
  8  7  2  0
  9  8  1  0
 10 12  1  0
 10  2  1  0
 11 10  2  0
 13 12  1  0
 13 14  1  6
 14 15  1  0
 15 16  1  0
 16 17  1  0
 17 18  1  0
 19 13  1  0
 20 19  2  0
 21 22  1  0
 23 24  1  0
 23 22  1  0
 25 24  1  1
 25 27  1  0
 25 26  1  0
 26 19  1  0
 27 29  1  0
 28 27  2  0
M  END
$$$$
