FKM.pdb
     RDKit          3D

 29 29  0  0  1  0  0  0  0  0999 V2000
   26.2101  -18.4453   -7.9997 N   0  0  0  0  0  0  0  0  0  0  0  0
   26.9056  -19.6172   -8.5161 C   0  0  1  0  0  0  0  0  0  0  0  0
   26.8580  -20.7510   -7.5109 C   0  0  0  0  0  0  0  0  0  0  0  0
   27.6163  -20.4240   -6.2807 C   0  0  0  0  0  0  0  0  0  0  0  0
   26.9841  -20.2551   -5.0681 C   0  0  0  0  0  0  0  0  0  0  0  0
   27.7522  -19.9476   -3.9465 C   0  0  0  0  0  0  0  0  0  0  0  0
   29.1080  -19.8103   -4.0191 C   0  0  0  0  0  0  0  0  0  0  0  0
   29.7472  -19.9779   -5.2290 C   0  0  0  0  0  0  0  0  0  0  0  0
   28.9801  -20.2867   -6.3583 C   0  0  0  0  0  0  0  0  0  0  0  0
   26.1691  -20.0580   -9.7186 C   0  0  0  0  0  0  0  0  0  0  0  0
   24.9127  -20.0314   -9.8218 O   0  0  0  0  0  0  0  0  0  0  0  0
   26.9111  -20.5445  -10.8355 N   0  0  0  0  0  0  0  0  0  0  0  0
   26.5706  -20.2054  -12.2006 C   0  0  1  0  0  0  0  0  0  0  0  0
   27.8549  -20.1117  -12.9736 C   0  0  0  0  0  0  0  0  0  0  0  0
   27.6650  -19.6353  -14.3933 C   0  0  0  0  0  0  0  0  0  0  0  0
   27.8246  -20.7553  -15.3931 C   0  0  0  0  0  0  0  0  0  0  0  0
   27.7077  -20.1618  -16.7812 C   0  0  0  0  0  0  0  0  0  0  0  0
   27.8487  -21.2060  -17.7670 N   0  0  0  0  0  0  0  0  0  0  0  0
   25.5928  -21.1566  -12.7785 C   0  0  0  0  0  0  0  0  0  0  0  0
   25.5332  -22.3398  -12.3519 O   0  0  0  0  0  0  0  0  0  0  0  0
   20.9125  -21.7941   -9.7794 C   0  0  0  0  0  0  0  0  0  0  0  0
   20.1824  -21.1305  -11.2989 S   0  0  0  0  0  0  0  0  0  0  0  0
   21.1244  -21.5396  -12.7552 C   0  0  0  0  0  0  0  0  0  0  0  0
   22.5435  -21.0798  -12.6809 C   0  0  0  0  0  0  0  0  0  0  0  0
   23.3357  -21.3441  -13.9197 C   0  0  2  0  0  0  0  0  0  0  0  0
   24.6901  -20.8137  -13.8131 N   0  0  0  0  0  0  0  0  0  0  0  0
   22.6917  -20.7317  -15.0787 C   0  0  0  0  0  0  0  0  0  0  0  0
   21.7588  -21.2610  -15.7321 O   0  0  0  0  0  0  0  0  0  0  0  0
   23.0897  -19.4682  -15.5513 O   0  0  0  0  0  0  0  0  0  0  0  0
  2  1  1  1
  3  4  1  0
  3  2  1  0
  4  9  2  0
  4  5  1  0
  5  6  2  0
  6  7  1  0
  8  7  2  0
  9  8  1  0
 10 12  1  0
 10  2  1  0
 11 10  2  0
 13 12  1  0
 13 14  1  6
 14 15  1  0
 15 16  1  0
 16 17  1  0
 17 18  1  0
 19 13  1  0
 20 19  2  0
 21 22  1  0
 23 24  1  0
 23 22  1  0
 25 24  1  1
 25 27  1  0
 25 26  1  0
 26 19  1  0
 27 29  1  0
 28 27  2  0
M  END
$$$$
