FKM.pdb
     RDKit          3D

 29 29  0  0  1  0  0  0  0  0999 V2000
   28.2263  -21.5230  -10.7713 N   0  0  0  0  0  0  0  0  0  0  0  0
   26.8566  -21.1774  -10.4128 C   0  0  1  0  0  0  0  0  0  0  0  0
   26.8058  -19.8112   -9.7579 C   0  0  0  0  0  0  0  0  0  0  0  0
   27.3246  -19.8497   -8.3704 C   0  0  0  0  0  0  0  0  0  0  0  0
   26.4916  -19.6863   -7.2850 C   0  0  0  0  0  0  0  0  0  0  0  0
   27.0395  -19.7319   -6.0043 C   0  0  0  0  0  0  0  0  0  0  0  0
   28.3736  -19.9334   -5.7996 C   0  0  0  0  0  0  0  0  0  0  0  0
   29.2129  -20.0976   -6.8810 C   0  0  0  0  0  0  0  0  0  0  0  0
   28.6674  -20.0525   -8.1691 C   0  0  0  0  0  0  0  0  0  0  0  0
   26.0909  -21.0946  -11.6737 C   0  0  0  0  0  0  0  0  0  0  0  0
   26.4752  -20.4515  -12.6878 O   0  0  0  0  0  0  0  0  0  0  0  0
   24.8419  -21.7779  -11.7619 N   0  0  0  0  0  0  0  0  0  0  0  0
   24.0517  -21.7971  -12.9742 C   0  0  1  0  0  0  0  0  0  0  0  0
   23.7896  -23.2358  -13.3164 C   0  0  0  0  0  0  0  0  0  0  0  0
   24.0521  -23.5630  -14.7665 C   0  0  0  0  0  0  0  0  0  0  0  0
   25.4204  -24.1668  -14.9725 C   0  0  0  0  0  0  0  0  0  0  0  0
   25.6349  -24.3392  -16.4615 C   0  0  0  0  0  0  0  0  0  0  0  0
   26.9466  -24.8909  -16.7004 N   0  0  0  0  0  0  0  0  0  0  0  0
   22.8229  -20.9795  -12.8455 C   0  0  0  0  0  0  0  0  0  0  0  0
   22.1548  -21.0053  -11.7785 O   0  0  0  0  0  0  0  0  0  0  0  0
   20.7780  -16.8573  -17.5787 C   0  0  0  0  0  0  0  0  0  0  0  0
   19.3720  -16.7668  -16.4397 S   0  0  0  0  0  0  0  0  0  0  0  0
   19.5607  -17.8291  -15.0215 C   0  0  0  0  0  0  0  0  0  0  0  0
   20.8954  -18.4972  -14.9660 C   0  0  0  0  0  0  0  0  0  0  0  0
   21.0669  -19.4213  -13.8046 C   0  0  2  0  0  0  0  0  0  0  0  0
   22.3324  -20.1426  -13.8759 N   0  0  0  0  0  0  0  0  0  0  0  0
   19.9820  -20.3984  -13.7644 C   0  0  0  0  0  0  0  0  0  0  0  0
   19.9423  -21.4413  -14.4631 O   0  0  0  0  0  0  0  0  0  0  0  0
   18.8768  -20.2263  -12.9117 O   0  0  0  0  0  0  0  0  0  0  0  0
  2  1  1  6
  3  4  1  0
  3  2  1  0
  4  9  2  0
  4  5  1  0
  5  6  2  0
  6  7  1  0
  8  7  2  0
  9  8  1  0
 10 12  1  0
 10  2  1  0
 11 10  2  0
 13 12  1  0
 13 14  1  1
 14 15  1  0
 15 16  1  0
 16 17  1  0
 17 18  1  0
 19 13  1  0
 20 19  2  0
 21 22  1  0
 23 24  1  0
 23 22  1  0
 25 24  1  6
 25 27  1  0
 25 26  1  0
 26 19  1  0
 27 29  1  0
 28 27  2  0
M  END
$$$$
