FKM.pdb
     RDKit          3D

 29 29  0  0  1  0  0  0  0  0999 V2000
   23.0762  -17.5215  -19.0597 N   0  0  0  0  0  0  0  0  0  0  0  0
   23.7496  -17.1064  -17.8357 C   0  0  1  0  0  0  0  0  0  0  0  0
   22.8251  -16.2650  -16.9781 C   0  0  0  0  0  0  0  0  0  0  0  0
   22.4901  -14.9790  -17.6335 C   0  0  0  0  0  0  0  0  0  0  0  0
   21.1933  -14.6596  -17.9727 C   0  0  0  0  0  0  0  0  0  0  0  0
   20.9418  -13.4347  -18.5881 C   0  0  0  0  0  0  0  0  0  0  0  0
   21.9426  -12.5483  -18.8615 C   0  0  0  0  0  0  0  0  0  0  0  0
   23.2424  -12.8613  -18.5249 C   0  0  0  0  0  0  0  0  0  0  0  0
   23.5002  -14.0903  -17.9069 C   0  0  0  0  0  0  0  0  0  0  0  0
   24.0609  -18.3365  -17.0789 C   0  0  0  0  0  0  0  0  0  0  0  0
   23.1889  -19.1544  -16.6785 O   0  0  0  0  0  0  0  0  0  0  0  0
   25.4244  -18.6276  -16.7770 N   0  0  0  0  0  0  0  0  0  0  0  0
   25.8246  -19.8284  -16.0753 C   0  0  1  0  0  0  0  0  0  0  0  0
   27.2439  -20.1250  -16.4666 C   0  0  0  0  0  0  0  0  0  0  0  0
   27.7990  -21.3650  -15.8085 C   0  0  0  0  0  0  0  0  0  0  0  0
   29.2464  -21.5983  -16.1688 C   0  0  0  0  0  0  0  0  0  0  0  0
   29.3424  -22.9364  -16.8711 C   0  0  0  0  0  0  0  0  0  0  0  0
   30.7184  -23.2061  -17.2116 N   0  0  0  0  0  0  0  0  0  0  0  0
   25.6202  -19.7075  -14.6129 C   0  0  0  0  0  0  0  0  0  0  0  0
   25.5280  -18.5709  -14.0789 O   0  0  0  0  0  0  0  0  0  0  0  0
   20.5006  -18.6159  -10.7274 C   0  0  0  0  0  0  0  0  0  0  0  0
   21.0367  -20.2750  -11.2197 S   0  0  0  0  0  0  0  0  0  0  0  0
   22.8031  -20.4889  -11.1220 C   0  0  0  0  0  0  0  0  0  0  0  0
   23.4593  -20.5459  -12.4625 C   0  0  0  0  0  0  0  0  0  0  0  0
   24.9368  -20.7608  -12.4094 C   0  0  2  0  0  0  0  0  0  0  0  0
   25.5180  -20.8212  -13.7457 N   0  0  0  0  0  0  0  0  0  0  0  0
   25.2473  -22.0082  -11.7160 C   0  0  0  0  0  0  0  0  0  0  0  0
   25.3999  -23.1165  -12.2867 O   0  0  0  0  0  0  0  0  0  0  0  0
   25.3999  -22.0472  -10.3184 O   0  0  0  0  0  0  0  0  0  0  0  0
  2  1  1  6
  3  4  1  0
  3  2  1  0
  4  9  2  0
  4  5  1  0
  5  6  2  0
  6  7  1  0
  8  7  2  0
  9  8  1  0
 10 12  1  0
 10  2  1  0
 11 10  2  0
 13 12  1  0
 13 14  1  1
 14 15  1  0
 15 16  1  0
 16 17  1  0
 17 18  1  0
 19 13  1  0
 20 19  2  0
 21 22  1  0
 23 24  1  0
 23 22  1  0
 25 24  1  6
 25 27  1  0
 25 26  1  0
 26 19  1  0
 27 29  1  0
 28 27  2  0
M  END
$$$$
