FKM.pdb
     RDKit          3D

 29 29  0  0  1  0  0  0  0  0999 V2000
   19.7797  -19.8033  -15.9100 N   0  0  0  0  0  0  0  0  0  0  0  0
   20.2990  -21.1475  -15.6927 C   0  0  1  0  0  0  0  0  0  0  0  0
   21.6847  -21.0909  -15.0803 C   0  0  0  0  0  0  0  0  0  0  0  0
   22.6734  -20.5072  -16.0169 C   0  0  0  0  0  0  0  0  0  0  0  0
   23.1965  -19.2478  -15.8197 C   0  0  0  0  0  0  0  0  0  0  0  0
   24.1225  -18.7534  -16.7364 C   0  0  0  0  0  0  0  0  0  0  0  0
   24.5221  -19.4818  -17.8190 C   0  0  0  0  0  0  0  0  0  0  0  0
   24.0029  -20.7427  -18.0226 C   0  0  0  0  0  0  0  0  0  0  0  0
   23.0726  -21.2436  -17.1048 C   0  0  0  0  0  0  0  0  0  0  0  0
   19.4062  -21.7992  -14.7124 C   0  0  0  0  0  0  0  0  0  0  0  0
   18.9960  -21.2431  -13.6577 O   0  0  0  0  0  0  0  0  0  0  0  0
   18.9756  -23.1361  -14.9618 N   0  0  0  0  0  0  0  0  0  0  0  0
   17.9613  -23.7871  -14.1606 C   0  0  1  0  0  0  0  0  0  0  0  0
   17.2762  -24.7961  -15.0370 C   0  0  0  0  0  0  0  0  0  0  0  0
   16.0965  -25.4628  -14.3718 C   0  0  0  0  0  0  0  0  0  0  0  0
   15.3848  -26.4152  -15.3024 C   0  0  0  0  0  0  0  0  0  0  0  0
   14.1572  -26.9374  -14.5860 C   0  0  0  0  0  0  0  0  0  0  0  0
   13.3386  -27.6836  -15.5107 N   0  0  0  0  0  0  0  0  0  0  0  0
   18.5245  -24.3602  -12.9159 C   0  0  0  0  0  0  0  0  0  0  0  0
   19.6325  -24.9579  -12.9395 O   0  0  0  0  0  0  0  0  0  0  0  0
   20.2654  -21.4589   -7.7227 C   0  0  0  0  0  0  0  0  0  0  0  0
   19.4695  -22.8846   -6.9375 S   0  0  0  0  0  0  0  0  0  0  0  0
   19.1318  -24.2066   -8.0835 C   0  0  0  0  0  0  0  0  0  0  0  0
   18.6332  -23.7208   -9.4050 C   0  0  0  0  0  0  0  0  0  0  0  0
   18.4435  -24.8008  -10.4197 C   0  0  2  0  0  0  0  0  0  0  0  0
   17.8792  -24.2787  -11.6590 N   0  0  0  0  0  0  0  0  0  0  0  0
   17.5479  -25.8336   -9.9056 C   0  0  0  0  0  0  0  0  0  0  0  0
   16.3181  -25.8919  -10.1539 O   0  0  0  0  0  0  0  0  0  0  0  0
   18.0230  -26.8621   -9.0722 O   0  0  0  0  0  0  0  0  0  0  0  0
  2  1  1  1
  3  4  1  0
  3  2  1  0
  4  9  2  0
  4  5  1  0
  5  6  2  0
  6  7  1  0
  8  7  2  0
  9  8  1  0
 10 12  1  0
 10  2  1  0
 11 10  2  0
 13 12  1  0
 13 14  1  6
 14 15  1  0
 15 16  1  0
 16 17  1  0
 17 18  1  0
 19 13  1  0
 20 19  2  0
 21 22  1  0
 23 24  1  0
 23 22  1  0
 25 24  1  1
 25 27  1  0
 25 26  1  0
 26 19  1  0
 27 29  1  0
 28 27  2  0
M  END
$$$$
