FKM.pdb
     RDKit          3D

 29 29  0  0  1  0  0  0  0  0999 V2000
   25.9899  -20.8152  -14.0053 N   0  0  0  0  0  0  0  0  0  0  0  0
   25.4765  -21.2717  -12.7201 C   0  0  1  0  0  0  0  0  0  0  0  0
   26.0876  -20.4707  -11.5873 C   0  0  0  0  0  0  0  0  0  0  0  0
   27.5526  -20.6752  -11.5005 C   0  0  0  0  0  0  0  0  0  0  0  0
   28.4269  -19.9709  -12.2995 C   0  0  0  0  0  0  0  0  0  0  0  0
   29.7943  -20.2083  -12.1718 C   0  0  0  0  0  0  0  0  0  0  0  0
   30.2863  -21.1162  -11.2797 C   0  0  0  0  0  0  0  0  0  0  0  0
   29.4174  -21.8245  -10.4771 C   0  0  0  0  0  0  0  0  0  0  0  0
   28.0433  -21.5897  -10.6017 C   0  0  0  0  0  0  0  0  0  0  0  0
   24.0233  -21.0054  -12.7193 C   0  0  0  0  0  0  0  0  0  0  0  0
   23.5091  -19.9164  -12.3458 O   0  0  0  0  0  0  0  0  0  0  0  0
   23.1391  -22.0322  -13.1650 N   0  0  0  0  0  0  0  0  0  0  0  0
   21.7087  -21.8356  -13.2642 C   0  0  1  0  0  0  0  0  0  0  0  0
   21.3830  -21.6345  -14.7165 C   0  0  0  0  0  0  0  0  0  0  0  0
   21.4709  -20.1927  -15.1549 C   0  0  0  0  0  0  0  0  0  0  0  0
   22.8752  -19.8056  -15.5518 C   0  0  0  0  0  0  0  0  0  0  0  0
   22.8428  -18.3743  -16.0448 C   0  0  0  0  0  0  0  0  0  0  0  0
   24.1707  -17.9678  -16.4366 N   0  0  0  0  0  0  0  0  0  0  0  0
   20.9540  -22.9413  -12.6295 C   0  0  0  0  0  0  0  0  0  0  0  0
   21.1112  -24.1252  -13.0284 O   0  0  0  0  0  0  0  0  0  0  0  0
   18.5667  -23.9378   -6.3077 C   0  0  0  0  0  0  0  0  0  0  0  0
   17.1766  -24.0591   -7.4633 S   0  0  0  0  0  0  0  0  0  0  0  0
   17.6898  -24.4481   -9.1249 C   0  0  0  0  0  0  0  0  0  0  0  0
   18.6094  -23.4249   -9.7066 C   0  0  0  0  0  0  0  0  0  0  0  0
   19.1815  -23.8035  -11.0337 C   0  0  2  0  0  0  0  0  0  0  0  0
   20.0368  -22.7503  -11.5688 N   0  0  0  0  0  0  0  0  0  0  0  0
   18.1135  -24.0620  -11.9958 C   0  0  0  0  0  0  0  0  0  0  0  0
   17.4877  -23.1671  -12.6164 O   0  0  0  0  0  0  0  0  0  0  0  0
   17.7053  -25.3737  -12.2975 O   0  0  0  0  0  0  0  0  0  0  0  0
  2  1  1  6
  3  4  1  0
  3  2  1  0
  4  9  2  0
  4  5  1  0
  5  6  2  0
  6  7  1  0
  8  7  2  0
  9  8  1  0
 10 12  1  0
 10  2  1  0
 11 10  2  0
 13 12  1  0
 13 14  1  6
 14 15  1  0
 15 16  1  0
 16 17  1  0
 17 18  1  0
 19 13  1  0
 20 19  2  0
 21 22  1  0
 23 24  1  0
 23 22  1  0
 25 24  1  1
 25 27  1  0
 25 26  1  0
 26 19  1  0
 27 29  1  0
 28 27  2  0
M  END
$$$$
