FKM.pdb
     RDKit          3D

 29 29  0  0  1  0  0  0  0  0999 V2000
   23.3093  -17.6948  -17.8821 N   0  0  0  0  0  0  0  0  0  0  0  0
   23.8976  -17.2801  -16.6149 C   0  0  1  0  0  0  0  0  0  0  0  0
   22.8231  -16.7934  -15.6626 C   0  0  0  0  0  0  0  0  0  0  0  0
   22.1790  -15.5522  -16.1525 C   0  0  0  0  0  0  0  0  0  0  0  0
   22.8476  -14.3473  -16.1581 C   0  0  0  0  0  0  0  0  0  0  0  0
   22.1876  -13.2144  -16.6305 C   0  0  0  0  0  0  0  0  0  0  0  0
   20.9022  -13.2684  -17.0855 C   0  0  0  0  0  0  0  0  0  0  0  0
   20.2271  -14.4705  -17.0828 C   0  0  0  0  0  0  0  0  0  0  0  0
   20.8857  -15.6110  -16.6092 C   0  0  0  0  0  0  0  0  0  0  0  0
   24.5131  -18.4813  -16.0141 C   0  0  0  0  0  0  0  0  0  0  0  0
   23.9336  -19.5975  -15.9249 O   0  0  0  0  0  0  0  0  0  0  0  0
   25.8407  -18.3860  -15.5010 N   0  0  0  0  0  0  0  0  0  0  0  0
   26.5178  -19.5080  -14.8868 C   0  0  1  0  0  0  0  0  0  0  0  0
   27.9920  -19.3118  -15.0960 C   0  0  0  0  0  0  0  0  0  0  0  0
   28.8288  -20.4460  -14.5554 C   0  0  0  0  0  0  0  0  0  0  0  0
   28.9198  -21.5969  -15.5284 C   0  0  0  0  0  0  0  0  0  0  0  0
   29.7152  -22.7037  -14.8686 C   0  0  0  0  0  0  0  0  0  0  0  0
   29.7628  -23.8514  -15.7418 N   0  0  0  0  0  0  0  0  0  0  0  0
   26.1323  -19.6753  -13.4661 C   0  0  0  0  0  0  0  0  0  0  0  0
   26.0110  -18.6678  -12.7207 O   0  0  0  0  0  0  0  0  0  0  0  0
   27.6295  -19.6662   -6.9004 C   0  0  0  0  0  0  0  0  0  0  0  0
   26.5410  -18.9336   -8.1498 S   0  0  0  0  0  0  0  0  0  0  0  0
   25.7350  -20.1546   -9.1671 C   0  0  0  0  0  0  0  0  0  0  0  0
   26.2022  -20.1333  -10.5856 C   0  0  0  0  0  0  0  0  0  0  0  0
   25.5029  -21.1111  -11.4726 C   0  0  2  0  0  0  0  0  0  0  0  0
   25.8825  -20.9341  -12.8696 N   0  0  0  0  0  0  0  0  0  0  0  0
   24.0549  -20.9534  -11.3658 C   0  0  0  0  0  0  0  0  0  0  0  0
   23.3240  -20.4905  -12.2764 O   0  0  0  0  0  0  0  0  0  0  0  0
   23.3652  -21.3225  -10.1969 O   0  0  0  0  0  0  0  0  0  0  0  0
  2  1  1  6
  3  4  1  0
  3  2  1  0
  4  9  2  0
  4  5  1  0
  5  6  2  0
  6  7  1  0
  8  7  2  0
  9  8  1  0
 10 12  1  0
 10  2  1  0
 11 10  2  0
 13 12  1  0
 13 14  1  1
 14 15  1  0
 15 16  1  0
 16 17  1  0
 17 18  1  0
 19 13  1  0
 20 19  2  0
 21 22  1  0
 23 24  1  0
 23 22  1  0
 25 24  1  1
 25 27  1  0
 25 26  1  0
 26 19  1  0
 27 29  1  0
 28 27  2  0
M  END
$$$$
