FKM.pdb
     RDKit          3D

 29 29  0  0  1  0  0  0  0  0999 V2000
   25.2175  -15.7724  -18.6049 N   0  0  0  0  0  0  0  0  0  0  0  0
   25.7369  -16.5288  -17.4727 C   0  0  1  0  0  0  0  0  0  0  0  0
   25.8781  -15.6365  -16.2554 C   0  0  0  0  0  0  0  0  0  0  0  0
   26.9174  -14.5993  -16.4547 C   0  0  0  0  0  0  0  0  0  0  0  0
   26.6988  -13.2840  -16.1071 C   0  0  0  0  0  0  0  0  0  0  0  0
   27.7153  -12.3546  -16.3198 C   0  0  0  0  0  0  0  0  0  0  0  0
   28.9157  -12.7130  -16.8610 C   0  0  0  0  0  0  0  0  0  0  0  0
   29.1414  -14.0272  -17.2111 C   0  0  0  0  0  0  0  0  0  0  0  0
   28.1236  -14.9643  -16.9995 C   0  0  0  0  0  0  0  0  0  0  0  0
   24.7326  -17.5637  -17.1511 C   0  0  0  0  0  0  0  0  0  0  0  0
   23.4872  -17.3735  -17.2016 O   0  0  0  0  0  0  0  0  0  0  0  0
   25.1855  -18.8583  -16.7591 N   0  0  0  0  0  0  0  0  0  0  0  0
   24.2744  -19.9472  -16.4786 C   0  0  1  0  0  0  0  0  0  0  0  0
   25.0906  -21.2052  -16.3954 C   0  0  0  0  0  0  0  0  0  0  0  0
   24.2532  -22.4528  -16.2506 C   0  0  0  0  0  0  0  0  0  0  0  0
   25.1025  -23.6968  -16.1486 C   0  0  0  0  0  0  0  0  0  0  0  0
   24.1800  -24.8967  -16.1949 C   0  0  0  0  0  0  0  0  0  0  0  0
   24.9621  -26.1090  -16.1741 N   0  0  0  0  0  0  0  0  0  0  0  0
   23.4551  -19.6849  -15.2725 C   0  0  0  0  0  0  0  0  0  0  0  0
   24.0116  -19.4029  -14.1788 O   0  0  0  0  0  0  0  0  0  0  0  0
   19.6186  -15.0115  -13.8476 C   0  0  0  0  0  0  0  0  0  0  0  0
   18.5814  -16.4054  -13.3342 S   0  0  0  0  0  0  0  0  0  0  0  0
   19.5066  -17.9124  -13.1145 C   0  0  0  0  0  0  0  0  0  0  0  0
   20.4167  -18.2112  -14.2605 C   0  0  0  0  0  0  0  0  0  0  0  0
   21.2231  -19.4572  -14.0900 C   0  0  2  0  0  0  0  0  0  0  0  0
   22.0406  -19.7317  -15.2661 N   0  0  0  0  0  0  0  0  0  0  0  0
   20.3490  -20.6043  -13.8594 C   0  0  0  0  0  0  0  0  0  0  0  0
   19.8335  -21.2963  -14.7720 O   0  0  0  0  0  0  0  0  0  0  0  0
   20.0187  -21.0194  -12.5569 O   0  0  0  0  0  0  0  0  0  0  0  0
  2  1  1  6
  3  4  1  0
  3  2  1  0
  4  9  2  0
  4  5  1  0
  5  6  2  0
  6  7  1  0
  8  7  2  0
  9  8  1  0
 10 12  1  0
 10  2  1  0
 11 10  2  0
 13 12  1  0
 13 14  1  1
 14 15  1  0
 15 16  1  0
 16 17  1  0
 17 18  1  0
 19 13  1  0
 20 19  2  0
 21 22  1  0
 23 24  1  0
 23 22  1  0
 25 24  1  6
 25 27  1  0
 25 26  1  0
 26 19  1  0
 27 29  1  0
 28 27  2  0
M  END
$$$$
