FKM.pdb
     RDKit          3D

 29 29  0  0  1  0  0  0  0  0999 V2000
   25.3495  -12.4787  -16.3300 N   0  0  0  0  0  0  0  0  0  0  0  0
   24.8705  -11.6128  -15.2602 C   0  0  1  0  0  0  0  0  0  0  0  0
   26.0000  -10.7574  -14.7210 C   0  0  0  0  0  0  0  0  0  0  0  0
   26.7344  -10.0711  -15.8097 C   0  0  0  0  0  0  0  0  0  0  0  0
   27.8654  -10.6204  -16.3736 C   0  0  0  0  0  0  0  0  0  0  0  0
   28.5128   -9.9261  -17.3940 C   0  0  0  0  0  0  0  0  0  0  0  0
   28.0569   -8.7220  -17.8462 C   0  0  0  0  0  0  0  0  0  0  0  0
   26.9260   -8.1664  -17.2866 C   0  0  0  0  0  0  0  0  0  0  0  0
   26.2723   -8.8598  -16.2615 C   0  0  0  0  0  0  0  0  0  0  0  0
   23.8713  -10.7039  -15.8587 C   0  0  0  0  0  0  0  0  0  0  0  0
   23.7390  -10.5249  -17.0997 O   0  0  0  0  0  0  0  0  0  0  0  0
   22.9988   -9.9804  -14.9926 N   0  0  0  0  0  0  0  0  0  0  0  0
   21.9777   -9.0843  -15.4915 C   0  0  1  0  0  0  0  0  0  0  0  0
   20.6637   -9.5417  -14.9260 C   0  0  0  0  0  0  0  0  0  0  0  0
   19.4771   -8.8057  -15.4998 C   0  0  0  0  0  0  0  0  0  0  0  0
   18.1668   -9.3783  -15.0155 C   0  0  0  0  0  0  0  0  0  0  0  0
   17.0468   -8.6331  -15.7105 C   0  0  0  0  0  0  0  0  0  0  0  0
   15.7805   -9.0176  -15.1355 N   0  0  0  0  0  0  0  0  0  0  0  0
   22.2948   -7.6673  -15.1971 C   0  0  0  0  0  0  0  0  0  0  0  0
   22.7222   -7.3378  -14.0594 O   0  0  0  0  0  0  0  0  0  0  0  0
   23.5924   -0.3698  -18.1900 C   0  0  0  0  0  0  0  0  0  0  0  0
   23.0968   -2.0934  -18.4470 S   0  0  0  0  0  0  0  0  0  0  0  0
   22.9020   -2.9923  -16.9208 C   0  0  0  0  0  0  0  0  0  0  0  0
   22.5427   -4.4269  -17.1299 C   0  0  0  0  0  0  0  0  0  0  0  0
   22.4800   -5.2295  -15.8713 C   0  0  2  0  0  0  0  0  0  0  0  0
   22.1447   -6.6231  -16.1405 N   0  0  0  0  0  0  0  0  0  0  0  0
   21.4744   -4.6812  -14.9650 C   0  0  0  0  0  0  0  0  0  0  0  0
   20.2596   -4.9999  -14.9791 O   0  0  0  0  0  0  0  0  0  0  0  0
   21.8154   -3.7298  -13.9868 O   0  0  0  0  0  0  0  0  0  0  0  0
  2  1  1  6
  3  4  1  0
  3  2  1  0
  4  9  2  0
  4  5  1  0
  5  6  2  0
  6  7  1  0
  8  7  2  0
  9  8  1  0
 10 12  1  0
 10  2  1  0
 11 10  2  0
 13 12  1  0
 13 14  1  1
 14 15  1  0
 15 16  1  0
 16 17  1  0
 17 18  1  0
 19 13  1  0
 20 19  2  0
 21 22  1  0
 23 24  1  0
 23 22  1  0
 25 24  1  6
 25 27  1  0
 25 26  1  0
 26 19  1  0
 27 29  1  0
 28 27  2  0
M  END
$$$$
