FKM.pdb
     RDKit          3D

 29 29  0  0  1  0  0  0  0  0999 V2000
   26.3337  -19.9671  -12.0782 N   0  0  0  0  0  0  0  0  0  0  0  0
   25.5459  -21.0030  -11.4224 C   0  0  1  0  0  0  0  0  0  0  0  0
   25.4778  -20.7550   -9.9284 C   0  0  0  0  0  0  0  0  0  0  0  0
   26.8214  -20.7962   -9.3050 C   0  0  0  0  0  0  0  0  0  0  0  0
   27.8840  -21.4182   -9.9238 C   0  0  0  0  0  0  0  0  0  0  0  0
   29.1234  -21.4242   -9.2864 C   0  0  0  0  0  0  0  0  0  0  0  0
   29.3099  -20.8324   -8.0710 C   0  0  0  0  0  0  0  0  0  0  0  0
   28.2512  -20.2082   -7.4461 C   0  0  0  0  0  0  0  0  0  0  0  0
   27.0045  -20.1997   -8.0821 C   0  0  0  0  0  0  0  0  0  0  0  0
   24.1713  -20.8976  -11.9535 C   0  0  0  0  0  0  0  0  0  0  0  0
   23.3330  -20.0387  -11.5671 O   0  0  0  0  0  0  0  0  0  0  0  0
   23.7555  -21.8155  -12.9632 N   0  0  0  0  0  0  0  0  0  0  0  0
   22.4089  -21.8286  -13.4932 C   0  0  1  0  0  0  0  0  0  0  0  0
   22.5162  -21.8573  -14.9909 C   0  0  0  0  0  0  0  0  0  0  0  0
   22.3174  -20.5045  -15.6307 C   0  0  0  0  0  0  0  0  0  0  0  0
   23.0885  -19.4209  -14.9162 C   0  0  0  0  0  0  0  0  0  0  0  0
   22.7391  -18.0965  -15.5618 C   0  0  0  0  0  0  0  0  0  0  0  0
   23.4240  -17.0282  -14.8752 N   0  0  0  0  0  0  0  0  0  0  0  0
   21.6045  -22.9379  -12.9298 C   0  0  0  0  0  0  0  0  0  0  0  0
   21.9057  -24.1328  -13.1889 O   0  0  0  0  0  0  0  0  0  0  0  0
   16.6928  -22.6456   -7.9355 C   0  0  0  0  0  0  0  0  0  0  0  0
   17.8351  -24.0495   -7.8547 S   0  0  0  0  0  0  0  0  0  0  0  0
   18.4417  -24.5411   -9.4565 C   0  0  0  0  0  0  0  0  0  0  0  0
   19.3258  -23.5150  -10.0862 C   0  0  0  0  0  0  0  0  0  0  0  0
   19.7080  -23.8228  -11.4973 C   0  0  2  0  0  0  0  0  0  0  0  0
   20.4818  -22.7387  -12.0915 N   0  0  0  0  0  0  0  0  0  0  0  0
   18.5167  -24.0390  -12.3141 C   0  0  0  0  0  0  0  0  0  0  0  0
   17.9589  -25.1532  -12.4716 O   0  0  0  0  0  0  0  0  0  0  0  0
   17.8989  -22.9768  -12.9983 O   0  0  0  0  0  0  0  0  0  0  0  0
  2  1  1  6
  3  4  1  0
  3  2  1  0
  4  9  2  0
  4  5  1  0
  5  6  2  0
  6  7  1  0
  8  7  2  0
  9  8  1  0
 10 12  1  0
 10  2  1  0
 11 10  2  0
 13 12  1  0
 13 14  1  6
 14 15  1  0
 15 16  1  0
 16 17  1  0
 17 18  1  0
 19 13  1  0
 20 19  2  0
 21 22  1  0
 23 24  1  0
 23 22  1  0
 25 24  1  1
 25 27  1  0
 25 26  1  0
 26 19  1  0
 27 29  1  0
 28 27  2  0
M  END
$$$$
