FKM.pdb
     RDKit          3D

 29 29  0  0  1  0  0  0  0  0999 V2000
   27.9068  -17.7636  -17.0064 N   0  0  0  0  0  0  0  0  0  0  0  0
   27.1785  -17.2954  -15.8342 C   0  0  1  0  0  0  0  0  0  0  0  0
   26.2142  -16.1886  -16.2129 C   0  0  0  0  0  0  0  0  0  0  0  0
   26.9216  -14.9146  -16.4813 C   0  0  0  0  0  0  0  0  0  0  0  0
   27.5563  -14.2173  -15.4765 C   0  0  0  0  0  0  0  0  0  0  0  0
   28.2041  -13.0243  -15.7917 C   0  0  0  0  0  0  0  0  0  0  0  0
   28.2252  -12.5319  -17.0643 C   0  0  0  0  0  0  0  0  0  0  0  0
   27.5922  -13.2242  -18.0746 C   0  0  0  0  0  0  0  0  0  0  0  0
   26.9402  -14.4228  -17.7630 C   0  0  0  0  0  0  0  0  0  0  0  0
   26.3765  -18.4352  -15.3438 C   0  0  0  0  0  0  0  0  0  0  0  0
   25.8478  -19.2975  -16.0966 O   0  0  0  0  0  0  0  0  0  0  0  0
   26.1811  -18.5800  -13.9382 N   0  0  0  0  0  0  0  0  0  0  0  0
   25.3257  -19.6024  -13.3748 C   0  0  1  0  0  0  0  0  0  0  0  0
   25.6141  -19.6677  -11.9023 C   0  0  0  0  0  0  0  0  0  0  0  0
   24.7077  -20.6173  -11.1570 C   0  0  0  0  0  0  0  0  0  0  0  0
   25.0466  -20.6883   -9.6875 C   0  0  0  0  0  0  0  0  0  0  0  0
   24.0606  -21.6283   -9.0263 C   0  0  0  0  0  0  0  0  0  0  0  0
   24.4236  -21.8143   -7.6422 N   0  0  0  0  0  0  0  0  0  0  0  0
   23.8985  -19.3663  -13.6949 C   0  0  0  0  0  0  0  0  0  0  0  0
   23.4083  -18.2117  -13.5853 O   0  0  0  0  0  0  0  0  0  0  0  0
   19.2240  -17.8084  -18.8004 C   0  0  0  0  0  0  0  0  0  0  0  0
   20.2171  -19.1903  -18.1787 S   0  0  0  0  0  0  0  0  0  0  0  0
   20.5050  -19.1006  -16.4225 C   0  0  0  0  0  0  0  0  0  0  0  0
   21.3596  -20.2147  -15.9132 C   0  0  0  0  0  0  0  0  0  0  0  0
   21.6107  -20.1667  -14.4413 C   0  0  2  0  0  0  0  0  0  0  0  0
   23.0187  -20.3857  -14.1304 N   0  0  0  0  0  0  0  0  0  0  0  0
   20.8238  -21.1879  -13.7549 C   0  0  0  0  0  0  0  0  0  0  0  0
   21.1485  -22.3988  -13.6777 O   0  0  0  0  0  0  0  0  0  0  0  0
   19.6124  -20.8681  -13.1160 O   0  0  0  0  0  0  0  0  0  0  0  0
  2  1  1  6
  3  4  1  0
  3  2  1  0
  4  9  2  0
  4  5  1  0
  5  6  2  0
  6  7  1  0
  8  7  2  0
  9  8  1  0
 10 12  1  0
 10  2  1  0
 11 10  2  0
 13 12  1  0
 13 14  1  1
 14 15  1  0
 15 16  1  0
 16 17  1  0
 17 18  1  0
 19 13  1  0
 20 19  2  0
 21 22  1  0
 23 24  1  0
 23 22  1  0
 25 24  1  6
 25 27  1  0
 25 26  1  0
 26 19  1  0
 27 29  1  0
 28 27  2  0
M  END
$$$$
