RHE.pdb
     RDKit          3D

 31 31  0  0  1  0  0  0  0  0999 V2000
   27.8438  -11.9497  -18.1615 N   0  0  0  0  0  0  0  0  0  0  0  0
   28.2354  -12.6737  -19.3270 C   0  0  0  0  0  0  0  0  0  0  0  0
   29.2482  -12.2683  -20.0149 N   0  0  0  0  0  0  0  0  0  0  0  0
   27.5287  -13.8286  -19.7321 N   0  0  0  0  0  0  0  0  0  0  0  0
   26.4434  -14.3403  -18.9182 C   0  0  0  0  0  0  0  0  0  0  0  0
   26.8312  -15.6723  -18.3709 C   0  0  0  0  0  0  0  0  0  0  0  0
   26.1377  -16.8449  -18.9703 C   0  0  0  0  0  0  0  0  0  0  0  0
   24.7328  -16.9756  -18.4221 C   0  0  2  0  0  0  0  0  0  0  0  0
   24.5054  -15.7956  -17.6149 N   0  0  0  0  0  0  0  0  0  0  0  0
   24.6222  -18.1653  -17.5421 C   0  0  0  0  0  0  0  0  0  0  0  0
   24.8792  -19.3103  -18.0299 O   0  0  0  0  0  0  0  0  0  0  0  0
   29.5461  -12.7246  -20.9043 N   0  0  0  0  0  0  0  0  0  0  0  0
   24.2504  -18.1111  -16.1955 C   0  0  1  0  0  0  0  0  0  0  0  0
   23.9834  -19.4183  -15.4475 C   0  0  0  0  0  0  0  0  0  0  0  0
   24.9969  -19.4127  -14.3751 C   0  0  0  0  0  0  0  0  0  0  0  0
   25.0007  -20.4327  -13.3404 C   0  0  0  0  0  0  0  0  0  0  0  0
   25.3788  -21.7187  -13.2061 N   0  0  0  0  0  0  0  0  0  0  0  0
   25.2016  -22.1724  -11.9376 C   0  0  0  0  0  0  0  0  0  0  0  0
   24.7013  -21.1240  -11.2812 N   0  0  0  0  0  0  0  0  0  0  0  0
   24.5662  -20.0794  -12.0674 C   0  0  0  0  0  0  0  0  0  0  0  0
   22.5714  -19.3285  -15.0305 O   0  0  0  0  0  0  0  0  0  0  0  0
   22.1541  -18.1524  -14.6761 N   0  0  0  0  0  0  0  0  0  0  0  0
   21.6304  -20.3746  -14.9808 C   0  0  1  0  0  0  0  0  0  0  0  0
   20.2591  -20.1146  -14.5052 C   0  0  0  0  0  0  0  0  0  0  0  0
   19.2967  -20.9933  -15.2174 C   0  0  0  0  0  0  0  0  0  0  0  0
   17.8731  -20.8168  -14.7962 C   0  0  0  0  0  0  0  0  0  0  0  0
   17.0436  -21.7930  -15.5893 O   0  0  0  0  0  0  0  0  0  0  0  0
   17.5669  -22.6298  -16.3522 C   0  0  0  0  0  0  0  0  0  0  0  0
   20.1911  -20.1257  -13.0440 O   0  0  0  0  0  0  0  0  0  0  0  0
   19.5372  -19.2829  -12.3831 O   0  0  0  0  0  0  0  0  0  0  0  0
   15.6729  -21.7064  -15.4201 O   0  0  0  0  0  0  0  0  0  0  0  0
  2  3  2  0
  2  1  1  0
  4  2  1  0
  5  4  1  0
  6  5  1  0
  7  6  1  0
  8  7  1  0
  8  9  1  1
 10 11  2  0
 10  8  1  0
 12 10  1  0
 13 12  1  0
 13 14  1  6
 14 15  1  0
 15 16  2  0
 15 19  1  0
 16 17  1  0
 17 18  1  0
 19 18  2  0
 20 13  1  0
 21 20  2  0
 22 20  1  0
 23 22  1  0
 23 24  1  1
 24 25  1  0
 26 25  1  0
 26 30  1  0
 27 26  2  0
 28 23  1  0
 28 31  1  0
 29 28  2  0
M  END
$$$$
