RHE.pdb
     RDKit          3D

 31 31  0  0  1  0  0  0  0  0999 V2000
   25.5587  -20.5330  -10.9504 N   0  0  0  0  0  0  0  0  0  0  0  0
   26.7645  -20.9240  -11.6053 C   0  0  0  0  0  0  0  0  0  0  0  0
   27.5073  -21.8354  -11.0752 N   0  0  0  0  0  0  0  0  0  0  0  0
   27.1504  -20.3267  -12.8266 N   0  0  0  0  0  0  0  0  0  0  0  0
   26.2516  -19.4142  -13.5061 C   0  0  0  0  0  0  0  0  0  0  0  0
   25.1541  -20.1966  -14.1444 C   0  0  0  0  0  0  0  0  0  0  0  0
   24.9559  -19.9634  -15.6010 C   0  0  0  0  0  0  0  0  0  0  0  0
   24.1198  -18.7239  -15.8373 C   0  0  2  0  0  0  0  0  0  0  0  0
   24.3602  -17.8554  -14.7044 N   0  0  0  0  0  0  0  0  0  0  0  0
   22.6752  -19.0628  -15.8608 C   0  0  0  0  0  0  0  0  0  0  0  0
   22.2513  -19.8631  -16.7524 O   0  0  0  0  0  0  0  0  0  0  0  0
   28.4375  -22.1027  -11.4640 N   0  0  0  0  0  0  0  0  0  0  0  0
   21.7374  -18.5555  -14.9566 C   0  0  1  0  0  0  0  0  0  0  0  0
   20.2751  -18.9848  -15.0872 C   0  0  0  0  0  0  0  0  0  0  0  0
   20.1973  -20.1962  -14.2482 C   0  0  0  0  0  0  0  0  0  0  0  0
   20.5198  -20.1507  -12.8323 C   0  0  0  0  0  0  0  0  0  0  0  0
   20.8439  -19.2234  -11.9103 N   0  0  0  0  0  0  0  0  0  0  0  0
   20.9785  -19.7626  -10.6704 C   0  0  0  0  0  0  0  0  0  0  0  0
   20.7247  -21.0604  -10.8478 N   0  0  0  0  0  0  0  0  0  0  0  0
   20.4504  -21.3334  -12.1038 C   0  0  0  0  0  0  0  0  0  0  0  0
   19.5001  -17.8126  -14.6387 O   0  0  0  0  0  0  0  0  0  0  0  0
   20.1870  -16.8265  -14.1502 N   0  0  0  0  0  0  0  0  0  0  0  0
   18.1028  -17.6464  -14.6882 C   0  0  1  0  0  0  0  0  0  0  0  0
   17.5254  -16.3457  -15.0740 C   0  0  0  0  0  0  0  0  0  0  0  0
   18.1858  -15.8389  -16.3040 C   0  0  0  0  0  0  0  0  0  0  0  0
   17.6287  -14.5493  -16.8157 C   0  0  0  0  0  0  0  0  0  0  0  0
   18.7180  -13.5138  -16.7099 O   0  0  0  0  0  0  0  0  0  0  0  0
   19.7500  -13.5740  -17.4081 C   0  0  0  0  0  0  0  0  0  0  0  0
   16.0637  -16.3970  -15.0950 O   0  0  0  0  0  0  0  0  0  0  0  0
   15.4197  -17.3595  -15.5783 O   0  0  0  0  0  0  0  0  0  0  0  0
   18.5049  -12.4962  -15.7967 O   0  0  0  0  0  0  0  0  0  0  0  0
  2  3  2  0
  2  1  1  0
  4  2  1  0
  5  4  1  0
  6  5  1  0
  7  6  1  0
  8  7  1  0
  8  9  1  1
 10 11  2  0
 10  8  1  0
 12 10  1  0
 13 12  1  0
 13 14  1  6
 14 15  1  0
 15 16  2  0
 15 19  1  0
 16 17  1  0
 17 18  1  0
 19 18  2  0
 20 13  1  0
 21 20  2  0
 22 20  1  0
 23 22  1  0
 23 24  1  1
 24 25  1  0
 26 25  1  0
 26 30  1  0
 27 26  2  0
 28 23  1  0
 28 31  1  0
 29 28  2  0
M  END
$$$$
