RHE.pdb
     RDKit          3D

 31 31  0  0  1  0  0  0  0  0999 V2000
   28.9613  -23.8164  -17.2391 N   0  0  0  0  0  0  0  0  0  0  0  0
   29.1391  -22.6590  -18.0542 C   0  0  0  0  0  0  0  0  0  0  0  0
   29.0542  -22.7672  -19.3365 N   0  0  0  0  0  0  0  0  0  0  0  0
   29.4035  -21.3985  -17.4722 N   0  0  0  0  0  0  0  0  0  0  0  0
   28.9381  -21.1045  -16.1308 C   0  0  0  0  0  0  0  0  0  0  0  0
   27.8430  -20.0951  -16.2056 C   0  0  0  0  0  0  0  0  0  0  0  0
   27.3169  -19.6133  -14.8993 C   0  0  0  0  0  0  0  0  0  0  0  0
   26.1418  -20.4553  -14.4504 C   0  0  2  0  0  0  0  0  0  0  0  0
   26.0138  -21.5181  -15.4249 N   0  0  0  0  0  0  0  0  0  0  0  0
   24.8895  -19.6593  -14.4682 C   0  0  0  0  0  0  0  0  0  0  0  0
   24.7685  -18.6950  -13.6493 O   0  0  0  0  0  0  0  0  0  0  0  0
   29.2241  -21.9669  -19.9835 N   0  0  0  0  0  0  0  0  0  0  0  0
   23.8206  -19.9009  -15.3363 C   0  0  2  0  0  0  0  0  0  0  0  0
   22.5567  -19.0488  -15.2102 C   0  0  0  0  0  0  0  0  0  0  0  0
   22.6051  -18.1849  -16.4055 C   0  0  0  0  0  0  0  0  0  0  0  0
   21.4844  -17.3311  -16.7605 C   0  0  0  0  0  0  0  0  0  0  0  0
   20.2930  -16.9777  -16.2402 N   0  0  0  0  0  0  0  0  0  0  0  0
   19.6572  -16.0519  -17.0049 C   0  0  0  0  0  0  0  0  0  0  0  0
   20.4938  -15.8357  -18.0216 N   0  0  0  0  0  0  0  0  0  0  0  0
   21.5810  -16.5671  -17.9186 C   0  0  0  0  0  0  0  0  0  0  0  0
   21.4535  -20.0252  -15.1378 O   0  0  0  0  0  0  0  0  0  0  0  0
   21.6356  -21.1411  -15.7739 N   0  0  0  0  0  0  0  0  0  0  0  0
   20.2323  -19.8804  -14.4521 C   0  0  1  0  0  0  0  0  0  0  0  0
   19.1747  -20.8970  -14.6013 C   0  0  0  0  0  0  0  0  0  0  0  0
   18.5033  -21.1302  -13.2973 C   0  0  0  0  0  0  0  0  0  0  0  0
   17.4528  -22.1936  -13.3266 C   0  0  0  0  0  0  0  0  0  0  0  0
   16.8371  -22.2574  -11.9530 O   0  0  0  0  0  0  0  0  0  0  0  0
   16.6916  -21.2363  -11.2515 C   0  0  0  0  0  0  0  0  0  0  0  0
   18.3029  -20.5960  -15.7367 O   0  0  0  0  0  0  0  0  0  0  0  0
   18.0212  -21.4366  -16.6247 O   0  0  0  0  0  0  0  0  0  0  0  0
   16.4437  -23.5113  -11.5192 O   0  0  0  0  0  0  0  0  0  0  0  0
  2  3  2  0
  2  1  1  0
  4  2  1  0
  5  4  1  0
  6  5  1  0
  7  6  1  0
  8  7  1  0
  8  9  1  6
 10 11  2  0
 10  8  1  0
 12 10  1  0
 13 12  1  0
 13 14  1  1
 14 15  1  0
 15 16  2  0
 15 19  1  0
 16 17  1  0
 17 18  1  0
 19 18  2  0
 20 13  1  0
 21 20  2  0
 22 20  1  0
 23 22  1  0
 23 24  1  6
 24 25  1  0
 26 25  1  0
 26 30  1  0
 27 26  2  0
 28 23  1  0
 28 31  1  0
 29 28  2  0
M  END
$$$$
