RHE.pdb
     RDKit          3D

 31 31  0  0  1  0  0  0  0  0999 V2000
   27.2491  -16.6226  -18.5480 N   0  0  0  0  0  0  0  0  0  0  0  0
   28.1292  -17.5123  -17.8625 C   0  0  0  0  0  0  0  0  0  0  0  0
   28.9989  -17.0344  -17.0388 N   0  0  0  0  0  0  0  0  0  0  0  0
   28.0557  -18.9077  -18.0743 N   0  0  0  0  0  0  0  0  0  0  0  0
   26.7724  -19.5420  -18.3042 C   0  0  0  0  0  0  0  0  0  0  0  0
   26.4841  -20.4790  -17.1804 C   0  0  0  0  0  0  0  0  0  0  0  0
   25.2514  -21.3008  -17.3233 C   0  0  0  0  0  0  0  0  0  0  0  0
   24.0137  -20.4387  -17.1960 C   0  0  2  0  0  0  0  0  0  0  0  0
   24.4859  -19.0894  -16.9677 N   0  0  0  0  0  0  0  0  0  0  0  0
   23.2067  -20.8505  -16.0207 C   0  0  0  0  0  0  0  0  0  0  0  0
   22.7209  -22.0245  -15.9961 O   0  0  0  0  0  0  0  0  0  0  0  0
   29.6926  -17.6325  -16.5398 N   0  0  0  0  0  0  0  0  0  0  0  0
   22.9421  -20.0241  -14.9246 C   0  0  1  0  0  0  0  0  0  0  0  0
   22.0672  -20.5575  -13.7890 C   0  0  0  0  0  0  0  0  0  0  0  0
   22.7908  -20.1388  -12.5731 C   0  0  0  0  0  0  0  0  0  0  0  0
   23.9517  -20.8734  -12.1000 C   0  0  0  0  0  0  0  0  0  0  0  0
   24.7258  -21.8946  -12.5157 N   0  0  0  0  0  0  0  0  0  0  0  0
   25.7608  -22.1281  -11.6669 C   0  0  0  0  0  0  0  0  0  0  0  0
   25.6091  -21.2151  -10.7058 N   0  0  0  0  0  0  0  0  0  0  0  0
   24.5578  -20.4560  -10.9199 C   0  0  0  0  0  0  0  0  0  0  0  0
   20.7435  -19.9487  -14.0196 O   0  0  0  0  0  0  0  0  0  0  0  0
   20.7449  -18.7435  -14.4997 N   0  0  0  0  0  0  0  0  0  0  0  0
   19.4848  -20.5329  -13.7814 C   0  0  1  0  0  0  0  0  0  0  0  0
   18.2678  -19.9274  -14.3529 C   0  0  0  0  0  0  0  0  0  0  0  0
   18.2244  -20.1562  -15.8197 C   0  0  0  0  0  0  0  0  0  0  0  0
   17.0712  -19.5028  -16.5113 C   0  0  0  0  0  0  0  0  0  0  0  0
   16.6077  -20.4384  -17.5975 O   0  0  0  0  0  0  0  0  0  0  0  0
   17.0135  -21.6160  -17.6659 C   0  0  0  0  0  0  0  0  0  0  0  0
   17.0757  -20.3148  -13.5990 O   0  0  0  0  0  0  0  0  0  0  0  0
   16.9847  -21.3981  -12.9721 O   0  0  0  0  0  0  0  0  0  0  0  0
   15.7079  -19.9153  -18.5095 O   0  0  0  0  0  0  0  0  0  0  0  0
  2  3  2  0
  2  1  1  0
  4  2  1  0
  5  4  1  0
  6  5  1  0
  7  6  1  0
  8  7  1  0
  8  9  1  1
 10 11  2  0
 10  8  1  0
 12 10  1  0
 13 12  1  0
 13 14  1  6
 14 15  1  0
 15 16  2  0
 15 19  1  0
 16 17  1  0
 17 18  1  0
 19 18  2  0
 20 13  1  0
 21 20  2  0
 22 20  1  0
 23 22  1  0
 23 24  1  1
 24 25  1  0
 26 25  1  0
 26 30  1  0
 27 26  2  0
 28 23  1  0
 28 31  1  0
 29 28  2  0
M  END
$$$$
