RHE.pdb
     RDKit          3D

 31 31  0  0  1  0  0  0  0  0999 V2000
   31.6458  -21.6204  -12.3090 N   0  0  0  0  0  0  0  0  0  0  0  0
   31.1160  -21.5699  -10.9852 C   0  0  0  0  0  0  0  0  0  0  0  0
   31.8686  -21.8907   -9.9882 N   0  0  0  0  0  0  0  0  0  0  0  0
   29.7800  -21.1701  -10.7559 N   0  0  0  0  0  0  0  0  0  0  0  0
   28.9740  -20.6642  -11.8498 C   0  0  0  0  0  0  0  0  0  0  0  0
   27.6852  -21.4133  -11.8923 C   0  0  0  0  0  0  0  0  0  0  0  0
   26.7594  -21.1730  -10.7520 C   0  0  0  0  0  0  0  0  0  0  0  0
   25.4183  -21.8289  -11.0020 C   0  0  2  0  0  0  0  0  0  0  0  0
   25.6756  -22.9438  -11.8889 N   0  0  0  0  0  0  0  0  0  0  0  0
   24.4975  -20.8924  -11.6929 C   0  0  0  0  0  0  0  0  0  0  0  0
   24.2914  -19.7491  -11.1776 O   0  0  0  0  0  0  0  0  0  0  0  0
   31.5276  -21.8986   -9.0025 N   0  0  0  0  0  0  0  0  0  0  0  0
   23.8338  -21.1860  -12.8877 C   0  0  1  0  0  0  0  0  0  0  0  0
   23.0325  -20.0826  -13.5805 C   0  0  0  0  0  0  0  0  0  0  0  0
   23.5724  -20.0775  -14.9537 C   0  0  0  0  0  0  0  0  0  0  0  0
   22.9765  -19.2537  -15.9916 C   0  0  0  0  0  0  0  0  0  0  0  0
   22.5274  -17.9913  -16.1309 N   0  0  0  0  0  0  0  0  0  0  0  0
   22.1176  -17.7331  -17.4004 C   0  0  0  0  0  0  0  0  0  0  0  0
   22.3283  -18.8780  -18.0523 N   0  0  0  0  0  0  0  0  0  0  0  0
   22.8323  -19.7998  -17.2626 C   0  0  0  0  0  0  0  0  0  0  0  0
   21.6232  -20.4874  -13.4200 O   0  0  0  0  0  0  0  0  0  0  0  0
   21.3336  -21.7013  -13.7743 N   0  0  0  0  0  0  0  0  0  0  0  0
   20.5643  -19.7047  -12.9214 C   0  0  2  0  0  0  0  0  0  0  0  0
   19.2062  -19.8581  -13.4748 C   0  0  0  0  0  0  0  0  0  0  0  0
   18.8186  -18.6349  -14.2225 C   0  0  0  0  0  0  0  0  0  0  0  0
   17.4592  -18.6961  -14.8418 C   0  0  0  0  0  0  0  0  0  0  0  0
   17.1657  -17.3366  -15.4210 O   0  0  0  0  0  0  0  0  0  0  0  0
   16.5978  -17.2022  -16.5235 C   0  0  0  0  0  0  0  0  0  0  0  0
   19.0612  -21.1281  -14.1861 O   0  0  0  0  0  0  0  0  0  0  0  0
   18.3611  -22.0768  -13.7564 O   0  0  0  0  0  0  0  0  0  0  0  0
   17.5613  -16.2512  -14.6591 O   0  0  0  0  0  0  0  0  0  0  0  0
  2  3  2  0
  2  1  1  0
  4  2  1  0
  5  4  1  0
  6  5  1  0
  7  6  1  0
  8  7  1  0
  8  9  1  6
 10 11  2  0
 10  8  1  0
 12 10  1  0
 13 12  1  0
 13 14  1  1
 14 15  1  0
 15 16  2  0
 15 19  1  0
 16 17  1  0
 17 18  1  0
 19 18  2  0
 20 13  1  0
 21 20  2  0
 22 20  1  0
 23 22  1  0
 23 24  1  6
 24 25  1  0
 26 25  1  0
 26 30  1  0
 27 26  2  0
 28 23  1  0
 28 31  1  0
 29 28  2  0
M  END
$$$$
