RHE.pdb
     RDKit          3D

 31 31  0  0  1  0  0  0  0  0999 V2000
   19.4269  -29.3722  -10.1700 N   0  0  0  0  0  0  0  0  0  0  0  0
   20.1178  -28.5859  -11.1396 C   0  0  0  0  0  0  0  0  0  0  0  0
   20.5384  -29.1422  -12.2245 N   0  0  0  0  0  0  0  0  0  0  0  0
   20.3425  -27.2071  -10.9252 N   0  0  0  0  0  0  0  0  0  0  0  0
   19.7427  -26.5408   -9.7857 C   0  0  0  0  0  0  0  0  0  0  0  0
   18.2675  -26.4613   -9.9890 C   0  0  0  0  0  0  0  0  0  0  0  0
   17.4510  -26.3145   -8.7532 C   0  0  0  0  0  0  0  0  0  0  0  0
   17.6856  -24.9634   -8.1122 C   0  0  2  0  0  0  0  0  0  0  0  0
   19.0124  -24.5510   -8.5186 N   0  0  0  0  0  0  0  0  0  0  0  0
   17.6700  -25.0756   -6.6326 C   0  0  0  0  0  0  0  0  0  0  0  0
   18.7768  -25.1876   -6.0181 O   0  0  0  0  0  0  0  0  0  0  0  0
   21.0756  -28.6245  -12.9533 N   0  0  0  0  0  0  0  0  0  0  0  0
   16.5055  -25.0655   -5.8590 C   0  0  1  0  0  0  0  0  0  0  0  0
   16.6274  -25.1352   -4.3359 C   0  0  0  0  0  0  0  0  0  0  0  0
   15.6748  -24.1097   -3.8686 C   0  0  0  0  0  0  0  0  0  0  0  0
   15.4588  -23.8763   -2.4509 C   0  0  0  0  0  0  0  0  0  0  0  0
   15.8827  -24.3859   -1.2781 N   0  0  0  0  0  0  0  0  0  0  0  0
   15.3811  -23.7043   -0.2150 C   0  0  0  0  0  0  0  0  0  0  0  0
   14.6298  -22.7479   -0.7635 N   0  0  0  0  0  0  0  0  0  0  0  0
   14.6463  -22.8115   -2.0762 C   0  0  0  0  0  0  0  0  0  0  0  0
   16.3153  -26.5372   -3.9999 O   0  0  0  0  0  0  0  0  0  0  0  0
   16.6884  -27.4287   -4.8652 N   0  0  0  0  0  0  0  0  0  0  0  0
   15.6644  -27.0109   -2.8448 C   0  0  1  0  0  0  0  0  0  0  0  0
   16.2329  -28.1396   -2.0852 C   0  0  0  0  0  0  0  0  0  0  0  0
   17.6427  -28.3699   -2.4919 C   0  0  0  0  0  0  0  0  0  0  0  0
   17.9854  -29.8036   -2.7417 C   0  0  0  0  0  0  0  0  0  0  0  0
   19.2467  -30.1060   -1.9751 O   0  0  0  0  0  0  0  0  0  0  0  0
   19.2504  -30.2054   -0.7317 C   0  0  0  0  0  0  0  0  0  0  0  0
   15.9855  -27.9948   -0.6508 O   0  0  0  0  0  0  0  0  0  0  0  0
   16.3333  -26.9828    0.0047 O   0  0  0  0  0  0  0  0  0  0  0  0
   20.3951  -30.2673   -2.7303 O   0  0  0  0  0  0  0  0  0  0  0  0
  2  3  2  0
  2  1  1  0
  4  2  1  0
  5  4  1  0
  6  5  1  0
  7  6  1  0
  8  7  1  0
  8  9  1  6
 10 11  2  0
 10  8  1  0
 12 10  1  0
 13 12  1  0
 13 14  1  1
 14 15  1  0
 15 16  2  0
 15 19  1  0
 16 17  1  0
 17 18  1  0
 19 18  2  0
 20 13  1  0
 21 20  2  0
 22 20  1  0
 23 22  1  0
 23 24  1  6
 24 25  1  0
 26 25  1  0
 26 30  1  0
 27 26  2  0
 28 23  1  0
 28 31  1  0
 29 28  2  0
M  END
$$$$
