RHE.pdb
     RDKit          3D

 31 31  0  0  1  0  0  0  0  0999 V2000
   31.5499  -24.4898  -15.7699 N   0  0  0  0  0  0  0  0  0  0  0  0
   30.7834  -25.3106  -16.6501 C   0  0  0  0  0  0  0  0  0  0  0  0
   30.8151  -26.5923  -16.5107 N   0  0  0  0  0  0  0  0  0  0  0  0
   29.9900  -24.7347  -17.6680 N   0  0  0  0  0  0  0  0  0  0  0  0
   29.9670  -23.2960  -17.8463 C   0  0  0  0  0  0  0  0  0  0  0  0
   28.9862  -22.7026  -16.8924 C   0  0  0  0  0  0  0  0  0  0  0  0
   27.6114  -23.2706  -16.9412 C   0  0  0  0  0  0  0  0  0  0  0  0
   26.5739  -22.1688  -16.9078 C   0  0  2  0  0  0  0  0  0  0  0  0
   27.3114  -20.9239  -16.8644 N   0  0  0  0  0  0  0  0  0  0  0  0
   25.7509  -22.2611  -15.6764 C   0  0  0  0  0  0  0  0  0  0  0  0
   24.9783  -23.2599  -15.5331 O   0  0  0  0  0  0  0  0  0  0  0  0
   30.3053  -27.2426  -17.1472 N   0  0  0  0  0  0  0  0  0  0  0  0
   25.7688  -21.3120  -14.6501 C   0  0  1  0  0  0  0  0  0  0  0  0
   24.8382  -21.5002  -13.4509 C   0  0  0  0  0  0  0  0  0  0  0  0
   25.5376  -20.7943  -12.3601 C   0  0  0  0  0  0  0  0  0  0  0  0
   24.9513  -20.6923  -11.0346 C   0  0  0  0  0  0  0  0  0  0  0  0
   23.8805  -21.1757  -10.3755 N   0  0  0  0  0  0  0  0  0  0  0  0
   23.8632  -20.7842   -9.0745 C   0  0  0  0  0  0  0  0  0  0  0  0
   24.9627  -20.0403   -8.9412 N   0  0  0  0  0  0  0  0  0  0  0  0
   25.6326  -19.9590  -10.0690 C   0  0  0  0  0  0  0  0  0  0  0  0
   23.5466  -20.9377  -13.8883 O   0  0  0  0  0  0  0  0  0  0  0  0
   23.6090  -19.8982  -14.6619 N   0  0  0  0  0  0  0  0  0  0  0  0
   22.2598  -21.4076  -13.5632 C   0  0  1  0  0  0  0  0  0  0  0  0
   21.0673  -20.6450  -13.9761 C   0  0  0  0  0  0  0  0  0  0  0  0
   19.9785  -21.5746  -14.3710 C   0  0  0  0  0  0  0  0  0  0  0  0
   20.3515  -22.5360  -15.4535 C   0  0  0  0  0  0  0  0  0  0  0  0
   19.1422  -23.3895  -15.7352 O   0  0  0  0  0  0  0  0  0  0  0  0
   18.8048  -23.6847  -16.8992 C   0  0  0  0  0  0  0  0  0  0  0  0
   20.7222  -19.6210  -12.9902 O   0  0  0  0  0  0  0  0  0  0  0  0
   21.1639  -19.6256  -11.8157 O   0  0  0  0  0  0  0  0  0  0  0  0
   18.4327  -23.8249  -14.6297 O   0  0  0  0  0  0  0  0  0  0  0  0
  2  3  2  0
  2  1  1  0
  4  2  1  0
  5  4  1  0
  6  5  1  0
  7  6  1  0
  8  7  1  0
  8  9  1  1
 10 11  2  0
 10  8  1  0
 12 10  1  0
 13 12  1  0
 13 14  1  1
 14 15  1  0
 15 16  2  0
 15 19  1  0
 16 17  1  0
 17 18  1  0
 19 18  2  0
 20 13  1  0
 21 20  2  0
 22 20  1  0
 23 22  1  0
 23 24  1  1
 24 25  1  0
 26 25  1  0
 26 30  1  0
 27 26  2  0
 28 23  1  0
 28 31  1  0
 29 28  2  0
M  END
$$$$
