RHE.pdb
     RDKit          3D

 31 31  0  0  1  0  0  0  0  0999 V2000
   18.3011  -15.5500  -15.9343 N   0  0  0  0  0  0  0  0  0  0  0  0
   17.5736  -14.3868  -15.5425 C   0  0  0  0  0  0  0  0  0  0  0  0
   16.6120  -14.4974  -14.6902 N   0  0  0  0  0  0  0  0  0  0  0  0
   17.8970  -13.1183  -16.0751 N   0  0  0  0  0  0  0  0  0  0  0  0
   18.3182  -12.9953  -17.4570 C   0  0  0  0  0  0  0  0  0  0  0  0
   19.7883  -12.7483  -17.4979 C   0  0  0  0  0  0  0  0  0  0  0  0
   20.2125  -11.4724  -18.1362 C   0  0  0  0  0  0  0  0  0  0  0  0
   21.7210  -11.3982  -18.2370 C   0  0  2  0  0  0  0  0  0  0  0  0
   22.2144  -12.7008  -17.8430 N   0  0  0  0  0  0  0  0  0  0  0  0
   22.2608  -10.3935  -17.2875 C   0  0  0  0  0  0  0  0  0  0  0  0
   21.7338  -10.2993  -16.1349 O   0  0  0  0  0  0  0  0  0  0  0  0
   16.0310  -13.6865  -14.3856 N   0  0  0  0  0  0  0  0  0  0  0  0
   23.3238   -9.5333  -17.5785 C   0  0  1  0  0  0  0  0  0  0  0  0
   23.8049   -8.5596  -16.5016 C   0  0  0  0  0  0  0  0  0  0  0  0
   25.2751   -8.6380  -16.6006 C   0  0  0  0  0  0  0  0  0  0  0  0
   26.0032   -9.7791  -16.0727 C   0  0  0  0  0  0  0  0  0  0  0  0
   25.7226  -10.9808  -15.5325 N   0  0  0  0  0  0  0  0  0  0  0  0
   26.8470  -11.6970  -15.2701 C   0  0  0  0  0  0  0  0  0  0  0  0
   27.8423  -10.9023  -15.6677 N   0  0  0  0  0  0  0  0  0  0  0  0
   27.3919   -9.7640  -16.1462 C   0  0  0  0  0  0  0  0  0  0  0  0
   23.1808   -7.2712  -16.8571 O   0  0  0  0  0  0  0  0  0  0  0  0
   23.3623   -6.8655  -18.0758 N   0  0  0  0  0  0  0  0  0  0  0  0
   22.4085   -6.4406  -16.0228 C   0  0  1  0  0  0  0  0  0  0  0  0
   21.8405   -5.1857  -16.5489 C   0  0  0  0  0  0  0  0  0  0  0  0
   20.3579   -5.2679  -16.5748 C   0  0  0  0  0  0  0  0  0  0  0  0
   19.7116   -5.1663  -15.2304 C   0  0  0  0  0  0  0  0  0  0  0  0
   18.2224   -5.2638  -15.4373 O   0  0  0  0  0  0  0  0  0  0  0  0
   17.6568   -4.7111  -16.4020 C   0  0  0  0  0  0  0  0  0  0  0  0
   22.4153   -4.0190  -15.8794 O   0  0  0  0  0  0  0  0  0  0  0  0
   22.2335   -2.8430  -16.2778 O   0  0  0  0  0  0  0  0  0  0  0  0
   17.5236   -6.0012  -14.4976 O   0  0  0  0  0  0  0  0  0  0  0  0
  2  3  2  0
  2  1  1  0
  4  2  1  0
  5  4  1  0
  6  5  1  0
  7  6  1  0
  8  7  1  0
  8  9  1  1
 10 11  2  0
 10  8  1  0
 12 10  1  0
 13 12  1  0
 13 14  1  1
 14 15  1  0
 15 16  2  0
 15 19  1  0
 16 17  1  0
 17 18  1  0
 19 18  2  0
 20 13  1  0
 21 20  2  0
 22 20  1  0
 23 22  1  0
 23 24  1  6
 24 25  1  0
 26 25  1  0
 26 30  1  0
 27 26  2  0
 28 23  1  0
 28 31  1  0
 29 28  2  0
M  END
$$$$
