RHE.pdb
     RDKit          3D

 31 31  0  0  1  0  0  0  0  0999 V2000
   22.4748  -25.8199  -17.2292 N   0  0  0  0  0  0  0  0  0  0  0  0
   22.5414  -25.5001  -18.6181 C   0  0  0  0  0  0  0  0  0  0  0  0
   22.5419  -26.4516  -19.4887 N   0  0  0  0  0  0  0  0  0  0  0  0
   22.6036  -24.1553  -19.0481 N   0  0  0  0  0  0  0  0  0  0  0  0
   22.5822  -23.0791  -18.0767 C   0  0  0  0  0  0  0  0  0  0  0  0
   23.9776  -22.6099  -17.8388 C   0  0  0  0  0  0  0  0  0  0  0  0
   24.5827  -23.0118  -16.5398 C   0  0  0  0  0  0  0  0  0  0  0  0
   24.7579  -21.8110  -15.6349 C   0  0  2  0  0  0  0  0  0  0  0  0
   26.0715  -21.9439  -15.0412 N   0  0  0  0  0  0  0  0  0  0  0  0
   23.7537  -21.8270  -14.5424 C   0  0  0  0  0  0  0  0  0  0  0  0
   23.3118  -22.9475  -14.1371 O   0  0  0  0  0  0  0  0  0  0  0  0
   22.6071  -26.2781  -20.5151 N   0  0  0  0  0  0  0  0  0  0  0  0
   23.2552  -20.6785  -13.9205 C   0  0  1  0  0  0  0  0  0  0  0  0
   22.1943  -20.8284  -12.8289 C   0  0  0  0  0  0  0  0  0  0  0  0
   22.8080  -20.1669  -11.6614 C   0  0  0  0  0  0  0  0  0  0  0  0
   24.0009  -20.7082  -11.0329 C   0  0  0  0  0  0  0  0  0  0  0  0
   24.8480  -21.7392  -11.2181 N   0  0  0  0  0  0  0  0  0  0  0  0
   25.8744  -21.7220  -10.3280 C   0  0  0  0  0  0  0  0  0  0  0  0
   25.6416  -20.6420   -9.5798 N   0  0  0  0  0  0  0  0  0  0  0  0
   24.5501  -20.0158   -9.9590 C   0  0  0  0  0  0  0  0  0  0  0  0
   20.9860  -20.1981  -13.3932 O   0  0  0  0  0  0  0  0  0  0  0  0
   21.0983  -19.7213  -14.5944 N   0  0  0  0  0  0  0  0  0  0  0  0
   19.7284  -20.0634  -12.7745 C   0  0  1  0  0  0  0  0  0  0  0  0
   18.4945  -20.2943  -13.5481 C   0  0  0  0  0  0  0  0  0  0  0  0
   18.5933  -21.5733  -14.2966 C   0  0  0  0  0  0  0  0  0  0  0  0
   17.3559  -21.9436  -15.0495 C   0  0  0  0  0  0  0  0  0  0  0  0
   17.6278  -23.2496  -15.7498 O   0  0  0  0  0  0  0  0  0  0  0  0
   16.7162  -23.9035  -16.2953 C   0  0  0  0  0  0  0  0  0  0  0  0
   17.3038  -20.1178  -12.7170 O   0  0  0  0  0  0  0  0  0  0  0  0
   17.2586  -20.4488  -11.5074 O   0  0  0  0  0  0  0  0  0  0  0  0
   18.9440  -23.6773  -15.7523 O   0  0  0  0  0  0  0  0  0  0  0  0
  2  3  2  0
  2  1  1  0
  4  2  1  0
  5  4  1  0
  6  5  1  0
  7  6  1  0
  8  7  1  0
  8  9  1  1
 10 11  2  0
 10  8  1  0
 12 10  1  0
 13 12  1  0
 13 14  1  1
 14 15  1  0
 15 16  2  0
 15 19  1  0
 16 17  1  0
 17 18  1  0
 19 18  2  0
 20 13  1  0
 21 20  2  0
 22 20  1  0
 23 22  1  0
 23 24  1  6
 24 25  1  0
 26 25  1  0
 26 30  1  0
 27 26  2  0
 28 23  1  0
 28 31  1  0
 29 28  2  0
M  END
$$$$
