RHE.pdb
     RDKit          3D

 31 31  0  0  1  0  0  0  0  0999 V2000
   28.3657  -27.8764  -16.7813 N   0  0  0  0  0  0  0  0  0  0  0  0
   27.6527  -26.6576  -16.9862 C   0  0  0  0  0  0  0  0  0  0  0  0
   26.4704  -26.6933  -17.5003 N   0  0  0  0  0  0  0  0  0  0  0  0
   28.2260  -25.4160  -16.6298 N   0  0  0  0  0  0  0  0  0  0  0  0
   29.3879  -24.9201  -17.3413 C   0  0  0  0  0  0  0  0  0  0  0  0
   30.0845  -23.9108  -16.4927 C   0  0  0  0  0  0  0  0  0  0  0  0
   29.2285  -22.8214  -15.9487 C   0  0  0  0  0  0  0  0  0  0  0  0
   28.6773  -21.9628  -17.0669 C   0  0  2  0  0  0  0  0  0  0  0  0
   29.7995  -21.2091  -17.5849 N   0  0  0  0  0  0  0  0  0  0  0  0
   27.6766  -21.0000  -16.5437 C   0  0  0  0  0  0  0  0  0  0  0  0
   27.9775  -20.3006  -15.5262 O   0  0  0  0  0  0  0  0  0  0  0  0
   25.8979  -25.8363  -17.6601 N   0  0  0  0  0  0  0  0  0  0  0  0
   26.4094  -20.8071  -17.1020 C   0  0  2  0  0  0  0  0  0  0  0  0
   25.4891  -19.7437  -16.5007 C   0  0  0  0  0  0  0  0  0  0  0  0
   25.3301  -18.7686  -17.5968 C   0  0  0  0  0  0  0  0  0  0  0  0
   24.3742  -17.6788  -17.4992 C   0  0  0  0  0  0  0  0  0  0  0  0
   23.5476  -17.1542  -16.5738 N   0  0  0  0  0  0  0  0  0  0  0  0
   22.9071  -16.0467  -17.0316 C   0  0  0  0  0  0  0  0  0  0  0  0
   23.3638  -15.8945  -18.2759 N   0  0  0  0  0  0  0  0  0  0  0  0
   24.2286  -16.8321  -18.5929 C   0  0  0  0  0  0  0  0  0  0  0  0
   24.2823  -20.4844  -16.0874 O   0  0  0  0  0  0  0  0  0  0  0  0
   23.9191  -21.4612  -16.8598 N   0  0  0  0  0  0  0  0  0  0  0  0
   23.4888  -20.2507  -14.9480 C   0  0  1  0  0  0  0  0  0  0  0  0
   22.2618  -21.0378  -14.7266 C   0  0  0  0  0  0  0  0  0  0  0  0
   21.6777  -20.7104  -13.4009 C   0  0  0  0  0  0  0  0  0  0  0  0
   20.3764  -21.3893  -13.1164 C   0  0  0  0  0  0  0  0  0  0  0  0
   19.9138  -20.9271  -11.7590 O   0  0  0  0  0  0  0  0  0  0  0  0
   20.5463  -20.0724  -11.1066 C   0  0  0  0  0  0  0  0  0  0  0  0
   21.3589  -20.9510  -15.8741 O   0  0  0  0  0  0  0  0  0  0  0  0
   20.7314  -21.9388  -16.3272 O   0  0  0  0  0  0  0  0  0  0  0  0
   18.7498  -21.5044  -11.2826 O   0  0  0  0  0  0  0  0  0  0  0  0
  2  3  2  0
  2  1  1  0
  4  2  1  0
  5  4  1  0
  6  5  1  0
  7  6  1  0
  8  7  1  0
  8  9  1  1
 10 11  2  0
 10  8  1  0
 12 10  1  0
 13 12  1  0
 13 14  1  6
 14 15  1  0
 15 16  2  0
 15 19  1  0
 16 17  1  0
 17 18  1  0
 19 18  2  0
 20 13  1  0
 21 20  2  0
 22 20  1  0
 23 22  1  0
 23 24  1  6
 24 25  1  0
 26 25  1  0
 26 30  1  0
 27 26  2  0
 28 23  1  0
 28 31  1  0
 29 28  2  0
M  END
$$$$
