TDQ.pdb
     RDKit          3D

 25 24  0  0  1  0  0  0  0  0999 V2000
   10.2847  -12.7123   18.1847 C   0  0  0  0  0  0  0  0  0  0  0  0
    9.8471  -13.4427   19.4140 C   0  0  1  0  0  0  0  0  0  0  0  0
    9.7937  -12.5981   20.5182 O   0  0  0  0  0  0  0  0  0  0  0  0
    8.4907  -14.0660   19.2260 C   0  0  2  0  0  0  0  0  0  0  0  0
    7.4931  -13.0784   18.9391 N   0  0  0  0  0  0  0  0  0  0  0  0
    8.1299  -14.8406   20.4596 C   0  0  0  0  0  0  0  0  0  0  0  0
    7.1917  -14.3675   21.1765 O   0  0  0  0  0  0  0  0  0  0  0  0
    8.7885  -16.0300   20.8147 N   0  0  0  0  0  0  0  0  0  0  0  0
    8.3160  -16.8635   21.9737 C   0  0  1  0  0  0  0  0  0  0  0  0
    9.0385  -18.1790   21.7755 C   0  0  0  0  0  0  0  0  0  0  0  0
    8.8784  -19.1548   22.8487 C   0  0  0  0  0  0  0  0  0  0  0  0
    8.0073  -19.0929   23.7370 O   0  0  0  0  0  0  0  0  0  0  0  0
    8.9195  -16.1712   23.1373 C   0  0  0  0  0  0  0  0  0  0  0  0
   10.1777  -15.8967   23.0324 O   0  0  0  0  0  0  0  0  0  0  0  0
    9.7480  -20.2698   22.9330 O   0  0  0  0  0  0  0  0  0  0  0  0
    5.1483  -12.2559   26.2304 N   0  0  0  0  0  0  0  0  0  0  0  0
    6.5404  -12.4189   26.4695 C   0  0  0  0  0  0  0  0  0  0  0  0
    6.9890  -11.9527   27.5559 O   0  0  0  0  0  0  0  0  0  0  0  0
    7.4289  -13.1133   25.4732 C   0  0  0  0  0  0  0  0  0  0  0  0
    8.1332  -14.2156   26.2145 C   0  0  0  0  0  0  0  0  0  0  0  0
    9.0531  -15.0367   25.3229 C   0  0  2  0  0  0  0  0  0  0  0  0
    8.2785  -15.7810   24.3276 N   0  0  0  0  0  0  0  0  0  0  0  0
    9.6941  -16.0220   26.2197 C   0  0  0  0  0  0  0  0  0  0  0  0
    9.3675  -17.2190   26.2033 O   0  0  0  0  0  0  0  0  0  0  0  0
   10.6725  -15.5939   27.0880 O   0  0  0  0  0  0  0  0  0  0  0  0
  2  1  1  6
  2  4  1  0
  3  2  1  0
  4  6  1  0
  4  5  1  1
  6  8  1  0
  6  7  2  0
  8  9  1  0
  9 10  1  6
  9 13  1  0
 11 10  1  0
 12 11  2  0
 13 14  2  0
 15 11  1  0
 16 17  1  0
 17 18  2  0
 17 19  1  0
 19 20  1  0
 21 20  1  1
 21 23  1  0
 22 21  1  0
 22 13  1  0
 23 25  1  0
 24 23  2  0
M  END
$$$$
