TDQ.pdb
     RDKit          3D

 25 24  0  0  1  0  0  0  0  0999 V2000
    8.1047  -12.0744   19.0973 C   0  0  0  0  0  0  0  0  0  0  0  0
    8.5338  -13.1458   20.0483 C   0  0  1  0  0  0  0  0  0  0  0  0
    7.8947  -13.0231   21.2779 O   0  0  0  0  0  0  0  0  0  0  0  0
    8.2441  -14.5150   19.4962 C   0  0  2  0  0  0  0  0  0  0  0  0
    6.8667  -14.6527   19.1266 N   0  0  0  0  0  0  0  0  0  0  0  0
    8.6244  -15.5475   20.5166 C   0  0  0  0  0  0  0  0  0  0  0  0
    7.6695  -16.1405   21.1119 O   0  0  0  0  0  0  0  0  0  0  0  0
    9.9649  -15.8522   20.8081 N   0  0  0  0  0  0  0  0  0  0  0  0
   10.3234  -17.0207   21.6839 C   0  0  1  0  0  0  0  0  0  0  0  0
   11.7935  -17.2365   21.3942 C   0  0  0  0  0  0  0  0  0  0  0  0
   12.4397  -18.2948   22.1636 C   0  0  0  0  0  0  0  0  0  0  0  0
   11.8355  -19.2142   22.7481 O   0  0  0  0  0  0  0  0  0  0  0  0
   10.1957  -16.4539   23.0477 C   0  0  0  0  0  0  0  0  0  0  0  0
   10.9692  -15.4529   23.3107 O   0  0  0  0  0  0  0  0  0  0  0  0
   13.8505  -18.3260   22.2867 O   0  0  0  0  0  0  0  0  0  0  0  0
    6.2864  -12.2921   25.6345 N   0  0  0  0  0  0  0  0  0  0  0  0
    6.6387  -13.6652   25.7448 C   0  0  0  0  0  0  0  0  0  0  0  0
    5.7781  -14.4330   26.2631 O   0  0  0  0  0  0  0  0  0  0  0  0
    7.9722  -14.1713   25.2657 C   0  0  0  0  0  0  0  0  0  0  0  0
    8.1033  -15.5847   25.7614 C   0  0  0  0  0  0  0  0  0  0  0  0
    9.4295  -16.2263   25.3807 C   0  0  2  0  0  0  0  0  0  0  0  0
    9.3312  -16.8789   24.0734 N   0  0  0  0  0  0  0  0  0  0  0  0
    9.6612  -17.2806   26.3911 C   0  0  0  0  0  0  0  0  0  0  0  0
    9.6183  -18.4839   26.0910 O   0  0  0  0  0  0  0  0  0  0  0  0
    9.9292  -16.9107   27.6895 O   0  0  0  0  0  0  0  0  0  0  0  0
  2  1  1  6
  2  4  1  0
  3  2  1  0
  4  6  1  0
  4  5  1  1
  6  8  1  0
  6  7  2  0
  8  9  1  0
  9 10  1  6
  9 13  1  0
 11 10  1  0
 12 11  2  0
 13 14  2  0
 15 11  1  0
 16 17  1  0
 17 18  2  0
 17 19  1  0
 19 20  1  0
 21 20  1  1
 21 23  1  0
 22 21  1  0
 22 13  1  0
 23 25  1  0
 24 23  2  0
M  END
$$$$
