TDQ.pdb
     RDKit          3D

 25 24  0  0  1  0  0  0  0  0999 V2000
    9.6103  -12.3689   18.2103 C   0  0  0  0  0  0  0  0  0  0  0  0
    9.3661  -13.1763   19.4451 C   0  0  1  0  0  0  0  0  0  0  0  0
    8.9876  -12.3716   20.5150 O   0  0  0  0  0  0  0  0  0  0  0  0
    8.2924  -14.2062   19.2215 C   0  0  2  0  0  0  0  0  0  0  0  0
    7.0438  -13.5971   18.8712 N   0  0  0  0  0  0  0  0  0  0  0  0
    8.1455  -15.0408   20.4599 C   0  0  0  0  0  0  0  0  0  0  0  0
    7.1031  -14.8427   21.1613 O   0  0  0  0  0  0  0  0  0  0  0  0
    9.1051  -15.9961   20.8358 N   0  0  0  0  0  0  0  0  0  0  0  0
    8.8755  -16.9079   22.0092 C   0  0  1  0  0  0  0  0  0  0  0  0
    9.9881  -17.9268   21.8829 C   0  0  0  0  0  0  0  0  0  0  0  0
   10.0598  -18.9187   22.9508 C   0  0  0  0  0  0  0  0  0  0  0  0
    9.2635  -18.9882   23.9063 O   0  0  0  0  0  0  0  0  0  0  0  0
    9.1769  -16.0300   23.1650 C   0  0  0  0  0  0  0  0  0  0  0  0
   10.2351  -15.2979   23.0488 O   0  0  0  0  0  0  0  0  0  0  0  0
   11.0874  -19.8937   22.9495 O   0  0  0  0  0  0  0  0  0  0  0  0
    5.1851  -12.7976   26.2973 N   0  0  0  0  0  0  0  0  0  0  0  0
    6.3842  -12.2517   26.8319 C   0  0  0  0  0  0  0  0  0  0  0  0
    6.2658  -11.2258   27.5616 O   0  0  0  0  0  0  0  0  0  0  0  0
    7.7240  -12.8704   26.5386 C   0  0  0  0  0  0  0  0  0  0  0  0
    7.4713  -14.0425   25.6315 C   0  0  0  0  0  0  0  0  0  0  0  0
    8.7452  -14.7806   25.2469 C   0  0  2  0  0  0  0  0  0  0  0  0
    8.4425  -15.9050   24.3588 N   0  0  0  0  0  0  0  0  0  0  0  0
    9.2741  -15.3376   26.5102 C   0  0  0  0  0  0  0  0  0  0  0  0
    9.8188  -14.6132   27.3578 O   0  0  0  0  0  0  0  0  0  0  0  0
    9.1559  -16.6890   26.7428 O   0  0  0  0  0  0  0  0  0  0  0  0
  2  1  1  6
  2  4  1  0
  3  2  1  0
  4  6  1  0
  4  5  1  1
  6  8  1  0
  6  7  2  0
  8  9  1  0
  9 10  1  6
  9 13  1  0
 11 10  1  0
 12 11  2  0
 13 14  2  0
 15 11  1  0
 16 17  1  0
 17 18  2  0
 17 19  1  0
 19 20  1  0
 21 20  1  1
 21 23  1  0
 22 21  1  0
 22 13  1  0
 23 25  1  0
 24 23  2  0
M  END
$$$$
