TDQ.pdb
     RDKit          3D

 25 24  0  0  1  0  0  0  0  0999 V2000
    8.9830  -12.5766   21.0409 C   0  0  0  0  0  0  0  0  0  0  0  0
    8.1442  -12.8140   19.8259 C   0  0  1  0  0  0  0  0  0  0  0  0
    8.3311  -11.8172   18.8736 O   0  0  0  0  0  0  0  0  0  0  0  0
    8.4615  -14.1416   19.1933 C   0  0  2  0  0  0  0  0  0  0  0  0
    7.6252  -14.3969   18.0582 N   0  0  0  0  0  0  0  0  0  0  0  0
    8.3065  -15.2254   20.2197 C   0  0  0  0  0  0  0  0  0  0  0  0
    7.1729  -15.7994   20.2768 O   0  0  0  0  0  0  0  0  0  0  0  0
    9.3543  -15.5957   21.0797 N   0  0  0  0  0  0  0  0  0  0  0  0
    9.2302  -16.7887   21.9866 C   0  0  1  0  0  0  0  0  0  0  0  0
   10.6034  -17.4224   21.9201 C   0  0  0  0  0  0  0  0  0  0  0  0
   10.8052  -18.5833   22.7811 C   0  0  0  0  0  0  0  0  0  0  0  0
   10.0425  -19.5669   22.8326 O   0  0  0  0  0  0  0  0  0  0  0  0
    9.0691  -16.1649   23.3216 C   0  0  0  0  0  0  0  0  0  0  0  0
    8.9136  -16.9866   24.3065 O   0  0  0  0  0  0  0  0  0  0  0  0
   11.9309  -18.6471   23.6385 O   0  0  0  0  0  0  0  0  0  0  0  0
    6.2395  -11.7175   24.9988 N   0  0  0  0  0  0  0  0  0  0  0  0
    6.3242  -12.2741   26.3045 C   0  0  0  0  0  0  0  0  0  0  0  0
    5.8908  -11.5619   27.2552 O   0  0  0  0  0  0  0  0  0  0  0  0
    6.9024  -13.6440   26.5346 C   0  0  0  0  0  0  0  0  0  0  0  0
    7.2649  -14.1945   25.1832 C   0  0  0  0  0  0  0  0  0  0  0  0
    8.7636  -14.3877   25.0038 C   0  0  2  0  0  0  0  0  0  0  0  0
    9.0715  -14.7920   23.6304 N   0  0  0  0  0  0  0  0  0  0  0  0
    9.1249  -15.5121   25.8933 C   0  0  0  0  0  0  0  0  0  0  0  0
    9.3946  -16.6347   25.4387 O   0  0  0  0  0  0  0  0  0  0  0  0
    9.1600  -15.3004   27.2529 O   0  0  0  0  0  0  0  0  0  0  0  0
  2  1  1  1
  2  4  1  0
  3  2  1  0
  4  6  1  0
  4  5  1  6
  6  8  1  0
  6  7  2  0
  8  9  1  0
  9 10  1  1
  9 13  1  0
 11 10  1  0
 12 11  2  0
 13 14  2  0
 15 11  1  0
 16 17  1  0
 17 18  2  0
 17 19  1  0
 19 20  1  0
 21 20  1  6
 21 23  1  0
 22 21  1  0
 22 13  1  0
 23 25  1  0
 24 23  2  0
M  END
$$$$
