TDQ.pdb
     RDKit          3D

 25 24  0  0  1  0  0  0  0  0999 V2000
    8.4470  -12.1926   19.1730 C   0  0  0  0  0  0  0  0  0  0  0  0
    8.5677  -13.1758   20.2933 C   0  0  1  0  0  0  0  0  0  0  0  0
    8.0071  -12.6835   21.4675 O   0  0  0  0  0  0  0  0  0  0  0  0
    7.8936  -14.4772   19.9536 C   0  0  2  0  0  0  0  0  0  0  0  0
    6.5099  -14.2855   19.6347 N   0  0  0  0  0  0  0  0  0  0  0  0
    8.0449  -15.4255   21.1067 C   0  0  0  0  0  0  0  0  0  0  0  0
    7.0183  -15.6060   21.8357 O   0  0  0  0  0  0  0  0  0  0  0  0
    9.2552  -16.0863   21.3773 N   0  0  0  0  0  0  0  0  0  0  0  0
    9.3811  -17.0321   22.5395 C   0  0  1  0  0  0  0  0  0  0  0  0
   10.6533  -17.7936   22.2340 C   0  0  0  0  0  0  0  0  0  0  0  0
   11.0745  -18.7524   23.2504 C   0  0  0  0  0  0  0  0  0  0  0  0
   10.8871  -18.6141   24.4741 O   0  0  0  0  0  0  0  0  0  0  0  0
    9.6474  -16.1163   23.6743 C   0  0  0  0  0  0  0  0  0  0  0  0
   10.6873  -15.3598   23.5489 O   0  0  0  0  0  0  0  0  0  0  0  0
   11.7478  -19.9402   22.8735 O   0  0  0  0  0  0  0  0  0  0  0  0
    7.2556  -11.5268   26.1404 N   0  0  0  0  0  0  0  0  0  0  0  0
    6.4896  -12.7071   25.9360 C   0  0  0  0  0  0  0  0  0  0  0  0
    5.2413  -12.5583   25.8005 O   0  0  0  0  0  0  0  0  0  0  0  0
    7.1405  -14.0627   25.8849 C   0  0  0  0  0  0  0  0  0  0  0  0
    8.6203  -13.8391   26.0296 C   0  0  0  0  0  0  0  0  0  0  0  0
    9.4279  -15.1242   25.9214 C   0  0  2  0  0  0  0  0  0  0  0  0
    8.8978  -15.9794   24.8573 N   0  0  0  0  0  0  0  0  0  0  0  0
    9.2222  -15.8277   27.2055 C   0  0  0  0  0  0  0  0  0  0  0  0
    8.6000  -16.8999   27.2624 O   0  0  0  0  0  0  0  0  0  0  0  0
    9.7347  -15.2747   28.3570 O   0  0  0  0  0  0  0  0  0  0  0  0
  2  1  1  6
  2  4  1  0
  3  2  1  0
  4  6  1  0
  4  5  1  1
  6  8  1  0
  6  7  2  0
  8  9  1  0
  9 10  1  6
  9 13  1  0
 11 10  1  0
 12 11  2  0
 13 14  2  0
 15 11  1  0
 16 17  1  0
 17 18  2  0
 17 19  1  0
 19 20  1  0
 21 20  1  1
 21 23  1  0
 22 21  1  0
 22 13  1  0
 23 25  1  0
 24 23  2  0
M  END
$$$$
