TDQ.pdb
     RDKit          3D

 25 24  0  0  1  0  0  0  0  0999 V2000
    8.8530  -12.6829   20.6255 C   0  0  0  0  0  0  0  0  0  0  0  0
    7.9532  -13.3674   19.6467 C   0  0  1  0  0  0  0  0  0  0  0  0
    7.7375  -12.5845   18.5172 O   0  0  0  0  0  0  0  0  0  0  0  0
    8.5261  -14.6876   19.2080 C   0  0  2  0  0  0  0  0  0  0  0  0
    7.6707  -15.3451   18.2652 N   0  0  0  0  0  0  0  0  0  0  0  0
    8.7488  -15.5525   20.4139 C   0  0  0  0  0  0  0  0  0  0  0  0
    7.7151  -16.0721   20.9424 O   0  0  0  0  0  0  0  0  0  0  0  0
   10.0305  -15.7837   20.9416 N   0  0  0  0  0  0  0  0  0  0  0  0
   10.2285  -16.6657   22.1432 C   0  0  1  0  0  0  0  0  0  0  0  0
   11.6768  -17.0915   22.0293 C   0  0  0  0  0  0  0  0  0  0  0  0
   11.9282  -18.2542   21.1839 C   0  0  0  0  0  0  0  0  0  0  0  0
   11.2435  -19.2948   21.1905 O   0  0  0  0  0  0  0  0  0  0  0  0
   10.1115  -15.7091   23.2695 C   0  0  0  0  0  0  0  0  0  0  0  0
   10.7925  -14.6179   23.1480 O   0  0  0  0  0  0  0  0  0  0  0  0
   13.0141  -18.2520   20.2743 O   0  0  0  0  0  0  0  0  0  0  0  0
    5.5645  -13.2328   26.1339 N   0  0  0  0  0  0  0  0  0  0  0  0
    6.6263  -12.6224   26.8561 C   0  0  0  0  0  0  0  0  0  0  0  0
    6.3239  -11.6339   27.5844 O   0  0  0  0  0  0  0  0  0  0  0  0
    8.0376  -13.1338   26.7532 C   0  0  0  0  0  0  0  0  0  0  0  0
    8.0483  -14.1590   25.6534 C   0  0  0  0  0  0  0  0  0  0  0  0
    9.4137  -14.8002   25.4533 C   0  0  2  0  0  0  0  0  0  0  0  0
    9.3452  -15.8558   24.4406 N   0  0  0  0  0  0  0  0  0  0  0  0
    9.7414  -15.4398   26.7454 C   0  0  0  0  0  0  0  0  0  0  0  0
    9.6959  -16.6718   26.8864 O   0  0  0  0  0  0  0  0  0  0  0  0
   10.1033  -14.6446   27.8089 O   0  0  0  0  0  0  0  0  0  0  0  0
  2  1  1  1
  2  4  1  0
  3  2  1  0
  4  6  1  0
  4  5  1  6
  6  8  1  0
  6  7  2  0
  8  9  1  0
  9 10  1  6
  9 13  1  0
 11 10  1  0
 12 11  2  0
 13 14  2  0
 15 11  1  0
 16 17  1  0
 17 18  2  0
 17 19  1  0
 19 20  1  0
 21 20  1  1
 21 23  1  0
 22 21  1  0
 22 13  1  0
 23 25  1  0
 24 23  2  0
M  END
$$$$
