TDQ.pdb
     RDKit          3D

 25 24  0  0  1  0  0  0  0  0999 V2000
    7.2717  -12.7541   19.3743 C   0  0  0  0  0  0  0  0  0  0  0  0
    7.4315  -13.9377   20.2742 C   0  0  1  0  0  0  0  0  0  0  0  0
    7.3701  -15.1318   19.5632 O   0  0  0  0  0  0  0  0  0  0  0  0
    8.7417  -13.8904   21.0123 C   0  0  2  0  0  0  0  0  0  0  0  0
    9.8549  -13.9680   20.1137 N   0  0  0  0  0  0  0  0  0  0  0  0
    8.7860  -15.0119   22.0084 C   0  0  0  0  0  0  0  0  0  0  0  0
    7.8375  -15.0617   22.8544 O   0  0  0  0  0  0  0  0  0  0  0  0
    9.8187  -15.9649   22.0157 N   0  0  0  0  0  0  0  0  0  0  0  0
    9.7508  -17.1774   22.9024 C   0  0  1  0  0  0  0  0  0  0  0  0
   10.6769  -18.1616   22.2202 C   0  0  0  0  0  0  0  0  0  0  0  0
   10.8574  -19.4374   22.9052 C   0  0  0  0  0  0  0  0  0  0  0  0
   11.9346  -20.0598   22.9689 O   0  0  0  0  0  0  0  0  0  0  0  0
   10.4061  -16.7060   24.1457 C   0  0  0  0  0  0  0  0  0  0  0  0
   11.5601  -16.1459   23.9905 O   0  0  0  0  0  0  0  0  0  0  0  0
    9.7637  -20.0555   23.5595 O   0  0  0  0  0  0  0  0  0  0  0  0
    8.8955  -13.4460   28.9361 N   0  0  0  0  0  0  0  0  0  0  0  0
    8.7703  -13.2812   27.5294 C   0  0  0  0  0  0  0  0  0  0  0  0
    8.0892  -12.2931   27.1312 O   0  0  0  0  0  0  0  0  0  0  0  0
    9.4197  -14.2402   26.5689 C   0  0  0  0  0  0  0  0  0  0  0  0
   10.0886  -15.3000   27.3996 C   0  0  0  0  0  0  0  0  0  0  0  0
   10.7785  -16.3648   26.5596 C   0  0  2  0  0  0  0  0  0  0  0  0
    9.9126  -16.7967   25.4604 N   0  0  0  0  0  0  0  0  0  0  0  0
   10.9647  -17.5199   27.4635 C   0  0  0  0  0  0  0  0  0  0  0  0
   10.3155  -18.5671   27.3159 O   0  0  0  0  0  0  0  0  0  0  0  0
   11.8791  -17.4230   28.4876 O   0  0  0  0  0  0  0  0  0  0  0  0
  2  1  1  6
  2  4  1  0
  3  2  1  0
  4  6  1  0
  4  5  1  6
  6  8  1  0
  6  7  2  0
  8  9  1  0
  9 10  1  6
  9 13  1  0
 11 10  1  0
 12 11  2  0
 13 14  2  0
 15 11  1  0
 16 17  1  0
 17 18  2  0
 17 19  1  0
 19 20  1  0
 21 20  1  1
 21 23  1  0
 22 21  1  0
 22 13  1  0
 23 25  1  0
 24 23  2  0
M  END
$$$$
