TDQ.pdb
     RDKit          3D

 25 24  0  0  1  0  0  0  0  0999 V2000
    7.3968  -12.6383   19.4922 C   0  0  0  0  0  0  0  0  0  0  0  0
    7.7818  -13.5614   18.3805 C   0  0  1  0  0  0  0  0  0  0  0  0
    7.7463  -12.9184   17.1474 O   0  0  0  0  0  0  0  0  0  0  0  0
    9.1639  -14.1189   18.5866 C   0  0  2  0  0  0  0  0  0  0  0  0
    9.6403  -14.7911   17.4144 N   0  0  0  0  0  0  0  0  0  0  0  0
    9.1481  -15.0514   19.7622 C   0  0  0  0  0  0  0  0  0  0  0  0
    8.8969  -14.5348   20.8971 O   0  0  0  0  0  0  0  0  0  0  0  0
    9.3971  -16.4278   19.6280 N   0  0  0  0  0  0  0  0  0  0  0  0
    9.4453  -17.3295   20.8304 C   0  0  1  0  0  0  0  0  0  0  0  0
    9.1063  -18.6904   20.2603 C   0  0  0  0  0  0  0  0  0  0  0  0
    7.7747  -18.8165   19.6770 C   0  0  0  0  0  0  0  0  0  0  0  0
    7.5486  -19.0743   18.4794 O   0  0  0  0  0  0  0  0  0  0  0  0
   10.8844  -17.3185   21.1855 C   0  0  0  0  0  0  0  0  0  0  0  0
   11.2474  -18.1863   22.0712 O   0  0  0  0  0  0  0  0  0  0  0  0
    6.6240  -18.6429   20.4845 O   0  0  0  0  0  0  0  0  0  0  0  0
   16.1272  -15.0013   18.5124 N   0  0  0  0  0  0  0  0  0  0  0  0
   14.9149  -14.2759   18.6730 C   0  0  0  0  0  0  0  0  0  0  0  0
   14.7644  -13.2523   17.9460 O   0  0  0  0  0  0  0  0  0  0  0  0
   13.8679  -14.7117   19.6618 C   0  0  0  0  0  0  0  0  0  0  0  0
   14.2500  -16.0925   20.1178 C   0  0  0  0  0  0  0  0  0  0  0  0
   13.2657  -16.6805   21.1182 C   0  0  2  0  0  0  0  0  0  0  0  0
   11.8874  -16.4792   20.6661 N   0  0  0  0  0  0  0  0  0  0  0  0
   13.4492  -15.8967   22.3583 C   0  0  0  0  0  0  0  0  0  0  0  0
   14.5073  -15.9478   23.0045 O   0  0  0  0  0  0  0  0  0  0  0  0
   12.4195  -15.0961   22.7982 O   0  0  0  0  0  0  0  0  0  0  0  0
  2  1  1  1
  2  4  1  0
  3  2  1  0
  4  6  1  0
  4  5  1  6
  6  8  1  0
  6  7  2  0
  8  9  1  0
  9 10  1  6
  9 13  1  0
 11 10  1  0
 12 11  2  0
 13 14  2  0
 15 11  1  0
 16 17  1  0
 17 18  2  0
 17 19  1  0
 19 20  1  0
 21 20  1  6
 21 23  1  0
 22 21  1  0
 22 13  1  0
 23 25  1  0
 24 23  2  0
M  END
$$$$
