TDQ.pdb
     RDKit          3D

 25 24  0  0  1  0  0  0  0  0999 V2000
    7.0654  -12.6008   18.7763 C   0  0  0  0  0  0  0  0  0  0  0  0
    7.7950  -13.8663   19.0962 C   0  0  1  0  0  0  0  0  0  0  0  0
    7.6653  -14.8026   18.0755 O   0  0  0  0  0  0  0  0  0  0  0  0
    9.2601  -13.6102   19.3233 C   0  0  2  0  0  0  0  0  0  0  0  0
    9.9233  -13.2369   18.1094 N   0  0  0  0  0  0  0  0  0  0  0  0
    9.8885  -14.8383   19.9140 C   0  0  0  0  0  0  0  0  0  0  0  0
    9.3187  -15.3351   20.9370 O   0  0  0  0  0  0  0  0  0  0  0  0
   11.0481  -15.4187   19.3728 N   0  0  0  0  0  0  0  0  0  0  0  0
   11.7134  -16.5914   20.0386 C   0  0  1  0  0  0  0  0  0  0  0  0
   12.1461  -17.4555   18.8733 C   0  0  0  0  0  0  0  0  0  0  0  0
   11.1007  -17.7866   17.9106 C   0  0  0  0  0  0  0  0  0  0  0  0
   10.0349  -18.3654   18.1948 O   0  0  0  0  0  0  0  0  0  0  0  0
   12.9226  -15.9793   20.6390 C   0  0  0  0  0  0  0  0  0  0  0  0
   14.0434  -16.2897   20.0761 O   0  0  0  0  0  0  0  0  0  0  0  0
   11.2581  -17.4489   16.5440 O   0  0  0  0  0  0  0  0  0  0  0  0
   11.0114  -18.5322   24.7004 N   0  0  0  0  0  0  0  0  0  0  0  0
   10.9832  -17.2505   25.3153 C   0  0  0  0  0  0  0  0  0  0  0  0
   10.1854  -17.1028   26.2851 O   0  0  0  0  0  0  0  0  0  0  0  0
   11.8628  -16.1305   24.8295 C   0  0  0  0  0  0  0  0  0  0  0  0
   12.5828  -16.6411   23.6124 C   0  0  0  0  0  0  0  0  0  0  0  0
   13.5218  -15.6106   23.0026 C   0  0  2  0  0  0  0  0  0  0  0  0
   12.9821  -15.1039   21.7391 N   0  0  0  0  0  0  0  0  0  0  0  0
   14.7670  -16.3460   22.6948 C   0  0  0  0  0  0  0  0  0  0  0  0
   15.8821  -15.8584   22.9371 O   0  0  0  0  0  0  0  0  0  0  0  0
   14.6783  -17.5969   22.1276 O   0  0  0  0  0  0  0  0  0  0  0  0
  2  1  1  6
  2  4  1  0
  3  2  1  0
  4  6  1  0
  4  5  1  6
  6  8  1  0
  6  7  2  0
  8  9  1  0
  9 10  1  6
  9 13  1  0
 11 10  1  0
 12 11  2  0
 13 14  2  0
 15 11  1  0
 16 17  1  0
 17 18  2  0
 17 19  1  0
 19 20  1  0
 21 20  1  6
 21 23  1  0
 22 21  1  0
 22 13  1  0
 23 25  1  0
 24 23  2  0
M  END
$$$$
