TDQ.pdb
     RDKit          3D

 25 24  0  0  1  0  0  0  0  0999 V2000
    8.7383  -12.6248   20.6823 C   0  0  0  0  0  0  0  0  0  0  0  0
    7.8469  -13.2103   19.6340 C   0  0  1  0  0  0  0  0  0  0  0  0
    7.6490  -12.3251   18.5793 O   0  0  0  0  0  0  0  0  0  0  0  0
    8.4181  -14.4880   19.0819 C   0  0  2  0  0  0  0  0  0  0  0  0
    7.5593  -15.0625   18.0893 N   0  0  0  0  0  0  0  0  0  0  0  0
    8.6449  -15.4529   20.2086 C   0  0  0  0  0  0  0  0  0  0  0  0
    7.6669  -16.2028   20.5234 O   0  0  0  0  0  0  0  0  0  0  0  0
    9.8719  -15.5328   20.8889 N   0  0  0  0  0  0  0  0  0  0  0  0
   10.1220  -16.6009   21.9173 C   0  0  1  0  0  0  0  0  0  0  0  0
   11.6219  -16.7974   21.8593 C   0  0  0  0  0  0  0  0  0  0  0  0
   12.0938  -17.7682   20.8772 C   0  0  0  0  0  0  0  0  0  0  0  0
   11.5659  -18.8771   20.6687 O   0  0  0  0  0  0  0  0  0  0  0  0
    9.7913  -15.9111   23.1870 C   0  0  0  0  0  0  0  0  0  0  0  0
   10.1606  -14.6753   23.2635 O   0  0  0  0  0  0  0  0  0  0  0  0
   13.2277  -17.4799   20.0787 O   0  0  0  0  0  0  0  0  0  0  0  0
    7.7503  -11.7647   26.6216 N   0  0  0  0  0  0  0  0  0  0  0  0
    6.9697  -12.8465   26.1296 C   0  0  0  0  0  0  0  0  0  0  0  0
    6.1388  -12.5781   25.2150 O   0  0  0  0  0  0  0  0  0  0  0  0
    7.1308  -14.2391   26.6760 C   0  0  0  0  0  0  0  0  0  0  0  0
    7.4324  -15.1324   25.5049 C   0  0  0  0  0  0  0  0  0  0  0  0
    8.8869  -15.5770   25.4569 C   0  0  2  0  0  0  0  0  0  0  0  0
    9.1231  -16.4475   24.3033 N   0  0  0  0  0  0  0  0  0  0  0  0
    9.0918  -16.3857   26.6775 C   0  0  0  0  0  0  0  0  0  0  0  0
    9.1594  -17.6238   26.6286 O   0  0  0  0  0  0  0  0  0  0  0  0
    9.2088  -15.7438   27.8894 O   0  0  0  0  0  0  0  0  0  0  0  0
  2  1  1  1
  2  4  1  0
  3  2  1  0
  4  6  1  0
  4  5  1  6
  6  8  1  0
  6  7  2  0
  8  9  1  0
  9 10  1  1
  9 13  1  0
 11 10  1  0
 12 11  2  0
 13 14  2  0
 15 11  1  0
 16 17  1  0
 17 18  2  0
 17 19  1  0
 19 20  1  0
 21 20  1  6
 21 23  1  0
 22 21  1  0
 22 13  1  0
 23 25  1  0
 24 23  2  0
M  END
$$$$
