TDQ.pdb
     RDKit          3D

 25 24  0  0  1  0  0  0  0  0999 V2000
   10.6014  -13.4152   20.0850 C   0  0  0  0  0  0  0  0  0  0  0  0
    9.2570  -12.9976   19.5804 C   0  0  1  0  0  0  0  0  0  0  0  0
    9.3635  -12.1754   18.4633 O   0  0  0  0  0  0  0  0  0  0  0  0
    8.4157  -14.1901   19.2148 C   0  0  2  0  0  0  0  0  0  0  0  0
    7.1086  -13.7979   18.7783 N   0  0  0  0  0  0  0  0  0  0  0  0
    8.3253  -15.1097   20.3973 C   0  0  0  0  0  0  0  0  0  0  0  0
    7.3742  -14.8968   21.2145 O   0  0  0  0  0  0  0  0  0  0  0  0
    9.2400  -16.1567   20.6016 N   0  0  0  0  0  0  0  0  0  0  0  0
    9.0408  -17.1581   21.7055 C   0  0  1  0  0  0  0  0  0  0  0  0
    9.8476  -18.3528   21.2433 C   0  0  0  0  0  0  0  0  0  0  0  0
    9.9548  -19.4500   22.1993 C   0  0  0  0  0  0  0  0  0  0  0  0
    9.0181  -19.8644   22.9084 O   0  0  0  0  0  0  0  0  0  0  0  0
    9.7507  -16.5292   22.8448 C   0  0  0  0  0  0  0  0  0  0  0  0
   10.8774  -15.9655   22.5578 O   0  0  0  0  0  0  0  0  0  0  0  0
   11.1876  -20.1257   22.3728 O   0  0  0  0  0  0  0  0  0  0  0  0
    9.1616  -13.7073   29.1256 N   0  0  0  0  0  0  0  0  0  0  0  0
    8.7759  -13.4615   27.7794 C   0  0  0  0  0  0  0  0  0  0  0  0
    7.6525  -12.9089   27.6018 O   0  0  0  0  0  0  0  0  0  0  0  0
    9.6666  -13.8435   26.6285 C   0  0  0  0  0  0  0  0  0  0  0  0
    9.4049  -15.2958   26.3408 C   0  0  0  0  0  0  0  0  0  0  0  0
   10.2108  -15.8218   25.1621 C   0  0  2  0  0  0  0  0  0  0  0  0
    9.3344  -16.4756   24.1879 N   0  0  0  0  0  0  0  0  0  0  0  0
   11.1040  -16.8562   25.7260 C   0  0  0  0  0  0  0  0  0  0  0  0
   10.9169  -18.0626   25.5035 O   0  0  0  0  0  0  0  0  0  0  0  0
   12.1626  -16.4642   26.5134 O   0  0  0  0  0  0  0  0  0  0  0  0
  2  1  1  6
  2  4  1  0
  3  2  1  0
  4  6  1  0
  4  5  1  1
  6  8  1  0
  6  7  2  0
  8  9  1  0
  9 10  1  6
  9 13  1  0
 11 10  1  0
 12 11  2  0
 13 14  2  0
 15 11  1  0
 16 17  1  0
 17 18  2  0
 17 19  1  0
 19 20  1  0
 21 20  1  1
 21 23  1  0
 22 21  1  0
 22 13  1  0
 23 25  1  0
 24 23  2  0
M  END
$$$$
