TDQ.pdb
     RDKit          3D

 25 24  0  0  1  0  0  0  0  0999 V2000
    7.7510  -12.4606   19.4867 C   0  0  0  0  0  0  0  0  0  0  0  0
    8.1325  -13.4626   20.5291 C   0  0  1  0  0  0  0  0  0  0  0  0
    7.2726  -13.4155   21.6217 O   0  0  0  0  0  0  0  0  0  0  0  0
    8.1201  -14.8609   19.9740 C   0  0  2  0  0  0  0  0  0  0  0  0
    6.8115  -15.2389   19.5295 N   0  0  0  0  0  0  0  0  0  0  0  0
    8.6182  -15.8113   21.0231 C   0  0  0  0  0  0  0  0  0  0  0  0
    7.7567  -16.5883   21.5446 O   0  0  0  0  0  0  0  0  0  0  0  0
    9.9663  -15.8496   21.4176 N   0  0  0  0  0  0  0  0  0  0  0  0
   10.4883  -16.9543   22.2941 C   0  0  1  0  0  0  0  0  0  0  0  0
   11.9819  -16.9182   22.0497 C   0  0  0  0  0  0  0  0  0  0  0  0
   12.7608  -17.9340   22.7504 C   0  0  0  0  0  0  0  0  0  0  0  0
   12.2734  -18.9168   23.3406 O   0  0  0  0  0  0  0  0  0  0  0  0
   10.2267  -16.4360   23.6580 C   0  0  0  0  0  0  0  0  0  0  0  0
   10.9569  -15.4350   24.0243 O   0  0  0  0  0  0  0  0  0  0  0  0
   14.1738  -17.8441   22.7933 O   0  0  0  0  0  0  0  0  0  0  0  0
    7.4550  -12.8258   24.6540 N   0  0  0  0  0  0  0  0  0  0  0  0
    7.2768  -13.7918   25.6820 C   0  0  0  0  0  0  0  0  0  0  0  0
    7.3739  -13.3787   26.8731 O   0  0  0  0  0  0  0  0  0  0  0  0
    6.9872  -15.2326   25.3596 C   0  0  0  0  0  0  0  0  0  0  0  0
    7.7756  -16.0623   26.3346 C   0  0  0  0  0  0  0  0  0  0  0  0
    9.2198  -16.2719   25.9033 C   0  0  2  0  0  0  0  0  0  0  0  0
    9.2781  -16.9066   24.5849 N   0  0  0  0  0  0  0  0  0  0  0  0
    9.7894  -17.2214   26.8830 C   0  0  0  0  0  0  0  0  0  0  0  0
    9.8373  -16.9504   28.0930 O   0  0  0  0  0  0  0  0  0  0  0  0
   10.2746  -18.4290   26.4349 O   0  0  0  0  0  0  0  0  0  0  0  0
  2  1  1  6
  2  4  1  0
  3  2  1  0
  4  6  1  0
  4  5  1  1
  6  8  1  0
  6  7  2  0
  8  9  1  0
  9 10  1  1
  9 13  1  0
 11 10  1  0
 12 11  2  0
 13 14  2  0
 15 11  1  0
 16 17  1  0
 17 18  2  0
 17 19  1  0
 19 20  1  0
 21 20  1  1
 21 23  1  0
 22 21  1  0
 22 13  1  0
 23 25  1  0
 24 23  2  0
M  END
$$$$
