TDQ.pdb
     RDKit          3D

 25 24  0  0  1  0  0  0  0  0999 V2000
    9.3000  -12.6699   20.1307 C   0  0  0  0  0  0  0  0  0  0  0  0
    8.2568  -13.2000   19.1996 C   0  0  1  0  0  0  0  0  0  0  0  0
    8.1209  -12.3948   18.0733 O   0  0  0  0  0  0  0  0  0  0  0  0
    8.5856  -14.5972   18.7486 C   0  0  2  0  0  0  0  0  0  0  0  0
    7.5705  -15.1240   17.8855 N   0  0  0  0  0  0  0  0  0  0  0  0
    8.7639  -15.4740   19.9533 C   0  0  0  0  0  0  0  0  0  0  0  0
    7.7035  -15.8573   20.5421 O   0  0  0  0  0  0  0  0  0  0  0  0
   10.0335  -15.8585   20.4167 N   0  0  0  0  0  0  0  0  0  0  0  0
   10.1838  -16.8106   21.5708 C   0  0  1  0  0  0  0  0  0  0  0  0
   11.6160  -17.2854   21.4479 C   0  0  0  0  0  0  0  0  0  0  0  0
   11.8319  -18.4139   20.5484 C   0  0  0  0  0  0  0  0  0  0  0  0
   10.9793  -19.2840   20.2878 O   0  0  0  0  0  0  0  0  0  0  0  0
   10.0901  -15.9119   22.7459 C   0  0  0  0  0  0  0  0  0  0  0  0
   10.8554  -14.8714   22.7151 O   0  0  0  0  0  0  0  0  0  0  0  0
   13.0804  -18.5793   19.9000 O   0  0  0  0  0  0  0  0  0  0  0  0
    6.0196  -11.7589   26.9360 N   0  0  0  0  0  0  0  0  0  0  0  0
    6.3700  -12.9568   26.2550 C   0  0  0  0  0  0  0  0  0  0  0  0
    5.4274  -13.5928   25.7019 O   0  0  0  0  0  0  0  0  0  0  0  0
    7.7949  -13.4370   26.2002 C   0  0  0  0  0  0  0  0  0  0  0  0
    7.8672  -14.4556   25.0966 C   0  0  0  0  0  0  0  0  0  0  0  0
    9.2705  -15.0059   24.8882 C   0  0  2  0  0  0  0  0  0  0  0  0
    9.2652  -16.0640   23.8758 N   0  0  0  0  0  0  0  0  0  0  0  0
    9.6473  -15.6223   26.1781 C   0  0  0  0  0  0  0  0  0  0  0  0
    9.6654  -16.8544   26.3248 O   0  0  0  0  0  0  0  0  0  0  0  0
    9.9834  -14.8049   27.2333 O   0  0  0  0  0  0  0  0  0  0  0  0
  2  1  1  1
  2  4  1  0
  3  2  1  0
  4  6  1  0
  4  5  1  6
  6  8  1  0
  6  7  2  0
  8  9  1  0
  9 10  1  6
  9 13  1  0
 11 10  1  0
 12 11  2  0
 13 14  2  0
 15 11  1  0
 16 17  1  0
 17 18  2  0
 17 19  1  0
 19 20  1  0
 21 20  1  1
 21 23  1  0
 22 21  1  0
 22 13  1  0
 23 25  1  0
 24 23  2  0
M  END
$$$$
