TDQ.pdb
     RDKit          3D

 25 24  0  0  1  0  0  0  0  0999 V2000
    9.1995  -12.3920   19.3298 C   0  0  0  0  0  0  0  0  0  0  0  0
    8.4187  -13.4519   18.6204 C   0  0  1  0  0  0  0  0  0  0  0  0
    7.4161  -12.9031   17.8273 O   0  0  0  0  0  0  0  0  0  0  0  0
    9.3084  -14.2943   17.7472 C   0  0  2  0  0  0  0  0  0  0  0  0
    8.5480  -15.2087   16.9481 N   0  0  0  0  0  0  0  0  0  0  0  0
   10.2880  -15.0337   18.6108 C   0  0  0  0  0  0  0  0  0  0  0  0
    9.9018  -16.1485   19.0861 O   0  0  0  0  0  0  0  0  0  0  0  0
   11.5701  -14.5294   18.8872 N   0  0  0  0  0  0  0  0  0  0  0  0
   12.5592  -15.3223   19.6959 C   0  0  1  0  0  0  0  0  0  0  0  0
   13.8462  -14.5409   19.5377 C   0  0  0  0  0  0  0  0  0  0  0  0
   14.6311  -14.8520   18.3474 C   0  0  0  0  0  0  0  0  0  0  0  0
   15.2788  -14.0161   17.6889 O   0  0  0  0  0  0  0  0  0  0  0  0
   12.0679  -15.1350   21.0818 C   0  0  0  0  0  0  0  0  0  0  0  0
   11.1154  -14.2738   21.2248 O   0  0  0  0  0  0  0  0  0  0  0  0
   14.6949  -16.1818   17.8637 O   0  0  0  0  0  0  0  0  0  0  0  0
    9.6034  -14.4017   21.9931 N   0  0  0  0  0  0  0  0  0  0  0  0
    8.7437  -15.2755   22.7136 C   0  0  0  0  0  0  0  0  0  0  0  0
    7.7223  -14.7553   23.2474 O   0  0  0  0  0  0  0  0  0  0  0  0
    9.0422  -16.7456   22.8302 C   0  0  0  0  0  0  0  0  0  0  0  0
   10.3679  -16.9736   22.1586 C   0  0  0  0  0  0  0  0  0  0  0  0
   11.5500  -16.5631   23.0245 C   0  0  2  0  0  0  0  0  0  0  0  0
   12.5172  -15.7882   22.2445 N   0  0  0  0  0  0  0  0  0  0  0  0
   12.2052  -17.8277   23.4213 C   0  0  0  0  0  0  0  0  0  0  0  0
   13.0117  -18.4004   22.6719 O   0  0  0  0  0  0  0  0  0  0  0  0
   11.9086  -18.3744   24.6491 O   0  0  0  0  0  0  0  0  0  0  0  0
  2  1  1  6
  2  4  1  0
  3  2  1  0
  4  6  1  0
  4  5  1  1
  6  8  1  0
  6  7  2  0
  8  9  1  0
  9 10  1  1
  9 13  1  0
 11 10  1  0
 12 11  2  0
 13 14  2  0
 15 11  1  0
 16 17  1  0
 17 18  2  0
 17 19  1  0
 19 20  1  0
 21 20  1  6
 21 23  1  0
 22 21  1  0
 22 13  1  0
 23 25  1  0
 24 23  2  0
M  END
$$$$
