GSH.pdb
     RDKit          3D

 21 21  0  0  1  0  0  0  0  0999 V2000
    9.4227  -15.2573   15.7163 N   0  0  0  0  0  0  0  0  0  0  0  0
    8.3487  -15.5731   16.6301 C   0  0  0  0  0  0  0  0  0  0  0  0
    8.6880  -15.0875   17.9752 C   0  0  0  0  0  0  0  0  0  0  0  0
    9.8277  -14.6125   18.2549 O   0  0  0  0  0  0  0  0  0  0  0  0
    7.0676  -14.1016   22.4707 O   0  0  0  0  0  0  0  0  0  0  0  0
    6.7962  -14.6654   21.2180 C   0  0  0  0  0  0  0  0  0  0  0  0
    8.0317  -14.6841   20.3485 C   0  0  2  0  0  0  0  0  0  0  0  0
    7.7338  -15.1348   19.0250 N   0  0  0  0  0  0  0  0  0  0  0  0
    9.0361  -15.5487   21.0313 C   0  0  0  0  0  0  0  0  0  0  0  0
    8.9134  -16.7954   20.9197 O   0  0  0  0  0  0  0  0  0  0  0  0
   10.1146  -15.0322   21.7944 N   0  0  0  0  0  0  0  0  0  0  0  0
   11.1243  -15.9733   22.3136 C   0  0  1  0  0  0  0  0  0  0  0  0
   12.4944  -15.4355   22.1275 C   0  0  0  0  0  0  0  0  0  0  0  0
   12.8508  -15.3508   20.7020 C   0  0  0  0  0  0  0  0  0  0  0  0
   12.8846  -14.2918   19.8380 C   0  0  0  0  0  0  0  0  0  0  0  0
   13.3647  -14.6885   18.6200 N   0  0  0  0  0  0  0  0  0  0  0  0
   13.6338  -15.9952   18.7198 C   0  0  0  0  0  0  0  0  0  0  0  0
   13.3337  -16.3986   19.9493 N   0  0  0  0  0  0  0  0  0  0  0  0
   10.8192  -16.1145   23.7698 C   0  0  0  0  0  0  0  0  0  0  0  0
    9.9148  -15.5326   24.3740 O   0  0  0  0  0  0  0  0  0  0  0  0
   11.6223  -16.9778   24.5217 O   0  0  0  0  0  0  0  0  0  0  0  0
  1  2  1  0
  3  2  1  0
  4  3  2  0
  5  6  1  0
  7  6  1  1
  7  9  1  0
  7  8  1  0
  8  3  1  0
  9 10  2  0
 11 12  1  0
 11  9  1  0
 12 13  1  1
 13 14  1  0
 14 15  2  0
 14 18  1  0
 15 16  1  0
 16 17  1  0
 18 17  2  0
 19 12  1  0
 20 19  2  0
 21 19  1  0
M  END
$$$$
