GSH.pdb
     RDKit          3D

 21 21  0  0  1  0  0  0  0  0999 V2000
    3.2060  -19.6431   21.3376 N   0  0  0  0  0  0  0  0  0  0  0  0
    3.3646  -18.2673   21.7504 C   0  0  0  0  0  0  0  0  0  0  0  0
    4.7739  -17.8724   21.6156 C   0  0  0  0  0  0  0  0  0  0  0  0
    5.6798  -18.6975   21.2977 O   0  0  0  0  0  0  0  0  0  0  0  0
    7.9389  -14.3002   20.9650 O   0  0  0  0  0  0  0  0  0  0  0  0
    6.6178  -14.6631   21.2545 C   0  0  0  0  0  0  0  0  0  0  0  0
    6.5326  -16.1043   21.7000 C   0  0  2  0  0  0  0  0  0  0  0  0
    5.1751  -16.5295   21.8408 N   0  0  0  0  0  0  0  0  0  0  0  0
    7.2988  -16.2162   22.9740 C   0  0  0  0  0  0  0  0  0  0  0  0
    6.7491  -15.8101   24.0298 O   0  0  0  0  0  0  0  0  0  0  0  0
    8.6087  -16.7556   23.0476 N   0  0  0  0  0  0  0  0  0  0  0  0
    9.2818  -16.7945   24.3592 C   0  0  1  0  0  0  0  0  0  0  0  0
    9.5121  -18.1938   24.7947 C   0  0  0  0  0  0  0  0  0  0  0  0
    8.6965  -18.5327   25.9721 C   0  0  0  0  0  0  0  0  0  0  0  0
    7.9816  -17.7493   26.8348 C   0  0  0  0  0  0  0  0  0  0  0  0
    7.3089  -18.5281   27.7362 N   0  0  0  0  0  0  0  0  0  0  0  0
    7.5999  -19.7995   27.4385 C   0  0  0  0  0  0  0  0  0  0  0  0
    8.4211  -19.8146   26.3946 N   0  0  0  0  0  0  0  0  0  0  0  0
   10.5874  -16.0971   24.1528 C   0  0  0  0  0  0  0  0  0  0  0  0
   11.4549  -15.9271   25.0131 O   0  0  0  0  0  0  0  0  0  0  0  0
   10.8591  -15.5894   22.8785 O   0  0  0  0  0  0  0  0  0  0  0  0
  1  2  1  0
  3  2  1  0
  4  3  2  0
  5  6  1  0
  7  6  1  1
  7  9  1  0
  7  8  1  0
  8  3  1  0
  9 10  2  0
 11 12  1  0
 11  9  1  0
 12 13  1  6
 13 14  1  0
 14 15  2  0
 14 18  1  0
 15 16  1  0
 16 17  1  0
 18 17  2  0
 19 12  1  0
 20 19  2  0
 21 19  1  0
M  END
$$$$
