GSH.pdb
     RDKit          3D

 21 21  0  0  1  0  0  0  0  0999 V2000
    4.1514  -18.6261   21.4119 N   0  0  0  0  0  0  0  0  0  0  0  0
    4.4170  -17.2271   21.1657 C   0  0  0  0  0  0  0  0  0  0  0  0
    5.8656  -16.9845   21.2183 C   0  0  0  0  0  0  0  0  0  0  0  0
    6.6791  -17.8437   21.6687 O   0  0  0  0  0  0  0  0  0  0  0  0
    7.9353  -14.6693   18.5500 O   0  0  0  0  0  0  0  0  0  0  0  0
    8.1853  -14.3409   19.8880 C   0  0  0  0  0  0  0  0  0  0  0  0
    7.8137  -15.4801   20.8083 C   0  0  2  0  0  0  0  0  0  0  0  0
    6.4124  -15.7580   20.7583 N   0  0  0  0  0  0  0  0  0  0  0  0
    8.2709  -15.1059   22.1771 C   0  0  0  0  0  0  0  0  0  0  0  0
    7.7176  -14.1241   22.7353 O   0  0  0  0  0  0  0  0  0  0  0  0
    9.2934  -15.8020   22.8717 N   0  0  0  0  0  0  0  0  0  0  0  0
    9.5943  -15.4091   24.2609 C   0  0  1  0  0  0  0  0  0  0  0  0
    8.4834  -15.7847   25.1697 C   0  0  0  0  0  0  0  0  0  0  0  0
    7.6454  -14.6222   25.5051 C   0  0  0  0  0  0  0  0  0  0  0  0
    7.7366  -13.3061   25.1466 C   0  0  0  0  0  0  0  0  0  0  0  0
    6.6701  -12.6052   25.6394 N   0  0  0  0  0  0  0  0  0  0  0  0
    5.9090  -13.4811   26.3053 C   0  0  0  0  0  0  0  0  0  0  0  0
    6.4768  -14.6797   26.2322 N   0  0  0  0  0  0  0  0  0  0  0  0
   10.8338  -16.1612   24.6233 C   0  0  0  0  0  0  0  0  0  0  0  0
   11.4437  -16.0688   25.6915 O   0  0  0  0  0  0  0  0  0  0  0  0
   11.3559  -17.0487   23.6771 O   0  0  0  0  0  0  0  0  0  0  0  0
  1  2  1  0
  3  2  1  0
  4  3  2  0
  5  6  1  0
  7  6  1  6
  7  9  1  0
  7  8  1  0
  8  3  1  0
  9 10  2  0
 11 12  1  0
 11  9  1  0
 12 13  1  1
 13 14  1  0
 14 15  2  0
 14 18  1  0
 15 16  1  0
 16 17  1  0
 18 17  2  0
 19 12  1  0
 20 19  2  0
 21 19  1  0
M  END
$$$$
