GSH.pdb
     RDKit          3D

 21 21  0  0  1  0  0  0  0  0999 V2000
    4.9146  -20.6753   19.1227 N   0  0  0  0  0  0  0  0  0  0  0  0
    5.8441  -20.9822   20.1858 C   0  0  0  0  0  0  0  0  0  0  0  0
    6.0193  -19.8009   21.0426 C   0  0  0  0  0  0  0  0  0  0  0  0
    5.4681  -18.6908   20.7845 O   0  0  0  0  0  0  0  0  0  0  0  0
    8.1773  -20.1364   24.6281 O   0  0  0  0  0  0  0  0  0  0  0  0
    7.2309  -19.1143   24.4852 C   0  0  0  0  0  0  0  0  0  0  0  0
    7.0649  -18.7229   23.0353 C   0  0  2  0  0  0  0  0  0  0  0  0
    6.8262  -19.8644   22.2087 N   0  0  0  0  0  0  0  0  0  0  0  0
    8.2946  -17.9798   22.6375 C   0  0  0  0  0  0  0  0  0  0  0  0
    9.2331  -18.6317   22.1122 O   0  0  0  0  0  0  0  0  0  0  0  0
    8.4517  -16.5822   22.8236 N   0  0  0  0  0  0  0  0  0  0  0  0
    9.6969  -15.9450   22.3562 C   0  0  1  0  0  0  0  0  0  0  0  0
    9.4730  -14.5124   22.0424 C   0  0  0  0  0  0  0  0  0  0  0  0
    8.7099  -14.3472   20.7947 C   0  0  0  0  0  0  0  0  0  0  0  0
    8.2522  -15.2596   19.8851 C   0  0  0  0  0  0  0  0  0  0  0  0
    7.5124  -14.6354   18.9184 N   0  0  0  0  0  0  0  0  0  0  0  0
    7.5042  -13.3325   19.2218 C   0  0  0  0  0  0  0  0  0  0  0  0
    8.2102  -13.1498   20.3320 N   0  0  0  0  0  0  0  0  0  0  0  0
   10.6587  -16.0798   23.4921 C   0  0  0  0  0  0  0  0  0  0  0  0
   10.3921  -16.5283   24.6098 O   0  0  0  0  0  0  0  0  0  0  0  0
   11.9771  -15.6644   23.2805 O   0  0  0  0  0  0  0  0  0  0  0  0
  1  2  1  0
  3  2  1  0
  4  3  2  0
  5  6  1  0
  7  6  1  1
  7  9  1  0
  7  8  1  0
  8  3  1  0
  9 10  2  0
 11 12  1  0
 11  9  1  0
 12 13  1  1
 13 14  1  0
 14 15  2  0
 14 18  1  0
 15 16  1  0
 16 17  1  0
 18 17  2  0
 19 12  1  0
 20 19  2  0
 21 19  1  0
M  END
$$$$
