GSH.pdb
     RDKit          3D

 21 21  0  0  1  0  0  0  0  0999 V2000
    8.7370  -15.9795   14.4955 N   0  0  0  0  0  0  0  0  0  0  0  0
    9.9080  -16.4834   15.1761 C   0  0  0  0  0  0  0  0  0  0  0  0
    9.5799  -16.7581   16.5823 C   0  0  0  0  0  0  0  0  0  0  0  0
    8.6713  -16.1289   17.1998 O   0  0  0  0  0  0  0  0  0  0  0  0
   10.0134  -20.4684   18.4744 O   0  0  0  0  0  0  0  0  0  0  0  0
   10.6176  -19.3686   19.0958 C   0  0  0  0  0  0  0  0  0  0  0  0
    9.9675  -18.0740   18.6666 C   0  0  2  0  0  0  0  0  0  0  0  0
   10.2819  -17.7549   17.3091 N   0  0  0  0  0  0  0  0  0  0  0  0
   10.4196  -17.0191   19.6182 C   0  0  0  0  0  0  0  0  0  0  0  0
   11.5255  -16.4620   19.3984 O   0  0  0  0  0  0  0  0  0  0  0  0
    9.6642  -16.6193   20.7505 N   0  0  0  0  0  0  0  0  0  0  0  0
   10.0998  -15.4280   21.5028 C   0  0  1  0  0  0  0  0  0  0  0  0
    8.9870  -14.4576   21.6479 C   0  0  0  0  0  0  0  0  0  0  0  0
    8.4894  -14.0087   20.3375 C   0  0  0  0  0  0  0  0  0  0  0  0
    8.9929  -13.1131   19.4356 C   0  0  0  0  0  0  0  0  0  0  0  0
    8.2167  -13.0867   18.3095 N   0  0  0  0  0  0  0  0  0  0  0  0
    7.2276  -13.9664   18.5035 C   0  0  0  0  0  0  0  0  0  0  0  0
    7.3791  -14.5193   19.7018 N   0  0  0  0  0  0  0  0  0  0  0  0
   10.5161  -15.9395   22.8439 C   0  0  0  0  0  0  0  0  0  0  0  0
   10.3442  -17.0880   23.2598 O   0  0  0  0  0  0  0  0  0  0  0  0
   11.1561  -15.0475   23.7101 O   0  0  0  0  0  0  0  0  0  0  0  0
  1  2  1  0
  3  2  1  0
  4  3  2  0
  5  6  1  0
  7  6  1  1
  7  9  1  0
  7  8  1  0
  8  3  1  0
  9 10  2  0
 11 12  1  0
 11  9  1  0
 12 13  1  1
 13 14  1  0
 14 15  2  0
 14 18  1  0
 15 16  1  0
 16 17  1  0
 18 17  2  0
 19 12  1  0
 20 19  2  0
 21 19  1  0
M  END
$$$$
