GSH.pdb
     RDKit          3D

 21 21  0  0  1  0  0  0  0  0999 V2000
    5.0493  -20.4868   18.4584 N   0  0  0  0  0  0  0  0  0  0  0  0
    5.8425  -20.6486   19.6556 C   0  0  0  0  0  0  0  0  0  0  0  0
    5.8565  -19.3878   20.4108 C   0  0  0  0  0  0  0  0  0  0  0  0
    5.5044  -18.2867   19.8948 O   0  0  0  0  0  0  0  0  0  0  0  0
    7.0751  -19.3096   24.4921 O   0  0  0  0  0  0  0  0  0  0  0  0
    6.0918  -18.4374   24.0093 C   0  0  0  0  0  0  0  0  0  0  0  0
    6.2867  -18.1559   22.5377 C   0  0  2  0  0  0  0  0  0  0  0  0
    6.2723  -19.3602   21.7677 N   0  0  0  0  0  0  0  0  0  0  0  0
    7.5689  -17.4079   22.3997 C   0  0  0  0  0  0  0  0  0  0  0  0
    8.6062  -18.0627   22.1227 O   0  0  0  0  0  0  0  0  0  0  0  0
    7.6698  -16.0026   22.5655 N   0  0  0  0  0  0  0  0  0  0  0  0
    8.9909  -15.3674   22.4041 C   0  0  1  0  0  0  0  0  0  0  0  0
    8.8519  -13.9725   21.9186 C   0  0  0  0  0  0  0  0  0  0  0  0
    8.4187  -13.9321   20.5125 C   0  0  0  0  0  0  0  0  0  0  0  0
    7.4332  -13.2193   19.8883 C   0  0  0  0  0  0  0  0  0  0  0  0
    7.4608  -13.4517   18.5404 N   0  0  0  0  0  0  0  0  0  0  0  0
    8.4642  -14.3084   18.3185 C   0  0  0  0  0  0  0  0  0  0  0  0
    9.0393  -14.5998   19.4798 N   0  0  0  0  0  0  0  0  0  0  0  0
    9.6035  -15.3804   23.7672 C   0  0  0  0  0  0  0  0  0  0  0  0
    9.0338  -15.7190   24.8076 O   0  0  0  0  0  0  0  0  0  0  0  0
   10.9367  -14.9751   23.8849 O   0  0  0  0  0  0  0  0  0  0  0  0
  1  2  1  0
  3  2  1  0
  4  3  2  0
  5  6  1  0
  7  6  1  1
  7  9  1  0
  7  8  1  0
  8  3  1  0
  9 10  2  0
 11 12  1  0
 11  9  1  0
 12 13  1  1
 13 14  1  0
 14 15  2  0
 14 18  1  0
 15 16  1  0
 16 17  1  0
 18 17  2  0
 19 12  1  0
 20 19  2  0
 21 19  1  0
M  END
$$$$
