GSH.pdb
     RDKit          3D

 21 21  0  0  1  0  0  0  0  0999 V2000
    7.0603  -18.8853   18.0894 N   0  0  0  0  0  0  0  0  0  0  0  0
    6.6582  -18.0276   19.1808 C   0  0  0  0  0  0  0  0  0  0  0  0
    7.8044  -17.2185   19.6188 C   0  0  0  0  0  0  0  0  0  0  0  0
    8.9637  -17.3696   19.1331 O   0  0  0  0  0  0  0  0  0  0  0  0
    7.2984  -14.5470   22.7922 O   0  0  0  0  0  0  0  0  0  0  0  0
    8.2758  -14.2195   21.8445 C   0  0  0  0  0  0  0  0  0  0  0  0
    8.7485  -15.4471   21.1012 C   0  0  2  0  0  0  0  0  0  0  0  0
    7.6490  -16.2227   20.6185 N   0  0  0  0  0  0  0  0  0  0  0  0
    9.6212  -16.2162   22.0336 C   0  0  0  0  0  0  0  0  0  0  0  0
    9.0707  -17.0250   22.8238 O   0  0  0  0  0  0  0  0  0  0  0  0
   11.0326  -16.0773   22.0688 N   0  0  0  0  0  0  0  0  0  0  0  0
   11.7975  -16.8989   23.0252 C   0  0  1  0  0  0  0  0  0  0  0  0
   12.6714  -17.8637   22.3135 C   0  0  0  0  0  0  0  0  0  0  0  0
   11.9100  -19.0291   21.8355 C   0  0  0  0  0  0  0  0  0  0  0  0
   10.5802  -19.3365   21.9138 C   0  0  0  0  0  0  0  0  0  0  0  0
   10.3226  -20.5020   21.2454 N   0  0  0  0  0  0  0  0  0  0  0  0
   11.4896  -20.9250   20.7464 C   0  0  0  0  0  0  0  0  0  0  0  0
   12.4374  -20.0600   21.0894 N   0  0  0  0  0  0  0  0  0  0  0  0
   12.6266  -15.9288   23.8030 C   0  0  0  0  0  0  0  0  0  0  0  0
   13.3410  -16.2074   24.7692 O   0  0  0  0  0  0  0  0  0  0  0  0
   12.5970  -14.5870   23.4103 O   0  0  0  0  0  0  0  0  0  0  0  0
  1  2  1  0
  3  2  1  0
  4  3  2  0
  5  6  1  0
  7  6  1  1
  7  9  1  0
  7  8  1  0
  8  3  1  0
  9 10  2  0
 11 12  1  0
 11  9  1  0
 12 13  1  6
 13 14  1  0
 14 15  2  0
 14 18  1  0
 15 16  1  0
 16 17  1  0
 18 17  2  0
 19 12  1  0
 20 19  2  0
 21 19  1  0
M  END
$$$$
