GSH.pdb
     RDKit          3D

 21 21  0  0  1  0  0  0  0  0999 V2000
    8.2962  -15.2034   13.9859 N   0  0  0  0  0  0  0  0  0  0  0  0
    7.7133  -15.2083   15.3082 C   0  0  0  0  0  0  0  0  0  0  0  0
    8.6269  -14.5478   16.2512 C   0  0  0  0  0  0  0  0  0  0  0  0
    9.8125  -14.2345   15.9369 O   0  0  0  0  0  0  0  0  0  0  0  0
    7.4847  -14.0408   20.2742 O   0  0  0  0  0  0  0  0  0  0  0  0
    8.3017  -13.0610   19.6968 C   0  0  0  0  0  0  0  0  0  0  0  0
    9.0735  -13.6164   18.5226 C   0  0  2  0  0  0  0  0  0  0  0  0
    8.2048  -14.2330   17.5694 N   0  0  0  0  0  0  0  0  0  0  0  0
   10.0829  -14.5669   19.0706 C   0  0  0  0  0  0  0  0  0  0  0  0
    9.8727  -15.7983   18.9249 O   0  0  0  0  0  0  0  0  0  0  0  0
   11.2595  -14.1477   19.7431 N   0  0  0  0  0  0  0  0  0  0  0  0
   12.2330  -15.1723   20.1641 C   0  0  1  0  0  0  0  0  0  0  0  0
   13.5911  -14.5897   20.2958 C   0  0  0  0  0  0  0  0  0  0  0  0
   14.2940  -14.5645   19.0029 C   0  0  0  0  0  0  0  0  0  0  0  0
   13.9408  -15.0389   17.7703 C   0  0  0  0  0  0  0  0  0  0  0  0
   14.8903  -14.7052   16.8437 N   0  0  0  0  0  0  0  0  0  0  0  0
   15.8380  -14.0204   17.4938 C   0  0  0  0  0  0  0  0  0  0  0  0
   15.4953  -13.9303   18.7739 N   0  0  0  0  0  0  0  0  0  0  0  0
   11.7478  -15.6544   21.4929 C   0  0  0  0  0  0  0  0  0  0  0  0
   10.7878  -15.1955   22.1168 O   0  0  0  0  0  0  0  0  0  0  0  0
   12.4342  -16.7168   22.0894 O   0  0  0  0  0  0  0  0  0  0  0  0
  1  2  1  0
  3  2  1  0
  4  3  2  0
  5  6  1  0
  7  6  1  1
  7  9  1  0
  7  8  1  0
  8  3  1  0
  9 10  2  0
 11 12  1  0
 11  9  1  0
 12 13  1  1
 13 14  1  0
 14 15  2  0
 14 18  1  0
 15 16  1  0
 16 17  1  0
 18 17  2  0
 19 12  1  0
 20 19  2  0
 21 19  1  0
M  END
$$$$
