GSH.pdb
     RDKit          3D

 21 21  0  0  1  0  0  0  0  0999 V2000
   12.8092  -17.4685   19.2630 N   0  0  0  0  0  0  0  0  0  0  0  0
   13.1313  -17.7820   20.6364 C   0  0  0  0  0  0  0  0  0  0  0  0
   11.8979  -17.8195   21.4349 C   0  0  0  0  0  0  0  0  0  0  0  0
   10.7816  -17.4412   20.9729 O   0  0  0  0  0  0  0  0  0  0  0  0
   12.0174  -19.1448   25.4456 O   0  0  0  0  0  0  0  0  0  0  0  0
   10.8823  -19.4078   24.6690 C   0  0  0  0  0  0  0  0  0  0  0  0
   10.7284  -18.3885   23.5644 C   0  0  2  0  0  0  0  0  0  0  0  0
   11.9155  -18.2891   22.7744 N   0  0  0  0  0  0  0  0  0  0  0  0
   10.3640  -17.0944   24.2087 C   0  0  0  0  0  0  0  0  0  0  0  0
   11.2774  -16.2495   24.3918 O   0  0  0  0  0  0  0  0  0  0  0  0
    9.0443  -16.7765   24.6209 N   0  0  0  0  0  0  0  0  0  0  0  0
    8.8002  -15.4671   25.2538 C   0  0  1  0  0  0  0  0  0  0  0  0
    7.3538  -15.1370   25.2466 C   0  0  0  0  0  0  0  0  0  0  0  0
    7.0976  -13.8254   25.8632 C   0  0  0  0  0  0  0  0  0  0  0  0
    7.9472  -12.8767   26.3605 C   0  0  0  0  0  0  0  0  0  0  0  0
    7.2443  -11.7728   26.7593 N   0  0  0  0  0  0  0  0  0  0  0  0
    5.9547  -12.0277   26.5109 C   0  0  0  0  0  0  0  0  0  0  0  0
    5.8556  -13.2410   25.9795 N   0  0  0  0  0  0  0  0  0  0  0  0
    9.2892  -15.6113   26.6586 C   0  0  0  0  0  0  0  0  0  0  0  0
    9.4954  -14.6846   27.4462 O   0  0  0  0  0  0  0  0  0  0  0  0
    9.5381  -16.9037   27.1311 O   0  0  0  0  0  0  0  0  0  0  0  0
  1  2  1  0
  3  2  1  0
  4  3  2  0
  5  6  1  0
  7  6  1  1
  7  9  1  0
  7  8  1  0
  8  3  1  0
  9 10  2  0
 11 12  1  0
 11  9  1  0
 12 13  1  1
 13 14  1  0
 14 15  2  0
 14 18  1  0
 15 16  1  0
 16 17  1  0
 18 17  2  0
 19 12  1  0
 20 19  2  0
 21 19  1  0
M  END
$$$$
