GSH.pdb
     RDKit          3D

 21 21  0  0  1  0  0  0  0  0999 V2000
   10.6726  -18.9556   18.2970 N   0  0  0  0  0  0  0  0  0  0  0  0
   10.1275  -19.6410   19.4466 C   0  0  0  0  0  0  0  0  0  0  0  0
    9.3790  -18.6881   20.2785 C   0  0  0  0  0  0  0  0  0  0  0  0
    9.3729  -17.4443   20.0428 O   0  0  0  0  0  0  0  0  0  0  0  0
    6.6746  -20.1561   23.0746 O   0  0  0  0  0  0  0  0  0  0  0  0
    6.5075  -18.8655   22.5576 C   0  0  0  0  0  0  0  0  0  0  0  0
    7.8367  -18.2483   22.1900 C   0  0  2  0  0  0  0  0  0  0  0  0
    8.6243  -19.1367   21.3939 N   0  0  0  0  0  0  0  0  0  0  0  0
    8.5144  -17.8741   23.4641 C   0  0  0  0  0  0  0  0  0  0  0  0
    9.4401  -18.6172   23.8795 O   0  0  0  0  0  0  0  0  0  0  0  0
    8.1644  -16.7272   24.2221 N   0  0  0  0  0  0  0  0  0  0  0  0
    8.9299  -16.4324   25.4476 C   0  0  1  0  0  0  0  0  0  0  0  0
    8.4567  -15.1755   26.0779 C   0  0  0  0  0  0  0  0  0  0  0  0
    9.1924  -14.8851   27.3192 C   0  0  0  0  0  0  0  0  0  0  0  0
   10.2352  -15.5284   27.9257 C   0  0  0  0  0  0  0  0  0  0  0  0
   10.6434  -14.8327   29.0307 N   0  0  0  0  0  0  0  0  0  0  0  0
    9.8586  -13.7527   29.1167 C   0  0  0  0  0  0  0  0  0  0  0  0
    8.9951  -13.7729   28.1076 N   0  0  0  0  0  0  0  0  0  0  0  0
    8.6791  -17.5915   26.3571 C   0  0  0  0  0  0  0  0  0  0  0  0
    9.5113  -18.1115   27.1044 O   0  0  0  0  0  0  0  0  0  0  0  0
    7.3936  -18.1418   26.3696 O   0  0  0  0  0  0  0  0  0  0  0  0
  1  2  1  0
  3  2  1  0
  4  3  2  0
  5  6  1  0
  7  6  1  1
  7  9  1  0
  7  8  1  0
  8  3  1  0
  9 10  2  0
 11 12  1  0
 11  9  1  0
 12 13  1  1
 13 14  1  0
 14 15  2  0
 14 18  1  0
 15 16  1  0
 16 17  1  0
 18 17  2  0
 19 12  1  0
 20 19  2  0
 21 19  1  0
M  END
$$$$
