GSH.pdb
     RDKit          3D

 21 21  0  0  1  0  0  0  0  0999 V2000
    4.9146  -19.0464   20.9053 N   0  0  0  0  0  0  0  0  0  0  0  0
    4.9169  -17.6299   21.1912 C   0  0  0  0  0  0  0  0  0  0  0  0
    6.2323  -17.0633   20.8610 C   0  0  0  0  0  0  0  0  0  0  0  0
    7.2465  -17.7896   20.6452 O   0  0  0  0  0  0  0  0  0  0  0  0
    8.8773  -13.2608   19.5375 O   0  0  0  0  0  0  0  0  0  0  0  0
    7.6120  -13.7204   19.9230 C   0  0  0  0  0  0  0  0  0  0  0  0
    7.7045  -15.0647   20.6066 C   0  0  2  0  0  0  0  0  0  0  0  0
    6.4145  -15.6584   20.7709 N   0  0  0  0  0  0  0  0  0  0  0  0
    8.4011  -14.8491   21.9069 C   0  0  0  0  0  0  0  0  0  0  0  0
    7.9251  -13.9930   22.6957 O   0  0  0  0  0  0  0  0  0  0  0  0
    9.5669  -15.5606   22.2906 N   0  0  0  0  0  0  0  0  0  0  0  0
   10.1638  -15.2760   23.6088 C   0  0  1  0  0  0  0  0  0  0  0  0
    9.4434  -16.0016   24.6838 C   0  0  0  0  0  0  0  0  0  0  0  0
    8.2922  -15.2287   25.1774 C   0  0  0  0  0  0  0  0  0  0  0  0
    8.1166  -13.8862   25.3672 C   0  0  0  0  0  0  0  0  0  0  0  0
    6.8345  -13.6276   25.7681 N   0  0  0  0  0  0  0  0  0  0  0  0
    6.2051  -14.8066   25.8281 C   0  0  0  0  0  0  0  0  0  0  0  0
    7.0589  -15.7627   25.4798 N   0  0  0  0  0  0  0  0  0  0  0  0
   11.5744  -15.7605   23.5154 C   0  0  0  0  0  0  0  0  0  0  0  0
   12.0643  -16.3657   22.5587 O   0  0  0  0  0  0  0  0  0  0  0  0
   12.4205  -15.5122   24.6008 O   0  0  0  0  0  0  0  0  0  0  0  0
  1  2  1  0
  3  2  1  0
  4  3  2  0
  5  6  1  0
  7  6  1  1
  7  9  1  0
  7  8  1  0
  8  3  1  0
  9 10  2  0
 11 12  1  0
 11  9  1  0
 12 13  1  1
 13 14  1  0
 14 15  2  0
 14 18  1  0
 15 16  1  0
 16 17  1  0
 18 17  2  0
 19 12  1  0
 20 19  2  0
 21 19  1  0
M  END
$$$$
