MHL.pdb
     RDKit          3D

 27 27  0  0  1  0  0  0  0  0999 V2000
   24.4650  -15.0707  -14.9697 C   0  0  0  0  0  0  0  0  0  0  0  0
   26.2531  -14.9323  -15.0507 S   0  0  0  0  0  0  0  0  0  0  0  0
   26.9509  -16.4105  -15.8093 C   0  0  0  0  0  0  0  0  0  0  0  0
   25.9238  -17.5219  -15.7282 C   0  0  0  0  0  0  0  0  0  0  0  0
   26.5623  -18.8470  -16.1172 C   0  0  2  0  0  0  0  0  0  0  0  0
   27.2180  -18.7418  -17.3811 N   0  0  0  0  0  0  0  0  0  0  0  0
   25.5939  -19.9626  -16.0092 C   0  0  0  0  0  0  0  0  0  0  0  0
   24.4639  -19.7785  -16.5237 O   0  0  0  0  0  0  0  0  0  0  0  0
   25.8450  -21.1935  -15.3828 N   0  0  0  0  0  0  0  0  0  0  0  0
   24.9221  -22.3163  -15.3319 C   0  0  1  0  0  0  0  0  0  0  0  0
   25.6836  -23.6287  -15.4984 C   0  0  0  0  0  0  0  0  0  0  0  0
   25.9805  -23.8230  -16.9279 C   0  0  0  0  0  0  0  0  0  0  0  0
   25.4843  -23.0330  -17.9686 C   0  0  0  0  0  0  0  0  0  0  0  0
   25.9551  -23.4854  -19.1556 N   0  0  0  0  0  0  0  0  0  0  0  0
   26.7325  -24.5407  -18.8602 C   0  0  0  0  0  0  0  0  0  0  0  0
   26.7518  -24.7469  -17.5354 N   0  0  0  0  0  0  0  0  0  0  0  0
   24.0657  -22.2724  -14.1441 C   0  0  0  0  0  0  0  0  0  0  0  0
   23.2384  -23.1704  -13.8421 O   0  0  0  0  0  0  0  0  0  0  0  0
   26.0798  -20.3998   -9.5596 C   0  0  0  0  0  0  0  0  0  0  0  0
   25.3137  -21.0590  -10.6821 C   0  0  1  0  0  0  0  0  0  0  0  0
   25.2432  -22.5468  -10.2600 C   0  0  0  0  0  0  0  0  0  0  0  0
   23.9366  -20.5384  -10.8507 C   0  0  0  0  0  0  0  0  0  0  0  0
   23.2425  -21.1172  -12.0329 C   0  0  2  0  0  0  0  0  0  0  0  0
   24.0940  -21.1845  -13.2011 N   0  0  0  0  0  0  0  0  0  0  0  0
   22.0434  -20.3359  -12.3869 C   0  0  0  0  0  0  0  0  0  0  0  0
   21.8592  -19.7188  -13.4664 O   0  0  0  0  0  0  0  0  0  0  0  0
   21.0026  -20.2561  -11.4572 O   0  0  0  0  0  0  0  0  0  0  0  0
  1  2  1  0
  3  2  1  0
  4  3  1  0
  5  4  1  0
  5  6  1  6
  7  5  1  0
  8  7  2  0
  9  7  1  0
 10 17  1  0
 10  9  1  0
 10 11  1  1
 12 16  1  0
 12 11  1  0
 13 12  2  0
 14 13  1  0
 14 15  1  0
 15 16  2  0
 17 24  1  0
 18 17  2  0
 20 21  1  1
 20 19  1  0
 22 20  1  0
 23 25  1  0
 23 22  1  1
 24 23  1  0
 25 26  2  0
 25 27  1  0
M  END
$$$$
