MHL.pdb
     RDKit          3D

 27 27  0  0  1  0  0  0  0  0999 V2000
   18.6980  -10.8104  -22.0744 C   0  0  0  0  0  0  0  0  0  0  0  0
   19.0238  -12.5698  -22.2205 S   0  0  0  0  0  0  0  0  0  0  0  0
   18.6339  -13.3986  -20.6686 C   0  0  0  0  0  0  0  0  0  0  0  0
   18.6549  -12.3693  -19.5565 C   0  0  0  0  0  0  0  0  0  0  0  0
   18.4015  -13.0471  -18.2181 C   0  0  2  0  0  0  0  0  0  0  0  0
   17.7498  -14.3041  -18.4020 N   0  0  0  0  0  0  0  0  0  0  0  0
   17.7283  -12.1298  -17.2698 C   0  0  0  0  0  0  0  0  0  0  0  0
   16.5208  -11.8731  -17.4967 O   0  0  0  0  0  0  0  0  0  0  0  0
   18.3340  -11.5359  -16.1513 N   0  0  0  0  0  0  0  0  0  0  0  0
   17.7023  -10.5725  -15.2637 C   0  0  1  0  0  0  0  0  0  0  0  0
   17.8092  -11.0448  -13.8161 C   0  0  0  0  0  0  0  0  0  0  0  0
   17.0334  -10.1284  -12.9632 C   0  0  0  0  0  0  0  0  0  0  0  0
   16.2533   -9.0644  -13.4244 C   0  0  0  0  0  0  0  0  0  0  0  0
   15.6754   -8.4285  -12.3771 N   0  0  0  0  0  0  0  0  0  0  0  0
   16.0885   -9.0850  -11.2800 C   0  0  0  0  0  0  0  0  0  0  0  0
   16.8974  -10.0983  -11.6222 N   0  0  0  0  0  0  0  0  0  0  0  0
   18.1994   -9.2121  -15.4835 C   0  0  0  0  0  0  0  0  0  0  0  0
   19.4193   -8.9074  -15.5147 O   0  0  0  0  0  0  0  0  0  0  0  0
   16.0562   -5.8763  -19.3476 C   0  0  0  0  0  0  0  0  0  0  0  0
   17.0101   -6.5422  -18.3841 C   0  0  1  0  0  0  0  0  0  0  0  0
   18.4099   -6.1523  -18.9181 C   0  0  0  0  0  0  0  0  0  0  0  0
   16.8758   -6.0666  -16.9872 C   0  0  0  0  0  0  0  0  0  0  0  0
   17.7962   -6.7654  -16.0495 C   0  0  2  0  0  0  0  0  0  0  0  0
   17.3261   -8.0854  -15.6878 N   0  0  0  0  0  0  0  0  0  0  0  0
   17.9859   -5.9928  -14.8083 C   0  0  0  0  0  0  0  0  0  0  0  0
   17.6185   -6.3447  -13.6588 O   0  0  0  0  0  0  0  0  0  0  0  0
   18.6280   -4.7537  -14.8872 O   0  0  0  0  0  0  0  0  0  0  0  0
  1  2  1  0
  3  2  1  0
  4  3  1  0
  5  4  1  0
  5  6  1  6
  7  5  1  0
  8  7  2  0
  9  7  1  0
 10 17  1  0
 10  9  1  0
 10 11  1  1
 12 16  1  0
 12 11  1  0
 13 12  2  0
 14 13  1  0
 14 15  1  0
 15 16  2  0
 17 24  1  0
 18 17  2  0
 20 21  1  6
 20 19  1  0
 22 20  1  0
 23 25  1  0
 23 22  1  6
 24 23  1  0
 25 26  2  0
 25 27  1  0
M  END
$$$$
