MHL.pdb
     RDKit          3D

 27 27  0  0  1  0  0  0  0  0999 V2000
   20.9379  -16.5267  -19.9330 C   0  0  0  0  0  0  0  0  0  0  0  0
   20.8740  -14.7407  -19.7629 S   0  0  0  0  0  0  0  0  0  0  0  0
   19.6221  -14.2824  -18.5505 C   0  0  0  0  0  0  0  0  0  0  0  0
   19.5384  -12.7703  -18.4954 C   0  0  0  0  0  0  0  0  0  0  0  0
   19.9330  -12.2794  -17.1104 C   0  0  2  0  0  0  0  0  0  0  0  0
   19.2948  -13.0562  -16.0966 N   0  0  0  0  0  0  0  0  0  0  0  0
   19.7438  -10.8157  -16.9846 C   0  0  0  0  0  0  0  0  0  0  0  0
   20.4547  -10.0911  -17.7228 O   0  0  0  0  0  0  0  0  0  0  0  0
   18.8396  -10.1892  -16.1125 N   0  0  0  0  0  0  0  0  0  0  0  0
   18.6234   -8.7547  -16.0116 C   0  0  1  0  0  0  0  0  0  0  0  0
   17.3768   -8.4698  -15.1780 C   0  0  0  0  0  0  0  0  0  0  0  0
   17.0614   -7.0345  -15.2777 C   0  0  0  0  0  0  0  0  0  0  0  0
   17.1163   -6.2770  -16.4509 C   0  0  0  0  0  0  0  0  0  0  0  0
   16.7640   -4.9954  -16.1890 N   0  0  0  0  0  0  0  0  0  0  0  0
   16.4938   -4.9539  -14.8735 C   0  0  0  0  0  0  0  0  0  0  0  0
   16.6690   -6.1650  -14.3251 N   0  0  0  0  0  0  0  0  0  0  0  0
   19.8210   -8.0479  -15.5508 C   0  0  0  0  0  0  0  0  0  0  0  0
   20.5799   -8.4721  -14.6420 O   0  0  0  0  0  0  0  0  0  0  0  0
   24.7197   -6.2946  -15.5638 C   0  0  0  0  0  0  0  0  0  0  0  0
   23.7440   -5.4202  -16.3154 C   0  0  1  0  0  0  0  0  0  0  0  0
   24.5300   -4.9856  -17.5765 C   0  0  0  0  0  0  0  0  0  0  0  0
   22.5103   -6.1260  -16.7340 C   0  0  0  0  0  0  0  0  0  0  0  0
   21.4487   -6.0985  -15.6915 C   0  0  2  0  0  0  0  0  0  0  0  0
   20.2449   -6.7877  -16.1040 N   0  0  0  0  0  0  0  0  0  0  0  0
   21.0829   -4.7156  -15.3344 C   0  0  0  0  0  0  0  0  0  0  0  0
   20.2274   -4.0057  -15.9211 O   0  0  0  0  0  0  0  0  0  0  0  0
   21.7303   -4.1145  -14.2512 O   0  0  0  0  0  0  0  0  0  0  0  0
  1  2  1  0
  3  2  1  0
  4  3  1  0
  5  4  1  0
  5  6  1  1
  7  5  1  0
  8  7  2  0
  9  7  1  0
 10 17  1  0
 10  9  1  0
 10 11  1  1
 12 16  1  0
 12 11  1  0
 13 12  2  0
 14 13  1  0
 14 15  1  0
 15 16  2  0
 17 24  1  0
 18 17  2  0
 20 21  1  6
 20 19  1  0
 22 20  1  0
 23 25  1  0
 23 22  1  6
 24 23  1  0
 25 26  2  0
 25 27  1  0
M  END
$$$$
