MHL.pdb
     RDKit          3D

 27 27  0  0  1  0  0  0  0  0999 V2000
   20.7703   -7.4863  -23.2538 C   0  0  0  0  0  0  0  0  0  0  0  0
   19.6238   -8.8649  -23.3419 S   0  0  0  0  0  0  0  0  0  0  0  0
   19.6427   -9.7811  -21.7902 C   0  0  0  0  0  0  0  0  0  0  0  0
   19.5275   -8.7920  -20.6478 C   0  0  0  0  0  0  0  0  0  0  0  0
   19.6541   -9.5198  -19.3176 C   0  0  2  0  0  0  0  0  0  0  0  0
   18.6085  -10.4797  -19.1635 N   0  0  0  0  0  0  0  0  0  0  0  0
   19.7933   -8.5651  -18.1936 C   0  0  0  0  0  0  0  0  0  0  0  0
   18.7586   -8.3314  -17.5227 O   0  0  0  0  0  0  0  0  0  0  0  0
   20.9817   -7.9127  -17.8292 N   0  0  0  0  0  0  0  0  0  0  0  0
   21.1081   -6.9206  -16.7735 C   0  0  1  0  0  0  0  0  0  0  0  0
   22.4445   -7.0871  -16.0549 C   0  0  0  0  0  0  0  0  0  0  0  0
   22.3829   -8.2996  -15.2209 C   0  0  0  0  0  0  0  0  0  0  0  0
   21.2476   -9.0934  -15.0356 C   0  0  0  0  0  0  0  0  0  0  0  0
   21.5385  -10.1289  -14.2120 N   0  0  0  0  0  0  0  0  0  0  0  0
   22.8345   -9.9834  -13.8885 C   0  0  0  0  0  0  0  0  0  0  0  0
   23.3430   -8.8961  -14.4861 N   0  0  0  0  0  0  0  0  0  0  0  0
   20.8611   -5.5616  -17.2619 C   0  0  0  0  0  0  0  0  0  0  0  0
   21.3299   -5.1063  -18.3365 O   0  0  0  0  0  0  0  0  0  0  0  0
   18.3665   -2.1190  -20.4387 C   0  0  0  0  0  0  0  0  0  0  0  0
   18.6684   -2.0750  -18.9594 C   0  0  1  0  0  0  0  0  0  0  0  0
   17.3686   -1.5154  -18.3316 C   0  0  0  0  0  0  0  0  0  0  0  0
   18.9573   -3.4033  -18.3697 C   0  0  0  0  0  0  0  0  0  0  0  0
   19.6867   -3.3131  -17.0758 C   0  0  2  0  0  0  0  0  0  0  0  0
   20.0478   -4.6115  -16.5482 N   0  0  0  0  0  0  0  0  0  0  0  0
   18.8851   -2.6130  -16.0555 C   0  0  0  0  0  0  0  0  0  0  0  0
   18.1033   -3.1553  -15.2340 O   0  0  0  0  0  0  0  0  0  0  0  0
   18.9829   -1.2211  -15.9721 O   0  0  0  0  0  0  0  0  0  0  0  0
  1  2  1  0
  3  2  1  0
  4  3  1  0
  5  4  1  0
  5  6  1  1
  7  5  1  0
  8  7  2  0
  9  7  1  0
 10 17  1  0
 10  9  1  0
 10 11  1  6
 12 16  1  0
 12 11  1  0
 13 12  2  0
 14 13  1  0
 14 15  1  0
 15 16  2  0
 17 24  1  0
 18 17  2  0
 20 21  1  1
 20 19  1  0
 22 20  1  0
 23 25  1  0
 23 22  1  6
 24 23  1  0
 25 26  2  0
 25 27  1  0
M  END
$$$$
