MHL.pdb
     RDKit          3D

 27 27  0  0  1  0  0  0  0  0999 V2000
   27.6043  -18.3073   -6.9159 C   0  0  0  0  0  0  0  0  0  0  0  0
   26.9160  -19.9459   -7.1693 S   0  0  0  0  0  0  0  0  0  0  0  0
   27.6095  -20.6805   -8.6615 C   0  0  0  0  0  0  0  0  0  0  0  0
   26.8835  -20.1058   -9.8612 C   0  0  0  0  0  0  0  0  0  0  0  0
   25.7704  -21.0485  -10.2940 C   0  0  2  0  0  0  0  0  0  0  0  0
   26.2483  -22.3912  -10.3797 N   0  0  0  0  0  0  0  0  0  0  0  0
   25.0880  -20.5517  -11.5112 C   0  0  0  0  0  0  0  0  0  0  0  0
   24.7648  -19.3389  -11.5196 O   0  0  0  0  0  0  0  0  0  0  0  0
   24.7816  -21.3278  -12.6401 N   0  0  0  0  0  0  0  0  0  0  0  0
   24.1130  -20.8448  -13.8378 C   0  0  1  0  0  0  0  0  0  0  0  0
   24.4761  -21.7241  -15.0316 C   0  0  0  0  0  0  0  0  0  0  0  0
   25.8498  -21.4015  -15.4536 C   0  0  0  0  0  0  0  0  0  0  0  0
   26.6246  -20.3556  -14.9445 C   0  0  0  0  0  0  0  0  0  0  0  0
   27.8365  -20.3426  -15.5499 N   0  0  0  0  0  0  0  0  0  0  0  0
   27.8180  -21.3640  -16.4228 C   0  0  0  0  0  0  0  0  0  0  0  0
   26.6379  -21.9984  -16.3702 N   0  0  0  0  0  0  0  0  0  0  0  0
   22.6711  -20.6818  -13.6364 C   0  0  0  0  0  0  0  0  0  0  0  0
   21.9832  -21.4059  -12.8719 O   0  0  0  0  0  0  0  0  0  0  0  0
   19.9625  -15.7112  -13.8761 C   0  0  0  0  0  0  0  0  0  0  0  0
   20.4509  -17.1003  -13.5394 C   0  0  1  0  0  0  0  0  0  0  0  0
   19.8261  -17.3876  -12.1524 C   0  0  0  0  0  0  0  0  0  0  0  0
   20.0020  -18.1388  -14.4964 C   0  0  0  0  0  0  0  0  0  0  0  0
   20.4723  -19.5022  -14.1297 C   0  0  2  0  0  0  0  0  0  0  0  0
   21.9000  -19.6641  -14.3023 N   0  0  0  0  0  0  0  0  0  0  0  0
   19.7956  -20.5372  -14.9325 C   0  0  0  0  0  0  0  0  0  0  0  0
   20.2803  -21.1289  -15.9300 O   0  0  0  0  0  0  0  0  0  0  0  0
   18.4975  -20.9133  -14.5757 O   0  0  0  0  0  0  0  0  0  0  0  0
  1  2  1  0
  3  2  1  0
  4  3  1  0
  5  4  1  0
  5  6  1  6
  7  5  1  0
  8  7  2  0
  9  7  1  0
 10 17  1  0
 10  9  1  0
 10 11  1  6
 12 16  1  0
 12 11  1  0
 13 12  2  0
 14 13  1  0
 14 15  1  0
 15 16  2  0
 17 24  1  0
 18 17  2  0
 20 21  1  1
 20 19  1  0
 22 20  1  0
 23 25  1  0
 23 22  1  6
 24 23  1  0
 25 26  2  0
 25 27  1  0
M  END
$$$$
