MHL.pdb
     RDKit          3D

 27 27  0  0  1  0  0  0  0  0999 V2000
   25.8397  -16.5158  -14.4144 C   0  0  0  0  0  0  0  0  0  0  0  0
   27.0743  -16.7592  -15.6948 S   0  0  0  0  0  0  0  0  0  0  0  0
   26.3603  -16.4106  -17.3122 C   0  0  0  0  0  0  0  0  0  0  0  0
   25.6532  -15.0718  -17.2460 C   0  0  0  0  0  0  0  0  0  0  0  0
   24.8531  -14.8447  -18.5200 C   0  0  2  0  0  0  0  0  0  0  0  0
   25.6967  -14.9246  -19.6691 N   0  0  0  0  0  0  0  0  0  0  0  0
   24.0383  -13.6110  -18.4305 C   0  0  0  0  0  0  0  0  0  0  0  0
   24.6088  -12.5364  -18.7393 O   0  0  0  0  0  0  0  0  0  0  0  0
   22.6934  -13.5573  -18.0317 N   0  0  0  0  0  0  0  0  0  0  0  0
   21.9285  -12.3404  -17.8107 C   0  0  1  0  0  0  0  0  0  0  0  0
   20.4462  -12.6728  -17.6614 C   0  0  0  0  0  0  0  0  0  0  0  0
   19.6819  -11.4141  -17.6306 C   0  0  0  0  0  0  0  0  0  0  0  0
   20.2388  -10.1325  -17.6553 C   0  0  0  0  0  0  0  0  0  0  0  0
   19.2553   -9.2017  -17.6163 N   0  0  0  0  0  0  0  0  0  0  0  0
   18.1033   -9.8915  -17.5679 C   0  0  0  0  0  0  0  0  0  0  0  0
   18.3506  -11.2094  -17.5761 N   0  0  0  0  0  0  0  0  0  0  0  0
   22.4720  -11.5399  -16.7107 C   0  0  0  0  0  0  0  0  0  0  0  0
   22.6596  -11.9811  -15.5480 O   0  0  0  0  0  0  0  0  0  0  0  0
   27.1307   -9.8739  -16.7122 C   0  0  0  0  0  0  0  0  0  0  0  0
   25.7452  -10.1947  -16.2033 C   0  0  1  0  0  0  0  0  0  0  0  0
   25.9938  -10.7740  -14.7893 C   0  0  0  0  0  0  0  0  0  0  0  0
   24.8615   -9.0105  -16.0921 C   0  0  0  0  0  0  0  0  0  0  0  0
   23.4468   -9.3721  -15.8051 C   0  0  2  0  0  0  0  0  0  0  0  0
   22.8472  -10.1579  -16.8622 N   0  0  0  0  0  0  0  0  0  0  0  0
   22.6163   -8.1709  -15.6026 C   0  0  0  0  0  0  0  0  0  0  0  0
   22.6677   -7.3990  -14.6118 O   0  0  0  0  0  0  0  0  0  0  0  0
   21.6785   -7.8369  -16.5839 O   0  0  0  0  0  0  0  0  0  0  0  0
  1  2  1  0
  3  2  1  0
  4  3  1  0
  5  4  1  0
  5  6  1  6
  7  5  1  0
  8  7  2  0
  9  7  1  0
 10 17  1  0
 10  9  1  0
 10 11  1  1
 12 16  1  0
 12 11  1  0
 13 12  2  0
 14 13  1  0
 14 15  1  0
 15 16  2  0
 17 24  1  0
 18 17  2  0
 20 21  1  1
 20 19  1  0
 22 20  1  0
 23 25  1  0
 23 22  1  6
 24 23  1  0
 25 26  2  0
 25 27  1  0
M  END
$$$$
