MHL.pdb
     RDKit          3D

 27 27  0  0  1  0  0  0  0  0999 V2000
   28.6402  -14.0366  -18.5887 C   0  0  0  0  0  0  0  0  0  0  0  0
   29.5558  -15.2671  -19.5216 S   0  0  0  0  0  0  0  0  0  0  0  0
   29.2425  -16.9088  -18.8477 C   0  0  0  0  0  0  0  0  0  0  0  0
   28.3854  -16.7623  -17.6065 C   0  0  0  0  0  0  0  0  0  0  0  0
   28.1773  -18.1224  -16.9569 C   0  0  2  0  0  0  0  0  0  0  0  0
   28.7374  -19.1597  -17.7625 N   0  0  0  0  0  0  0  0  0  0  0  0
   26.7601  -18.3257  -16.5772 C   0  0  0  0  0  0  0  0  0  0  0  0
   26.2880  -17.5368  -15.7226 O   0  0  0  0  0  0  0  0  0  0  0  0
   25.9186  -19.3219  -17.0969 N   0  0  0  0  0  0  0  0  0  0  0  0
   24.5690  -19.6084  -16.6372 C   0  0  1  0  0  0  0  0  0  0  0  0
   23.7414  -20.1981  -17.7762 C   0  0  0  0  0  0  0  0  0  0  0  0
   22.3538  -20.3667  -17.3119 C   0  0  0  0  0  0  0  0  0  0  0  0
   21.8847  -20.0362  -16.0375 C   0  0  0  0  0  0  0  0  0  0  0  0
   20.5626  -20.3171  -15.9458 N   0  0  0  0  0  0  0  0  0  0  0  0
   20.2125  -20.8150  -17.1436 C   0  0  0  0  0  0  0  0  0  0  0  0
   21.2746  -20.8471  -17.9615 N   0  0  0  0  0  0  0  0  0  0  0  0
   24.5629  -20.4186  -15.4166 C   0  0  0  0  0  0  0  0  0  0  0  0
   25.4264  -21.2936  -15.1510 O   0  0  0  0  0  0  0  0  0  0  0  0
   25.7655  -22.1944  -10.9104 C   0  0  0  0  0  0  0  0  0  0  0  0
   24.9561  -20.9201  -10.9616 C   0  0  1  0  0  0  0  0  0  0  0  0
   25.7463  -19.9417  -10.0588 C   0  0  0  0  0  0  0  0  0  0  0  0
   24.8426  -20.3397  -12.3202 C   0  0  0  0  0  0  0  0  0  0  0  0
   23.6738  -20.8663  -13.0760 C   0  0  2  0  0  0  0  0  0  0  0  0
   23.5559  -20.2847  -14.3959 N   0  0  0  0  0  0  0  0  0  0  0  0
   22.4122  -20.6188  -12.3542 C   0  0  0  0  0  0  0  0  0  0  0  0
   21.6713  -19.6126  -12.4908 O   0  0  0  0  0  0  0  0  0  0  0  0
   21.9774  -21.5713  -11.4282 O   0  0  0  0  0  0  0  0  0  0  0  0
  1  2  1  0
  3  2  1  0
  4  3  1  0
  5  4  1  0
  5  6  1  6
  7  5  1  0
  8  7  2  0
  9  7  1  0
 10 17  1  0
 10  9  1  0
 10 11  1  6
 12 16  1  0
 12 11  1  0
 13 12  2  0
 14 13  1  0
 14 15  1  0
 15 16  2  0
 17 24  1  0
 18 17  2  0
 20 21  1  1
 20 19  1  0
 22 20  1  0
 23 25  1  0
 23 22  1  1
 24 23  1  0
 25 26  2  0
 25 27  1  0
M  END
$$$$
