MHL.pdb
     RDKit          3D

 27 27  0  0  1  0  0  0  0  0999 V2000
   29.5651  -20.1409   -9.9781 C   0  0  0  0  0  0  0  0  0  0  0  0
   29.3352  -21.6898  -10.8562 S   0  0  0  0  0  0  0  0  0  0  0  0
   29.1073  -21.3719  -12.6152 C   0  0  0  0  0  0  0  0  0  0  0  0
   27.8027  -20.6235  -12.8024 C   0  0  0  0  0  0  0  0  0  0  0  0
   27.5561  -20.3742  -14.2829 C   0  0  2  0  0  0  0  0  0  0  0  0
   28.5958  -19.5709  -14.8416 N   0  0  0  0  0  0  0  0  0  0  0  0
   26.1838  -19.8706  -14.5220 C   0  0  0  0  0  0  0  0  0  0  0  0
   25.9426  -18.6965  -14.1494 O   0  0  0  0  0  0  0  0  0  0  0  0
   25.1485  -20.6005  -15.1270 N   0  0  0  0  0  0  0  0  0  0  0  0
   23.7880  -20.1265  -15.3249 C   0  0  1  0  0  0  0  0  0  0  0  0
   23.4022  -20.2402  -16.7974 C   0  0  0  0  0  0  0  0  0  0  0  0
   24.0673  -19.1584  -17.5435 C   0  0  0  0  0  0  0  0  0  0  0  0
   24.8046  -18.1189  -16.9698 C   0  0  0  0  0  0  0  0  0  0  0  0
   25.2786  -17.3002  -17.9394 N   0  0  0  0  0  0  0  0  0  0  0  0
   24.8440  -17.8204  -19.0995 C   0  0  0  0  0  0  0  0  0  0  0  0
   24.1221  -18.9270  -18.8705 N   0  0  0  0  0  0  0  0  0  0  0  0
   22.8415  -20.7707  -14.4109 C   0  0  0  0  0  0  0  0  0  0  0  0
   22.7701  -22.0143  -14.2369 O   0  0  0  0  0  0  0  0  0  0  0  0
   23.0440  -20.3736  -10.5750 C   0  0  0  0  0  0  0  0  0  0  0  0
   21.5541  -20.5138  -10.3701 C   0  0  1  0  0  0  0  0  0  0  0  0
   21.2827  -19.7249   -9.0660 C   0  0  0  0  0  0  0  0  0  0  0  0
   20.7439  -19.9310  -11.4653 C   0  0  0  0  0  0  0  0  0  0  0  0
   20.9142  -20.6531  -12.7553 C   0  0  2  0  0  0  0  0  0  0  0  0
   21.8956  -20.0298  -13.6172 N   0  0  0  0  0  0  0  0  0  0  0  0
   19.6424  -20.7348  -13.4966 C   0  0  0  0  0  0  0  0  0  0  0  0
   19.3501  -20.0827  -14.5308 O   0  0  0  0  0  0  0  0  0  0  0  0
   18.6547  -21.6066  -13.0296 O   0  0  0  0  0  0  0  0  0  0  0  0
  1  2  1  0
  3  2  1  0
  4  3  1  0
  5  4  1  0
  5  6  1  1
  7  5  1  0
  8  7  2  0
  9  7  1  0
 10 17  1  0
 10  9  1  0
 10 11  1  6
 12 16  1  0
 12 11  1  0
 13 12  2  0
 14 13  1  0
 14 15  1  0
 15 16  2  0
 17 24  1  0
 18 17  2  0
 20 21  1  1
 20 19  1  0
 22 20  1  0
 23 25  1  0
 23 22  1  1
 24 23  1  0
 25 26  2  0
 25 27  1  0
M  END
$$$$
