MHL.pdb
     RDKit          3D

 27 27  0  0  1  0  0  0  0  0999 V2000
   17.9392  -17.7095  -14.0985 C   0  0  0  0  0  0  0  0  0  0  0  0
   18.6171  -16.1018  -14.5214 S   0  0  0  0  0  0  0  0  0  0  0  0
   19.0218  -16.0470  -16.2765 C   0  0  0  0  0  0  0  0  0  0  0  0
   19.5711  -14.6720  -16.5995 C   0  0  0  0  0  0  0  0  0  0  0  0
   18.6551  -13.9674  -17.5891 C   0  0  2  0  0  0  0  0  0  0  0  0
   18.5781  -14.6951  -18.8151 N   0  0  0  0  0  0  0  0  0  0  0  0
   19.0185  -12.5388  -17.7350 C   0  0  0  0  0  0  0  0  0  0  0  0
   19.9060  -12.2676  -18.5802 O   0  0  0  0  0  0  0  0  0  0  0  0
   18.4501  -11.4815  -17.0074 N   0  0  0  0  0  0  0  0  0  0  0  0
   18.7871  -10.0754  -17.1627 C   0  0  1  0  0  0  0  0  0  0  0  0
   17.5267   -9.2623  -17.4462 C   0  0  0  0  0  0  0  0  0  0  0  0
   17.0403   -9.6022  -18.7943 C   0  0  0  0  0  0  0  0  0  0  0  0
   15.8512  -10.2812  -19.0745 C   0  0  0  0  0  0  0  0  0  0  0  0
   15.7083  -10.4270  -20.4137 N   0  0  0  0  0  0  0  0  0  0  0  0
   16.7908   -9.8484  -20.9603 C   0  0  0  0  0  0  0  0  0  0  0  0
   17.5878   -9.3554  -20.0012 N   0  0  0  0  0  0  0  0  0  0  0  0
   19.5794   -9.5711  -16.0383 C   0  0  0  0  0  0  0  0  0  0  0  0
   19.1521   -9.4936  -14.8579 O   0  0  0  0  0  0  0  0  0  0  0  0
   25.0382  -10.4354  -15.6997 C   0  0  0  0  0  0  0  0  0  0  0  0
   23.5890  -10.2171  -15.3343 C   0  0  1  0  0  0  0  0  0  0  0  0
   23.4721  -10.8097  -13.9088 C   0  0  0  0  0  0  0  0  0  0  0  0
   23.1911   -8.7902  -15.2988 C   0  0  0  0  0  0  0  0  0  0  0  0
   21.7302   -8.6044  -15.0848 C   0  0  2  0  0  0  0  0  0  0  0  0
   20.9371   -9.1137  -16.1830 N   0  0  0  0  0  0  0  0  0  0  0  0
   21.3916   -7.1815  -14.8991 C   0  0  0  0  0  0  0  0  0  0  0  0
   21.0381   -6.3848  -15.8049 O   0  0  0  0  0  0  0  0  0  0  0  0
   21.4623   -6.6432  -13.6111 O   0  0  0  0  0  0  0  0  0  0  0  0
  1  2  1  0
  3  2  1  0
  4  3  1  0
  5  4  1  0
  5  6  1  6
  7  5  1  0
  8  7  2  0
  9  7  1  0
 10 17  1  0
 10  9  1  0
 10 11  1  1
 12 16  1  0
 12 11  1  0
 13 12  2  0
 14 13  1  0
 14 15  1  0
 15 16  2  0
 17 24  1  0
 18 17  2  0
 20 21  1  1
 20 19  1  0
 22 20  1  0
 23 25  1  0
 23 22  1  6
 24 23  1  0
 25 26  2  0
 25 27  1  0
M  END
$$$$
