MHL.pdb
     RDKit          3D

 27 27  0  0  1  0  0  0  0  0999 V2000
   26.5008  -16.3686  -19.6461 C   0  0  0  0  0  0  0  0  0  0  0  0
   25.3340  -17.7041  -19.9250 S   0  0  0  0  0  0  0  0  0  0  0  0
   24.1020  -17.7294  -18.6102 C   0  0  0  0  0  0  0  0  0  0  0  0
   23.3720  -16.4012  -18.6112 C   0  0  0  0  0  0  0  0  0  0  0  0
   23.4866  -15.7459  -17.2428 C   0  0  2  0  0  0  0  0  0  0  0  0
   23.0744  -16.6459  -16.2139 N   0  0  0  0  0  0  0  0  0  0  0  0
   22.8149  -14.4259  -17.2209 C   0  0  0  0  0  0  0  0  0  0  0  0
   23.1696  -13.5997  -18.0967 O   0  0  0  0  0  0  0  0  0  0  0  0
   21.8242  -14.0378  -16.3052 N   0  0  0  0  0  0  0  0  0  0  0  0
   21.1714  -12.7387  -16.2710 C   0  0  1  0  0  0  0  0  0  0  0  0
   19.6969  -12.9023  -15.9118 C   0  0  0  0  0  0  0  0  0  0  0  0
   18.9679  -13.3552  -17.1088 C   0  0  0  0  0  0  0  0  0  0  0  0
   19.5216  -13.4956  -18.3844 C   0  0  0  0  0  0  0  0  0  0  0  0
   18.5768  -13.9322  -19.2515 N   0  0  0  0  0  0  0  0  0  0  0  0
   17.4516  -14.0619  -18.5286 C   0  0  0  0  0  0  0  0  0  0  0  0
   17.6780  -13.7198  -17.2520 N   0  0  0  0  0  0  0  0  0  0  0  0
   21.8879  -11.7841  -15.4216 C   0  0  0  0  0  0  0  0  0  0  0  0
   22.0905  -11.9537  -14.1919 O   0  0  0  0  0  0  0  0  0  0  0  0
   26.6547  -10.1756  -16.6027 C   0  0  0  0  0  0  0  0  0  0  0  0
   25.3224  -10.4833  -15.9608 C   0  0  1  0  0  0  0  0  0  0  0  0
   25.7030  -11.1648  -14.6238 C   0  0  0  0  0  0  0  0  0  0  0  0
   24.5059   -9.2802  -15.6751 C   0  0  0  0  0  0  0  0  0  0  0  0
   23.1718   -9.6113  -15.1050 C   0  0  2  0  0  0  0  0  0  0  0  0
   22.4337  -10.5495  -15.9232 N   0  0  0  0  0  0  0  0  0  0  0  0
   22.3445   -8.4024  -14.9381 C   0  0  0  0  0  0  0  0  0  0  0  0
   21.3562   -8.0834  -15.6463 O   0  0  0  0  0  0  0  0  0  0  0  0
   22.6657   -7.5130  -13.9088 O   0  0  0  0  0  0  0  0  0  0  0  0
  1  2  1  0
  3  2  1  0
  4  3  1  0
  5  4  1  0
  5  6  1  1
  7  5  1  0
  8  7  2  0
  9  7  1  0
 10 17  1  0
 10  9  1  0
 10 11  1  1
 12 16  1  0
 12 11  1  0
 13 12  2  0
 14 13  1  0
 14 15  1  0
 15 16  2  0
 17 24  1  0
 18 17  2  0
 20 21  1  1
 20 19  1  0
 22 20  1  0
 23 25  1  0
 23 22  1  6
 24 23  1  0
 25 26  2  0
 25 27  1  0
M  END
$$$$
