MHL.pdb
     RDKit          3D

 27 27  0  0  1  0  0  0  0  0999 V2000
   14.8806   -5.2215   -7.4501 C   0  0  0  0  0  0  0  0  0  0  0  0
   13.4326   -6.2704   -7.2882 S   0  0  0  0  0  0  0  0  0  0  0  0
   13.2842   -7.3412   -8.7299 C   0  0  0  0  0  0  0  0  0  0  0  0
   14.6624   -7.5302   -9.3311 C   0  0  0  0  0  0  0  0  0  0  0  0
   14.5755   -8.4325  -10.5530 C   0  0  2  0  0  0  0  0  0  0  0  0
   14.1681   -9.7498  -10.1824 N   0  0  0  0  0  0  0  0  0  0  0  0
   15.8172   -8.3685  -11.3581 C   0  0  0  0  0  0  0  0  0  0  0  0
   16.7016   -9.2201  -11.0970 O   0  0  0  0  0  0  0  0  0  0  0  0
   16.0727   -7.4381  -12.3778 N   0  0  0  0  0  0  0  0  0  0  0  0
   17.2440   -7.4337  -13.2397 C   0  0  1  0  0  0  0  0  0  0  0  0
   16.9510   -6.6529  -14.5183 C   0  0  0  0  0  0  0  0  0  0  0  0
   16.0768   -7.4685  -15.3784 C   0  0  0  0  0  0  0  0  0  0  0  0
   15.9729   -8.8615  -15.3317 C   0  0  0  0  0  0  0  0  0  0  0  0
   15.0791   -9.2883  -16.2560 N   0  0  0  0  0  0  0  0  0  0  0  0
   14.6327   -8.1795  -16.8696 C   0  0  0  0  0  0  0  0  0  0  0  0
   15.2230   -7.0926  -16.3516 N   0  0  0  0  0  0  0  0  0  0  0  0
   18.4469   -6.9870  -12.5328 C   0  0  0  0  0  0  0  0  0  0  0  0
   18.4767   -6.0007  -11.7530 O   0  0  0  0  0  0  0  0  0  0  0  0
   22.5776   -7.5041   -9.2626 C   0  0  0  0  0  0  0  0  0  0  0  0
   22.8467   -8.1023  -10.6233 C   0  0  1  0  0  0  0  0  0  0  0  0
   23.6501   -9.3883  -10.3113 C   0  0  0  0  0  0  0  0  0  0  0  0
   21.6188   -8.4679  -11.3677 C   0  0  0  0  0  0  0  0  0  0  0  0
   20.8922   -7.2826  -11.8984 C   0  0  2  0  0  0  0  0  0  0  0  0
   19.7206   -7.6454  -12.6666 N   0  0  0  0  0  0  0  0  0  0  0  0
   21.7633   -6.4591  -12.7567 C   0  0  0  0  0  0  0  0  0  0  0  0
   22.6638   -5.6781  -12.3576 O   0  0  0  0  0  0  0  0  0  0  0  0
   21.5941   -6.5326  -14.1422 O   0  0  0  0  0  0  0  0  0  0  0  0
  1  2  1  0
  3  2  1  0
  4  3  1  0
  5  4  1  0
  5  6  1  1
  7  5  1  0
  8  7  2  0
  9  7  1  0
 10 17  1  0
 10  9  1  0
 10 11  1  6
 12 16  1  0
 12 11  1  0
 13 12  2  0
 14 13  1  0
 14 15  1  0
 15 16  2  0
 17 24  1  0
 18 17  2  0
 20 21  1  1
 20 19  1  0
 22 20  1  0
 23 25  1  0
 23 22  1  6
 24 23  1  0
 25 26  2  0
 25 27  1  0
M  END
$$$$
