MHL.pdb
     RDKit          3D

 27 27  0  0  1  0  0  0  0  0999 V2000
   25.7224  -20.7382   -7.9982 C   0  0  0  0  0  0  0  0  0  0  0  0
   27.4444  -20.9301   -8.4681 S   0  0  0  0  0  0  0  0  0  0  0  0
   27.5667  -21.2627  -10.2349 C   0  0  0  0  0  0  0  0  0  0  0  0
   26.3730  -20.6340  -10.9252 C   0  0  0  0  0  0  0  0  0  0  0  0
   26.3518  -21.0359  -12.3925 C   0  0  2  0  0  0  0  0  0  0  0  0
   27.6605  -20.9588  -12.9580 N   0  0  0  0  0  0  0  0  0  0  0  0
   25.3071  -20.2960  -13.1376 C   0  0  0  0  0  0  0  0  0  0  0  0
   25.2628  -19.0541  -12.9606 O   0  0  0  0  0  0  0  0  0  0  0  0
   24.3768  -20.8746  -14.0153 N   0  0  0  0  0  0  0  0  0  0  0  0
   23.3388  -20.1552  -14.7363 C   0  0  1  0  0  0  0  0  0  0  0  0
   23.5025  -20.3655  -16.2393 C   0  0  0  0  0  0  0  0  0  0  0  0
   24.6869  -19.6168  -16.6934 C   0  0  0  0  0  0  0  0  0  0  0  0
   25.9187  -20.1847  -17.0304 C   0  0  0  0  0  0  0  0  0  0  0  0
   26.7860  -19.2144  -17.4067 N   0  0  0  0  0  0  0  0  0  0  0  0
   26.1063  -18.0598  -17.3061 C   0  0  0  0  0  0  0  0  0  0  0  0
   24.8558  -18.2927  -16.8818 N   0  0  0  0  0  0  0  0  0  0  0  0
   21.9991  -20.4709  -14.2343 C   0  0  0  0  0  0  0  0  0  0  0  0
   21.6822  -21.5782  -13.7292 O   0  0  0  0  0  0  0  0  0  0  0  0
   17.6279  -19.3386  -11.2222 C   0  0  0  0  0  0  0  0  0  0  0  0
   17.6006  -18.8044  -12.6348 C   0  0  1  0  0  0  0  0  0  0  0  0
   16.8416  -17.4609  -12.5091 C   0  0  0  0  0  0  0  0  0  0  0  0
   18.9454  -18.5487  -13.2020 C   0  0  0  0  0  0  0  0  0  0  0  0
   19.6106  -19.7878  -13.6887 C   0  0  2  0  0  0  0  0  0  0  0  0
   20.9095  -19.5301  -14.2725 N   0  0  0  0  0  0  0  0  0  0  0  0
   18.7863  -20.4788  -14.6969 C   0  0  0  0  0  0  0  0  0  0  0  0
   18.0621  -21.4854  -14.4912 O   0  0  0  0  0  0  0  0  0  0  0  0
   18.7922  -19.9934  -16.0077 O   0  0  0  0  0  0  0  0  0  0  0  0
  1  2  1  0
  3  2  1  0
  4  3  1  0
  5  4  1  0
  5  6  1  6
  7  5  1  0
  8  7  2  0
  9  7  1  0
 10 17  1  0
 10  9  1  0
 10 11  1  6
 12 16  1  0
 12 11  1  0
 13 12  2  0
 14 13  1  0
 14 15  1  0
 15 16  2  0
 17 24  1  0
 18 17  2  0
 20 21  1  1
 20 19  1  0
 22 20  1  0
 23 25  1  0
 23 22  1  6
 24 23  1  0
 25 26  2  0
 25 27  1  0
M  END
$$$$
