MHL.pdb
     RDKit          3D

 27 27  0  0  1  0  0  0  0  0999 V2000
   28.6006  -20.2673   -5.8375 C   0  0  0  0  0  0  0  0  0  0  0  0
   27.3116  -20.0470   -7.0675 S   0  0  0  0  0  0  0  0  0  0  0  0
   27.6814  -21.0332   -8.5297 C   0  0  0  0  0  0  0  0  0  0  0  0
   26.6089  -20.7724   -9.5681 C   0  0  0  0  0  0  0  0  0  0  0  0
   27.0225  -21.3744  -10.9029 C   0  0  2  0  0  0  0  0  0  0  0  0
   28.4140  -21.1643  -11.1441 N   0  0  0  0  0  0  0  0  0  0  0  0
   26.1271  -20.9274  -11.9948 C   0  0  0  0  0  0  0  0  0  0  0  0
   26.2526  -19.7374  -12.3737 O   0  0  0  0  0  0  0  0  0  0  0  0
   25.1625  -21.7270  -12.6280 N   0  0  0  0  0  0  0  0  0  0  0  0
   24.2628  -21.2857  -13.6819 C   0  0  1  0  0  0  0  0  0  0  0  0
   24.7690  -21.7673  -15.0391 C   0  0  0  0  0  0  0  0  0  0  0  0
   25.9805  -21.0056  -15.3874 C   0  0  0  0  0  0  0  0  0  0  0  0
   27.2777  -21.5249  -15.4183 C   0  0  0  0  0  0  0  0  0  0  0  0
   28.1535  -20.5561  -15.7786 N   0  0  0  0  0  0  0  0  0  0  0  0
   27.4146  -19.4503  -15.9694 C   0  0  0  0  0  0  0  0  0  0  0  0
   26.1199  -19.7113  -15.7380 N   0  0  0  0  0  0  0  0  0  0  0  0
   22.8703  -21.6463  -13.4046 C   0  0  0  0  0  0  0  0  0  0  0  0
   22.5246  -22.5128  -12.5609 O   0  0  0  0  0  0  0  0  0  0  0  0
   19.2631  -17.5433  -12.0557 C   0  0  0  0  0  0  0  0  0  0  0  0
   19.7752  -18.9155  -11.6863 C   0  0  1  0  0  0  0  0  0  0  0  0
   18.5705  -19.8480  -11.9620 C   0  0  0  0  0  0  0  0  0  0  0  0
   20.9286  -19.3615  -12.5027 C   0  0  0  0  0  0  0  0  0  0  0  0
   20.5962  -20.5071  -13.3924 C   0  0  2  0  0  0  0  0  0  0  0  0
   21.7559  -21.0333  -14.0799 N   0  0  0  0  0  0  0  0  0  0  0  0
   19.5979  -20.1257  -14.4081 C   0  0  0  0  0  0  0  0  0  0  0  0
   19.8350  -19.5115  -15.4789 O   0  0  0  0  0  0  0  0  0  0  0  0
   18.2599  -20.4638  -14.1861 O   0  0  0  0  0  0  0  0  0  0  0  0
  1  2  1  0
  3  2  1  0
  4  3  1  0
  5  4  1  0
  5  6  1  6
  7  5  1  0
  8  7  2  0
  9  7  1  0
 10 17  1  0
 10  9  1  0
 10 11  1  6
 12 16  1  0
 12 11  1  0
 13 12  2  0
 14 13  1  0
 14 15  1  0
 15 16  2  0
 17 24  1  0
 18 17  2  0
 20 21  1  6
 20 19  1  0
 22 20  1  0
 23 25  1  0
 23 22  1  6
 24 23  1  0
 25 26  2  0
 25 27  1  0
M  END
$$$$
