MHL.pdb
     RDKit          3D

 27 27  0  0  1  0  0  0  0  0999 V2000
   32.3402  -22.2417   -8.5687 C   0  0  0  0  0  0  0  0  0  0  0  0
   33.5710  -22.5344   -9.8424 S   0  0  0  0  0  0  0  0  0  0  0  0
   32.7644  -22.7525  -11.4390 C   0  0  0  0  0  0  0  0  0  0  0  0
   31.6437  -21.7388  -11.5527 C   0  0  0  0  0  0  0  0  0  0  0  0
   30.8344  -22.0003  -12.8143 C   0  0  2  0  0  0  0  0  0  0  0  0
   31.6908  -22.3462  -13.9031 N   0  0  0  0  0  0  0  0  0  0  0  0
   29.8947  -20.8891  -13.0903 C   0  0  0  0  0  0  0  0  0  0  0  0
   29.8996  -19.9331  -12.2770 O   0  0  0  0  0  0  0  0  0  0  0  0
   29.0121  -20.8283  -14.1802 N   0  0  0  0  0  0  0  0  0  0  0  0
   27.6674  -20.2758  -14.1452 C   0  0  1  0  0  0  0  0  0  0  0  0
   27.0220  -20.3792  -15.5246 C   0  0  0  0  0  0  0  0  0  0  0  0
   26.2281  -19.1622  -15.7657 C   0  0  0  0  0  0  0  0  0  0  0  0
   26.1414  -18.0713  -14.8963 C   0  0  0  0  0  0  0  0  0  0  0  0
   25.3293  -17.1243  -15.4245 N   0  0  0  0  0  0  0  0  0  0  0  0
   24.9159  -17.6165  -16.6044 C   0  0  0  0  0  0  0  0  0  0  0  0
   25.4476  -18.8296  -16.8133 N   0  0  0  0  0  0  0  0  0  0  0  0
   26.8617  -20.8544  -13.0670 C   0  0  0  0  0  0  0  0  0  0  0  0
   27.2432  -21.8071  -12.3399 O   0  0  0  0  0  0  0  0  0  0  0  0
   24.9841  -21.6813   -8.4662 C   0  0  0  0  0  0  0  0  0  0  0  0
   25.0089  -20.2745   -9.0154 C   0  0  1  0  0  0  0  0  0  0  0  0
   25.7777  -19.4693   -7.9396 C   0  0  0  0  0  0  0  0  0  0  0  0
   25.7188  -20.1519  -10.3102 C   0  0  0  0  0  0  0  0  0  0  0  0
   24.9023  -20.6228  -11.4618 C   0  0  2  0  0  0  0  0  0  0  0  0
   25.5435  -20.3785  -12.7361 N   0  0  0  0  0  0  0  0  0  0  0  0
   23.5800  -19.9711  -11.4843 C   0  0  0  0  0  0  0  0  0  0  0  0
   22.5918  -20.2867  -10.7745 O   0  0  0  0  0  0  0  0  0  0  0  0
   23.3785  -18.9045  -12.3650 O   0  0  0  0  0  0  0  0  0  0  0  0
  1  2  1  0
  3  2  1  0
  4  3  1  0
  5  4  1  0
  5  6  1  6
  7  5  1  0
  8  7  2  0
  9  7  1  0
 10 17  1  0
 10  9  1  0
 10 11  1  6
 12 16  1  0
 12 11  1  0
 13 12  2  0
 14 13  1  0
 14 15  1  0
 15 16  2  0
 17 24  1  0
 18 17  2  0
 20 21  1  1
 20 19  1  0
 22 20  1  0
 23 25  1  0
 23 22  1  1
 24 23  1  0
 25 26  2  0
 25 27  1  0
M  END
$$$$
