IGQ.pdb
     RDKit          3D

 22 21  0  0  1  0  0  0  0  0999 V2000
    6.8763  -11.2763   27.6349 C   0  0  0  0  0  0  0  0  0  0  0  0
    6.6694  -12.6772   27.1510 C   0  0  0  0  0  0  0  0  0  0  0  0
    7.3896  -12.9613   25.8455 C   0  0  2  0  0  0  0  0  0  0  0  0
    6.9305  -12.0738   24.7334 C   0  0  0  0  0  0  0  0  0  0  0  0
    7.1311  -14.4212   25.5112 C   0  0  2  0  0  0  0  0  0  0  0  0
    7.6834  -15.2104   26.5707 N   0  0  0  0  0  0  0  0  0  0  0  0
    7.6714  -14.7869   24.1776 C   0  0  0  0  0  0  0  0  0  0  0  0
    6.8367  -14.7245   23.2135 O   0  0  0  0  0  0  0  0  0  0  0  0
    9.0080  -15.1792   23.9612 N   0  0  0  0  0  0  0  0  0  0  0  0
    9.4659  -15.4624   22.6274 C   0  0  0  0  0  0  0  0  0  0  0  0
   10.1963  -16.7567   22.6608 C   0  0  0  0  0  0  0  0  0  0  0  0
   10.4953  -17.3802   21.6093 O   0  0  0  0  0  0  0  0  0  0  0  0
   14.3575  -21.7779   25.2496 N   0  0  0  0  0  0  0  0  0  0  0  0
   13.7058  -20.5739   25.5933 C   0  0  0  0  0  0  0  0  0  0  0  0
   14.3807  -19.6298   26.0505 O   0  0  0  0  0  0  0  0  0  0  0  0
   12.2432  -20.4192   25.4192 C   0  0  0  0  0  0  0  0  0  0  0  0
   11.8435  -18.9991   25.1845 C   0  0  0  0  0  0  0  0  0  0  0  0
   11.0158  -18.7771   23.9427 C   0  0  2  0  0  0  0  0  0  0  0  0
   10.6007  -17.3675   23.8871 N   0  0  0  0  0  0  0  0  0  0  0  0
    9.8225  -19.6341   23.9296 C   0  0  0  0  0  0  0  0  0  0  0  0
    8.5195  -19.2108   24.1408 O   0  0  0  0  0  0  0  0  0  0  0  0
    9.9991  -20.8830   23.7046 O   0  0  0  0  0  0  0  0  0  0  0  0
  2  1  1  0
  3  2  1  0
  3  5  1  0
  3  4  1  6
  5  6  1  1
  7  9  1  0
  7  5  1  0
  8  7  2  0
 10 11  1  0
 10  9  1  0
 11 19  1  0
 12 11  2  0
 14 13  1  0
 15 14  2  0
 16 14  1  0
 17 16  1  0
 18 17  1  1
 18 20  1  0
 19 18  1  0
 20 22  2  0
 20 21  1  0
M  END
$$$$
