IGQ.pdb
     RDKit          3D

 22 21  0  0  1  0  0  0  0  0999 V2000
    6.1329  -11.5682   26.9296 C   0  0  0  0  0  0  0  0  0  0  0  0
    5.8420  -12.8095   26.1461 C   0  0  0  0  0  0  0  0  0  0  0  0
    7.0732  -13.3762   25.4627 C   0  0  2  0  0  0  0  0  0  0  0  0
    7.7503  -12.3761   24.5814 C   0  0  0  0  0  0  0  0  0  0  0  0
    6.6122  -14.5795   24.6568 C   0  0  2  0  0  0  0  0  0  0  0  0
    6.0929  -15.5432   25.5799 N   0  0  0  0  0  0  0  0  0  0  0  0
    7.6998  -15.1240   23.8054 C   0  0  0  0  0  0  0  0  0  0  0  0
    8.1195  -14.3417   22.8878 O   0  0  0  0  0  0  0  0  0  0  0  0
    8.2498  -16.4108   23.9752 N   0  0  0  0  0  0  0  0  0  0  0  0
    9.2756  -16.8765   23.0810 C   0  0  0  0  0  0  0  0  0  0  0  0
   10.5677  -16.8506   23.8157 C   0  0  0  0  0  0  0  0  0  0  0  0
   11.6625  -17.0990   23.2468 O   0  0  0  0  0  0  0  0  0  0  0  0
    9.4371  -15.1388   29.9652 N   0  0  0  0  0  0  0  0  0  0  0  0
   10.2216  -14.8892   28.8186 C   0  0  0  0  0  0  0  0  0  0  0  0
   10.1897  -13.7559   28.2986 O   0  0  0  0  0  0  0  0  0  0  0  0
   11.0748  -15.9473   28.2305 C   0  0  0  0  0  0  0  0  0  0  0  0
   11.8304  -15.4712   27.0330 C   0  0  0  0  0  0  0  0  0  0  0  0
   11.9307  -16.4774   25.9132 C   0  0  2  0  0  0  0  0  0  0  0  0
   10.6417  -16.5427   25.2086 N   0  0  0  0  0  0  0  0  0  0  0  0
   12.2748  -17.8136   26.4181 C   0  0  0  0  0  0  0  0  0  0  0  0
   13.5268  -18.2154   26.8568 O   0  0  0  0  0  0  0  0  0  0  0  0
   11.3373  -18.6862   26.4561 O   0  0  0  0  0  0  0  0  0  0  0  0
  2  1  1  0
  3  2  1  0
  3  5  1  0
  3  4  1  6
  5  6  1  1
  7  9  1  0
  7  5  1  0
  8  7  2  0
 10 11  1  0
 10  9  1  0
 11 19  1  0
 12 11  2  0
 14 13  1  0
 15 14  2  0
 16 14  1  0
 17 16  1  0
 18 17  1  1
 18 20  1  0
 19 18  1  0
 20 22  2  0
 20 21  1  0
M  END
$$$$
