IGQ.pdb
     RDKit          3D

 22 21  0  0  1  0  0  0  0  0999 V2000
    8.0140  -11.6015   27.2458 C   0  0  0  0  0  0  0  0  0  0  0  0
    6.9711  -12.4067   26.5361 C   0  0  0  0  0  0  0  0  0  0  0  0
    7.4491  -13.8013   26.1748 C   0  0  2  0  0  0  0  0  0  0  0  0
    8.6381  -13.7822   25.2687 C   0  0  0  0  0  0  0  0  0  0  0  0
    6.2780  -14.5078   25.5119 C   0  0  2  0  0  0  0  0  0  0  0  0
    5.1170  -14.2626   26.3134 N   0  0  0  0  0  0  0  0  0  0  0  0
    6.5463  -15.9543   25.3127 C   0  0  0  0  0  0  0  0  0  0  0  0
    6.4071  -16.6844   26.3508 O   0  0  0  0  0  0  0  0  0  0  0  0
    6.9294  -16.5108   24.0754 N   0  0  0  0  0  0  0  0  0  0  0  0
    7.1482  -17.9279   23.9628 C   0  0  0  0  0  0  0  0  0  0  0  0
    8.4047  -18.2546   24.6870 C   0  0  0  0  0  0  0  0  0  0  0  0
    8.6108  -19.3926   25.1834 O   0  0  0  0  0  0  0  0  0  0  0  0
   13.2018  -16.2940   21.1966 N   0  0  0  0  0  0  0  0  0  0  0  0
   12.8668  -16.1312   22.5582 C   0  0  0  0  0  0  0  0  0  0  0  0
   13.4775  -15.2789   23.2337 O   0  0  0  0  0  0  0  0  0  0  0  0
   11.8083  -16.9528   23.1889 C   0  0  0  0  0  0  0  0  0  0  0  0
   11.8317  -16.8667   24.6802 C   0  0  0  0  0  0  0  0  0  0  0  0
   10.7722  -17.6877   25.3729 C   0  0  2  0  0  0  0  0  0  0  0  0
    9.4501  -17.2969   24.8614 N   0  0  0  0  0  0  0  0  0  0  0  0
   10.8051  -17.4928   26.8288 C   0  0  0  0  0  0  0  0  0  0  0  0
   11.7643  -17.9994   27.6918 O   0  0  0  0  0  0  0  0  0  0  0  0
    9.8651  -16.7946   27.3490 O   0  0  0  0  0  0  0  0  0  0  0  0
  2  1  1  0
  3  2  1  0
  3  5  1  0
  3  4  1  6
  5  6  1  1
  7  9  1  0
  7  5  1  0
  8  7  2  0
 10 11  1  0
 10  9  1  0
 11 19  1  0
 12 11  2  0
 14 13  1  0
 15 14  2  0
 16 14  1  0
 17 16  1  0
 18 17  1  6
 18 20  1  0
 19 18  1  0
 20 22  2  0
 20 21  1  0
M  END
$$$$
