IGQ.pdb
     RDKit          3D

 22 21  0  0  1  0  0  0  0  0999 V2000
    6.6632  -11.3210   26.8782 C   0  0  0  0  0  0  0  0  0  0  0  0
    6.1540  -12.6053   26.3031 C   0  0  0  0  0  0  0  0  0  0  0  0
    7.2642  -13.4926   25.7700 C   0  0  2  0  0  0  0  0  0  0  0  0
    8.1599  -12.7756   24.8115 C   0  0  0  0  0  0  0  0  0  0  0  0
    6.5925  -14.6777   25.0961 C   0  0  2  0  0  0  0  0  0  0  0  0
    5.7950  -15.3402   26.0838 N   0  0  0  0  0  0  0  0  0  0  0  0
    7.5800  -15.5799   24.4520 C   0  0  0  0  0  0  0  0  0  0  0  0
    8.2931  -15.0461   23.5372 O   0  0  0  0  0  0  0  0  0  0  0  0
    7.7412  -16.9351   24.8052 N   0  0  0  0  0  0  0  0  0  0  0  0
    8.6720  -17.7594   24.0822 C   0  0  0  0  0  0  0  0  0  0  0  0
    9.8364  -18.0188   24.9692 C   0  0  0  0  0  0  0  0  0  0  0  0
   10.8701  -18.6065   24.5568 O   0  0  0  0  0  0  0  0  0  0  0  0
    9.0444  -13.8432   28.5564 N   0  0  0  0  0  0  0  0  0  0  0  0
   10.2668  -14.4590   28.2116 C   0  0  0  0  0  0  0  0  0  0  0  0
   11.0905  -13.8247   27.5225 O   0  0  0  0  0  0  0  0  0  0  0  0
   10.5807  -15.8370   28.6543 C   0  0  0  0  0  0  0  0  0  0  0  0
   11.5216  -16.5340   27.7266 C   0  0  0  0  0  0  0  0  0  0  0  0
   11.0191  -17.8551   27.1988 C   0  0  2  0  0  0  0  0  0  0  0  0
    9.8498  -17.6163   26.3397 N   0  0  0  0  0  0  0  0  0  0  0  0
   10.6408  -18.7631   28.2902 C   0  0  0  0  0  0  0  0  0  0  0  0
   11.4986  -19.2754   29.2510 O   0  0  0  0  0  0  0  0  0  0  0  0
    9.4108  -19.1146   28.3617 O   0  0  0  0  0  0  0  0  0  0  0  0
  2  1  1  0
  3  2  1  0
  3  5  1  0
  3  4  1  6
  5  6  1  1
  7  9  1  0
  7  5  1  0
  8  7  2  0
 10 11  1  0
 10  9  1  0
 11 19  1  0
 12 11  2  0
 14 13  1  0
 15 14  2  0
 16 14  1  0
 17 16  1  0
 18 17  1  1
 18 20  1  0
 19 18  1  0
 20 22  2  0
 20 21  1  0
M  END
$$$$
