IGQ.pdb
     RDKit          3D

 22 21  0  0  1  0  0  0  0  0999 V2000
    6.3948  -11.4507   27.3203 C   0  0  0  0  0  0  0  0  0  0  0  0
    6.0475  -12.6493   26.4944 C   0  0  0  0  0  0  0  0  0  0  0  0
    7.1983  -13.1164   25.6219 C   0  0  2  0  0  0  0  0  0  0  0  0
    7.7390  -12.0250   24.7548 C   0  0  0  0  0  0  0  0  0  0  0  0
    6.6698  -14.2638   24.7768 C   0  0  2  0  0  0  0  0  0  0  0  0
    6.2750  -15.3109   25.6703 N   0  0  0  0  0  0  0  0  0  0  0  0
    7.6632  -14.7104   23.7679 C   0  0  0  0  0  0  0  0  0  0  0  0
    7.9418  -13.8571   22.8598 O   0  0  0  0  0  0  0  0  0  0  0  0
    8.2725  -15.9815   23.7864 N   0  0  0  0  0  0  0  0  0  0  0  0
    9.3156  -16.2911   22.8457 C   0  0  0  0  0  0  0  0  0  0  0  0
   10.5672  -16.5249   23.6130 C   0  0  0  0  0  0  0  0  0  0  0  0
   11.6916  -16.5855   23.0509 O   0  0  0  0  0  0  0  0  0  0  0  0
   11.0744  -15.8162   29.8720 N   0  0  0  0  0  0  0  0  0  0  0  0
   10.4923  -15.0222   28.8604 C   0  0  0  0  0  0  0  0  0  0  0  0
    9.7964  -14.0401   29.1875 O   0  0  0  0  0  0  0  0  0  0  0  0
   10.6960  -15.3382   27.4280 C   0  0  0  0  0  0  0  0  0  0  0  0
   11.5890  -16.5186   27.2253 C   0  0  0  0  0  0  0  0  0  0  0  0
   11.8154  -16.8937   25.7816 C   0  0  2  0  0  0  0  0  0  0  0  0
   10.5665  -16.6943   25.0313 N   0  0  0  0  0  0  0  0  0  0  0  0
   12.2420  -18.2933   25.6486 C   0  0  0  0  0  0  0  0  0  0  0  0
   11.4430  -19.3470   25.2325 O   0  0  0  0  0  0  0  0  0  0  0  0
   13.4584  -18.5669   25.9434 O   0  0  0  0  0  0  0  0  0  0  0  0
  2  1  1  0
  3  2  1  0
  3  5  1  0
  3  4  1  6
  5  6  1  1
  7  9  1  0
  7  5  1  0
  8  7  2  0
 10 11  1  0
 10  9  1  0
 11 19  1  0
 12 11  2  0
 14 13  1  0
 15 14  2  0
 16 14  1  0
 17 16  1  0
 18 17  1  1
 18 20  1  0
 19 18  1  0
 20 22  2  0
 20 21  1  0
M  END
$$$$
