IGQ.pdb
     RDKit          3D

 22 21  0  0  1  0  0  0  0  0999 V2000
    7.1363  -12.2742   17.6065 C   0  0  0  0  0  0  0  0  0  0  0  0
    8.3638  -12.9541   18.1265 C   0  0  0  0  0  0  0  0  0  0  0  0
    8.0825  -13.8396   19.3267 C   0  0  2  0  0  0  0  0  0  0  0  0
    7.5424  -13.0721   20.4905 C   0  0  0  0  0  0  0  0  0  0  0  0
    9.3944  -14.5158   19.6894 C   0  0  2  0  0  0  0  0  0  0  0  0
    9.8591  -15.2077   18.5250 N   0  0  0  0  0  0  0  0  0  0  0  0
    9.2500  -15.4051   20.8694 C   0  0  0  0  0  0  0  0  0  0  0  0
    8.9263  -14.8212   21.9578 O   0  0  0  0  0  0  0  0  0  0  0  0
    9.4501  -16.7997   20.8211 N   0  0  0  0  0  0  0  0  0  0  0  0
    9.2263  -17.5980   21.9965 C   0  0  0  0  0  0  0  0  0  0  0  0
   10.1475  -17.1148   23.0585 C   0  0  0  0  0  0  0  0  0  0  0  0
   11.3624  -16.8791   22.8299 O   0  0  0  0  0  0  0  0  0  0  0  0
   10.4654  -13.2204   29.3166 N   0  0  0  0  0  0  0  0  0  0  0  0
    9.8658  -14.1847   28.4780 C   0  0  0  0  0  0  0  0  0  0  0  0
    8.6331  -14.3623   28.5453 O   0  0  0  0  0  0  0  0  0  0  0  0
   10.6755  -14.9811   27.5275 C   0  0  0  0  0  0  0  0  0  0  0  0
    9.8594  -15.5298   26.4029 C   0  0  0  0  0  0  0  0  0  0  0  0
   10.6263  -16.3979   25.4362 C   0  0  2  0  0  0  0  0  0  0  0  0
    9.7077  -16.8901   24.3989 N   0  0  0  0  0  0  0  0  0  0  0  0
   11.2476  -17.5429   26.1157 C   0  0  0  0  0  0  0  0  0  0  0  0
   12.4300  -17.5111   26.8385 O   0  0  0  0  0  0  0  0  0  0  0  0
   10.6463  -18.6713   26.0334 O   0  0  0  0  0  0  0  0  0  0  0  0
  2  1  1  0
  3  2  1  0
  3  5  1  0
  3  4  1  1
  5  6  1  6
  7  9  1  0
  7  5  1  0
  8  7  2  0
 10 11  1  0
 10  9  1  0
 11 19  1  0
 12 11  2  0
 14 13  1  0
 15 14  2  0
 16 14  1  0
 17 16  1  0
 18 17  1  1
 18 20  1  0
 19 18  1  0
 20 22  2  0
 20 21  1  0
M  END
$$$$
