IGQ.pdb
     RDKit          3D

 22 21  0  0  1  0  0  0  0  0999 V2000
    6.6049  -11.0447   26.9021 C   0  0  0  0  0  0  0  0  0  0  0  0
    6.1070  -12.3488   26.3626 C   0  0  0  0  0  0  0  0  0  0  0  0
    7.1744  -13.1189   25.6066 C   0  0  2  0  0  0  0  0  0  0  0  0
    7.7500  -12.3350   24.4710 C   0  0  0  0  0  0  0  0  0  0  0  0
    6.5202  -14.3950   25.1032 C   0  0  2  0  0  0  0  0  0  0  0  0
    5.8141  -14.9803   26.2030 N   0  0  0  0  0  0  0  0  0  0  0  0
    7.5091  -15.3202   24.4947 C   0  0  0  0  0  0  0  0  0  0  0  0
    8.0156  -16.1801   25.2911 O   0  0  0  0  0  0  0  0  0  0  0  0
    7.8820  -15.2755   23.1359 N   0  0  0  0  0  0  0  0  0  0  0  0
    8.7380  -16.2958   22.5928 C   0  0  0  0  0  0  0  0  0  0  0  0
   10.0946  -16.1090   23.1715 C   0  0  0  0  0  0  0  0  0  0  0  0
   11.0473  -15.6383   22.4973 O   0  0  0  0  0  0  0  0  0  0  0  0
    8.9498  -15.2256   28.6605 N   0  0  0  0  0  0  0  0  0  0  0  0
   10.2999  -14.9684   28.3388 C   0  0  0  0  0  0  0  0  0  0  0  0
   11.1208  -14.8015   29.2630 O   0  0  0  0  0  0  0  0  0  0  0  0
   10.7498  -14.8948   26.9298 C   0  0  0  0  0  0  0  0  0  0  0  0
   11.6502  -16.0275   26.5583 C   0  0  0  0  0  0  0  0  0  0  0  0
   11.7490  -16.2906   25.0759 C   0  0  2  0  0  0  0  0  0  0  0  0
   10.3952  -16.4526   24.5250 N   0  0  0  0  0  0  0  0  0  0  0  0
   12.5343  -17.4998   24.7940 C   0  0  0  0  0  0  0  0  0  0  0  0
   13.9110  -17.6158   24.9080 O   0  0  0  0  0  0  0  0  0  0  0  0
   11.8930  -18.5395   24.4075 O   0  0  0  0  0  0  0  0  0  0  0  0
  2  1  1  0
  3  2  1  0
  3  5  1  0
  3  4  1  6
  5  6  1  1
  7  9  1  0
  7  5  1  0
  8  7  2  0
 10 11  1  0
 10  9  1  0
 11 19  1  0
 12 11  2  0
 14 13  1  0
 15 14  2  0
 16 14  1  0
 17 16  1  0
 18 17  1  1
 18 20  1  0
 19 18  1  0
 20 22  2  0
 20 21  1  0
M  END
$$$$
