IGQ.pdb
     RDKit          3D

 22 21  0  0  1  0  0  0  0  0999 V2000
    7.8620  -11.9828   20.7320 C   0  0  0  0  0  0  0  0  0  0  0  0
    7.3323  -13.3731   20.8929 C   0  0  0  0  0  0  0  0  0  0  0  0
    8.2524  -14.4256   20.3017 C   0  0  2  0  0  0  0  0  0  0  0  0
    8.4139  -14.2795   18.8226 C   0  0  0  0  0  0  0  0  0  0  0  0
    7.6504  -15.7777   20.6469 C   0  0  2  0  0  0  0  0  0  0  0  0
    6.4228  -15.9012   19.9200 N   0  0  0  0  0  0  0  0  0  0  0  0
    7.4731  -15.9462   22.1112 C   0  0  0  0  0  0  0  0  0  0  0  0
    6.3486  -15.5572   22.5743 O   0  0  0  0  0  0  0  0  0  0  0  0
    8.4598  -16.4942   22.9559 N   0  0  0  0  0  0  0  0  0  0  0  0
    8.1971  -16.6462   24.3618 C   0  0  0  0  0  0  0  0  0  0  0  0
    9.0284  -15.6528   25.0914 C   0  0  0  0  0  0  0  0  0  0  0  0
   10.0755  -15.1652   24.5917 O   0  0  0  0  0  0  0  0  0  0  0  0
    5.8712  -11.7317   25.9699 N   0  0  0  0  0  0  0  0  0  0  0  0
    6.7761  -12.6680   26.5149 C   0  0  0  0  0  0  0  0  0  0  0  0
    6.3980  -13.8437   26.6896 O   0  0  0  0  0  0  0  0  0  0  0  0
    8.1568  -12.2749   26.8787 C   0  0  0  0  0  0  0  0  0  0  0  0
    8.7919  -13.2359   27.8299 C   0  0  0  0  0  0  0  0  0  0  0  0
    9.5940  -14.3319   27.1727 C   0  0  2  0  0  0  0  0  0  0  0  0
    8.6873  -15.1945   26.4006 N   0  0  0  0  0  0  0  0  0  0  0  0
   10.3088  -15.1462   28.1650 C   0  0  0  0  0  0  0  0  0  0  0  0
   10.0636  -16.4817   28.4442 O   0  0  0  0  0  0  0  0  0  0  0  0
   11.2402  -14.5738   28.8331 O   0  0  0  0  0  0  0  0  0  0  0  0
  2  1  1  0
  3  2  1  0
  3  5  1  0
  3  4  1  6
  5  6  1  6
  7  9  1  0
  7  5  1  0
  8  7  2  0
 10 11  1  0
 10  9  1  0
 11 19  1  0
 12 11  2  0
 14 13  1  0
 15 14  2  0
 16 14  1  0
 17 16  1  0
 18 17  1  1
 18 20  1  0
 19 18  1  0
 20 22  2  0
 20 21  1  0
M  END
$$$$
