IGQ.pdb
     RDKit          3D

 22 21  0  0  1  0  0  0  0  0999 V2000
    6.9999  -12.6773   18.4150 C   0  0  0  0  0  0  0  0  0  0  0  0
    7.7514  -13.8561   18.9488 C   0  0  0  0  0  0  0  0  0  0  0  0
    7.9496  -13.7961   20.4524 C   0  0  2  0  0  0  0  0  0  0  0  0
    8.6098  -12.5291   20.8928 C   0  0  0  0  0  0  0  0  0  0  0  0
    8.7924  -15.0027   20.8318 C   0  0  2  0  0  0  0  0  0  0  0  0
    8.0475  -16.1752   20.4842 N   0  0  0  0  0  0  0  0  0  0  0  0
    9.1872  -14.9732   22.2626 C   0  0  0  0  0  0  0  0  0  0  0  0
   10.0052  -14.0474   22.5852 O   0  0  0  0  0  0  0  0  0  0  0  0
    8.7085  -15.8902   23.2203 N   0  0  0  0  0  0  0  0  0  0  0  0
    9.0738  -15.7399   24.6033 C   0  0  0  0  0  0  0  0  0  0  0  0
   10.3204  -16.5166   24.8330 C   0  0  0  0  0  0  0  0  0  0  0  0
   10.7932  -16.6918   25.9861 O   0  0  0  0  0  0  0  0  0  0  0  0
   12.2747  -21.8866   24.9851 N   0  0  0  0  0  0  0  0  0  0  0  0
   13.2188  -20.8479   24.8358 C   0  0  0  0  0  0  0  0  0  0  0  0
   13.9485  -20.5501   25.8025 O   0  0  0  0  0  0  0  0  0  0  0  0
   13.3523  -20.1138   23.5565 C   0  0  0  0  0  0  0  0  0  0  0  0
   12.2000  -19.1979   23.3011 C   0  0  0  0  0  0  0  0  0  0  0  0
   12.2921  -17.8637   23.9995 C   0  0  2  0  0  0  0  0  0  0  0  0
   11.0533  -17.1087   23.7593 N   0  0  0  0  0  0  0  0  0  0  0  0
   13.4378  -17.0804   23.5173 C   0  0  0  0  0  0  0  0  0  0  0  0
   14.6550  -16.9430   24.1662 O   0  0  0  0  0  0  0  0  0  0  0  0
   13.3021  -16.4688   22.3997 O   0  0  0  0  0  0  0  0  0  0  0  0
  2  1  1  0
  3  2  1  0
  3  5  1  0
  3  4  1  6
  5  6  1  1
  7  9  1  0
  7  5  1  0
  8  7  2  0
 10 11  1  0
 10  9  1  0
 11 19  1  0
 12 11  2  0
 14 13  1  0
 15 14  2  0
 16 14  1  0
 17 16  1  0
 18 17  1  6
 18 20  1  0
 19 18  1  0
 20 22  2  0
 20 21  1  0
M  END
$$$$
