IGQ.pdb
     RDKit          3D

 22 21  0  0  1  0  0  0  0  0999 V2000
    7.9043  -11.9653   20.3329 C   0  0  0  0  0  0  0  0  0  0  0  0
    8.1931  -13.1771   21.1621 C   0  0  0  0  0  0  0  0  0  0  0  0
    8.1722  -14.4618   20.3541 C   0  0  2  0  0  0  0  0  0  0  0  0
    6.7975  -14.8256   19.8923 C   0  0  0  0  0  0  0  0  0  0  0  0
    8.7462  -15.5501   21.2464 C   0  0  2  0  0  0  0  0  0  0  0  0
    7.8682  -15.6953   22.3682 N   0  0  0  0  0  0  0  0  0  0  0  0
   10.1463  -15.2574   21.6439 C   0  0  0  0  0  0  0  0  0  0  0  0
   10.2879  -14.7250   22.7957 O   0  0  0  0  0  0  0  0  0  0  0  0
   11.2610  -15.5370   20.8274 N   0  0  0  0  0  0  0  0  0  0  0  0
   12.5602  -15.0385   21.1912 C   0  0  0  0  0  0  0  0  0  0  0  0
   13.1790  -16.0162   22.1247 C   0  0  0  0  0  0  0  0  0  0  0  0
   14.3785  -15.9183   22.4928 O   0  0  0  0  0  0  0  0  0  0  0  0
   11.2256  -19.9208   26.8751 N   0  0  0  0  0  0  0  0  0  0  0  0
   11.3599  -18.5197   26.9824 C   0  0  0  0  0  0  0  0  0  0  0  0
   11.1433  -17.9737   28.0827 O   0  0  0  0  0  0  0  0  0  0  0  0
   11.7515  -17.6973   25.8147 C   0  0  0  0  0  0  0  0  0  0  0  0
   11.9475  -18.5156   24.5803 C   0  0  0  0  0  0  0  0  0  0  0  0
   13.0380  -18.0180   23.6640 C   0  0  2  0  0  0  0  0  0  0  0  0
   12.4490  -17.1223   22.6575 N   0  0  0  0  0  0  0  0  0  0  0  0
   13.7198  -19.1280   22.9847 C   0  0  0  0  0  0  0  0  0  0  0  0
   14.7081  -19.9292   23.5350 O   0  0  0  0  0  0  0  0  0  0  0  0
   13.3731  -19.3790   21.7770 O   0  0  0  0  0  0  0  0  0  0  0  0
  2  1  1  0
  3  2  1  0
  3  5  1  0
  3  4  1  1
  5  6  1  1
  7  9  1  0
  7  5  1  0
  8  7  2  0
 10 11  1  0
 10  9  1  0
 11 19  1  0
 12 11  2  0
 14 13  1  0
 15 14  2  0
 16 14  1  0
 17 16  1  0
 18 17  1  1
 18 20  1  0
 19 18  1  0
 20 22  2  0
 20 21  1  0
M  END
$$$$
