IGQ.pdb
     RDKit          3D

 22 21  0  0  1  0  0  0  0  0999 V2000
    6.7374  -11.7058   25.6348 C   0  0  0  0  0  0  0  0  0  0  0  0
    6.6774  -13.0430   24.9656 C   0  0  0  0  0  0  0  0  0  0  0  0
    6.6460  -14.1948   25.9537 C   0  0  2  0  0  0  0  0  0  0  0  0
    7.8633  -14.2389   26.8206 C   0  0  0  0  0  0  0  0  0  0  0  0
    6.5202  -15.4699   25.1364 C   0  0  2  0  0  0  0  0  0  0  0  0
    6.0900  -16.5092   26.0226 N   0  0  0  0  0  0  0  0  0  0  0  0
    7.7834  -15.8005   24.4300 C   0  0  0  0  0  0  0  0  0  0  0  0
    8.5355  -16.6460   25.0213 O   0  0  0  0  0  0  0  0  0  0  0  0
    8.1527  -15.2359   23.1921 N   0  0  0  0  0  0  0  0  0  0  0  0
    9.1581  -15.8726   22.3844 C   0  0  0  0  0  0  0  0  0  0  0  0
   10.4762  -15.6448   23.0329 C   0  0  0  0  0  0  0  0  0  0  0  0
   11.4229  -15.0710   22.4342 O   0  0  0  0  0  0  0  0  0  0  0  0
   10.4351  -16.5970   28.7289 N   0  0  0  0  0  0  0  0  0  0  0  0
   10.7034  -15.2492   28.4062 C   0  0  0  0  0  0  0  0  0  0  0  0
   10.2897  -14.3513   29.1667 O   0  0  0  0  0  0  0  0  0  0  0  0
   11.4633  -14.8914   27.1865 C   0  0  0  0  0  0  0  0  0  0  0  0
   11.9780  -16.0922   26.4620 C   0  0  0  0  0  0  0  0  0  0  0  0
   12.0827  -15.9255   24.9661 C   0  0  2  0  0  0  0  0  0  0  0  0
   10.7447  -16.0634   24.3720 N   0  0  0  0  0  0  0  0  0  0  0  0
   12.9810  -16.9259   24.3736 C   0  0  0  0  0  0  0  0  0  0  0  0
   14.3659  -16.9050   24.4308 O   0  0  0  0  0  0  0  0  0  0  0  0
   12.4393  -17.9038   23.7476 O   0  0  0  0  0  0  0  0  0  0  0  0
  2  1  1  0
  3  2  1  0
  3  5  1  0
  3  4  1  6
  5  6  1  1
  7  9  1  0
  7  5  1  0
  8  7  2  0
 10 11  1  0
 10  9  1  0
 11 19  1  0
 12 11  2  0
 14 13  1  0
 15 14  2  0
 16 14  1  0
 17 16  1  0
 18 17  1  1
 18 20  1  0
 19 18  1  0
 20 22  2  0
 20 21  1  0
M  END
$$$$
