IGQ.pdb
     RDKit          3D

 22 21  0  0  1  0  0  0  0  0999 V2000
    7.3461  -11.8686   19.6203 C   0  0  0  0  0  0  0  0  0  0  0  0
    7.4761  -13.3592   19.5941 C   0  0  0  0  0  0  0  0  0  0  0  0
    7.3594  -13.9845   20.9722 C   0  0  2  0  0  0  0  0  0  0  0  0
    8.4139  -13.4971   21.9133 C   0  0  0  0  0  0  0  0  0  0  0  0
    7.4617  -15.4888   20.7809 C   0  0  2  0  0  0  0  0  0  0  0  0
    6.5634  -15.8512   19.7262 N   0  0  0  0  0  0  0  0  0  0  0  0
    7.1974  -16.2256   22.0424 C   0  0  0  0  0  0  0  0  0  0  0  0
    6.0319  -16.0619   22.5373 O   0  0  0  0  0  0  0  0  0  0  0  0
    8.1477  -17.0549   22.6721 N   0  0  0  0  0  0  0  0  0  0  0  0
    7.8930  -17.5634   23.9932 C   0  0  0  0  0  0  0  0  0  0  0  0
    8.9667  -17.0613   24.8903 C   0  0  0  0  0  0  0  0  0  0  0  0
    9.9259  -16.3699   24.4592 O   0  0  0  0  0  0  0  0  0  0  0  0
   10.5666  -13.2650   28.6407 N   0  0  0  0  0  0  0  0  0  0  0  0
    9.4789  -13.3387   27.7440 C   0  0  0  0  0  0  0  0  0  0  0  0
    9.0253  -12.2846   27.2552 O   0  0  0  0  0  0  0  0  0  0  0  0
    8.8749  -14.6409   27.3796 C   0  0  0  0  0  0  0  0  0  0  0  0
    9.5274  -15.7883   28.0793 C   0  0  0  0  0  0  0  0  0  0  0  0
   10.0597  -16.8618   27.1624 C   0  0  2  0  0  0  0  0  0  0  0  0
    8.9722  -17.3339   26.2925 N   0  0  0  0  0  0  0  0  0  0  0  0
   10.6018  -17.9980   27.9200 C   0  0  0  0  0  0  0  0  0  0  0  0
   11.8126  -18.0173   28.5945 O   0  0  0  0  0  0  0  0  0  0  0  0
    9.8957  -19.0663   27.9614 O   0  0  0  0  0  0  0  0  0  0  0  0
  2  1  1  0
  3  2  1  0
  3  5  1  0
  3  4  1  1
  5  6  1  6
  7  9  1  0
  7  5  1  0
  8  7  2  0
 10 11  1  0
 10  9  1  0
 11 19  1  0
 12 11  2  0
 14 13  1  0
 15 14  2  0
 16 14  1  0
 17 16  1  0
 18 17  1  1
 18 20  1  0
 19 18  1  0
 20 22  2  0
 20 21  1  0
M  END
$$$$
