IGQ.pdb
     RDKit          3D

 22 21  0  0  1  0  0  0  0  0999 V2000
    7.4873  -12.3918   18.5343 C   0  0  0  0  0  0  0  0  0  0  0  0
    8.5870  -12.8932   19.4167 C   0  0  0  0  0  0  0  0  0  0  0  0
    8.1279  -13.9838   20.3674 C   0  0  2  0  0  0  0  0  0  0  0  0
    7.0237  -13.5310   21.2678 C   0  0  0  0  0  0  0  0  0  0  0  0
    9.3453  -14.4013   21.1759 C   0  0  2  0  0  0  0  0  0  0  0  0
   10.3361  -14.8677   20.2533 N   0  0  0  0  0  0  0  0  0  0  0  0
    9.0021  -15.4080   22.2116 C   0  0  0  0  0  0  0  0  0  0  0  0
    8.2268  -14.9963   23.1388 O   0  0  0  0  0  0  0  0  0  0  0  0
    9.4837  -16.7329   22.1979 N   0  0  0  0  0  0  0  0  0  0  0  0
    9.0596  -17.6611   23.2114 C   0  0  0  0  0  0  0  0  0  0  0  0
   10.1818  -17.8329   24.1712 C   0  0  0  0  0  0  0  0  0  0  0  0
   10.5389  -18.9675   24.5824 O   0  0  0  0  0  0  0  0  0  0  0  0
   10.1582  -13.3410   29.0578 N   0  0  0  0  0  0  0  0  0  0  0  0
    9.3307  -13.9217   28.0727 C   0  0  0  0  0  0  0  0  0  0  0  0
    8.5992  -13.1822   27.3843 O   0  0  0  0  0  0  0  0  0  0  0  0
    9.3203  -15.3856   27.8484 C   0  0  0  0  0  0  0  0  0  0  0  0
    9.5264  -15.7445   26.4130 C   0  0  0  0  0  0  0  0  0  0  0  0
   10.8707  -16.3568   26.1059 C   0  0  2  0  0  0  0  0  0  0  0  0
   10.9192  -16.7213   24.6822 N   0  0  0  0  0  0  0  0  0  0  0  0
   11.1168  -17.5541   26.9210 C   0  0  0  0  0  0  0  0  0  0  0  0
   12.1373  -17.7075   27.8466 O   0  0  0  0  0  0  0  0  0  0  0  0
   10.3205  -18.5454   26.7635 O   0  0  0  0  0  0  0  0  0  0  0  0
  2  1  1  0
  3  2  1  0
  3  5  1  0
  3  4  1  1
  5  6  1  6
  7  9  1  0
  7  5  1  0
  8  7  2  0
 10 11  1  0
 10  9  1  0
 11 19  1  0
 12 11  2  0
 14 13  1  0
 15 14  2  0
 16 14  1  0
 17 16  1  0
 18 17  1  1
 18 20  1  0
 19 18  1  0
 20 22  2  0
 20 21  1  0
M  END
$$$$
