IGQ.pdb
     RDKit          3D

 22 21  0  0  1  0  0  0  0  0999 V2000
    6.1353  -11.3619   27.1582 C   0  0  0  0  0  0  0  0  0  0  0  0
    5.9691  -12.6712   26.4527 C   0  0  0  0  0  0  0  0  0  0  0  0
    7.1677  -13.0339   25.5949 C   0  0  2  0  0  0  0  0  0  0  0  0
    7.3903  -12.0612   24.4815 C   0  0  0  0  0  0  0  0  0  0  0  0
    6.9094  -14.4284   25.0484 C   0  0  2  0  0  0  0  0  0  0  0  0
    6.5078  -15.2543   26.1470 N   0  0  0  0  0  0  0  0  0  0  0  0
    8.0890  -14.9653   24.3241 C   0  0  0  0  0  0  0  0  0  0  0  0
    9.1603  -15.0533   25.0131 O   0  0  0  0  0  0  0  0  0  0  0  0
    8.0576  -15.3582   22.9706 N   0  0  0  0  0  0  0  0  0  0  0  0
    9.2769  -15.7241   22.3011 C   0  0  0  0  0  0  0  0  0  0  0  0
    9.9601  -16.7537   23.1278 C   0  0  0  0  0  0  0  0  0  0  0  0
    9.8112  -17.9851   22.9150 O   0  0  0  0  0  0  0  0  0  0  0  0
   11.1484  -19.3196   29.4810 N   0  0  0  0  0  0  0  0  0  0  0  0
   10.7317  -18.4892   28.4183 C   0  0  0  0  0  0  0  0  0  0  0  0
   10.3082  -17.3445   28.6753 O   0  0  0  0  0  0  0  0  0  0  0  0
   10.7906  -18.9565   27.0142 C   0  0  0  0  0  0  0  0  0  0  0  0
   10.3328  -17.9146   26.0464 C   0  0  0  0  0  0  0  0  0  0  0  0
   11.3988  -17.4303   25.0948 C   0  0  2  0  0  0  0  0  0  0  0  0
   10.8243  -16.4054   24.2105 N   0  0  0  0  0  0  0  0  0  0  0  0
   11.9332  -18.5292   24.2791 C   0  0  0  0  0  0  0  0  0  0  0  0
   11.2009  -19.5915   23.7725 O   0  0  0  0  0  0  0  0  0  0  0  0
   13.1862  -18.5066   24.0122 O   0  0  0  0  0  0  0  0  0  0  0  0
  2  1  1  0
  3  2  1  0
  3  5  1  0
  3  4  1  6
  5  6  1  1
  7  9  1  0
  7  5  1  0
  8  7  2  0
 10 11  1  0
 10  9  1  0
 11 19  1  0
 12 11  2  0
 14 13  1  0
 15 14  2  0
 16 14  1  0
 17 16  1  0
 18 17  1  1
 18 20  1  0
 19 18  1  0
 20 22  2  0
 20 21  1  0
M  END
$$$$
