IGQ.pdb
     RDKit          3D

 22 21  0  0  1  0  0  0  0  0999 V2000
    6.1429  -11.5825   27.4667 C   0  0  0  0  0  0  0  0  0  0  0  0
    5.9576  -12.6586   26.4434 C   0  0  0  0  0  0  0  0  0  0  0  0
    7.2720  -13.2444   25.9606 C   0  0  2  0  0  0  0  0  0  0  0  0
    8.2084  -12.2003   25.4428 C   0  0  0  0  0  0  0  0  0  0  0  0
    6.9306  -14.2492   24.8726 C   0  0  2  0  0  0  0  0  0  0  0  0
    6.0123  -15.1949   25.4320 N   0  0  0  0  0  0  0  0  0  0  0  0
    8.1464  -14.8891   24.3101 C   0  0  0  0  0  0  0  0  0  0  0  0
    8.9748  -14.0936   23.7522 O   0  0  0  0  0  0  0  0  0  0  0  0
    8.3953  -16.2753   24.3729 N   0  0  0  0  0  0  0  0  0  0  0  0
    9.6395  -16.8040   23.8818 C   0  0  0  0  0  0  0  0  0  0  0  0
   10.3919  -17.3515   25.0412 C   0  0  0  0  0  0  0  0  0  0  0  0
   11.1188  -16.6245   25.7670 O   0  0  0  0  0  0  0  0  0  0  0  0
    7.4077  -18.6723   27.8708 N   0  0  0  0  0  0  0  0  0  0  0  0
    8.4802  -19.5538   28.1266 C   0  0  0  0  0  0  0  0  0  0  0  0
    9.0256  -19.5335   29.2481 O   0  0  0  0  0  0  0  0  0  0  0  0
    8.9615  -20.4941   27.0886 C   0  0  0  0  0  0  0  0  0  0  0  0
   10.4525  -20.5435   27.0105 C   0  0  0  0  0  0  0  0  0  0  0  0
   11.0988  -19.2656   26.5357 C   0  0  2  0  0  0  0  0  0  0  0  0
   10.3335  -18.7334   25.3984 N   0  0  0  0  0  0  0  0  0  0  0  0
   12.4909  -19.4868   26.1216 C   0  0  0  0  0  0  0  0  0  0  0  0
   12.9919  -19.3122   24.8409 O   0  0  0  0  0  0  0  0  0  0  0  0
   13.3162  -19.8763   27.0209 O   0  0  0  0  0  0  0  0  0  0  0  0
  2  1  1  0
  3  2  1  0
  3  5  1  0
  3  4  1  6
  5  6  1  1
  7  9  1  0
  7  5  1  0
  8  7  2  0
 10 11  1  0
 10  9  1  0
 11 19  1  0
 12 11  2  0
 14 13  1  0
 15 14  2  0
 16 14  1  0
 17 16  1  0
 18 17  1  6
 18 20  1  0
 19 18  1  0
 20 22  2  0
 20 21  1  0
M  END
$$$$
