IGQ.pdb
     RDKit          3D

 22 21  0  0  1  0  0  0  0  0999 V2000
    8.5552  -12.2500   27.2173 C   0  0  0  0  0  0  0  0  0  0  0  0
    8.0069  -13.5745   26.7874 C   0  0  0  0  0  0  0  0  0  0  0  0
    7.0803  -13.4673   25.5901 C   0  0  2  0  0  0  0  0  0  0  0  0
    5.8683  -12.6399   25.8762 C   0  0  0  0  0  0  0  0  0  0  0  0
    6.6871  -14.8858   25.2119 C   0  0  2  0  0  0  0  0  0  0  0  0
    6.2416  -15.5420   26.4042 N   0  0  0  0  0  0  0  0  0  0  0  0
    7.7966  -15.6057   24.5375 C   0  0  0  0  0  0  0  0  0  0  0  0
    8.4975  -16.3603   25.2923 O   0  0  0  0  0  0  0  0  0  0  0  0
    8.0798  -15.4839   23.1619 N   0  0  0  0  0  0  0  0  0  0  0  0
    9.1465  -16.2521   22.5781 C   0  0  0  0  0  0  0  0  0  0  0  0
   10.4206  -15.8157   23.2077 C   0  0  0  0  0  0  0  0  0  0  0  0
   11.1463  -14.9247   22.6944 O   0  0  0  0  0  0  0  0  0  0  0  0
    9.8661  -14.3144   28.5839 N   0  0  0  0  0  0  0  0  0  0  0  0
   10.8261  -15.2812   28.2147 C   0  0  0  0  0  0  0  0  0  0  0  0
   10.8203  -16.3890   28.7879 O   0  0  0  0  0  0  0  0  0  0  0  0
   11.8312  -14.9989   27.1644 C   0  0  0  0  0  0  0  0  0  0  0  0
   12.2554  -16.2313   26.4344 C   0  0  0  0  0  0  0  0  0  0  0  0
   12.2492  -16.1037   24.9311 C   0  0  2  0  0  0  0  0  0  0  0  0
   10.8948  -16.3818   24.4305 N   0  0  0  0  0  0  0  0  0  0  0  0
   13.1972  -17.0365   24.3067 C   0  0  0  0  0  0  0  0  0  0  0  0
   12.8608  -18.1219   23.5128 O   0  0  0  0  0  0  0  0  0  0  0  0
   14.4449  -16.8316   24.5136 O   0  0  0  0  0  0  0  0  0  0  0  0
  2  1  1  0
  3  2  1  0
  3  5  1  0
  3  4  1  1
  5  6  1  1
  7  9  1  0
  7  5  1  0
  8  7  2  0
 10 11  1  0
 10  9  1  0
 11 19  1  0
 12 11  2  0
 14 13  1  0
 15 14  2  0
 16 14  1  0
 17 16  1  0
 18 17  1  1
 18 20  1  0
 19 18  1  0
 20 22  2  0
 20 21  1  0
M  END
$$$$
