IGQ.pdb
     RDKit          3D

 22 21  0  0  1  0  0  0  0  0999 V2000
    8.1383  -11.4314   19.9891 C   0  0  0  0  0  0  0  0  0  0  0  0
    7.4368  -12.6320   20.5422 C   0  0  0  0  0  0  0  0  0  0  0  0
    8.1981  -13.9224   20.2991 C   0  0  2  0  0  0  0  0  0  0  0  0
    8.5348  -14.1255   18.8566 C   0  0  0  0  0  0  0  0  0  0  0  0
    7.3202  -15.0523   20.8115 C   0  0  2  0  0  0  0  0  0  0  0  0
    6.8742  -14.6906   22.1233 N   0  0  0  0  0  0  0  0  0  0  0  0
    8.0265  -16.3579   20.7820 C   0  0  0  0  0  0  0  0  0  0  0  0
    8.3021  -16.8043   19.6180 O   0  0  0  0  0  0  0  0  0  0  0  0
    8.3806  -17.0767   21.9419 N   0  0  0  0  0  0  0  0  0  0  0  0
    8.9715  -18.3827   21.8244 C   0  0  0  0  0  0  0  0  0  0  0  0
   10.4164  -18.2610   22.1523 C   0  0  0  0  0  0  0  0  0  0  0  0
   11.1966  -19.2471   22.1000 O   0  0  0  0  0  0  0  0  0  0  0  0
   13.9028  -14.3496   19.2286 N   0  0  0  0  0  0  0  0  0  0  0  0
   13.1037  -15.4894   19.4626 C   0  0  0  0  0  0  0  0  0  0  0  0
   12.1155  -15.6961   18.7301 O   0  0  0  0  0  0  0  0  0  0  0  0
   13.4215  -16.4346   20.5576 C   0  0  0  0  0  0  0  0  0  0  0  0
   13.0548  -15.8952   21.9015 C   0  0  0  0  0  0  0  0  0  0  0  0
   12.4394  -16.9063   22.8371 C   0  0  2  0  0  0  0  0  0  0  0  0
   11.0025  -17.0191   22.5454 N   0  0  0  0  0  0  0  0  0  0  0  0
   12.6192  -16.5196   24.2430 C   0  0  0  0  0  0  0  0  0  0  0  0
   13.8292  -16.4543   24.9162 O   0  0  0  0  0  0  0  0  0  0  0  0
   11.5666  -16.2167   24.9078 O   0  0  0  0  0  0  0  0  0  0  0  0
  2  1  1  0
  3  2  1  0
  3  5  1  0
  3  4  1  6
  5  6  1  1
  7  9  1  0
  7  5  1  0
  8  7  2  0
 10 11  1  0
 10  9  1  0
 11 19  1  0
 12 11  2  0
 14 13  1  0
 15 14  2  0
 16 14  1  0
 17 16  1  0
 18 17  1  6
 18 20  1  0
 19 18  1  0
 20 22  2  0
 20 21  1  0
M  END
$$$$
