ETF.pdb
     RDKit          3D

 28 28  0  0  1  0  0  0  0  0999 V2000
    5.9041  -17.6265   19.6078 N   0  0  0  0  0  0  0  0  0  0  0  0
    5.8559  -17.0669   20.9409 C   0  0  1  0  0  0  0  0  0  0  0  0
    4.6561  -17.7297   21.6270 C   0  0  0  0  0  0  0  0  0  0  0  0
    3.5441  -17.9446   20.6133 C   0  0  0  0  0  0  0  0  0  0  0  0
    2.8092  -19.2002   20.8905 C   0  0  0  0  0  0  0  0  0  0  0  0
    1.6733  -19.2381   21.4200 O   0  0  0  0  0  0  0  0  0  0  0  0
    7.1021  -17.3367   21.6719 C   0  0  0  0  0  0  0  0  0  0  0  0
    7.3576  -18.5320   22.0113 O   0  0  0  0  0  0  0  0  0  0  0  0
    3.4056  -20.4021   20.5480 O   0  0  0  0  0  0  0  0  0  0  0  0
   11.7248  -16.1925   22.5194 C   0  0  0  0  0  0  0  0  0  0  0  0
   10.3811  -15.9237   21.8856 C   0  0  1  0  0  0  0  0  0  0  0  0
   10.4663  -16.4184   20.5745 O   0  0  0  0  0  0  0  0  0  0  0  0
    9.2580  -16.6101   22.6426 C   0  0  2  0  0  0  0  0  0  0  0  0
    7.9768  -16.2636   21.9747 N   0  0  0  0  0  0  0  0  0  0  0  0
    9.1872  -16.0117   23.9948 C   0  0  0  0  0  0  0  0  0  0  0  0
    9.3655  -14.7471   24.1129 O   0  0  0  0  0  0  0  0  0  0  0  0
    8.9376  -16.6936   25.1947 N   0  0  0  0  0  0  0  0  0  0  0  0
    9.1640  -16.0407   26.4937 C   0  0  1  0  0  0  0  0  0  0  0  0
    7.8301  -15.7167   27.1187 C   0  0  0  0  0  0  0  0  0  0  0  0
    7.4353  -14.3384   26.7802 C   0  0  0  0  0  0  0  0  0  0  0  0
    8.3129  -13.2892   26.9596 C   0  0  0  0  0  0  0  0  0  0  0  0
    7.9184  -12.0180   26.6354 C   0  0  0  0  0  0  0  0  0  0  0  0
    6.6531  -11.8212   26.1379 C   0  0  0  0  0  0  0  0  0  0  0  0
    5.7561  -12.8513   25.9487 C   0  0  0  0  0  0  0  0  0  0  0  0
    6.1573  -14.1345   26.2769 C   0  0  0  0  0  0  0  0  0  0  0  0
   10.0108  -16.8759   27.3542 C   0  0  0  0  0  0  0  0  0  0  0  0
   10.5022  -18.1133   27.0035 O   0  0  0  0  0  0  0  0  0  0  0  0
   10.3283  -16.4564   28.5099 O   0  0  0  0  0  0  0  0  0  0  0  0
  2  1  1  6
  3  2  1  0
  4  3  1  0
  5  6  2  0
  5  4  1  0
  7  2  1  0
  7  8  2  0
  9  5  1  0
 11 13  1  0
 11 10  1  1
 12 11  1  0
 13 14  1  6
 14  7  1  0
 15 13  1  0
 16 15  2  0
 17 15  1  0
 18 17  1  0
 18 19  1  1
 20 21  2  0
 20 19  1  0
 22 21  1  0
 23 22  2  0
 24 23  1  0
 24 25  2  0
 25 20  1  0
 26 18  1  0
 27 26  1  0
 28 26  2  0
M  END
$$$$
