ETF.pdb
     RDKit          3D

 28 28  0  0  1  0  0  0  0  0999 V2000
    7.7863  -13.8012   18.2903 N   0  0  0  0  0  0  0  0  0  0  0  0
    8.6488  -14.2446   19.3637 C   0  0  1  0  0  0  0  0  0  0  0  0
    9.5533  -13.0510   19.6905 C   0  0  0  0  0  0  0  0  0  0  0  0
   10.6735  -12.9651   18.6666 C   0  0  0  0  0  0  0  0  0  0  0  0
   11.6629  -14.0480   18.8711 C   0  0  0  0  0  0  0  0  0  0  0  0
   12.1026  -14.7713   17.9460 O   0  0  0  0  0  0  0  0  0  0  0  0
    7.8638  -14.6537   20.5369 C   0  0  0  0  0  0  0  0  0  0  0  0
    6.6947  -14.1816   20.6769 O   0  0  0  0  0  0  0  0  0  0  0  0
   12.1317  -14.2788   20.1535 O   0  0  0  0  0  0  0  0  0  0  0  0
    6.5567  -17.8162   20.8823 C   0  0  0  0  0  0  0  0  0  0  0  0
    7.3348  -17.6139   22.1602 C   0  0  1  0  0  0  0  0  0  0  0  0
    8.5820  -18.2246   21.9541 O   0  0  0  0  0  0  0  0  0  0  0  0
    7.5092  -16.1402   22.4818 C   0  0  2  0  0  0  0  0  0  0  0  0
    8.4291  -15.5567   21.4713 N   0  0  0  0  0  0  0  0  0  0  0  0
    8.2123  -16.0370   23.7804 C   0  0  0  0  0  0  0  0  0  0  0  0
    9.4851  -15.8790   23.7747 O   0  0  0  0  0  0  0  0  0  0  0  0
    7.6238  -16.0923   25.0522 N   0  0  0  0  0  0  0  0  0  0  0  0
    8.4492  -16.0218   26.2683 C   0  0  1  0  0  0  0  0  0  0  0  0
    7.6079  -15.4905   27.4018 C   0  0  0  0  0  0  0  0  0  0  0  0
    7.1146  -14.1413   27.0752 C   0  0  0  0  0  0  0  0  0  0  0  0
    7.9379  -13.0410   27.1963 C   0  0  0  0  0  0  0  0  0  0  0  0
    7.4520  -11.7986   26.8848 C   0  0  0  0  0  0  0  0  0  0  0  0
    6.1514  -11.6811   26.4583 C   0  0  0  0  0  0  0  0  0  0  0  0
    5.3071  -12.7637   26.3283 C   0  0  0  0  0  0  0  0  0  0  0  0
    5.8007  -14.0177   26.6435 C   0  0  0  0  0  0  0  0  0  0  0  0
    9.0492  -17.3283   26.5653 C   0  0  0  0  0  0  0  0  0  0  0  0
    8.7496  -18.4956   25.8997 O   0  0  0  0  0  0  0  0  0  0  0  0
    9.9066  -17.4215   27.4973 O   0  0  0  0  0  0  0  0  0  0  0  0
  2  1  1  6
  3  2  1  0
  4  3  1  0
  5  6  2  0
  5  4  1  0
  7  2  1  0
  7  8  2  0
  9  5  1  0
 11 13  1  0
 11 10  1  6
 12 11  1  0
 13 14  1  6
 14  7  1  0
 15 13  1  0
 16 15  2  0
 17 15  1  0
 18 17  1  0
 18 19  1  1
 20 21  2  0
 20 19  1  0
 22 21  1  0
 23 22  2  0
 24 23  1  0
 24 25  2  0
 25 20  1  0
 26 18  1  0
 27 26  1  0
 28 26  2  0
M  END
$$$$
