ETF.pdb
     RDKit          3D

 28 28  0  0  1  0  0  0  0  0999 V2000
   10.3566  -14.1562   18.9140 N   0  0  0  0  0  0  0  0  0  0  0  0
    8.9731  -13.7455   19.0136 C   0  0  1  0  0  0  0  0  0  0  0  0
    8.4090  -13.8359   17.5912 C   0  0  0  0  0  0  0  0  0  0  0  0
    9.0166  -15.0324   16.8771 C   0  0  0  0  0  0  0  0  0  0  0  0
    8.5437  -15.1098   15.4757 C   0  0  0  0  0  0  0  0  0  0  0  0
    7.7942  -14.2549   14.9471 O   0  0  0  0  0  0  0  0  0  0  0  0
    8.2297  -14.6147   19.9366 C   0  0  0  0  0  0  0  0  0  0  0  0
    7.3319  -15.3745   19.4611 O   0  0  0  0  0  0  0  0  0  0  0  0
    8.9490  -16.1842   14.7019 O   0  0  0  0  0  0  0  0  0  0  0  0
    7.4432  -17.1637   20.2636 C   0  0  0  0  0  0  0  0  0  0  0  0
    8.1691  -16.9700   21.5732 C   0  0  1  0  0  0  0  0  0  0  0  0
    9.5359  -17.1018   21.2807 O   0  0  0  0  0  0  0  0  0  0  0  0
    7.8819  -15.6062   22.1758 C   0  0  2  0  0  0  0  0  0  0  0  0
    8.5335  -14.5810   21.3203 N   0  0  0  0  0  0  0  0  0  0  0  0
    8.5634  -15.5347   23.4880 C   0  0  0  0  0  0  0  0  0  0  0  0
    9.7792  -15.1276   23.5231 O   0  0  0  0  0  0  0  0  0  0  0  0
    8.0106  -15.8704   24.7324 N   0  0  0  0  0  0  0  0  0  0  0  0
    8.7930  -15.7212   25.9696 C   0  0  1  0  0  0  0  0  0  0  0  0
    7.8669  -15.3176   27.0897 C   0  0  0  0  0  0  0  0  0  0  0  0
    7.3299  -13.9688   26.8398 C   0  0  0  0  0  0  0  0  0  0  0  0
    6.0255  -13.7945   26.4260 C   0  0  0  0  0  0  0  0  0  0  0  0
    5.5533  -12.5282   26.2019 C   0  0  0  0  0  0  0  0  0  0  0  0
    6.3957  -11.4605   26.3961 C   0  0  0  0  0  0  0  0  0  0  0  0
    7.7033  -11.6060   26.8092 C   0  0  0  0  0  0  0  0  0  0  0  0
    8.1776  -12.8865   27.0349 C   0  0  0  0  0  0  0  0  0  0  0  0
    9.5422  -16.9493   26.2617 C   0  0  0  0  0  0  0  0  0  0  0  0
    9.4698  -18.1051   25.5171 O   0  0  0  0  0  0  0  0  0  0  0  0
   10.3186  -16.9802   27.2661 O   0  0  0  0  0  0  0  0  0  0  0  0
  2  1  1  6
  3  2  1  0
  4  3  1  0
  5  6  2  0
  5  4  1  0
  7  2  1  0
  7  8  2  0
  9  5  1  0
 11 13  1  0
 11 10  1  6
 12 11  1  0
 13 14  1  6
 14  7  1  0
 15 13  1  0
 16 15  2  0
 17 15  1  0
 18 17  1  0
 18 19  1  1
 20 21  2  0
 20 19  1  0
 22 21  1  0
 23 22  2  0
 24 23  1  0
 24 25  2  0
 25 20  1  0
 26 18  1  0
 27 26  1  0
 28 26  2  0
M  END
$$$$
