ETF.pdb
     RDKit          3D

 28 28  0  0  1  0  0  0  0  0999 V2000
   10.0981  -16.4465   17.8035 N   0  0  0  0  0  0  0  0  0  0  0  0
   10.6882  -16.1022   19.0786 C   0  0  1  0  0  0  0  0  0  0  0  0
   11.7171  -15.0063   18.7784 C   0  0  0  0  0  0  0  0  0  0  0  0
   12.9801  -15.2582   19.5858 C   0  0  0  0  0  0  0  0  0  0  0  0
   14.0084  -14.2326   19.2955 C   0  0  0  0  0  0  0  0  0  0  0  0
   14.9297  -13.9281   20.0896 O   0  0  0  0  0  0  0  0  0  0  0  0
    9.6662  -15.6277   20.0222 C   0  0  0  0  0  0  0  0  0  0  0  0
    8.8749  -14.7103   19.6459 O   0  0  0  0  0  0  0  0  0  0  0  0
   13.9536  -13.5698   18.0809 O   0  0  0  0  0  0  0  0  0  0  0  0
    6.7803  -16.8528   20.4870 C   0  0  0  0  0  0  0  0  0  0  0  0
    7.3489  -16.9427   21.8827 C   0  0  1  0  0  0  0  0  0  0  0  0
    7.9183  -18.2218   21.9864 O   0  0  0  0  0  0  0  0  0  0  0  0
    8.3959  -15.8714   22.1306 C   0  0  2  0  0  0  0  0  0  0  0  0
    9.5928  -16.2032   21.3151 N   0  0  0  0  0  0  0  0  0  0  0  0
    8.8253  -15.9716   23.5437 C   0  0  0  0  0  0  0  0  0  0  0  0
   10.0269  -16.3452   23.7916 O   0  0  0  0  0  0  0  0  0  0  0  0
    8.0421  -15.6933   24.6733 N   0  0  0  0  0  0  0  0  0  0  0  0
    8.5856  -15.8693   26.0293 C   0  0  1  0  0  0  0  0  0  0  0  0
    7.6333  -15.2527   27.0232 C   0  0  0  0  0  0  0  0  0  0  0  0
    7.4902  -13.8107   26.7576 C   0  0  0  0  0  0  0  0  0  0  0  0
    8.5872  -12.9749   26.7924 C   0  0  0  0  0  0  0  0  0  0  0  0
    8.4239  -11.6383   26.5407 C   0  0  0  0  0  0  0  0  0  0  0  0
    7.1658  -11.1636   26.2591 C   0  0  0  0  0  0  0  0  0  0  0  0
    6.0526  -11.9764   26.2178 C   0  0  0  0  0  0  0  0  0  0  0  0
    6.2205  -13.3264   26.4724 C   0  0  0  0  0  0  0  0  0  0  0  0
    8.8564  -17.2864   26.3004 C   0  0  0  0  0  0  0  0  0  0  0  0
    9.7846  -17.7452   27.2079 O   0  0  0  0  0  0  0  0  0  0  0  0
    8.2069  -18.1758   25.6684 O   0  0  0  0  0  0  0  0  0  0  0  0
  2  1  1  6
  3  2  1  0
  4  3  1  0
  5  6  2  0
  5  4  1  0
  7  2  1  0
  7  8  2  0
  9  5  1  0
 11 13  1  0
 11 10  1  6
 12 11  1  0
 13 14  1  6
 14  7  1  0
 15 13  1  0
 16 15  2  0
 17 15  1  0
 18 17  1  0
 18 19  1  1
 20 21  2  0
 20 19  1  0
 22 21  1  0
 23 22  2  0
 24 23  1  0
 24 25  2  0
 25 20  1  0
 26 18  1  0
 27 26  1  0
 28 26  2  0
M  END
$$$$
