ETF.pdb
     RDKit          3D

 28 28  0  0  1  0  0  0  0  0999 V2000
    9.2865  -12.9124   20.3093 N   0  0  0  0  0  0  0  0  0  0  0  0
    7.8930  -13.2860   20.4147 C   0  0  1  0  0  0  0  0  0  0  0  0
    7.3876  -13.4179   18.9736 C   0  0  0  0  0  0  0  0  0  0  0  0
    8.4478  -14.0971   18.1220 C   0  0  0  0  0  0  0  0  0  0  0  0
    7.9345  -14.3794   16.7617 C   0  0  0  0  0  0  0  0  0  0  0  0
    7.5329  -15.5079   16.3909 O   0  0  0  0  0  0  0  0  0  0  0  0
    7.7393  -14.5494   21.1497 C   0  0  0  0  0  0  0  0  0  0  0  0
    6.5848  -15.0700   21.2229 O   0  0  0  0  0  0  0  0  0  0  0  0
    7.8937  -13.3428   15.8444 O   0  0  0  0  0  0  0  0  0  0  0  0
    9.4056  -18.7760   22.6974 C   0  0  0  0  0  0  0  0  0  0  0  0
    9.5495  -17.4725   21.9492 C   0  0  1  0  0  0  0  0  0  0  0  0
    9.2001  -17.7503   20.6182 O   0  0  0  0  0  0  0  0  0  0  0  0
    8.6471  -16.3950   22.5237 C   0  0  2  0  0  0  0  0  0  0  0  0
    8.8751  -15.1466   21.7510 N   0  0  0  0  0  0  0  0  0  0  0  0
    9.1002  -16.1085   23.9036 C   0  0  0  0  0  0  0  0  0  0  0  0
   10.2038  -15.4750   24.0646 O   0  0  0  0  0  0  0  0  0  0  0  0
    8.4367  -16.4612   25.0877 N   0  0  0  0  0  0  0  0  0  0  0  0
    9.0595  -16.2252   26.3997 C   0  0  1  0  0  0  0  0  0  0  0  0
    8.0293  -15.6407   27.3335 C   0  0  0  0  0  0  0  0  0  0  0  0
    7.6581  -14.2854   26.8912 C   0  0  0  0  0  0  0  0  0  0  0  0
    8.5361  -13.2312   27.0356 C   0  0  0  0  0  0  0  0  0  0  0  0
    8.1637  -11.9819   26.6145 C   0  0  0  0  0  0  0  0  0  0  0  0
    6.9198  -11.8116   26.0570 C   0  0  0  0  0  0  0  0  0  0  0  0
    6.0229  -12.8473   25.9007 C   0  0  0  0  0  0  0  0  0  0  0  0
    6.4018  -14.1084   26.3268 C   0  0  0  0  0  0  0  0  0  0  0  0
    9.6653  -17.4585   26.9166 C   0  0  0  0  0  0  0  0  0  0  0  0
    9.5591  -18.6929   26.3161 O   0  0  0  0  0  0  0  0  0  0  0  0
   10.3389  -17.4172   27.9922 O   0  0  0  0  0  0  0  0  0  0  0  0
  2  1  1  6
  3  2  1  0
  4  3  1  0
  5  6  2  0
  5  4  1  0
  7  2  1  0
  7  8  2  0
  9  5  1  0
 11 13  1  0
 11 10  1  1
 12 11  1  0
 13 14  1  6
 14  7  1  0
 15 13  1  0
 16 15  2  0
 17 15  1  0
 18 17  1  0
 18 19  1  1
 20 21  2  0
 20 19  1  0
 22 21  1  0
 23 22  2  0
 24 23  1  0
 24 25  2  0
 25 20  1  0
 26 18  1  0
 27 26  1  0
 28 26  2  0
M  END
$$$$
