ETF.pdb
     RDKit          3D

 28 28  0  0  1  0  0  0  0  0999 V2000
   10.2707  -16.7818   18.1667 N   0  0  0  0  0  0  0  0  0  0  0  0
   10.6151  -15.9316   19.2853 C   0  0  1  0  0  0  0  0  0  0  0  0
   11.0916  -14.6101   18.6721 C   0  0  0  0  0  0  0  0  0  0  0  0
   12.2856  -14.0868   19.4537 C   0  0  0  0  0  0  0  0  0  0  0  0
   13.4890  -14.9116   19.1987 C   0  0  0  0  0  0  0  0  0  0  0  0
   13.9758  -15.7080   20.0358 O   0  0  0  0  0  0  0  0  0  0  0  0
    9.4568  -15.7222   20.1654 C   0  0  0  0  0  0  0  0  0  0  0  0
    8.3264  -15.4993   19.6346 O   0  0  0  0  0  0  0  0  0  0  0  0
   14.1154  -14.8007   17.9686 O   0  0  0  0  0  0  0  0  0  0  0  0
    7.1272  -17.0293   20.6033 C   0  0  0  0  0  0  0  0  0  0  0  0
    7.6429  -17.0950   22.0207 C   0  0  1  0  0  0  0  0  0  0  0  0
    8.4893  -18.2139   22.0726 O   0  0  0  0  0  0  0  0  0  0  0  0
    8.4009  -15.8350   22.3994 C   0  0  2  0  0  0  0  0  0  0  0  0
    9.6327  -15.7749   21.5705 N   0  0  0  0  0  0  0  0  0  0  0  0
    8.8589  -15.9817   23.7994 C   0  0  0  0  0  0  0  0  0  0  0  0
   10.1080  -16.1764   24.0160 O   0  0  0  0  0  0  0  0  0  0  0  0
    8.0557  -15.9276   24.9479 N   0  0  0  0  0  0  0  0  0  0  0  0
    8.6587  -15.9271   26.2900 C   0  0  1  0  0  0  0  0  0  0  0  0
    7.7325  -15.2145   27.2435 C   0  0  0  0  0  0  0  0  0  0  0  0
    7.5141  -13.8286   26.7942 C   0  0  0  0  0  0  0  0  0  0  0  0
    8.5340  -12.9011   26.8469 C   0  0  0  0  0  0  0  0  0  0  0  0
    8.3019  -11.6197   26.4216 C   0  0  0  0  0  0  0  0  0  0  0  0
    7.0535  -11.2910   25.9518 C   0  0  0  0  0  0  0  0  0  0  0  0
    6.0165  -12.1978   25.8882 C   0  0  0  0  0  0  0  0  0  0  0  0
    6.2538  -13.4917   26.3183 C   0  0  0  0  0  0  0  0  0  0  0  0
    8.9767  -17.2952   26.7171 C   0  0  0  0  0  0  0  0  0  0  0  0
    9.8413  -17.6137   27.7401 O   0  0  0  0  0  0  0  0  0  0  0  0
    8.4338  -18.2753   26.1196 O   0  0  0  0  0  0  0  0  0  0  0  0
  2  1  1  6
  3  2  1  0
  4  3  1  0
  5  6  2  0
  5  4  1  0
  7  2  1  0
  7  8  2  0
  9  5  1  0
 11 13  1  0
 11 10  1  6
 12 11  1  0
 13 14  1  6
 14  7  1  0
 15 13  1  0
 16 15  2  0
 17 15  1  0
 18 17  1  0
 18 19  1  1
 20 21  2  0
 20 19  1  0
 22 21  1  0
 23 22  2  0
 24 23  1  0
 24 25  2  0
 25 20  1  0
 26 18  1  0
 27 26  1  0
 28 26  2  0
M  END
$$$$
