ETF.pdb
     RDKit          3D

 28 28  0  0  1  0  0  0  0  0999 V2000
   10.0803  -14.5428   18.5249 N   0  0  0  0  0  0  0  0  0  0  0  0
    8.8651  -13.7843   18.7268 C   0  0  1  0  0  0  0  0  0  0  0  0
    8.0472  -13.9594   17.4423 C   0  0  0  0  0  0  0  0  0  0  0  0
    8.8859  -14.6784   16.3982 C   0  0  0  0  0  0  0  0  0  0  0  0
    8.0626  -15.0596   15.2275 C   0  0  0  0  0  0  0  0  0  0  0  0
    8.4563  -15.8347   14.3240 O   0  0  0  0  0  0  0  0  0  0  0  0
    8.1258  -14.2743   19.8987 C   0  0  0  0  0  0  0  0  0  0  0  0
    7.0338  -13.7062   20.2058 O   0  0  0  0  0  0  0  0  0  0  0  0
    6.7863  -14.5334   15.1200 O   0  0  0  0  0  0  0  0  0  0  0  0
    6.6651  -17.6036   20.5469 C   0  0  0  0  0  0  0  0  0  0  0  0
    7.6134  -17.2986   21.6813 C   0  0  1  0  0  0  0  0  0  0  0  0
    8.8099  -17.9662   21.3750 O   0  0  0  0  0  0  0  0  0  0  0  0
    7.8563  -15.8064   21.8218 C   0  0  2  0  0  0  0  0  0  0  0  0
    8.6480  -15.3585   20.6469 N   0  0  0  0  0  0  0  0  0  0  0  0
    8.7241  -15.5947   23.0023 C   0  0  0  0  0  0  0  0  0  0  0  0
    9.9687  -15.3525   22.8095 O   0  0  0  0  0  0  0  0  0  0  0  0
    8.3241  -15.6285   24.3461 N   0  0  0  0  0  0  0  0  0  0  0  0
    9.3066  -15.4652   25.4292 C   0  0  1  0  0  0  0  0  0  0  0  0
    9.5974  -13.9962   25.6099 C   0  0  0  0  0  0  0  0  0  0  0  0
    8.3557  -13.2715   25.9314 C   0  0  0  0  0  0  0  0  0  0  0  0
    7.9514  -13.1116   27.2407 C   0  0  0  0  0  0  0  0  0  0  0  0
    6.7925  -12.4324   27.5096 C   0  0  0  0  0  0  0  0  0  0  0  0
    6.0604  -11.9263   26.4630 C   0  0  0  0  0  0  0  0  0  0  0  0
    6.4412  -12.0716   25.1457 C   0  0  0  0  0  0  0  0  0  0  0  0
    7.6125  -12.7581   24.8769 C   0  0  0  0  0  0  0  0  0  0  0  0
    8.8344  -16.1101   26.6605 C   0  0  0  0  0  0  0  0  0  0  0  0
    7.6359  -16.7763   26.7840 O   0  0  0  0  0  0  0  0  0  0  0  0
    9.5586  -16.0664   27.7026 O   0  0  0  0  0  0  0  0  0  0  0  0
  2  1  1  6
  3  2  1  0
  4  3  1  0
  5  6  2  0
  5  4  1  0
  7  2  1  0
  7  8  2  0
  9  5  1  0
 11 13  1  0
 11 10  1  6
 12 11  1  0
 13 14  1  6
 14  7  1  0
 15 13  1  0
 16 15  2  0
 17 15  1  0
 18 17  1  0
 18 19  1  1
 20 21  2  0
 20 19  1  0
 22 21  1  0
 23 22  2  0
 24 23  1  0
 24 25  2  0
 25 20  1  0
 26 18  1  0
 27 26  1  0
 28 26  2  0
M  END
$$$$
