ETF.pdb
     RDKit          3D

 28 28  0  0  1  0  0  0  0  0999 V2000
    7.4408  -19.4772   19.9767 N   0  0  0  0  0  0  0  0  0  0  0  0
    8.4058  -18.7273   20.7508 C   0  0  1  0  0  0  0  0  0  0  0  0
    8.9966  -17.6912   19.7881 C   0  0  0  0  0  0  0  0  0  0  0  0
   10.1823  -18.2956   19.0538 C   0  0  0  0  0  0  0  0  0  0  0  0
   10.8611  -17.2801   18.2164 C   0  0  0  0  0  0  0  0  0  0  0  0
   10.2810  -16.6106   17.3290 O   0  0  0  0  0  0  0  0  0  0  0  0
    7.7670  -18.0779   21.9042 C   0  0  0  0  0  0  0  0  0  0  0  0
    6.7805  -17.3082   21.6952 O   0  0  0  0  0  0  0  0  0  0  0  0
   12.2119  -17.0535   18.4207 O   0  0  0  0  0  0  0  0  0  0  0  0
    5.7841  -19.5509   24.3465 C   0  0  0  0  0  0  0  0  0  0  0  0
    6.8815  -18.8704   25.1287 C   0  0  1  0  0  0  0  0  0  0  0  0
    7.8336  -19.8648   25.4040 O   0  0  0  0  0  0  0  0  0  0  0  0
    7.5092  -17.7348   24.3402 C   0  0  2  0  0  0  0  0  0  0  0  0
    8.2657  -18.3274   23.2070 N   0  0  0  0  0  0  0  0  0  0  0  0
    8.5172  -17.0814   25.2054 C   0  0  0  0  0  0  0  0  0  0  0  0
    9.7581  -17.3146   24.9804 O   0  0  0  0  0  0  0  0  0  0  0  0
    8.2581  -16.2093   26.2727 N   0  0  0  0  0  0  0  0  0  0  0  0
    9.3566  -15.6734   27.0919 C   0  0  1  0  0  0  0  0  0  0  0  0
    8.9018  -14.3917   27.7441 C   0  0  0  0  0  0  0  0  0  0  0  0
    8.0902  -13.6048   26.7995 C   0  0  0  0  0  0  0  0  0  0  0  0
    6.7731  -13.3056   27.0806 C   0  0  0  0  0  0  0  0  0  0  0  0
    6.0429  -12.5714   26.1836 C   0  0  0  0  0  0  0  0  0  0  0  0
    6.6448  -12.1508   25.0225 C   0  0  0  0  0  0  0  0  0  0  0  0
    7.9589  -12.4355   24.7166 C   0  0  0  0  0  0  0  0  0  0  0  0
    8.6943  -13.1773   25.6247 C   0  0  0  0  0  0  0  0  0  0  0  0
    9.8188  -16.6751   28.0605 C   0  0  0  0  0  0  0  0  0  0  0  0
    9.2766  -17.9325   28.2036 O   0  0  0  0  0  0  0  0  0  0  0  0
   10.7832  -16.3914   28.8362 O   0  0  0  0  0  0  0  0  0  0  0  0
  2  1  1  6
  3  2  1  0
  4  3  1  0
  5  6  2  0
  5  4  1  0
  7  2  1  0
  7  8  2  0
  9  5  1  0
 11 13  1  0
 11 10  1  6
 12 11  1  0
 13 14  1  6
 14  7  1  0
 15 13  1  0
 16 15  2  0
 17 15  1  0
 18 17  1  0
 18 19  1  1
 20 21  2  0
 20 19  1  0
 22 21  1  0
 23 22  2  0
 24 23  1  0
 24 25  2  0
 25 20  1  0
 26 18  1  0
 27 26  1  0
 28 26  2  0
M  END
$$$$
