ETF.pdb
     RDKit          3D

 28 28  0  0  1  0  0  0  0  0999 V2000
    9.8166  -18.5437   18.1408 N   0  0  0  0  0  0  0  0  0  0  0  0
   10.4756  -18.4613   19.4259 C   0  0  1  0  0  0  0  0  0  0  0  0
   11.9705  -18.3189   19.1184 C   0  0  0  0  0  0  0  0  0  0  0  0
   12.7529  -18.2386   20.4191 C   0  0  0  0  0  0  0  0  0  0  0  0
   14.1958  -18.0300   20.1580 C   0  0  0  0  0  0  0  0  0  0  0  0
   15.0363  -17.7862   21.0558 O   0  0  0  0  0  0  0  0  0  0  0  0
    9.9805  -17.3145   20.2004 C   0  0  0  0  0  0  0  0  0  0  0  0
   10.0379  -16.1607   19.6763 O   0  0  0  0  0  0  0  0  0  0  0  0
   14.6468  -18.1074   18.8510 O   0  0  0  0  0  0  0  0  0  0  0  0
    6.6899  -16.4240   20.8630 C   0  0  0  0  0  0  0  0  0  0  0  0
    7.3285  -16.6016   22.2195 C   0  0  1  0  0  0  0  0  0  0  0  0
    7.0553  -17.9236   22.6051 O   0  0  0  0  0  0  0  0  0  0  0  0
    8.8266  -16.3596   22.1688 C   0  0  2  0  0  0  0  0  0  0  0  0
    9.4568  -17.5271   21.4999 N   0  0  0  0  0  0  0  0  0  0  0  0
    9.3363  -16.3625   23.5587 C   0  0  0  0  0  0  0  0  0  0  0  0
   10.0204  -17.3720   23.9560 O   0  0  0  0  0  0  0  0  0  0  0  0
    9.1504  -15.3541   24.5155 N   0  0  0  0  0  0  0  0  0  0  0  0
    9.7662  -15.4566   25.8479 C   0  0  1  0  0  0  0  0  0  0  0  0
    9.8172  -14.0841   26.4713 C   0  0  0  0  0  0  0  0  0  0  0  0
    8.4749  -13.4770   26.4664 C   0  0  0  0  0  0  0  0  0  0  0  0
    7.7256  -13.4130   27.6229 C   0  0  0  0  0  0  0  0  0  0  0  0
    6.4808  -12.8421   27.5883 C   0  0  0  0  0  0  0  0  0  0  0  0
    6.0096  -12.3464   26.3968 C   0  0  0  0  0  0  0  0  0  0  0  0
    6.7372  -12.3974   25.2265 C   0  0  0  0  0  0  0  0  0  0  0  0
    7.9945  -12.9745   25.2644 C   0  0  0  0  0  0  0  0  0  0  0  0
    9.0512  -16.4348   26.6768 C   0  0  0  0  0  0  0  0  0  0  0  0
    9.5070  -16.9198   27.8820 O   0  0  0  0  0  0  0  0  0  0  0  0
    7.9322  -16.8858   26.2808 O   0  0  0  0  0  0  0  0  0  0  0  0
  2  1  1  6
  3  2  1  0
  4  3  1  0
  5  6  2  0
  5  4  1  0
  7  2  1  0
  7  8  2  0
  9  5  1  0
 11 13  1  0
 11 10  1  6
 12 11  1  0
 13 14  1  6
 14  7  1  0
 15 13  1  0
 16 15  2  0
 17 15  1  0
 18 17  1  0
 18 19  1  1
 20 21  2  0
 20 19  1  0
 22 21  1  0
 23 22  2  0
 24 23  1  0
 24 25  2  0
 25 20  1  0
 26 18  1  0
 27 26  1  0
 28 26  2  0
M  END
$$$$
