ETF.pdb
     RDKit          3D

 28 28  0  0  1  0  0  0  0  0999 V2000
    9.6477  -19.2172   21.2580 N   0  0  0  0  0  0  0  0  0  0  0  0
   10.8333  -18.3889   21.2286 C   0  0  1  0  0  0  0  0  0  0  0  0
   11.4812  -18.6384   19.8620 C   0  0  0  0  0  0  0  0  0  0  0  0
   10.4667  -18.3742   18.7613 C   0  0  0  0  0  0  0  0  0  0  0  0
   11.0539  -18.6315   17.4261 C   0  0  0  0  0  0  0  0  0  0  0  0
   11.5224  -19.7403   17.0750 O   0  0  0  0  0  0  0  0  0  0  0  0
   10.4907  -16.9705   21.4035 C   0  0  0  0  0  0  0  0  0  0  0  0
   11.4121  -16.1066   21.2850 O   0  0  0  0  0  0  0  0  0  0  0  0
   11.0900  -17.5930   16.5109 O   0  0  0  0  0  0  0  0  0  0  0  0
    7.7639  -14.6504   19.7589 C   0  0  0  0  0  0  0  0  0  0  0  0
    7.5785  -14.8131   21.2484 C   0  0  1  0  0  0  0  0  0  0  0  0
    6.6382  -15.8429   21.4105 O   0  0  0  0  0  0  0  0  0  0  0  0
    8.8831  -15.1685   21.9391 C   0  0  2  0  0  0  0  0  0  0  0  0
    9.1520  -16.6095   21.6967 N   0  0  0  0  0  0  0  0  0  0  0  0
    8.6780  -15.0324   23.3989 C   0  0  0  0  0  0  0  0  0  0  0  0
    7.6320  -14.4170   23.8137 O   0  0  0  0  0  0  0  0  0  0  0  0
    9.5238  -15.5174   24.4070 N   0  0  0  0  0  0  0  0  0  0  0  0
    9.0836  -15.5467   25.8107 C   0  0  1  0  0  0  0  0  0  0  0  0
    7.5768  -15.4958   25.8532 C   0  0  0  0  0  0  0  0  0  0  0  0
    7.1276  -14.1450   26.2326 C   0  0  0  0  0  0  0  0  0  0  0  0
    7.9336  -13.3208   26.9905 C   0  0  0  0  0  0  0  0  0  0  0  0
    7.4898  -12.0694   27.3277 C   0  0  0  0  0  0  0  0  0  0  0  0
    6.2478  -11.6669   26.9001 C   0  0  0  0  0  0  0  0  0  0  0  0
    5.4221  -12.4700   26.1419 C   0  0  0  0  0  0  0  0  0  0  0  0
    5.8731  -13.7337   25.8026 C   0  0  0  0  0  0  0  0  0  0  0  0
    9.6359  -16.7169   26.5041 C   0  0  0  0  0  0  0  0  0  0  0  0
    9.8562  -16.7895   27.8612 O   0  0  0  0  0  0  0  0  0  0  0  0
    9.9438  -17.7497   25.8326 O   0  0  0  0  0  0  0  0  0  0  0  0
  2  1  1  6
  3  2  1  0
  4  3  1  0
  5  6  2  0
  5  4  1  0
  7  2  1  0
  7  8  2  0
  9  5  1  0
 11 13  1  0
 11 10  1  6
 12 11  1  0
 13 14  1  1
 14  7  1  0
 15 13  1  0
 16 15  2  0
 17 15  1  0
 18 17  1  0
 18 19  1  6
 20 21  2  0
 20 19  1  0
 22 21  1  0
 23 22  2  0
 24 23  1  0
 24 25  2  0
 25 20  1  0
 26 18  1  0
 27 26  1  0
 28 26  2  0
M  END
$$$$
