ETF.pdb
     RDKit          3D

 28 28  0  0  1  0  0  0  0  0999 V2000
   10.8401  -15.6493   20.1101 N   0  0  0  0  0  0  0  0  0  0  0  0
    9.5576  -15.5567   20.7729 C   0  0  1  0  0  0  0  0  0  0  0  0
    8.5212  -16.0108   19.7390 C   0  0  0  0  0  0  0  0  0  0  0  0
    7.1532  -16.1028   20.3952 C   0  0  0  0  0  0  0  0  0  0  0  0
    6.1116  -16.4543   19.4027 C   0  0  0  0  0  0  0  0  0  0  0  0
    6.3549  -16.7000   18.1975 O   0  0  0  0  0  0  0  0  0  0  0  0
    9.5204  -16.4064   21.9715 C   0  0  0  0  0  0  0  0  0  0  0  0
    9.0876  -17.5935   21.8582 O   0  0  0  0  0  0  0  0  0  0  0  0
    4.7940  -16.5164   19.8242 O   0  0  0  0  0  0  0  0  0  0  0  0
   11.7857  -18.3606   25.3888 C   0  0  0  0  0  0  0  0  0  0  0  0
   11.3698  -17.6382   24.1299 C   0  0  1  0  0  0  0  0  0  0  0  0
   11.1753  -18.6338   23.1594 O   0  0  0  0  0  0  0  0  0  0  0  0
   10.0950  -16.8400   24.3380 C   0  0  2  0  0  0  0  0  0  0  0  0
    9.9656  -15.8813   23.2102 N   0  0  0  0  0  0  0  0  0  0  0  0
   10.2666  -16.0158   25.5556 C   0  0  0  0  0  0  0  0  0  0  0  0
   11.1347  -15.0718   25.5365 O   0  0  0  0  0  0  0  0  0  0  0  0
    9.5636  -16.1553   26.7611 N   0  0  0  0  0  0  0  0  0  0  0  0
    9.9357  -15.3666   27.9462 C   0  0  1  0  0  0  0  0  0  0  0  0
    8.6980  -14.7139   28.5092 C   0  0  0  0  0  0  0  0  0  0  0  0
    8.2062  -13.6800   27.5821 C   0  0  0  0  0  0  0  0  0  0  0  0
    8.8906  -12.4928   27.4225 C   0  0  0  0  0  0  0  0  0  0  0  0
    8.4099  -11.5498   26.5527 C   0  0  0  0  0  0  0  0  0  0  0  0
    7.2534  -11.8131   25.8594 C   0  0  0  0  0  0  0  0  0  0  0  0
    6.5498  -12.9907   25.9997 C   0  0  0  0  0  0  0  0  0  0  0  0
    7.0378  -13.9416   26.8790 C   0  0  0  0  0  0  0  0  0  0  0  0
   10.6376  -16.2030   28.9275 C   0  0  0  0  0  0  0  0  0  0  0  0
   11.3467  -15.7179   30.0033 O   0  0  0  0  0  0  0  0  0  0  0  0
   10.6090  -17.4663   28.8017 O   0  0  0  0  0  0  0  0  0  0  0  0
  2  1  1  6
  3  2  1  0
  4  3  1  0
  5  6  2  0
  5  4  1  0
  7  2  1  0
  7  8  2  0
  9  5  1  0
 11 13  1  0
 11 10  1  1
 12 11  1  0
 13 14  1  6
 14  7  1  0
 15 13  1  0
 16 15  2  0
 17 15  1  0
 18 17  1  0
 18 19  1  1
 20 21  2  0
 20 19  1  0
 22 21  1  0
 23 22  2  0
 24 23  1  0
 24 25  2  0
 25 20  1  0
 26 18  1  0
 27 26  1  0
 28 26  2  0
M  END
$$$$
