ETF.pdb
     RDKit          3D

 28 28  0  0  1  0  0  0  0  0999 V2000
   10.7836  -18.1895   19.5305 N   0  0  0  0  0  0  0  0  0  0  0  0
   10.8763  -16.7997   19.1400 C   0  0  1  0  0  0  0  0  0  0  0  0
   10.4826  -16.7565   17.6592 C   0  0  0  0  0  0  0  0  0  0  0  0
    9.7428  -18.0324   17.2913 C   0  0  0  0  0  0  0  0  0  0  0  0
    9.6204  -18.1693   15.8216 C   0  0  0  0  0  0  0  0  0  0  0  0
    8.5304  -18.1012   15.2058 O   0  0  0  0  0  0  0  0  0  0  0  0
    9.9823  -15.9625   19.9524 C   0  0  0  0  0  0  0  0  0  0  0  0
    9.8082  -14.7537   19.6093 O   0  0  0  0  0  0  0  0  0  0  0  0
   10.7710  -18.3847   15.0818 O   0  0  0  0  0  0  0  0  0  0  0  0
    6.5190  -15.5018   20.5007 C   0  0  0  0  0  0  0  0  0  0  0  0
    7.0958  -15.9634   21.8174 C   0  0  1  0  0  0  0  0  0  0  0  0
    6.9327  -17.3576   21.8431 O   0  0  0  0  0  0  0  0  0  0  0  0
    8.5634  -15.5958   21.9450 C   0  0  2  0  0  0  0  0  0  0  0  0
    9.3444  -16.5236   21.0866 N   0  0  0  0  0  0  0  0  0  0  0  0
    8.9845  -15.8762   23.3362 C   0  0  0  0  0  0  0  0  0  0  0  0
    9.4511  -17.0390   23.6102 O   0  0  0  0  0  0  0  0  0  0  0  0
    8.9302  -14.9852   24.4180 N   0  0  0  0  0  0  0  0  0  0  0  0
    8.7165  -15.4759   25.7885 C   0  0  1  0  0  0  0  0  0  0  0  0
    7.2976  -15.1741   26.2017 C   0  0  0  0  0  0  0  0  0  0  0  0
    7.1094  -13.7192   26.3363 C   0  0  0  0  0  0  0  0  0  0  0  0
    8.1655  -12.8513   26.1499 C   0  0  0  0  0  0  0  0  0  0  0  0
    7.9607  -11.5031   26.2808 C   0  0  0  0  0  0  0  0  0  0  0  0
    6.7028  -11.0493   26.5959 C   0  0  0  0  0  0  0  0  0  0  0  0
    5.6300  -11.8942   26.7875 C   0  0  0  0  0  0  0  0  0  0  0  0
    5.8398  -13.2558   26.6544 C   0  0  0  0  0  0  0  0  0  0  0  0
    9.0496  -16.9022   25.8875 C   0  0  0  0  0  0  0  0  0  0  0  0
    8.1660  -17.9299   25.6455 O   0  0  0  0  0  0  0  0  0  0  0  0
   10.2265  -17.2444   26.2194 O   0  0  0  0  0  0  0  0  0  0  0  0
  2  1  1  1
  3  2  1  0
  4  3  1  0
  5  6  2  0
  5  4  1  0
  7  2  1  0
  7  8  2  0
  9  5  1  0
 11 13  1  0
 11 10  1  6
 12 11  1  0
 13 14  1  6
 14  7  1  0
 15 13  1  0
 16 15  2  0
 17 15  1  0
 18 17  1  0
 18 19  1  6
 20 21  2  0
 20 19  1  0
 22 21  1  0
 23 22  2  0
 24 23  1  0
 24 25  2  0
 25 20  1  0
 26 18  1  0
 27 26  1  0
 28 26  2  0
M  END
$$$$
