RAS.pdb
     RDKit          3D

 23 22  0  0  1  0  0  0  0  0999 V2000
    6.6085  -12.9397   20.2648 N   0  0  0  0  0  0  0  0  0  0  0  0
    7.7697  -13.0815   19.4573 C   0  0  0  0  0  0  0  0  0  0  0  0
    8.4094  -12.0542   19.0434 N   0  0  0  0  0  0  0  0  0  0  0  0
    8.1917  -14.3986   19.1284 N   0  0  0  0  0  0  0  0  0  0  0  0
    9.5636  -14.7591   19.4675 C   0  0  0  0  0  0  0  0  0  0  0  0
   10.3981  -14.7116   18.2355 C   0  0  0  0  0  0  0  0  0  0  0  0
   11.7723  -15.2095   18.4952 C   0  0  0  0  0  0  0  0  0  0  0  0
   12.6709  -15.1021   17.2848 C   0  0  2  0  0  0  0  0  0  0  0  0
   12.2435  -16.1403   16.3687 N   0  0  0  0  0  0  0  0  0  0  0  0
   14.0816  -15.4140   17.6710 C   0  0  0  0  0  0  0  0  0  0  0  0
   14.3960  -16.5925   17.9472 O   0  0  0  0  0  0  0  0  0  0  0  0
    9.2275  -12.1593   18.4153 C   0  0  0  0  0  0  0  0  0  0  0  0
   17.3247  -13.4473   17.9522 C   0  0  1  0  0  0  0  0  0  0  0  0
   16.4295  -14.6397   18.1951 N   0  0  0  0  0  0  0  0  0  0  0  0
   15.0798  -14.4259   17.7371 C   0  0  0  0  0  0  0  0  0  0  0  0
   16.4012  -15.0220   19.6310 O   0  0  0  0  0  0  0  0  0  0  0  0
   15.5010  -14.5537   20.4077 O   0  0  0  0  0  0  0  0  0  0  0  0
   17.8862  -18.1881   22.9898 C   0  0  0  0  0  0  0  0  0  0  0  0
   17.8083  -17.7244   21.6806 C   0  0  1  0  0  0  0  0  0  0  0  0
   17.2634  -16.2979   21.6252 N   0  0  0  0  0  0  0  0  0  0  0  0
   17.3431  -15.9033   20.2102 C   0  0  0  0  0  0  0  0  0  0  0  0
   18.2121  -15.4461   22.3757 O   0  0  0  0  0  0  0  0  0  0  0  0
   18.1637  -15.3441   23.7599 O   0  0  0  0  0  0  0  0  0  0  0  0
  2  1  1  0
  2  4  1  0
  3  2  2  0
  5  4  1  0
  6  5  1  0
  7  8  1  0
  7  6  1  0
  8 10  1  0
  8  9  1  6
 10 14  1  0
 10 11  2  0
 13 12  1  6
 13 15  1  0
 14 13  1  0
 15 16  2  0
 17 18  1  0
 19 18  1  6
 19 21  1  0
 20 15  1  0
 20 19  1  0
 21 22  1  0
 23 21  2  0
M  END
$$$$
