RAS.pdb
     RDKit          3D

 23 22  0  0  1  0  0  0  0  0999 V2000
    5.8320  -18.0114   10.8916 N   0  0  0  0  0  0  0  0  0  0  0  0
    6.7540  -17.5319   11.8613 C   0  0  0  0  0  0  0  0  0  0  0  0
    7.4274  -16.4645   11.6538 N   0  0  0  0  0  0  0  0  0  0  0  0
    6.8996  -18.2773   13.0631 N   0  0  0  0  0  0  0  0  0  0  0  0
    7.7924  -17.7301   14.0783 C   0  0  0  0  0  0  0  0  0  0  0  0
    7.0334  -17.5458   15.3458 C   0  0  0  0  0  0  0  0  0  0  0  0
    7.9384  -17.2036   16.4717 C   0  0  0  0  0  0  0  0  0  0  0  0
    8.5127  -15.8104   16.3567 C   0  0  2  0  0  0  0  0  0  0  0  0
    9.6591  -15.9153   15.4767 N   0  0  0  0  0  0  0  0  0  0  0  0
    9.0239  -15.3610   17.6884 C   0  0  0  0  0  0  0  0  0  0  0  0
   10.0836  -15.8513   18.1362 O   0  0  0  0  0  0  0  0  0  0  0  0
    8.0859  -16.1078   12.3708 C   0  0  0  0  0  0  0  0  0  0  0  0
    7.9054  -12.8292   20.3035 C   0  0  2  0  0  0  0  0  0  0  0  0
    8.8062  -13.9042   19.7419 N   0  0  0  0  0  0  0  0  0  0  0  0
    8.3548  -14.3994   18.4660 C   0  0  0  0  0  0  0  0  0  0  0  0
    8.9522  -15.0454   20.6828 O   0  0  0  0  0  0  0  0  0  0  0  0
    8.0280  -15.9220   20.7851 O   0  0  0  0  0  0  0  0  0  0  0  0
   12.4140  -15.4460   22.7470 C   0  0  0  0  0  0  0  0  0  0  0  0
   11.7061  -16.6287   22.5596 C   0  0  1  0  0  0  0  0  0  0  0  0
   10.2069  -16.3662   22.4233 N   0  0  0  0  0  0  0  0  0  0  0  0
   10.0916  -15.2265   21.5002 C   0  0  0  0  0  0  0  0  0  0  0  0
    9.7280  -15.9126   23.7475 O   0  0  0  0  0  0  0  0  0  0  0  0
    9.2126  -14.6374   23.9398 O   0  0  0  0  0  0  0  0  0  0  0  0
  2  1  1  0
  2  4  1  0
  3  2  2  0
  5  4  1  0
  6  5  1  0
  7  8  1  0
  7  6  1  0
  8 10  1  0
  8  9  1  6
 10 14  1  0
 10 11  2  0
 13 12  1  6
 13 15  1  0
 14 13  1  0
 15 16  2  0
 17 18  1  0
 19 18  1  6
 19 21  1  0
 20 15  1  0
 20 19  1  0
 21 22  1  0
 23 21  2  0
M  END
$$$$
