RAS.pdb
     RDKit          3D

 23 22  0  0  1  0  0  0  0  0999 V2000
    9.5835  -15.2681   16.3416 N   0  0  0  0  0  0  0  0  0  0  0  0
    8.6214  -14.6707   15.4826 C   0  0  0  0  0  0  0  0  0  0  0  0
    8.8397  -14.5655   14.2268 N   0  0  0  0  0  0  0  0  0  0  0  0
    7.4148  -14.1972   16.0665 N   0  0  0  0  0  0  0  0  0  0  0  0
    7.2514  -14.3941   17.5024 C   0  0  0  0  0  0  0  0  0  0  0  0
    8.2411  -13.5488   18.2253 C   0  0  0  0  0  0  0  0  0  0  0  0
    8.0071  -13.5781   19.6909 C   0  0  0  0  0  0  0  0  0  0  0  0
    9.1452  -14.2187   20.4514 C   0  0  2  0  0  0  0  0  0  0  0  0
    9.3690  -15.5107   19.8346 N   0  0  0  0  0  0  0  0  0  0  0  0
    8.7297  -14.4757   21.8649 C   0  0  0  0  0  0  0  0  0  0  0  0
    8.1811  -13.5618   22.5190 O   0  0  0  0  0  0  0  0  0  0  0  0
    8.1203  -14.1636   13.5977 C   0  0  0  0  0  0  0  0  0  0  0  0
    8.7190  -17.5114   24.1610 C   0  0  2  0  0  0  0  0  0  0  0  0
    8.4593  -16.0649   23.8112 N   0  0  0  0  0  0  0  0  0  0  0  0
    8.9327  -15.7159   22.4955 C   0  0  0  0  0  0  0  0  0  0  0  0
    9.0644  -15.1418   24.8066 O   0  0  0  0  0  0  0  0  0  0  0  0
   10.2825  -14.7737   24.6908 O   0  0  0  0  0  0  0  0  0  0  0  0
    6.6453  -13.0602   27.1808 C   0  0  0  0  0  0  0  0  0  0  0  0
    7.9280  -12.5503   27.0082 C   0  0  1  0  0  0  0  0  0  0  0  0
    8.9564  -13.6691   26.8481 N   0  0  0  0  0  0  0  0  0  0  0  0
    8.3487  -14.6283   25.9126 C   0  0  0  0  0  0  0  0  0  0  0  0
    9.0675  -14.3419   28.1609 O   0  0  0  0  0  0  0  0  0  0  0  0
    9.5854  -13.6911   29.2731 O   0  0  0  0  0  0  0  0  0  0  0  0
  2  1  1  0
  2  4  1  0
  3  2  2  0
  5  4  1  0
  6  5  1  0
  7  8  1  0
  7  6  1  0
  8 10  1  0
  8  9  1  6
 10 14  1  0
 10 11  2  0
 13 12  1  6
 13 15  1  0
 14 13  1  0
 15 16  2  0
 17 18  1  0
 19 18  1  6
 19 21  1  0
 20 15  1  0
 20 19  1  0
 21 22  1  0
 23 21  2  0
M  END
$$$$
