RAS.pdb
     RDKit          3D

 23 22  0  0  1  0  0  0  0  0999 V2000
    7.3483  -13.9393   16.9012 N   0  0  0  0  0  0  0  0  0  0  0  0
    8.7654  -14.0493   16.9120 C   0  0  0  0  0  0  0  0  0  0  0  0
    9.3758  -14.7402   16.0254 N   0  0  0  0  0  0  0  0  0  0  0  0
    9.4755  -13.3677   17.9377 N   0  0  0  0  0  0  0  0  0  0  0  0
    8.7310  -13.0257   19.1444 C   0  0  0  0  0  0  0  0  0  0  0  0
    8.4084  -14.2748   19.8876 C   0  0  0  0  0  0  0  0  0  0  0  0
    7.7641  -13.9757   21.1911 C   0  0  0  0  0  0  0  0  0  0  0  0
    7.4841  -15.2192   22.0032 C   0  0  2  0  0  0  0  0  0  0  0  0
    6.6298  -14.8052   23.0979 N   0  0  0  0  0  0  0  0  0  0  0  0
    8.7542  -15.7266   22.6081 C   0  0  0  0  0  0  0  0  0  0  0  0
    9.1996  -15.1856   23.6439 O   0  0  0  0  0  0  0  0  0  0  0  0
   10.4108  -14.8020   16.0244 C   0  0  0  0  0  0  0  0  0  0  0  0
   10.5337  -18.9259   22.6866 C   0  0  1  0  0  0  0  0  0  0  0  0
   10.6309  -17.4187   22.6532 N   0  0  0  0  0  0  0  0  0  0  0  0
    9.4759  -16.7988   22.0542 C   0  0  0  0  0  0  0  0  0  0  0  0
   11.8525  -16.9626   21.9401 O   0  0  0  0  0  0  0  0  0  0  0  0
   12.9667  -17.5629   22.1163 O   0  0  0  0  0  0  0  0  0  0  0  0
   11.9251  -14.3519   18.4885 C   0  0  0  0  0  0  0  0  0  0  0  0
   12.7207  -14.1647   19.6141 C   0  0  2  0  0  0  0  0  0  0  0  0
   13.0595  -15.4948   20.2856 N   0  0  0  0  0  0  0  0  0  0  0  0
   11.8568  -15.8662   21.0472 C   0  0  0  0  0  0  0  0  0  0  0  0
   14.1350  -15.2208   21.2638 O   0  0  0  0  0  0  0  0  0  0  0  0
   13.8949  -15.2209   22.6316 O   0  0  0  0  0  0  0  0  0  0  0  0
  2  1  1  0
  2  4  1  0
  3  2  2  0
  5  4  1  0
  6  5  1  0
  7  8  1  0
  7  6  1  0
  8 10  1  0
  8  9  1  1
 10 14  1  0
 10 11  2  0
 13 12  1  1
 13 15  1  0
 14 13  1  0
 15 16  2  0
 17 18  1  0
 19 18  1  6
 19 21  1  0
 20 15  1  0
 20 19  1  0
 21 22  1  0
 23 21  2  0
M  END
$$$$
