RAS.pdb
     RDKit          3D

 23 22  0  0  1  0  0  0  0  0999 V2000
    6.9914  -18.4761   17.4030 N   0  0  0  0  0  0  0  0  0  0  0  0
    8.4002  -18.3708   17.5600 C   0  0  0  0  0  0  0  0  0  0  0  0
    9.1914  -19.1318   16.9036 N   0  0  0  0  0  0  0  0  0  0  0  0
    8.8950  -17.3948   18.4676 N   0  0  0  0  0  0  0  0  0  0  0  0
    7.9194  -16.7345   19.3274 C   0  0  0  0  0  0  0  0  0  0  0  0
    7.7499  -15.3251   18.8784 C   0  0  0  0  0  0  0  0  0  0  0  0
    6.7010  -14.6304   19.6662 C   0  0  0  0  0  0  0  0  0  0  0  0
    7.1915  -13.3406   20.2826 C   0  0  2  0  0  0  0  0  0  0  0  0
    8.2344  -12.8436   19.4079 N   0  0  0  0  0  0  0  0  0  0  0  0
    7.8286  -13.6211   21.6063 C   0  0  0  0  0  0  0  0  0  0  0  0
    9.0526  -13.8726   21.6572 O   0  0  0  0  0  0  0  0  0  0  0  0
   10.2191  -19.0286   16.9939 C   0  0  0  0  0  0  0  0  0  0  0  0
    6.6895  -13.4455   25.2269 C   0  0  1  0  0  0  0  0  0  0  0  0
    7.6679  -13.7741   24.1237 N   0  0  0  0  0  0  0  0  0  0  0  0
    7.1001  -13.6137   22.8089 C   0  0  0  0  0  0  0  0  0  0  0  0
    8.2033  -15.1541   24.2573 O   0  0  0  0  0  0  0  0  0  0  0  0
    7.5256  -16.1542   23.8410 O   0  0  0  0  0  0  0  0  0  0  0  0
   12.0112  -18.0331   24.9491 C   0  0  0  0  0  0  0  0  0  0  0  0
   11.4319  -16.7816   24.7675 C   0  0  1  0  0  0  0  0  0  0  0  0
    9.9278  -16.8188   25.0343 N   0  0  0  0  0  0  0  0  0  0  0  0
    9.4612  -15.4375   24.8376 C   0  0  0  0  0  0  0  0  0  0  0  0
    9.7533  -17.1445   26.4668 O   0  0  0  0  0  0  0  0  0  0  0  0
    9.9297  -18.4350   26.9486 O   0  0  0  0  0  0  0  0  0  0  0  0
  2  1  1  0
  2  4  1  0
  3  2  2  0
  5  4  1  0
  6  5  1  0
  7  8  1  0
  7  6  1  0
  8 10  1  0
  8  9  1  6
 10 14  1  0
 10 11  2  0
 13 12  1  6
 13 15  1  0
 14 13  1  0
 15 16  2  0
 17 18  1  0
 19 18  1  6
 19 21  1  0
 20 15  1  0
 20 19  1  0
 21 22  1  0
 23 21  2  0
M  END
$$$$
