RAS.pdb
     RDKit          3D

 23 22  0  0  1  0  0  0  0  0999 V2000
    8.5624  -13.1377   21.1175 N   0  0  0  0  0  0  0  0  0  0  0  0
    8.2083  -13.2417   19.7448 C   0  0  0  0  0  0  0  0  0  0  0  0
    7.9205  -12.1995   19.0615 N   0  0  0  0  0  0  0  0  0  0  0  0
    8.1858  -14.5383   19.1624 N   0  0  0  0  0  0  0  0  0  0  0  0
    8.6328  -15.6477   19.9970 C   0  0  0  0  0  0  0  0  0  0  0  0
    7.4527  -16.2563   20.6706 C   0  0  0  0  0  0  0  0  0  0  0  0
    7.8369  -17.4622   21.4465 C   0  0  0  0  0  0  0  0  0  0  0  0
    8.2146  -18.6291   20.5634 C   0  0  2  0  0  0  0  0  0  0  0  0
    6.9693  -19.2070   20.0999 N   0  0  0  0  0  0  0  0  0  0  0  0
    8.9066  -19.6768   21.3758 C   0  0  0  0  0  0  0  0  0  0  0  0
    8.3157  -20.1848   22.3539 O   0  0  0  0  0  0  0  0  0  0  0  0
    7.7224  -12.2717   18.0464 C   0  0  0  0  0  0  0  0  0  0  0  0
   12.0911  -21.7000   21.0988 C   0  0  1  0  0  0  0  0  0  0  0  0
   10.9646  -21.0568   21.8731 N   0  0  0  0  0  0  0  0  0  0  0  0
   10.2086  -20.1191   21.0818 C   0  0  0  0  0  0  0  0  0  0  0  0
   11.4591  -20.3733   23.0967 O   0  0  0  0  0  0  0  0  0  0  0  0
   11.7386  -19.1266   23.0733 O   0  0  0  0  0  0  0  0  0  0  0  0
   11.9429  -20.6668   27.9370 C   0  0  0  0  0  0  0  0  0  0  0  0
   11.6655  -21.2512   26.7055 C   0  0  2  0  0  0  0  0  0  0  0  0
   12.0272  -20.3181   25.5508 N   0  0  0  0  0  0  0  0  0  0  0  0
   11.6456  -21.0422   24.3283 C   0  0  0  0  0  0  0  0  0  0  0  0
   13.5010  -20.1904   25.5470 O   0  0  0  0  0  0  0  0  0  0  0  0
   14.1511  -19.2160   26.2931 O   0  0  0  0  0  0  0  0  0  0  0  0
  2  1  1  0
  2  4  1  0
  3  2  2  0
  5  4  1  0
  6  5  1  0
  7  8  1  0
  7  6  1  0
  8 10  1  0
  8  9  1  1
 10 14  1  0
 10 11  2  0
 13 12  1  6
 13 15  1  0
 14 13  1  0
 15 16  2  0
 17 18  1  0
 19 18  1  1
 19 21  1  0
 20 15  1  0
 20 19  1  0
 21 22  1  0
 23 21  2  0
M  END
$$$$
