RAS.pdb
     RDKit          3D

 23 22  0  0  1  0  0  0  0  0999 V2000
    9.4624  -11.4915   19.3476 N   0  0  0  0  0  0  0  0  0  0  0  0
    8.7469  -12.7115   19.2065 C   0  0  0  0  0  0  0  0  0  0  0  0
    8.8798  -13.4316   18.1578 N   0  0  0  0  0  0  0  0  0  0  0  0
    7.8834  -13.1001   20.2668 N   0  0  0  0  0  0  0  0  0  0  0  0
    7.0702  -14.2924   20.0563 C   0  0  0  0  0  0  0  0  0  0  0  0
    7.9159  -15.5006   20.2605 C   0  0  0  0  0  0  0  0  0  0  0  0
    8.1616  -15.7497   21.7032 C   0  0  0  0  0  0  0  0  0  0  0  0
    9.0551  -16.9441   21.9458 C   0  0  2  0  0  0  0  0  0  0  0  0
    8.2814  -18.1118   21.5750 N   0  0  0  0  0  0  0  0  0  0  0  0
    9.3553  -17.0648   23.4059 C   0  0  0  0  0  0  0  0  0  0  0  0
    8.4215  -16.9802   24.2335 O   0  0  0  0  0  0  0  0  0  0  0  0
    8.4075  -14.3518   18.0858 C   0  0  0  0  0  0  0  0  0  0  0  0
   12.3358  -18.2071   25.4265 C   0  0  1  0  0  0  0  0  0  0  0  0
   11.0005  -17.5181   25.2700 N   0  0  0  0  0  0  0  0  0  0  0  0
   10.6585  -17.2718   23.8918 C   0  0  0  0  0  0  0  0  0  0  0  0
   10.9528  -16.2357   26.0198 O   0  0  0  0  0  0  0  0  0  0  0  0
   11.4631  -15.1754   25.5215 O   0  0  0  0  0  0  0  0  0  0  0  0
    8.1784  -15.3461   28.5716 C   0  0  0  0  0  0  0  0  0  0  0  0
    9.0861  -14.3386   28.2615 C   0  0  1  0  0  0  0  0  0  0  0  0
   10.5015  -14.8920   28.1029 N   0  0  0  0  0  0  0  0  0  0  0  0
   10.3559  -16.1134   27.2957 C   0  0  0  0  0  0  0  0  0  0  0  0
   10.9555  -15.3036   29.4494 O   0  0  0  0  0  0  0  0  0  0  0  0
   11.1962  -14.3752   30.4539 O   0  0  0  0  0  0  0  0  0  0  0  0
  2  1  1  0
  2  4  1  0
  3  2  2  0
  5  4  1  0
  6  5  1  0
  7  8  1  0
  7  6  1  0
  8 10  1  0
  8  9  1  1
 10 14  1  0
 10 11  2  0
 13 12  1  6
 13 15  1  0
 14 13  1  0
 15 16  2  0
 17 18  1  0
 19 18  1  6
 19 21  1  0
 20 15  1  0
 20 19  1  0
 21 22  1  0
 23 21  2  0
M  END
$$$$
