RAS.pdb
     RDKit          3D

 23 22  0  0  1  0  0  0  0  0999 V2000
   10.7034  -17.6142   13.7208 N   0  0  0  0  0  0  0  0  0  0  0  0
    9.9603  -18.0859   12.6047 C   0  0  0  0  0  0  0  0  0  0  0  0
   10.5036  -18.1868   11.4511 N   0  0  0  0  0  0  0  0  0  0  0  0
    8.5996  -18.4393   12.8156 N   0  0  0  0  0  0  0  0  0  0  0  0
    8.0555  -18.2141   14.1499 C   0  0  0  0  0  0  0  0  0  0  0  0
    8.6954  -17.0057   14.7390 C   0  0  0  0  0  0  0  0  0  0  0  0
    8.1038  -16.6711   16.0587 C   0  0  0  0  0  0  0  0  0  0  0  0
    7.9678  -15.1819   16.2772 C   0  0  2  0  0  0  0  0  0  0  0  0
    8.7371  -14.5457   15.2269 N   0  0  0  0  0  0  0  0  0  0  0  0
    8.6025  -14.7997   17.5762 C   0  0  0  0  0  0  0  0  0  0  0  0
    9.7429  -15.2322   17.8528 O   0  0  0  0  0  0  0  0  0  0  0  0
    9.9499  -18.4993   10.6322 C   0  0  0  0  0  0  0  0  0  0  0  0
    7.5969  -12.6522   20.5557 C   0  0  2  0  0  0  0  0  0  0  0  0
    8.4879  -13.6139   19.8051 N   0  0  0  0  0  0  0  0  0  0  0  0
    7.9630  -13.9649   18.5096 C   0  0  0  0  0  0  0  0  0  0  0  0
    8.7341  -14.8561   20.5831 O   0  0  0  0  0  0  0  0  0  0  0  0
    7.9239  -15.8411   20.5029 O   0  0  0  0  0  0  0  0  0  0  0  0
   12.3310  -15.5345   22.0870 C   0  0  0  0  0  0  0  0  0  0  0  0
   11.4867  -16.6397   22.0614 C   0  0  1  0  0  0  0  0  0  0  0  0
   10.0267  -16.2313   22.2523 N   0  0  0  0  0  0  0  0  0  0  0  0
    9.8494  -15.0199   21.4366 C   0  0  0  0  0  0  0  0  0  0  0  0
    9.8728  -15.8362   23.6696 O   0  0  0  0  0  0  0  0  0  0  0  0
   10.0129  -16.7539   24.7025 O   0  0  0  0  0  0  0  0  0  0  0  0
  2  1  1  0
  2  4  1  0
  3  2  2  0
  5  4  1  0
  6  5  1  0
  7  8  1  0
  7  6  1  0
  8 10  1  0
  8  9  1  6
 10 14  1  0
 10 11  2  0
 13 12  1  6
 13 15  1  0
 14 13  1  0
 15 16  2  0
 17 18  1  0
 19 18  1  6
 19 21  1  0
 20 15  1  0
 20 19  1  0
 21 22  1  0
 23 21  2  0
M  END
$$$$
