RAS.pdb
     RDKit          3D

 23 22  0  0  1  0  0  0  0  0999 V2000
   11.3732  -22.1901   19.0174 N   0  0  0  0  0  0  0  0  0  0  0  0
   12.1682  -21.2630   18.2902 C   0  0  0  0  0  0  0  0  0  0  0  0
   12.9936  -21.6648   17.3995 N   0  0  0  0  0  0  0  0  0  0  0  0
   12.0137  -19.8813   18.5869 N   0  0  0  0  0  0  0  0  0  0  0  0
   11.0641  -19.5311   19.6370 C   0  0  0  0  0  0  0  0  0  0  0  0
    9.6987  -19.4450   19.0497 C   0  0  0  0  0  0  0  0  0  0  0  0
    8.6889  -19.0974   20.0807 C   0  0  0  0  0  0  0  0  0  0  0  0
    7.2734  -19.1530   19.5540 C   0  0  2  0  0  0  0  0  0  0  0  0
    7.2689  -18.3917   18.3211 N   0  0  0  0  0  0  0  0  0  0  0  0
    6.3516  -18.4544   20.5020 C   0  0  0  0  0  0  0  0  0  0  0  0
    6.6604  -17.3233   20.9369 O   0  0  0  0  0  0  0  0  0  0  0  0
   13.6455  -20.9989   16.9451 C   0  0  0  0  0  0  0  0  0  0  0  0
    2.8372  -18.9622   21.7913 C   0  0  1  0  0  0  0  0  0  0  0  0
    4.2530  -18.4487   21.9102 N   0  0  0  0  0  0  0  0  0  0  0  0
    5.1386  -19.0233   20.9292 C   0  0  0  0  0  0  0  0  0  0  0  0
    4.8111  -18.6851   23.2672 O   0  0  0  0  0  0  0  0  0  0  0  0
    4.2216  -18.2171   24.2999 O   0  0  0  0  0  0  0  0  0  0  0  0
    5.7282  -21.9387   24.8332 C   0  0  0  0  0  0  0  0  0  0  0  0
    6.8672  -21.1429   24.8987 C   0  0  2  0  0  0  0  0  0  0  0  0
    6.5136  -19.6571   24.8499 N   0  0  0  0  0  0  0  0  0  0  0  0
    5.9963  -19.4224   23.4929 C   0  0  0  0  0  0  0  0  0  0  0  0
    7.7837  -18.9088   24.9744 O   0  0  0  0  0  0  0  0  0  0  0  0
    8.5624  -18.9785   26.1222 O   0  0  0  0  0  0  0  0  0  0  0  0
  2  1  1  0
  2  4  1  0
  3  2  2  0
  5  4  1  0
  6  5  1  0
  7  8  1  0
  7  6  1  0
  8 10  1  0
  8  9  1  6
 10 14  1  0
 10 11  2  0
 13 12  1  6
 13 15  1  0
 14 13  1  0
 15 16  2  0
 17 18  1  0
 19 18  1  1
 19 21  1  0
 20 15  1  0
 20 19  1  0
 21 22  1  0
 23 21  2  0
M  END
$$$$
