RAS.pdb
     RDKit          3D

 23 22  0  0  1  0  0  0  0  0999 V2000
    8.0304  -15.0529   13.5004 N   0  0  0  0  0  0  0  0  0  0  0  0
    7.3416  -16.2903   13.6216 C   0  0  0  0  0  0  0  0  0  0  0  0
    6.4730  -16.6448   12.7523 N   0  0  0  0  0  0  0  0  0  0  0  0
    7.6512  -17.1148   14.7376 N   0  0  0  0  0  0  0  0  0  0  0  0
    8.5731  -16.5707   15.7281 C   0  0  0  0  0  0  0  0  0  0  0  0
    7.8351  -15.6294   16.6147 C   0  0  0  0  0  0  0  0  0  0  0  0
    8.7068  -15.1158   17.7010 C   0  0  0  0  0  0  0  0  0  0  0  0
    7.9851  -14.1662   18.6292 C   0  0  2  0  0  0  0  0  0  0  0  0
    8.2389  -12.8324   18.1229 N   0  0  0  0  0  0  0  0  0  0  0  0
    8.5882  -14.2366   19.9959 C   0  0  0  0  0  0  0  0  0  0  0  0
    9.8241  -14.3866   20.1144 O   0  0  0  0  0  0  0  0  0  0  0  0
    6.0373  -17.5846   12.7939 C   0  0  0  0  0  0  0  0  0  0  0  0
    7.2815  -13.8984   23.5537 C   0  0  1  0  0  0  0  0  0  0  0  0
    8.3316  -14.1984   22.5098 N   0  0  0  0  0  0  0  0  0  0  0  0
    7.8143  -14.1399   21.1660 C   0  0  0  0  0  0  0  0  0  0  0  0
    8.9625  -15.5258   22.7309 O   0  0  0  0  0  0  0  0  0  0  0  0
    8.3723  -16.5940   22.3521 O   0  0  0  0  0  0  0  0  0  0  0  0
   12.8208  -15.7236   23.7363 C   0  0  0  0  0  0  0  0  0  0  0  0
   12.2656  -16.9105   23.2695 C   0  0  1  0  0  0  0  0  0  0  0  0
   10.7848  -17.0144   23.6318 N   0  0  0  0  0  0  0  0  0  0  0  0
   10.2204  -15.6839   23.3570 C   0  0  0  0  0  0  0  0  0  0  0  0
   10.7143  -17.2311   25.0936 O   0  0  0  0  0  0  0  0  0  0  0  0
   10.1216  -16.3043   25.9411 O   0  0  0  0  0  0  0  0  0  0  0  0
  2  1  1  0
  2  4  1  0
  3  2  2  0
  5  4  1  0
  6  5  1  0
  7  8  1  0
  7  6  1  0
  8 10  1  0
  8  9  1  6
 10 14  1  0
 10 11  2  0
 13 12  1  6
 13 15  1  0
 14 13  1  0
 15 16  2  0
 17 18  1  0
 19 18  1  6
 19 21  1  0
 20 15  1  0
 20 19  1  0
 21 22  1  0
 23 21  2  0
M  END
$$$$
