RAS.pdb
     RDKit          3D

 23 22  0  0  1  0  0  0  0  0999 V2000
    8.9732  -13.3073   21.2107 N   0  0  0  0  0  0  0  0  0  0  0  0
    8.6719  -12.4364   20.1286 C   0  0  0  0  0  0  0  0  0  0  0  0
    9.2680  -11.3113   20.0073 N   0  0  0  0  0  0  0  0  0  0  0  0
    7.6898  -12.8586   19.1914 N   0  0  0  0  0  0  0  0  0  0  0  0
    8.0952  -13.8613   18.2129 C   0  0  0  0  0  0  0  0  0  0  0  0
    8.4146  -15.1313   18.9211 C   0  0  0  0  0  0  0  0  0  0  0  0
    8.8669  -16.1792   17.9720 C   0  0  0  0  0  0  0  0  0  0  0  0
   10.0066  -15.7185   17.0928 C   0  0  2  0  0  0  0  0  0  0  0  0
    9.8937  -16.4663   15.8568 N   0  0  0  0  0  0  0  0  0  0  0  0
   11.3126  -16.0977   17.7150 C   0  0  0  0  0  0  0  0  0  0  0  0
   11.5771  -17.3061   17.8984 O   0  0  0  0  0  0  0  0  0  0  0  0
    8.9849  -10.6405   19.2692 C   0  0  0  0  0  0  0  0  0  0  0  0
   14.4281  -14.2273   18.8367 C   0  0  1  0  0  0  0  0  0  0  0  0
   13.5292  -15.4371   18.7334 N   0  0  0  0  0  0  0  0  0  0  0  0
   12.2658  -15.1409   18.1065 C   0  0  0  0  0  0  0  0  0  0  0  0
   13.2801  -16.0516   20.0636 O   0  0  0  0  0  0  0  0  0  0  0  0
   12.3379  -15.6184   20.8102 O   0  0  0  0  0  0  0  0  0  0  0  0
   13.8040  -19.9299   22.8759 C   0  0  0  0  0  0  0  0  0  0  0  0
   13.9761  -19.2335   21.6841 C   0  0  1  0  0  0  0  0  0  0  0  0
   13.7581  -17.7335   21.8776 N   0  0  0  0  0  0  0  0  0  0  0  0
   14.0495  -17.1240   20.5708 C   0  0  0  0  0  0  0  0  0  0  0  0
   14.7952  -17.2672   22.8240 O   0  0  0  0  0  0  0  0  0  0  0  0
   14.6877  -17.4869   24.1911 O   0  0  0  0  0  0  0  0  0  0  0  0
  2  1  1  0
  2  4  1  0
  3  2  2  0
  5  4  1  0
  6  5  1  0
  7  8  1  0
  7  6  1  0
  8 10  1  0
  8  9  1  6
 10 14  1  0
 10 11  2  0
 13 12  1  6
 13 15  1  0
 14 13  1  0
 15 16  2  0
 17 18  1  0
 19 18  1  6
 19 21  1  0
 20 15  1  0
 20 19  1  0
 21 22  1  0
 23 21  2  0
M  END
$$$$
