RAS.pdb
     RDKit          3D

 23 22  0  0  1  0  0  0  0  0999 V2000
    9.6559  -20.6007   13.4046 N   0  0  0  0  0  0  0  0  0  0  0  0
    8.9163  -19.4972   12.8992 C   0  0  0  0  0  0  0  0  0  0  0  0
    8.1341  -19.6364   11.8968 N   0  0  0  0  0  0  0  0  0  0  0  0
    9.0764  -18.2405   13.5443 N   0  0  0  0  0  0  0  0  0  0  0  0
    9.9901  -18.1901   14.6799 C   0  0  0  0  0  0  0  0  0  0  0  0
    9.3079  -18.7503   15.8788 C   0  0  0  0  0  0  0  0  0  0  0  0
    9.7431  -18.0601   17.1189 C   0  0  0  0  0  0  0  0  0  0  0  0
    8.5840  -17.6607   18.0026 C   0  0  2  0  0  0  0  0  0  0  0  0
    7.6714  -16.9127   17.1616 N   0  0  0  0  0  0  0  0  0  0  0  0
    9.0583  -16.7274   19.0706 C   0  0  0  0  0  0  0  0  0  0  0  0
   10.2599  -16.7506   19.4165 O   0  0  0  0  0  0  0  0  0  0  0  0
    7.5715  -18.8372   11.5510 C   0  0  0  0  0  0  0  0  0  0  0  0
    7.4754  -13.9764   21.1711 C   0  0  2  0  0  0  0  0  0  0  0  0
    8.5745  -14.9408   20.7913 N   0  0  0  0  0  0  0  0  0  0  0  0
    8.1995  -15.8150   19.7086 C   0  0  0  0  0  0  0  0  0  0  0  0
    9.0101  -15.7619   21.9510 O   0  0  0  0  0  0  0  0  0  0  0  0
    8.3670  -16.8177   22.2742 O   0  0  0  0  0  0  0  0  0  0  0  0
   12.4456  -16.4945   25.3480 C   0  0  0  0  0  0  0  0  0  0  0  0
   11.9682  -15.8444   24.2147 C   0  0  1  0  0  0  0  0  0  0  0  0
   10.5333  -16.2613   23.8949 N   0  0  0  0  0  0  0  0  0  0  0  0
   10.1322  -15.4341   22.7464 C   0  0  0  0  0  0  0  0  0  0  0  0
    9.7001  -15.8522   25.0468 O   0  0  0  0  0  0  0  0  0  0  0  0
    9.6157  -16.6249   26.1976 O   0  0  0  0  0  0  0  0  0  0  0  0
  2  1  1  0
  2  4  1  0
  3  2  2  0
  5  4  1  0
  6  5  1  0
  7  8  1  0
  7  6  1  0
  8 10  1  0
  8  9  1  6
 10 14  1  0
 10 11  2  0
 13 12  1  6
 13 15  1  0
 14 13  1  0
 15 16  2  0
 17 18  1  0
 19 18  1  6
 19 21  1  0
 20 15  1  0
 20 19  1  0
 21 22  1  0
 23 21  2  0
M  END
$$$$
