QKD.pdb
     RDKit          3D

 27 26  0  0  1  0  0  0  0  0999 V2000
    8.2876  -14.0660   15.0398 N   0  0  0  0  0  0  0  0  0  0  0  0
    7.6069  -13.9814   16.2936 C   0  0  0  0  0  0  0  0  0  0  0  0
    6.7802  -14.8793   16.5615 O   0  0  0  0  0  0  0  0  0  0  0  0
    7.8603  -12.8810   17.2419 C   0  0  0  0  0  0  0  0  0  0  0  0
    7.7076  -13.4068   18.6478 C   0  0  0  0  0  0  0  0  0  0  0  0
    8.8229  -14.3437   19.0184 C   0  0  2  0  0  0  0  0  0  0  0  0
    8.6490  -15.6632   18.4545 N   0  0  0  0  0  0  0  0  0  0  0  0
    8.8766  -14.3990   20.5242 C   0  0  0  0  0  0  0  0  0  0  0  0
    9.3467  -13.4195   21.1319 O   0  0  0  0  0  0  0  0  0  0  0  0
    8.3803  -15.5753   21.1216 N   0  0  0  0  0  0  0  0  0  0  0  0
    8.6363  -15.7970   22.5636 C   0  0  1  0  0  0  0  0  0  0  0  0
    7.3661  -16.3003   23.1286 C   0  0  0  0  0  0  0  0  0  0  0  0
    7.3926  -16.8810   24.5007 C   0  0  0  0  0  0  0  0  0  0  0  0
    6.9664  -18.3317   24.5313 C   0  0  0  0  0  0  0  0  0  0  0  0
    6.8216  -18.8699   25.9302 C   0  0  0  0  0  0  0  0  0  0  0  0
    6.4368  -20.2431   26.0126 N   0  0  0  0  0  0  0  0  0  0  0  0
    9.8155  -16.6768   22.6642 C   0  0  0  0  0  0  0  0  0  0  0  0
    9.8456  -17.7806   22.0166 O   0  0  0  0  0  0  0  0  0  0  0  0
   10.9459  -16.3554   23.4548 N   0  0  0  0  0  0  0  0  0  0  0  0
   11.9767  -17.3526   23.6389 C   0  0  1  0  0  0  0  0  0  0  0  0
   13.1127  -17.2034   22.6572 C   0  0  0  0  0  0  0  0  0  0  0  0
   13.7835  -15.8996   22.8994 C   0  0  0  0  0  0  0  0  0  0  0  0
   13.6137  -14.9314   22.0760 O   0  0  0  0  0  0  0  0  0  0  0  0
   12.4403  -17.4894   25.0292 C   0  0  0  0  0  0  0  0  0  0  0  0
   11.9141  -16.6348   25.9864 O   0  0  0  0  0  0  0  0  0  0  0  0
   14.6044  -15.6566   23.9969 O   0  0  0  0  0  0  0  0  0  0  0  0
   13.2863  -18.3618   25.3166 O   0  0  0  0  0  0  0  0  0  0  0  0
  2  1  1  0
  3  2  2  0
  4  2  1  0
  5  4  1  0
  6  5  1  0
  6  7  1  6
  8  6  1  0
  8 10  1  0
  9  8  2  0
 11 10  1  0
 11 12  1  6
 13 14  1  0
 13 12  1  0
 15 14  1  0
 16 15  1  0
 17 11  1  0
 18 17  2  0
 19 17  1  0
 20 24  1  0
 20 19  1  0
 21 22  1  0
 20 21  1  6
 22 26  1  0
 23 22  2  0
 24 25  1  0
 27 24  2  0
M  END
$$$$
