QKD.pdb
     RDKit          3D

 27 26  0  0  1  0  0  0  0  0999 V2000
    7.8872  -12.6758   17.0120 N   0  0  0  0  0  0  0  0  0  0  0  0
    7.9270  -14.0049   16.4883 C   0  0  0  0  0  0  0  0  0  0  0  0
    7.5313  -14.1734   15.3151 O   0  0  0  0  0  0  0  0  0  0  0  0
    8.4124  -15.1419   17.2920 C   0  0  0  0  0  0  0  0  0  0  0  0
    8.7255  -14.6536   18.6847 C   0  0  0  0  0  0  0  0  0  0  0  0
    8.7162  -15.7749   19.6856 C   0  0  2  0  0  0  0  0  0  0  0  0
    7.4117  -16.3812   19.8267 N   0  0  0  0  0  0  0  0  0  0  0  0
    9.1957  -15.2058   20.9969 C   0  0  0  0  0  0  0  0  0  0  0  0
   10.3207  -14.6738   21.0303 O   0  0  0  0  0  0  0  0  0  0  0  0
    8.3121  -15.3278   22.0883 N   0  0  0  0  0  0  0  0  0  0  0  0
    8.7362  -14.7939   23.4032 C   0  0  1  0  0  0  0  0  0  0  0  0
    7.5725  -14.0529   23.9348 C   0  0  0  0  0  0  0  0  0  0  0  0
    7.6776  -13.4751   25.3044 C   0  0  0  0  0  0  0  0  0  0  0  0
    6.4558  -12.6759   25.6986 C   0  0  0  0  0  0  0  0  0  0  0  0
    6.5665  -12.0786   27.0765 C   0  0  0  0  0  0  0  0  0  0  0  0
    5.4219  -11.3417   27.5094 N   0  0  0  0  0  0  0  0  0  0  0  0
    9.2292  -15.9355   24.1959 C   0  0  0  0  0  0  0  0  0  0  0  0
    8.5206  -16.9969   24.2958 O   0  0  0  0  0  0  0  0  0  0  0  0
   10.4774  -15.9213   24.8651 N   0  0  0  0  0  0  0  0  0  0  0  0
   10.9056  -17.1081   25.5715 C   0  0  1  0  0  0  0  0  0  0  0  0
   12.3779  -17.3888   25.3987 C   0  0  0  0  0  0  0  0  0  0  0  0
   12.7180  -17.2779   23.9563 C   0  0  0  0  0  0  0  0  0  0  0  0
   13.6162  -16.4463   23.5742 O   0  0  0  0  0  0  0  0  0  0  0  0
   10.4780  -17.1579   26.9790 C   0  0  0  0  0  0  0  0  0  0  0  0
    9.8176  -16.0583   27.5065 O   0  0  0  0  0  0  0  0  0  0  0  0
   12.1077  -18.0443   22.9677 O   0  0  0  0  0  0  0  0  0  0  0  0
   10.7137  -18.1765   27.6619 O   0  0  0  0  0  0  0  0  0  0  0  0
  2  1  1  0
  3  2  2  0
  4  2  1  0
  5  4  1  0
  6  5  1  0
  6  7  1  1
  8  6  1  0
  8 10  1  0
  9  8  2  0
 11 10  1  0
 11 12  1  1
 13 14  1  0
 13 12  1  0
 15 14  1  0
 16 15  1  0
 17 11  1  0
 18 17  2  0
 19 17  1  0
 20 24  1  0
 20 19  1  0
 21 22  1  0
 20 21  1  1
 22 26  1  0
 23 22  2  0
 24 25  1  0
 27 24  2  0
M  END
$$$$
