QKD.pdb
     RDKit          3D

 27 26  0  0  1  0  0  0  0  0999 V2000
    9.0042  -12.8705   17.0708 N   0  0  0  0  0  0  0  0  0  0  0  0
    7.8809  -13.7488   17.1668 C   0  0  0  0  0  0  0  0  0  0  0  0
    6.9308  -13.5566   16.3782 O   0  0  0  0  0  0  0  0  0  0  0  0
    7.8324  -14.8420   18.1552 C   0  0  0  0  0  0  0  0  0  0  0  0
    9.1107  -14.8294   18.9564 C   0  0  0  0  0  0  0  0  0  0  0  0
    9.1221  -15.9034   20.0078 C   0  0  2  0  0  0  0  0  0  0  0  0
    7.8706  -16.6234   20.0784 N   0  0  0  0  0  0  0  0  0  0  0  0
    9.4404  -15.2369   21.3223 C   0  0  0  0  0  0  0  0  0  0  0  0
   10.4516  -14.5134   21.3846 O   0  0  0  0  0  0  0  0  0  0  0  0
    8.5490  -15.4956   22.3830 N   0  0  0  0  0  0  0  0  0  0  0  0
    8.8555  -14.9295   23.7170 C   0  0  1  0  0  0  0  0  0  0  0  0
    7.6440  -14.1912   24.1327 C   0  0  0  0  0  0  0  0  0  0  0  0
    7.6905  -13.4381   25.4178 C   0  0  0  0  0  0  0  0  0  0  0  0
    6.4106  -12.6844   25.7019 C   0  0  0  0  0  0  0  0  0  0  0  0
    6.4694  -11.8923   26.9813 C   0  0  0  0  0  0  0  0  0  0  0  0
    5.2844  -11.1577   27.2922 N   0  0  0  0  0  0  0  0  0  0  0  0
    9.2913  -16.0485   24.5730 C   0  0  0  0  0  0  0  0  0  0  0  0
    8.6239  -17.1408   24.5847 O   0  0  0  0  0  0  0  0  0  0  0  0
   10.4394  -15.9789   25.3994 N   0  0  0  0  0  0  0  0  0  0  0  0
   10.8246  -17.1461   26.1610 C   0  0  1  0  0  0  0  0  0  0  0  0
   12.2946  -17.4625   26.0375 C   0  0  0  0  0  0  0  0  0  0  0  0
   12.5001  -18.3106   24.8346 C   0  0  0  0  0  0  0  0  0  0  0  0
   11.5027  -18.6091   24.0859 O   0  0  0  0  0  0  0  0  0  0  0  0
   10.3605  -17.1335   27.5577 C   0  0  0  0  0  0  0  0  0  0  0  0
   10.5936  -18.2549   28.3398 O   0  0  0  0  0  0  0  0  0  0  0  0
   13.7428  -18.8117   24.4579 O   0  0  0  0  0  0  0  0  0  0  0  0
    9.7747  -16.1260   28.0063 O   0  0  0  0  0  0  0  0  0  0  0  0
  2  1  1  0
  3  2  2  0
  4  2  1  0
  5  4  1  0
  6  5  1  0
  6  7  1  1
  8  6  1  0
  8 10  1  0
  9  8  2  0
 11 10  1  0
 11 12  1  1
 13 14  1  0
 13 12  1  0
 15 14  1  0
 16 15  1  0
 17 11  1  0
 18 17  2  0
 19 17  1  0
 20 24  1  0
 20 19  1  0
 21 22  1  0
 20 21  1  1
 22 26  1  0
 23 22  2  0
 24 25  1  0
 27 24  2  0
M  END
$$$$
