QKD.pdb
     RDKit          3D

 27 26  0  0  1  0  0  0  0  0999 V2000
    9.6750  -16.8988   12.7872 N   0  0  0  0  0  0  0  0  0  0  0  0
    9.4298  -17.3488   14.1213 C   0  0  0  0  0  0  0  0  0  0  0  0
    8.6656  -18.3266   14.2676 O   0  0  0  0  0  0  0  0  0  0  0  0
   10.0471  -16.6918   15.2882 C   0  0  0  0  0  0  0  0  0  0  0  0
   11.4215  -17.2758   15.5034 C   0  0  0  0  0  0  0  0  0  0  0  0
   11.4830  -18.1164   16.7479 C   0  0  2  0  0  0  0  0  0  0  0  0
   10.3372  -18.9866   16.8863 N   0  0  0  0  0  0  0  0  0  0  0  0
   11.5928  -17.1723   17.9184 C   0  0  0  0  0  0  0  0  0  0  0  0
   12.5349  -16.3586   17.9307 O   0  0  0  0  0  0  0  0  0  0  0  0
   10.6013  -17.2960   18.9126 N   0  0  0  0  0  0  0  0  0  0  0  0
   10.6503  -16.3809   20.0763 C   0  0  1  0  0  0  0  0  0  0  0  0
    9.3086  -15.7664   20.1661 C   0  0  0  0  0  0  0  0  0  0  0  0
    9.1355  -14.3845   19.6361 C   0  0  0  0  0  0  0  0  0  0  0  0
    7.7157  -13.8805   19.7664 C   0  0  0  0  0  0  0  0  0  0  0  0
    7.5133  -12.5299   19.1318 C   0  0  0  0  0  0  0  0  0  0  0  0
    6.1625  -12.0656   19.1168 N   0  0  0  0  0  0  0  0  0  0  0  0
   11.1085  -17.1738   21.2322 C   0  0  0  0  0  0  0  0  0  0  0  0
   11.6304  -18.3281   21.0480 O   0  0  0  0  0  0  0  0  0  0  0  0
   11.0036  -16.7129   22.5674 N   0  0  0  0  0  0  0  0  0  0  0  0
   12.0598  -17.0315   23.5021 C   0  0  1  0  0  0  0  0  0  0  0  0
   13.4142  -16.5611   23.0323 C   0  0  0  0  0  0  0  0  0  0  0  0
   14.3367  -17.7256   22.9961 C   0  0  0  0  0  0  0  0  0  0  0  0
   14.7425  -18.2531   24.0922 O   0  0  0  0  0  0  0  0  0  0  0  0
   11.7720  -16.6405   24.8916 C   0  0  0  0  0  0  0  0  0  0  0  0
   12.4207  -17.3164   25.9143 O   0  0  0  0  0  0  0  0  0  0  0  0
   14.7975  -18.2971   21.8135 O   0  0  0  0  0  0  0  0  0  0  0  0
   10.9609  -15.7188   25.1199 O   0  0  0  0  0  0  0  0  0  0  0  0
  2  1  1  0
  3  2  2  0
  4  2  1  0
  5  4  1  0
  6  5  1  0
  6  7  1  1
  8  6  1  0
  8 10  1  0
  9  8  2  0
 11 10  1  0
 11 12  1  1
 13 14  1  0
 13 12  1  0
 15 14  1  0
 16 15  1  0
 17 11  1  0
 18 17  2  0
 19 17  1  0
 20 24  1  0
 20 19  1  0
 21 22  1  0
 20 21  1  6
 22 26  1  0
 23 22  2  0
 24 25  1  0
 27 24  2  0
M  END
$$$$
