QKD.pdb
     RDKit          3D

 27 26  0  0  1  0  0  0  0  0999 V2000
    8.5489  -12.9907   16.9894 N   0  0  0  0  0  0  0  0  0  0  0  0
    7.7360  -14.1356   16.7235 C   0  0  0  0  0  0  0  0  0  0  0  0
    7.1596  -14.1877   15.6160 O   0  0  0  0  0  0  0  0  0  0  0  0
    7.5743  -15.2192   17.7105 C   0  0  0  0  0  0  0  0  0  0  0  0
    8.3550  -14.8656   18.9521 C   0  0  0  0  0  0  0  0  0  0  0  0
    7.7729  -15.5075   20.1802 C   0  0  2  0  0  0  0  0  0  0  0  0
    6.3773  -15.1810   20.3679 N   0  0  0  0  0  0  0  0  0  0  0  0
    8.6003  -15.0524   21.3556 C   0  0  0  0  0  0  0  0  0  0  0  0
    9.0312  -13.8845   21.3539 O   0  0  0  0  0  0  0  0  0  0  0  0
    8.8161  -16.0060   22.3710 N   0  0  0  0  0  0  0  0  0  0  0  0
    9.7022  -15.6452   23.5017 C   0  0  1  0  0  0  0  0  0  0  0  0
    8.9573  -15.9972   24.7294 C   0  0  0  0  0  0  0  0  0  0  0  0
    9.6983  -15.9932   26.0223 C   0  0  0  0  0  0  0  0  0  0  0  0
    8.8904  -16.5711   27.1625 C   0  0  0  0  0  0  0  0  0  0  0  0
    9.6093  -16.5010   28.4838 C   0  0  0  0  0  0  0  0  0  0  0  0
   10.7187  -17.3910   28.6161 N   0  0  0  0  0  0  0  0  0  0  0  0
   10.9914  -16.3246   23.2760 C   0  0  0  0  0  0  0  0  0  0  0  0
   11.0110  -17.5320   22.8510 O   0  0  0  0  0  0  0  0  0  0  0  0
   12.2395  -15.6956   23.5056 N   0  0  0  0  0  0  0  0  0  0  0  0
   13.4533  -16.4524   23.2945 C   0  0  1  0  0  0  0  0  0  0  0  0
   14.6332  -15.5765   22.9527 C   0  0  0  0  0  0  0  0  0  0  0  0
   15.8208  -16.4421   22.7316 C   0  0  0  0  0  0  0  0  0  0  0  0
   15.8933  -17.1699   21.6783 O   0  0  0  0  0  0  0  0  0  0  0  0
   13.7529  -17.4196   24.3627 C   0  0  0  0  0  0  0  0  0  0  0  0
   14.2863  -18.6496   24.0075 O   0  0  0  0  0  0  0  0  0  0  0  0
   16.8904  -16.5108   23.6196 O   0  0  0  0  0  0  0  0  0  0  0  0
   13.5255  -17.1176   25.5529 O   0  0  0  0  0  0  0  0  0  0  0  0
  2  1  1  0
  3  2  2  0
  4  2  1  0
  5  4  1  0
  6  5  1  0
  6  7  1  1
  8  6  1  0
  8 10  1  0
  9  8  2  0
 11 10  1  0
 11 12  1  1
 13 14  1  0
 13 12  1  0
 15 14  1  0
 16 15  1  0
 17 11  1  0
 18 17  2  0
 19 17  1  0
 20 24  1  0
 20 19  1  0
 21 22  1  0
 20 21  1  1
 22 26  1  0
 23 22  2  0
 24 25  1  0
 27 24  2  0
M  END
$$$$
