QKD.pdb
     RDKit          3D

 27 26  0  0  1  0  0  0  0  0999 V2000
    4.8693  -22.8698   24.3875 N   0  0  0  0  0  0  0  0  0  0  0  0
    4.9662  -21.5183   23.9333 C   0  0  0  0  0  0  0  0  0  0  0  0
    3.9277  -20.9848   23.4879 O   0  0  0  0  0  0  0  0  0  0  0  0
    6.2372  -20.7722   23.9816 C   0  0  0  0  0  0  0  0  0  0  0  0
    5.9498  -19.3083   23.7570 C   0  0  0  0  0  0  0  0  0  0  0  0
    5.9648  -18.9533   22.2965 C   0  0  2  0  0  0  0  0  0  0  0  0
    5.9904  -20.1195   21.4428 N   0  0  0  0  0  0  0  0  0  0  0  0
    7.1726  -18.0818   22.0621 C   0  0  0  0  0  0  0  0  0  0  0  0
    8.2318  -18.6292   21.7041 O   0  0  0  0  0  0  0  0  0  0  0  0
    6.9926  -16.6996   22.2720 N   0  0  0  0  0  0  0  0  0  0  0  0
    8.1375  -15.7929   22.0246 C   0  0  1  0  0  0  0  0  0  0  0  0
    7.5512  -14.4611   21.7629 C   0  0  0  0  0  0  0  0  0  0  0  0
    8.2089  -13.5956   20.7436 C   0  0  0  0  0  0  0  0  0  0  0  0
    7.4406  -13.5353   19.4425 C   0  0  0  0  0  0  0  0  0  0  0  0
    8.1353  -12.7121   18.3901 C   0  0  0  0  0  0  0  0  0  0  0  0
    7.4229  -12.5793   17.1590 N   0  0  0  0  0  0  0  0  0  0  0  0
    9.0453  -15.9157   23.1803 C   0  0  0  0  0  0  0  0  0  0  0  0
    8.5867  -16.2896   24.3155 O   0  0  0  0  0  0  0  0  0  0  0  0
   10.4320  -15.6398   23.0979 N   0  0  0  0  0  0  0  0  0  0  0  0
   11.3409  -16.3606   23.9612 C   0  0  1  0  0  0  0  0  0  0  0  0
   10.8634  -17.7576   24.2722 C   0  0  0  0  0  0  0  0  0  0  0  0
   11.1580  -18.0553   25.6981 C   0  0  0  0  0  0  0  0  0  0  0  0
   11.7751  -17.1909   26.4166 O   0  0  0  0  0  0  0  0  0  0  0  0
   12.7451  -16.3238   23.5216 C   0  0  0  0  0  0  0  0  0  0  0  0
   13.0518  -15.6458   22.3513 O   0  0  0  0  0  0  0  0  0  0  0  0
   10.7924  -19.2457   26.3199 O   0  0  0  0  0  0  0  0  0  0  0  0
   13.6222  -16.8951   24.2028 O   0  0  0  0  0  0  0  0  0  0  0  0
  2  1  1  0
  3  2  2  0
  4  2  1  0
  5  4  1  0
  6  5  1  0
  6  7  1  6
  8  6  1  0
  8 10  1  0
  9  8  2  0
 11 10  1  0
 11 12  1  1
 13 14  1  0
 13 12  1  0
 15 14  1  0
 16 15  1  0
 17 11  1  0
 18 17  2  0
 19 17  1  0
 20 24  1  0
 20 19  1  0
 21 22  1  0
 20 21  1  6
 22 26  1  0
 23 22  2  0
 24 25  1  0
 27 24  2  0
M  END
$$$$
