QKD.pdb
     RDKit          3D

 27 26  0  0  1  0  0  0  0  0999 V2000
   10.5012  -15.8708   13.4195 N   0  0  0  0  0  0  0  0  0  0  0  0
   10.7370  -17.1593   13.9907 C   0  0  0  0  0  0  0  0  0  0  0  0
    9.9054  -18.0590   13.7448 O   0  0  0  0  0  0  0  0  0  0  0  0
   11.9115  -17.4287   14.8406 C   0  0  0  0  0  0  0  0  0  0  0  0
   11.7740  -16.6441   16.1218 C   0  0  0  0  0  0  0  0  0  0  0  0
   12.2425  -17.4321   17.3130 C   0  0  2  0  0  0  0  0  0  0  0  0
   11.4492  -18.6191   17.5393 N   0  0  0  0  0  0  0  0  0  0  0  0
   12.1930  -16.5100   18.5048 C   0  0  0  0  0  0  0  0  0  0  0  0
   12.9538  -15.5248   18.5176 O   0  0  0  0  0  0  0  0  0  0  0  0
   11.2729  -16.8504   19.5170 N   0  0  0  0  0  0  0  0  0  0  0  0
   11.2405  -16.0270   20.7478 C   0  0  1  0  0  0  0  0  0  0  0  0
    9.8242  -15.6542   20.9495 C   0  0  0  0  0  0  0  0  0  0  0  0
    9.2681  -14.5460   20.1228 C   0  0  0  0  0  0  0  0  0  0  0  0
    7.7897  -14.3276   20.3537 C   0  0  0  0  0  0  0  0  0  0  0  0
    7.2372  -13.1741   19.5588 C   0  0  0  0  0  0  0  0  0  0  0  0
    5.8482  -12.9099   19.7629 N   0  0  0  0  0  0  0  0  0  0  0  0
   11.8900  -16.8137   21.8128 C   0  0  0  0  0  0  0  0  0  0  0  0
   11.7612  -18.0871   21.8347 O   0  0  0  0  0  0  0  0  0  0  0  0
   12.6713  -16.2212   22.8347 N   0  0  0  0  0  0  0  0  0  0  0  0
   13.1252  -17.0440   23.9338 C   0  0  1  0  0  0  0  0  0  0  0  0
   14.4929  -16.6471   24.4318 C   0  0  0  0  0  0  0  0  0  0  0  0
   15.4701  -16.8146   23.3248 C   0  0  0  0  0  0  0  0  0  0  0  0
   15.8743  -15.7894   22.6691 O   0  0  0  0  0  0  0  0  0  0  0  0
   12.1440  -17.1905   25.0211 C   0  0  0  0  0  0  0  0  0  0  0  0
   12.4452  -18.0467   26.0697 O   0  0  0  0  0  0  0  0  0  0  0  0
   15.9909  -18.0490   22.9475 O   0  0  0  0  0  0  0  0  0  0  0  0
   11.0737  -16.5483   24.9798 O   0  0  0  0  0  0  0  0  0  0  0  0
  2  1  1  0
  3  2  2  0
  4  2  1  0
  5  4  1  0
  6  5  1  0
  6  7  1  1
  8  6  1  0
  8 10  1  0
  9  8  2  0
 11 10  1  0
 11 12  1  1
 13 14  1  0
 13 12  1  0
 15 14  1  0
 16 15  1  0
 17 11  1  0
 18 17  2  0
 19 17  1  0
 20 24  1  0
 20 19  1  0
 21 22  1  0
 20 21  1  1
 22 26  1  0
 23 22  2  0
 24 25  1  0
 27 24  2  0
M  END
$$$$
