QKD.pdb
     RDKit          3D

 27 26  0  0  1  0  0  0  0  0999 V2000
    7.2634  -14.4838   15.8444 N   0  0  0  0  0  0  0  0  0  0  0  0
    8.1442  -13.5731   16.5057 C   0  0  0  0  0  0  0  0  0  0  0  0
    9.0745  -13.0805   15.8323 O   0  0  0  0  0  0  0  0  0  0  0  0
    7.9733  -13.2219   17.9276 C   0  0  0  0  0  0  0  0  0  0  0  0
    6.9353  -14.1349   18.5319 C   0  0  0  0  0  0  0  0  0  0  0  0
    7.5615  -15.3174   19.2167 C   0  0  2  0  0  0  0  0  0  0  0  0
    6.6078  -16.3686   19.4902 N   0  0  0  0  0  0  0  0  0  0  0  0
    8.1934  -14.8123   20.4890 C   0  0  0  0  0  0  0  0  0  0  0  0
    9.2982  -14.2440   20.4111 O   0  0  0  0  0  0  0  0  0  0  0  0
    7.4643  -15.0314   21.6753 N   0  0  0  0  0  0  0  0  0  0  0  0
    8.0611  -14.6003   22.9607 C   0  0  1  0  0  0  0  0  0  0  0  0
    6.9261  -14.2132   23.8254 C   0  0  0  0  0  0  0  0  0  0  0  0
    7.1846  -14.0401   25.2828 C   0  0  0  0  0  0  0  0  0  0  0  0
    6.6720  -12.7212   25.8162 C   0  0  0  0  0  0  0  0  0  0  0  0
    6.9404  -12.5405   27.2869 C   0  0  0  0  0  0  0  0  0  0  0  0
    6.5003  -11.2961   27.8331 N   0  0  0  0  0  0  0  0  0  0  0  0
    8.9224  -15.7017   23.4297 C   0  0  0  0  0  0  0  0  0  0  0  0
    8.4942  -16.9075   23.3918 O   0  0  0  0  0  0  0  0  0  0  0  0
   10.2316  -15.4916   23.9276 N   0  0  0  0  0  0  0  0  0  0  0  0
   10.9856  -16.6261   24.4123 C   0  0  1  0  0  0  0  0  0  0  0  0
   12.4581  -16.5225   24.1002 C   0  0  0  0  0  0  0  0  0  0  0  0
   13.1319  -17.7630   24.5646 C   0  0  0  0  0  0  0  0  0  0  0  0
   12.5326  -18.8920   24.4619 O   0  0  0  0  0  0  0  0  0  0  0  0
   10.7249  -16.9647   25.8208 C   0  0  0  0  0  0  0  0  0  0  0  0
   10.2809  -15.9608   26.6686 O   0  0  0  0  0  0  0  0  0  0  0  0
   14.4099  -17.7760   25.1161 O   0  0  0  0  0  0  0  0  0  0  0  0
   10.9046  -18.1342   26.2199 O   0  0  0  0  0  0  0  0  0  0  0  0
  2  1  1  0
  3  2  2  0
  4  2  1  0
  5  4  1  0
  6  5  1  0
  6  7  1  1
  8  6  1  0
  8 10  1  0
  9  8  2  0
 11 10  1  0
 11 12  1  1
 13 14  1  0
 13 12  1  0
 15 14  1  0
 16 15  1  0
 17 11  1  0
 18 17  2  0
 19 17  1  0
 20 24  1  0
 20 19  1  0
 21 22  1  0
 20 21  1  1
 22 26  1  0
 23 22  2  0
 24 25  1  0
 27 24  2  0
M  END
$$$$
