QKD.pdb
     RDKit          3D

 27 26  0  0  1  0  0  0  0  0999 V2000
    8.5671  -12.0884   18.5145 N   0  0  0  0  0  0  0  0  0  0  0  0
    7.5831  -12.9841   17.9933 C   0  0  0  0  0  0  0  0  0  0  0  0
    7.1347  -12.7456   16.8515 O   0  0  0  0  0  0  0  0  0  0  0  0
    7.1059  -14.1472   18.7640 C   0  0  0  0  0  0  0  0  0  0  0  0
    7.9016  -14.2422   20.0422 C   0  0  0  0  0  0  0  0  0  0  0  0
    8.5297  -15.5974   20.2103 C   0  0  2  0  0  0  0  0  0  0  0  0
    7.6321  -16.6726   19.8529 N   0  0  0  0  0  0  0  0  0  0  0  0
    8.9675  -15.7104   21.6486 C   0  0  0  0  0  0  0  0  0  0  0  0
    9.7435  -14.8459   22.0963 O   0  0  0  0  0  0  0  0  0  0  0  0
    8.4500  -16.8035   22.3724 N   0  0  0  0  0  0  0  0  0  0  0  0
    8.9670  -17.0549   23.7375 C   0  0  1  0  0  0  0  0  0  0  0  0
    8.0214  -18.0050   24.3611 C   0  0  0  0  0  0  0  0  0  0  0  0
    8.5209  -18.8591   25.4754 C   0  0  0  0  0  0  0  0  0  0  0  0
    8.1982  -18.2910   26.8392 C   0  0  0  0  0  0  0  0  0  0  0  0
    8.6849  -19.1626   27.9666 C   0  0  0  0  0  0  0  0  0  0  0  0
    8.5268  -18.6057   29.2726 N   0  0  0  0  0  0  0  0  0  0  0  0
   10.3685  -17.4916   23.5966 C   0  0  0  0  0  0  0  0  0  0  0  0
   10.6460  -18.5350   22.9088 O   0  0  0  0  0  0  0  0  0  0  0  0
   11.4505  -16.7985   24.1924 N   0  0  0  0  0  0  0  0  0  0  0  0
   12.7293  -17.4638   24.3061 C   0  0  1  0  0  0  0  0  0  0  0  0
   13.8912  -16.5433   24.0254 C   0  0  0  0  0  0  0  0  0  0  0  0
   13.8591  -16.1596   22.5901 C   0  0  0  0  0  0  0  0  0  0  0  0
   13.5296  -17.0266   21.7046 O   0  0  0  0  0  0  0  0  0  0  0  0
   12.8994  -18.2321   25.5500 C   0  0  0  0  0  0  0  0  0  0  0  0
   11.9191  -18.1318   26.5259 O   0  0  0  0  0  0  0  0  0  0  0  0
   14.1696  -14.8813   22.1352 O   0  0  0  0  0  0  0  0  0  0  0  0
   13.9093  -18.9512   25.7002 O   0  0  0  0  0  0  0  0  0  0  0  0
  2  1  1  0
  3  2  2  0
  4  2  1  0
  5  4  1  0
  6  5  1  0
  6  7  1  1
  8  6  1  0
  8 10  1  0
  9  8  2  0
 11 10  1  0
 11 12  1  6
 13 14  1  0
 13 12  1  0
 15 14  1  0
 16 15  1  0
 17 11  1  0
 18 17  2  0
 19 17  1  0
 20 24  1  0
 20 19  1  0
 21 22  1  0
 20 21  1  1
 22 26  1  0
 23 22  2  0
 24 25  1  0
 27 24  2  0
M  END
$$$$
