QKD.pdb
     RDKit          3D

 27 26  0  0  1  0  0  0  0  0999 V2000
   10.4899  -19.5898   21.5912 N   0  0  0  0  0  0  0  0  0  0  0  0
   10.4154  -19.5846   20.1640 C   0  0  0  0  0  0  0  0  0  0  0  0
   11.1997  -20.3343   19.5439 O   0  0  0  0  0  0  0  0  0  0  0  0
    9.4559  -18.7309   19.4396 C   0  0  0  0  0  0  0  0  0  0  0  0
    8.6182  -17.9805   20.4453 C   0  0  0  0  0  0  0  0  0  0  0  0
    8.6052  -16.5028   20.1704 C   0  0  2  0  0  0  0  0  0  0  0  0
    9.3865  -16.1484   19.0071 N   0  0  0  0  0  0  0  0  0  0  0  0
    9.1279  -15.8150   21.4061 C   0  0  0  0  0  0  0  0  0  0  0  0
   10.3491  -15.5847   21.4783 O   0  0  0  0  0  0  0  0  0  0  0  0
    8.1708  -15.4871   22.3876 N   0  0  0  0  0  0  0  0  0  0  0  0
    8.6113  -14.7179   23.5743 C   0  0  1  0  0  0  0  0  0  0  0  0
    7.4157  -13.9932   24.0549 C   0  0  0  0  0  0  0  0  0  0  0  0
    7.5384  -13.1948   25.3072 C   0  0  0  0  0  0  0  0  0  0  0  0
    6.2384  -12.5371   25.7126 C   0  0  0  0  0  0  0  0  0  0  0  0
    6.3695  -11.6982   26.9562 C   0  0  0  0  0  0  0  0  0  0  0  0
    5.1912  -10.9820   27.3291 N   0  0  0  0  0  0  0  0  0  0  0  0
    9.2390  -15.6760   24.5032 C   0  0  0  0  0  0  0  0  0  0  0  0
    8.7347  -16.8429   24.6540 O   0  0  0  0  0  0  0  0  0  0  0  0
   10.4010  -15.3677   25.2522 N   0  0  0  0  0  0  0  0  0  0  0  0
   10.9729  -16.3851   26.1057 C   0  0  1  0  0  0  0  0  0  0  0  0
   10.1061  -16.6972   27.3005 C   0  0  0  0  0  0  0  0  0  0  0  0
   10.8315  -17.6514   28.1791 C   0  0  0  0  0  0  0  0  0  0  0  0
   11.5594  -18.5706   27.6599 O   0  0  0  0  0  0  0  0  0  0  0  0
   11.4122  -17.5939   25.3900 C   0  0  0  0  0  0  0  0  0  0  0  0
   12.7245  -18.0137   25.5490 O   0  0  0  0  0  0  0  0  0  0  0  0
   10.7710  -17.6055   29.5689 O   0  0  0  0  0  0  0  0  0  0  0  0
   10.6051  -18.2111   24.6639 O   0  0  0  0  0  0  0  0  0  0  0  0
  2  1  1  0
  3  2  2  0
  4  2  1  0
  5  4  1  0
  6  5  1  0
  6  7  1  6
  8  6  1  0
  8 10  1  0
  9  8  2  0
 11 10  1  0
 11 12  1  1
 13 14  1  0
 13 12  1  0
 15 14  1  0
 16 15  1  0
 17 11  1  0
 18 17  2  0
 19 17  1  0
 20 24  1  0
 20 19  1  0
 21 22  1  0
 20 21  1  1
 22 26  1  0
 23 22  2  0
 24 25  1  0
 27 24  2  0
M  END
$$$$
