QKD.pdb
     RDKit          3D

 27 26  0  0  1  0  0  0  0  0999 V2000
   10.4959  -21.5098   14.3875 N   0  0  0  0  0  0  0  0  0  0  0  0
   10.7678  -20.4907   15.3518 C   0  0  0  0  0  0  0  0  0  0  0  0
   11.9528  -20.3505   15.7226 O   0  0  0  0  0  0  0  0  0  0  0  0
    9.6996  -19.6327   15.8970 C   0  0  0  0  0  0  0  0  0  0  0  0
   10.2620  -18.8244   17.0399 C   0  0  0  0  0  0  0  0  0  0  0  0
    9.2911  -17.7811   17.5177 C   0  0  2  0  0  0  0  0  0  0  0  0
    8.9607  -16.8195   16.4903 N   0  0  0  0  0  0  0  0  0  0  0  0
    9.9145  -17.1064   18.7133 C   0  0  0  0  0  0  0  0  0  0  0  0
   11.0684  -16.6537   18.5972 O   0  0  0  0  0  0  0  0  0  0  0  0
    9.1217  -17.0459   19.8771 N   0  0  0  0  0  0  0  0  0  0  0  0
    9.7229  -16.4937   21.1131 C   0  0  1  0  0  0  0  0  0  0  0  0
    8.5896  -16.0490   21.9520 C   0  0  0  0  0  0  0  0  0  0  0  0
    8.8873  -15.1830   23.1276 C   0  0  0  0  0  0  0  0  0  0  0  0
    7.6396  -14.7230   23.8475 C   0  0  0  0  0  0  0  0  0  0  0  0
    7.9308  -13.7543   24.9631 C   0  0  0  0  0  0  0  0  0  0  0  0
    6.7807  -13.2678   25.6566 N   0  0  0  0  0  0  0  0  0  0  0  0
   10.6061  -17.5358   21.6686 C   0  0  0  0  0  0  0  0  0  0  0  0
   10.8625  -18.5868   20.9842 O   0  0  0  0  0  0  0  0  0  0  0  0
   11.2039  -17.4311   22.9484 N   0  0  0  0  0  0  0  0  0  0  0  0
   12.6458  -17.4626   23.0512 C   0  0  1  0  0  0  0  0  0  0  0  0
   13.3292  -17.1996   21.7320 C   0  0  0  0  0  0  0  0  0  0  0  0
   14.7908  -17.4071   21.9030 C   0  0  0  0  0  0  0  0  0  0  0  0
   15.2248  -18.4979   22.4189 O   0  0  0  0  0  0  0  0  0  0  0  0
   13.1891  -16.6435   24.1468 C   0  0  0  0  0  0  0  0  0  0  0  0
   14.2273  -17.1629   24.9057 O   0  0  0  0  0  0  0  0  0  0  0  0
   15.7441  -16.4664   21.5242 O   0  0  0  0  0  0  0  0  0  0  0  0
   12.7120  -15.5109   24.3683 O   0  0  0  0  0  0  0  0  0  0  0  0
  2  1  1  0
  3  2  2  0
  4  2  1  0
  5  4  1  0
  6  5  1  0
  6  7  1  6
  8  6  1  0
  8 10  1  0
  9  8  2  0
 11 10  1  0
 11 12  1  1
 13 14  1  0
 13 12  1  0
 15 14  1  0
 16 15  1  0
 17 11  1  0
 18 17  2  0
 19 17  1  0
 20 24  1  0
 20 19  1  0
 21 22  1  0
 20 21  1  6
 22 26  1  0
 23 22  2  0
 24 25  1  0
 27 24  2  0
M  END
$$$$
