QKD.pdb
     RDKit          3D

 27 26  0  0  1  0  0  0  0  0999 V2000
    7.3578  -15.0671   17.0107 N   0  0  0  0  0  0  0  0  0  0  0  0
    7.5534  -13.6796   16.7299 C   0  0  0  0  0  0  0  0  0  0  0  0
    7.4979  -13.3208   15.5342 O   0  0  0  0  0  0  0  0  0  0  0  0
    7.8132  -12.6998   17.8008 C   0  0  0  0  0  0  0  0  0  0  0  0
    7.6327  -13.3799   19.1354 C   0  0  0  0  0  0  0  0  0  0  0  0
    8.9249  -13.9466   19.6533 C   0  0  2  0  0  0  0  0  0  0  0  0
    9.5058  -14.9160   18.7520 N   0  0  0  0  0  0  0  0  0  0  0  0
    8.6343  -14.5616   20.9989 C   0  0  0  0  0  0  0  0  0  0  0  0
    8.2127  -13.8198   21.9053 O   0  0  0  0  0  0  0  0  0  0  0  0
    8.8689  -15.9467   21.1136 N   0  0  0  0  0  0  0  0  0  0  0  0
    8.7493  -16.5749   22.4497 C   0  0  1  0  0  0  0  0  0  0  0  0
    7.7239  -17.6309   22.3113 C   0  0  0  0  0  0  0  0  0  0  0  0
    7.5013  -18.5452   23.4668 C   0  0  0  0  0  0  0  0  0  0  0  0
    6.5523  -19.6774   23.1438 C   0  0  0  0  0  0  0  0  0  0  0  0
    6.2893  -20.5754   24.3237 C   0  0  0  0  0  0  0  0  0  0  0  0
    5.2630  -21.5491   24.1251 N   0  0  0  0  0  0  0  0  0  0  0  0
   10.1035  -16.9973   22.8528 C   0  0  0  0  0  0  0  0  0  0  0  0
   10.7735  -17.7916   22.1053 O   0  0  0  0  0  0  0  0  0  0  0  0
   10.7189  -16.5565   24.0499 N   0  0  0  0  0  0  0  0  0  0  0  0
   11.8321  -17.3101   24.5824 C   0  0  1  0  0  0  0  0  0  0  0  0
   13.1173  -16.5198   24.5943 C   0  0  0  0  0  0  0  0  0  0  0  0
   13.6692  -16.4871   23.2148 C   0  0  0  0  0  0  0  0  0  0  0  0
   13.9578  -15.3632   22.6690 O   0  0  0  0  0  0  0  0  0  0  0  0
   11.5545  -17.9644   25.8712 C   0  0  0  0  0  0  0  0  0  0  0  0
   12.5355  -18.7738   26.4243 O   0  0  0  0  0  0  0  0  0  0  0  0
   13.9021  -17.6326   22.4592 O   0  0  0  0  0  0  0  0  0  0  0  0
   10.4558  -17.7795   26.4354 O   0  0  0  0  0  0  0  0  0  0  0  0
  2  1  1  0
  3  2  2  0
  4  2  1  0
  5  4  1  0
  6  5  1  0
  6  7  1  6
  8  6  1  0
  8 10  1  0
  9  8  2  0
 11 10  1  0
 11 12  1  6
 13 14  1  0
 13 12  1  0
 15 14  1  0
 16 15  1  0
 17 11  1  0
 18 17  2  0
 19 17  1  0
 20 24  1  0
 20 19  1  0
 21 22  1  0
 20 21  1  1
 22 26  1  0
 23 22  2  0
 24 25  1  0
 27 24  2  0
M  END
$$$$
