QKD.pdb
     RDKit          3D

 27 26  0  0  1  0  0  0  0  0999 V2000
    6.8274  -12.3966   18.3379 N   0  0  0  0  0  0  0  0  0  0  0  0
    7.3364  -13.2562   17.3159 C   0  0  0  0  0  0  0  0  0  0  0  0
    7.0557  -12.9719   16.1320 O   0  0  0  0  0  0  0  0  0  0  0  0
    8.1606  -14.4369   17.6338 C   0  0  0  0  0  0  0  0  0  0  0  0
    8.1428  -14.6538   19.1267 C   0  0  0  0  0  0  0  0  0  0  0  0
    9.0336  -15.7930   19.5367 C   0  0  2  0  0  0  0  0  0  0  0  0
    8.9121  -16.9352   18.6592 N   0  0  0  0  0  0  0  0  0  0  0  0
    8.6694  -16.1555   20.9542 C   0  0  0  0  0  0  0  0  0  0  0  0
    8.6428  -15.2470   21.8048 O   0  0  0  0  0  0  0  0  0  0  0  0
    8.3854  -17.5149   21.1953 N   0  0  0  0  0  0  0  0  0  0  0  0
    8.0846  -17.9382   22.5825 C   0  0  1  0  0  0  0  0  0  0  0  0
    7.1950  -19.1131   22.4645 C   0  0  0  0  0  0  0  0  0  0  0  0
    6.8435  -19.8520   23.7100 C   0  0  0  0  0  0  0  0  0  0  0  0
    5.9474  -21.0425   23.4519 C   0  0  0  0  0  0  0  0  0  0  0  0
    5.6528  -21.8346   24.6982 C   0  0  0  0  0  0  0  0  0  0  0  0
    4.7817  -22.9514   24.5127 N   0  0  0  0  0  0  0  0  0  0  0  0
    9.3768  -18.1356   23.2652 C   0  0  0  0  0  0  0  0  0  0  0  0
   10.1374  -19.1070   22.9238 O   0  0  0  0  0  0  0  0  0  0  0  0
    9.8343  -17.2842   24.3005 N   0  0  0  0  0  0  0  0  0  0  0  0
   11.0266  -17.6508   25.0317 C   0  0  1  0  0  0  0  0  0  0  0  0
   12.1493  -16.6596   24.8488 C   0  0  0  0  0  0  0  0  0  0  0  0
   12.8292  -16.9428   23.5581 C   0  0  0  0  0  0  0  0  0  0  0  0
   12.8741  -18.1435   23.1100 O   0  0  0  0  0  0  0  0  0  0  0  0
   10.7869  -17.9848   26.4450 C   0  0  0  0  0  0  0  0  0  0  0  0
    9.5137  -17.7938   26.9607 O   0  0  0  0  0  0  0  0  0  0  0  0
   13.4339  -15.9580   22.7825 O   0  0  0  0  0  0  0  0  0  0  0  0
   11.7220  -18.4294   27.1432 O   0  0  0  0  0  0  0  0  0  0  0  0
  2  1  1  0
  3  2  2  0
  4  2  1  0
  5  4  1  0
  6  5  1  0
  6  7  1  6
  8  6  1  0
  8 10  1  0
  9  8  2  0
 11 10  1  0
 11 12  1  6
 13 14  1  0
 13 12  1  0
 15 14  1  0
 16 15  1  0
 17 11  1  0
 18 17  2  0
 19 17  1  0
 20 24  1  0
 20 19  1  0
 21 22  1  0
 20 21  1  1
 22 26  1  0
 23 22  2  0
 24 25  1  0
 27 24  2  0
M  END
$$$$
