QKD.pdb
     RDKit          3D

 27 26  0  0  1  0  0  0  0  0999 V2000
    6.9898  -17.7702   17.8734 N   0  0  0  0  0  0  0  0  0  0  0  0
    8.0992  -17.0242   17.3685 C   0  0  0  0  0  0  0  0  0  0  0  0
    8.8905  -17.6158   16.6034 O   0  0  0  0  0  0  0  0  0  0  0  0
    8.3137  -15.6109   17.7304 C   0  0  0  0  0  0  0  0  0  0  0  0
    7.1545  -15.1449   18.5761 C   0  0  0  0  0  0  0  0  0  0  0  0
    7.3482  -13.7360   19.0626 C   0  0  2  0  0  0  0  0  0  0  0  0
    8.1158  -12.9313   18.1392 N   0  0  0  0  0  0  0  0  0  0  0  0
    8.0272  -13.8179   20.4063 C   0  0  0  0  0  0  0  0  0  0  0  0
    9.2717  -13.8267   20.4363 O   0  0  0  0  0  0  0  0  0  0  0  0
    7.1782  -13.8777   21.5298 N   0  0  0  0  0  0  0  0  0  0  0  0
    7.7900  -13.8662   22.8787 C   0  0  1  0  0  0  0  0  0  0  0  0
    6.7404  -13.3744   23.7963 C   0  0  0  0  0  0  0  0  0  0  0  0
    7.1180  -13.1104   25.2135 C   0  0  0  0  0  0  0  0  0  0  0  0
    5.9832  -12.5238   26.0228 C   0  0  0  0  0  0  0  0  0  0  0  0
    6.4109  -12.0847   27.3983 C   0  0  0  0  0  0  0  0  0  0  0  0
    5.3991  -11.4308   28.1658 N   0  0  0  0  0  0  0  0  0  0  0  0
    8.3222  -15.2193   23.1248 C   0  0  0  0  0  0  0  0  0  0  0  0
    8.0956  -16.1572   22.2835 O   0  0  0  0  0  0  0  0  0  0  0  0
    9.0933  -15.5431   24.2679 N   0  0  0  0  0  0  0  0  0  0  0  0
   10.0655  -16.6095   24.1763 C   0  0  1  0  0  0  0  0  0  0  0  0
   11.0572  -16.3987   23.0590 C   0  0  0  0  0  0  0  0  0  0  0  0
   12.0373  -17.5157   23.0749 C   0  0  0  0  0  0  0  0  0  0  0  0
   11.6273  -18.7231   23.2102 O   0  0  0  0  0  0  0  0  0  0  0  0
   10.7119  -16.9460   25.4551 C   0  0  0  0  0  0  0  0  0  0  0  0
   11.4635  -18.1094   25.5277 O   0  0  0  0  0  0  0  0  0  0  0  0
   13.4102  -17.3275   22.9447 O   0  0  0  0  0  0  0  0  0  0  0  0
   10.5743  -16.1867   26.4370 O   0  0  0  0  0  0  0  0  0  0  0  0
  2  1  1  0
  3  2  2  0
  4  2  1  0
  5  4  1  0
  6  5  1  0
  6  7  1  6
  8  6  1  0
  8 10  1  0
  9  8  2  0
 11 10  1  0
 11 12  1  1
 13 14  1  0
 13 12  1  0
 15 14  1  0
 16 15  1  0
 17 11  1  0
 18 17  2  0
 19 17  1  0
 20 24  1  0
 20 19  1  0
 21 22  1  0
 20 21  1  6
 22 26  1  0
 23 22  2  0
 24 25  1  0
 27 24  2  0
M  END
$$$$
