QKD.pdb
     RDKit          3D

 27 26  0  0  1  0  0  0  0  0999 V2000
    9.8121  -14.0600   16.7841 N   0  0  0  0  0  0  0  0  0  0  0  0
    8.3974  -14.0619   16.5817 C   0  0  0  0  0  0  0  0  0  0  0  0
    7.9758  -14.4394   15.4676 O   0  0  0  0  0  0  0  0  0  0  0  0
    7.4613  -13.6353   17.6382 C   0  0  0  0  0  0  0  0  0  0  0  0
    8.2326  -13.4387   18.9198 C   0  0  0  0  0  0  0  0  0  0  0  0
    8.3651  -14.7199   19.6946 C   0  0  2  0  0  0  0  0  0  0  0  0
    7.1227  -15.4551   19.7668 N   0  0  0  0  0  0  0  0  0  0  0  0
    8.8636  -14.3588   21.0710 C   0  0  0  0  0  0  0  0  0  0  0  0
    9.9516  -13.7610   21.1639 O   0  0  0  0  0  0  0  0  0  0  0  0
    8.0389  -14.7358   22.1501 N   0  0  0  0  0  0  0  0  0  0  0  0
    8.4923  -14.4285   23.5263 C   0  0  1  0  0  0  0  0  0  0  0  0
    7.3205  -13.8541   24.2210 C   0  0  0  0  0  0  0  0  0  0  0  0
    7.5025  -13.3752   25.6204 C   0  0  0  0  0  0  0  0  0  0  0  0
    6.2346  -12.8027   26.2134 C   0  0  0  0  0  0  0  0  0  0  0  0
    6.4161  -12.3199   27.6282 C   0  0  0  0  0  0  0  0  0  0  0  0
    5.2469  -11.7634   28.2314 N   0  0  0  0  0  0  0  0  0  0  0  0
    9.0650  -15.6691   24.0811 C   0  0  0  0  0  0  0  0  0  0  0  0
    8.4117  -16.7667   23.9980 O   0  0  0  0  0  0  0  0  0  0  0  0
   10.3323  -15.7125   24.7122 N   0  0  0  0  0  0  0  0  0  0  0  0
   10.7877  -16.9615   25.2808 C   0  0  1  0  0  0  0  0  0  0  0  0
   12.2721  -17.1714   25.1107 C   0  0  0  0  0  0  0  0  0  0  0  0
   12.6230  -16.9568   23.6826 C   0  0  0  0  0  0  0  0  0  0  0  0
   11.9481  -17.5443   22.7640 O   0  0  0  0  0  0  0  0  0  0  0  0
   10.3345  -17.1949   26.6616 C   0  0  0  0  0  0  0  0  0  0  0  0
   10.6734  -18.3929   27.2728 O   0  0  0  0  0  0  0  0  0  0  0  0
   13.6652  -16.1321   23.2689 O   0  0  0  0  0  0  0  0  0  0  0  0
    9.6636  -16.3207   27.2491 O   0  0  0  0  0  0  0  0  0  0  0  0
  2  1  1  0
  3  2  2  0
  4  2  1  0
  5  4  1  0
  6  5  1  0
  6  7  1  1
  8  6  1  0
  8 10  1  0
  9  8  2  0
 11 10  1  0
 11 12  1  1
 13 14  1  0
 13 12  1  0
 15 14  1  0
 16 15  1  0
 17 11  1  0
 18 17  2  0
 19 17  1  0
 20 24  1  0
 20 19  1  0
 21 22  1  0
 20 21  1  1
 22 26  1  0
 23 22  2  0
 24 25  1  0
 27 24  2  0
M  END
$$$$
