EMG.pdb
     RDKit          3D

 22 21  0  0  1  0  0  0  0  0999 V2000
    8.1343  -15.3729   19.8231 N   0  0  0  0  0  0  0  0  0  0  0  0
    7.4475  -15.6648   21.0664 C   0  0  1  0  0  0  0  0  0  0  0  0
    7.2446  -17.1642   21.1448 C   0  0  0  0  0  0  0  0  0  0  0  0
    8.3899  -17.7821   20.3513 C   0  0  0  0  0  0  0  0  0  0  0  0
    8.2791  -19.2460   20.2803 C   0  0  0  0  0  0  0  0  0  0  0  0
    7.4730  -19.8728   20.9969 O   0  0  0  0  0  0  0  0  0  0  0  0
    8.2176  -15.1091   22.1779 C   0  0  0  0  0  0  0  0  0  0  0  0
    9.4474  -14.8262   22.0469 O   0  0  0  0  0  0  0  0  0  0  0  0
    9.0825  -19.9422   19.4036 O   0  0  0  0  0  0  0  0  0  0  0  0
    5.6401  -10.7839   26.3108 C   0  0  0  0  0  0  0  0  0  0  0  0
    6.7672  -11.6912   27.3967 S   0  0  0  0  0  0  0  0  0  0  0  0
    7.9402  -12.6936   26.4715 C   0  0  0  0  0  0  0  0  0  0  0  0
    7.2830  -13.4431   25.3380 C   0  0  0  0  0  0  0  0  0  0  0  0
    8.3055  -14.2340   24.5449 C   0  0  2  0  0  0  0  0  0  0  0  0
    7.5969  -14.8712   23.4443 N   0  0  0  0  0  0  0  0  0  0  0  0
    8.9776  -15.2476   25.3989 C   0  0  0  0  0  0  0  0  0  0  0  0
    9.5396  -14.9061   26.4640 O   0  0  0  0  0  0  0  0  0  0  0  0
    9.0169  -16.6242   25.0598 N   0  0  0  0  0  0  0  0  0  0  0  0
    9.6071  -17.6188   25.9409 C   0  0  0  0  0  0  0  0  0  0  0  0
   11.0717  -17.6892   25.7760 C   0  0  0  0  0  0  0  0  0  0  0  0
   11.6373  -16.9308   24.9547 O   0  0  0  0  0  0  0  0  0  0  0  0
   11.8678  -18.5742   26.5034 O   0  0  0  0  0  0  0  0  0  0  0  0
  2  1  1  6
  3  2  1  0
  4  3  1  0
  5  4  1  0
  6  5  2  0
  7  8  2  0
  7  2  1  0
  9  5  1  0
 10 11  1  0
 11 12  1  0
 12 13  1  0
 14 13  1  1
 14 15  1  0
 15  7  1  0
 16 18  1  0
 16 14  1  0
 17 16  2  0
 19 20  1  0
 19 18  1  0
 20 22  1  0
 21 20  2  0
M  END
$$$$
