EMG.pdb
     RDKit          3D

 22 21  0  0  1  0  0  0  0  0999 V2000
    9.1725  -15.8639   20.3206 N   0  0  0  0  0  0  0  0  0  0  0  0
    8.2599  -16.3532   21.3357 C   0  0  1  0  0  0  0  0  0  0  0  0
    8.3650  -17.8644   21.3661 C   0  0  0  0  0  0  0  0  0  0  0  0
    7.0757  -18.3848   20.7415 C   0  0  0  0  0  0  0  0  0  0  0  0
    6.5376  -19.5376   21.4775 C   0  0  0  0  0  0  0  0  0  0  0  0
    7.1156  -19.9939   22.4845 O   0  0  0  0  0  0  0  0  0  0  0  0
    8.5743  -15.7087   22.6097 C   0  0  0  0  0  0  0  0  0  0  0  0
    9.7735  -15.4575   22.9391 O   0  0  0  0  0  0  0  0  0  0  0  0
    5.3694  -20.1281   21.0468 O   0  0  0  0  0  0  0  0  0  0  0  0
    7.1268  -10.2200   26.5165 C   0  0  0  0  0  0  0  0  0  0  0  0
    5.9817  -11.6133   26.6580 S   0  0  0  0  0  0  0  0  0  0  0  0
    6.8188  -13.1979   26.4999 C   0  0  0  0  0  0  0  0  0  0  0  0
    6.6754  -13.7852   25.1167 C   0  0  0  0  0  0  0  0  0  0  0  0
    7.8076  -14.7481   24.8155 C   0  0  2  0  0  0  0  0  0  0  0  0
    7.5302  -15.3454   23.5171 N   0  0  0  0  0  0  0  0  0  0  0  0
    7.9152  -15.7932   25.8666 C   0  0  0  0  0  0  0  0  0  0  0  0
    8.0604  -15.4711   27.0674 O   0  0  0  0  0  0  0  0  0  0  0  0
    7.8605  -17.1793   25.5711 N   0  0  0  0  0  0  0  0  0  0  0  0
    7.8088  -18.1889   26.6161 C   0  0  0  0  0  0  0  0  0  0  0  0
    9.1532  -18.4973   27.1398 C   0  0  0  0  0  0  0  0  0  0  0  0
   10.1479  -17.8867   26.6843 O   0  0  0  0  0  0  0  0  0  0  0  0
    9.3715  -19.4515   28.1338 O   0  0  0  0  0  0  0  0  0  0  0  0
  2  1  1  6
  3  2  1  0
  4  3  1  0
  5  4  1  0
  6  5  2  0
  7  8  2  0
  7  2  1  0
  9  5  1  0
 10 11  1  0
 11 12  1  0
 12 13  1  0
 14 13  1  1
 14 15  1  0
 15  7  1  0
 16 18  1  0
 16 14  1  0
 17 16  2  0
 19 20  1  0
 19 18  1  0
 20 22  1  0
 21 20  2  0
M  END
$$$$
