EMG.pdb
     RDKit          3D

 22 21  0  0  1  0  0  0  0  0999 V2000
    8.4930  -17.8583   21.3314 N   0  0  0  0  0  0  0  0  0  0  0  0
    9.8434  -17.7916   21.8553 C   0  0  1  0  0  0  0  0  0  0  0  0
   10.7937  -17.6875   20.6799 C   0  0  0  0  0  0  0  0  0  0  0  0
    9.9334  -17.3081   19.4803 C   0  0  0  0  0  0  0  0  0  0  0  0
   10.7371  -17.1428   18.2609 C   0  0  0  0  0  0  0  0  0  0  0  0
   10.6065  -17.9110   17.2867 O   0  0  0  0  0  0  0  0  0  0  0  0
    9.9352  -16.6761   22.7958 C   0  0  0  0  0  0  0  0  0  0  0  0
   11.0582  -16.2710   23.2252 O   0  0  0  0  0  0  0  0  0  0  0  0
   11.6549  -16.1174   18.1910 O   0  0  0  0  0  0  0  0  0  0  0  0
    6.2304  -11.3422   27.0994 C   0  0  0  0  0  0  0  0  0  0  0  0
    6.2363  -12.7922   26.0177 S   0  0  0  0  0  0  0  0  0  0  0  0
    7.7102  -12.8644   24.9884 C   0  0  0  0  0  0  0  0  0  0  0  0
    7.6737  -14.0197   24.0174 C   0  0  0  0  0  0  0  0  0  0  0  0
    8.7905  -15.0050   24.3035 C   0  0  2  0  0  0  0  0  0  0  0  0
    8.7534  -16.0135   23.2543 N   0  0  0  0  0  0  0  0  0  0  0  0
    8.6245  -15.6280   25.6424 C   0  0  0  0  0  0  0  0  0  0  0  0
    7.6125  -15.3791   26.3358 O   0  0  0  0  0  0  0  0  0  0  0  0
    9.5825  -16.5173   26.1930 N   0  0  0  0  0  0  0  0  0  0  0  0
    9.4277  -17.0928   27.5191 C   0  0  0  0  0  0  0  0  0  0  0  0
   10.6268  -17.8506   27.9253 C   0  0  0  0  0  0  0  0  0  0  0  0
   11.5670  -18.0007   27.1109 O   0  0  0  0  0  0  0  0  0  0  0  0
   10.7643  -18.4159   29.1931 O   0  0  0  0  0  0  0  0  0  0  0  0
  2  1  1  6
  3  2  1  0
  4  3  1  0
  5  4  1  0
  6  5  2  0
  7  8  2  0
  7  2  1  0
  9  5  1  0
 10 11  1  0
 11 12  1  0
 12 13  1  0
 14 13  1  6
 14 15  1  0
 15  7  1  0
 16 18  1  0
 16 14  1  0
 17 16  2  0
 19 20  1  0
 19 18  1  0
 20 22  1  0
 21 20  2  0
M  END
$$$$
