EMG.pdb
     RDKit          3D

 22 21  0  0  1  0  0  0  0  0999 V2000
    8.2384  -17.5226   22.1462 N   0  0  0  0  0  0  0  0  0  0  0  0
    9.5875  -16.9912   22.1316 C   0  0  1  0  0  0  0  0  0  0  0  0
    9.8022  -16.3038   20.7986 C   0  0  0  0  0  0  0  0  0  0  0  0
    9.8766  -17.4184   19.7617 C   0  0  0  0  0  0  0  0  0  0  0  0
   10.2684  -16.9104   18.4394 C   0  0  0  0  0  0  0  0  0  0  0  0
   11.1046  -15.9928   18.3167 O   0  0  0  0  0  0  0  0  0  0  0  0
    9.7674  -16.1159   23.2887 C   0  0  0  0  0  0  0  0  0  0  0  0
   10.8420  -15.4626   23.4560 O   0  0  0  0  0  0  0  0  0  0  0  0
    9.7007  -17.4589   17.3100 O   0  0  0  0  0  0  0  0  0  0  0  0
    7.0278  -11.2613   26.7791 C   0  0  0  0  0  0  0  0  0  0  0  0
    6.0267  -12.2645   25.6548 S   0  0  0  0  0  0  0  0  0  0  0  0
    7.0020  -13.5248   24.8198 C   0  0  0  0  0  0  0  0  0  0  0  0
    7.4610  -14.6108   25.7626 C   0  0  0  0  0  0  0  0  0  0  0  0
    8.8567  -15.0850   25.4063 C   0  0  2  0  0  0  0  0  0  0  0  0
    8.7291  -15.9766   24.2625 N   0  0  0  0  0  0  0  0  0  0  0  0
    9.4936  -15.7834   26.5531 C   0  0  0  0  0  0  0  0  0  0  0  0
    9.6919  -15.1795   27.6314 O   0  0  0  0  0  0  0  0  0  0  0  0
    9.9013  -17.1403   26.4876 N   0  0  0  0  0  0  0  0  0  0  0  0
   10.5312  -17.8113   27.6131 C   0  0  0  0  0  0  0  0  0  0  0  0
   10.8648  -19.2123   27.2923 C   0  0  0  0  0  0  0  0  0  0  0  0
   11.3454  -19.9514   28.1824 O   0  0  0  0  0  0  0  0  0  0  0  0
   10.6666  -19.7603   26.0249 O   0  0  0  0  0  0  0  0  0  0  0  0
  2  1  1  6
  3  2  1  0
  4  3  1  0
  5  4  1  0
  6  5  2  0
  7  8  2  0
  7  2  1  0
  9  5  1  0
 10 11  1  0
 11 12  1  0
 12 13  1  0
 14 13  1  1
 14 15  1  0
 15  7  1  0
 16 18  1  0
 16 14  1  0
 17 16  2  0
 19 20  1  0
 19 18  1  0
 20 22  1  0
 21 20  2  0
M  END
$$$$
