EMG.pdb
     RDKit          3D

 22 21  0  0  1  0  0  0  0  0999 V2000
    7.2159  -15.8119   20.8466 N   0  0  0  0  0  0  0  0  0  0  0  0
    8.5076  -16.2649   21.3253 C   0  0  1  0  0  0  0  0  0  0  0  0
    9.5179  -16.0429   20.2181 C   0  0  0  0  0  0  0  0  0  0  0  0
    9.8156  -17.4224   19.6424 C   0  0  0  0  0  0  0  0  0  0  0  0
   10.8173  -17.3626   18.5686 C   0  0  0  0  0  0  0  0  0  0  0  0
   11.9955  -17.0216   18.7963 O   0  0  0  0  0  0  0  0  0  0  0  0
    8.8257  -15.5675   22.5702 C   0  0  0  0  0  0  0  0  0  0  0  0
    9.6072  -14.5681   22.5807 O   0  0  0  0  0  0  0  0  0  0  0  0
   10.4483  -17.6903   17.2820 O   0  0  0  0  0  0  0  0  0  0  0  0
    6.5551  -10.4100   26.2766 C   0  0  0  0  0  0  0  0  0  0  0  0
    6.4805  -12.1966   26.5512 S   0  0  0  0  0  0  0  0  0  0  0  0
    7.2704  -13.1202   25.2246 C   0  0  0  0  0  0  0  0  0  0  0  0
    7.1903  -14.6122   25.4399 C   0  0  0  0  0  0  0  0  0  0  0  0
    8.4936  -15.2868   25.0575 C   0  0  2  0  0  0  0  0  0  0  0  0
    8.2589  -15.9998   23.8101 N   0  0  0  0  0  0  0  0  0  0  0  0
    8.9463  -16.2190   26.1227 C   0  0  0  0  0  0  0  0  0  0  0  0
    9.2353  -15.7871   27.2615 O   0  0  0  0  0  0  0  0  0  0  0  0
    9.0721  -17.6156   25.9099 N   0  0  0  0  0  0  0  0  0  0  0  0
    9.4400  -18.5285   26.9800 C   0  0  0  0  0  0  0  0  0  0  0  0
   10.9031  -18.5930   27.1594 C   0  0  0  0  0  0  0  0  0  0  0  0
   11.6441  -17.8750   26.4488 O   0  0  0  0  0  0  0  0  0  0  0  0
   11.5086  -19.4288   28.0979 O   0  0  0  0  0  0  0  0  0  0  0  0
  2  1  1  6
  3  2  1  0
  4  3  1  0
  5  4  1  0
  6  5  2  0
  7  8  2  0
  7  2  1  0
  9  5  1  0
 10 11  1  0
 11 12  1  0
 12 13  1  0
 14 13  1  1
 14 15  1  0
 15  7  1  0
 16 18  1  0
 16 14  1  0
 17 16  2  0
 19 20  1  0
 19 18  1  0
 20 22  1  0
 21 20  2  0
M  END
$$$$
