EMG.pdb
     RDKit          3D

 22 21  0  0  1  0  0  0  0  0999 V2000
    9.0728  -16.0950   19.9974 N   0  0  0  0  0  0  0  0  0  0  0  0
    9.3014  -17.0520   21.0626 C   0  0  1  0  0  0  0  0  0  0  0  0
   10.4600  -17.9376   20.6515 C   0  0  0  0  0  0  0  0  0  0  0  0
   10.7076  -17.6428   19.1768 C   0  0  0  0  0  0  0  0  0  0  0  0
   11.8207  -18.4378   18.6391 C   0  0  0  0  0  0  0  0  0  0  0  0
   11.7617  -19.6825   18.5792 O   0  0  0  0  0  0  0  0  0  0  0  0
    9.5198  -16.3286   22.3141 C   0  0  0  0  0  0  0  0  0  0  0  0
   10.6904  -16.1334   22.7631 O   0  0  0  0  0  0  0  0  0  0  0  0
   12.9545  -17.7956   18.1911 O   0  0  0  0  0  0  0  0  0  0  0  0
    6.7117  -11.2181   27.6120 C   0  0  0  0  0  0  0  0  0  0  0  0
    6.4751  -12.1231   26.0636 S   0  0  0  0  0  0  0  0  0  0  0  0
    7.6598  -13.4638   25.8739 C   0  0  0  0  0  0  0  0  0  0  0  0
    7.5541  -14.1339   24.5254 C   0  0  0  0  0  0  0  0  0  0  0  0
    8.5743  -15.2480   24.3912 C   0  0  2  0  0  0  0  0  0  0  0  0
    8.4117  -15.8224   23.0634 N   0  0  0  0  0  0  0  0  0  0  0  0
    8.3801  -16.2809   25.4419 C   0  0  0  0  0  0  0  0  0  0  0  0
    7.3131  -16.9329   25.4996 O   0  0  0  0  0  0  0  0  0  0  0  0
    9.3711  -16.5756   26.4129 N   0  0  0  0  0  0  0  0  0  0  0  0
    9.1740  -17.5947   27.4310 C   0  0  0  0  0  0  0  0  0  0  0  0
   10.3044  -17.6414   28.3782 C   0  0  0  0  0  0  0  0  0  0  0  0
   11.3212  -16.9426   28.1603 O   0  0  0  0  0  0  0  0  0  0  0  0
   10.2931  -18.4394   29.5223 O   0  0  0  0  0  0  0  0  0  0  0  0
  2  1  1  6
  3  2  1  0
  4  3  1  0
  5  4  1  0
  6  5  2  0
  7  8  2  0
  7  2  1  0
  9  5  1  0
 10 11  1  0
 11 12  1  0
 12 13  1  0
 14 13  1  1
 14 15  1  0
 15  7  1  0
 16 18  1  0
 16 14  1  0
 17 16  2  0
 19 20  1  0
 19 18  1  0
 20 22  1  0
 21 20  2  0
M  END
$$$$
