EMG.pdb
     RDKit          3D

 22 21  0  0  1  0  0  0  0  0999 V2000
    7.9644  -17.6693   21.3769 N   0  0  0  0  0  0  0  0  0  0  0  0
    9.0714  -16.7605   21.1507 C   0  0  1  0  0  0  0  0  0  0  0  0
    8.7925  -15.9968   19.8722 C   0  0  0  0  0  0  0  0  0  0  0  0
    8.2410  -17.0204   18.8868 C   0  0  0  0  0  0  0  0  0  0  0  0
    7.8656  -16.4015   17.6076 C   0  0  0  0  0  0  0  0  0  0  0  0
    8.1260  -15.2064   17.3620 O   0  0  0  0  0  0  0  0  0  0  0  0
    9.2379  -15.9100   22.3281 C   0  0  0  0  0  0  0  0  0  0  0  0
   10.0950  -14.9747   22.3456 O   0  0  0  0  0  0  0  0  0  0  0  0
    7.2119  -17.1566   16.6583 O   0  0  0  0  0  0  0  0  0  0  0  0
    6.6094  -10.9858   26.3057 C   0  0  0  0  0  0  0  0  0  0  0  0
    7.2915  -12.6555   26.4458 S   0  0  0  0  0  0  0  0  0  0  0  0
    6.6773  -13.7494   25.1562 C   0  0  0  0  0  0  0  0  0  0  0  0
    7.1990  -15.1582   25.3048 C   0  0  0  0  0  0  0  0  0  0  0  0
    8.5769  -15.2951   24.6863 C   0  0  2  0  0  0  0  0  0  0  0  0
    8.4328  -16.1154   23.4923 N   0  0  0  0  0  0  0  0  0  0  0  0
    9.5330  -15.9138   25.6411 C   0  0  0  0  0  0  0  0  0  0  0  0
    9.9021  -15.2898   26.6615 O   0  0  0  0  0  0  0  0  0  0  0  0
   10.0656  -17.2145   25.4507 N   0  0  0  0  0  0  0  0  0  0  0  0
   11.0734  -17.7724   26.3377 C   0  0  0  0  0  0  0  0  0  0  0  0
   10.4694  -18.3292   27.5633 C   0  0  0  0  0  0  0  0  0  0  0  0
    9.2220  -18.3741   27.6711 O   0  0  0  0  0  0  0  0  0  0  0  0
   11.2345  -18.8156   28.6236 O   0  0  0  0  0  0  0  0  0  0  0  0
  2  1  1  1
  3  2  1  0
  4  3  1  0
  5  4  1  0
  6  5  2  0
  7  8  2  0
  7  2  1  0
  9  5  1  0
 10 11  1  0
 11 12  1  0
 12 13  1  0
 14 13  1  1
 14 15  1  0
 15  7  1  0
 16 18  1  0
 16 14  1  0
 17 16  2  0
 19 20  1  0
 19 18  1  0
 20 22  1  0
 21 20  2  0
M  END
$$$$
