EMG.pdb
     RDKit          3D

 22 21  0  0  1  0  0  0  0  0999 V2000
    7.3401  -14.9840   19.6086 N   0  0  0  0  0  0  0  0  0  0  0  0
    7.5138  -15.8361   20.7690 C   0  0  1  0  0  0  0  0  0  0  0  0
    8.1948  -17.1103   20.3126 C   0  0  0  0  0  0  0  0  0  0  0  0
    7.7411  -17.3337   18.8748 C   0  0  0  0  0  0  0  0  0  0  0  0
    8.2955  -18.5734   18.3125 C   0  0  0  0  0  0  0  0  0  0  0  0
    8.7160  -18.6243   17.1391 O   0  0  0  0  0  0  0  0  0  0  0  0
    8.2524  -15.1004   21.7940 C   0  0  0  0  0  0  0  0  0  0  0  0
    9.2321  -14.3545   21.4881 O   0  0  0  0  0  0  0  0  0  0  0  0
    8.3526  -19.7045   19.0974 O   0  0  0  0  0  0  0  0  0  0  0  0
    6.1053  -11.2501   27.0210 C   0  0  0  0  0  0  0  0  0  0  0  0
    6.9735  -12.7329   27.5866 S   0  0  0  0  0  0  0  0  0  0  0  0
    8.1838  -13.3094   26.3868 C   0  0  0  0  0  0  0  0  0  0  0  0
    7.5418  -14.0411   25.2330 C   0  0  0  0  0  0  0  0  0  0  0  0
    8.5822  -14.4730   24.2176 C   0  0  2  0  0  0  0  0  0  0  0  0
    7.8838  -15.2066   23.1719 N   0  0  0  0  0  0  0  0  0  0  0  0
    9.6278  -15.3191   24.8495 C   0  0  0  0  0  0  0  0  0  0  0  0
   10.3792  -14.8446   25.7310 O   0  0  0  0  0  0  0  0  0  0  0  0
    9.8250  -16.6782   24.4951 N   0  0  0  0  0  0  0  0  0  0  0  0
   10.7812  -17.5251   25.1894 C   0  0  0  0  0  0  0  0  0  0  0  0
   10.2790  -17.9381   26.5139 C   0  0  0  0  0  0  0  0  0  0  0  0
    9.1284  -17.5949   26.8719 O   0  0  0  0  0  0  0  0  0  0  0  0
   11.0371  -18.7046   27.3992 O   0  0  0  0  0  0  0  0  0  0  0  0
  2  1  1  6
  3  2  1  0
  4  3  1  0
  5  4  1  0
  6  5  2  0
  7  8  2  0
  7  2  1  0
  9  5  1  0
 10 11  1  0
 11 12  1  0
 12 13  1  0
 14 13  1  1
 14 15  1  0
 15  7  1  0
 16 18  1  0
 16 14  1  0
 17 16  2  0
 19 20  1  0
 19 18  1  0
 20 22  1  0
 21 20  2  0
M  END
$$$$
