EMG.pdb
     RDKit          3D

 22 21  0  0  1  0  0  0  0  0999 V2000
    8.9074  -15.4393   19.9116 N   0  0  0  0  0  0  0  0  0  0  0  0
    8.7200  -16.2485   21.1001 C   0  0  1  0  0  0  0  0  0  0  0  0
    9.7005  -17.4019   21.0369 C   0  0  0  0  0  0  0  0  0  0  0  0
    9.8935  -17.7046   19.5556 C   0  0  0  0  0  0  0  0  0  0  0  0
   10.8302  -18.8169   19.3419 C   0  0  0  0  0  0  0  0  0  0  0  0
   12.0535  -18.6860   19.5488 O   0  0  0  0  0  0  0  0  0  0  0  0
    8.8723  -15.4017   22.2820 C   0  0  0  0  0  0  0  0  0  0  0  0
    9.8016  -14.5411   22.3568 O   0  0  0  0  0  0  0  0  0  0  0  0
   10.3480  -20.0310   18.9035 O   0  0  0  0  0  0  0  0  0  0  0  0
    7.1715  -11.0882   27.6947 C   0  0  0  0  0  0  0  0  0  0  0  0
    7.2469  -12.0318   26.1531 S   0  0  0  0  0  0  0  0  0  0  0  0
    6.5929  -13.6969   26.3445 C   0  0  0  0  0  0  0  0  0  0  0  0
    6.6127  -14.4716   25.0490 C   0  0  0  0  0  0  0  0  0  0  0  0
    8.0305  -14.6356   24.5360 C   0  0  2  0  0  0  0  0  0  0  0  0
    7.9712  -15.5260   23.3857 N   0  0  0  0  0  0  0  0  0  0  0  0
    8.9198  -15.1905   25.5894 C   0  0  0  0  0  0  0  0  0  0  0  0
    9.0742  -14.5827   26.6727 O   0  0  0  0  0  0  0  0  0  0  0  0
    9.6249  -16.4103   25.4264 N   0  0  0  0  0  0  0  0  0  0  0  0
   10.3709  -17.0210   26.5147 C   0  0  0  0  0  0  0  0  0  0  0  0
   10.9886  -18.2956   26.1011 C   0  0  0  0  0  0  0  0  0  0  0  0
   10.2624  -19.2237   25.6757 O   0  0  0  0  0  0  0  0  0  0  0  0
   12.3643  -18.5184   26.1626 O   0  0  0  0  0  0  0  0  0  0  0  0
  2  1  1  6
  3  2  1  0
  4  3  1  0
  5  4  1  0
  6  5  2  0
  7  8  2  0
  7  2  1  0
  9  5  1  0
 10 11  1  0
 11 12  1  0
 12 13  1  0
 14 13  1  1
 14 15  1  0
 15  7  1  0
 16 18  1  0
 16 14  1  0
 17 16  2  0
 19 20  1  0
 19 18  1  0
 20 22  1  0
 21 20  2  0
M  END
$$$$
