EMG.pdb
     RDKit          3D

 22 21  0  0  1  0  0  0  0  0999 V2000
    7.3638  -16.8262   19.8237 N   0  0  0  0  0  0  0  0  0  0  0  0
    7.2815  -17.1735   21.2292 C   0  0  1  0  0  0  0  0  0  0  0  0
    7.8775  -18.5556   21.4024 C   0  0  0  0  0  0  0  0  0  0  0  0
    7.2225  -19.4287   20.3386 C   0  0  0  0  0  0  0  0  0  0  0  0
    7.7214  -20.8105   20.3815 C   0  0  0  0  0  0  0  0  0  0  0  0
    8.7943  -21.1321   19.8322 O   0  0  0  0  0  0  0  0  0  0  0  0
    7.9457  -16.1357   22.0161 C   0  0  0  0  0  0  0  0  0  0  0  0
    9.0048  -15.5744   21.6002 O   0  0  0  0  0  0  0  0  0  0  0  0
    6.9890  -21.7726   21.0425 O   0  0  0  0  0  0  0  0  0  0  0  0
    6.7386  -10.9055   27.8737 C   0  0  0  0  0  0  0  0  0  0  0  0
    6.1201  -12.2634   26.8507 S   0  0  0  0  0  0  0  0  0  0  0  0
    7.4070  -12.9690   25.8100 C   0  0  0  0  0  0  0  0  0  0  0  0
    6.8827  -14.0686   24.9185 C   0  0  0  0  0  0  0  0  0  0  0  0
    7.9863  -14.6304   24.0430 C   0  0  2  0  0  0  0  0  0  0  0  0
    7.4121  -15.7287   23.2791 N   0  0  0  0  0  0  0  0  0  0  0  0
    9.1336  -15.0992   24.8631 C   0  0  0  0  0  0  0  0  0  0  0  0
    9.8025  -14.2859   25.5399 O   0  0  0  0  0  0  0  0  0  0  0  0
    9.5224  -16.4620   24.9207 N   0  0  0  0  0  0  0  0  0  0  0  0
   10.6834  -16.9012   25.6777 C   0  0  0  0  0  0  0  0  0  0  0  0
   10.2962  -17.4768   26.9800 C   0  0  0  0  0  0  0  0  0  0  0  0
    9.0833  -17.5555   27.2837 O   0  0  0  0  0  0  0  0  0  0  0  0
   11.2322  -17.9446   27.9025 O   0  0  0  0  0  0  0  0  0  0  0  0
  2  1  1  6
  3  2  1  0
  4  3  1  0
  5  4  1  0
  6  5  2  0
  7  8  2  0
  7  2  1  0
  9  5  1  0
 10 11  1  0
 11 12  1  0
 12 13  1  0
 14 13  1  1
 14 15  1  0
 15  7  1  0
 16 18  1  0
 16 14  1  0
 17 16  2  0
 19 20  1  0
 19 18  1  0
 20 22  1  0
 21 20  2  0
M  END
$$$$
