VHW.pdb
     RDKit          3D

 32 34  0  0  1  0  0  0  0  0999 V2000
   17.0195  -15.0635   11.7785 C   0  0  0  0  0  0  0  0  0  0  0  0
   17.5498  -16.4533   11.9784 C   0  0  1  0  0  0  0  0  0  0  0  0
   17.2217  -17.0556   13.3138 C   0  0  0  0  0  0  0  0  0  0  0  0
   17.2788  -17.3658   10.8103 C   0  0  2  0  0  0  0  0  0  0  0  0
   15.8139  -17.5056   10.7550 N   0  0  0  0  0  0  0  0  0  0  0  0
   17.8514  -18.7027   10.9149 C   0  0  0  0  0  0  0  0  0  0  0  0
   17.5063  -19.4716   11.8598 O   0  0  0  0  0  0  0  0  0  0  0  0
   18.8082  -19.2507   10.0127 N   0  0  0  0  0  0  0  0  0  0  0  0
   19.3994  -20.5482   10.2401 C   0  0  1  0  0  0  0  0  0  0  0  0
   19.0713  -21.4757    9.1120 C   0  0  0  0  0  0  0  0  0  0  0  0
   17.6659  -21.9190    9.1195 C   0  0  0  0  0  0  0  0  0  0  0  0
   16.6906  -21.6102   10.0370 C   0  0  0  0  0  0  0  0  0  0  0  0
   15.5601  -22.2352    9.6451 N   0  0  0  0  0  0  0  0  0  0  0  0
   15.7872  -22.9306    8.5076 C   0  0  0  0  0  0  0  0  0  0  0  0
   17.0944  -22.7164    8.2079 N   0  0  0  0  0  0  0  0  0  0  0  0
   20.8604  -20.4642   10.4968 C   0  0  0  0  0  0  0  0  0  0  0  0
   21.5999  -19.8264    9.6918 O   0  0  0  0  0  0  0  0  0  0  0  0
   21.4686  -21.0718   11.6145 N   0  0  0  0  0  0  0  0  0  0  0  0
   22.8715  -21.0085   11.9393 C   0  0  1  0  0  0  0  0  0  0  0  0
   23.0834  -20.4669   13.3421 C   0  0  0  0  0  0  0  0  0  0  0  0
   22.9815  -18.9897   13.3676 C   0  0  0  0  0  0  0  0  0  0  0  0
   22.3999  -18.2081   12.3954 C   0  0  0  0  0  0  0  0  0  0  0  0
   22.5075  -16.9306   12.7776 N   0  0  0  0  0  0  0  0  0  0  0  0
   23.1382  -16.8443   13.9653 C   0  0  0  0  0  0  0  0  0  0  0  0
   23.4884  -15.7688   14.7693 C   0  0  0  0  0  0  0  0  0  0  0  0
   24.1442  -15.9779   15.9610 C   0  0  0  0  0  0  0  0  0  0  0  0
   24.4613  -17.2677   16.3695 C   0  0  0  0  0  0  0  0  0  0  0  0
   24.1048  -18.3220   15.5558 C   0  0  0  0  0  0  0  0  0  0  0  0
   23.4488  -18.1509   14.3582 C   0  0  0  0  0  0  0  0  0  0  0  0
   23.4309  -22.3771   11.8411 C   0  0  0  0  0  0  0  0  0  0  0  0
   24.6499  -22.6226   12.0972 O   0  0  0  0  0  0  0  0  0  0  0  0
   22.6638  -23.4747   11.4652 O   0  0  0  0  0  0  0  0  0  0  0  0
  2  1  1  6
  3  2  1  0
  4  5  1  1
  4  2  1  0
  6  7  2  0
  6  4  1  0
  8  6  1  0
  9  8  1  0
  9 10  1  6
 11 15  1  0
 11 10  1  0
 12 11  2  0
 13 12  1  0
 13 14  1  0
 14 15  2  0
 16  9  1  0
 16 18  1  0
 17 16  2  0
 19 18  1  0
 19 30  1  0
 19 20  1  1
 21 20  1  0
 22 21  2  0
 23 24  1  0
 23 22  1  0
 24 29  2  0
 25 24  1  0
 25 26  2  0
 26 27  1  0
 27 28  2  0
 29 21  1  0
 29 28  1  0
 30 32  1  0
 31 30  2  0
M  END
$$$$
