VHW.pdb
     RDKit          3D

 32 34  0  0  1  0  0  0  0  0999 V2000
   29.7566  -18.3366  -17.4192 C   0  0  0  0  0  0  0  0  0  0  0  0
   28.9173  -18.3825  -16.1759 C   0  0  1  0  0  0  0  0  0  0  0  0
   28.9898  -17.1423  -15.3330 C   0  0  0  0  0  0  0  0  0  0  0  0
   27.5149  -18.8746  -16.4242 C   0  0  2  0  0  0  0  0  0  0  0  0
   26.9151  -17.8966  -17.3472 N   0  0  0  0  0  0  0  0  0  0  0  0
   26.6624  -18.9561  -15.2440 C   0  0  0  0  0  0  0  0  0  0  0  0
   26.0230  -17.9374  -14.8482 O   0  0  0  0  0  0  0  0  0  0  0  0
   26.4730  -20.1283  -14.4567 N   0  0  0  0  0  0  0  0  0  0  0  0
   25.6091  -20.1258  -13.2998 C   0  0  1  0  0  0  0  0  0  0  0  0
   24.2448  -20.6203  -13.6666 C   0  0  0  0  0  0  0  0  0  0  0  0
   23.2987  -20.5950  -12.5370 C   0  0  0  0  0  0  0  0  0  0  0  0
   22.6468  -19.5067  -12.0091 C   0  0  0  0  0  0  0  0  0  0  0  0
   21.8836  -19.9532  -10.9890 N   0  0  0  0  0  0  0  0  0  0  0  0
   22.0306  -21.2907  -10.8532 C   0  0  0  0  0  0  0  0  0  0  0  0
   22.9093  -21.6580  -11.8216 N   0  0  0  0  0  0  0  0  0  0  0  0
   26.1945  -20.8751  -12.1581 C   0  0  0  0  0  0  0  0  0  0  0  0
   26.9292  -21.8808  -12.3827 O   0  0  0  0  0  0  0  0  0  0  0  0
   25.9651  -20.5096  -10.8158 N   0  0  0  0  0  0  0  0  0  0  0  0
   26.4535  -21.2211   -9.6612 C   0  0  1  0  0  0  0  0  0  0  0  0
   27.7929  -20.6692   -9.2058 C   0  0  0  0  0  0  0  0  0  0  0  0
   27.6587  -19.9136   -7.9392 C   0  0  0  0  0  0  0  0  0  0  0  0
   26.8916  -18.7858   -7.7544 C   0  0  0  0  0  0  0  0  0  0  0  0
   27.0327  -18.3979   -6.4819 N   0  0  0  0  0  0  0  0  0  0  0  0
   27.8642  -19.2295   -5.8239 C   0  0  0  0  0  0  0  0  0  0  0  0
   28.3251  -19.2586   -4.5153 C   0  0  0  0  0  0  0  0  0  0  0  0
   29.1898  -20.2480   -4.1061 C   0  0  0  0  0  0  0  0  0  0  0  0
   29.6087  -21.2263   -4.9996 C   0  0  0  0  0  0  0  0  0  0  0  0
   29.1393  -21.1787   -6.2951 C   0  0  0  0  0  0  0  0  0  0  0  0
   28.2745  -20.2049   -6.7395 C   0  0  0  0  0  0  0  0  0  0  0  0
   25.4569  -21.0775   -8.5741 C   0  0  0  0  0  0  0  0  0  0  0  0
   24.6261  -20.1178   -8.5493 O   0  0  0  0  0  0  0  0  0  0  0  0
   25.3660  -21.9773   -7.5174 O   0  0  0  0  0  0  0  0  0  0  0  0
  2  1  1  6
  3  2  1  0
  4  5  1  6
  4  2  1  0
  6  7  2  0
  6  4  1  0
  8  6  1  0
  9  8  1  0
  9 10  1  6
 11 15  1  0
 11 10  1  0
 12 11  2  0
 13 12  1  0
 13 14  1  0
 14 15  2  0
 16  9  1  0
 16 18  1  0
 17 16  2  0
 19 18  1  0
 19 30  1  0
 19 20  1  1
 21 20  1  0
 22 21  2  0
 23 24  1  0
 23 22  1  0
 24 29  2  0
 25 24  1  0
 25 26  2  0
 26 27  1  0
 27 28  2  0
 29 21  1  0
 29 28  1  0
 30 32  1  0
 31 30  2  0
M  END
$$$$
