VHW.pdb
     RDKit          3D

 32 34  0  0  1  0  0  0  0  0999 V2000
   18.6653  -19.4533  -11.6695 C   0  0  0  0  0  0  0  0  0  0  0  0
   20.0896  -19.8886  -11.4840 C   0  0  1  0  0  0  0  0  0  0  0  0
   20.4054  -20.4065  -10.1107 C   0  0  0  0  0  0  0  0  0  0  0  0
   20.5926  -20.7655  -12.6013 C   0  0  2  0  0  0  0  0  0  0  0  0
   19.8013  -22.0042  -12.5126 N   0  0  0  0  0  0  0  0  0  0  0  0
   22.0025  -21.1297  -12.5243 C   0  0  0  0  0  0  0  0  0  0  0  0
   22.3798  -22.0559  -11.7477 O   0  0  0  0  0  0  0  0  0  0  0  0
   23.0443  -20.5123  -13.2746 N   0  0  0  0  0  0  0  0  0  0  0  0
   24.4158  -20.9478  -13.1567 C   0  0  1  0  0  0  0  0  0  0  0  0
   25.1106  -20.8464  -14.4786 C   0  0  0  0  0  0  0  0  0  0  0  0
   26.5406  -21.1956  -14.4073 C   0  0  0  0  0  0  0  0  0  0  0  0
   27.2466  -21.6338  -13.3128 C   0  0  0  0  0  0  0  0  0  0  0  0
   28.5215  -21.8295  -13.7111 N   0  0  0  0  0  0  0  0  0  0  0  0
   28.6466  -21.5296  -15.0238 C   0  0  0  0  0  0  0  0  0  0  0  0
   27.4085  -21.1418  -15.4256 N   0  0  0  0  0  0  0  0  0  0  0  0
   25.1439  -20.2305  -12.0783 C   0  0  0  0  0  0  0  0  0  0  0  0
   25.0499  -18.9713  -11.9926 O   0  0  0  0  0  0  0  0  0  0  0  0
   25.9462  -20.9002  -11.1317 N   0  0  0  0  0  0  0  0  0  0  0  0
   26.7643  -20.2634  -10.1303 C   0  0  1  0  0  0  0  0  0  0  0  0
   26.2556  -20.5710   -8.7329 C   0  0  0  0  0  0  0  0  0  0  0  0
   27.0220  -19.8265   -7.7074 C   0  0  0  0  0  0  0  0  0  0  0  0
   27.0832  -18.4567   -7.5881 C   0  0  0  0  0  0  0  0  0  0  0  0
   27.8742  -18.1707   -6.5478 N   0  0  0  0  0  0  0  0  0  0  0  0
   28.3348  -19.3023   -5.9793 C   0  0  0  0  0  0  0  0  0  0  0  0
   29.1705  -19.5395   -4.8972 C   0  0  0  0  0  0  0  0  0  0  0  0
   29.4809  -20.8290   -4.5298 C   0  0  0  0  0  0  0  0  0  0  0  0
   28.9602  -21.9045   -5.2392 C   0  0  0  0  0  0  0  0  0  0  0  0
   28.1324  -21.6468   -6.3112 C   0  0  0  0  0  0  0  0  0  0  0  0
   27.8005  -20.3713   -6.7072 C   0  0  0  0  0  0  0  0  0  0  0  0
   28.1510  -20.7638  -10.2798 C   0  0  0  0  0  0  0  0  0  0  0  0
   28.3983  -21.9416  -10.6840 O   0  0  0  0  0  0  0  0  0  0  0  0
   29.2646  -19.9826   -9.9899 O   0  0  0  0  0  0  0  0  0  0  0  0
  2  1  1  1
  3  2  1  0
  4  5  1  1
  4  2  1  0
  6  7  2  0
  6  4  1  0
  8  6  1  0
  9  8  1  0
  9 10  1  6
 11 15  1  0
 11 10  1  0
 12 11  2  0
 13 12  1  0
 13 14  1  0
 14 15  2  0
 16  9  1  0
 16 18  1  0
 17 16  2  0
 19 18  1  0
 19 30  1  0
 19 20  1  1
 21 20  1  0
 22 21  2  0
 23 24  1  0
 23 22  1  0
 24 29  2  0
 25 24  1  0
 25 26  2  0
 26 27  1  0
 27 28  2  0
 29 21  1  0
 29 28  1  0
 30 32  1  0
 31 30  2  0
M  END
$$$$
