VHW.pdb
     RDKit          3D

 32 34  0  0  1  0  0  0  0  0999 V2000
   22.4833  -22.4400  -17.8239 C   0  0  0  0  0  0  0  0  0  0  0  0
   23.8173  -22.4681  -17.1367 C   0  0  1  0  0  0  0  0  0  0  0  0
   24.9527  -22.9247  -18.0062 C   0  0  0  0  0  0  0  0  0  0  0  0
   24.1090  -21.2133  -16.3552 C   0  0  2  0  0  0  0  0  0  0  0  0
   24.1389  -20.1298  -17.3520 N   0  0  0  0  0  0  0  0  0  0  0  0
   25.3820  -21.2010  -15.6440 C   0  0  0  0  0  0  0  0  0  0  0  0
   26.1845  -22.1738  -15.7572 O   0  0  0  0  0  0  0  0  0  0  0  0
   25.8284  -20.1491  -14.7931 N   0  0  0  0  0  0  0  0  0  0  0  0
   26.9906  -20.3050  -13.9508 C   0  0  1  0  0  0  0  0  0  0  0  0
   27.6755  -18.9881  -13.7582 C   0  0  0  0  0  0  0  0  0  0  0  0
   28.2682  -18.4588  -14.9993 C   0  0  0  0  0  0  0  0  0  0  0  0
   28.2647  -19.0356  -16.2465 C   0  0  0  0  0  0  0  0  0  0  0  0
   28.9221  -18.1983  -17.0766 N   0  0  0  0  0  0  0  0  0  0  0  0
   29.3425  -17.1083  -16.3953 C   0  0  0  0  0  0  0  0  0  0  0  0
   28.9245  -17.2975  -15.1170 N   0  0  0  0  0  0  0  0  0  0  0  0
   26.6668  -20.9683  -12.6613 C   0  0  0  0  0  0  0  0  0  0  0  0
   26.7704  -22.2259  -12.5631 O   0  0  0  0  0  0  0  0  0  0  0  0
   26.2438  -20.2484  -11.5251 N   0  0  0  0  0  0  0  0  0  0  0  0
   25.9930  -20.8142  -10.2234 C   0  0  1  0  0  0  0  0  0  0  0  0
   27.2835  -20.9723   -9.4386 C   0  0  0  0  0  0  0  0  0  0  0  0
   27.0267  -20.9785   -7.9801 C   0  0  0  0  0  0  0  0  0  0  0  0
   26.0018  -21.6453   -7.3481 C   0  0  0  0  0  0  0  0  0  0  0  0
   26.1042  -21.4053   -6.0360 N   0  0  0  0  0  0  0  0  0  0  0  0
   27.1587  -20.6055   -5.7828 C   0  0  0  0  0  0  0  0  0  0  0  0
   27.6795  -20.0774   -4.6100 C   0  0  0  0  0  0  0  0  0  0  0  0
   28.7936  -19.2703   -4.6471 C   0  0  0  0  0  0  0  0  0  0  0  0
   29.4067  -18.9774   -5.8593 C   0  0  0  0  0  0  0  0  0  0  0  0
   28.8730  -19.5119   -7.0128 C   0  0  0  0  0  0  0  0  0  0  0  0
   27.7608  -20.3223   -7.0138 C   0  0  0  0  0  0  0  0  0  0  0  0
   25.0721  -19.9096   -9.4958 C   0  0  0  0  0  0  0  0  0  0  0  0
   25.2064  -18.6476   -9.5306 O   0  0  0  0  0  0  0  0  0  0  0  0
   24.0081  -20.3791   -8.7331 O   0  0  0  0  0  0  0  0  0  0  0  0
  2  1  1  6
  3  2  1  0
  4  5  1  6
  4  2  1  0
  6  7  2  0
  6  4  1  0
  8  6  1  0
  9  8  1  0
  9 10  1  1
 11 15  1  0
 11 10  1  0
 12 11  2  0
 13 12  1  0
 13 14  1  0
 14 15  2  0
 16  9  1  0
 16 18  1  0
 17 16  2  0
 19 18  1  0
 19 30  1  0
 19 20  1  1
 21 20  1  0
 22 21  2  0
 23 24  1  0
 23 22  1  0
 24 29  2  0
 25 24  1  0
 25 26  2  0
 26 27  1  0
 27 28  2  0
 29 21  1  0
 29 28  1  0
 30 32  1  0
 31 30  2  0
M  END
$$$$
