VHW.pdb
     RDKit          3D

 32 34  0  0  1  0  0  0  0  0999 V2000
   29.5604  -17.2331  -16.3273 C   0  0  0  0  0  0  0  0  0  0  0  0
   29.2079  -17.3013  -17.7846 C   0  0  1  0  0  0  0  0  0  0  0  0
   30.3760  -17.1362  -18.7131 C   0  0  0  0  0  0  0  0  0  0  0  0
   28.3129  -18.4647  -18.1251 C   0  0  2  0  0  0  0  0  0  0  0  0
   28.0062  -18.3159  -19.5576 N   0  0  0  0  0  0  0  0  0  0  0  0
   27.0485  -18.5142  -17.4004 C   0  0  0  0  0  0  0  0  0  0  0  0
   26.3640  -17.4611  -17.2405 O   0  0  0  0  0  0  0  0  0  0  0  0
   26.4848  -19.6905  -16.8275 N   0  0  0  0  0  0  0  0  0  0  0  0
   25.2517  -19.6453  -16.0777 C   0  0  1  0  0  0  0  0  0  0  0  0
   24.0953  -19.3830  -16.9911 C   0  0  0  0  0  0  0  0  0  0  0  0
   24.1340  -18.0418  -17.6007 C   0  0  0  0  0  0  0  0  0  0  0  0
   23.7328  -16.8517  -17.0431 C   0  0  0  0  0  0  0  0  0  0  0  0
   23.9508  -15.8860  -17.9608 N   0  0  0  0  0  0  0  0  0  0  0  0
   24.4780  -16.4259  -19.0831 C   0  0  0  0  0  0  0  0  0  0  0  0
   24.5792  -17.7567  -18.8310 N   0  0  0  0  0  0  0  0  0  0  0  0
   25.0524  -20.8613  -15.2475 C   0  0  0  0  0  0  0  0  0  0  0  0
   25.6198  -21.9430  -15.5788 O   0  0  0  0  0  0  0  0  0  0  0  0
   24.2481  -20.8636  -14.0894 N   0  0  0  0  0  0  0  0  0  0  0  0
   24.0426  -21.9927  -13.2174 C   0  0  1  0  0  0  0  0  0  0  0  0
   25.2556  -22.2291  -12.3348 C   0  0  0  0  0  0  0  0  0  0  0  0
   25.3630  -21.1925  -11.2825 C   0  0  0  0  0  0  0  0  0  0  0  0
   24.3198  -20.4511  -10.7763 C   0  0  0  0  0  0  0  0  0  0  0  0
   24.8165  -19.6238   -9.8497 N   0  0  0  0  0  0  0  0  0  0  0  0
   26.1477  -19.7947   -9.7284 C   0  0  0  0  0  0  0  0  0  0  0  0
   27.1048  -19.1919   -8.9246 C   0  0  0  0  0  0  0  0  0  0  0  0
   28.4246  -19.5719   -9.0133 C   0  0  0  0  0  0  0  0  0  0  0  0
   28.8101  -20.5625   -9.9084 C   0  0  0  0  0  0  0  0  0  0  0  0
   27.8434  -21.1483  -10.6980 C   0  0  0  0  0  0  0  0  0  0  0  0
   26.5151  -20.7938  -10.6367 C   0  0  0  0  0  0  0  0  0  0  0  0
   22.8561  -21.7155  -12.3741 C   0  0  0  0  0  0  0  0  0  0  0  0
   22.3391  -22.6061  -11.6316 O   0  0  0  0  0  0  0  0  0  0  0  0
   22.2353  -20.4714  -12.3402 O   0  0  0  0  0  0  0  0  0  0  0  0
  2  1  1  1
  3  2  1  0
  4  5  1  6
  4  2  1  0
  6  7  2  0
  6  4  1  0
  8  6  1  0
  9  8  1  0
  9 10  1  6
 11 15  1  0
 11 10  1  0
 12 11  2  0
 13 12  1  0
 13 14  1  0
 14 15  2  0
 16  9  1  0
 16 18  1  0
 17 16  2  0
 19 18  1  0
 19 30  1  0
 19 20  1  1
 21 20  1  0
 22 21  2  0
 23 24  1  0
 23 22  1  0
 24 29  2  0
 25 24  1  0
 25 26  2  0
 26 27  1  0
 27 28  2  0
 29 21  1  0
 29 28  1  0
 30 32  1  0
 31 30  2  0
M  END
$$$$
