VHW.pdb
     RDKit          3D

 32 34  0  0  1  0  0  0  0  0999 V2000
   29.1323  -22.7968  -20.2211 C   0  0  0  0  0  0  0  0  0  0  0  0
   29.1771  -22.4364  -18.7648 C   0  0  1  0  0  0  0  0  0  0  0  0
   30.4097  -21.6868  -18.3495 C   0  0  0  0  0  0  0  0  0  0  0  0
   27.8919  -21.8300  -18.2636 C   0  0  2  0  0  0  0  0  0  0  0  0
   27.5887  -20.7309  -19.1955 N   0  0  0  0  0  0  0  0  0  0  0  0
   27.9468  -21.2719  -16.9176 C   0  0  0  0  0  0  0  0  0  0  0  0
   29.0315  -21.2884  -16.2647 O   0  0  0  0  0  0  0  0  0  0  0  0
   26.8433  -20.6832  -16.2354 N   0  0  0  0  0  0  0  0  0  0  0  0
   26.9757  -20.1718  -14.8917 C   0  0  1  0  0  0  0  0  0  0  0  0
   26.8285  -18.6823  -14.8836 C   0  0  0  0  0  0  0  0  0  0  0  0
   27.8527  -17.9967  -15.6915 C   0  0  0  0  0  0  0  0  0  0  0  0
   27.6738  -17.2990  -16.8618 C   0  0  0  0  0  0  0  0  0  0  0  0
   28.8853  -16.8441  -17.2458 N   0  0  0  0  0  0  0  0  0  0  0  0
   29.8273  -17.2310  -16.3559 C   0  0  0  0  0  0  0  0  0  0  0  0
   29.1604  -17.9401  -15.4088 N   0  0  0  0  0  0  0  0  0  0  0  0
   26.0472  -20.8374  -13.9417 C   0  0  0  0  0  0  0  0  0  0  0  0
   24.9345  -21.2731  -14.3585 O   0  0  0  0  0  0  0  0  0  0  0  0
   26.3555  -21.0083  -12.5765 N   0  0  0  0  0  0  0  0  0  0  0  0
   25.5791  -21.7748  -11.6344 C   0  0  1  0  0  0  0  0  0  0  0  0
   26.4030  -22.1313  -10.4096 C   0  0  0  0  0  0  0  0  0  0  0  0
   26.5265  -20.9758   -9.4916 C   0  0  0  0  0  0  0  0  0  0  0  0
   25.5784  -19.9963   -9.3017 C   0  0  0  0  0  0  0  0  0  0  0  0
   26.0578  -19.1307   -8.4014 N   0  0  0  0  0  0  0  0  0  0  0  0
   27.2860  -19.5057   -7.9928 C   0  0  0  0  0  0  0  0  0  0  0  0
   28.1866  -18.9565   -7.0911 C   0  0  0  0  0  0  0  0  0  0  0  0
   29.3993  -19.5659   -6.8633 C   0  0  0  0  0  0  0  0  0  0  0  0
   29.7324  -20.7364   -7.5341 C   0  0  0  0  0  0  0  0  0  0  0  0
   28.8236  -21.2651   -8.4261 C   0  0  0  0  0  0  0  0  0  0  0  0
   27.6024  -20.6834   -8.6791 C   0  0  0  0  0  0  0  0  0  0  0  0
   24.4080  -20.9616  -11.2308 C   0  0  0  0  0  0  0  0  0  0  0  0
   24.3992  -19.6971  -11.3445 O   0  0  0  0  0  0  0  0  0  0  0  0
   23.2501  -21.5249  -10.7050 O   0  0  0  0  0  0  0  0  0  0  0  0
  2  1  1  6
  3  2  1  0
  4  5  1  6
  4  2  1  0
  6  7  2  0
  6  4  1  0
  8  6  1  0
  9  8  1  0
  9 10  1  6
 11 15  1  0
 11 10  1  0
 12 11  2  0
 13 12  1  0
 13 14  1  0
 14 15  2  0
 16  9  1  0
 16 18  1  0
 17 16  2  0
 19 18  1  0
 19 30  1  0
 19 20  1  1
 21 20  1  0
 22 21  2  0
 23 24  1  0
 23 22  1  0
 24 29  2  0
 25 24  1  0
 25 26  2  0
 26 27  1  0
 27 28  2  0
 29 21  1  0
 29 28  1  0
 30 32  1  0
 31 30  2  0
M  END
$$$$
