VHW.pdb
     RDKit          3D

 32 34  0  0  1  0  0  0  0  0999 V2000
   30.8175  -22.7926  -19.7574 C   0  0  0  0  0  0  0  0  0  0  0  0
   30.0023  -21.8937  -18.8742 C   0  0  1  0  0  0  0  0  0  0  0  0
   28.9059  -21.1547  -19.5853 C   0  0  0  0  0  0  0  0  0  0  0  0
   29.5652  -22.5570  -17.5938 C   0  0  2  0  0  0  0  0  0  0  0  0
   28.6464  -23.6321  -18.0043 N   0  0  0  0  0  0  0  0  0  0  0  0
   28.8550  -21.6969  -16.6546 C   0  0  0  0  0  0  0  0  0  0  0  0
   29.4930  -21.0633  -15.7631 O   0  0  0  0  0  0  0  0  0  0  0  0
   27.4450  -21.4935  -16.6441 N   0  0  0  0  0  0  0  0  0  0  0  0
   26.8210  -20.5995  -15.6974 C   0  0  1  0  0  0  0  0  0  0  0  0
   26.0653  -19.5250  -16.4149 C   0  0  0  0  0  0  0  0  0  0  0  0
   25.3984  -18.5802  -15.5015 C   0  0  0  0  0  0  0  0  0  0  0  0
   25.8845  -17.3879  -15.0215 C   0  0  0  0  0  0  0  0  0  0  0  0
   24.9343  -16.8618  -14.2199 N   0  0  0  0  0  0  0  0  0  0  0  0
   23.8604  -17.6826  -14.1763 C   0  0  0  0  0  0  0  0  0  0  0  0
   24.1761  -18.7338  -14.9763 N   0  0  0  0  0  0  0  0  0  0  0  0
   25.9772  -21.3228  -14.7114 C   0  0  0  0  0  0  0  0  0  0  0  0
   25.2605  -22.2926  -15.0958 O   0  0  0  0  0  0  0  0  0  0  0  0
   25.9393  -20.9722  -13.3462 N   0  0  0  0  0  0  0  0  0  0  0  0
   25.2327  -21.6939  -12.3178 C   0  0  1  0  0  0  0  0  0  0  0  0
   26.1616  -22.0672  -11.1759 C   0  0  0  0  0  0  0  0  0  0  0  0
   26.3319  -20.9385  -10.2324 C   0  0  0  0  0  0  0  0  0  0  0  0
   25.3784  -19.9926   -9.9316 C   0  0  0  0  0  0  0  0  0  0  0  0
   25.9092  -19.1430   -9.0450 N   0  0  0  0  0  0  0  0  0  0  0  0
   27.1762  -19.4962   -8.7521 C   0  0  0  0  0  0  0  0  0  0  0  0
   28.1347  -18.9509   -7.9096 C   0  0  0  0  0  0  0  0  0  0  0  0
   29.3772  -19.5330   -7.8035 C   0  0  0  0  0  0  0  0  0  0  0  0
   29.6828  -20.6717   -8.5391 C   0  0  0  0  0  0  0  0  0  0  0  0
   28.7165  -21.1970   -9.3705 C   0  0  0  0  0  0  0  0  0  0  0  0
   27.4641  -20.6420   -9.5019 C   0  0  0  0  0  0  0  0  0  0  0  0
   24.1411  -20.8283  -11.8127 C   0  0  0  0  0  0  0  0  0  0  0  0
   24.1958  -19.5628  -11.8978 O   0  0  0  0  0  0  0  0  0  0  0  0
   22.9935  -21.3407  -11.2170 O   0  0  0  0  0  0  0  0  0  0  0  0
  2  1  1  6
  3  2  1  0
  4  5  1  6
  4  2  1  0
  6  7  2  0
  6  4  1  0
  8  6  1  0
  9  8  1  0
  9 10  1  6
 11 15  1  0
 11 10  1  0
 12 11  2  0
 13 12  1  0
 13 14  1  0
 14 15  2  0
 16  9  1  0
 16 18  1  0
 17 16  2  0
 19 18  1  0
 19 30  1  0
 19 20  1  1
 21 20  1  0
 22 21  2  0
 23 24  1  0
 23 22  1  0
 24 29  2  0
 25 24  1  0
 25 26  2  0
 26 27  1  0
 27 28  2  0
 29 21  1  0
 29 28  1  0
 30 32  1  0
 31 30  2  0
M  END
$$$$
