VHW.pdb
     RDKit          3D

 32 34  0  0  1  0  0  0  0  0999 V2000
   20.9799   -5.9167  -18.6757 C   0  0  0  0  0  0  0  0  0  0  0  0
   20.2978   -7.0301  -19.4158 C   0  0  1  0  0  0  0  0  0  0  0  0
   20.6833   -7.1399  -20.8625 C   0  0  0  0  0  0  0  0  0  0  0  0
   20.3244   -8.3406  -18.6725 C   0  0  2  0  0  0  0  0  0  0  0  0
   19.4028   -9.2246  -19.4056 N   0  0  0  0  0  0  0  0  0  0  0  0
   19.8784   -8.2821  -17.2854 C   0  0  0  0  0  0  0  0  0  0  0  0
   18.6536   -8.1062  -17.0167 O   0  0  0  0  0  0  0  0  0  0  0  0
   20.7307   -8.4090  -16.1508 N   0  0  0  0  0  0  0  0  0  0  0  0
   20.2458   -8.1586  -14.8141 C   0  0  1  0  0  0  0  0  0  0  0  0
   20.1489   -9.4397  -14.0460 C   0  0  0  0  0  0  0  0  0  0  0  0
   19.0573  -10.3121  -14.5140 C   0  0  0  0  0  0  0  0  0  0  0  0
   18.2198  -10.1117  -15.5848 C   0  0  0  0  0  0  0  0  0  0  0  0
   17.3768  -11.1648  -15.6362 N   0  0  0  0  0  0  0  0  0  0  0  0
   17.6532  -12.0272  -14.6319 C   0  0  0  0  0  0  0  0  0  0  0  0
   18.6941  -11.4744  -13.9569 N   0  0  0  0  0  0  0  0  0  0  0  0
   21.0538   -7.1333  -14.1047 C   0  0  0  0  0  0  0  0  0  0  0  0
   21.9660   -7.4994  -13.3074 O   0  0  0  0  0  0  0  0  0  0  0  0
   20.8470   -5.7500  -14.2834 N   0  0  0  0  0  0  0  0  0  0  0  0
   21.6896   -4.7048  -13.7587 C   0  0  1  0  0  0  0  0  0  0  0  0
   23.0815   -4.7706  -14.3624 C   0  0  0  0  0  0  0  0  0  0  0  0
   23.0350   -4.6187  -15.8348 C   0  0  0  0  0  0  0  0  0  0  0  0
   22.3811   -3.6192  -16.5187 C   0  0  0  0  0  0  0  0  0  0  0  0
   22.5694   -3.8264  -17.8268 N   0  0  0  0  0  0  0  0  0  0  0  0
   23.3232   -4.9253  -18.0274 C   0  0  0  0  0  0  0  0  0  0  0  0
   23.7888   -5.5507  -19.1753 C   0  0  0  0  0  0  0  0  0  0  0  0
   24.5577   -6.6884  -19.0824 C   0  0  0  0  0  0  0  0  0  0  0  0
   24.8745   -7.2205  -17.8384 C   0  0  0  0  0  0  0  0  0  0  0  0
   24.4015   -6.5838  -16.7106 C   0  0  0  0  0  0  0  0  0  0  0  0
   23.6304   -5.4453  -16.7652 C   0  0  0  0  0  0  0  0  0  0  0  0
   21.0645   -3.4010  -14.0824 C   0  0  0  0  0  0  0  0  0  0  0  0
   20.0368   -3.3162  -14.8231 O   0  0  0  0  0  0  0  0  0  0  0  0
   21.5578   -2.1933  -13.6000 O   0  0  0  0  0  0  0  0  0  0  0  0
  2  1  1  1
  3  2  1  0
  4  5  1  6
  4  2  1  0
  6  7  2  0
  6  4  1  0
  8  6  1  0
  9  8  1  0
  9 10  1  1
 11 15  1  0
 11 10  1  0
 12 11  2  0
 13 12  1  0
 13 14  1  0
 14 15  2  0
 16  9  1  0
 16 18  1  0
 17 16  2  0
 19 18  1  0
 19 30  1  0
 19 20  1  6
 21 20  1  0
 22 21  2  0
 23 24  1  0
 23 22  1  0
 24 29  2  0
 25 24  1  0
 25 26  2  0
 26 27  1  0
 27 28  2  0
 29 21  1  0
 29 28  1  0
 30 32  1  0
 31 30  2  0
M  END
$$$$
