VHW.pdb
     RDKit          3D

 32 34  0  0  1  0  0  0  0  0999 V2000
   29.9103  -23.9016  -17.1898 C   0  0  0  0  0  0  0  0  0  0  0  0
   29.2789  -22.6449  -16.6658 C   0  0  1  0  0  0  0  0  0  0  0  0
   29.8295  -21.3806  -17.2593 C   0  0  0  0  0  0  0  0  0  0  0  0
   27.7735  -22.7044  -16.6368 C   0  0  2  0  0  0  0  0  0  0  0  0
   27.3467  -22.4843  -18.0288 N   0  0  0  0  0  0  0  0  0  0  0  0
   27.1236  -21.6977  -15.8059 C   0  0  0  0  0  0  0  0  0  0  0  0
   27.6816  -20.5786  -15.6070 O   0  0  0  0  0  0  0  0  0  0  0  0
   25.8615  -21.8624  -15.1659 N   0  0  0  0  0  0  0  0  0  0  0  0
   25.2744  -20.8051  -14.3772 C   0  0  1  0  0  0  0  0  0  0  0  0
   24.1767  -20.1327  -15.1409 C   0  0  0  0  0  0  0  0  0  0  0  0
   24.6743  -19.1708  -16.1404 C   0  0  0  0  0  0  0  0  0  0  0  0
   25.1421  -17.8972  -15.9230 C   0  0  0  0  0  0  0  0  0  0  0  0
   25.4892  -17.3878  -17.1240 N   0  0  0  0  0  0  0  0  0  0  0  0
   25.2566  -18.2983  -18.0966 C   0  0  0  0  0  0  0  0  0  0  0  0
   24.7542  -19.3875  -17.4595 N   0  0  0  0  0  0  0  0  0  0  0  0
   24.8263  -21.2803  -13.0426 C   0  0  0  0  0  0  0  0  0  0  0  0
   24.3012  -22.4265  -12.9323 O   0  0  0  0  0  0  0  0  0  0  0  0
   24.9629  -20.4998  -11.8763 N   0  0  0  0  0  0  0  0  0  0  0  0
   24.6001  -20.9167  -10.5451 C   0  0  1  0  0  0  0  0  0  0  0  0
   25.2287  -20.0127   -9.4992 C   0  0  0  0  0  0  0  0  0  0  0  0
   26.6629  -20.3291   -9.3092 C   0  0  0  0  0  0  0  0  0  0  0  0
   27.4296  -21.1122  -10.1419 C   0  0  0  0  0  0  0  0  0  0  0  0
   28.6662  -21.1622   -9.6340 N   0  0  0  0  0  0  0  0  0  0  0  0
   28.7401  -20.4405   -8.4984 C   0  0  0  0  0  0  0  0  0  0  0  0
   29.7770  -20.1822   -7.6130 C   0  0  0  0  0  0  0  0  0  0  0  0
   29.5640  -19.3915   -6.5068 C   0  0  0  0  0  0  0  0  0  0  0  0
   28.3091  -18.8451   -6.2670 C   0  0  0  0  0  0  0  0  0  0  0  0
   27.2927  -19.1146   -7.1588 C   0  0  0  0  0  0  0  0  0  0  0  0
   27.4688  -19.9004   -8.2747 C   0  0  0  0  0  0  0  0  0  0  0  0
   23.1237  -20.8640  -10.4304 C   0  0  0  0  0  0  0  0  0  0  0  0
   22.4096  -20.2238  -11.2622 O   0  0  0  0  0  0  0  0  0  0  0  0
   22.4279  -21.5074   -9.4124 O   0  0  0  0  0  0  0  0  0  0  0  0
  2  1  1  6
  3  2  1  0
  4  5  1  6
  4  2  1  0
  6  7  2  0
  6  4  1  0
  8  6  1  0
  9  8  1  0
  9 10  1  6
 11 15  1  0
 11 10  1  0
 12 11  2  0
 13 12  1  0
 13 14  1  0
 14 15  2  0
 16  9  1  0
 16 18  1  0
 17 16  2  0
 19 18  1  0
 19 30  1  0
 19 20  1  1
 21 20  1  0
 22 21  2  0
 23 24  1  0
 23 22  1  0
 24 29  2  0
 25 24  1  0
 25 26  2  0
 26 27  1  0
 27 28  2  0
 29 21  1  0
 29 28  1  0
 30 32  1  0
 31 30  2  0
M  END
$$$$
