VHW.pdb
     RDKit          3D

 32 34  0  0  1  0  0  0  0  0999 V2000
   26.5698  -14.5016  -18.6792 C   0  0  0  0  0  0  0  0  0  0  0  0
   25.7743  -15.7596  -18.4867 C   0  0  1  0  0  0  0  0  0  0  0  0
   24.8681  -16.1015  -19.6338 C   0  0  0  0  0  0  0  0  0  0  0  0
   26.6038  -16.9170  -17.9940 C   0  0  2  0  0  0  0  0  0  0  0  0
   27.6179  -17.1434  -19.0374 N   0  0  0  0  0  0  0  0  0  0  0  0
   25.8791  -18.1668  -17.7968 C   0  0  0  0  0  0  0  0  0  0  0  0
   25.4590  -18.8240  -18.7941 O   0  0  0  0  0  0  0  0  0  0  0  0
   25.5844  -18.7449  -16.5284 N   0  0  0  0  0  0  0  0  0  0  0  0
   24.7989  -19.9511  -16.4158 C   0  0  1  0  0  0  0  0  0  0  0  0
   25.5385  -20.9829  -15.6228 C   0  0  0  0  0  0  0  0  0  0  0  0
   26.6687  -21.5761  -16.3593 C   0  0  0  0  0  0  0  0  0  0  0  0
   27.0307  -21.3550  -17.6664 C   0  0  0  0  0  0  0  0  0  0  0  0
   28.1240  -22.1077  -17.9118 N   0  0  0  0  0  0  0  0  0  0  0  0
   28.4674  -22.7994  -16.8015 C   0  0  0  0  0  0  0  0  0  0  0  0
   27.5516  -22.4510  -15.8609 N   0  0  0  0  0  0  0  0  0  0  0  0
   23.4396  -19.6897  -15.8760 C   0  0  0  0  0  0  0  0  0  0  0  0
   23.3115  -19.0600  -14.7856 O   0  0  0  0  0  0  0  0  0  0  0  0
   22.2685  -20.1176  -16.5345 N   0  0  0  0  0  0  0  0  0  0  0  0
   20.9207  -19.8144  -16.1233 C   0  0  1  0  0  0  0  0  0  0  0  0
   20.0199  -19.5915  -17.3254 C   0  0  0  0  0  0  0  0  0  0  0  0
   18.6121  -19.3928  -16.9108 C   0  0  0  0  0  0  0  0  0  0  0  0
   18.1695  -18.4755  -15.9852 C   0  0  0  0  0  0  0  0  0  0  0  0
   16.8417  -18.6033  -15.8838 N   0  0  0  0  0  0  0  0  0  0  0  0
   16.3958  -19.5707  -16.7091 C   0  0  0  0  0  0  0  0  0  0  0  0
   15.1301  -20.0771  -16.9688 C   0  0  0  0  0  0  0  0  0  0  0  0
   14.9629  -21.0917  -17.8835 C   0  0  0  0  0  0  0  0  0  0  0  0
   16.0599  -21.6178  -18.5549 C   0  0  0  0  0  0  0  0  0  0  0  0
   17.3086  -21.1007  -18.2819 C   0  0  0  0  0  0  0  0  0  0  0  0
   17.5135  -20.0870  -17.3740 C   0  0  0  0  0  0  0  0  0  0  0  0
   20.4144  -20.9538  -15.3226 C   0  0  0  0  0  0  0  0  0  0  0  0
   20.7192  -22.1548  -15.5992 O   0  0  0  0  0  0  0  0  0  0  0  0
   19.5788  -20.7846  -14.2238 O   0  0  0  0  0  0  0  0  0  0  0  0
  2  1  1  6
  3  2  1  0
  4  5  1  6
  4  2  1  0
  6  7  2  0
  6  4  1  0
  8  6  1  0
  9  8  1  0
  9 10  1  1
 11 15  1  0
 11 10  1  0
 12 11  2  0
 13 12  1  0
 13 14  1  0
 14 15  2  0
 16  9  1  0
 16 18  1  0
 17 16  2  0
 19 18  1  0
 19 30  1  0
 19 20  1  6
 21 20  1  0
 22 21  2  0
 23 24  1  0
 23 22  1  0
 24 29  2  0
 25 24  1  0
 25 26  2  0
 26 27  1  0
 27 28  2  0
 29 21  1  0
 29 28  1  0
 30 32  1  0
 31 30  2  0
M  END
$$$$
