VHW.pdb
     RDKit          3D

 32 34  0  0  1  0  0  0  0  0999 V2000
   17.9748  -16.3074    3.4729 C   0  0  0  0  0  0  0  0  0  0  0  0
   17.4843  -14.8947    3.3455 C   0  0  1  0  0  0  0  0  0  0  0  0
   17.0883  -14.4994    1.9525 C   0  0  0  0  0  0  0  0  0  0  0  0
   16.4757  -14.5192    4.4002 C   0  0  2  0  0  0  0  0  0  0  0  0
   16.2153  -13.0839    4.1988 N   0  0  0  0  0  0  0  0  0  0  0  0
   16.9136  -14.7045    5.7786 C   0  0  0  0  0  0  0  0  0  0  0  0
   17.7805  -13.9305    6.2814 O   0  0  0  0  0  0  0  0  0  0  0  0
   16.4367  -15.7225    6.6538 N   0  0  0  0  0  0  0  0  0  0  0  0
   17.0460  -15.9528    7.9424 C   0  0  1  0  0  0  0  0  0  0  0  0
   16.0378  -16.4955    8.9064 C   0  0  0  0  0  0  0  0  0  0  0  0
   15.1363  -15.4603    9.4425 C   0  0  0  0  0  0  0  0  0  0  0  0
   15.1599  -14.1100    9.1887 C   0  0  0  0  0  0  0  0  0  0  0  0
   14.1517  -13.5527    9.8924 N   0  0  0  0  0  0  0  0  0  0  0  0
   13.4889  -14.5070   10.5845 C   0  0  0  0  0  0  0  0  0  0  0  0
   14.1190  -15.6728   10.2870 N   0  0  0  0  0  0  0  0  0  0  0  0
   18.2567  -16.8090    7.8480 C   0  0  0  0  0  0  0  0  0  0  0  0
   18.3464  -17.6627    6.9180 O   0  0  0  0  0  0  0  0  0  0  0  0
   19.3262  -16.7108    8.7616 N   0  0  0  0  0  0  0  0  0  0  0  0
   20.5587  -17.4544    8.6877 C   0  0  1  0  0  0  0  0  0  0  0  0
   21.5031  -16.8465    7.6655 C   0  0  0  0  0  0  0  0  0  0  0  0
   21.8228  -15.4399    8.0009 C   0  0  0  0  0  0  0  0  0  0  0  0
   22.6048  -15.0234    9.0541 C   0  0  0  0  0  0  0  0  0  0  0  0
   22.6544  -13.6868    9.0245 N   0  0  0  0  0  0  0  0  0  0  0  0
   21.9338  -13.2101    7.9904 C   0  0  0  0  0  0  0  0  0  0  0  0
   21.6742  -11.9244    7.5374 C   0  0  0  0  0  0  0  0  0  0  0  0
   20.8842  -11.7258    6.4281 C   0  0  0  0  0  0  0  0  0  0  0  0
   20.3396  -12.8111    5.7522 C   0  0  0  0  0  0  0  0  0  0  0  0
   20.6096  -14.0800    6.2192 C   0  0  0  0  0  0  0  0  0  0  0  0
   21.3946  -14.3163    7.3245 C   0  0  0  0  0  0  0  0  0  0  0  0
   21.1913  -17.4349   10.0276 C   0  0  0  0  0  0  0  0  0  0  0  0
   20.7654  -16.6841   10.9586 O   0  0  0  0  0  0  0  0  0  0  0  0
   22.2844  -18.2314   10.3517 O   0  0  0  0  0  0  0  0  0  0  0  0
  2  1  1  6
  3  2  1  0
  4  5  1  1
  4  2  1  0
  6  7  2  0
  6  4  1  0
  8  6  1  0
  9  8  1  0
  9 10  1  1
 11 15  1  0
 11 10  1  0
 12 11  2  0
 13 12  1  0
 13 14  1  0
 14 15  2  0
 16  9  1  0
 16 18  1  0
 17 16  2  0
 19 18  1  0
 19 30  1  0
 19 20  1  6
 21 20  1  0
 22 21  2  0
 23 24  1  0
 23 22  1  0
 24 29  2  0
 25 24  1  0
 25 26  2  0
 26 27  1  0
 27 28  2  0
 29 21  1  0
 29 28  1  0
 30 32  1  0
 31 30  2  0
M  END
$$$$
