VHW.pdb
     RDKit          3D

 32 34  0  0  1  0  0  0  0  0999 V2000
   29.5809  -26.1144  -18.4648 C   0  0  0  0  0  0  0  0  0  0  0  0
   29.2811  -25.0814  -17.4180 C   0  0  1  0  0  0  0  0  0  0  0  0
   29.9673  -25.3143  -16.1032 C   0  0  0  0  0  0  0  0  0  0  0  0
   29.3959  -23.6684  -17.9284 C   0  0  2  0  0  0  0  0  0  0  0  0
   30.8064  -23.5073  -18.3196 N   0  0  0  0  0  0  0  0  0  0  0  0
   29.0793  -22.6257  -16.9595 C   0  0  0  0  0  0  0  0  0  0  0  0
   29.9949  -22.1186  -16.2470 O   0  0  0  0  0  0  0  0  0  0  0  0
   27.7758  -22.0997  -16.7273 N   0  0  0  0  0  0  0  0  0  0  0  0
   27.5403  -21.0894  -15.7230 C   0  0  1  0  0  0  0  0  0  0  0  0
   27.4340  -19.7380  -16.3577 C   0  0  0  0  0  0  0  0  0  0  0  0
   27.0273  -18.6855  -15.4097 C   0  0  0  0  0  0  0  0  0  0  0  0
   27.8343  -17.9306  -14.5929 C   0  0  0  0  0  0  0  0  0  0  0  0
   27.0324  -17.0946  -13.8999 N   0  0  0  0  0  0  0  0  0  0  0  0
   25.7419  -17.2951  -14.2514 C   0  0  0  0  0  0  0  0  0  0  0  0
   25.7705  -18.2821  -15.1840 N   0  0  0  0  0  0  0  0  0  0  0  0
   26.3671  -21.4071  -14.8686 C   0  0  0  0  0  0  0  0  0  0  0  0
   25.2644  -21.7108  -15.4105 O   0  0  0  0  0  0  0  0  0  0  0  0
   26.4287  -21.3859  -13.4601 N   0  0  0  0  0  0  0  0  0  0  0  0
   25.3598  -21.7675  -12.5714 C   0  0  1  0  0  0  0  0  0  0  0  0
   25.9050  -22.3670  -11.2871 C   0  0  0  0  0  0  0  0  0  0  0  0
   26.2659  -21.3110  -10.3135 C   0  0  0  0  0  0  0  0  0  0  0  0
   25.4543  -20.2720   -9.9181 C   0  0  0  0  0  0  0  0  0  0  0  0
   26.1349  -19.5336   -9.0343 N   0  0  0  0  0  0  0  0  0  0  0  0
   27.3637  -20.0494   -8.8343 C   0  0  0  0  0  0  0  0  0  0  0  0
   28.4281  -19.6622   -8.0327 C   0  0  0  0  0  0  0  0  0  0  0  0
   29.5939  -20.3935   -8.0262 C   0  0  0  0  0  0  0  0  0  0  0  0
   29.7152  -21.5260   -8.8223 C   0  0  0  0  0  0  0  0  0  0  0  0
   28.6459  -21.8931   -9.6117 C   0  0  0  0  0  0  0  0  0  0  0  0
   27.4656  -21.1862   -9.6438 C   0  0  0  0  0  0  0  0  0  0  0  0
   24.5631  -20.5574  -12.2605 C   0  0  0  0  0  0  0  0  0  0  0  0
   25.0565  -19.3906  -12.3446 O   0  0  0  0  0  0  0  0  0  0  0  0
   23.2328  -20.6189  -11.8593 O   0  0  0  0  0  0  0  0  0  0  0  0
  2  1  1  6
  3  2  1  0
  4  5  1  1
  4  2  1  0
  6  7  2  0
  6  4  1  0
  8  6  1  0
  9  8  1  0
  9 10  1  6
 11 15  1  0
 11 10  1  0
 12 11  2  0
 13 12  1  0
 13 14  1  0
 14 15  2  0
 16  9  1  0
 16 18  1  0
 17 16  2  0
 19 18  1  0
 19 30  1  0
 19 20  1  1
 21 20  1  0
 22 21  2  0
 23 24  1  0
 23 22  1  0
 24 29  2  0
 25 24  1  0
 25 26  2  0
 26 27  1  0
 27 28  2  0
 29 21  1  0
 29 28  1  0
 30 32  1  0
 31 30  2  0
M  END
$$$$
