VHW.pdb
     RDKit          3D

 32 34  0  0  1  0  0  0  0  0999 V2000
   25.7638  -26.6537  -17.9914 C   0  0  0  0  0  0  0  0  0  0  0  0
   24.8468  -25.6618  -17.3373 C   0  0  1  0  0  0  0  0  0  0  0  0
   24.3528  -26.0751  -15.9812 C   0  0  0  0  0  0  0  0  0  0  0  0
   25.3623  -24.2472  -17.3977 C   0  0  2  0  0  0  0  0  0  0  0  0
   26.6322  -24.2616  -16.6525 N   0  0  0  0  0  0  0  0  0  0  0  0
   24.4995  -23.2406  -16.7905 C   0  0  0  0  0  0  0  0  0  0  0  0
   24.6633  -22.9074  -15.5799 O   0  0  0  0  0  0  0  0  0  0  0  0
   23.4395  -22.5658  -17.4617 N   0  0  0  0  0  0  0  0  0  0  0  0
   22.6910  -21.5126  -16.8172 C   0  0  1  0  0  0  0  0  0  0  0  0
   22.3043  -20.4635  -17.8124 C   0  0  0  0  0  0  0  0  0  0  0  0
   23.3747  -19.4815  -18.0611 C   0  0  0  0  0  0  0  0  0  0  0  0
   24.6155  -19.4219  -17.4737 C   0  0  0  0  0  0  0  0  0  0  0  0
   25.2594  -18.3611  -18.0052 N   0  0  0  0  0  0  0  0  0  0  0  0
   24.4663  -17.7459  -18.9115 C   0  0  0  0  0  0  0  0  0  0  0  0
   23.3107  -18.4595  -18.9241 N   0  0  0  0  0  0  0  0  0  0  0  0
   21.5227  -22.0333  -16.0612 C   0  0  0  0  0  0  0  0  0  0  0  0
   20.8512  -22.9958  -16.5352 O   0  0  0  0  0  0  0  0  0  0  0  0
   21.1233  -21.4955  -14.8205 N   0  0  0  0  0  0  0  0  0  0  0  0
   20.0700  -22.0152  -13.9850 C   0  0  1  0  0  0  0  0  0  0  0  0
   20.6286  -22.5861  -12.6935 C   0  0  0  0  0  0  0  0  0  0  0  0
   21.5426  -21.6255  -12.0338 C   0  0  0  0  0  0  0  0  0  0  0  0
   21.1738  -20.4284  -11.4634 C   0  0  0  0  0  0  0  0  0  0  0  0
   22.2770  -19.8491  -10.9765 N   0  0  0  0  0  0  0  0  0  0  0  0
   23.3569  -20.6218  -11.2058 C   0  0  0  0  0  0  0  0  0  0  0  0
   24.7033  -20.4709  -10.9055 C   0  0  0  0  0  0  0  0  0  0  0  0
   25.6083  -21.4421  -11.2687 C   0  0  0  0  0  0  0  0  0  0  0  0
   25.1817  -22.5821  -11.9392 C   0  0  0  0  0  0  0  0  0  0  0  0
   23.8398  -22.7121  -12.2283 C   0  0  0  0  0  0  0  0  0  0  0  0
   22.9069  -21.7619  -11.8809 C   0  0  0  0  0  0  0  0  0  0  0  0
   19.1337  -20.9080  -13.6794 C   0  0  0  0  0  0  0  0  0  0  0  0
   19.4415  -19.6939  -13.8867 O   0  0  0  0  0  0  0  0  0  0  0  0
   17.8659  -21.1237  -13.1499 O   0  0  0  0  0  0  0  0  0  0  0  0
  2  1  1  1
  3  2  1  0
  4  5  1  1
  4  2  1  0
  6  7  2  0
  6  4  1  0
  8  6  1  0
  9  8  1  0
  9 10  1  6
 11 15  1  0
 11 10  1  0
 12 11  2  0
 13 12  1  0
 13 14  1  0
 14 15  2  0
 16  9  1  0
 16 18  1  0
 17 16  2  0
 19 18  1  0
 19 30  1  0
 19 20  1  1
 21 20  1  0
 22 21  2  0
 23 24  1  0
 23 22  1  0
 24 29  2  0
 25 24  1  0
 25 26  2  0
 26 27  1  0
 27 28  2  0
 29 21  1  0
 29 28  1  0
 30 32  1  0
 31 30  2  0
M  END
$$$$
