VHW.pdb
     RDKit          3D

 32 34  0  0  1  0  0  0  0  0999 V2000
   29.7281  -16.8536  -16.8984 C   0  0  0  0  0  0  0  0  0  0  0  0
   28.4704  -17.5916  -16.5430 C   0  0  1  0  0  0  0  0  0  0  0  0
   27.6179  -17.9661  -17.7206 C   0  0  0  0  0  0  0  0  0  0  0  0
   28.6981  -18.7172  -15.5675 C   0  0  2  0  0  0  0  0  0  0  0  0
   28.7200  -19.9430  -16.3831 N   0  0  0  0  0  0  0  0  0  0  0  0
   27.6692  -18.8781  -14.5468 C   0  0  0  0  0  0  0  0  0  0  0  0
   27.4925  -17.9792  -13.6729 O   0  0  0  0  0  0  0  0  0  0  0  0
   26.8043  -20.0046  -14.4342 N   0  0  0  0  0  0  0  0  0  0  0  0
   25.8058  -20.0852  -13.3944 C   0  0  1  0  0  0  0  0  0  0  0  0
   24.4833  -20.4839  -13.9711 C   0  0  0  0  0  0  0  0  0  0  0  0
   23.4096  -20.5460  -12.9636 C   0  0  0  0  0  0  0  0  0  0  0  0
   23.4902  -20.2368  -11.6271 C   0  0  0  0  0  0  0  0  0  0  0  0
   22.2665  -20.4401  -11.0947 N   0  0  0  0  0  0  0  0  0  0  0  0
   21.4118  -20.8683  -12.0513 C   0  0  0  0  0  0  0  0  0  0  0  0
   22.1455  -20.9238  -13.1930 N   0  0  0  0  0  0  0  0  0  0  0  0
   26.2260  -20.9703  -12.2774 C   0  0  0  0  0  0  0  0  0  0  0  0
   26.7054  -22.1133  -12.5334 O   0  0  0  0  0  0  0  0  0  0  0  0
   26.1135  -20.5876  -10.9250 N   0  0  0  0  0  0  0  0  0  0  0  0
   26.4443  -21.4153   -9.7924 C   0  0  1  0  0  0  0  0  0  0  0  0
   27.8059  -21.0500   -9.2279 C   0  0  0  0  0  0  0  0  0  0  0  0
   27.6773  -20.1595   -8.0516 C   0  0  0  0  0  0  0  0  0  0  0  0
   26.6668  -19.2492   -7.8403 C   0  0  0  0  0  0  0  0  0  0  0  0
   26.9025  -18.6385   -6.6736 N   0  0  0  0  0  0  0  0  0  0  0  0
   28.0305  -19.1143   -6.1106 C   0  0  0  0  0  0  0  0  0  0  0  0
   28.6913  -18.8143   -4.9278 C   0  0  0  0  0  0  0  0  0  0  0  0
   29.8537  -19.4722   -4.5962 C   0  0  0  0  0  0  0  0  0  0  0  0
   30.3757  -20.4426   -5.4429 C   0  0  0  0  0  0  0  0  0  0  0  0
   29.7039  -20.7251   -6.6133 C   0  0  0  0  0  0  0  0  0  0  0  0
   28.5398  -20.0877   -6.9773 C   0  0  0  0  0  0  0  0  0  0  0  0
   25.4034  -21.2183   -8.7562 C   0  0  0  0  0  0  0  0  0  0  0  0
   24.6058  -20.2311   -8.7872 O   0  0  0  0  0  0  0  0  0  0  0  0
   25.2325  -22.0948   -7.6899 O   0  0  0  0  0  0  0  0  0  0  0  0
  2  1  1  6
  3  2  1  0
  4  5  1  6
  4  2  1  0
  6  7  2  0
  6  4  1  0
  8  6  1  0
  9  8  1  0
  9 10  1  6
 11 15  1  0
 11 10  1  0
 12 11  2  0
 13 12  1  0
 13 14  1  0
 14 15  2  0
 16  9  1  0
 16 18  1  0
 17 16  2  0
 19 18  1  0
 19 30  1  0
 19 20  1  1
 21 20  1  0
 22 21  2  0
 23 24  1  0
 23 22  1  0
 24 29  2  0
 25 24  1  0
 25 26  2  0
 26 27  1  0
 27 28  2  0
 29 21  1  0
 29 28  1  0
 30 32  1  0
 31 30  2  0
M  END
$$$$
