VHW.pdb
     RDKit          3D

 32 34  0  0  1  0  0  0  0  0999 V2000
   11.3010   -3.2188  -20.3641 C   0  0  0  0  0  0  0  0  0  0  0  0
   12.3586   -4.1913  -19.9303 C   0  0  1  0  0  0  0  0  0  0  0  0
   11.8404   -5.3605  -19.1441 C   0  0  0  0  0  0  0  0  0  0  0  0
   13.3081   -4.5688  -21.0377 C   0  0  2  0  0  0  0  0  0  0  0  0
   12.4957   -5.3181  -22.0108 N   0  0  0  0  0  0  0  0  0  0  0  0
   14.4257   -5.4174  -20.6414 C   0  0  0  0  0  0  0  0  0  0  0  0
   14.3473   -6.6748  -20.7684 O   0  0  0  0  0  0  0  0  0  0  0  0
   15.6545   -4.9433  -20.0983 N   0  0  0  0  0  0  0  0  0  0  0  0
   16.7263   -5.8494  -19.7593 C   0  0  1  0  0  0  0  0  0  0  0  0
   18.0223   -5.3592  -20.3255 C   0  0  0  0  0  0  0  0  0  0  0  0
   18.1347   -5.5730  -21.7793 C   0  0  0  0  0  0  0  0  0  0  0  0
   18.1995   -6.7697  -22.4517 C   0  0  0  0  0  0  0  0  0  0  0  0
   18.2953   -6.4847  -23.7677 N   0  0  0  0  0  0  0  0  0  0  0  0
   18.2931   -5.1448  -23.9515 C   0  0  0  0  0  0  0  0  0  0  0  0
   18.1930   -4.6094  -22.7073 N   0  0  0  0  0  0  0  0  0  0  0  0
   16.8076   -6.1040  -18.2978 C   0  0  0  0  0  0  0  0  0  0  0  0
   17.0249   -5.1397  -17.5075 O   0  0  0  0  0  0  0  0  0  0  0  0
   16.6503   -7.3911  -17.7439 N   0  0  0  0  0  0  0  0  0  0  0  0
   16.5281   -7.6863  -16.3383 C   0  0  1  0  0  0  0  0  0  0  0  0
   15.8704   -9.0375  -16.1192 C   0  0  0  0  0  0  0  0  0  0  0  0
   16.6326  -10.1190  -16.7846 C   0  0  0  0  0  0  0  0  0  0  0  0
   17.8093  -10.6691  -16.3297 C   0  0  0  0  0  0  0  0  0  0  0  0
   18.1860  -11.6105  -17.2023 N   0  0  0  0  0  0  0  0  0  0  0  0
   17.2999  -11.6992  -18.2136 C   0  0  0  0  0  0  0  0  0  0  0  0
   17.2389  -12.5016  -19.3441 C   0  0  0  0  0  0  0  0  0  0  0  0
   16.1932  -12.3743  -20.2298 C   0  0  0  0  0  0  0  0  0  0  0  0
   15.1894  -11.4412  -19.9995 C   0  0  0  0  0  0  0  0  0  0  0  0
   15.2694  -10.6537  -18.8706 C   0  0  0  0  0  0  0  0  0  0  0  0
   16.2996  -10.7531  -17.9637 C   0  0  0  0  0  0  0  0  0  0  0  0
   17.8868   -7.6889  -15.7468 C   0  0  0  0  0  0  0  0  0  0  0  0
   18.9291   -7.8000  -16.4631 O   0  0  0  0  0  0  0  0  0  0  0  0
   18.1084   -7.5706  -14.3789 O   0  0  0  0  0  0  0  0  0  0  0  0
  2  1  1  6
  3  2  1  0
  4  5  1  6
  4  2  1  0
  6  7  2  0
  6  4  1  0
  8  6  1  0
  9  8  1  0
  9 10  1  1
 11 15  1  0
 11 10  1  0
 12 11  2  0
 13 12  1  0
 13 14  1  0
 14 15  2  0
 16  9  1  0
 16 18  1  0
 17 16  2  0
 19 18  1  0
 19 30  1  0
 19 20  1  6
 21 20  1  0
 22 21  2  0
 23 24  1  0
 23 22  1  0
 24 29  2  0
 25 24  1  0
 25 26  2  0
 26 27  1  0
 27 28  2  0
 29 21  1  0
 29 28  1  0
 30 32  1  0
 31 30  2  0
M  END
$$$$
