VHW.pdb
     RDKit          3D

 32 34  0  0  1  0  0  0  0  0999 V2000
   28.6425  -22.2841  -18.7596 C   0  0  0  0  0  0  0  0  0  0  0  0
   28.4957  -21.4209  -17.5406 C   0  0  1  0  0  0  0  0  0  0  0  0
   27.5848  -20.2415  -17.7225 C   0  0  0  0  0  0  0  0  0  0  0  0
   28.2357  -22.2090  -16.2829 C   0  0  2  0  0  0  0  0  0  0  0  0
   27.0267  -23.0021  -16.5615 N   0  0  0  0  0  0  0  0  0  0  0  0
   27.9824  -21.4135  -15.0874 C   0  0  0  0  0  0  0  0  0  0  0  0
   28.9420  -21.0669  -14.3376 O   0  0  0  0  0  0  0  0  0  0  0  0
   26.6970  -20.9696  -14.6629 N   0  0  0  0  0  0  0  0  0  0  0  0
   26.5305  -20.1870  -13.4611 C   0  0  1  0  0  0  0  0  0  0  0  0
   25.7139  -18.9648  -13.7436 C   0  0  0  0  0  0  0  0  0  0  0  0
   26.4869  -17.8919  -14.3941 C   0  0  0  0  0  0  0  0  0  0  0  0
   27.8237  -17.8915  -14.7121 C   0  0  0  0  0  0  0  0  0  0  0  0
   28.0965  -16.7043  -15.2937 N   0  0  0  0  0  0  0  0  0  0  0  0
   26.9747  -15.9514  -15.3551 C   0  0  0  0  0  0  0  0  0  0  0  0
   25.9988  -16.7103  -14.7927 N   0  0  0  0  0  0  0  0  0  0  0  0
   25.9789  -20.9890  -12.3385 C   0  0  0  0  0  0  0  0  0  0  0  0
   25.1107  -21.8790  -12.5750 O   0  0  0  0  0  0  0  0  0  0  0  0
   26.3863  -20.8004  -11.0019 N   0  0  0  0  0  0  0  0  0  0  0  0
   25.9495  -21.5881   -9.8765 C   0  0  1  0  0  0  0  0  0  0  0  0
   27.0786  -21.7924   -8.8817 C   0  0  0  0  0  0  0  0  0  0  0  0
   27.2651  -20.5957   -8.0293 C   0  0  0  0  0  0  0  0  0  0  0  0
   26.6856  -19.3645   -8.2359 C   0  0  0  0  0  0  0  0  0  0  0  0
   27.0976  -18.5484   -7.2592 N   0  0  0  0  0  0  0  0  0  0  0  0
   27.9264  -19.1983   -6.4186 C   0  0  0  0  0  0  0  0  0  0  0  0
   28.6065  -18.8038   -5.2751 C   0  0  0  0  0  0  0  0  0  0  0  0
   29.4041  -19.6985   -4.5988 C   0  0  0  0  0  0  0  0  0  0  0  0
   29.5352  -21.0046   -5.0550 C   0  0  0  0  0  0  0  0  0  0  0  0
   28.8513  -21.3758   -6.1932 C   0  0  0  0  0  0  0  0  0  0  0  0
   28.0454  -20.5086   -6.8949 C   0  0  0  0  0  0  0  0  0  0  0  0
   24.8276  -20.8756   -9.2213 C   0  0  0  0  0  0  0  0  0  0  0  0
   24.5474  -19.6687   -9.4983 O   0  0  0  0  0  0  0  0  0  0  0  0
   24.0135  -21.4769   -8.2673 O   0  0  0  0  0  0  0  0  0  0  0  0
  2  1  1  6
  3  2  1  0
  4  5  1  6
  4  2  1  0
  6  7  2  0
  6  4  1  0
  8  6  1  0
  9  8  1  0
  9 10  1  6
 11 15  1  0
 11 10  1  0
 12 11  2  0
 13 12  1  0
 13 14  1  0
 14 15  2  0
 16  9  1  0
 16 18  1  0
 17 16  2  0
 19 18  1  0
 19 30  1  0
 19 20  1  1
 21 20  1  0
 22 21  2  0
 23 24  1  0
 23 22  1  0
 24 29  2  0
 25 24  1  0
 25 26  2  0
 26 27  1  0
 27 28  2  0
 29 21  1  0
 29 28  1  0
 30 32  1  0
 31 30  2  0
M  END
$$$$
