PCT.pdb
     RDKit          3D

 21 21  0  0  1  0  0  0  0  0999 V2000
    6.8109  -14.6762   20.9220 N   0  0  0  0  0  0  0  0  0  0  0  0
    6.5100  -14.2397   19.5788 C   0  0  0  0  0  0  0  0  0  0  0  0
    7.4927  -13.1389   19.2803 C   0  0  0  0  0  0  0  0  0  0  0  0
    8.4041  -13.0780   20.4671 C   0  0  0  0  0  0  0  0  0  0  0  0
    8.2162  -14.4166   21.1220 C   0  0  1  0  0  0  0  0  0  0  0  0
    8.5803  -14.4207   22.5546 C   0  0  0  0  0  0  0  0  0  0  0  0
    9.7960  -14.4761   22.8676 O   0  0  0  0  0  0  0  0  0  0  0  0
    7.6011  -14.3642   23.5557 N   0  0  0  0  0  0  0  0  0  0  0  0
    7.9152  -14.3574   24.9909 C   0  0  1  0  0  0  0  0  0  0  0  0
    6.9577  -13.4342   25.7120 C   0  0  0  0  0  0  0  0  0  0  0  0
    5.2332  -13.8578   25.4139 S   0  0  0  0  0  0  0  0  0  0  0  0
    7.8930  -15.7449   25.4612 C   0  0  0  0  0  0  0  0  0  0  0  0
    6.7893  -16.3937   25.4620 O   0  0  0  0  0  0  0  0  0  0  0  0
    8.8351  -18.7454   24.1391 C   0  0  0  0  0  0  0  0  0  0  0  0
    9.5543  -18.7720   25.4638 C   0  0  1  0  0  0  0  0  0  0  0  0
   10.8689  -18.3583   25.2599 O   0  0  0  0  0  0  0  0  0  0  0  0
    8.8506  -17.8232   26.4322 C   0  0  2  0  0  0  0  0  0  0  0  0
    9.0163  -16.4567   25.9277 N   0  0  0  0  0  0  0  0  0  0  0  0
    9.3979  -17.9426   27.7950 C   0  0  0  0  0  0  0  0  0  0  0  0
    9.9949  -16.9733   28.3606 O   0  0  0  0  0  0  0  0  0  0  0  0
    9.2810  -19.1184   28.5100 O   0  0  0  0  0  0  0  0  0  0  0  0
  2  1  1  0
  3  2  1  0
  4  5  1  0
  4  3  1  0
  5  1  1  0
  6  8  1  0
  5  6  1  1
  7  6  2  0
  9 12  1  0
  9  8  1  0
  9 10  1  1
 11 10  1  0
 12 18  1  0
 13 12  2  0
 15 16  1  0
 15 14  1  6
 17 19  1  0
 17 15  1  0
 17 18  1  6
 19 21  1  0
 20 19  2  0
M  END
$$$$
