PCT.pdb
     RDKit          3D

 21 21  0  0  1  0  0  0  0  0999 V2000
    7.2604  -15.1696   21.6450 N   0  0  0  0  0  0  0  0  0  0  0  0
    6.6526  -14.7530   20.4032 C   0  0  0  0  0  0  0  0  0  0  0  0
    7.4899  -13.6044   19.9070 C   0  0  0  0  0  0  0  0  0  0  0  0
    8.6336  -13.4936   20.8675 C   0  0  0  0  0  0  0  0  0  0  0  0
    8.6606  -14.8381   21.5365 C   0  0  1  0  0  0  0  0  0  0  0  0
    9.3277  -14.8193   22.8555 C   0  0  0  0  0  0  0  0  0  0  0  0
   10.5829  -14.7767   22.8957 O   0  0  0  0  0  0  0  0  0  0  0  0
    8.5892  -14.8480   24.0463 N   0  0  0  0  0  0  0  0  0  0  0  0
    9.1992  -14.7164   25.3763 C   0  0  1  0  0  0  0  0  0  0  0  0
    8.4281  -13.6970   26.1859 C   0  0  0  0  0  0  0  0  0  0  0  0
    9.0199  -13.5711   27.8819 S   0  0  0  0  0  0  0  0  0  0  0  0
    9.2580  -16.0517   25.9766 C   0  0  0  0  0  0  0  0  0  0  0  0
    8.1909  -16.7542   26.0595 O   0  0  0  0  0  0  0  0  0  0  0  0
   10.5207  -19.1350   25.0215 C   0  0  0  0  0  0  0  0  0  0  0  0
   11.1408  -18.9669   26.3854 C   0  0  1  0  0  0  0  0  0  0  0  0
   12.4488  -18.5159   26.2221 O   0  0  0  0  0  0  0  0  0  0  0  0
   10.3293  -17.9451   27.1794 C   0  0  2  0  0  0  0  0  0  0  0  0
   10.4241  -16.6558   26.4878 N   0  0  0  0  0  0  0  0  0  0  0  0
   10.8196  -17.8279   28.5639 C   0  0  0  0  0  0  0  0  0  0  0  0
   11.2664  -16.7294   29.0219 O   0  0  0  0  0  0  0  0  0  0  0  0
   10.8111  -18.9132   29.4179 O   0  0  0  0  0  0  0  0  0  0  0  0
  2  1  1  0
  3  2  1  0
  4  5  1  0
  4  3  1  0
  5  1  1  0
  6  8  1  0
  5  6  1  1
  7  6  2  0
  9 12  1  0
  9  8  1  0
  9 10  1  1
 11 10  1  0
 12 18  1  0
 13 12  2  0
 15 16  1  0
 15 14  1  6
 17 19  1  0
 17 15  1  0
 17 18  1  6
 19 21  1  0
 20 19  2  0
M  END
$$$$
