PCT.pdb
     RDKit          3D

 21 21  0  0  1  0  0  0  0  0999 V2000
    8.9274  -13.3991   18.6416 N   0  0  0  0  0  0  0  0  0  0  0  0
    8.2859  -13.5274   17.3542 C   0  0  0  0  0  0  0  0  0  0  0  0
    7.1621  -14.5084   17.5571 C   0  0  0  0  0  0  0  0  0  0  0  0
    7.1525  -14.8146   19.0231 C   0  0  0  0  0  0  0  0  0  0  0  0
    7.9060  -13.6637   19.6261 C   0  0  1  0  0  0  0  0  0  0  0  0
    8.4831  -13.9752   20.9508 C   0  0  0  0  0  0  0  0  0  0  0  0
    9.6902  -14.3179   21.0172 O   0  0  0  0  0  0  0  0  0  0  0  0
    7.7125  -13.8948   22.1187 N   0  0  0  0  0  0  0  0  0  0  0  0
    8.2626  -14.1111   23.4637 C   0  0  1  0  0  0  0  0  0  0  0  0
    7.3164  -13.5345   24.4940 C   0  0  0  0  0  0  0  0  0  0  0  0
    7.7518  -14.0111   26.1750 S   0  0  0  0  0  0  0  0  0  0  0  0
    8.5265  -15.5445   23.6148 C   0  0  0  0  0  0  0  0  0  0  0  0
    7.5761  -16.3836   23.4371 O   0  0  0  0  0  0  0  0  0  0  0  0
   10.1880  -17.8722   21.6892 C   0  0  0  0  0  0  0  0  0  0  0  0
   10.8315  -18.0838   23.0361 C   0  0  1  0  0  0  0  0  0  0  0  0
   12.0383  -17.3883   23.0620 O   0  0  0  0  0  0  0  0  0  0  0  0
    9.8980  -17.5544   24.1231 C   0  0  2  0  0  0  0  0  0  0  0  0
    9.7763  -16.1038   23.9482 N   0  0  0  0  0  0  0  0  0  0  0  0
   10.4049  -17.8734   25.4693 C   0  0  0  0  0  0  0  0  0  0  0  0
   10.6836  -16.9614   26.3099 O   0  0  0  0  0  0  0  0  0  0  0  0
   10.5964  -19.1818   25.8678 O   0  0  0  0  0  0  0  0  0  0  0  0
  2  1  1  0
  3  2  1  0
  4  5  1  0
  4  3  1  0
  5  1  1  0
  6  8  1  0
  5  6  1  1
  7  6  2  0
  9 12  1  0
  9  8  1  0
  9 10  1  1
 11 10  1  0
 12 18  1  0
 13 12  2  0
 15 16  1  0
 15 14  1  6
 17 19  1  0
 17 15  1  0
 17 18  1  1
 19 21  1  0
 20 19  2  0
M  END
$$$$
