PCT.pdb
     RDKit          3D

 21 21  0  0  1  0  0  0  0  0999 V2000
    8.8989  -14.9443   19.4624 N   0  0  0  0  0  0  0  0  0  0  0  0
    9.0702  -14.5383   18.0872 C   0  0  0  0  0  0  0  0  0  0  0  0
    8.0581  -13.4477   17.8572 C   0  0  0  0  0  0  0  0  0  0  0  0
    7.4164  -13.2046   19.1884 C   0  0  0  0  0  0  0  0  0  0  0  0
    8.4008  -13.7853   20.1630 C   0  0  1  0  0  0  0  0  0  0  0  0
    7.7926  -14.1439   21.4616 C   0  0  0  0  0  0  0  0  0  0  0  0
    7.1717  -13.2585   22.1016 O   0  0  0  0  0  0  0  0  0  0  0  0
    7.8976  -15.4409   21.9823 N   0  0  0  0  0  0  0  0  0  0  0  0
    7.2983  -15.8471   23.2606 C   0  0  1  0  0  0  0  0  0  0  0  0
    7.4468  -17.3427   23.4342 C   0  0  0  0  0  0  0  0  0  0  0  0
    6.9213  -17.9047   25.0623 S   0  0  0  0  0  0  0  0  0  0  0  0
    7.9177  -15.0471   24.3204 C   0  0  0  0  0  0  0  0  0  0  0  0
    9.1609  -14.7515   24.2435 O   0  0  0  0  0  0  0  0  0  0  0  0
    6.5547  -11.7128   26.0221 C   0  0  0  0  0  0  0  0  0  0  0  0
    6.9546  -12.7474   27.0431 C   0  0  1  0  0  0  0  0  0  0  0  0
    5.8136  -13.4440   27.4348 O   0  0  0  0  0  0  0  0  0  0  0  0
    7.9633  -13.7058   26.4128 C   0  0  2  0  0  0  0  0  0  0  0  0
    7.2453  -14.5540   25.4565 N   0  0  0  0  0  0  0  0  0  0  0  0
    8.6336  -14.5292   27.4345 C   0  0  0  0  0  0  0  0  0  0  0  0
    8.5292  -15.7961   27.4430 O   0  0  0  0  0  0  0  0  0  0  0  0
    9.4033  -13.9505   28.4245 O   0  0  0  0  0  0  0  0  0  0  0  0
  2  1  1  0
  3  2  1  0
  4  5  1  0
  4  3  1  0
  5  1  1  0
  6  8  1  0
  5  6  1  1
  7  6  2  0
  9 12  1  0
  9  8  1  0
  9 10  1  1
 11 10  1  0
 12 18  1  0
 13 12  2  0
 15 16  1  0
 15 14  1  6
 17 19  1  0
 17 15  1  0
 17 18  1  6
 19 21  1  0
 20 19  2  0
M  END
$$$$
