PCT.pdb
     RDKit          3D

 21 21  0  0  1  0  0  0  0  0999 V2000
    6.9666  -14.6728   20.6085 N   0  0  0  0  0  0  0  0  0  0  0  0
    6.5982  -14.2895   19.2659 C   0  0  0  0  0  0  0  0  0  0  0  0
    7.3556  -13.0192   18.9845 C   0  0  0  0  0  0  0  0  0  0  0  0
    8.2298  -12.7966   20.1799 C   0  0  0  0  0  0  0  0  0  0  0  0
    8.2953  -14.1523   20.8232 C   0  0  1  0  0  0  0  0  0  0  0  0
    8.6427  -14.0998   22.2590 C   0  0  0  0  0  0  0  0  0  0  0  0
    9.8553  -14.0480   22.5843 O   0  0  0  0  0  0  0  0  0  0  0  0
    7.6513  -14.1071   23.2496 N   0  0  0  0  0  0  0  0  0  0  0  0
    7.9435  -13.9752   24.6833 C   0  0  1  0  0  0  0  0  0  0  0  0
    6.8459  -13.1751   25.3499 C   0  0  0  0  0  0  0  0  0  0  0  0
    7.0432  -13.0878   27.1376 S   0  0  0  0  0  0  0  0  0  0  0  0
    8.1312  -15.3223   25.2282 C   0  0  0  0  0  0  0  0  0  0  0  0
    7.1413  -16.1334   25.2619 O   0  0  0  0  0  0  0  0  0  0  0  0
    9.5749  -18.1701   24.1016 C   0  0  0  0  0  0  0  0  0  0  0  0
   10.2268  -18.0642   25.4569 C   0  0  1  0  0  0  0  0  0  0  0  0
   11.4990  -17.5207   25.2927 O   0  0  0  0  0  0  0  0  0  0  0  0
    9.3803  -17.1570   26.3477 C   0  0  2  0  0  0  0  0  0  0  0  0
    9.3461  -15.8254   25.7353 N   0  0  0  0  0  0  0  0  0  0  0  0
    9.9256  -17.0850   27.7146 C   0  0  0  0  0  0  0  0  0  0  0  0
   10.2843  -15.9805   28.2317 O   0  0  0  0  0  0  0  0  0  0  0  0
   10.0673  -18.2213   28.4867 O   0  0  0  0  0  0  0  0  0  0  0  0
  2  1  1  0
  3  2  1  0
  4  5  1  0
  4  3  1  0
  5  1  1  0
  6  8  1  0
  5  6  1  1
  7  6  2  0
  9 12  1  0
  9  8  1  0
  9 10  1  1
 11 10  1  0
 12 18  1  0
 13 12  2  0
 15 16  1  0
 15 14  1  6
 17 19  1  0
 17 15  1  0
 17 18  1  6
 19 21  1  0
 20 19  2  0
M  END
$$$$
