PCT.pdb
     RDKit          3D

 21 21  0  0  1  0  0  0  0  0999 V2000
    6.8636  -14.7162   20.6234 N   0  0  0  0  0  0  0  0  0  0  0  0
    6.4827  -14.2713   19.3034 C   0  0  0  0  0  0  0  0  0  0  0  0
    7.3931  -13.1148   18.9869 C   0  0  0  0  0  0  0  0  0  0  0  0
    8.3504  -13.0279   20.1353 C   0  0  0  0  0  0  0  0  0  0  0  0
    8.2608  -14.3865   20.7694 C   0  0  1  0  0  0  0  0  0  0  0  0
    8.6861  -14.3979   22.1851 C   0  0  0  0  0  0  0  0  0  0  0  0
    9.9153  -14.3887   22.4454 O   0  0  0  0  0  0  0  0  0  0  0  0
    7.7494  -14.4187   23.2274 N   0  0  0  0  0  0  0  0  0  0  0  0
    8.1223  -14.3628   24.6473 C   0  0  1  0  0  0  0  0  0  0  0  0
    7.1145  -13.5224   25.4005 C   0  0  0  0  0  0  0  0  0  0  0  0
    5.7219  -14.4906   26.0052 S   0  0  0  0  0  0  0  0  0  0  0  0
    8.2495  -15.7398   25.1318 C   0  0  0  0  0  0  0  0  0  0  0  0
    7.2762  -16.5566   24.9754 O   0  0  0  0  0  0  0  0  0  0  0  0
    9.8461  -18.4809   23.9511 C   0  0  0  0  0  0  0  0  0  0  0  0
   10.3609  -18.4460   25.3677 C   0  0  1  0  0  0  0  0  0  0  0  0
   11.6068  -17.8228   25.3684 O   0  0  0  0  0  0  0  0  0  0  0  0
    9.3805  -17.6588   26.2351 C   0  0  2  0  0  0  0  0  0  0  0  0
    9.3869  -16.2665   25.7758 N   0  0  0  0  0  0  0  0  0  0  0  0
    9.7427  -17.7360   27.6612 C   0  0  0  0  0  0  0  0  0  0  0  0
   10.0706  -16.7009   28.3224 O   0  0  0  0  0  0  0  0  0  0  0  0
    9.7388  -18.9421   28.3339 O   0  0  0  0  0  0  0  0  0  0  0  0
  2  1  1  0
  3  2  1  0
  4  5  1  0
  4  3  1  0
  5  1  1  0
  6  8  1  0
  5  6  1  1
  7  6  2  0
  9 12  1  0
  9  8  1  0
  9 10  1  1
 11 10  1  0
 12 18  1  0
 13 12  2  0
 15 16  1  0
 15 14  1  6
 17 19  1  0
 17 15  1  0
 17 18  1  6
 19 21  1  0
 20 19  2  0
M  END
$$$$
