PCT.pdb
     RDKit          3D

 21 21  0  0  1  0  0  0  0  0999 V2000
    6.8959  -14.7088   20.9844 N   0  0  0  0  0  0  0  0  0  0  0  0
    6.5205  -14.4191   19.6204 C   0  0  0  0  0  0  0  0  0  0  0  0
    7.3905  -13.2659   19.1965 C   0  0  0  0  0  0  0  0  0  0  0  0
    8.3242  -13.0217   20.3417 C   0  0  0  0  0  0  0  0  0  0  0  0
    8.2766  -14.3097   21.1130 C   0  0  1  0  0  0  0  0  0  0  0  0
    8.6780  -14.1569   22.5274 C   0  0  0  0  0  0  0  0  0  0  0  0
    9.9014  -14.0709   22.8010 O   0  0  0  0  0  0  0  0  0  0  0  0
    7.7254  -14.1074   23.5542 N   0  0  0  0  0  0  0  0  0  0  0  0
    8.0656  -13.8323   24.9567 C   0  0  1  0  0  0  0  0  0  0  0  0
    6.9873  -12.9713   25.5773 C   0  0  0  0  0  0  0  0  0  0  0  0
    7.2565  -12.6873   27.3350 S   0  0  0  0  0  0  0  0  0  0  0  0
    8.2785  -15.1178   25.6267 C   0  0  0  0  0  0  0  0  0  0  0  0
    7.3026  -15.9381   25.7438 O   0  0  0  0  0  0  0  0  0  0  0  0
   10.0000  -17.9802   24.7500 C   0  0  0  0  0  0  0  0  0  0  0  0
   10.5302  -17.7435   26.1413 C   0  0  1  0  0  0  0  0  0  0  0  0
   11.7826  -17.1419   26.0392 O   0  0  0  0  0  0  0  0  0  0  0  0
    9.5675  -16.8256   26.8922 C   0  0  2  0  0  0  0  0  0  0  0  0
    9.5040  -15.5501   26.1722 N   0  0  0  0  0  0  0  0  0  0  0  0
   10.0017  -16.6141   28.2841 C   0  0  0  0  0  0  0  0  0  0  0  0
   10.1644  -17.5866   29.0866 O   0  0  0  0  0  0  0  0  0  0  0  0
   10.2488  -15.3448   28.7692 O   0  0  0  0  0  0  0  0  0  0  0  0
  2  1  1  0
  3  2  1  0
  4  5  1  0
  4  3  1  0
  5  1  1  0
  6  8  1  0
  5  6  1  1
  7  6  2  0
  9 12  1  0
  9  8  1  0
  9 10  1  1
 11 10  1  0
 12 18  1  0
 13 12  2  0
 15 16  1  0
 15 14  1  6
 17 19  1  0
 17 15  1  0
 17 18  1  6
 19 21  1  0
 20 19  2  0
M  END
$$$$
