PCT.pdb
     RDKit          3D

 21 21  0  0  1  0  0  0  0  0999 V2000
    7.5355  -15.1296   18.4913 N   0  0  0  0  0  0  0  0  0  0  0  0
    7.9403  -14.2139   17.4507 C   0  0  0  0  0  0  0  0  0  0  0  0
    8.1699  -12.8944   18.1382 C   0  0  0  0  0  0  0  0  0  0  0  0
    7.9846  -13.1627   19.5999 C   0  0  0  0  0  0  0  0  0  0  0  0
    8.1500  -14.6517   19.7064 C   0  0  1  0  0  0  0  0  0  0  0  0
    7.5117  -15.2243   20.9104 C   0  0  0  0  0  0  0  0  0  0  0  0
    6.4270  -15.8451   20.7804 O   0  0  0  0  0  0  0  0  0  0  0  0
    8.0921  -15.0862   22.1787 N   0  0  0  0  0  0  0  0  0  0  0  0
    7.5570  -15.7324   23.3846 C   0  0  1  0  0  0  0  0  0  0  0  0
    7.5358  -17.2321   23.1856 C   0  0  0  0  0  0  0  0  0  0  0  0
    7.1556  -18.1249   24.7025 S   0  0  0  0  0  0  0  0  0  0  0  0
    8.3562  -15.2815   24.5269 C   0  0  0  0  0  0  0  0  0  0  0  0
    9.6339  -15.2949   24.4482 O   0  0  0  0  0  0  0  0  0  0  0  0
    8.1613  -12.0357   26.5598 C   0  0  0  0  0  0  0  0  0  0  0  0
    8.1460  -13.1972   27.5207 C   0  0  1  0  0  0  0  0  0  0  0  0
    6.8261  -13.4461   27.8902 O   0  0  0  0  0  0  0  0  0  0  0  0
    8.7369  -14.4242   26.8290 C   0  0  2  0  0  0  0  0  0  0  0  0
    7.8277  -14.8159   25.7476 N   0  0  0  0  0  0  0  0  0  0  0  0
    8.9254  -15.5368   27.7763 C   0  0  0  0  0  0  0  0  0  0  0  0
    8.3388  -16.6535   27.6180 O   0  0  0  0  0  0  0  0  0  0  0  0
    9.7507  -15.4054   28.8759 O   0  0  0  0  0  0  0  0  0  0  0  0
  2  1  1  0
  3  2  1  0
  4  5  1  0
  4  3  1  0
  5  1  1  0
  6  8  1  0
  5  6  1  1
  7  6  2  0
  9 12  1  0
  9  8  1  0
  9 10  1  6
 11 10  1  0
 12 18  1  0
 13 12  2  0
 15 16  1  0
 15 14  1  6
 17 19  1  0
 17 15  1  0
 17 18  1  6
 19 21  1  0
 20 19  2  0
M  END
$$$$
