PCT.pdb
     RDKit          3D

 21 21  0  0  1  0  0  0  0  0999 V2000
    7.2279  -15.1276   20.0991 N   0  0  0  0  0  0  0  0  0  0  0  0
    6.7134  -14.7084   18.8166 C   0  0  0  0  0  0  0  0  0  0  0  0
    7.1934  -13.2938   18.6297 C   0  0  0  0  0  0  0  0  0  0  0  0
    8.0778  -13.0086   19.8042 C   0  0  0  0  0  0  0  0  0  0  0  0
    8.4416  -14.3757   20.3088 C   0  0  1  0  0  0  0  0  0  0  0  0
    8.8571  -14.3818   21.7273 C   0  0  0  0  0  0  0  0  0  0  0  0
   10.0830  -14.3224   21.9968 O   0  0  0  0  0  0  0  0  0  0  0  0
    7.9150  -14.4520   22.7625 N   0  0  0  0  0  0  0  0  0  0  0  0
    8.2749  -14.3901   24.1855 C   0  0  1  0  0  0  0  0  0  0  0  0
    7.2024  -13.6400   24.9446 C   0  0  0  0  0  0  0  0  0  0  0  0
    7.4570  -13.6860   26.7266 S   0  0  0  0  0  0  0  0  0  0  0  0
    8.5035  -15.7608   24.6501 C   0  0  0  0  0  0  0  0  0  0  0  0
    7.5343  -16.5972   24.6505 O   0  0  0  0  0  0  0  0  0  0  0  0
   10.2998  -18.3432   23.1853 C   0  0  0  0  0  0  0  0  0  0  0  0
   10.8461  -18.3502   24.5904 C   0  0  1  0  0  0  0  0  0  0  0  0
   12.0545  -17.6571   24.5968 O   0  0  0  0  0  0  0  0  0  0  0  0
    9.8443  -17.6655   25.5182 C   0  0  2  0  0  0  0  0  0  0  0  0
    9.7376  -16.2610   25.1116 N   0  0  0  0  0  0  0  0  0  0  0  0
   10.2607  -17.7669   26.9279 C   0  0  0  0  0  0  0  0  0  0  0  0
   10.5279  -16.7344   27.6197 O   0  0  0  0  0  0  0  0  0  0  0  0
   10.3762  -18.9939   27.5510 O   0  0  0  0  0  0  0  0  0  0  0  0
  2  1  1  0
  3  2  1  0
  4  5  1  0
  4  3  1  0
  5  1  1  0
  6  8  1  0
  5  6  1  1
  7  6  2  0
  9 12  1  0
  9  8  1  0
  9 10  1  1
 11 10  1  0
 12 18  1  0
 13 12  2  0
 15 16  1  0
 15 14  1  6
 17 19  1  0
 17 15  1  0
 17 18  1  6
 19 21  1  0
 20 19  2  0
M  END
$$$$
