PCT.pdb
     RDKit          3D

 21 21  0  0  1  0  0  0  0  0999 V2000
    7.8709  -15.4866   20.3046 N   0  0  0  0  0  0  0  0  0  0  0  0
    7.5854  -15.2152   18.9153 C   0  0  0  0  0  0  0  0  0  0  0  0
    7.6755  -13.7197   18.7675 C   0  0  0  0  0  0  0  0  0  0  0  0
    8.1308  -13.2085   20.0995 C   0  0  0  0  0  0  0  0  0  0  0  0
    8.7334  -14.4197   20.7521 C   0  0  1  0  0  0  0  0  0  0  0  0
    8.7769  -14.3262   22.2266 C   0  0  0  0  0  0  0  0  0  0  0  0
    9.5309  -13.4707   22.7545 O   0  0  0  0  0  0  0  0  0  0  0  0
    7.9990  -15.1675   23.0337 N   0  0  0  0  0  0  0  0  0  0  0  0
    7.7842  -14.9353   24.4683 C   0  0  1  0  0  0  0  0  0  0  0  0
    6.4325  -15.4830   24.8708 C   0  0  0  0  0  0  0  0  0  0  0  0
    6.5403  -17.1329   25.5841 S   0  0  0  0  0  0  0  0  0  0  0  0
    8.9171  -15.5190   25.1914 C   0  0  0  0  0  0  0  0  0  0  0  0
    9.6017  -16.4524   24.6447 O   0  0  0  0  0  0  0  0  0  0  0  0
    9.9909  -14.5008   29.1382 C   0  0  0  0  0  0  0  0  0  0  0  0
   11.0730  -14.8334   28.1426 C   0  0  1  0  0  0  0  0  0  0  0  0
   12.1220  -15.4496   28.8213 O   0  0  0  0  0  0  0  0  0  0  0  0
   10.5049  -15.7793   27.0863 C   0  0  2  0  0  0  0  0  0  0  0  0
    9.3380  -15.1315   26.4794 N   0  0  0  0  0  0  0  0  0  0  0  0
   10.1301  -17.0778   27.6731 C   0  0  0  0  0  0  0  0  0  0  0  0
    8.9137  -17.4156   27.8221 O   0  0  0  0  0  0  0  0  0  0  0  0
   11.0924  -17.9790   28.0843 O   0  0  0  0  0  0  0  0  0  0  0  0
  2  1  1  0
  3  2  1  0
  4  5  1  0
  4  3  1  0
  5  1  1  0
  6  8  1  0
  5  6  1  1
  7  6  2  0
  9 12  1  0
  9  8  1  0
  9 10  1  1
 11 10  1  0
 12 18  1  0
 13 12  2  0
 15 16  1  0
 15 14  1  1
 17 19  1  0
 17 15  1  0
 17 18  1  1
 19 21  1  0
 20 19  2  0
M  END
$$$$
