PCT.pdb
     RDKit          3D

 21 21  0  0  1  0  0  0  0  0999 V2000
    7.0981  -14.7095   20.6016 N   0  0  0  0  0  0  0  0  0  0  0  0
    6.7162  -14.2389   19.2909 C   0  0  0  0  0  0  0  0  0  0  0  0
    7.3314  -12.8715   19.1557 C   0  0  0  0  0  0  0  0  0  0  0  0
    8.1506  -12.6727   20.3935 C   0  0  0  0  0  0  0  0  0  0  0  0
    8.3552  -14.0697   20.9061 C   0  0  1  0  0  0  0  0  0  0  0  0
    8.6654  -14.1207   22.3505 C   0  0  0  0  0  0  0  0  0  0  0  0
    9.8563  -14.3075   22.7051 O   0  0  0  0  0  0  0  0  0  0  0  0
    7.6627  -13.9657   23.3173 N   0  0  0  0  0  0  0  0  0  0  0  0
    7.9424  -13.8165   24.7518 C   0  0  1  0  0  0  0  0  0  0  0  0
    6.8634  -12.9696   25.3903 C   0  0  0  0  0  0  0  0  0  0  0  0
    7.0775  -12.8049   27.1706 S   0  0  0  0  0  0  0  0  0  0  0  0
    8.0805  -15.1585   25.3236 C   0  0  0  0  0  0  0  0  0  0  0  0
    7.0419  -15.8924   25.4698 O   0  0  0  0  0  0  0  0  0  0  0  0
    9.6042  -18.1851   24.2490 C   0  0  0  0  0  0  0  0  0  0  0  0
   10.1871  -17.9856   25.6250 C   0  0  1  0  0  0  0  0  0  0  0  0
   11.4591  -17.4340   25.4890 O   0  0  0  0  0  0  0  0  0  0  0  0
    9.2867  -17.0380   26.4152 C   0  0  2  0  0  0  0  0  0  0  0  0
    9.2963  -15.7365   25.7405 N   0  0  0  0  0  0  0  0  0  0  0  0
    9.7416  -16.9022   27.8100 C   0  0  0  0  0  0  0  0  0  0  0  0
   10.0917  -15.7784   28.2904 O   0  0  0  0  0  0  0  0  0  0  0  0
    9.8042  -17.9969   28.6497 O   0  0  0  0  0  0  0  0  0  0  0  0
  2  1  1  0
  3  2  1  0
  4  5  1  0
  4  3  1  0
  5  1  1  0
  6  8  1  0
  5  6  1  1
  7  6  2  0
  9 12  1  0
  9  8  1  0
  9 10  1  1
 11 10  1  0
 12 18  1  0
 13 12  2  0
 15 16  1  0
 15 14  1  6
 17 19  1  0
 17 15  1  0
 17 18  1  6
 19 21  1  0
 20 19  2  0
M  END
$$$$
