PCT.pdb
     RDKit          3D

 21 21  0  0  1  0  0  0  0  0999 V2000
    9.9643  -17.6230   16.4086 N   0  0  0  0  0  0  0  0  0  0  0  0
    9.2754  -18.4750   15.4679 C   0  0  0  0  0  0  0  0  0  0  0  0
    8.5484  -19.4958   16.3021 C   0  0  0  0  0  0  0  0  0  0  0  0
    8.7793  -19.0926   17.7259 C   0  0  0  0  0  0  0  0  0  0  0  0
    9.1812  -17.6493   17.6204 C   0  0  1  0  0  0  0  0  0  0  0  0
    9.9532  -17.1726   18.7874 C   0  0  0  0  0  0  0  0  0  0  0  0
   11.1889  -16.9852   18.6571 O   0  0  0  0  0  0  0  0  0  0  0  0
    9.3341  -16.9299   20.0211 N   0  0  0  0  0  0  0  0  0  0  0  0
   10.0649  -16.4879   21.2164 C   0  0  1  0  0  0  0  0  0  0  0  0
    9.1246  -15.7359   22.1327 C   0  0  0  0  0  0  0  0  0  0  0  0
    9.8642  -15.3720   23.7337 S   0  0  0  0  0  0  0  0  0  0  0  0
   10.6902  -17.6670   21.8211 C   0  0  0  0  0  0  0  0  0  0  0  0
    9.9754  -18.6963   22.0831 O   0  0  0  0  0  0  0  0  0  0  0  0
   13.1376  -20.0205   20.6578 C   0  0  0  0  0  0  0  0  0  0  0  0
   13.6858  -19.5597   21.9845 C   0  0  1  0  0  0  0  0  0  0  0  0
   14.6470  -18.5796   21.7476 O   0  0  0  0  0  0  0  0  0  0  0  0
   12.5456  -18.9840   22.8222 C   0  0  2  0  0  0  0  0  0  0  0  0
   12.0560  -17.7761   22.1509 N   0  0  0  0  0  0  0  0  0  0  0  0
   12.9893  -18.6721   24.1921 C   0  0  0  0  0  0  0  0  0  0  0  0
   12.9792  -17.4828   24.6412 O   0  0  0  0  0  0  0  0  0  0  0  0
   13.4343  -19.6660   25.0414 O   0  0  0  0  0  0  0  0  0  0  0  0
  2  1  1  0
  3  2  1  0
  4  5  1  0
  4  3  1  0
  5  1  1  0
  6  8  1  0
  5  6  1  1
  7  6  2  0
  9 12  1  0
  9  8  1  0
  9 10  1  1
 11 10  1  0
 12 18  1  0
 13 12  2  0
 15 16  1  0
 15 14  1  6
 17 19  1  0
 17 15  1  0
 17 18  1  6
 19 21  1  0
 20 19  2  0
M  END
$$$$
