KMW.pdb
     RDKit          3D

 32 33  0  0  1  0  0  0  0  0999 V2000
    9.0493  -19.0959   20.4351 N   0  0  0  0  0  0  0  0  0  0  0  0
   10.3923  -18.5390   20.2795 C   0  0  1  0  0  0  0  0  0  0  0  0
   10.7643  -18.3999   18.8412 C   0  0  0  0  0  0  0  0  0  0  0  0
    9.6266  -18.7129   17.9015 C   0  0  0  0  0  0  0  0  0  0  0  0
    9.9464  -18.5936   16.4475 C   0  0  0  0  0  0  0  0  0  0  0  0
    8.8227  -18.8085   15.4987 C   0  0  0  0  0  0  0  0  0  0  0  0
    9.3257  -18.5461   14.1529 N   0  0  0  0  0  0  0  0  0  0  0  0
   10.3382  -17.2021   20.9585 C   0  0  0  0  0  0  0  0  0  0  0  0
   11.3775  -16.4821   20.9942 O   0  0  0  0  0  0  0  0  0  0  0  0
    7.8774  -12.2715   18.0113 C   0  0  0  0  0  0  0  0  0  0  0  0
    7.1557  -13.0404   19.4819 S   0  0  0  0  0  0  0  0  0  0  0  0
    8.4855  -13.9059   20.3693 C   0  0  0  0  0  0  0  0  0  0  0  0
    7.9680  -14.6015   21.6101 C   0  0  0  0  0  0  0  0  0  0  0  0
    9.0620  -15.4101   22.2308 C   0  0  2  0  0  0  0  0  0  0  0  0
    9.1643  -16.7099   21.5739 N   0  0  0  0  0  0  0  0  0  0  0  0
    9.0471  -15.5517   23.6744 C   0  0  0  0  0  0  0  0  0  0  0  0
    8.3008  -14.7674   24.3649 O   0  0  0  0  0  0  0  0  0  0  0  0
    9.7840  -16.4874   24.4050 N   0  0  0  0  0  0  0  0  0  0  0  0
   10.0680  -16.2442   25.8255 C   0  0  1  0  0  0  0  0  0  0  0  0
    8.8092  -16.4799   26.6195 C   0  0  0  0  0  0  0  0  0  0  0  0
    7.6368  -15.7060   26.1699 C   0  0  0  0  0  0  0  0  0  0  0  0
    6.4827  -16.0364   25.5201 C   0  0  0  0  0  0  0  0  0  0  0  0
    5.6942  -14.9376   25.4215 N   0  0  0  0  0  0  0  0  0  0  0  0
    6.2997  -13.8614   25.9967 C   0  0  0  0  0  0  0  0  0  0  0  0
    5.9434  -12.5342   26.1367 C   0  0  0  0  0  0  0  0  0  0  0  0
    6.8409  -11.6690   26.7605 C   0  0  0  0  0  0  0  0  0  0  0  0
    8.0629  -12.0887   27.2446 C   0  0  0  0  0  0  0  0  0  0  0  0
    8.3633  -13.4279   27.0773 C   0  0  0  0  0  0  0  0  0  0  0  0
    7.5097  -14.3305   26.4636 C   0  0  0  0  0  0  0  0  0  0  0  0
   11.0266  -17.3050   26.2382 C   0  0  0  0  0  0  0  0  0  0  0  0
   11.4580  -18.2471   25.3494 O   0  0  0  0  0  0  0  0  0  0  0  0
   11.4620  -17.3515   27.4352 O   0  0  0  0  0  0  0  0  0  0  0  0
  2  1  1  6
  3  2  1  0
  4  3  1  0
  5  4  1  0
  5  6  1  0
  7  6  1  0
  8  2  1  0
  9  8  2  0
 10 11  1  0
 12 11  1  0
 12 13  1  0
 14 13  1  6
 14 15  1  0
 15  8  1  0
 16 17  2  0
 16 14  1  0
 18 16  1  0
 19 20  1  1
 19 18  1  0
 21 20  1  0
 21 22  2  0
 23 22  1  0
 24 23  1  0
 25 24  2  0
 26 25  1  0
 27 26  2  0
 27 28  1  0
 28 29  2  0
 29 24  1  0
 29 21  1  0
 30 19  1  0
 31 30  1  0
 32 30  2  0
M  END
$$$$
