KMW.pdb
     RDKit          3D

 32 33  0  0  1  0  0  0  0  0999 V2000
    7.4136  -16.7408   19.6359 N   0  0  0  0  0  0  0  0  0  0  0  0
    8.3444  -15.7716   20.2122 C   0  0  1  0  0  0  0  0  0  0  0  0
    7.6543  -14.5002   20.5782 C   0  0  0  0  0  0  0  0  0  0  0  0
    7.9659  -13.3639   19.6365 C   0  0  0  0  0  0  0  0  0  0  0  0
    7.9164  -13.7050   18.1834 C   0  0  0  0  0  0  0  0  0  0  0  0
    8.2717  -12.6198   17.2320 C   0  0  0  0  0  0  0  0  0  0  0  0
    8.2131  -13.1787   15.8840 N   0  0  0  0  0  0  0  0  0  0  0  0
    8.9100  -16.4512   21.4244 C   0  0  0  0  0  0  0  0  0  0  0  0
    8.1665  -17.2048   22.1166 O   0  0  0  0  0  0  0  0  0  0  0  0
   15.6450  -17.0380   23.6804 C   0  0  0  0  0  0  0  0  0  0  0  0
   14.6733  -18.5263   23.3401 S   0  0  0  0  0  0  0  0  0  0  0  0
   12.9301  -18.1474   23.6906 C   0  0  0  0  0  0  0  0  0  0  0  0
   12.3160  -17.2901   22.6047 C   0  0  0  0  0  0  0  0  0  0  0  0
   10.8810  -17.0180   22.9252 C   0  0  2  0  0  0  0  0  0  0  0  0
   10.2517  -16.2780   21.8354 N   0  0  0  0  0  0  0  0  0  0  0  0
   10.5905  -16.4088   24.2093 C   0  0  0  0  0  0  0  0  0  0  0  0
   10.6696  -15.1320   24.3199 O   0  0  0  0  0  0  0  0  0  0  0  0
   10.2192  -17.0965   25.3675 N   0  0  0  0  0  0  0  0  0  0  0  0
   10.0302  -16.3602   26.6244 C   0  0  1  0  0  0  0  0  0  0  0  0
    8.6001  -16.5214   27.0710 C   0  0  0  0  0  0  0  0  0  0  0  0
    7.6046  -15.8316   26.2291 C   0  0  0  0  0  0  0  0  0  0  0  0
    6.6773  -16.2605   25.3238 C   0  0  0  0  0  0  0  0  0  0  0  0
    5.9534  -15.1999   24.8879 N   0  0  0  0  0  0  0  0  0  0  0  0
    6.3788  -14.0523   25.4861 C   0  0  0  0  0  0  0  0  0  0  0  0
    6.0042  -12.7276   25.3730 C   0  0  0  0  0  0  0  0  0  0  0  0
    6.6951  -11.7768   26.1225 C   0  0  0  0  0  0  0  0  0  0  0  0
    7.7304  -12.1095   26.9719 C   0  0  0  0  0  0  0  0  0  0  0  0
    8.0590  -13.4506   27.0447 C   0  0  0  0  0  0  0  0  0  0  0  0
    7.4071  -14.4363   26.3212 C   0  0  0  0  0  0  0  0  0  0  0  0
   10.8654  -17.0600   27.6378 C   0  0  0  0  0  0  0  0  0  0  0  0
   10.9867  -16.5721   28.9070 O   0  0  0  0  0  0  0  0  0  0  0  0
   11.4851  -18.1318   27.3350 O   0  0  0  0  0  0  0  0  0  0  0  0
  2  1  1  1
  3  2  1  0
  4  3  1  0
  5  4  1  0
  5  6  1  0
  7  6  1  0
  8  2  1  0
  9  8  2  0
 10 11  1  0
 12 11  1  0
 12 13  1  0
 14 13  1  6
 14 15  1  0
 15  8  1  0
 16 17  2  0
 16 14  1  0
 18 16  1  0
 19 20  1  1
 19 18  1  0
 21 20  1  0
 21 22  2  0
 23 22  1  0
 24 23  1  0
 25 24  2  0
 26 25  1  0
 27 26  2  0
 27 28  1  0
 28 29  2  0
 29 24  1  0
 29 21  1  0
 30 19  1  0
 31 30  1  0
 32 30  2  0
M  END
$$$$
