KMW.pdb
     RDKit          3D

 32 33  0  0  1  0  0  0  0  0999 V2000
    6.7031  -16.6252   18.7599 N   0  0  0  0  0  0  0  0  0  0  0  0
    7.4411  -15.7418   19.6616 C   0  0  1  0  0  0  0  0  0  0  0  0
    6.7629  -14.4211   19.8108 C   0  0  0  0  0  0  0  0  0  0  0  0
    7.0023  -13.4963   18.6434 C   0  0  0  0  0  0  0  0  0  0  0  0
    8.4153  -13.0486   18.4608 C   0  0  0  0  0  0  0  0  0  0  0  0
    8.6762  -12.1071   17.3408 C   0  0  0  0  0  0  0  0  0  0  0  0
    8.4406  -12.8295   16.0936 N   0  0  0  0  0  0  0  0  0  0  0  0
    7.4920  -16.4772   20.9684 C   0  0  0  0  0  0  0  0  0  0  0  0
    6.4631  -16.5078   21.7034 O   0  0  0  0  0  0  0  0  0  0  0  0
   10.0421  -22.5806   24.9881 C   0  0  0  0  0  0  0  0  0  0  0  0
    9.7694  -21.7954   23.3805 S   0  0  0  0  0  0  0  0  0  0  0  0
    9.2299  -20.0852   23.6788 C   0  0  0  0  0  0  0  0  0  0  0  0
    8.9993  -19.3385   22.3824 C   0  0  0  0  0  0  0  0  0  0  0  0
    8.7405  -17.8939   22.6692 C   0  0  2  0  0  0  0  0  0  0  0  0
    8.6561  -17.1388   21.4226 N   0  0  0  0  0  0  0  0  0  0  0  0
    9.6162  -17.2379   23.6216 C   0  0  0  0  0  0  0  0  0  0  0  0
   10.8158  -16.9523   23.2635 O   0  0  0  0  0  0  0  0  0  0  0  0
    9.2690  -16.8739   24.9251 N   0  0  0  0  0  0  0  0  0  0  0  0
   10.3076  -16.4098   25.8544 C   0  0  1  0  0  0  0  0  0  0  0  0
    9.7725  -15.2361   26.6335 C   0  0  0  0  0  0  0  0  0  0  0  0
    8.3757  -14.8731   26.3293 C   0  0  0  0  0  0  0  0  0  0  0  0
    7.2556  -15.5977   26.0401 C   0  0  0  0  0  0  0  0  0  0  0  0
    6.1978  -14.7578   25.9199 N   0  0  0  0  0  0  0  0  0  0  0  0
    6.5858  -13.4680   26.1232 C   0  0  0  0  0  0  0  0  0  0  0  0
    5.9187  -12.2590   26.0869 C   0  0  0  0  0  0  0  0  0  0  0  0
    6.6482  -11.0921   26.3089 C   0  0  0  0  0  0  0  0  0  0  0  0
    8.0037  -11.1012   26.5671 C   0  0  0  0  0  0  0  0  0  0  0  0
    8.6162  -12.3405   26.5927 C   0  0  0  0  0  0  0  0  0  0  0  0
    7.9400  -13.5306   26.3772 C   0  0  0  0  0  0  0  0  0  0  0  0
   10.4988  -17.5108   26.8369 C   0  0  0  0  0  0  0  0  0  0  0  0
   11.5189  -17.4748   27.7435 O   0  0  0  0  0  0  0  0  0  0  0  0
    9.7091  -18.5113   26.8473 O   0  0  0  0  0  0  0  0  0  0  0  0
  2  1  1  6
  3  2  1  0
  4  3  1  0
  5  4  1  0
  5  6  1  0
  7  6  1  0
  8  2  1  0
  9  8  2  0
 10 11  1  0
 12 11  1  0
 12 13  1  0
 14 13  1  6
 14 15  1  0
 15  8  1  0
 16 17  2  0
 16 14  1  0
 18 16  1  0
 19 20  1  1
 19 18  1  0
 21 20  1  0
 21 22  2  0
 23 22  1  0
 24 23  1  0
 25 24  2  0
 26 25  1  0
 27 26  2  0
 27 28  1  0
 28 29  2  0
 29 24  1  0
 29 21  1  0
 30 19  1  0
 31 30  1  0
 32 30  2  0
M  END
$$$$
