KMW.pdb
     RDKit          3D

 32 33  0  0  1  0  0  0  0  0999 V2000
    8.8657  -17.8935   17.7923 N   0  0  0  0  0  0  0  0  0  0  0  0
   10.1606  -18.0346   18.4566 C   0  0  1  0  0  0  0  0  0  0  0  0
   11.2833  -18.0353   17.4736 C   0  0  0  0  0  0  0  0  0  0  0  0
   11.3343  -19.2862   16.6324 C   0  0  0  0  0  0  0  0  0  0  0  0
   12.4627  -19.3556   15.6565 C   0  0  0  0  0  0  0  0  0  0  0  0
   12.5925  -20.6143   14.8768 C   0  0  0  0  0  0  0  0  0  0  0  0
   12.9633  -21.6747   15.8101 N   0  0  0  0  0  0  0  0  0  0  0  0
   10.2507  -16.8583   19.3835 C   0  0  0  0  0  0  0  0  0  0  0  0
   10.1821  -15.6879   18.9088 O   0  0  0  0  0  0  0  0  0  0  0  0
    7.4020  -12.2128   23.3725 C   0  0  0  0  0  0  0  0  0  0  0  0
    8.2676  -13.2456   22.1646 S   0  0  0  0  0  0  0  0  0  0  0  0
    7.7089  -14.9603   22.3936 C   0  0  0  0  0  0  0  0  0  0  0  0
    8.3500  -15.8951   21.3903 C   0  0  0  0  0  0  0  0  0  0  0  0
    9.7697  -16.1584   21.7788 C   0  0  2  0  0  0  0  0  0  0  0  0
   10.4182  -17.0029   20.7800 N   0  0  0  0  0  0  0  0  0  0  0  0
   10.0109  -16.6536   23.1208 C   0  0  0  0  0  0  0  0  0  0  0  0
    9.5931  -17.8275   23.4310 O   0  0  0  0  0  0  0  0  0  0  0  0
   10.6754  -15.9584   24.1343 N   0  0  0  0  0  0  0  0  0  0  0  0
   10.8545  -16.5833   25.4515 C   0  0  1  0  0  0  0  0  0  0  0  0
    9.5294  -17.1335   25.9121 C   0  0  0  0  0  0  0  0  0  0  0  0
    8.4764  -16.1225   26.1231 C   0  0  0  0  0  0  0  0  0  0  0  0
    7.1694  -16.0296   25.7404 C   0  0  0  0  0  0  0  0  0  0  0  0
    6.6238  -14.9108   26.2785 N   0  0  0  0  0  0  0  0  0  0  0  0
    7.5461  -14.2397   27.0233 C   0  0  0  0  0  0  0  0  0  0  0  0
    7.5108  -13.0591   27.7394 C   0  0  0  0  0  0  0  0  0  0  0  0
    8.6784  -12.6301   28.3687 C   0  0  0  0  0  0  0  0  0  0  0  0
    9.8598  -13.3403   28.3065 C   0  0  0  0  0  0  0  0  0  0  0  0
    9.8335  -14.5146   27.5770 C   0  0  0  0  0  0  0  0  0  0  0  0
    8.7021  -14.9862   26.9308 C   0  0  0  0  0  0  0  0  0  0  0  0
   11.7400  -17.7585   25.2295 C   0  0  0  0  0  0  0  0  0  0  0  0
   13.0500  -17.7339   25.6126 O   0  0  0  0  0  0  0  0  0  0  0  0
   11.2869  -18.8125   24.6742 O   0  0  0  0  0  0  0  0  0  0  0  0
  2  1  1  6
  3  2  1  0
  4  3  1  0
  5  4  1  0
  5  6  1  0
  7  6  1  0
  8  2  1  0
  9  8  2  0
 10 11  1  0
 12 11  1  0
 12 13  1  0
 14 13  1  6
 14 15  1  0
 15  8  1  0
 16 17  2  0
 16 14  1  0
 18 16  1  0
 19 20  1  6
 19 18  1  0
 21 20  1  0
 21 22  2  0
 23 22  1  0
 24 23  1  0
 25 24  2  0
 26 25  1  0
 27 26  2  0
 27 28  1  0
 28 29  2  0
 29 24  1  0
 29 21  1  0
 30 19  1  0
 31 30  1  0
 32 30  2  0
M  END
$$$$
