KMW.pdb
     RDKit          3D

 32 33  0  0  1  0  0  0  0  0999 V2000
    7.7233  -18.3792   20.3239 N   0  0  0  0  0  0  0  0  0  0  0  0
    8.9272  -17.9165   19.6351 C   0  0  1  0  0  0  0  0  0  0  0  0
    8.6321  -17.5094   18.2302 C   0  0  0  0  0  0  0  0  0  0  0  0
    7.6858  -18.4499   17.5265 C   0  0  0  0  0  0  0  0  0  0  0  0
    7.4026  -18.1219   16.0973 C   0  0  0  0  0  0  0  0  0  0  0  0
    6.3273  -18.9054   15.4347 C   0  0  0  0  0  0  0  0  0  0  0  0
    6.1707  -18.3813   14.0805 N   0  0  0  0  0  0  0  0  0  0  0  0
    9.4148  -16.7527   20.4471 C   0  0  0  0  0  0  0  0  0  0  0  0
   10.6028  -16.3458   20.2965 O   0  0  0  0  0  0  0  0  0  0  0  0
    7.5459  -10.7590   25.1777 C   0  0  0  0  0  0  0  0  0  0  0  0
    6.8778  -12.1694   24.2614 S   0  0  0  0  0  0  0  0  0  0  0  0
    8.1971  -12.8149   23.1901 C   0  0  0  0  0  0  0  0  0  0  0  0
    7.7773  -14.0927   22.4956 C   0  0  0  0  0  0  0  0  0  0  0  0
    8.9880  -14.8835   22.1151 C   0  0  2  0  0  0  0  0  0  0  0  0
    8.5965  -16.0884   21.3895 N   0  0  0  0  0  0  0  0  0  0  0  0
    9.9393  -15.1901   23.1664 C   0  0  0  0  0  0  0  0  0  0  0  0
   10.3406  -14.2414   23.9331 O   0  0  0  0  0  0  0  0  0  0  0  0
   10.4726  -16.4535   23.4341 N   0  0  0  0  0  0  0  0  0  0  0  0
   11.2744  -16.6652   24.6466 C   0  0  1  0  0  0  0  0  0  0  0  0
   10.4804  -17.5057   25.6130 C   0  0  0  0  0  0  0  0  0  0  0  0
    9.3390  -16.8165   26.2436 C   0  0  0  0  0  0  0  0  0  0  0  0
    7.9844  -16.9347   26.1243 C   0  0  0  0  0  0  0  0  0  0  0  0
    7.3826  -16.0995   27.0070 N   0  0  0  0  0  0  0  0  0  0  0  0
    8.3135  -15.4124   27.7260 C   0  0  0  0  0  0  0  0  0  0  0  0
    8.2299  -14.4435   28.7069 C   0  0  0  0  0  0  0  0  0  0  0  0
    9.4134  -13.9094   29.2141 C   0  0  0  0  0  0  0  0  0  0  0  0
   10.6582  -14.3147   28.7779 C   0  0  0  0  0  0  0  0  0  0  0  0
   10.6787  -15.2883   27.7964 C   0  0  0  0  0  0  0  0  0  0  0  0
    9.5337  -15.8515   27.2563 C   0  0  0  0  0  0  0  0  0  0  0  0
   12.4365  -17.4953   24.2285 C   0  0  0  0  0  0  0  0  0  0  0  0
   12.5300  -17.9844   22.9574 O   0  0  0  0  0  0  0  0  0  0  0  0
   13.3681  -17.7649   25.0555 O   0  0  0  0  0  0  0  0  0  0  0  0
  2  1  1  1
  3  2  1  0
  4  3  1  0
  5  4  1  0
  5  6  1  0
  7  6  1  0
  8  2  1  0
  9  8  2  0
 10 11  1  0
 12 11  1  0
 12 13  1  0
 14 13  1  1
 14 15  1  0
 15  8  1  0
 16 17  2  0
 16 14  1  0
 18 16  1  0
 19 20  1  1
 19 18  1  0
 21 20  1  0
 21 22  2  0
 23 22  1  0
 24 23  1  0
 25 24  2  0
 26 25  1  0
 27 26  2  0
 27 28  1  0
 28 29  2  0
 29 24  1  0
 29 21  1  0
 30 19  1  0
 31 30  1  0
 32 30  2  0
M  END
$$$$
