KMW.pdb
     RDKit          3D

 32 33  0  0  1  0  0  0  0  0999 V2000
    6.8966  -15.8846   19.8316 N   0  0  0  0  0  0  0  0  0  0  0  0
    8.0367  -14.9798   19.6924 C   0  0  1  0  0  0  0  0  0  0  0  0
    7.6155  -13.6428   19.1809 C   0  0  0  0  0  0  0  0  0  0  0  0
    6.8816  -13.7155   17.8651 C   0  0  0  0  0  0  0  0  0  0  0  0
    7.7478  -13.8455   16.6555 C   0  0  0  0  0  0  0  0  0  0  0  0
    7.0627  -13.7969   15.3374 C   0  0  0  0  0  0  0  0  0  0  0  0
    8.0946  -13.7206   14.3067 N   0  0  0  0  0  0  0  0  0  0  0  0
    8.6189  -14.8753   21.0712 C   0  0  0  0  0  0  0  0  0  0  0  0
    9.7167  -14.2693   21.2367 O   0  0  0  0  0  0  0  0  0  0  0  0
    7.5481  -12.4758   26.7117 C   0  0  0  0  0  0  0  0  0  0  0  0
    6.1627  -13.4799   26.1220 S   0  0  0  0  0  0  0  0  0  0  0  0
    6.5926  -14.1105   24.4720 C   0  0  0  0  0  0  0  0  0  0  0  0
    7.3953  -15.3911   24.5555 C   0  0  0  0  0  0  0  0  0  0  0  0
    8.5151  -15.3524   23.5653 C   0  0  2  0  0  0  0  0  0  0  0  0
    7.9900  -15.4380   22.2057 N   0  0  0  0  0  0  0  0  0  0  0  0
    9.6107  -16.2821   23.7639 C   0  0  0  0  0  0  0  0  0  0  0  0
    9.7335  -17.2743   22.9581 O   0  0  0  0  0  0  0  0  0  0  0  0
   10.5734  -16.1971   24.7729 N   0  0  0  0  0  0  0  0  0  0  0  0
   11.6671  -17.1764   24.8225 C   0  0  1  0  0  0  0  0  0  0  0  0
   12.6694  -16.7329   25.8566 C   0  0  0  0  0  0  0  0  0  0  0  0
   12.1307  -16.5874   27.2219 C   0  0  0  0  0  0  0  0  0  0  0  0
   12.2251  -17.3397   28.3571 C   0  0  0  0  0  0  0  0  0  0  0  0
   11.5948  -16.6990   29.3725 N   0  0  0  0  0  0  0  0  0  0  0  0
   11.0709  -15.5180   28.9407 C   0  0  0  0  0  0  0  0  0  0  0  0
   10.3290  -14.5277   29.5545 C   0  0  0  0  0  0  0  0  0  0  0  0
    9.9096  -13.4418   28.7877 C   0  0  0  0  0  0  0  0  0  0  0  0
   10.2111  -13.3184   27.4468 C   0  0  0  0  0  0  0  0  0  0  0  0
   10.9576  -14.3394   26.8883 C   0  0  0  0  0  0  0  0  0  0  0  0
   11.3985  -15.4415   27.6031 C   0  0  0  0  0  0  0  0  0  0  0  0
   11.0650  -18.4359   25.3380 C   0  0  0  0  0  0  0  0  0  0  0  0
   11.8069  -19.5768   25.4463 O   0  0  0  0  0  0  0  0  0  0  0  0
    9.8399  -18.4698   25.6879 O   0  0  0  0  0  0  0  0  0  0  0  0
  2  1  1  1
  3  2  1  0
  4  3  1  0
  5  4  1  0
  5  6  1  0
  7  6  1  0
  8  2  1  0
  9  8  2  0
 10 11  1  0
 12 11  1  0
 12 13  1  0
 14 13  1  1
 14 15  1  0
 15  8  1  0
 16 17  2  0
 16 14  1  0
 18 16  1  0
 19 20  1  1
 19 18  1  0
 21 20  1  0
 21 22  2  0
 23 22  1  0
 24 23  1  0
 25 24  2  0
 26 25  1  0
 27 26  2  0
 27 28  1  0
 28 29  2  0
 29 24  1  0
 29 21  1  0
 30 19  1  0
 31 30  1  0
 32 30  2  0
M  END
$$$$
