KMW.pdb
     RDKit          3D

 32 33  0  0  1  0  0  0  0  0999 V2000
    9.8857  -19.0596   19.4916 N   0  0  0  0  0  0  0  0  0  0  0  0
    9.6445  -17.9047   18.6280 C   0  0  1  0  0  0  0  0  0  0  0  0
    9.2528  -18.3232   17.2504 C   0  0  0  0  0  0  0  0  0  0  0  0
    8.5696  -19.6674   17.2107 C   0  0  0  0  0  0  0  0  0  0  0  0
    8.1576  -20.1361   15.8539 C   0  0  0  0  0  0  0  0  0  0  0  0
    7.5208  -21.4769   15.7773 C   0  0  0  0  0  0  0  0  0  0  0  0
    7.2699  -21.7660   14.3679 N   0  0  0  0  0  0  0  0  0  0  0  0
    8.5398  -17.1430   19.2993 C   0  0  0  0  0  0  0  0  0  0  0  0
    7.6211  -16.6330   18.5952 O   0  0  0  0  0  0  0  0  0  0  0  0
    2.0844  -18.1373   22.1312 C   0  0  0  0  0  0  0  0  0  0  0  0
    3.5567  -18.5082   21.1463 S   0  0  0  0  0  0  0  0  0  0  0  0
    4.9206  -17.4823   21.7727 C   0  0  0  0  0  0  0  0  0  0  0  0
    6.1918  -17.6991   20.9800 C   0  0  0  0  0  0  0  0  0  0  0  0
    7.2522  -16.7586   21.4564 C   0  0  2  0  0  0  0  0  0  0  0  0
    8.4845  -16.9624   20.7005 N   0  0  0  0  0  0  0  0  0  0  0  0
    7.5125  -16.7174   22.8828 C   0  0  0  0  0  0  0  0  0  0  0  0
    6.6083  -16.2454   23.6630 O   0  0  0  0  0  0  0  0  0  0  0  0
    8.6828  -17.1574   23.5065 N   0  0  0  0  0  0  0  0  0  0  0  0
    9.7010  -16.1821   23.9188 C   0  0  1  0  0  0  0  0  0  0  0  0
    9.4165  -15.7527   25.3349 C   0  0  0  0  0  0  0  0  0  0  0  0
    8.0187  -15.3615   25.5967 C   0  0  0  0  0  0  0  0  0  0  0  0
    6.8414  -16.0505   25.6479 C   0  0  0  0  0  0  0  0  0  0  0  0
    5.8445  -15.2069   26.0133 N   0  0  0  0  0  0  0  0  0  0  0  0
    6.3303  -13.9496   26.2105 C   0  0  0  0  0  0  0  0  0  0  0  0
    5.7426  -12.7482   26.5556 C   0  0  0  0  0  0  0  0  0  0  0  0
    6.5490  -11.6138   26.6334 C   0  0  0  0  0  0  0  0  0  0  0  0
    7.9058  -11.6482   26.3845 C   0  0  0  0  0  0  0  0  0  0  0  0
    8.4375  -12.8787   26.0456 C   0  0  0  0  0  0  0  0  0  0  0  0
    7.6823  -14.0367   25.9521 C   0  0  0  0  0  0  0  0  0  0  0  0
   10.9883  -16.9273   23.9592 C   0  0  0  0  0  0  0  0  0  0  0  0
   11.0289  -18.2732   23.7342 O   0  0  0  0  0  0  0  0  0  0  0  0
   12.0799  -16.3175   24.2067 O   0  0  0  0  0  0  0  0  0  0  0  0
  2  1  1  1
  3  2  1  0
  4  3  1  0
  5  4  1  0
  5  6  1  0
  7  6  1  0
  8  2  1  0
  9  8  2  0
 10 11  1  0
 12 11  1  0
 12 13  1  0
 14 13  1  1
 14 15  1  0
 15  8  1  0
 16 17  2  0
 16 14  1  0
 18 16  1  0
 19 20  1  1
 19 18  1  0
 21 20  1  0
 21 22  2  0
 23 22  1  0
 24 23  1  0
 25 24  2  0
 26 25  1  0
 27 26  2  0
 27 28  1  0
 28 29  2  0
 29 24  1  0
 29 21  1  0
 30 19  1  0
 31 30  1  0
 32 30  2  0
M  END
$$$$
