KMW.pdb
     RDKit          3D

 32 33  0  0  1  0  0  0  0  0999 V2000
    9.0589  -19.4229   20.3748 N   0  0  0  0  0  0  0  0  0  0  0  0
   10.2655  -18.7304   19.9249 C   0  0  1  0  0  0  0  0  0  0  0  0
   10.3825  -18.7443   18.4374 C   0  0  0  0  0  0  0  0  0  0  0  0
   11.0864  -19.9695   17.9094 C   0  0  0  0  0  0  0  0  0  0  0  0
   11.3571  -19.9690   16.4407 C   0  0  0  0  0  0  0  0  0  0  0  0
   11.9865  -21.1926   15.8790 C   0  0  0  0  0  0  0  0  0  0  0  0
   12.2542  -20.9415   14.4654 N   0  0  0  0  0  0  0  0  0  0  0  0
   10.1254  -17.3302   20.4458 C   0  0  0  0  0  0  0  0  0  0  0  0
   11.0484  -16.4929   20.2298 O   0  0  0  0  0  0  0  0  0  0  0  0
    7.0544  -13.0468   19.1146 C   0  0  0  0  0  0  0  0  0  0  0  0
    7.8324  -12.5409   20.6682 S   0  0  0  0  0  0  0  0  0  0  0  0
    7.2596  -13.6697   21.9731 C   0  0  0  0  0  0  0  0  0  0  0  0
    7.3995  -15.1189   21.5587 C   0  0  0  0  0  0  0  0  0  0  0  0
    8.8215  -15.5546   21.7129 C   0  0  2  0  0  0  0  0  0  0  0  0
    8.9966  -16.9035   21.1825 N   0  0  0  0  0  0  0  0  0  0  0  0
    9.4169  -15.4274   23.0296 C   0  0  0  0  0  0  0  0  0  0  0  0
    9.9248  -14.2988   23.3720 O   0  0  0  0  0  0  0  0  0  0  0  0
    9.4894  -16.4413   23.9881 N   0  0  0  0  0  0  0  0  0  0  0  0
   10.1478  -16.1828   25.2755 C   0  0  1  0  0  0  0  0  0  0  0  0
    9.1388  -16.3589   26.3808 C   0  0  0  0  0  0  0  0  0  0  0  0
    7.8890  -15.5947   26.2088 C   0  0  0  0  0  0  0  0  0  0  0  0
    6.6088  -15.9424   25.8872 C   0  0  0  0  0  0  0  0  0  0  0  0
    5.8185  -14.8419   25.9433 N   0  0  0  0  0  0  0  0  0  0  0  0
    6.5473  -13.7474   26.2989 C   0  0  0  0  0  0  0  0  0  0  0  0
    6.2351  -12.4124   26.4662 C   0  0  0  0  0  0  0  0  0  0  0  0
    7.2592  -11.5291   26.8042 C   0  0  0  0  0  0  0  0  0  0  0  0
    8.5649  -11.9385   26.9814 C   0  0  0  0  0  0  0  0  0  0  0  0
    8.8163  -13.2862   26.8023 C   0  0  0  0  0  0  0  0  0  0  0  0
    7.8372  -14.2067   26.4647 C   0  0  0  0  0  0  0  0  0  0  0  0
   11.1496  -17.2695   25.4478 C   0  0  0  0  0  0  0  0  0  0  0  0
   11.2771  -18.2619   24.5191 O   0  0  0  0  0  0  0  0  0  0  0  0
   11.9085  -17.2916   26.4716 O   0  0  0  0  0  0  0  0  0  0  0  0
  2  1  1  6
  3  2  1  0
  4  3  1  0
  5  4  1  0
  5  6  1  0
  7  6  1  0
  8  2  1  0
  9  8  2  0
 10 11  1  0
 12 11  1  0
 12 13  1  0
 14 13  1  1
 14 15  1  0
 15  8  1  0
 16 17  2  0
 16 14  1  0
 18 16  1  0
 19 20  1  1
 19 18  1  0
 21 20  1  0
 21 22  2  0
 23 22  1  0
 24 23  1  0
 25 24  2  0
 26 25  1  0
 27 26  2  0
 27 28  1  0
 28 29  2  0
 29 24  1  0
 29 21  1  0
 30 19  1  0
 31 30  1  0
 32 30  2  0
M  END
$$$$
