KMW.pdb
     RDKit          3D

 32 33  0  0  1  0  0  0  0  0999 V2000
    7.8004  -20.2285   21.0626 N   0  0  0  0  0  0  0  0  0  0  0  0
    8.9341  -19.9093   20.1961 C   0  0  1  0  0  0  0  0  0  0  0  0
    8.6287  -20.2007   18.7649 C   0  0  0  0  0  0  0  0  0  0  0  0
    8.0739  -21.5863   18.5471 C   0  0  0  0  0  0  0  0  0  0  0  0
    7.8113  -21.9541   17.1237 C   0  0  0  0  0  0  0  0  0  0  0  0
    7.1491  -23.2632   16.8853 C   0  0  0  0  0  0  0  0  0  0  0  0
    6.9620  -23.4065   15.4439 N   0  0  0  0  0  0  0  0  0  0  0  0
    9.1858  -18.4458   20.4110 C   0  0  0  0  0  0  0  0  0  0  0  0
   10.0663  -17.8596   19.7175 O   0  0  0  0  0  0  0  0  0  0  0  0
    7.3075  -11.3064   20.9725 C   0  0  0  0  0  0  0  0  0  0  0  0
    7.0880  -12.8661   21.8635 S   0  0  0  0  0  0  0  0  0  0  0  0
    7.4719  -14.2233   20.7165 C   0  0  0  0  0  0  0  0  0  0  0  0
    7.2855  -15.5760   21.3699 C   0  0  0  0  0  0  0  0  0  0  0  0
    8.6129  -16.2428   21.5411 C   0  0  2  0  0  0  0  0  0  0  0  0
    8.4783  -17.6866   21.3713 N   0  0  0  0  0  0  0  0  0  0  0  0
    9.3680  -15.9236   22.7379 C   0  0  0  0  0  0  0  0  0  0  0  0
   10.1800  -14.9293   22.7098 O   0  0  0  0  0  0  0  0  0  0  0  0
    9.2917  -16.6107   23.9521 N   0  0  0  0  0  0  0  0  0  0  0  0
   10.2813  -16.3448   25.0045 C   0  0  1  0  0  0  0  0  0  0  0  0
    9.7107  -15.3316   25.9627 C   0  0  0  0  0  0  0  0  0  0  0  0
    8.2584  -15.1067   25.8372 C   0  0  0  0  0  0  0  0  0  0  0  0
    7.1826  -15.9391   25.7224 C   0  0  0  0  0  0  0  0  0  0  0  0
    6.0445  -15.2019   25.7195 N   0  0  0  0  0  0  0  0  0  0  0  0
    6.3337  -13.8753   25.8301 C   0  0  0  0  0  0  0  0  0  0  0  0
    5.5578  -12.7327   25.8468 C   0  0  0  0  0  0  0  0  0  0  0  0
    6.1980  -11.4976   25.9341 C   0  0  0  0  0  0  0  0  0  0  0  0
    7.5704  -11.3759   26.0089 C   0  0  0  0  0  0  0  0  0  0  0  0
    8.2940  -12.5539   25.9897 C   0  0  0  0  0  0  0  0  0  0  0  0
    7.7093  -13.8071   25.9025 C   0  0  0  0  0  0  0  0  0  0  0  0
   10.4153  -17.6140   25.7697 C   0  0  0  0  0  0  0  0  0  0  0  0
    9.6324  -18.6946   25.4817 O   0  0  0  0  0  0  0  0  0  0  0  0
   11.2676  -17.7126   26.7124 O   0  0  0  0  0  0  0  0  0  0  0  0
  2  1  1  1
  3  2  1  0
  4  3  1  0
  5  4  1  0
  5  6  1  0
  7  6  1  0
  8  2  1  0
  9  8  2  0
 10 11  1  0
 12 11  1  0
 12 13  1  0
 14 13  1  1
 14 15  1  0
 15  8  1  0
 16 17  2  0
 16 14  1  0
 18 16  1  0
 19 20  1  1
 19 18  1  0
 21 20  1  0
 21 22  2  0
 23 22  1  0
 24 23  1  0
 25 24  2  0
 26 25  1  0
 27 26  2  0
 27 28  1  0
 28 29  2  0
 29 24  1  0
 29 21  1  0
 30 19  1  0
 31 30  1  0
 32 30  2  0
M  END
$$$$
