KMW.pdb
     RDKit          3D

 32 33  0  0  1  0  0  0  0  0999 V2000
   10.5748  -17.9793   18.1142 N   0  0  0  0  0  0  0  0  0  0  0  0
   10.0887  -18.5106   19.3867 C   0  0  1  0  0  0  0  0  0  0  0  0
   10.9120  -19.6665   19.8480 C   0  0  0  0  0  0  0  0  0  0  0  0
   11.2244  -20.6489   18.7469 C   0  0  0  0  0  0  0  0  0  0  0  0
   12.0315  -21.8362   19.1586 C   0  0  0  0  0  0  0  0  0  0  0  0
   12.3609  -22.8193   18.0937 C   0  0  0  0  0  0  0  0  0  0  0  0
   13.2130  -23.8451   18.6891 N   0  0  0  0  0  0  0  0  0  0  0  0
   10.1800  -17.3611   20.3466 C   0  0  0  0  0  0  0  0  0  0  0  0
   11.1942  -16.6060   20.3154 O   0  0  0  0  0  0  0  0  0  0  0  0
    7.2749  -11.8115   20.4032 C   0  0  0  0  0  0  0  0  0  0  0  0
    6.6816  -13.5022   20.1491 S   0  0  0  0  0  0  0  0  0  0  0  0
    8.0530  -14.6368   20.5192 C   0  0  0  0  0  0  0  0  0  0  0  0
    8.0667  -15.0386   21.9786 C   0  0  0  0  0  0  0  0  0  0  0  0
    9.2097  -15.9674   22.2373 C   0  0  2  0  0  0  0  0  0  0  0  0
    9.1731  -17.0865   21.3004 N   0  0  0  0  0  0  0  0  0  0  0  0
    9.3955  -16.4297   23.5997 C   0  0  0  0  0  0  0  0  0  0  0  0
    8.8945  -17.5613   23.9423 O   0  0  0  0  0  0  0  0  0  0  0  0
   10.0891  -15.7450   24.6008 N   0  0  0  0  0  0  0  0  0  0  0  0
   10.1994  -16.3306   25.9434 C   0  0  1  0  0  0  0  0  0  0  0  0
    9.3610  -15.5193   26.8972 C   0  0  0  0  0  0  0  0  0  0  0  0
    8.0229  -15.1564   26.3940 C   0  0  0  0  0  0  0  0  0  0  0  0
    6.9462  -15.8819   25.9725 C   0  0  0  0  0  0  0  0  0  0  0  0
    5.9232  -15.0393   25.6856 N   0  0  0  0  0  0  0  0  0  0  0  0
    6.2921  -13.7467   25.9063 C   0  0  0  0  0  0  0  0  0  0  0  0
    5.6482  -12.5352   25.7465 C   0  0  0  0  0  0  0  0  0  0  0  0
    6.3516  -11.3671   26.0361 C   0  0  0  0  0  0  0  0  0  0  0  0
    7.6585  -11.3772   26.4787 C   0  0  0  0  0  0  0  0  0  0  0  0
    8.2496  -12.6190   26.6211 C   0  0  0  0  0  0  0  0  0  0  0  0
    7.5978  -13.8104   26.3460 C   0  0  0  0  0  0  0  0  0  0  0  0
    9.5574  -17.6704   25.8591 C   0  0  0  0  0  0  0  0  0  0  0  0
    9.4680  -18.4774   26.9566 O   0  0  0  0  0  0  0  0  0  0  0  0
    9.0788  -18.0886   24.7543 O   0  0  0  0  0  0  0  0  0  0  0  0
  2  1  1  6
  3  2  1  0
  4  3  1  0
  5  4  1  0
  5  6  1  0
  7  6  1  0
  8  2  1  0
  9  8  2  0
 10 11  1  0
 12 11  1  0
 12 13  1  0
 14 13  1  1
 14 15  1  0
 15  8  1  0
 16 17  2  0
 16 14  1  0
 18 16  1  0
 19 20  1  1
 19 18  1  0
 21 20  1  0
 21 22  2  0
 23 22  1  0
 24 23  1  0
 25 24  2  0
 26 25  1  0
 27 26  2  0
 27 28  1  0
 28 29  2  0
 29 24  1  0
 29 21  1  0
 30 19  1  0
 31 30  1  0
 32 30  2  0
M  END
$$$$
