KMW.pdb
     RDKit          3D

 32 33  0  0  1  0  0  0  0  0999 V2000
    8.7087  -18.9768   20.8015 N   0  0  0  0  0  0  0  0  0  0  0  0
   10.0308  -18.6148   20.2927 C   0  0  1  0  0  0  0  0  0  0  0  0
   10.0430  -18.5412   18.8024 C   0  0  0  0  0  0  0  0  0  0  0  0
    9.6755  -19.8462   18.1412 C   0  0  0  0  0  0  0  0  0  0  0  0
   10.4249  -20.1623   16.8887 C   0  0  0  0  0  0  0  0  0  0  0  0
   10.0359  -21.4072   16.1759 C   0  0  0  0  0  0  0  0  0  0  0  0
   10.8701  -21.5104   14.9816 N   0  0  0  0  0  0  0  0  0  0  0  0
   10.3288  -17.2779   20.9052 C   0  0  0  0  0  0  0  0  0  0  0  0
   11.4038  -16.6835   20.6042 O   0  0  0  0  0  0  0  0  0  0  0  0
    7.3999  -11.8423   20.2509 C   0  0  0  0  0  0  0  0  0  0  0  0
    6.6718  -13.4785   20.5108 S   0  0  0  0  0  0  0  0  0  0  0  0
    8.0236  -14.6415   20.8646 C   0  0  0  0  0  0  0  0  0  0  0  0
    8.6049  -14.4187   22.2444 C   0  0  0  0  0  0  0  0  0  0  0  0
    9.7275  -15.3775   22.4818 C   0  0  2  0  0  0  0  0  0  0  0  0
    9.4531  -16.6499   21.8206 N   0  0  0  0  0  0  0  0  0  0  0  0
   10.1497  -15.5801   23.8547 C   0  0  0  0  0  0  0  0  0  0  0  0
   10.9591  -14.7352   24.3837 O   0  0  0  0  0  0  0  0  0  0  0  0
    9.7464  -16.6329   24.6801 N   0  0  0  0  0  0  0  0  0  0  0  0
   10.3428  -16.7841   26.0139 C   0  0  1  0  0  0  0  0  0  0  0  0
    9.2779  -16.5414   27.0521 C   0  0  0  0  0  0  0  0  0  0  0  0
    8.0500  -15.9008   26.5449 C   0  0  0  0  0  0  0  0  0  0  0  0
    6.9313  -16.3710   25.9197 C   0  0  0  0  0  0  0  0  0  0  0  0
    6.0570  -15.3503   25.7390 N   0  0  0  0  0  0  0  0  0  0  0  0
    6.5689  -14.1890   26.2339 C   0  0  0  0  0  0  0  0  0  0  0  0
    6.1051  -12.8885   26.2749 C   0  0  0  0  0  0  0  0  0  0  0  0
    6.9248  -11.9095   26.8342 C   0  0  0  0  0  0  0  0  0  0  0  0
    8.1733  -12.1915   27.3497 C   0  0  0  0  0  0  0  0  0  0  0  0
    8.5825  -13.5105   27.2823 C   0  0  0  0  0  0  0  0  0  0  0  0
    7.8095  -14.5223   26.7359 C   0  0  0  0  0  0  0  0  0  0  0  0
   10.7218  -18.2182   26.1321 C   0  0  0  0  0  0  0  0  0  0  0  0
   11.3726  -18.6846   27.2379 O   0  0  0  0  0  0  0  0  0  0  0  0
   10.4440  -19.0387   25.1970 O   0  0  0  0  0  0  0  0  0  0  0  0
  2  1  1  1
  3  2  1  0
  4  3  1  0
  5  4  1  0
  5  6  1  0
  7  6  1  0
  8  2  1  0
  9  8  2  0
 10 11  1  0
 12 11  1  0
 12 13  1  0
 14 13  1  1
 14 15  1  0
 15  8  1  0
 16 17  2  0
 16 14  1  0
 18 16  1  0
 19 20  1  1
 19 18  1  0
 21 20  1  0
 21 22  2  0
 23 22  1  0
 24 23  1  0
 25 24  2  0
 26 25  1  0
 27 26  2  0
 27 28  1  0
 28 29  2  0
 29 24  1  0
 29 21  1  0
 30 19  1  0
 31 30  1  0
 32 30  2  0
M  END
$$$$
