KMW.pdb
     RDKit          3D

 32 33  0  0  1  0  0  0  0  0999 V2000
   10.0743  -18.4025   17.8065 N   0  0  0  0  0  0  0  0  0  0  0  0
    9.3227  -18.4488   19.0599 C   0  0  1  0  0  0  0  0  0  0  0  0
    9.9667  -19.3593   20.0513 C   0  0  0  0  0  0  0  0  0  0  0  0
   10.1442  -20.7660   19.5366 C   0  0  0  0  0  0  0  0  0  0  0  0
   10.8339  -21.7065   20.4695 C   0  0  0  0  0  0  0  0  0  0  0  0
   10.9985  -23.1076   20.0016 C   0  0  0  0  0  0  0  0  0  0  0  0
   11.6498  -23.8565   21.0730 N   0  0  0  0  0  0  0  0  0  0  0  0
    9.3059  -17.0322   19.5540 C   0  0  0  0  0  0  0  0  0  0  0  0
   10.3328  -16.3098   19.4012 O   0  0  0  0  0  0  0  0  0  0  0  0
    9.2441  -12.7537   17.9775 C   0  0  0  0  0  0  0  0  0  0  0  0
    7.4365  -12.8158   17.9166 S   0  0  0  0  0  0  0  0  0  0  0  0
    6.9114  -14.4335   18.5588 C   0  0  0  0  0  0  0  0  0  0  0  0
    6.8530  -14.4415   20.0714 C   0  0  0  0  0  0  0  0  0  0  0  0
    8.0918  -15.0719   20.6226 C   0  0  2  0  0  0  0  0  0  0  0  0
    8.1814  -16.4656   20.1971 N   0  0  0  0  0  0  0  0  0  0  0  0
    8.3257  -14.9427   22.0484 C   0  0  0  0  0  0  0  0  0  0  0  0
    7.6471  -14.0765   22.7102 O   0  0  0  0  0  0  0  0  0  0  0  0
    9.2406  -15.6932   22.7912 N   0  0  0  0  0  0  0  0  0  0  0  0
    9.4513  -15.3881   24.2126 C   0  0  1  0  0  0  0  0  0  0  0  0
    8.1359  -15.5153   24.9366 C   0  0  0  0  0  0  0  0  0  0  0  0
    8.1524  -15.0612   26.3397 C   0  0  0  0  0  0  0  0  0  0  0  0
    8.4521  -15.6708   27.5238 C   0  0  0  0  0  0  0  0  0  0  0  0
    8.3819  -14.7605   28.5264 N   0  0  0  0  0  0  0  0  0  0  0  0
    8.0364  -13.5368   28.0379 C   0  0  0  0  0  0  0  0  0  0  0  0
    7.8088  -12.3088   28.6278 C   0  0  0  0  0  0  0  0  0  0  0  0
    7.4202  -11.2446   27.8156 C   0  0  0  0  0  0  0  0  0  0  0  0
    7.2602  -11.3715   26.4509 C   0  0  0  0  0  0  0  0  0  0  0  0
    7.5038  -12.6236   25.9173 C   0  0  0  0  0  0  0  0  0  0  0  0
    7.8903  -13.7153   26.6780 C   0  0  0  0  0  0  0  0  0  0  0  0
   10.3238  -16.4727   24.7386 C   0  0  0  0  0  0  0  0  0  0  0  0
   10.4898  -17.6386   24.0481 O   0  0  0  0  0  0  0  0  0  0  0  0
   10.9331  -16.3299   25.8490 O   0  0  0  0  0  0  0  0  0  0  0  0
  2  1  1  6
  3  2  1  0
  4  3  1  0
  5  4  1  0
  5  6  1  0
  7  6  1  0
  8  2  1  0
  9  8  2  0
 10 11  1  0
 12 11  1  0
 12 13  1  0
 14 13  1  1
 14 15  1  0
 15  8  1  0
 16 17  2  0
 16 14  1  0
 18 16  1  0
 19 20  1  1
 19 18  1  0
 21 20  1  0
 21 22  2  0
 23 22  1  0
 24 23  1  0
 25 24  2  0
 26 25  1  0
 27 26  2  0
 27 28  1  0
 28 29  2  0
 29 24  1  0
 29 21  1  0
 30 19  1  0
 31 30  1  0
 32 30  2  0
M  END
$$$$
