SAG.pdb
     RDKit          3D

 16 15  0  0  1  0  0  0  0  0999 V2000
   -5.2475  -26.1291   28.2870 O   0  0  0  0  0  0  0  0  0  0  0  0
   -4.0624  -26.6162   28.8843 C   0  0  0  0  0  0  0  0  0  0  0  0
   -2.9049  -25.6980   28.5246 C   0  0  2  0  0  0  0  0  0  0  0  0
   -1.6574  -26.1744   29.0181 N   0  0  0  0  0  0  0  0  0  0  0  0
   -3.2065  -24.3658   29.1202 C   0  0  0  0  0  0  0  0  0  0  0  0
   -2.9310  -24.1182   30.3223 O   0  0  0  0  0  0  0  0  0  0  0  0
   -3.7857  -20.9332   28.0421 C   0  0  0  0  0  0  0  0  0  0  0  0
   -4.2054  -22.0557   28.9610 C   0  0  2  0  0  0  0  0  0  0  0  0
   -3.8154  -23.3182   28.3649 N   0  0  0  0  0  0  0  0  0  0  0  0
   -5.6692  -22.0213   29.2419 C   0  0  0  0  0  0  0  0  0  0  0  0
   -6.1742  -21.0145   29.7974 O   0  0  0  0  0  0  0  0  0  0  0  0
   -6.4445  -23.1365   28.8682 N   0  0  0  0  0  0  0  0  0  0  0  0
   -7.8890  -23.0824   29.0117 C   0  0  0  0  0  0  0  0  0  0  0  0
   -8.3213  -23.6169   30.3223 C   0  0  0  0  0  0  0  0  0  0  0  0
   -7.4186  -24.0222   31.1013 O   0  0  0  0  0  0  0  0  0  0  0  0
   -9.6503  -23.6898   30.7228 O   0  0  0  0  0  0  0  0  0  0  0  0
  2  1  1  0
  3  2  1  0
  3  4  1  1
  5  6  2  0
  5  3  1  0
  8  7  1  6
  8  9  1  0
  9  5  1  0
 10 12  1  0
 10  8  1  0
 11 10  2  0
 13 14  1  0
 13 12  1  0
 14 16  1  0
 15 14  2  0
M  END
$$$$
