SAG.pdb
     RDKit          3D

 16 15  0  0  1  0  0  0  0  0999 V2000
    9.1055  -17.0786   16.1559 O   0  0  0  0  0  0  0  0  0  0  0  0
    9.4054  -16.2525   17.2632 C   0  0  0  0  0  0  0  0  0  0  0  0
    8.4334  -15.0835   17.2953 C   0  0  2  0  0  0  0  0  0  0  0  0
    8.6455  -14.1685   16.2254 N   0  0  0  0  0  0  0  0  0  0  0  0
    8.6326  -14.3892   18.5986 C   0  0  0  0  0  0  0  0  0  0  0  0
    9.5598  -13.5529   18.7502 O   0  0  0  0  0  0  0  0  0  0  0  0
    6.5954  -13.7390   21.6119 C   0  0  0  0  0  0  0  0  0  0  0  0
    7.9550  -13.9391   20.9857 C   0  0  2  0  0  0  0  0  0  0  0  0
    7.7909  -14.6362   19.7254 N   0  0  0  0  0  0  0  0  0  0  0  0
    8.8780  -14.6777   21.8942 C   0  0  0  0  0  0  0  0  0  0  0  0
    9.1247  -14.2213   23.0380 O   0  0  0  0  0  0  0  0  0  0  0  0
    9.4486  -15.8788   21.4296 N   0  0  0  0  0  0  0  0  0  0  0  0
   10.2117  -16.7083   22.3459 C   0  0  0  0  0  0  0  0  0  0  0  0
   11.6585  -16.4064   22.2695 C   0  0  0  0  0  0  0  0  0  0  0  0
   12.0294  -15.6041   21.3725 O   0  0  0  0  0  0  0  0  0  0  0  0
   12.6054  -16.9571   23.1252 O   0  0  0  0  0  0  0  0  0  0  0  0
  2  1  1  0
  3  2  1  0
  3  4  1  6
  5  6  2  0
  5  3  1  0
  8  7  1  1
  8  9  1  0
  9  5  1  0
 10 12  1  0
 10  8  1  0
 11 10  2  0
 13 14  1  0
 13 12  1  0
 14 16  1  0
 15 14  2  0
M  END
$$$$
