SAG.pdb
     RDKit          3D

 16 15  0  0  1  0  0  0  0  0999 V2000
    8.6939  -18.0826   20.3997 O   0  0  0  0  0  0  0  0  0  0  0  0
    7.3631  -17.6582   20.1816 C   0  0  0  0  0  0  0  0  0  0  0  0
    7.2350  -17.1145   18.7672 C   0  0  2  0  0  0  0  0  0  0  0  0
    7.6358  -18.0600   17.7812 N   0  0  0  0  0  0  0  0  0  0  0  0
    8.1019  -15.9051   18.6871 C   0  0  0  0  0  0  0  0  0  0  0  0
    9.1999  -15.9367   18.0743 O   0  0  0  0  0  0  0  0  0  0  0  0
    7.6855  -12.2715   19.5284 C   0  0  0  0  0  0  0  0  0  0  0  0
    8.5329  -13.4654   19.1580 C   0  0  2  0  0  0  0  0  0  0  0  0
    7.7330  -14.6665   19.2944 N   0  0  0  0  0  0  0  0  0  0  0  0
    9.7692  -13.5437   19.9876 C   0  0  0  0  0  0  0  0  0  0  0  0
   10.6343  -12.6370   19.9050 O   0  0  0  0  0  0  0  0  0  0  0  0
    9.9245  -14.6488   20.8472 N   0  0  0  0  0  0  0  0  0  0  0  0
   11.0969  -14.7305   21.7009 C   0  0  0  0  0  0  0  0  0  0  0  0
   11.0096  -15.8800   22.6288 C   0  0  0  0  0  0  0  0  0  0  0  0
   11.9655  -16.0408   23.4327 O   0  0  0  0  0  0  0  0  0  0  0  0
    9.9427  -16.7707   22.6519 O   0  0  0  0  0  0  0  0  0  0  0  0
  2  1  1  0
  3  2  1  0
  3  4  1  6
  5  6  2  0
  5  3  1  0
  8  7  1  1
  8  9  1  0
  9  5  1  0
 10 12  1  0
 10  8  1  0
 11 10  2  0
 13 14  1  0
 13 12  1  0
 14 16  1  0
 15 14  2  0
M  END
$$$$
