SAG.pdb
     RDKit          3D

 16 15  0  0  1  0  0  0  0  0999 V2000
    8.4426  -13.8875   15.9085 O   0  0  0  0  0  0  0  0  0  0  0  0
    8.8255  -14.0606   17.2583 C   0  0  0  0  0  0  0  0  0  0  0  0
    7.5798  -14.1774   18.1226 C   0  0  2  0  0  0  0  0  0  0  0  0
    6.9596  -12.9178   18.3580 N   0  0  0  0  0  0  0  0  0  0  0  0
    8.0050  -14.7793   19.4177 C   0  0  0  0  0  0  0  0  0  0  0  0
    8.3086  -14.0532   20.3989 O   0  0  0  0  0  0  0  0  0  0  0  0
    8.2810  -18.2680   20.8089 C   0  0  0  0  0  0  0  0  0  0  0  0
    8.5672  -16.7855   20.8386 C   0  0  2  0  0  0  0  0  0  0  0  0
    8.0877  -16.1924   19.6059 N   0  0  0  0  0  0  0  0  0  0  0  0
   10.0176  -16.5071   21.0425 C   0  0  0  0  0  0  0  0  0  0  0  0
   10.7621  -16.3180   20.0488 O   0  0  0  0  0  0  0  0  0  0  0  0
   10.5078  -16.4656   22.3625 N   0  0  0  0  0  0  0  0  0  0  0  0
   11.8950  -16.1050   22.5981 C   0  0  0  0  0  0  0  0  0  0  0  0
   12.2364  -16.1846   24.0359 C   0  0  0  0  0  0  0  0  0  0  0  0
   11.2945  -16.4293   24.8353 O   0  0  0  0  0  0  0  0  0  0  0  0
   13.5222  -16.0052   24.5323 O   0  0  0  0  0  0  0  0  0  0  0  0
  2  1  1  0
  3  2  1  0
  3  4  1  1
  5  6  2  0
  5  3  1  0
  8  7  1  6
  8  9  1  0
  9  5  1  0
 10 12  1  0
 10  8  1  0
 11 10  2  0
 13 14  1  0
 13 12  1  0
 14 16  1  0
 15 14  2  0
M  END
$$$$
