SAG.pdb
     RDKit          3D

 16 15  0  0  1  0  0  0  0  0999 V2000
   -6.0665  -23.9284   31.1516 O   0  0  0  0  0  0  0  0  0  0  0  0
   -5.9785  -23.8254   29.7444 C   0  0  0  0  0  0  0  0  0  0  0  0
   -6.9795  -22.7915   29.2531 C   0  0  2  0  0  0  0  0  0  0  0  0
   -6.9448  -21.5920   30.0191 N   0  0  0  0  0  0  0  0  0  0  0  0
   -8.3299  -23.4135   29.3524 C   0  0  0  0  0  0  0  0  0  0  0  0
   -9.1748  -22.9943   30.1845 O   0  0  0  0  0  0  0  0  0  0  0  0
  -10.3267  -25.8610   27.3411 C   0  0  0  0  0  0  0  0  0  0  0  0
  -10.0252  -25.1355   28.6307 C   0  0  2  0  0  0  0  0  0  0  0  0
   -8.7260  -24.5025   28.5180 N   0  0  0  0  0  0  0  0  0  0  0  0
  -10.0782  -26.0522   29.8054 C   0  0  0  0  0  0  0  0  0  0  0  0
  -11.1688  -26.5805   30.1354 O   0  0  0  0  0  0  0  0  0  0  0  0
   -8.8850  -26.2961   30.5132 N   0  0  0  0  0  0  0  0  0  0  0  0
   -8.8862  -27.2516   31.6072 C   0  0  0  0  0  0  0  0  0  0  0  0
   -8.9506  -26.5697   32.9190 C   0  0  0  0  0  0  0  0  0  0  0  0
   -7.8674  -26.4315   33.5463 O   0  0  0  0  0  0  0  0  0  0  0  0
  -10.1279  -26.0855   33.4773 O   0  0  0  0  0  0  0  0  0  0  0  0
  2  1  1  0
  3  2  1  0
  3  4  1  1
  5  6  2  0
  5  3  1  0
  8  7  1  6
  8  9  1  0
  9  5  1  0
 10 12  1  0
 10  8  1  0
 11 10  2  0
 13 14  1  0
 13 12  1  0
 14 16  1  0
 15 14  2  0
M  END
$$$$
