SAG.pdb
     RDKit          3D

 16 15  0  0  1  0  0  0  0  0999 V2000
   -1.2576  -21.1742   24.0371 O   0  0  0  0  0  0  0  0  0  0  0  0
   -2.5016  -21.4562   24.6468 C   0  0  0  0  0  0  0  0  0  0  0  0
   -2.8883  -22.8977   24.3551 C   0  0  2  0  0  0  0  0  0  0  0  0
   -3.1410  -23.1253   22.9727 N   0  0  0  0  0  0  0  0  0  0  0  0
   -4.1180  -23.1855   25.1459 C   0  0  0  0  0  0  0  0  0  0  0  0
   -5.2441  -22.7786   24.7605 O   0  0  0  0  0  0  0  0  0  0  0  0
   -4.9645  -25.4002   28.0507 C   0  0  0  0  0  0  0  0  0  0  0  0
   -5.2758  -24.2581   27.1129 C   0  0  2  0  0  0  0  0  0  0  0  0
   -4.0787  -23.9282   26.3649 N   0  0  0  0  0  0  0  0  0  0  0  0
   -5.7989  -23.0694   27.8451 C   0  0  0  0  0  0  0  0  0  0  0  0
   -5.0094  -22.1609   28.2041 O   0  0  0  0  0  0  0  0  0  0  0  0
   -7.1807  -23.0074   28.1117 N   0  0  0  0  0  0  0  0  0  0  0  0
   -7.7260  -21.8435   28.7884 C   0  0  0  0  0  0  0  0  0  0  0  0
   -7.8092  -22.0590   30.2501 C   0  0  0  0  0  0  0  0  0  0  0  0
   -7.4067  -23.1686   30.6891 O   0  0  0  0  0  0  0  0  0  0  0  0
   -8.3011  -21.1117   31.1406 O   0  0  0  0  0  0  0  0  0  0  0  0
  2  1  1  0
  3  2  1  0
  3  4  1  6
  5  6  2  0
  5  3  1  0
  8  7  1  1
  8  9  1  0
  9  5  1  0
 10 12  1  0
 10  8  1  0
 11 10  2  0
 13 14  1  0
 13 12  1  0
 14 16  1  0
 15 14  2  0
M  END
$$$$
