SAG.pdb
     RDKit          3D

 16 15  0  0  1  0  0  0  0  0999 V2000
    4.3051  -20.8842   17.5860 O   0  0  0  0  0  0  0  0  0  0  0  0
    3.8561  -19.5886   17.9302 C   0  0  0  0  0  0  0  0  0  0  0  0
    5.0569  -18.7006   18.2163 C   0  0  2  0  0  0  0  0  0  0  0  0
    6.0482  -18.7792   17.1975 N   0  0  0  0  0  0  0  0  0  0  0  0
    5.6318  -19.1533   19.5144 C   0  0  0  0  0  0  0  0  0  0  0  0
    6.6722  -19.8594   19.5491 O   0  0  0  0  0  0  0  0  0  0  0  0
    5.1226  -18.3804   23.1333 C   0  0  0  0  0  0  0  0  0  0  0  0
    5.5341  -19.3242   22.0286 C   0  0  2  0  0  0  0  0  0  0  0  0
    5.0372  -18.8117   20.7669 N   0  0  0  0  0  0  0  0  0  0  0  0
    5.0463  -20.7111   22.2769 C   0  0  0  0  0  0  0  0  0  0  0  0
    3.8759  -21.0283   21.9503 O   0  0  0  0  0  0  0  0  0  0  0  0
    5.9296  -21.6291   22.8781 N   0  0  0  0  0  0  0  0  0  0  0  0
    5.5318  -23.0197   23.0122 C   0  0  0  0  0  0  0  0  0  0  0  0
    5.0051  -23.3020   24.3660 C   0  0  0  0  0  0  0  0  0  0  0  0
    5.8474  -23.4236   25.2943 O   0  0  0  0  0  0  0  0  0  0  0  0
    3.6515  -23.4360   24.6523 O   0  0  0  0  0  0  0  0  0  0  0  0
  2  1  1  0
  3  2  1  0
  3  4  1  6
  5  6  2  0
  5  3  1  0
  8  7  1  1
  8  9  1  0
  9  5  1  0
 10 12  1  0
 10  8  1  0
 11 10  2  0
 13 14  1  0
 13 12  1  0
 14 16  1  0
 15 14  2  0
M  END
$$$$
