SAG.pdb
     RDKit          3D

 16 15  0  0  1  0  0  0  0  0999 V2000
    8.2118  -17.1855   24.7462 O   0  0  0  0  0  0  0  0  0  0  0  0
    6.8196  -17.0652   24.5318 C   0  0  0  0  0  0  0  0  0  0  0  0
    6.5478  -15.8387   23.6750 C   0  0  2  0  0  0  0  0  0  0  0  0
    7.0462  -15.9786   22.3488 N   0  0  0  0  0  0  0  0  0  0  0  0
    7.2135  -14.6857   24.3442 C   0  0  0  0  0  0  0  0  0  0  0  0
    8.3353  -14.2718   23.9538 O   0  0  0  0  0  0  0  0  0  0  0  0
    6.1029  -12.0567   26.7670 C   0  0  0  0  0  0  0  0  0  0  0  0
    7.1825  -12.7909   26.0081 C   0  0  2  0  0  0  0  0  0  0  0  0
    6.6179  -14.0027   25.4477 N   0  0  0  0  0  0  0  0  0  0  0  0
    8.3576  -13.0939   26.8742 C   0  0  0  0  0  0  0  0  0  0  0  0
    8.9588  -12.1591   27.4592 O   0  0  0  0  0  0  0  0  0  0  0  0
    8.7571  -14.4382   27.0069 N   0  0  0  0  0  0  0  0  0  0  0  0
    9.8332  -14.7764   27.9221 C   0  0  0  0  0  0  0  0  0  0  0  0
   10.0606  -16.2379   27.9708 C   0  0  0  0  0  0  0  0  0  0  0  0
    9.4280  -16.9437   27.1416 O   0  0  0  0  0  0  0  0  0  0  0  0
   10.9226  -16.8527   28.8714 O   0  0  0  0  0  0  0  0  0  0  0  0
  2  1  1  0
  3  2  1  0
  3  4  1  6
  5  6  2  0
  5  3  1  0
  8  7  1  1
  8  9  1  0
  9  5  1  0
 10 12  1  0
 10  8  1  0
 11 10  2  0
 13 14  1  0
 13 12  1  0
 14 16  1  0
 15 14  2  0
M  END
$$$$
