SAG.pdb
     RDKit          3D

 16 15  0  0  1  0  0  0  0  0999 V2000
   -3.3501  -22.2128   28.0423 O   0  0  0  0  0  0  0  0  0  0  0  0
   -2.9582  -22.3266   26.6888 C   0  0  0  0  0  0  0  0  0  0  0  0
   -2.9002  -23.7968   26.3048 C   0  0  2  0  0  0  0  0  0  0  0  0
   -2.3867  -23.9976   24.9922 N   0  0  0  0  0  0  0  0  0  0  0  0
   -4.2923  -24.3219   26.3867 C   0  0  0  0  0  0  0  0  0  0  0  0
   -5.1489  -24.0205   25.5163 O   0  0  0  0  0  0  0  0  0  0  0  0
   -6.0018  -27.1584   27.9310 C   0  0  0  0  0  0  0  0  0  0  0  0
   -6.0665  -25.7048   27.5269 C   0  0  2  0  0  0  0  0  0  0  0  0
   -4.7168  -25.1824   27.4442 N   0  0  0  0  0  0  0  0  0  0  0  0
   -6.8972  -24.9053   28.4721 C   0  0  0  0  0  0  0  0  0  0  0  0
   -8.1123  -25.1844   28.6240 O   0  0  0  0  0  0  0  0  0  0  0  0
   -6.2797  -23.8498   29.1712 N   0  0  0  0  0  0  0  0  0  0  0  0
   -7.0168  -23.1550   30.2123 C   0  0  0  0  0  0  0  0  0  0  0  0
   -7.7215  -21.9697   29.6750 C   0  0  0  0  0  0  0  0  0  0  0  0
   -7.7159  -21.8182   28.4248 O   0  0  0  0  0  0  0  0  0  0  0  0
   -8.3751  -21.0367   30.4716 O   0  0  0  0  0  0  0  0  0  0  0  0
  2  1  1  0
  3  2  1  0
  3  4  1  6
  5  6  2  0
  5  3  1  0
  8  7  1  1
  8  9  1  0
  9  5  1  0
 10 12  1  0
 10  8  1  0
 11 10  2  0
 13 14  1  0
 13 12  1  0
 14 16  1  0
 15 14  2  0
M  END
$$$$
