SAG.pdb
     RDKit          3D

 16 15  0  0  1  0  0  0  0  0999 V2000
   -2.6113  -26.6446   27.0442 O   0  0  0  0  0  0  0  0  0  0  0  0
   -1.5853  -25.7495   26.6639 C   0  0  0  0  0  0  0  0  0  0  0  0
   -1.2475  -24.8448   27.8385 C   0  0  2  0  0  0  0  0  0  0  0  0
   -0.9159  -25.5774   29.0133 N   0  0  0  0  0  0  0  0  0  0  0  0
   -2.4476  -23.9993   28.0942 C   0  0  0  0  0  0  0  0  0  0  0  0
   -3.2127  -24.2396   29.0632 O   0  0  0  0  0  0  0  0  0  0  0  0
   -3.9199  -20.8922   26.5436 C   0  0  0  0  0  0  0  0  0  0  0  0
   -3.9350  -22.0460   27.5178 C   0  0  2  0  0  0  0  0  0  0  0  0
   -2.7835  -22.8886   27.2620 N   0  0  0  0  0  0  0  0  0  0  0  0
   -5.2031  -22.8252   27.4313 C   0  0  0  0  0  0  0  0  0  0  0  0
   -5.3518  -23.6753   26.5188 O   0  0  0  0  0  0  0  0  0  0  0  0
   -6.2039  -22.5757   28.3908 N   0  0  0  0  0  0  0  0  0  0  0  0
   -7.3915  -23.4116   28.4179 C   0  0  0  0  0  0  0  0  0  0  0  0
   -8.3750  -22.9196   29.4082 C   0  0  0  0  0  0  0  0  0  0  0  0
   -8.0141  -21.9674   30.1492 O   0  0  0  0  0  0  0  0  0  0  0  0
   -9.6515  -23.4501   29.5536 O   0  0  0  0  0  0  0  0  0  0  0  0
  2  1  1  0
  3  2  1  0
  3  4  1  1
  5  6  2  0
  5  3  1  0
  8  7  1  6
  8  9  1  0
  9  5  1  0
 10 12  1  0
 10  8  1  0
 11 10  2  0
 13 14  1  0
 13 12  1  0
 14 16  1  0
 15 14  2  0
M  END
$$$$
