SAG.pdb
     RDKit          3D

 16 15  0  0  1  0  0  0  0  0999 V2000
   -0.0262  -20.3455   24.1786 O   0  0  0  0  0  0  0  0  0  0  0  0
    0.1711  -19.2538   23.3023 C   0  0  0  0  0  0  0  0  0  0  0  0
    0.6055  -19.7747   21.9413 C   0  0  2  0  0  0  0  0  0  0  0  0
   -0.1674  -20.8908   21.5126 N   0  0  0  0  0  0  0  0  0  0  0  0
    2.0366  -20.1709   22.0648 C   0  0  0  0  0  0  0  0  0  0  0  0
    2.3586  -21.3621   22.3091 O   0  0  0  0  0  0  0  0  0  0  0  0
    5.3374  -18.5584   21.3353 C   0  0  0  0  0  0  0  0  0  0  0  0
    4.4946  -19.6087   22.0188 C   0  0  2  0  0  0  0  0  0  0  0  0
    3.0995  -19.2293   21.9137 N   0  0  0  0  0  0  0  0  0  0  0  0
    4.8961  -19.7985   23.4421 C   0  0  0  0  0  0  0  0  0  0  0  0
    4.6037  -18.9238   24.2946 O   0  0  0  0  0  0  0  0  0  0  0  0
    5.5996  -20.9701   23.7841 N   0  0  0  0  0  0  0  0  0  0  0  0
    5.8521  -21.2687   25.1830 C   0  0  0  0  0  0  0  0  0  0  0  0
    7.2832  -21.1011   25.5207 C   0  0  0  0  0  0  0  0  0  0  0  0
    7.8668  -22.0860   26.0453 O   0  0  0  0  0  0  0  0  0  0  0  0
    7.9961  -19.9305   25.2895 O   0  0  0  0  0  0  0  0  0  0  0  0
  2  1  1  0
  3  2  1  0
  3  4  1  1
  5  6  2  0
  5  3  1  0
  8  7  1  1
  8  9  1  0
  9  5  1  0
 10 12  1  0
 10  8  1  0
 11 10  2  0
 13 14  1  0
 13 12  1  0
 14 16  1  0
 15 14  2  0
M  END
$$$$
