LGA.pdb
     RDKit          3D

 18 17  0  0  1  0  0  0  0  0999 V2000
   26.1680  -10.4233  -14.9881 C   0  0  0  0  0  0  0  0  0  0  0  0
   25.2480  -10.1387  -16.1490 C   0  0  1  0  0  0  0  0  0  0  0  0
   25.3518  -11.3177  -17.0979 C   0  0  0  0  0  0  0  0  0  0  0  0
   23.8193   -9.9958  -15.7498 C   0  0  0  0  0  0  0  0  0  0  0  0
   22.9101   -9.6697  -16.9136 C   0  0  2  0  0  0  0  0  0  0  0  0
   23.4575   -8.5959  -17.6957 N   0  0  0  0  0  0  0  0  0  0  0  0
   21.5350   -9.3442  -16.4620 C   0  0  0  0  0  0  0  0  0  0  0  0
   20.9035  -10.1689  -15.7555 O   0  0  0  0  0  0  0  0  0  0  0  0
   20.8853   -8.1216  -16.7961 N   0  0  0  0  0  0  0  0  0  0  0  0
   19.5620   -7.7816  -16.3169 C   0  0  0  0  0  0  0  0  0  0  0  0
   19.6977   -6.5418  -15.4851 C   0  0  0  0  0  0  0  0  0  0  0  0
   18.6779   -5.9551  -15.0341 O   0  0  0  0  0  0  0  0  0  0  0  0
   22.1979   -4.8175  -13.4131 C   0  0  0  0  0  0  0  0  0  0  0  0
   21.0234   -4.7828  -14.3741 C   0  0  2  0  0  0  0  0  0  0  0  0
   20.9619   -5.9856  -15.1757 N   0  0  0  0  0  0  0  0  0  0  0  0
   21.1164   -3.6268  -15.2975 C   0  0  0  0  0  0  0  0  0  0  0  0
   21.4259   -3.8061  -16.4986 O   0  0  0  0  0  0  0  0  0  0  0  0
   20.8675   -2.3376  -14.8636 O   0  0  0  0  0  0  0  0  0  0  0  0
  2  1  1  1
  3  2  1  0
  4  5  1  0
  4  2  1  0
  5  6  1  1
  7  5  1  0
  7  8  2  0
  9 10  1  0
  9  7  1  0
 10 11  1  0
 11 12  2  0
 11 15  1  0
 14 13  1  1
 15 14  1  0
 16 18  1  0
 16 14  1  0
 17 16  2  0
M  END
$$$$
