LGA.pdb
     RDKit          3D

 18 17  0  0  1  0  0  0  0  0999 V2000
   26.5680  -19.0121   -7.6665 C   0  0  0  0  0  0  0  0  0  0  0  0
   26.6339  -19.9135   -8.8740 C   0  0  1  0  0  0  0  0  0  0  0  0
   27.6736  -20.9777   -8.5783 C   0  0  0  0  0  0  0  0  0  0  0  0
   25.3450  -20.6011   -9.1694 C   0  0  0  0  0  0  0  0  0  0  0  0
   25.2966  -21.1941  -10.5598 C   0  0  2  0  0  0  0  0  0  0  0  0
   26.5071  -21.9142  -10.8435 N   0  0  0  0  0  0  0  0  0  0  0  0
   25.0470  -20.1571  -11.5908 C   0  0  0  0  0  0  0  0  0  0  0  0
   24.2163  -19.2430  -11.3618 O   0  0  0  0  0  0  0  0  0  0  0  0
   25.7147  -20.1475  -12.8489 N   0  0  0  0  0  0  0  0  0  0  0  0
   26.3426  -18.9618  -13.3932 C   0  0  0  0  0  0  0  0  0  0  0  0
   27.0269  -19.3672  -14.6640 C   0  0  0  0  0  0  0  0  0  0  0  0
   27.6080  -18.5110  -15.3829 O   0  0  0  0  0  0  0  0  0  0  0  0
   28.5214  -22.2859  -16.2666 C   0  0  0  0  0  0  0  0  0  0  0  0
   27.6763  -21.0289  -16.3677 C   0  0  2  0  0  0  0  0  0  0  0  0
   27.0482  -20.7125  -15.1035 N   0  0  0  0  0  0  0  0  0  0  0  0
   26.6051  -21.1796  -17.3812 C   0  0  0  0  0  0  0  0  0  0  0  0
   25.4024  -21.0821  -17.0426 O   0  0  0  0  0  0  0  0  0  0  0  0
   26.9006  -21.4284  -18.7090 O   0  0  0  0  0  0  0  0  0  0  0  0
  2  1  1  1
  3  2  1  0
  4  5  1  0
  4  2  1  0
  5  6  1  6
  7  5  1  0
  7  8  2  0
  9 10  1  0
  9  7  1  0
 10 11  1  0
 11 12  2  0
 11 15  1  0
 14 13  1  1
 15 14  1  0
 16 18  1  0
 16 14  1  0
 17 16  2  0
M  END
$$$$
