LGA.pdb
     RDKit          3D

 18 17  0  0  1  0  0  0  0  0999 V2000
   23.0533  -11.9866  -17.9815 C   0  0  0  0  0  0  0  0  0  0  0  0
   22.3133  -11.9341  -16.6683 C   0  0  1  0  0  0  0  0  0  0  0  0
   22.0660  -13.3680  -16.2396 C   0  0  0  0  0  0  0  0  0  0  0  0
   23.0802  -11.2572  -15.5843 C   0  0  0  0  0  0  0  0  0  0  0  0
   22.1916  -10.6579  -14.5173 C   0  0  2  0  0  0  0  0  0  0  0  0
   20.8219  -10.6438  -14.9508 N   0  0  0  0  0  0  0  0  0  0  0  0
   22.6363   -9.2956  -14.1336 C   0  0  0  0  0  0  0  0  0  0  0  0
   23.8403   -9.0983  -13.8342 O   0  0  0  0  0  0  0  0  0  0  0  0
   21.7496   -8.1820  -14.0873 N   0  0  0  0  0  0  0  0  0  0  0  0
   22.1898   -6.8438  -13.7530 C   0  0  0  0  0  0  0  0  0  0  0  0
   21.3472   -5.8899  -14.5452 C   0  0  0  0  0  0  0  0  0  0  0  0
   20.5042   -6.3163  -15.3789 O   0  0  0  0  0  0  0  0  0  0  0  0
   19.1016   -3.8791  -14.6258 C   0  0  0  0  0  0  0  0  0  0  0  0
   20.5274   -3.6257  -15.0809 C   0  0  2  0  0  0  0  0  0  0  0  0
   21.4625   -4.4876  -14.3914 N   0  0  0  0  0  0  0  0  0  0  0  0
   20.9326   -2.2224  -14.8278 C   0  0  0  0  0  0  0  0  0  0  0  0
   20.3116   -1.2813  -15.3748 O   0  0  0  0  0  0  0  0  0  0  0  0
   21.9922   -1.9190  -13.9927 O   0  0  0  0  0  0  0  0  0  0  0  0
  2  1  1  6
  3  2  1  0
  4  5  1  0
  4  2  1  0
  5  6  1  6
  7  5  1  0
  7  8  2  0
  9 10  1  0
  9  7  1  0
 10 11  1  0
 11 12  2  0
 11 15  1  0
 14 13  1  1
 15 14  1  0
 16 18  1  0
 16 14  1  0
 17 16  2  0
M  END
$$$$
