LGA.pdb
     RDKit          3D

 18 17  0  0  1  0  0  0  0  0999 V2000
   20.9244  -19.5701  -16.5093 C   0  0  0  0  0  0  0  0  0  0  0  0
   19.9599  -18.4427  -16.7805 C   0  0  1  0  0  0  0  0  0  0  0  0
   18.7644  -18.6517  -15.8704 C   0  0  0  0  0  0  0  0  0  0  0  0
   20.5279  -17.0959  -16.4894 C   0  0  0  0  0  0  0  0  0  0  0  0
   19.5710  -15.9692  -16.8089 C   0  0  2  0  0  0  0  0  0  0  0  0
   19.2470  -15.9644  -18.2086 N   0  0  0  0  0  0  0  0  0  0  0  0
   20.1123  -14.6532  -16.3893 C   0  0  0  0  0  0  0  0  0  0  0  0
   20.5038  -14.4930  -15.2064 O   0  0  0  0  0  0  0  0  0  0  0  0
   20.2112  -13.5441  -17.2773 N   0  0  0  0  0  0  0  0  0  0  0  0
   20.6942  -12.2454  -16.8574 C   0  0  0  0  0  0  0  0  0  0  0  0
   19.4950  -11.4269  -16.4839 C   0  0  0  0  0  0  0  0  0  0  0  0
   18.3308  -11.8812  -16.6449 O   0  0  0  0  0  0  0  0  0  0  0  0
   17.5888  -10.0436  -14.5746 C   0  0  0  0  0  0  0  0  0  0  0  0
   18.4218   -9.3685  -15.6490 C   0  0  2  0  0  0  0  0  0  0  0  0
   19.6194  -10.1255  -15.9415 N   0  0  0  0  0  0  0  0  0  0  0  0
   18.8360   -8.0070  -15.2339 C   0  0  0  0  0  0  0  0  0  0  0  0
   17.9703   -7.1494  -14.9412 O   0  0  0  0  0  0  0  0  0  0  0  0
   20.1705   -7.6522  -15.1596 O   0  0  0  0  0  0  0  0  0  0  0  0
  2  1  1  1
  3  2  1  0
  4  5  1  0
  4  2  1  0
  5  6  1  6
  7  5  1  0
  7  8  2  0
  9 10  1  0
  9  7  1  0
 10 11  1  0
 11 12  2  0
 11 15  1  0
 14 13  1  1
 15 14  1  0
 16 18  1  0
 16 14  1  0
 17 16  2  0
M  END
$$$$
