LGA.pdb
     RDKit          3D

 18 17  0  0  1  0  0  0  0  0999 V2000
   26.7592  -15.0441  -16.4370 C   0  0  0  0  0  0  0  0  0  0  0  0
   25.3874  -14.8523  -15.8401 C   0  0  1  0  0  0  0  0  0  0  0  0
   25.5664  -14.7541  -14.3369 C   0  0  0  0  0  0  0  0  0  0  0  0
   24.7099  -13.6082  -16.3034 C   0  0  0  0  0  0  0  0  0  0  0  0
   23.2990  -13.4722  -15.7760 C   0  0  2  0  0  0  0  0  0  0  0  0
   22.5504  -14.6734  -16.0225 N   0  0  0  0  0  0  0  0  0  0  0  0
   22.6080  -12.2934  -16.3537 C   0  0  0  0  0  0  0  0  0  0  0  0
   22.1036  -12.3719  -17.5015 O   0  0  0  0  0  0  0  0  0  0  0  0
   22.4867  -11.0562  -15.6584 N   0  0  0  0  0  0  0  0  0  0  0  0
   21.8039   -9.9079  -16.2165 C   0  0  0  0  0  0  0  0  0  0  0  0
   22.3182   -8.6958  -15.4997 C   0  0  0  0  0  0  0  0  0  0  0  0
   23.0711   -8.8133  -14.4963 O   0  0  0  0  0  0  0  0  0  0  0  0
   22.3021   -4.9571  -15.9633 C   0  0  0  0  0  0  0  0  0  0  0  0
   22.5740   -6.2572  -15.2285 C   0  0  2  0  0  0  0  0  0  0  0  0
   21.9832   -7.3850  -15.9155 N   0  0  0  0  0  0  0  0  0  0  0  0
   22.0224   -6.2245  -13.8530 C   0  0  0  0  0  0  0  0  0  0  0  0
   20.9442   -6.8090  -13.5949 O   0  0  0  0  0  0  0  0  0  0  0  0
   22.6740   -5.5570  -12.8321 O   0  0  0  0  0  0  0  0  0  0  0  0
  2  1  1  6
  3  2  1  0
  4  5  1  0
  4  2  1  0
  5  6  1  6
  7  5  1  0
  7  8  2  0
  9 10  1  0
  9  7  1  0
 10 11  1  0
 11 12  2  0
 11 15  1  0
 14 13  1  6
 15 14  1  0
 16 18  1  0
 16 14  1  0
 17 16  2  0
M  END
$$$$
