LGA.pdb
     RDKit          3D

 18 17  0  0  1  0  0  0  0  0999 V2000
   30.8268  -13.0960  -18.0040 C   0  0  0  0  0  0  0  0  0  0  0  0
   31.8123  -12.0208  -18.3881 C   0  0  1  0  0  0  0  0  0  0  0  0
   31.2091  -11.2607  -19.5541 C   0  0  0  0  0  0  0  0  0  0  0  0
   32.0789  -11.0450  -17.2936 C   0  0  0  0  0  0  0  0  0  0  0  0
   33.1445  -10.0329  -17.6506 C   0  0  2  0  0  0  0  0  0  0  0  0
   34.3596  -10.6948  -18.0372 N   0  0  0  0  0  0  0  0  0  0  0  0
   33.3935   -9.0822  -16.5393 C   0  0  0  0  0  0  0  0  0  0  0  0
   34.1986   -9.3933  -15.6265 O   0  0  0  0  0  0  0  0  0  0  0  0
   32.7533   -7.8127  -16.4556 N   0  0  0  0  0  0  0  0  0  0  0  0
   33.0005   -6.8806  -15.3755 C   0  0  0  0  0  0  0  0  0  0  0  0
   33.8687   -5.7883  -15.9237 C   0  0  0  0  0  0  0  0  0  0  0  0
   34.0668   -4.7326  -15.2651 O   0  0  0  0  0  0  0  0  0  0  0  0
   36.6171   -5.4694  -18.3336 C   0  0  0  0  0  0  0  0  0  0  0  0
   35.4298   -4.8724  -17.6000 C   0  0  2  0  0  0  0  0  0  0  0  0
   34.4945   -5.8965  -17.1887 N   0  0  0  0  0  0  0  0  0  0  0  0
   34.6982   -3.9069  -18.4544 C   0  0  0  0  0  0  0  0  0  0  0  0
   35.0585   -2.7072  -18.4962 O   0  0  0  0  0  0  0  0  0  0  0  0
   33.6137   -4.2991  -19.2174 O   0  0  0  0  0  0  0  0  0  0  0  0
  2  1  1  1
  3  2  1  0
  4  5  1  0
  4  2  1  0
  5  6  1  1
  7  5  1  0
  7  8  2  0
  9 10  1  0
  9  7  1  0
 10 11  1  0
 11 12  2  0
 11 15  1  0
 14 13  1  6
 15 14  1  0
 16 18  1  0
 16 14  1  0
 17 16  2  0
M  END
$$$$
