LGA.pdb
     RDKit          3D

 18 17  0  0  1  0  0  0  0  0999 V2000
   26.4761  -13.7985  -16.5249 C   0  0  0  0  0  0  0  0  0  0  0  0
   25.0201  -13.4137  -16.6071 C   0  0  1  0  0  0  0  0  0  0  0  0
   24.2245  -14.5497  -15.9926 C   0  0  0  0  0  0  0  0  0  0  0  0
   24.6947  -12.1677  -15.8566 C   0  0  0  0  0  0  0  0  0  0  0  0
   23.2427  -11.7641  -15.9825 C   0  0  2  0  0  0  0  0  0  0  0  0
   22.8634  -11.6700  -17.3651 N   0  0  0  0  0  0  0  0  0  0  0  0
   22.9626  -10.4922  -15.2720 C   0  0  0  0  0  0  0  0  0  0  0  0
   23.2129  -10.4002  -14.0444 O   0  0  0  0  0  0  0  0  0  0  0  0
   22.4144   -9.3514  -15.9251 N   0  0  0  0  0  0  0  0  0  0  0  0
   22.1066   -8.1214  -15.2260 C   0  0  0  0  0  0  0  0  0  0  0  0
   20.8029   -7.6182  -15.7689 C   0  0  0  0  0  0  0  0  0  0  0  0
   20.2417   -8.1993  -16.7358 O   0  0  0  0  0  0  0  0  0  0  0  0
   18.0659   -5.2852  -14.7836 C   0  0  0  0  0  0  0  0  0  0  0  0
   18.9011   -6.0471  -15.7965 C   0  0  2  0  0  0  0  0  0  0  0  0
   20.1563   -6.4830  -15.2243 N   0  0  0  0  0  0  0  0  0  0  0  0
   19.2091   -5.2096  -16.9803 C   0  0  0  0  0  0  0  0  0  0  0  0
   20.3313   -4.6620  -17.0870 O   0  0  0  0  0  0  0  0  0  0  0  0
   18.2788   -5.0133  -17.9845 O   0  0  0  0  0  0  0  0  0  0  0  0
  2  1  1  1
  3  2  1  0
  4  5  1  0
  4  2  1  0
  5  6  1  6
  7  5  1  0
  7  8  2  0
  9 10  1  0
  9  7  1  0
 10 11  1  0
 11 12  2  0
 11 15  1  0
 14 13  1  1
 15 14  1  0
 16 18  1  0
 16 14  1  0
 17 16  2  0
M  END
$$$$
