LGA.pdb
     RDKit          3D

 18 17  0  0  1  0  0  0  0  0999 V2000
   25.6870  -20.4307   -8.7315 C   0  0  0  0  0  0  0  0  0  0  0  0
   25.3853  -21.1743  -10.0085 C   0  0  1  0  0  0  0  0  0  0  0  0
   23.8759  -21.2136  -10.1542 C   0  0  0  0  0  0  0  0  0  0  0  0
   25.9461  -20.5162  -11.2224 C   0  0  0  0  0  0  0  0  0  0  0  0
   25.5793  -21.2298  -12.5044 C   0  0  2  0  0  0  0  0  0  0  0  0
   26.1335  -22.5552  -12.5203 N   0  0  0  0  0  0  0  0  0  0  0  0
   26.0089  -20.4652  -13.7009 C   0  0  0  0  0  0  0  0  0  0  0  0
   27.2304  -20.3953  -13.9858 O   0  0  0  0  0  0  0  0  0  0  0  0
   25.0882  -19.7953  -14.5566 N   0  0  0  0  0  0  0  0  0  0  0  0
   25.5105  -18.9776  -15.6744 C   0  0  0  0  0  0  0  0  0  0  0  0
   25.1096  -17.5662  -15.3665 C   0  0  0  0  0  0  0  0  0  0  0  0
   24.1076  -17.3260  -14.6414 O   0  0  0  0  0  0  0  0  0  0  0  0
   26.3772  -14.0723  -15.9583 C   0  0  0  0  0  0  0  0  0  0  0  0
   25.3341  -15.1229  -15.6228 C   0  0  2  0  0  0  0  0  0  0  0  0
   25.8314  -16.4584  -15.8716 N   0  0  0  0  0  0  0  0  0  0  0  0
   24.1047  -14.9391  -16.4305 C   0  0  0  0  0  0  0  0  0  0  0  0
   23.9337  -15.6101  -17.4751 O   0  0  0  0  0  0  0  0  0  0  0  0
   23.1274  -14.0345  -16.0577 O   0  0  0  0  0  0  0  0  0  0  0  0
  2  1  1  1
  3  2  1  0
  4  5  1  0
  4  2  1  0
  5  6  1  1
  7  5  1  0
  7  8  2  0
  9 10  1  0
  9  7  1  0
 10 11  1  0
 11 12  2  0
 11 15  1  0
 14 13  1  6
 15 14  1  0
 16 18  1  0
 16 14  1  0
 17 16  2  0
M  END
$$$$
