LGA.pdb
     RDKit          3D

 18 17  0  0  1  0  0  0  0  0999 V2000
   25.4567  -13.8108  -15.1920 C   0  0  0  0  0  0  0  0  0  0  0  0
   24.1028  -13.2957  -15.6124 C   0  0  1  0  0  0  0  0  0  0  0  0
   23.0659  -14.0875  -14.8385 C   0  0  0  0  0  0  0  0  0  0  0  0
   23.8988  -11.8514  -15.3066 C   0  0  0  0  0  0  0  0  0  0  0  0
   22.5334  -11.3474  -15.7175 C   0  0  2  0  0  0  0  0  0  0  0  0
   22.2518  -11.7072  -17.0797 N   0  0  0  0  0  0  0  0  0  0  0  0
   22.4074   -9.8821  -15.5232 C   0  0  0  0  0  0  0  0  0  0  0  0
   22.5378   -9.3962  -14.3721 O   0  0  0  0  0  0  0  0  0  0  0  0
   22.1413   -8.9843  -16.5964 N   0  0  0  0  0  0  0  0  0  0  0  0
   22.0705   -7.5492  -16.4177 C   0  0  0  0  0  0  0  0  0  0  0  0
   20.6265   -7.1988  -16.2188 C   0  0  0  0  0  0  0  0  0  0  0  0
   19.7322   -8.0818  -16.3087 O   0  0  0  0  0  0  0  0  0  0  0  0
   18.1322   -6.4036  -14.7453 C   0  0  0  0  0  0  0  0  0  0  0  0
   18.7985   -5.5867  -15.8375 C   0  0  2  0  0  0  0  0  0  0  0  0
   20.2130   -5.8774  -15.9253 N   0  0  0  0  0  0  0  0  0  0  0  0
   18.6489   -4.1327  -15.5905 C   0  0  0  0  0  0  0  0  0  0  0  0
   19.6640   -3.4158  -15.4280 O   0  0  0  0  0  0  0  0  0  0  0  0
   17.4022   -3.5371  -15.5335 O   0  0  0  0  0  0  0  0  0  0  0  0
  2  1  1  1
  3  2  1  0
  4  5  1  0
  4  2  1  0
  5  6  1  6
  7  5  1  0
  7  8  2  0
  9 10  1  0
  9  7  1  0
 10 11  1  0
 11 12  2  0
 11 15  1  0
 14 13  1  1
 15 14  1  0
 16 18  1  0
 16 14  1  0
 17 16  2  0
M  END
$$$$
