LGA.pdb
     RDKit          3D

 18 17  0  0  1  0  0  0  0  0999 V2000
   26.7511  -10.1575  -15.1587 C   0  0  0  0  0  0  0  0  0  0  0  0
   25.4589  -10.1310  -15.9360 C   0  0  1  0  0  0  0  0  0  0  0  0
   25.8236   -9.9695  -17.3995 C   0  0  0  0  0  0  0  0  0  0  0  0
   24.6601  -11.3817  -15.7978 C   0  0  0  0  0  0  0  0  0  0  0  0
   23.3084  -11.2971  -16.4708 C   0  0  2  0  0  0  0  0  0  0  0  0
   23.4275  -10.6892  -17.7672 N   0  0  0  0  0  0  0  0  0  0  0  0
   22.3237  -10.5669  -15.6355 C   0  0  0  0  0  0  0  0  0  0  0  0
   22.0738  -10.9742  -14.4737 O   0  0  0  0  0  0  0  0  0  0  0  0
   21.6363   -9.4069  -16.0944 N   0  0  0  0  0  0  0  0  0  0  0  0
   20.7590   -8.6291  -15.2449 C   0  0  0  0  0  0  0  0  0  0  0  0
   20.8546   -7.2031  -15.6978 C   0  0  0  0  0  0  0  0  0  0  0  0
   21.8260   -6.8152  -16.4003 O   0  0  0  0  0  0  0  0  0  0  0  0
   18.6267   -4.1803  -15.7962 C   0  0  0  0  0  0  0  0  0  0  0  0
   19.9404   -4.9255  -15.9478 C   0  0  2  0  0  0  0  0  0  0  0  0
   19.8694   -6.2450  -15.3590 N   0  0  0  0  0  0  0  0  0  0  0  0
   21.0525   -4.1961  -15.2932 C   0  0  0  0  0  0  0  0  0  0  0  0
   21.4675   -3.1177  -15.7784 O   0  0  0  0  0  0  0  0  0  0  0  0
   21.6533   -4.6798  -14.1454 O   0  0  0  0  0  0  0  0  0  0  0  0
  2  1  1  1
  3  2  1  0
  4  5  1  0
  4  2  1  0
  5  6  1  6
  7  5  1  0
  7  8  2  0
  9 10  1  0
  9  7  1  0
 10 11  1  0
 11 12  2  0
 11 15  1  0
 14 13  1  1
 15 14  1  0
 16 18  1  0
 16 14  1  0
 17 16  2  0
M  END
$$$$
