LGA.pdb
     RDKit          3D

 18 17  0  0  1  0  0  0  0  0999 V2000
   16.5697   -9.5770  -19.0551 C   0  0  0  0  0  0  0  0  0  0  0  0
   17.8486  -10.3437  -18.8282 C   0  0  1  0  0  0  0  0  0  0  0  0
   18.7213  -10.1242  -20.0494 C   0  0  0  0  0  0  0  0  0  0  0  0
   18.6095   -9.8834  -17.6322 C   0  0  0  0  0  0  0  0  0  0  0  0
   19.7937  -10.7669  -17.3090 C   0  0  2  0  0  0  0  0  0  0  0  0
   19.3662  -12.1191  -17.0786 N   0  0  0  0  0  0  0  0  0  0  0  0
   20.5622  -10.2528  -16.1489 C   0  0  0  0  0  0  0  0  0  0  0  0
   20.2144  -10.5721  -14.9848 O   0  0  0  0  0  0  0  0  0  0  0  0
   21.6941   -9.4004  -16.2934 N   0  0  0  0  0  0  0  0  0  0  0  0
   22.4394   -8.8899  -15.1619 C   0  0  0  0  0  0  0  0  0  0  0  0
   21.7922   -7.6017  -14.7507 C   0  0  0  0  0  0  0  0  0  0  0  0
   20.7128   -7.6030  -14.1006 O   0  0  0  0  0  0  0  0  0  0  0  0
   21.7870   -4.9999  -13.1071 C   0  0  0  0  0  0  0  0  0  0  0  0
   21.7028   -5.1400  -14.6162 C   0  0  2  0  0  0  0  0  0  0  0  0
   22.3601   -6.3455  -15.0717 N   0  0  0  0  0  0  0  0  0  0  0  0
   22.3401   -3.9898  -15.3008 C   0  0  0  0  0  0  0  0  0  0  0  0
   23.4130   -4.1489  -15.9286 O   0  0  0  0  0  0  0  0  0  0  0  0
   21.7750   -2.7281  -15.2650 O   0  0  0  0  0  0  0  0  0  0  0  0
  2  1  1  6
  3  2  1  0
  4  5  1  0
  4  2  1  0
  5  6  1  1
  7  5  1  0
  7  8  2  0
  9 10  1  0
  9  7  1  0
 10 11  1  0
 11 12  2  0
 11 15  1  0
 14 13  1  1
 15 14  1  0
 16 18  1  0
 16 14  1  0
 17 16  2  0
M  END
$$$$
