IPE.pdb
     RDKit          3D

 25 25  0  0  1  0  0  0  0  0999 V2000
    6.7114  -11.7605   27.5976 C   0  0  0  0  0  0  0  0  0  0  0  0
    6.0154  -12.7982   26.7175 C   0  0  0  0  0  0  0  0  0  0  0  0
    7.0122  -13.6335   26.0107 C   0  0  2  0  0  0  0  0  0  0  0  0
    7.9915  -12.7898   25.2224 C   0  0  0  0  0  0  0  0  0  0  0  0
    6.4142  -14.7369   25.2185 C   0  0  2  0  0  0  0  0  0  0  0  0
    5.5170  -15.5530   26.0344 N   0  0  0  0  0  0  0  0  0  0  0  0
    7.3173  -15.6185   24.4912 C   0  0  0  0  0  0  0  0  0  0  0  0
    7.7251  -16.7298   24.9797 O   0  0  0  0  0  0  0  0  0  0  0  0
    7.8077  -15.3055   23.1880 N   0  0  0  0  0  0  0  0  0  0  0  0
    7.3862  -14.0680   22.5097 C   0  0  0  0  0  0  0  0  0  0  0  0
    8.0575  -14.0582   21.1661 C   0  0  0  0  0  0  0  0  0  0  0  0
    8.3312  -15.5082   20.9380 C   0  0  0  0  0  0  0  0  0  0  0  0
    8.7257  -15.9723   22.3242 C   0  0  1  0  0  0  0  0  0  0  0  0
   10.1419  -15.6362   22.6252 C   0  0  0  0  0  0  0  0  0  0  0  0
   10.3513  -14.5971   23.2963 O   0  0  0  0  0  0  0  0  0  0  0  0
   11.2395  -16.4070   22.2053 N   0  0  0  0  0  0  0  0  0  0  0  0
   12.3162  -16.7828   23.1342 C   0  0  1  0  0  0  0  0  0  0  0  0
   11.7049  -17.5013   24.2899 C   0  0  0  0  0  0  0  0  0  0  0  0
   12.6445  -17.9319   25.3603 C   0  0  0  0  0  0  0  0  0  0  0  0
   11.8864  -18.6129   26.4326 C   0  0  0  0  0  0  0  0  0  0  0  0
   11.5715  -17.9872   27.4690 O   0  0  0  0  0  0  0  0  0  0  0  0
   13.3396  -17.5524   22.4035 C   0  0  0  0  0  0  0  0  0  0  0  0
   14.6964  -17.3757   22.6413 O   0  0  0  0  0  0  0  0  0  0  0  0
   11.5220  -19.9378   26.2989 O   0  0  0  0  0  0  0  0  0  0  0  0
   12.9705  -18.3879   21.5445 O   0  0  0  0  0  0  0  0  0  0  0  0
  2  1  1  0
  2  3  1  0
  3  5  1  0
  3  4  1  6
  5  6  1  1
  7  5  1  0
  7  8  2  0
  9 13  1  0
  9  7  1  0
 10 11  1  0
 10  9  1  0
 11 12  1  0
 13 12  1  0
 13 14  1  1
 15 14  2  0
 16 14  1  0
 17 16  1  0
 17 18  1  1
 19 18  1  0
 20 19  1  0
 21 20  2  0
 22 17  1  0
 22 23  1  0
 24 20  1  0
 25 22  2  0
M  END
$$$$
