IPE.pdb
     RDKit          3D

 25 25  0  0  1  0  0  0  0  0999 V2000
    6.2031  -17.0435   19.6776 C   0  0  0  0  0  0  0  0  0  0  0  0
    6.8540  -15.7093   20.0408 C   0  0  0  0  0  0  0  0  0  0  0  0
    7.2992  -15.7148   21.4524 C   0  0  2  0  0  0  0  0  0  0  0  0
    6.1661  -16.0601   22.3954 C   0  0  0  0  0  0  0  0  0  0  0  0
    8.0449  -14.4945   21.8494 C   0  0  2  0  0  0  0  0  0  0  0  0
    8.9863  -14.0837   20.8093 N   0  0  0  0  0  0  0  0  0  0  0  0
    8.7390  -14.5085   23.1299 C   0  0  0  0  0  0  0  0  0  0  0  0
    9.9477  -14.9154   23.2456 O   0  0  0  0  0  0  0  0  0  0  0  0
    8.1218  -14.0703   24.3397 N   0  0  0  0  0  0  0  0  0  0  0  0
    6.7692  -13.4879   24.3187 C   0  0  0  0  0  0  0  0  0  0  0  0
    6.4336  -13.1160   25.7347 C   0  0  0  0  0  0  0  0  0  0  0  0
    7.7850  -12.9685   26.3523 C   0  0  0  0  0  0  0  0  0  0  0  0
    8.5508  -14.0999   25.6993 C   0  0  1  0  0  0  0  0  0  0  0  0
    8.2655  -15.3997   26.3613 C   0  0  0  0  0  0  0  0  0  0  0  0
    7.2480  -16.0246   25.9764 O   0  0  0  0  0  0  0  0  0  0  0  0
    9.0611  -15.9560   27.3775 N   0  0  0  0  0  0  0  0  0  0  0  0
    9.5145  -17.3541   27.3212 C   0  0  1  0  0  0  0  0  0  0  0  0
   10.2582  -17.5517   26.0431 C   0  0  0  0  0  0  0  0  0  0  0  0
   11.6959  -17.1687   26.0599 C   0  0  0  0  0  0  0  0  0  0  0  0
   12.4336  -17.9920   25.0768 C   0  0  0  0  0  0  0  0  0  0  0  0
   11.8265  -18.8535   24.4029 O   0  0  0  0  0  0  0  0  0  0  0  0
   10.2895  -17.6613   28.5371 C   0  0  0  0  0  0  0  0  0  0  0  0
   10.7904  -16.6595   29.3582 O   0  0  0  0  0  0  0  0  0  0  0  0
   13.7910  -17.8171   24.8959 O   0  0  0  0  0  0  0  0  0  0  0  0
   10.5003  -18.8611   28.8341 O   0  0  0  0  0  0  0  0  0  0  0  0
  2  1  1  0
  2  3  1  0
  3  5  1  0
  3  4  1  1
  5  6  1  6
  7  5  1  0
  7  8  2  0
  9 13  1  0
  9  7  1  0
 10 11  1  0
 10  9  1  0
 11 12  1  0
 13 12  1  0
 13 14  1  1
 15 14  2  0
 16 14  1  0
 17 16  1  0
 17 18  1  6
 19 18  1  0
 20 19  1  0
 21 20  2  0
 22 17  1  0
 22 23  1  0
 24 20  1  0
 25 22  2  0
M  END
$$$$
