IPE.pdb
     RDKit          3D

 25 25  0  0  1  0  0  0  0  0999 V2000
    8.6473  -12.6202   27.4716 C   0  0  0  0  0  0  0  0  0  0  0  0
    7.8364  -13.8186   26.9794 C   0  0  0  0  0  0  0  0  0  0  0  0
    6.8945  -13.4074   25.9142 C   0  0  2  0  0  0  0  0  0  0  0  0
    5.9918  -12.2804   26.3696 C   0  0  0  0  0  0  0  0  0  0  0  0
    6.1588  -14.5387   25.2966 C   0  0  2  0  0  0  0  0  0  0  0  0
    5.3956  -15.2859   26.2947 N   0  0  0  0  0  0  0  0  0  0  0  0
    6.9174  -15.4812   24.4856 C   0  0  0  0  0  0  0  0  0  0  0  0
    7.0250  -16.7181   24.7995 O   0  0  0  0  0  0  0  0  0  0  0  0
    7.5904  -15.0922   23.2887 N   0  0  0  0  0  0  0  0  0  0  0  0
    7.5365  -13.6961   22.8226 C   0  0  0  0  0  0  0  0  0  0  0  0
    8.3178  -13.6348   21.5413 C   0  0  0  0  0  0  0  0  0  0  0  0
    8.2665  -15.0510   21.0709 C   0  0  0  0  0  0  0  0  0  0  0  0
    8.4066  -15.8158   22.3701 C   0  0  1  0  0  0  0  0  0  0  0  0
    9.8263  -15.8922   22.8033 C   0  0  0  0  0  0  0  0  0  0  0  0
   10.3239  -14.8588   23.3118 O   0  0  0  0  0  0  0  0  0  0  0  0
   10.6268  -17.0402   22.6756 N   0  0  0  0  0  0  0  0  0  0  0  0
   11.9779  -17.1043   23.2533 C   0  0  1  0  0  0  0  0  0  0  0  0
   12.2523  -18.5185   23.6410 C   0  0  0  0  0  0  0  0  0  0  0  0
   11.2687  -19.1429   24.5666 C   0  0  0  0  0  0  0  0  0  0  0  0
   11.6982  -20.5238   24.8787 C   0  0  0  0  0  0  0  0  0  0  0  0
   12.6889  -21.0166   24.2953 O   0  0  0  0  0  0  0  0  0  0  0  0
   12.9417  -16.5313   22.2960 C   0  0  0  0  0  0  0  0  0  0  0  0
   14.2242  -16.1629   22.6807 O   0  0  0  0  0  0  0  0  0  0  0  0
   11.0126  -21.2758   25.8116 O   0  0  0  0  0  0  0  0  0  0  0  0
   12.5894  -16.3736   21.1030 O   0  0  0  0  0  0  0  0  0  0  0  0
  2  1  1  0
  2  3  1  0
  3  5  1  0
  3  4  1  1
  5  6  1  1
  7  5  1  0
  7  8  2  0
  9 13  1  0
  9  7  1  0
 10 11  1  0
 10  9  1  0
 11 12  1  0
 13 12  1  0
 13 14  1  1
 15 14  2  0
 16 14  1  0
 17 16  1  0
 17 18  1  6
 19 18  1  0
 20 19  1  0
 21 20  2  0
 22 17  1  0
 22 23  1  0
 24 20  1  0
 25 22  2  0
M  END
$$$$
