IPE.pdb
     RDKit          3D

 25 25  0  0  1  0  0  0  0  0999 V2000
    7.1459  -11.6560   27.5546 C   0  0  0  0  0  0  0  0  0  0  0  0
    6.3422  -12.6858   26.7614 C   0  0  0  0  0  0  0  0  0  0  0  0
    7.2471  -13.6074   26.0385 C   0  0  2  0  0  0  0  0  0  0  0  0
    8.2433  -12.8559   25.1812 C   0  0  0  0  0  0  0  0  0  0  0  0
    6.5408  -14.6899   25.3093 C   0  0  2  0  0  0  0  0  0  0  0  0
    5.6732  -15.4557   26.2024 N   0  0  0  0  0  0  0  0  0  0  0  0
    7.3444  -15.6193   24.5270 C   0  0  0  0  0  0  0  0  0  0  0  0
    7.7135  -16.7559   24.9873 O   0  0  0  0  0  0  0  0  0  0  0  0
    7.7739  -15.3283   23.1975 N   0  0  0  0  0  0  0  0  0  0  0  0
    7.4094  -14.0524   22.5583 C   0  0  0  0  0  0  0  0  0  0  0  0
    7.9924  -14.0772   21.1742 C   0  0  0  0  0  0  0  0  0  0  0  0
    8.1352  -15.5410   20.9167 C   0  0  0  0  0  0  0  0  0  0  0  0
    8.5794  -16.0533   22.2706 C   0  0  1  0  0  0  0  0  0  0  0  0
   10.0341  -15.8335   22.4822 C   0  0  0  0  0  0  0  0  0  0  0  0
   10.3924  -14.6823   22.8289 O   0  0  0  0  0  0  0  0  0  0  0  0
   11.0120  -16.8293   22.3174 N   0  0  0  0  0  0  0  0  0  0  0  0
   12.1529  -16.9471   23.2382 C   0  0  1  0  0  0  0  0  0  0  0  0
   11.8223  -17.9829   24.2596 C   0  0  0  0  0  0  0  0  0  0  0  0
   12.8854  -18.2754   25.2588 C   0  0  0  0  0  0  0  0  0  0  0  0
   12.3672  -19.2349   26.2585 C   0  0  0  0  0  0  0  0  0  0  0  0
   11.7260  -18.8197   27.2490 O   0  0  0  0  0  0  0  0  0  0  0  0
   13.3762  -17.2182   22.4614 C   0  0  0  0  0  0  0  0  0  0  0  0
   13.3262  -17.7483   21.1787 O   0  0  0  0  0  0  0  0  0  0  0  0
   12.5859  -20.5896   26.1070 O   0  0  0  0  0  0  0  0  0  0  0  0
   14.4902  -16.9623   22.9769 O   0  0  0  0  0  0  0  0  0  0  0  0
  2  1  1  0
  2  3  1  0
  3  5  1  0
  3  4  1  6
  5  6  1  1
  7  5  1  0
  7  8  2  0
  9 13  1  0
  9  7  1  0
 10 11  1  0
 10  9  1  0
 11 12  1  0
 13 12  1  0
 13 14  1  1
 15 14  2  0
 16 14  1  0
 17 16  1  0
 17 18  1  1
 19 18  1  0
 20 19  1  0
 21 20  2  0
 22 17  1  0
 22 23  1  0
 24 20  1  0
 25 22  2  0
M  END
$$$$
