IPE.pdb
     RDKit          3D

 25 25  0  0  1  0  0  0  0  0999 V2000
    6.7305  -16.5478   20.3640 C   0  0  0  0  0  0  0  0  0  0  0  0
    7.6920  -15.4221   20.7433 C   0  0  0  0  0  0  0  0  0  0  0  0
    6.9526  -14.1596   20.9673 C   0  0  2  0  0  0  0  0  0  0  0  0
    6.1410  -13.7630   19.7522 C   0  0  0  0  0  0  0  0  0  0  0  0
    7.7949  -13.0589   21.4980 C   0  0  2  0  0  0  0  0  0  0  0  0
    8.7445  -12.5832   20.4938 N   0  0  0  0  0  0  0  0  0  0  0  0
    8.5100  -13.2912   22.7456 C   0  0  0  0  0  0  0  0  0  0  0  0
    9.7819  -13.4352   22.7855 O   0  0  0  0  0  0  0  0  0  0  0  0
    7.8444  -13.3732   24.0053 N   0  0  0  0  0  0  0  0  0  0  0  0
    6.3791  -13.2477   24.0844 C   0  0  0  0  0  0  0  0  0  0  0  0
    6.0112  -13.3545   25.5368 C   0  0  0  0  0  0  0  0  0  0  0  0
    7.2797  -12.9547   26.2153 C   0  0  0  0  0  0  0  0  0  0  0  0
    8.3237  -13.6007   25.3290 C   0  0  1  0  0  0  0  0  0  0  0  0
    8.4796  -15.0456   25.6407 C   0  0  0  0  0  0  0  0  0  0  0  0
    7.5686  -15.8148   25.2503 O   0  0  0  0  0  0  0  0  0  0  0  0
    9.5740  -15.5862   26.3372 N   0  0  0  0  0  0  0  0  0  0  0  0
    9.8655  -17.0277   26.3128 C   0  0  1  0  0  0  0  0  0  0  0  0
   11.1611  -17.2290   25.6012 C   0  0  0  0  0  0  0  0  0  0  0  0
   11.6580  -18.6301   25.5362 C   0  0  0  0  0  0  0  0  0  0  0  0
   12.9320  -18.6635   24.7850 C   0  0  0  0  0  0  0  0  0  0  0  0
   13.9634  -19.1216   25.3245 O   0  0  0  0  0  0  0  0  0  0  0  0
    9.8330  -17.5518   27.6904 C   0  0  0  0  0  0  0  0  0  0  0  0
    9.7683  -18.9139   27.9538 O   0  0  0  0  0  0  0  0  0  0  0  0
   12.9927  -18.1917   23.4889 O   0  0  0  0  0  0  0  0  0  0  0  0
    9.8642  -16.7423   28.6474 O   0  0  0  0  0  0  0  0  0  0  0  0
  2  1  1  0
  2  3  1  0
  3  5  1  0
  3  4  1  6
  5  6  1  6
  7  5  1  0
  7  8  2  0
  9 13  1  0
  9  7  1  0
 10 11  1  0
 10  9  1  0
 11 12  1  0
 13 12  1  0
 13 14  1  1
 15 14  2  0
 16 14  1  0
 17 16  1  0
 17 18  1  1
 19 18  1  0
 20 19  1  0
 21 20  2  0
 22 17  1  0
 22 23  1  0
 24 20  1  0
 25 22  2  0
M  END
$$$$
