IPE.pdb
     RDKit          3D

 25 25  0  0  1  0  0  0  0  0999 V2000
    7.1508  -14.9094   17.7319 C   0  0  0  0  0  0  0  0  0  0  0  0
    7.5800  -13.7336   18.6087 C   0  0  0  0  0  0  0  0  0  0  0  0
    7.9184  -14.1980   19.9728 C   0  0  2  0  0  0  0  0  0  0  0  0
    6.7918  -15.0026   20.5858 C   0  0  0  0  0  0  0  0  0  0  0  0
    8.4267  -13.1238   20.8618 C   0  0  2  0  0  0  0  0  0  0  0  0
    9.4057  -12.2830   20.1752 N   0  0  0  0  0  0  0  0  0  0  0  0
    8.9696  -13.5127   22.1562 C   0  0  0  0  0  0  0  0  0  0  0  0
   10.1771  -13.9157   22.2957 O   0  0  0  0  0  0  0  0  0  0  0  0
    8.1956  -13.4707   23.3545 N   0  0  0  0  0  0  0  0  0  0  0  0
    6.8064  -12.9822   23.3286 C   0  0  0  0  0  0  0  0  0  0  0  0
    6.2963  -13.0465   24.7399 C   0  0  0  0  0  0  0  0  0  0  0  0
    7.5592  -13.0056   25.5355 C   0  0  0  0  0  0  0  0  0  0  0  0
    8.4840  -13.8610   24.6954 C   0  0  1  0  0  0  0  0  0  0  0  0
    8.2477  -15.3090   24.9335 C   0  0  0  0  0  0  0  0  0  0  0  0
    7.4511  -15.8917   24.1590 O   0  0  0  0  0  0  0  0  0  0  0  0
    8.8584  -16.0468   25.9619 N   0  0  0  0  0  0  0  0  0  0  0  0
    9.5872  -17.2942   25.6857 C   0  0  1  0  0  0  0  0  0  0  0  0
   10.6701  -16.9936   24.7045 C   0  0  0  0  0  0  0  0  0  0  0  0
   11.5914  -18.1179   24.3862 C   0  0  0  0  0  0  0  0  0  0  0  0
   12.6228  -17.6512   23.4339 C   0  0  0  0  0  0  0  0  0  0  0  0
   13.7870  -17.4285   23.8337 O   0  0  0  0  0  0  0  0  0  0  0  0
   10.0541  -17.8743   26.9580 C   0  0  0  0  0  0  0  0  0  0  0  0
   10.1040  -19.2472   27.1616 O   0  0  0  0  0  0  0  0  0  0  0  0
   12.3104  -17.4586   22.1030 O   0  0  0  0  0  0  0  0  0  0  0  0
   10.4146  -17.1036   27.8790 O   0  0  0  0  0  0  0  0  0  0  0  0
  2  1  1  0
  2  3  1  0
  3  5  1  0
  3  4  1  1
  5  6  1  6
  7  5  1  0
  7  8  2  0
  9 13  1  0
  9  7  1  0
 10 11  1  0
 10  9  1  0
 11 12  1  0
 13 12  1  0
 13 14  1  6
 15 14  2  0
 16 14  1  0
 17 16  1  0
 17 18  1  6
 19 18  1  0
 20 19  1  0
 21 20  2  0
 22 17  1  0
 22 23  1  0
 24 20  1  0
 25 22  2  0
M  END
$$$$
