IPE.pdb
     RDKit          3D

 25 25  0  0  1  0  0  0  0  0999 V2000
    8.4138  -12.4155   27.0582 C   0  0  0  0  0  0  0  0  0  0  0  0
    7.8704  -13.8170   26.7820 C   0  0  0  0  0  0  0  0  0  0  0  0
    6.7021  -13.7527   25.8754 C   0  0  2  0  0  0  0  0  0  0  0  0
    5.5889  -12.9066   26.4560 C   0  0  0  0  0  0  0  0  0  0  0  0
    6.2440  -15.0800   25.3947 C   0  0  2  0  0  0  0  0  0  0  0  0
    5.8158  -15.9296   26.5044 N   0  0  0  0  0  0  0  0  0  0  0  0
    7.1458  -15.8426   24.5422 C   0  0  0  0  0  0  0  0  0  0  0  0
    7.5759  -17.0032   24.8709 O   0  0  0  0  0  0  0  0  0  0  0  0
    7.6101  -15.3506   23.2856 N   0  0  0  0  0  0  0  0  0  0  0  0
    7.1980  -14.0201   22.8071 C   0  0  0  0  0  0  0  0  0  0  0  0
    7.8358  -13.8250   21.4613 C   0  0  0  0  0  0  0  0  0  0  0  0
    8.0732  -15.2304   21.0165 C   0  0  0  0  0  0  0  0  0  0  0  0
    8.4922  -15.8992   22.3087 C   0  0  1  0  0  0  0  0  0  0  0  0
    9.9222  -15.6351   22.6163 C   0  0  0  0  0  0  0  0  0  0  0  0
   10.2406  -14.4493   22.8742 O   0  0  0  0  0  0  0  0  0  0  0  0
   10.9190  -16.6258   22.6332 N   0  0  0  0  0  0  0  0  0  0  0  0
   12.2324  -16.3853   23.2500 C   0  0  1  0  0  0  0  0  0  0  0  0
   12.2721  -17.1042   24.5566 C   0  0  0  0  0  0  0  0  0  0  0  0
   11.6090  -18.4359   24.5880 C   0  0  0  0  0  0  0  0  0  0  0  0
   11.8048  -19.0491   25.9200 C   0  0  0  0  0  0  0  0  0  0  0  0
   12.8035  -18.7427   26.6080 O   0  0  0  0  0  0  0  0  0  0  0  0
   13.2916  -16.7751   22.3016 C   0  0  0  0  0  0  0  0  0  0  0  0
   12.9992  -17.3807   21.0864 O   0  0  0  0  0  0  0  0  0  0  0  0
   10.8913  -19.9600   26.4120 O   0  0  0  0  0  0  0  0  0  0  0  0
   14.4878  -16.5523   22.6044 O   0  0  0  0  0  0  0  0  0  0  0  0
  2  1  1  0
  2  3  1  0
  3  5  1  0
  3  4  1  1
  5  6  1  1
  7  5  1  0
  7  8  2  0
  9 13  1  0
  9  7  1  0
 10 11  1  0
 10  9  1  0
 11 12  1  0
 13 12  1  0
 13 14  1  1
 15 14  2  0
 16 14  1  0
 17 16  1  0
 17 18  1  1
 19 18  1  0
 20 19  1  0
 21 20  2  0
 22 17  1  0
 22 23  1  0
 24 20  1  0
 25 22  2  0
M  END
$$$$
