IPE.pdb
     RDKit          3D

 25 25  0  0  1  0  0  0  0  0999 V2000
    6.7481  -14.1634   18.3902 C   0  0  0  0  0  0  0  0  0  0  0  0
    7.6714  -13.3432   19.2905 C   0  0  0  0  0  0  0  0  0  0  0  0
    7.8115  -13.9866   20.6161 C   0  0  2  0  0  0  0  0  0  0  0  0
    6.4641  -14.2843   21.2391 C   0  0  0  0  0  0  0  0  0  0  0  0
    8.7396  -13.2762   21.5309 C   0  0  2  0  0  0  0  0  0  0  0  0
    9.9791  -12.9062   20.8501 N   0  0  0  0  0  0  0  0  0  0  0  0
    9.0735  -13.9193   22.7944 C   0  0  0  0  0  0  0  0  0  0  0  0
   10.1025  -14.6702   22.9260 O   0  0  0  0  0  0  0  0  0  0  0  0
    8.2797  -13.7566   23.9692 N   0  0  0  0  0  0  0  0  0  0  0  0
    6.9872  -13.0535   23.9047 C   0  0  0  0  0  0  0  0  0  0  0  0
    6.4303  -13.0380   25.2996 C   0  0  0  0  0  0  0  0  0  0  0  0
    7.6587  -13.1996   26.1329 C   0  0  0  0  0  0  0  0  0  0  0  0
    8.4612  -14.1898   25.3156 C   0  0  1  0  0  0  0  0  0  0  0  0
    7.9906  -15.5822   25.5372 C   0  0  0  0  0  0  0  0  0  0  0  0
    7.1303  -16.0271   24.7399 O   0  0  0  0  0  0  0  0  0  0  0  0
    8.4503  -16.4120   26.5742 N   0  0  0  0  0  0  0  0  0  0  0  0
    9.2482  -17.6166   26.2993 C   0  0  1  0  0  0  0  0  0  0  0  0
   10.3102  -17.2575   25.3151 C   0  0  0  0  0  0  0  0  0  0  0  0
   11.3355  -18.3034   25.0521 C   0  0  0  0  0  0  0  0  0  0  0  0
   11.1828  -18.8015   23.6675 C   0  0  0  0  0  0  0  0  0  0  0  0
   10.3426  -18.2765   22.9039 O   0  0  0  0  0  0  0  0  0  0  0  0
    9.7500  -18.1661   27.5720 C   0  0  0  0  0  0  0  0  0  0  0  0
   10.2984  -17.3523   28.5548 O   0  0  0  0  0  0  0  0  0  0  0  0
   11.9625  -19.8447   23.2093 O   0  0  0  0  0  0  0  0  0  0  0  0
    9.6782  -19.4024   27.7682 O   0  0  0  0  0  0  0  0  0  0  0  0
  2  1  1  0
  2  3  1  0
  3  5  1  0
  3  4  1  1
  5  6  1  6
  7  5  1  0
  7  8  2  0
  9 13  1  0
  9  7  1  0
 10 11  1  0
 10  9  1  0
 11 12  1  0
 13 12  1  0
 13 14  1  6
 15 14  2  0
 16 14  1  0
 17 16  1  0
 17 18  1  6
 19 18  1  0
 20 19  1  0
 21 20  2  0
 22 17  1  0
 22 23  1  0
 24 20  1  0
 25 22  2  0
M  END
$$$$
