IPE.pdb
     RDKit          3D

 25 25  0  0  1  0  0  0  0  0999 V2000
    7.9011  -11.4186   27.5430 C   0  0  0  0  0  0  0  0  0  0  0  0
    6.8713  -12.1789   26.7081 C   0  0  0  0  0  0  0  0  0  0  0  0
    7.4958  -13.3492   26.0512 C   0  0  2  0  0  0  0  0  0  0  0  0
    8.7480  -12.9633   25.2927 C   0  0  0  0  0  0  0  0  0  0  0  0
    6.5477  -14.1615   25.2489 C   0  0  2  0  0  0  0  0  0  0  0  0
    5.3762  -14.5439   26.0351 N   0  0  0  0  0  0  0  0  0  0  0  0
    7.0666  -15.3448   24.5764 C   0  0  0  0  0  0  0  0  0  0  0  0
    7.0236  -16.5072   25.1121 O   0  0  0  0  0  0  0  0  0  0  0  0
    7.6562  -15.2903   23.2779 N   0  0  0  0  0  0  0  0  0  0  0  0
    8.0933  -14.0033   22.7105 C   0  0  0  0  0  0  0  0  0  0  0  0
    8.6388  -14.2942   21.3416 C   0  0  0  0  0  0  0  0  0  0  0  0
    7.9617  -15.5798   20.9974 C   0  0  0  0  0  0  0  0  0  0  0  0
    7.9747  -16.3041   22.3270 C   0  0  1  0  0  0  0  0  0  0  0  0
    9.2942  -16.9374   22.5858 C   0  0  0  0  0  0  0  0  0  0  0  0
    9.6748  -17.8147   21.7738 O   0  0  0  0  0  0  0  0  0  0  0  0
   10.1233  -16.6113   23.6727 N   0  0  0  0  0  0  0  0  0  0  0  0
   11.4181  -17.2777   23.8798 C   0  0  1  0  0  0  0  0  0  0  0  0
   12.4265  -16.6210   22.9981 C   0  0  0  0  0  0  0  0  0  0  0  0
   13.2436  -15.5491   23.6286 C   0  0  0  0  0  0  0  0  0  0  0  0
   14.5846  -15.5244   23.0044 C   0  0  0  0  0  0  0  0  0  0  0  0
   14.9418  -16.4596   22.2545 O   0  0  0  0  0  0  0  0  0  0  0  0
   11.7500  -17.2555   25.3161 C   0  0  0  0  0  0  0  0  0  0  0  0
   11.0237  -16.4951   26.2233 O   0  0  0  0  0  0  0  0  0  0  0  0
   15.4484  -14.4742   23.2434 O   0  0  0  0  0  0  0  0  0  0  0  0
   12.7154  -17.9430   25.7253 O   0  0  0  0  0  0  0  0  0  0  0  0
  2  1  1  0
  2  3  1  0
  3  5  1  0
  3  4  1  6
  5  6  1  1
  7  5  1  0
  7  8  2  0
  9 13  1  0
  9  7  1  0
 10 11  1  0
 10  9  1  0
 11 12  1  0
 13 12  1  0
 13 14  1  1
 15 14  2  0
 16 14  1  0
 17 16  1  0
 17 18  1  6
 19 18  1  0
 20 19  1  0
 21 20  2  0
 22 17  1  0
 22 23  1  0
 24 20  1  0
 25 22  2  0
M  END
$$$$
