IPE.pdb
     RDKit          3D

 25 25  0  0  1  0  0  0  0  0999 V2000
    6.8454  -11.6299   27.6575 C   0  0  0  0  0  0  0  0  0  0  0  0
    6.0693  -12.5826   26.7488 C   0  0  0  0  0  0  0  0  0  0  0  0
    6.9956  -13.4840   26.0275 C   0  0  2  0  0  0  0  0  0  0  0  0
    8.0082  -12.7093   25.2111 C   0  0  0  0  0  0  0  0  0  0  0  0
    6.3120  -14.5531   25.2578 C   0  0  2  0  0  0  0  0  0  0  0  0
    5.3628  -15.2868   26.0929 N   0  0  0  0  0  0  0  0  0  0  0  0
    7.1422  -15.5110   24.5403 C   0  0  0  0  0  0  0  0  0  0  0  0
    7.4265  -16.6626   25.0231 O   0  0  0  0  0  0  0  0  0  0  0  0
    7.6935  -15.2332   23.2536 N   0  0  0  0  0  0  0  0  0  0  0  0
    7.4714  -13.9255   22.6134 C   0  0  0  0  0  0  0  0  0  0  0  0
    8.1571  -13.9730   21.2779 C   0  0  0  0  0  0  0  0  0  0  0  0
    8.2153  -15.4395   21.0036 C   0  0  0  0  0  0  0  0  0  0  0  0
    8.5152  -16.0015   22.3772 C   0  0  1  0  0  0  0  0  0  0  0  0
    9.9609  -15.8904   22.7040 C   0  0  0  0  0  0  0  0  0  0  0  0
   10.3749  -14.7691   23.0852 O   0  0  0  0  0  0  0  0  0  0  0  0
   10.8724  -16.9560   22.6104 N   0  0  0  0  0  0  0  0  0  0  0  0
   12.0879  -17.0036   23.4373 C   0  0  1  0  0  0  0  0  0  0  0  0
   12.0518  -18.2560   24.2471 C   0  0  0  0  0  0  0  0  0  0  0  0
   13.2435  -18.5154   25.0995 C   0  0  0  0  0  0  0  0  0  0  0  0
   12.8126  -19.1544   26.3623 C   0  0  0  0  0  0  0  0  0  0  0  0
   11.6367  -19.5623   26.4863 O   0  0  0  0  0  0  0  0  0  0  0  0
   13.2708  -16.8677   22.5679 C   0  0  0  0  0  0  0  0  0  0  0  0
   14.5135  -16.5095   23.0738 O   0  0  0  0  0  0  0  0  0  0  0  0
   13.7004  -19.3049   27.4087 O   0  0  0  0  0  0  0  0  0  0  0  0
   13.1468  -17.0818   21.3386 O   0  0  0  0  0  0  0  0  0  0  0  0
  2  1  1  0
  2  3  1  0
  3  5  1  0
  3  4  1  6
  5  6  1  1
  7  5  1  0
  7  8  2  0
  9 13  1  0
  9  7  1  0
 10 11  1  0
 10  9  1  0
 11 12  1  0
 13 12  1  0
 13 14  1  1
 15 14  2  0
 16 14  1  0
 17 16  1  0
 17 18  1  6
 19 18  1  0
 20 19  1  0
 21 20  2  0
 22 17  1  0
 22 23  1  0
 24 20  1  0
 25 22  2  0
M  END
$$$$
