IPE.pdb
     RDKit          3D

 25 25  0  0  1  0  0  0  0  0999 V2000
    8.8869  -12.3277   26.9906 C   0  0  0  0  0  0  0  0  0  0  0  0
    7.9811  -13.5272   26.7145 C   0  0  0  0  0  0  0  0  0  0  0  0
    6.9216  -13.1670   25.7456 C   0  0  2  0  0  0  0  0  0  0  0  0
    6.0528  -12.0388   26.2599 C   0  0  0  0  0  0  0  0  0  0  0  0
    6.1445  -14.3297   25.2489 C   0  0  2  0  0  0  0  0  0  0  0  0
    5.4395  -15.0035   26.3379 N   0  0  0  0  0  0  0  0  0  0  0  0
    6.8483  -15.3298   24.4576 C   0  0  0  0  0  0  0  0  0  0  0  0
    6.9265  -16.5552   24.8211 O   0  0  0  0  0  0  0  0  0  0  0  0
    7.4966  -15.0137   23.2261 N   0  0  0  0  0  0  0  0  0  0  0  0
    7.4488  -13.6435   22.6881 C   0  0  0  0  0  0  0  0  0  0  0  0
    8.1992  -13.6605   21.3871 C   0  0  0  0  0  0  0  0  0  0  0  0
    8.1187  -15.0987   20.9937 C   0  0  0  0  0  0  0  0  0  0  0  0
    8.2809  -15.7958   22.3280 C   0  0  1  0  0  0  0  0  0  0  0  0
    9.7098  -15.8689   22.7306 C   0  0  0  0  0  0  0  0  0  0  0  0
   10.2049  -14.8470   23.2641 O   0  0  0  0  0  0  0  0  0  0  0  0
   10.5212  -17.0018   22.5487 N   0  0  0  0  0  0  0  0  0  0  0  0
   11.6467  -17.2949   23.4491 C   0  0  1  0  0  0  0  0  0  0  0  0
   11.3345  -18.5505   24.1918 C   0  0  0  0  0  0  0  0  0  0  0  0
   12.3984  -19.0492   25.1047 C   0  0  0  0  0  0  0  0  0  0  0  0
   11.7983  -19.3998   26.4107 C   0  0  0  0  0  0  0  0  0  0  0  0
   10.7122  -20.0190   26.4529 O   0  0  0  0  0  0  0  0  0  0  0  0
   12.8950  -17.3381   22.6659 C   0  0  0  0  0  0  0  0  0  0  0  0
   14.1351  -17.1236   23.2532 O   0  0  0  0  0  0  0  0  0  0  0  0
   12.4288  -19.0483   27.5874 O   0  0  0  0  0  0  0  0  0  0  0  0
   12.8307  -17.5749   21.4363 O   0  0  0  0  0  0  0  0  0  0  0  0
  2  1  1  0
  2  3  1  0
  3  5  1  0
  3  4  1  1
  5  6  1  1
  7  5  1  0
  7  8  2  0
  9 13  1  0
  9  7  1  0
 10 11  1  0
 10  9  1  0
 11 12  1  0
 13 12  1  0
 13 14  1  1
 15 14  2  0
 16 14  1  0
 17 16  1  0
 17 18  1  6
 19 18  1  0
 20 19  1  0
 21 20  2  0
 22 17  1  0
 22 23  1  0
 24 20  1  0
 25 22  2  0
M  END
$$$$
