CQS.pdb
     RDKit          3D

 22 21  0  0  1  0  0  0  0  0999 V2000
    7.9680  -14.9066   17.9658 N   0  0  0  0  0  0  0  0  0  0  0  0
    8.9530  -13.9978   18.5438 C   0  0  1  0  0  0  0  0  0  0  0  0
    8.3849  -13.4162   19.8311 C   0  0  0  0  0  0  0  0  0  0  0  0
    6.9587  -12.3908   19.3909 S   0  0  0  0  0  0  0  0  0  0  0  0
   10.1930  -14.7309   18.8489 C   0  0  0  0  0  0  0  0  0  0  0  0
   10.1077  -15.9622   19.1073 O   0  0  0  0  0  0  0  0  0  0  0  0
   15.7172  -13.2732   16.6038 N   0  0  0  0  0  0  0  0  0  0  0  0
   16.0862  -14.3232   17.4825 C   0  0  0  0  0  0  0  0  0  0  0  0
   17.2883  -14.7035   17.5245 O   0  0  0  0  0  0  0  0  0  0  0  0
   15.0551  -14.9497   18.3305 C   0  0  0  0  0  0  0  0  0  0  0  0
   13.7646  -14.1517   18.2041 C   0  0  0  0  0  0  0  0  0  0  0  0
   12.6727  -14.7799   19.0596 C   0  0  2  0  0  0  0  0  0  0  0  0
   11.4469  -14.0778   18.8534 N   0  0  0  0  0  0  0  0  0  0  0  0
   13.1436  -14.7737   20.4462 C   0  0  0  0  0  0  0  0  0  0  0  0
   13.3236  -13.6636   21.0045 O   0  0  0  0  0  0  0  0  0  0  0  0
   11.7846  -16.7663   23.4409 O   0  0  0  0  0  0  0  0  0  0  0  0
   13.1716  -16.9006   23.4633 C   0  0  0  0  0  0  0  0  0  0  0  0
   13.8026  -15.8293   22.5948 C   0  0  2  0  0  0  0  0  0  0  0  0
   13.4174  -15.9333   21.2227 N   0  0  0  0  0  0  0  0  0  0  0  0
   15.2752  -15.8621   22.7867 C   0  0  0  0  0  0  0  0  0  0  0  0
   15.7436  -15.5723   24.0699 O   0  0  0  0  0  0  0  0  0  0  0  0
   16.0803  -16.1320   21.8655 O   0  0  0  0  0  0  0  0  0  0  0  0
  2  1  1  1
  2  3  1  0
  3  4  1  0
  5  2  1  0
  5 13  1  0
  6  5  2  0
  7  8  1  0
  8 10  1  0
  8  9  2  0
 10 11  1  0
 12 11  1  6
 12 13  1  0
 12 14  1  0
 14 15  2  0
 14 19  1  0
 16 17  1  0
 18 17  1  1
 18 20  1  0
 19 18  1  0
 20 21  1  0
 22 20  2  0
M  END
$$$$
