CQS.pdb
     RDKit          3D

 22 21  0  0  1  0  0  0  0  0999 V2000
    7.6622  -14.0620   16.8727 N   0  0  0  0  0  0  0  0  0  0  0  0
    8.3743  -13.5471   18.0381 C   0  0  1  0  0  0  0  0  0  0  0  0
    7.3998  -13.4536   19.2042 C   0  0  0  0  0  0  0  0  0  0  0  0
    8.3422  -12.9711   20.6733 S   0  0  0  0  0  0  0  0  0  0  0  0
    9.4736  -14.4587   18.3968 C   0  0  0  0  0  0  0  0  0  0  0  0
    9.2741  -15.6998   18.2955 O   0  0  0  0  0  0  0  0  0  0  0  0
   15.4237  -13.5591   17.5068 N   0  0  0  0  0  0  0  0  0  0  0  0
   15.4921  -14.6523   18.4073 C   0  0  0  0  0  0  0  0  0  0  0  0
   16.6188  -15.1091   18.7442 O   0  0  0  0  0  0  0  0  0  0  0  0
   14.2426  -15.2335   18.9322 C   0  0  0  0  0  0  0  0  0  0  0  0
   13.1069  -14.2462   18.7003 C   0  0  0  0  0  0  0  0  0  0  0  0
   11.7956  -14.8235   19.2160 C   0  0  2  0  0  0  0  0  0  0  0  0
   10.7199  -13.9622   18.8429 N   0  0  0  0  0  0  0  0  0  0  0  0
   11.9388  -15.0159   20.6606 C   0  0  0  0  0  0  0  0  0  0  0  0
   12.2653  -14.0252   21.3595 O   0  0  0  0  0  0  0  0  0  0  0  0
   10.7551  -18.4387   22.6355 O   0  0  0  0  0  0  0  0  0  0  0  0
   10.8107  -17.2606   23.3782 C   0  0  0  0  0  0  0  0  0  0  0  0
   11.8346  -16.3214   22.7700 C   0  0  2  0  0  0  0  0  0  0  0  0
   11.7368  -16.2453   21.3465 N   0  0  0  0  0  0  0  0  0  0  0  0
   13.1873  -16.7195   23.2369 C   0  0  0  0  0  0  0  0  0  0  0  0
   13.4326  -16.6068   24.6070 O   0  0  0  0  0  0  0  0  0  0  0  0
   14.0823  -17.1382   22.4664 O   0  0  0  0  0  0  0  0  0  0  0  0
  2  1  1  6
  2  3  1  0
  3  4  1  0
  5  2  1  0
  5 13  1  0
  6  5  2  0
  7  8  1  0
  8 10  1  0
  8  9  2  0
 10 11  1  0
 12 11  1  1
 12 13  1  0
 12 14  1  0
 14 15  2  0
 14 19  1  0
 16 17  1  0
 18 17  1  6
 18 20  1  0
 19 18  1  0
 20 21  1  0
 22 20  2  0
M  END
$$$$
