CQS.pdb
     RDKit          3D

 22 21  0  0  1  0  0  0  0  0999 V2000
    7.8627  -14.5475   17.4005 N   0  0  0  0  0  0  0  0  0  0  0  0
    8.7328  -13.7562   18.2649 C   0  0  1  0  0  0  0  0  0  0  0  0
    7.9328  -13.2994   19.4771 C   0  0  0  0  0  0  0  0  0  0  0  0
    6.7085  -12.0929   18.9073 S   0  0  0  0  0  0  0  0  0  0  0  0
    9.8706  -14.5752   18.7155 C   0  0  0  0  0  0  0  0  0  0  0  0
    9.6699  -15.7997   18.9404 O   0  0  0  0  0  0  0  0  0  0  0  0
   16.4986  -15.3576   17.3715 N   0  0  0  0  0  0  0  0  0  0  0  0
   15.9260  -14.4969   18.3421 C   0  0  0  0  0  0  0  0  0  0  0  0
   16.4121  -13.3456   18.5144 O   0  0  0  0  0  0  0  0  0  0  0  0
   14.7722  -14.9664   19.1313 C   0  0  0  0  0  0  0  0  0  0  0  0
   13.5568  -14.1219   18.7734 C   0  0  0  0  0  0  0  0  0  0  0  0
   12.2855  -14.7904   19.2793 C   0  0  2  0  0  0  0  0  0  0  0  0
   11.1543  -14.0099   18.8928 N   0  0  0  0  0  0  0  0  0  0  0  0
   12.4284  -14.9672   20.7259 C   0  0  0  0  0  0  0  0  0  0  0  0
   12.3069  -13.9558   21.4600 O   0  0  0  0  0  0  0  0  0  0  0  0
   11.2819  -17.4480   24.5070 O   0  0  0  0  0  0  0  0  0  0  0  0
   11.3476  -17.2684   23.1264 C   0  0  0  0  0  0  0  0  0  0  0  0
   12.5069  -16.3521   22.7852 C   0  0  2  0  0  0  0  0  0  0  0  0
   12.6965  -16.2029   21.3768 N   0  0  0  0  0  0  0  0  0  0  0  0
   13.7239  -16.8376   23.4849 C   0  0  0  0  0  0  0  0  0  0  0  0
   13.6632  -16.8890   24.8790 O   0  0  0  0  0  0  0  0  0  0  0  0
   14.7654  -17.1896   22.8837 O   0  0  0  0  0  0  0  0  0  0  0  0
  2  1  1  6
  2  3  1  0
  3  4  1  0
  5  2  1  0
  5 13  1  0
  6  5  2  0
  7  8  1  0
  8 10  1  0
  8  9  2  0
 10 11  1  0
 12 11  1  1
 12 13  1  0
 12 14  1  0
 14 15  2  0
 14 19  1  0
 16 17  1  0
 18 17  1  6
 18 20  1  0
 19 18  1  0
 20 21  1  0
 22 20  2  0
M  END
$$$$
