CQS.pdb
     RDKit          3D

 22 21  0  0  1  0  0  0  0  0999 V2000
    8.6358  -12.6935   19.0345 N   0  0  0  0  0  0  0  0  0  0  0  0
    7.8325  -13.5929   19.8568 C   0  0  1  0  0  0  0  0  0  0  0  0
    7.8341  -14.9737   19.2155 C   0  0  0  0  0  0  0  0  0  0  0  0
    6.6963  -14.9293   17.8075 S   0  0  0  0  0  0  0  0  0  0  0  0
    8.4093  -13.6855   21.2085 C   0  0  0  0  0  0  0  0  0  0  0  0
    9.6632  -13.7657   21.3158 O   0  0  0  0  0  0  0  0  0  0  0  0
    5.4899  -12.2271   26.5352 N   0  0  0  0  0  0  0  0  0  0  0  0
    6.6974  -12.7790   27.0333 C   0  0  0  0  0  0  0  0  0  0  0  0
    6.9531  -12.7010   28.2662 O   0  0  0  0  0  0  0  0  0  0  0  0
    7.6307  -13.4338   26.0980 C   0  0  0  0  0  0  0  0  0  0  0  0
    7.1177  -13.2410   24.6775 C   0  0  0  0  0  0  0  0  0  0  0  0
    8.1153  -13.8092   23.6771 C   0  0  2  0  0  0  0  0  0  0  0  0
    7.5853  -13.6849   22.3573 N   0  0  0  0  0  0  0  0  0  0  0  0
    8.4060  -15.1864   24.0813 C   0  0  0  0  0  0  0  0  0  0  0  0
    7.5160  -16.0545   23.9056 O   0  0  0  0  0  0  0  0  0  0  0  0
   12.1042  -16.8709   24.3100 O   0  0  0  0  0  0  0  0  0  0  0  0
   10.9482  -17.6414   24.1985 C   0  0  0  0  0  0  0  0  0  0  0  0
    9.8294  -17.0023   24.9985 C   0  0  2  0  0  0  0  0  0  0  0  0
    9.6262  -15.6282   24.6631 N   0  0  0  0  0  0  0  0  0  0  0  0
   10.0939  -17.2120   26.4450 C   0  0  0  0  0  0  0  0  0  0  0  0
   10.2483  -18.5346   26.8656 O   0  0  0  0  0  0  0  0  0  0  0  0
   10.1796  -16.2721   27.2692 O   0  0  0  0  0  0  0  0  0  0  0  0
  2  1  1  6
  2  3  1  0
  3  4  1  0
  5  2  1  0
  5 13  1  0
  6  5  2  0
  7  8  1  0
  8 10  1  0
  8  9  2  0
 10 11  1  0
 12 11  1  1
 12 13  1  0
 12 14  1  0
 14 15  2  0
 14 19  1  0
 16 17  1  0
 18 17  1  6
 18 20  1  0
 19 18  1  0
 20 21  1  0
 22 20  2  0
M  END
$$$$
