CQS.pdb
     RDKit          3D

 22 21  0  0  1  0  0  0  0  0999 V2000
    8.2560  -14.0326   16.8870 N   0  0  0  0  0  0  0  0  0  0  0  0
    8.6799  -13.7048   18.2447 C   0  0  1  0  0  0  0  0  0  0  0  0
    7.4749  -13.8031   19.1700 C   0  0  0  0  0  0  0  0  0  0  0  0
    7.4018  -12.2787   20.1446 S   0  0  0  0  0  0  0  0  0  0  0  0
    9.7125  -14.6552   18.6905 C   0  0  0  0  0  0  0  0  0  0  0  0
    9.7583  -15.7869   18.1360 O   0  0  0  0  0  0  0  0  0  0  0  0
   15.3337  -15.6722   19.7816 N   0  0  0  0  0  0  0  0  0  0  0  0
   14.7799  -14.9854   18.6715 C   0  0  0  0  0  0  0  0  0  0  0  0
   15.3963  -14.9865   17.5708 O   0  0  0  0  0  0  0  0  0  0  0  0
   13.4927  -14.2828   18.8271 C   0  0  0  0  0  0  0  0  0  0  0  0
   12.9699  -14.5233   20.2368 C   0  0  0  0  0  0  0  0  0  0  0  0
   11.6204  -15.2266   20.1835 C   0  0  2  0  0  0  0  0  0  0  0  0
   10.6293  -14.3141   19.7113 N   0  0  0  0  0  0  0  0  0  0  0  0
   11.3538  -15.7663   21.5185 C   0  0  0  0  0  0  0  0  0  0  0  0
   11.1747  -14.9545   22.4595 O   0  0  0  0  0  0  0  0  0  0  0  0
    8.9140  -18.4783   22.3983 O   0  0  0  0  0  0  0  0  0  0  0  0
   10.0188  -18.7548   23.2017 C   0  0  0  0  0  0  0  0  0  0  0  0
   10.9791  -17.5814   23.1708 C   0  0  2  0  0  0  0  0  0  0  0  0
   11.2799  -17.1491   21.8424 N   0  0  0  0  0  0  0  0  0  0  0  0
   12.1916  -17.9333   23.9534 C   0  0  0  0  0  0  0  0  0  0  0  0
   11.9831  -18.3756   25.2614 O   0  0  0  0  0  0  0  0  0  0  0  0
   13.3535  -17.8482   23.4922 O   0  0  0  0  0  0  0  0  0  0  0  0
  2  1  1  6
  2  3  1  0
  3  4  1  0
  5  2  1  0
  5 13  1  0
  6  5  2  0
  7  8  1  0
  8 10  1  0
  8  9  2  0
 10 11  1  0
 12 11  1  1
 12 13  1  0
 12 14  1  0
 14 15  2  0
 14 19  1  0
 16 17  1  0
 18 17  1  6
 18 20  1  0
 19 18  1  0
 20 21  1  0
 22 20  2  0
M  END
$$$$
