CQS.pdb
     RDKit          3D

 22 21  0  0  1  0  0  0  0  0999 V2000
    4.8891  -13.2446   26.7475 N   0  0  0  0  0  0  0  0  0  0  0  0
    6.1199  -12.7302   26.1553 C   0  0  1  0  0  0  0  0  0  0  0  0
    7.1297  -12.4803   27.2670 C   0  0  0  0  0  0  0  0  0  0  0  0
    8.6857  -11.9694   26.4944 S   0  0  0  0  0  0  0  0  0  0  0  0
    6.6722  -13.7161   25.2113 C   0  0  0  0  0  0  0  0  0  0  0  0
    6.7469  -14.9187   25.5834 O   0  0  0  0  0  0  0  0  0  0  0  0
    7.9897  -12.5050   19.1962 N   0  0  0  0  0  0  0  0  0  0  0  0
    8.2366  -13.9000   19.2576 C   0  0  0  0  0  0  0  0  0  0  0  0
    8.4701  -14.5362   18.1936 O   0  0  0  0  0  0  0  0  0  0  0  0
    8.2153  -14.5791   20.5664 C   0  0  0  0  0  0  0  0  0  0  0  0
    7.8294  -13.5681   21.6375 C   0  0  0  0  0  0  0  0  0  0  0  0
    7.5810  -14.2759   22.9627 C   0  0  2  0  0  0  0  0  0  0  0  0
    7.1079  -13.3311   23.9226 N   0  0  0  0  0  0  0  0  0  0  0  0
    8.8263  -14.9467   23.3421 C   0  0  0  0  0  0  0  0  0  0  0  0
    9.7348  -14.2552   23.8647 O   0  0  0  0  0  0  0  0  0  0  0  0
   11.3102  -18.8102   24.6877 O   0  0  0  0  0  0  0  0  0  0  0  0
   10.0955  -18.3035   24.2291 C   0  0  0  0  0  0  0  0  0  0  0  0
   10.3056  -16.9163   23.6532 C   0  0  2  0  0  0  0  0  0  0  0  0
    9.0961  -16.3319   23.1661 N   0  0  0  0  0  0  0  0  0  0  0  0
   11.3731  -16.9817   22.6224 C   0  0  0  0  0  0  0  0  0  0  0  0
   12.6509  -17.3252   23.0686 O   0  0  0  0  0  0  0  0  0  0  0  0
   11.1689  -16.7465   21.4088 O   0  0  0  0  0  0  0  0  0  0  0  0
  2  1  1  1
  2  3  1  0
  3  4  1  0
  5  2  1  0
  5 13  1  0
  6  5  2  0
  7  8  1  0
  8 10  1  0
  8  9  2  0
 10 11  1  0
 12 11  1  6
 12 13  1  0
 12 14  1  0
 14 15  2  0
 14 19  1  0
 16 17  1  0
 18 17  1  6
 18 20  1  0
 19 18  1  0
 20 21  1  0
 22 20  2  0
M  END
$$$$
