CQS.pdb
     RDKit          3D

 22 21  0  0  1  0  0  0  0  0999 V2000
   11.9857  -16.1499   14.5502 N   0  0  0  0  0  0  0  0  0  0  0  0
   11.7557  -15.3398   15.7423 C   0  0  1  0  0  0  0  0  0  0  0  0
   10.3935  -15.6976   16.3208 C   0  0  0  0  0  0  0  0  0  0  0  0
   10.4044  -17.4675   16.7037 S   0  0  0  0  0  0  0  0  0  0  0  0
   12.7968  -15.6179   16.7458 C   0  0  0  0  0  0  0  0  0  0  0  0
   13.3328  -16.7593   16.7460 O   0  0  0  0  0  0  0  0  0  0  0  0
   18.3847  -14.1362   18.6613 N   0  0  0  0  0  0  0  0  0  0  0  0
   17.4579  -13.2737   18.0227 C   0  0  0  0  0  0  0  0  0  0  0  0
   17.7553  -12.0595   17.8533 O   0  0  0  0  0  0  0  0  0  0  0  0
   16.1634  -13.8150   17.5690 C   0  0  0  0  0  0  0  0  0  0  0  0
   15.1594  -13.7053   18.7084 C   0  0  0  0  0  0  0  0  0  0  0  0
   14.1919  -14.8806   18.6709 C   0  0  2  0  0  0  0  0  0  0  0  0
   13.1885  -14.6365   17.6851 N   0  0  0  0  0  0  0  0  0  0  0  0
   13.6708  -15.0636   20.0272 C   0  0  0  0  0  0  0  0  0  0  0  0
   12.7982  -14.2599   20.4386 O   0  0  0  0  0  0  0  0  0  0  0  0
   11.9779  -17.9155   21.4628 O   0  0  0  0  0  0  0  0  0  0  0  0
   12.9042  -17.6060   22.4572 C   0  0  0  0  0  0  0  0  0  0  0  0
   13.4690  -16.2195   22.2153 C   0  0  2  0  0  0  0  0  0  0  0  0
   14.0749  -16.0871   20.9280 N   0  0  0  0  0  0  0  0  0  0  0  0
   14.3921  -15.8769   23.3275 C   0  0  0  0  0  0  0  0  0  0  0  0
   15.6974  -15.5317   22.9709 O   0  0  0  0  0  0  0  0  0  0  0  0
   14.0474  -15.8880   24.5320 O   0  0  0  0  0  0  0  0  0  0  0  0
  2  1  1  6
  2  3  1  0
  3  4  1  0
  5  2  1  0
  5 13  1  0
  6  5  2  0
  7  8  1  0
  8 10  1  0
  8  9  2  0
 10 11  1  0
 12 11  1  1
 12 13  1  0
 12 14  1  0
 14 15  2  0
 14 19  1  0
 16 17  1  0
 18 17  1  1
 18 20  1  0
 19 18  1  0
 20 21  1  0
 22 20  2  0
M  END
$$$$
