CQS.pdb
     RDKit          3D

 22 21  0  0  1  0  0  0  0  0999 V2000
    8.2220  -14.5539   17.5500 N   0  0  0  0  0  0  0  0  0  0  0  0
    9.1516  -13.8431   18.4223 C   0  0  1  0  0  0  0  0  0  0  0  0
    8.3813  -13.2994   19.6178 C   0  0  0  0  0  0  0  0  0  0  0  0
    7.4057  -11.8842   19.0482 S   0  0  0  0  0  0  0  0  0  0  0  0
   10.1972  -14.7646   18.8976 C   0  0  0  0  0  0  0  0  0  0  0  0
    9.8776  -15.9647   19.1161 O   0  0  0  0  0  0  0  0  0  0  0  0
   15.8745  -13.2858   17.8339 N   0  0  0  0  0  0  0  0  0  0  0  0
   15.6180  -14.5918   17.3448 C   0  0  0  0  0  0  0  0  0  0  0  0
   16.2714  -15.0235   16.3558 O   0  0  0  0  0  0  0  0  0  0  0  0
   14.5908  -15.4197   18.0037 C   0  0  0  0  0  0  0  0  0  0  0  0
   13.9165  -14.5925   19.0897 C   0  0  0  0  0  0  0  0  0  0  0  0
   12.5782  -15.2131   19.4677 C   0  0  2  0  0  0  0  0  0  0  0  0
   11.5237  -14.3218   19.1050 N   0  0  0  0  0  0  0  0  0  0  0  0
   12.6308  -15.5333   20.8957 C   0  0  0  0  0  0  0  0  0  0  0  0
   12.4804  -14.5962   21.7177 O   0  0  0  0  0  0  0  0  0  0  0  0
   11.8069  -18.4737   24.5332 O   0  0  0  0  0  0  0  0  0  0  0  0
   11.8277  -18.2569   23.1566 C   0  0  0  0  0  0  0  0  0  0  0  0
   12.7245  -17.0757   22.8392 C   0  0  2  0  0  0  0  0  0  0  0  0
   12.8404  -16.8321   21.4360 N   0  0  0  0  0  0  0  0  0  0  0  0
   14.0382  -17.2793   23.5018 C   0  0  0  0  0  0  0  0  0  0  0  0
   14.0286  -17.3542   24.8962 O   0  0  0  0  0  0  0  0  0  0  0  0
   15.1155  -17.3821   22.8703 O   0  0  0  0  0  0  0  0  0  0  0  0
  2  1  1  6
  2  3  1  0
  3  4  1  0
  5  2  1  0
  5 13  1  0
  6  5  2  0
  7  8  1  0
  8 10  1  0
  8  9  2  0
 10 11  1  0
 12 11  1  1
 12 13  1  0
 12 14  1  0
 14 15  2  0
 14 19  1  0
 16 17  1  0
 18 17  1  6
 18 20  1  0
 19 18  1  0
 20 21  1  0
 22 20  2  0
M  END
$$$$
