CQS.pdb
     RDKit          3D

 22 21  0  0  1  0  0  0  0  0999 V2000
    7.7697  -14.1489   17.2420 N   0  0  0  0  0  0  0  0  0  0  0  0
    8.8585  -13.3312   17.7675 C   0  0  1  0  0  0  0  0  0  0  0  0
    8.2749  -12.2885   18.7110 C   0  0  0  0  0  0  0  0  0  0  0  0
    7.4158  -13.1671   20.0410 S   0  0  0  0  0  0  0  0  0  0  0  0
    9.8086  -14.1778   18.5084 C   0  0  0  0  0  0  0  0  0  0  0  0
    9.4125  -15.3061   18.9089 O   0  0  0  0  0  0  0  0  0  0  0  0
   15.8942  -13.4914   17.8219 N   0  0  0  0  0  0  0  0  0  0  0  0
   15.8558  -14.6988   18.5645 C   0  0  0  0  0  0  0  0  0  0  0  0
   16.9177  -15.3592   18.7305 O   0  0  0  0  0  0  0  0  0  0  0  0
   14.5728  -15.1581   19.1282 C   0  0  0  0  0  0  0  0  0  0  0  0
   13.5080  -14.1074   18.8441 C   0  0  0  0  0  0  0  0  0  0  0  0
   12.1378  -14.6210   19.2659 C   0  0  2  0  0  0  0  0  0  0  0  0
   11.1289  -13.7431   18.7663 N   0  0  0  0  0  0  0  0  0  0  0  0
   12.1496  -14.7560   20.7240 C   0  0  0  0  0  0  0  0  0  0  0  0
   12.4738  -13.7542   21.4079 O   0  0  0  0  0  0  0  0  0  0  0  0
   10.1402  -17.6214   22.7950 O   0  0  0  0  0  0  0  0  0  0  0  0
   10.5650  -16.4815   23.4752 C   0  0  0  0  0  0  0  0  0  0  0  0
   11.8590  -15.9762   22.8668 C   0  0  2  0  0  0  0  0  0  0  0  0
   11.8207  -15.9407   21.4388 N   0  0  0  0  0  0  0  0  0  0  0  0
   12.9861  -16.7865   23.3955 C   0  0  0  0  0  0  0  0  0  0  0  0
   13.1855  -16.7509   24.7772 O   0  0  0  0  0  0  0  0  0  0  0  0
   13.7359  -17.4758   22.6658 O   0  0  0  0  0  0  0  0  0  0  0  0
  2  1  1  1
  2  3  1  0
  3  4  1  0
  5  2  1  0
  5 13  1  0
  6  5  2  0
  7  8  1  0
  8 10  1  0
  8  9  2  0
 10 11  1  0
 12 11  1  1
 12 13  1  0
 12 14  1  0
 14 15  2  0
 14 19  1  0
 16 17  1  0
 18 17  1  6
 18 20  1  0
 19 18  1  0
 20 21  1  0
 22 20  2  0
M  END
$$$$
