CQS.pdb
     RDKit          3D

 22 21  0  0  1  0  0  0  0  0999 V2000
    7.1753  -15.5257   19.3563 N   0  0  0  0  0  0  0  0  0  0  0  0
    7.8626  -14.7737   20.4015 C   0  0  1  0  0  0  0  0  0  0  0  0
    7.6335  -13.2872   20.1651 C   0  0  0  0  0  0  0  0  0  0  0  0
    8.5991  -12.8046   18.7112 S   0  0  0  0  0  0  0  0  0  0  0  0
    7.3243  -15.1434   21.7213 C   0  0  0  0  0  0  0  0  0  0  0  0
    6.1711  -15.6511   21.7722 O   0  0  0  0  0  0  0  0  0  0  0  0
    7.6703  -19.6414   24.1917 N   0  0  0  0  0  0  0  0  0  0  0  0
    7.1923  -19.0124   25.3692 C   0  0  0  0  0  0  0  0  0  0  0  0
    6.7598  -19.7208   26.3192 O   0  0  0  0  0  0  0  0  0  0  0  0
    7.2107  -17.5406   25.4588 C   0  0  0  0  0  0  0  0  0  0  0  0
    7.6450  -16.9727   24.1145 C   0  0  0  0  0  0  0  0  0  0  0  0
    7.6623  -15.4509   24.1681 C   0  0  2  0  0  0  0  0  0  0  0  0
    8.0748  -14.9372   22.9016 N   0  0  0  0  0  0  0  0  0  0  0  0
    8.5251  -15.0610   25.2853 C   0  0  0  0  0  0  0  0  0  0  0  0
    9.7129  -15.4680   25.2850 O   0  0  0  0  0  0  0  0  0  0  0  0
    7.3786  -12.2015   27.6867 O   0  0  0  0  0  0  0  0  0  0  0  0
    8.5777  -12.6796   28.2122 C   0  0  0  0  0  0  0  0  0  0  0  0
    9.0602  -13.8602   27.3916 C   0  0  2  0  0  0  0  0  0  0  0  0
    8.1257  -14.2504   26.3835 N   0  0  0  0  0  0  0  0  0  0  0  0
    9.4161  -14.9705   28.3119 C   0  0  0  0  0  0  0  0  0  0  0  0
   10.3421  -14.6768   29.3150 O   0  0  0  0  0  0  0  0  0  0  0  0
    8.9281  -16.1208   28.2187 O   0  0  0  0  0  0  0  0  0  0  0  0
  2  1  1  6
  2  3  1  0
  3  4  1  0
  5  2  1  0
  5 13  1  0
  6  5  2  0
  7  8  1  0
  8 10  1  0
  8  9  2  0
 10 11  1  0
 12 11  1  6
 12 13  1  0
 12 14  1  0
 14 15  2  0
 14 19  1  0
 16 17  1  0
 18 17  1  1
 18 20  1  0
 19 18  1  0
 20 21  1  0
 22 20  2  0
M  END
$$$$
