CQS.pdb
     RDKit          3D

 22 21  0  0  1  0  0  0  0  0999 V2000
    7.9599  -13.7166   17.1272 N   0  0  0  0  0  0  0  0  0  0  0  0
    8.4434  -13.4927   18.4860 C   0  0  1  0  0  0  0  0  0  0  0  0
    7.2808  -13.6675   19.4533 C   0  0  0  0  0  0  0  0  0  0  0  0
    7.9246  -13.4593   21.1330 S   0  0  0  0  0  0  0  0  0  0  0  0
    9.4957  -14.4702   18.8109 C   0  0  0  0  0  0  0  0  0  0  0  0
    9.3817  -15.6404   18.3549 O   0  0  0  0  0  0  0  0  0  0  0  0
   15.5186  -15.0357   19.7516 N   0  0  0  0  0  0  0  0  0  0  0  0
   14.8738  -14.5555   18.5835 C   0  0  0  0  0  0  0  0  0  0  0  0
   15.5062  -14.5287   17.4922 O   0  0  0  0  0  0  0  0  0  0  0  0
   13.4749  -14.0968   18.6688 C   0  0  0  0  0  0  0  0  0  0  0  0
   12.9542  -14.3691   20.0735 C   0  0  0  0  0  0  0  0  0  0  0  0
   11.5982  -15.0587   20.0064 C   0  0  2  0  0  0  0  0  0  0  0  0
   10.6049  -14.1124   19.6112 N   0  0  0  0  0  0  0  0  0  0  0  0
   11.3549  -15.6765   21.3116 C   0  0  0  0  0  0  0  0  0  0  0  0
   11.3103  -14.9298   22.3200 O   0  0  0  0  0  0  0  0  0  0  0  0
   10.5140  -19.6838   21.8089 O   0  0  0  0  0  0  0  0  0  0  0  0
   10.0650  -18.8420   22.8250 C   0  0  0  0  0  0  0  0  0  0  0  0
   10.8991  -17.5755   22.8448 C   0  0  2  0  0  0  0  0  0  0  0  0
   11.1627  -17.0677   21.5354 N   0  0  0  0  0  0  0  0  0  0  0  0
   12.1360  -17.8280   23.6276 C   0  0  0  0  0  0  0  0  0  0  0  0
   11.9643  -18.1978   24.9632 O   0  0  0  0  0  0  0  0  0  0  0  0
   13.2867  -17.7230   23.1433 O   0  0  0  0  0  0  0  0  0  0  0  0
  2  1  1  6
  2  3  1  0
  3  4  1  0
  5  2  1  0
  5 13  1  0
  6  5  2  0
  7  8  1  0
  8 10  1  0
  8  9  2  0
 10 11  1  0
 12 11  1  1
 12 13  1  0
 12 14  1  0
 14 15  2  0
 14 19  1  0
 16 17  1  0
 18 17  1  6
 18 20  1  0
 19 18  1  0
 20 21  1  0
 22 20  2  0
M  END
$$$$
