CQS.pdb
     RDKit          3D

 22 21  0  0  1  0  0  0  0  0999 V2000
    5.8860  -15.7071   21.4669 N   0  0  0  0  0  0  0  0  0  0  0  0
    6.9269  -14.6961   21.3096 C   0  0  1  0  0  0  0  0  0  0  0  0
    6.9926  -13.8606   22.5807 C   0  0  0  0  0  0  0  0  0  0  0  0
    6.5965  -14.9456   23.9753 S   0  0  0  0  0  0  0  0  0  0  0  0
    8.2291  -15.3475   21.0898 C   0  0  0  0  0  0  0  0  0  0  0  0
    8.3816  -16.5276   21.5072 O   0  0  0  0  0  0  0  0  0  0  0  0
    8.2074  -13.0008   17.4691 N   0  0  0  0  0  0  0  0  0  0  0  0
    9.4392  -13.7032   17.4585 C   0  0  0  0  0  0  0  0  0  0  0  0
    9.6642  -14.5477   16.5487 O   0  0  0  0  0  0  0  0  0  0  0  0
   10.4335  -13.4312   18.5131 C   0  0  0  0  0  0  0  0  0  0  0  0
   11.1262  -14.7357   18.8824 C   0  0  0  0  0  0  0  0  0  0  0  0
   10.5430  -15.2926   20.1742 C   0  0  2  0  0  0  0  0  0  0  0  0
    9.2822  -14.6736   20.4299 N   0  0  0  0  0  0  0  0  0  0  0  0
   11.5383  -15.0885   21.2289 C   0  0  0  0  0  0  0  0  0  0  0  0
   11.5035  -14.0120   21.8742 O   0  0  0  0  0  0  0  0  0  0  0  0
   11.5282  -17.4042   24.8106 O   0  0  0  0  0  0  0  0  0  0  0  0
   11.3485  -16.9827   23.4943 C   0  0  0  0  0  0  0  0  0  0  0  0
   12.6704  -16.5027   22.9268 C   0  0  2  0  0  0  0  0  0  0  0  0
   12.5529  -16.0182   21.5877 N   0  0  0  0  0  0  0  0  0  0  0  0
   13.6738  -17.5895   23.0631 C   0  0  0  0  0  0  0  0  0  0  0  0
   14.4860  -17.5499   24.1983 O   0  0  0  0  0  0  0  0  0  0  0  0
   13.8083  -18.5074   22.2208 O   0  0  0  0  0  0  0  0  0  0  0  0
  2  1  1  1
  2  3  1  0
  3  4  1  0
  5  2  1  0
  5 13  1  0
  6  5  2  0
  7  8  1  0
  8 10  1  0
  8  9  2  0
 10 11  1  0
 12 11  1  6
 12 13  1  0
 12 14  1  0
 14 15  2  0
 14 19  1  0
 16 17  1  0
 18 17  1  6
 18 20  1  0
 19 18  1  0
 20 21  1  0
 22 20  2  0
M  END
$$$$
