CQS.pdb
     RDKit          3D

 22 21  0  0  1  0  0  0  0  0999 V2000
    8.4618  -13.0808   18.6976 N   0  0  0  0  0  0  0  0  0  0  0  0
    7.4820  -13.3833   19.7363 C   0  0  1  0  0  0  0  0  0  0  0  0
    6.7508  -14.6646   19.3600 C   0  0  0  0  0  0  0  0  0  0  0  0
    7.9881  -15.9754   19.1871 S   0  0  0  0  0  0  0  0  0  0  0  0
    8.1633  -13.5752   21.0275 C   0  0  0  0  0  0  0  0  0  0  0  0
    9.4194  -13.6870   21.0262 O   0  0  0  0  0  0  0  0  0  0  0  0
    5.6708  -12.4757   26.6483 N   0  0  0  0  0  0  0  0  0  0  0  0
    6.9064  -13.0642   27.0194 C   0  0  0  0  0  0  0  0  0  0  0  0
    7.2256  -13.1203   28.2386 O   0  0  0  0  0  0  0  0  0  0  0  0
    7.7941  -13.5994   25.9705 C   0  0  0  0  0  0  0  0  0  0  0  0
    7.1365  -13.3837   24.6142 C   0  0  0  0  0  0  0  0  0  0  0  0
    8.0674  -13.8435   23.5002 C   0  0  2  0  0  0  0  0  0  0  0  0
    7.4349  -13.6331   22.2378 N   0  0  0  0  0  0  0  0  0  0  0  0
    8.4204  -15.2386   23.7711 C   0  0  0  0  0  0  0  0  0  0  0  0
    7.5562  -16.1214   23.5468 O   0  0  0  0  0  0  0  0  0  0  0  0
   12.2431  -16.6573   23.9503 O   0  0  0  0  0  0  0  0  0  0  0  0
   11.1845  -17.5232   23.6813 C   0  0  0  0  0  0  0  0  0  0  0  0
    9.9517  -17.0744   24.4420 C   0  0  2  0  0  0  0  0  0  0  0  0
    9.6748  -15.6828   24.2729 N   0  0  0  0  0  0  0  0  0  0  0  0
   10.0986  -17.4662   25.8673 C   0  0  0  0  0  0  0  0  0  0  0  0
   10.4028  -18.8059   26.1177 O   0  0  0  0  0  0  0  0  0  0  0  0
    9.9626  -16.6603   26.8170 O   0  0  0  0  0  0  0  0  0  0  0  0
  2  1  1  6
  2  3  1  0
  3  4  1  0
  5  2  1  0
  5 13  1  0
  6  5  2  0
  7  8  1  0
  8 10  1  0
  8  9  2  0
 10 11  1  0
 12 11  1  1
 12 13  1  0
 12 14  1  0
 14 15  2  0
 14 19  1  0
 16 17  1  0
 18 17  1  6
 18 20  1  0
 19 18  1  0
 20 21  1  0
 22 20  2  0
M  END
$$$$
