CQS.pdb
     RDKit          3D

 22 21  0  0  1  0  0  0  0  0999 V2000
    7.9187  -13.4334   16.9918 N   0  0  0  0  0  0  0  0  0  0  0  0
    8.4615  -13.2082   18.3278 C   0  0  1  0  0  0  0  0  0  0  0  0
    7.3198  -13.2575   19.3338 C   0  0  0  0  0  0  0  0  0  0  0  0
    8.0400  -13.1460   20.9915 S   0  0  0  0  0  0  0  0  0  0  0  0
    9.4411  -14.2581   18.6543 C   0  0  0  0  0  0  0  0  0  0  0  0
    9.1788  -15.4432   18.3124 O   0  0  0  0  0  0  0  0  0  0  0  0
   15.3105  -15.8980   17.3203 N   0  0  0  0  0  0  0  0  0  0  0  0
   15.1821  -15.0690   18.4636 C   0  0  0  0  0  0  0  0  0  0  0  0
   15.9782  -14.1034   18.6225 O   0  0  0  0  0  0  0  0  0  0  0  0
   14.1186  -15.3536   19.4448 C   0  0  0  0  0  0  0  0  0  0  0  0
   13.0256  -14.3032   19.3021 C   0  0  0  0  0  0  0  0  0  0  0  0
   11.6608  -14.9270   19.5605 C   0  0  2  0  0  0  0  0  0  0  0  0
   10.6435  -13.9518   19.3318 N   0  0  0  0  0  0  0  0  0  0  0  0
   11.6774  -15.4714   20.9199 C   0  0  0  0  0  0  0  0  0  0  0  0
   11.5234  -14.6745   21.8778 O   0  0  0  0  0  0  0  0  0  0  0  0
    9.8826  -18.5349   22.4106 O   0  0  0  0  0  0  0  0  0  0  0  0
   11.2128  -18.6159   22.8186 C   0  0  0  0  0  0  0  0  0  0  0  0
   11.8932  -17.2765   22.6110 C   0  0  2  0  0  0  0  0  0  0  0  0
   11.8554  -16.8433   21.2499 N   0  0  0  0  0  0  0  0  0  0  0  0
   13.2727  -17.3496   23.1571 C   0  0  0  0  0  0  0  0  0  0  0  0
   13.3942  -17.7246   24.4967 O   0  0  0  0  0  0  0  0  0  0  0  0
   14.2933  -17.0942   22.4767 O   0  0  0  0  0  0  0  0  0  0  0  0
  2  1  1  6
  2  3  1  0
  3  4  1  0
  5  2  1  0
  5 13  1  0
  6  5  2  0
  7  8  1  0
  8 10  1  0
  8  9  2  0
 10 11  1  0
 12 11  1  1
 12 13  1  0
 12 14  1  0
 14 15  2  0
 14 19  1  0
 16 17  1  0
 18 17  1  6
 18 20  1  0
 19 18  1  0
 20 21  1  0
 22 20  2  0
M  END
$$$$
