QGH.pdb
     RDKit          3D

 24 24  0  0  1  0  0  0  0  0999 V2000
   23.9466   -7.8335  -16.0985 N   0  0  0  0  0  0  0  0  0  0  0  0
   22.7617   -7.0276  -16.2636 C   0  0  0  0  0  0  0  0  0  0  0  0
   22.9014   -5.9034  -16.7524 O   0  0  0  0  0  0  0  0  0  0  0  0
   21.4367   -7.5431  -15.8563 C   0  0  0  0  0  0  0  0  0  0  0  0
   21.5181   -8.8795  -15.1797 C   0  0  0  0  0  0  0  0  0  0  0  0
   20.2135   -9.3686  -14.6156 C   0  0  2  0  0  0  0  0  0  0  0  0
   19.1262   -8.8676  -15.4732 N   0  0  0  0  0  0  0  0  0  0  0  0
   19.9834   -8.9891  -13.2143 C   0  0  0  0  0  0  0  0  0  0  0  0
   20.7817   -9.3463  -12.3170 O   0  0  0  0  0  0  0  0  0  0  0  0
   18.8354   -8.1978  -12.8395 N   0  0  0  0  0  0  0  0  0  0  0  0
   18.7412   -7.7950  -11.4743 C   0  0  0  0  0  0  0  0  0  0  0  0
   17.5523   -6.9492  -11.2009 C   0  0  0  0  0  0  0  0  0  0  0  0
   16.9973   -6.4238  -12.1902 O   0  0  0  0  0  0  0  0  0  0  0  0
   17.0426   -6.7237   -9.9127 N   0  0  0  0  0  0  0  0  0  0  0  0
   15.9721   -5.8266   -9.5519 C   0  0  1  0  0  0  0  0  0  0  0  0
   15.2615   -6.2189   -8.3138 C   0  0  0  0  0  0  0  0  0  0  0  0
   14.5264   -7.4909   -8.4633 C   0  0  0  0  0  0  0  0  0  0  0  0
   14.4913   -8.2215   -9.6481 C   0  0  0  0  0  0  0  0  0  0  0  0
   13.7434   -9.3100   -9.4391 N   0  0  0  0  0  0  0  0  0  0  0  0
   13.3056   -9.2936   -8.1683 C   0  0  0  0  0  0  0  0  0  0  0  0
   13.7888   -8.1861   -7.5925 N   0  0  0  0  0  0  0  0  0  0  0  0
   16.3363   -4.3906   -9.6581 C   0  0  0  0  0  0  0  0  0  0  0  0
   15.3885   -3.4503  -10.0082 O   0  0  0  0  0  0  0  0  0  0  0  0
   17.5002   -3.9707   -9.4353 O   0  0  0  0  0  0  0  0  0  0  0  0
  2  4  1  0
  2  1  1  0
  3  2  2  0
  5  6  1  0
  5  4  1  0
  6  7  1  6
  6  8  1  0
  8  9  2  0
  8 10  1  0
 10 11  1  0
 12 11  1  0
 12 14  1  0
 13 12  2  0
 15 14  1  0
 15 16  1  1
 15 22  1  0
 16 17  1  0
 17 18  2  0
 17 21  1  0
 18 19  1  0
 19 20  1  0
 21 20  2  0
 22 23  1  0
 24 22  2  0
M  END
$$$$
