QGH.pdb
     RDKit          3D

 24 24  0  0  1  0  0  0  0  0999 V2000
   27.9463  -22.2598  -15.6671 N   0  0  0  0  0  0  0  0  0  0  0  0
   28.5352  -22.2783  -16.9838 C   0  0  0  0  0  0  0  0  0  0  0  0
   29.3793  -23.1471  -17.2179 O   0  0  0  0  0  0  0  0  0  0  0  0
   28.1328  -21.2854  -18.0035 C   0  0  0  0  0  0  0  0  0  0  0  0
   27.0628  -20.3544  -17.5148 C   0  0  0  0  0  0  0  0  0  0  0  0
   25.7250  -21.0058  -17.3016 C   0  0  2  0  0  0  0  0  0  0  0  0
   25.0492  -21.1038  -18.6064 N   0  0  0  0  0  0  0  0  0  0  0  0
   24.8684  -20.3164  -16.3261 C   0  0  0  0  0  0  0  0  0  0  0  0
   25.2179  -20.2181  -15.1269 O   0  0  0  0  0  0  0  0  0  0  0  0
   23.6073  -19.7378  -16.7255 N   0  0  0  0  0  0  0  0  0  0  0  0
   22.8094  -19.1474  -15.7009 C   0  0  0  0  0  0  0  0  0  0  0  0
   22.1809  -20.1512  -14.8059 C   0  0  0  0  0  0  0  0  0  0  0  0
   21.9433  -21.2742  -15.3008 O   0  0  0  0  0  0  0  0  0  0  0  0
   21.8531  -19.8952  -13.4653 N   0  0  0  0  0  0  0  0  0  0  0  0
   21.2498  -20.8154  -12.5325 C   0  0  1  0  0  0  0  0  0  0  0  0
   21.7128  -20.6351  -11.1380 C   0  0  0  0  0  0  0  0  0  0  0  0
   23.1727  -20.8102  -11.0004 C   0  0  0  0  0  0  0  0  0  0  0  0
   24.0018  -21.1904  -12.0524 C   0  0  0  0  0  0  0  0  0  0  0  0
   25.2540  -21.2546  -11.5877 N   0  0  0  0  0  0  0  0  0  0  0  0
   25.2461  -20.9296  -10.2835 C   0  0  0  0  0  0  0  0  0  0  0  0
   23.9788  -20.6636   -9.9447 N   0  0  0  0  0  0  0  0  0  0  0  0
   19.7830  -20.9678  -12.7095 C   0  0  0  0  0  0  0  0  0  0  0  0
   19.1757  -22.1914  -12.5122 O   0  0  0  0  0  0  0  0  0  0  0  0
   19.0390  -20.0087  -13.0373 O   0  0  0  0  0  0  0  0  0  0  0  0
  2  4  1  0
  2  1  1  0
  3  2  2  0
  5  6  1  0
  5  4  1  0
  6  7  1  6
  6  8  1  0
  8  9  2  0
  8 10  1  0
 10 11  1  0
 12 11  1  0
 12 14  1  0
 13 12  2  0
 15 14  1  0
 15 16  1  1
 15 22  1  0
 16 17  1  0
 17 18  2  0
 17 21  1  0
 18 19  1  0
 19 20  1  0
 21 20  2  0
 22 23  1  0
 24 22  2  0
M  END
$$$$
