QGH.pdb
     RDKit          3D

 24 24  0  0  1  0  0  0  0  0999 V2000
   24.1180  -29.6468  -17.1720 N   0  0  0  0  0  0  0  0  0  0  0  0
   24.7795  -30.8637  -16.7689 C   0  0  0  0  0  0  0  0  0  0  0  0
   24.1542  -31.9199  -16.8936 O   0  0  0  0  0  0  0  0  0  0  0  0
   26.1552  -30.8298  -16.2271 C   0  0  0  0  0  0  0  0  0  0  0  0
   26.7281  -29.4439  -16.1871 C   0  0  0  0  0  0  0  0  0  0  0  0
   27.8903  -29.2271  -17.1155 C   0  0  2  0  0  0  0  0  0  0  0  0
   28.9922  -28.6326  -16.3402 N   0  0  0  0  0  0  0  0  0  0  0  0
   27.5774  -28.3983  -18.2884 C   0  0  0  0  0  0  0  0  0  0  0  0
   27.5542  -28.8997  -19.4365 O   0  0  0  0  0  0  0  0  0  0  0  0
   27.2900  -26.9905  -18.1460 N   0  0  0  0  0  0  0  0  0  0  0  0
   27.0057  -26.2612  -19.3385 C   0  0  0  0  0  0  0  0  0  0  0  0
   26.7921  -24.8126  -19.0943 C   0  0  0  0  0  0  0  0  0  0  0  0
   26.6704  -24.0849  -20.1035 O   0  0  0  0  0  0  0  0  0  0  0  0
   26.7236  -24.2457  -17.8121 N   0  0  0  0  0  0  0  0  0  0  0  0
   26.1294  -22.9799  -17.4578 C   0  0  1  0  0  0  0  0  0  0  0  0
   25.2623  -23.0465  -16.2597 C   0  0  0  0  0  0  0  0  0  0  0  0
   24.6876  -21.7333  -15.9046 C   0  0  0  0  0  0  0  0  0  0  0  0
   24.3601  -20.7601  -16.8449 C   0  0  0  0  0  0  0  0  0  0  0  0
   23.8677  -19.7034  -16.1900 N   0  0  0  0  0  0  0  0  0  0  0  0
   23.8722  -19.9731  -14.8731 C   0  0  0  0  0  0  0  0  0  0  0  0
   24.3715  -21.2053  -14.7184 N   0  0  0  0  0  0  0  0  0  0  0  0
   27.0821  -21.8412  -17.5007 C   0  0  0  0  0  0  0  0  0  0  0  0
   26.6332  -20.5597  -17.7478 O   0  0  0  0  0  0  0  0  0  0  0  0
   28.3170  -21.9865  -17.3146 O   0  0  0  0  0  0  0  0  0  0  0  0
  2  4  1  0
  2  1  1  0
  3  2  2  0
  5  6  1  0
  5  4  1  0
  6  7  1  1
  6  8  1  0
  8  9  2  0
  8 10  1  0
 10 11  1  0
 12 11  1  0
 12 14  1  0
 13 12  2  0
 15 14  1  0
 15 16  1  1
 15 22  1  0
 16 17  1  0
 17 18  2  0
 17 21  1  0
 18 19  1  0
 19 20  1  0
 21 20  2  0
 22 23  1  0
 24 22  2  0
M  END
$$$$
