QGH.pdb
     RDKit          3D

 24 24  0  0  1  0  0  0  0  0999 V2000
   14.8963  -15.9067  -17.2887 N   0  0  0  0  0  0  0  0  0  0  0  0
   15.9269  -16.9013  -17.1164 C   0  0  0  0  0  0  0  0  0  0  0  0
   15.5791  -18.0207  -16.7313 O   0  0  0  0  0  0  0  0  0  0  0  0
   17.3426  -16.5756  -17.3936 C   0  0  0  0  0  0  0  0  0  0  0  0
   17.5238  -15.1838  -17.9231 C   0  0  0  0  0  0  0  0  0  0  0  0
   18.7865  -14.5073  -17.4676 C   0  0  2  0  0  0  0  0  0  0  0  0
   19.1312  -15.0289  -16.1342 N   0  0  0  0  0  0  0  0  0  0  0  0
   18.7084  -13.0396  -17.4442 C   0  0  0  0  0  0  0  0  0  0  0  0
   18.5929  -12.3895  -18.5091 O   0  0  0  0  0  0  0  0  0  0  0  0
   18.7628  -12.3142  -16.1970 N   0  0  0  0  0  0  0  0  0  0  0  0
   18.6570  -10.8933  -16.2664 C   0  0  0  0  0  0  0  0  0  0  0  0
   19.6883  -10.1958  -15.4580 C   0  0  0  0  0  0  0  0  0  0  0  0
   19.9318  -10.6708  -14.3276 O   0  0  0  0  0  0  0  0  0  0  0  0
   20.3797   -9.0574  -15.9009 N   0  0  0  0  0  0  0  0  0  0  0  0
   21.3875   -8.3223  -15.1764 C   0  0  1  0  0  0  0  0  0  0  0  0
   22.6814   -8.2295  -15.8896 C   0  0  0  0  0  0  0  0  0  0  0  0
   23.2047   -9.5526  -16.2850 C   0  0  0  0  0  0  0  0  0  0  0  0
   23.3212  -10.6252  -15.4049 C   0  0  0  0  0  0  0  0  0  0  0  0
   23.8256  -11.6616  -16.0828 N   0  0  0  0  0  0  0  0  0  0  0  0
   24.0315  -11.2835  -17.3562 C   0  0  0  0  0  0  0  0  0  0  0  0
   23.6504  -10.0047  -17.4608 N   0  0  0  0  0  0  0  0  0  0  0  0
   20.8888   -7.0569  -14.5796 C   0  0  0  0  0  0  0  0  0  0  0  0
   21.4926   -6.5240  -13.4588 O   0  0  0  0  0  0  0  0  0  0  0  0
   19.9152   -6.4219  -15.0588 O   0  0  0  0  0  0  0  0  0  0  0  0
  2  4  1  0
  2  1  1  0
  3  2  2  0
  5  6  1  0
  5  4  1  0
  6  7  1  1
  6  8  1  0
  8  9  2  0
  8 10  1  0
 10 11  1  0
 12 11  1  0
 12 14  1  0
 13 12  2  0
 15 14  1  0
 15 16  1  6
 15 22  1  0
 16 17  1  0
 17 18  2  0
 17 21  1  0
 18 19  1  0
 19 20  1  0
 21 20  2  0
 22 23  1  0
 24 22  2  0
M  END
$$$$
