QGH.pdb
     RDKit          3D

 24 24  0  0  1  0  0  0  0  0999 V2000
   28.9374  -17.7276  -20.2360 N   0  0  0  0  0  0  0  0  0  0  0  0
   29.4514  -16.9433  -19.1399 C   0  0  0  0  0  0  0  0  0  0  0  0
   30.0721  -15.9140  -19.4182 O   0  0  0  0  0  0  0  0  0  0  0  0
   29.2354  -17.3709  -17.7406 C   0  0  0  0  0  0  0  0  0  0  0  0
   28.5242  -18.6880  -17.6407 C   0  0  0  0  0  0  0  0  0  0  0  0
   27.4028  -18.7119  -16.6400 C   0  0  2  0  0  0  0  0  0  0  0  0
   27.9497  -18.3250  -15.3286 N   0  0  0  0  0  0  0  0  0  0  0  0
   26.7049  -20.0024  -16.5488 C   0  0  0  0  0  0  0  0  0  0  0  0
   26.0302  -20.4328  -17.5129 O   0  0  0  0  0  0  0  0  0  0  0  0
   26.7800  -20.8026  -15.3493 N   0  0  0  0  0  0  0  0  0  0  0  0
   25.9385  -21.9525  -15.2812 C   0  0  0  0  0  0  0  0  0  0  0  0
   24.9713  -21.8964  -14.1566 C   0  0  0  0  0  0  0  0  0  0  0  0
   25.3957  -22.2432  -13.0330 O   0  0  0  0  0  0  0  0  0  0  0  0
   23.6383  -21.4815  -14.3021 N   0  0  0  0  0  0  0  0  0  0  0  0
   22.8086  -20.8703  -13.2926 C   0  0  1  0  0  0  0  0  0  0  0  0
   23.4673  -19.7512  -12.5815 C   0  0  0  0  0  0  0  0  0  0  0  0
   24.4015  -20.2174  -11.5371 C   0  0  0  0  0  0  0  0  0  0  0  0
   23.9872  -20.8041  -10.3443 C   0  0  0  0  0  0  0  0  0  0  0  0
   25.0783  -21.1051   -9.6324 N   0  0  0  0  0  0  0  0  0  0  0  0
   26.1643  -20.7307  -10.3304 C   0  0  0  0  0  0  0  0  0  0  0  0
   25.7364  -20.1955  -11.4802 N   0  0  0  0  0  0  0  0  0  0  0  0
   21.4146  -20.6184  -13.7389 C   0  0  0  0  0  0  0  0  0  0  0  0
   21.0877  -20.6645  -15.0790 O   0  0  0  0  0  0  0  0  0  0  0  0
   20.4841  -20.3598  -12.9339 O   0  0  0  0  0  0  0  0  0  0  0  0
  2  4  1  0
  2  1  1  0
  3  2  2  0
  5  6  1  0
  5  4  1  0
  6  7  1  1
  6  8  1  0
  8  9  2  0
  8 10  1  0
 10 11  1  0
 12 11  1  0
 12 14  1  0
 13 12  2  0
 15 14  1  0
 15 16  1  6
 15 22  1  0
 16 17  1  0
 17 18  2  0
 17 21  1  0
 18 19  1  0
 19 20  1  0
 21 20  2  0
 22 23  1  0
 24 22  2  0
M  END
$$$$
