QGH.pdb
     RDKit          3D

 24 24  0  0  1  0  0  0  0  0999 V2000
   23.3108  -20.3530  -10.4318 N   0  0  0  0  0  0  0  0  0  0  0  0
   24.0520  -20.9754   -9.3622 C   0  0  0  0  0  0  0  0  0  0  0  0
   23.4066  -21.5478   -8.4802 O   0  0  0  0  0  0  0  0  0  0  0  0
   25.5297  -20.9196   -9.3372 C   0  0  0  0  0  0  0  0  0  0  0  0
   26.0994  -20.1398  -10.4851 C   0  0  0  0  0  0  0  0  0  0  0  0
   25.7692  -20.7012  -11.8398 C   0  0  2  0  0  0  0  0  0  0  0  0
   26.3033  -22.0718  -11.9111 N   0  0  0  0  0  0  0  0  0  0  0  0
   26.2655  -19.8938  -12.9634 C   0  0  0  0  0  0  0  0  0  0  0  0
   25.8794  -18.7121  -13.1198 O   0  0  0  0  0  0  0  0  0  0  0  0
   27.2071  -20.4417  -13.9110 N   0  0  0  0  0  0  0  0  0  0  0  0
   27.5367  -19.6350  -15.0404 C   0  0  0  0  0  0  0  0  0  0  0  0
   26.6997  -19.9338  -16.2294 C   0  0  0  0  0  0  0  0  0  0  0  0
   27.1782  -20.7282  -17.0677 O   0  0  0  0  0  0  0  0  0  0  0  0
   25.4298  -19.3752  -16.4421 N   0  0  0  0  0  0  0  0  0  0  0  0
   24.1658  -20.0703  -16.4221 C   0  0  1  0  0  0  0  0  0  0  0  0
   24.0283  -21.0186  -15.2936 C   0  0  0  0  0  0  0  0  0  0  0  0
   22.7509  -21.7586  -15.3300 C   0  0  0  0  0  0  0  0  0  0  0  0
   22.4353  -22.6956  -16.3104 C   0  0  0  0  0  0  0  0  0  0  0  0
   21.2139  -23.1718  -16.0474 N   0  0  0  0  0  0  0  0  0  0  0  0
   20.7474  -22.5711  -14.9390 C   0  0  0  0  0  0  0  0  0  0  0  0
   21.6902  -21.7193  -14.5182 N   0  0  0  0  0  0  0  0  0  0  0  0
   22.9965  -19.1884  -16.6685 C   0  0  0  0  0  0  0  0  0  0  0  0
   22.7969  -18.0574  -15.9030 O   0  0  0  0  0  0  0  0  0  0  0  0
   22.1517  -19.4228  -17.5697 O   0  0  0  0  0  0  0  0  0  0  0  0
  2  4  1  0
  2  1  1  0
  3  2  2  0
  5  6  1  0
  5  4  1  0
  6  7  1  1
  6  8  1  0
  8  9  2  0
  8 10  1  0
 10 11  1  0
 12 11  1  0
 12 14  1  0
 13 12  2  0
 15 14  1  0
 15 16  1  1
 15 22  1  0
 16 17  1  0
 17 18  2  0
 17 21  1  0
 18 19  1  0
 19 20  1  0
 21 20  2  0
 22 23  1  0
 24 22  2  0
M  END
$$$$
