QGH.pdb
     RDKit          3D

 24 24  0  0  1  0  0  0  0  0999 V2000
   15.8599  -14.5464  -18.8409 N   0  0  0  0  0  0  0  0  0  0  0  0
   16.8137  -14.2929  -19.8930 C   0  0  0  0  0  0  0  0  0  0  0  0
   16.8915  -15.1223  -20.8030 O   0  0  0  0  0  0  0  0  0  0  0  0
   17.6603  -13.0805  -19.8667 C   0  0  0  0  0  0  0  0  0  0  0  0
   18.6099  -13.0622  -18.7056 C   0  0  0  0  0  0  0  0  0  0  0  0
   18.2407  -12.0917  -17.6187 C   0  0  2  0  0  0  0  0  0  0  0  0
   16.8733  -11.6105  -17.8783 N   0  0  0  0  0  0  0  0  0  0  0  0
   19.1693  -10.9606  -17.4806 C   0  0  0  0  0  0  0  0  0  0  0  0
   20.3832  -11.1571  -17.2404 O   0  0  0  0  0  0  0  0  0  0  0  0
   18.7060   -9.6001  -17.6182 N   0  0  0  0  0  0  0  0  0  0  0  0
   19.6647   -8.5633  -17.4159 C   0  0  0  0  0  0  0  0  0  0  0  0
   19.3744   -7.7312  -16.2214 C   0  0  0  0  0  0  0  0  0  0  0  0
   18.3268   -7.0498  -16.2528 O   0  0  0  0  0  0  0  0  0  0  0  0
   20.2061   -7.6817  -15.0918 N   0  0  0  0  0  0  0  0  0  0  0  0
   20.0978   -6.7709  -13.9784 C   0  0  1  0  0  0  0  0  0  0  0  0
   20.1415   -7.4401  -12.6585 C   0  0  0  0  0  0  0  0  0  0  0  0
   19.0597   -8.4313  -12.4916 C   0  0  0  0  0  0  0  0  0  0  0  0
   18.0909   -8.6794  -13.4605 C   0  0  0  0  0  0  0  0  0  0  0  0
   17.2716   -9.6261  -12.9911 N   0  0  0  0  0  0  0  0  0  0  0  0
   17.6867   -9.9844  -11.7638 C   0  0  0  0  0  0  0  0  0  0  0  0
   18.7695   -9.2516  -11.4775 N   0  0  0  0  0  0  0  0  0  0  0  0
   20.9459   -5.5592  -14.1147 C   0  0  0  0  0  0  0  0  0  0  0  0
   21.8241   -5.4327  -15.1719 O   0  0  0  0  0  0  0  0  0  0  0  0
   20.9029   -4.6088  -13.2927 O   0  0  0  0  0  0  0  0  0  0  0  0
  2  4  1  0
  2  1  1  0
  3  2  2  0
  5  6  1  0
  5  4  1  0
  6  7  1  6
  6  8  1  0
  8  9  2  0
  8 10  1  0
 10 11  1  0
 12 11  1  0
 12 14  1  0
 13 12  2  0
 15 14  1  0
 15 16  1  1
 15 22  1  0
 16 17  1  0
 17 18  2  0
 17 21  1  0
 18 19  1  0
 19 20  1  0
 21 20  2  0
 22 23  1  0
 24 22  2  0
M  END
$$$$
