QGH.pdb
     RDKit          3D

 24 24  0  0  1  0  0  0  0  0999 V2000
   20.6361  -16.9733  -13.3496 N   0  0  0  0  0  0  0  0  0  0  0  0
   19.9132  -17.7472  -14.3290 C   0  0  0  0  0  0  0  0  0  0  0  0
   19.7995  -18.9588  -14.1262 O   0  0  0  0  0  0  0  0  0  0  0  0
   19.3371  -17.0983  -15.5267 C   0  0  0  0  0  0  0  0  0  0  0  0
   19.6244  -15.6270  -15.5830 C   0  0  0  0  0  0  0  0  0  0  0  0
   18.6383  -14.8340  -16.3943 C   0  0  2  0  0  0  0  0  0  0  0  0
   18.5094  -15.4746  -17.7140 N   0  0  0  0  0  0  0  0  0  0  0  0
   18.9843  -13.4129  -16.5410 C   0  0  0  0  0  0  0  0  0  0  0  0
   19.5392  -12.9954  -17.5840 O   0  0  0  0  0  0  0  0  0  0  0  0
   18.6937  -12.4668  -15.4897 N   0  0  0  0  0  0  0  0  0  0  0  0
   19.1456  -11.1269  -15.6778 C   0  0  0  0  0  0  0  0  0  0  0  0
   20.5804  -10.9472  -15.3421 C   0  0  0  0  0  0  0  0  0  0  0  0
   21.2697  -11.9859  -15.2488 O   0  0  0  0  0  0  0  0  0  0  0  0
   21.1749   -9.6932  -15.1319 N   0  0  0  0  0  0  0  0  0  0  0  0
   22.5733   -9.3664  -15.2679 C   0  0  1  0  0  0  0  0  0  0  0  0
   23.2009   -9.9389  -16.4804 C   0  0  0  0  0  0  0  0  0  0  0  0
   24.6435   -9.6352  -16.5668 C   0  0  0  0  0  0  0  0  0  0  0  0
   25.3573   -9.0080  -15.5490 C   0  0  0  0  0  0  0  0  0  0  0  0
   26.6270   -8.8869  -15.9504 N   0  0  0  0  0  0  0  0  0  0  0  0
   26.7410   -9.4135  -17.1819 C   0  0  0  0  0  0  0  0  0  0  0  0
   25.5315   -9.8616  -17.5393 N   0  0  0  0  0  0  0  0  0  0  0  0
   22.8812   -7.9391  -14.9960 C   0  0  0  0  0  0  0  0  0  0  0  0
   24.0383   -7.5849  -14.3322 O   0  0  0  0  0  0  0  0  0  0  0  0
   22.1202   -7.0041  -15.3530 O   0  0  0  0  0  0  0  0  0  0  0  0
  2  4  1  0
  2  1  1  0
  3  2  2  0
  5  6  1  0
  5  4  1  0
  6  7  1  6
  6  8  1  0
  8  9  2  0
  8 10  1  0
 10 11  1  0
 12 11  1  0
 12 14  1  0
 13 12  2  0
 15 14  1  0
 15 16  1  6
 15 22  1  0
 16 17  1  0
 17 18  2  0
 17 21  1  0
 18 19  1  0
 19 20  1  0
 21 20  2  0
 22 23  1  0
 24 22  2  0
M  END
$$$$
