QGH.pdb
     RDKit          3D

 24 24  0  0  1  0  0  0  0  0999 V2000
   24.9333   -9.4705  -21.9988 N   0  0  0  0  0  0  0  0  0  0  0  0
   23.7497  -10.2950  -21.9887 C   0  0  0  0  0  0  0  0  0  0  0  0
   22.6571   -9.7232  -22.0290 O   0  0  0  0  0  0  0  0  0  0  0  0
   23.8582  -11.7688  -21.9305 C   0  0  0  0  0  0  0  0  0  0  0  0
   25.2806  -12.2436  -21.8871 C   0  0  0  0  0  0  0  0  0  0  0  0
   25.6756  -12.8990  -20.5933 C   0  0  2  0  0  0  0  0  0  0  0  0
   24.8956  -12.2800  -19.5084 N   0  0  0  0  0  0  0  0  0  0  0  0
   27.1143  -12.8319  -20.2992 C   0  0  0  0  0  0  0  0  0  0  0  0
   27.9263  -13.5615  -20.9142 O   0  0  0  0  0  0  0  0  0  0  0  0
   27.6245  -11.9260  -19.2973 N   0  0  0  0  0  0  0  0  0  0  0  0
   29.0362  -11.9110  -19.0930 C   0  0  0  0  0  0  0  0  0  0  0  0
   29.5501  -10.5753  -18.6989 C   0  0  0  0  0  0  0  0  0  0  0  0
   28.7413   -9.6238  -18.7539 O   0  0  0  0  0  0  0  0  0  0  0  0
   30.8699  -10.3467  -18.2793 N   0  0  0  0  0  0  0  0  0  0  0  0
   31.4661   -9.0730  -17.9583 C   0  0  1  0  0  0  0  0  0  0  0  0
   32.5451   -9.1609  -16.9485 C   0  0  0  0  0  0  0  0  0  0  0  0
   33.1248   -7.8419  -16.6248 C   0  0  0  0  0  0  0  0  0  0  0  0
   32.5190   -6.9278  -15.7668 C   0  0  0  0  0  0  0  0  0  0  0  0
   33.3029   -5.8469  -15.6961 N   0  0  0  0  0  0  0  0  0  0  0  0
   34.3794   -6.0444  -16.4764 C   0  0  0  0  0  0  0  0  0  0  0  0
   34.2554   -7.2564  -17.0306 N   0  0  0  0  0  0  0  0  0  0  0  0
   31.7651   -8.2375  -19.1493 C   0  0  0  0  0  0  0  0  0  0  0  0
   31.6712   -6.8621  -19.0831 O   0  0  0  0  0  0  0  0  0  0  0  0
   32.1142   -8.7325  -20.2511 O   0  0  0  0  0  0  0  0  0  0  0  0
  2  4  1  0
  2  1  1  0
  3  2  2  0
  5  6  1  0
  5  4  1  0
  6  7  1  1
  6  8  1  0
  8  9  2  0
  8 10  1  0
 10 11  1  0
 12 11  1  0
 12 14  1  0
 13 12  2  0
 15 14  1  0
 15 16  1  6
 15 22  1  0
 16 17  1  0
 17 18  2  0
 17 21  1  0
 18 19  1  0
 19 20  1  0
 21 20  2  0
 22 23  1  0
 24 22  2  0
M  END
$$$$
