QGH.pdb
     RDKit          3D

 24 24  0  0  1  0  0  0  0  0999 V2000
   29.5527  -23.2171  -16.5490 N   0  0  0  0  0  0  0  0  0  0  0  0
   29.9405  -22.1453  -17.4331 C   0  0  0  0  0  0  0  0  0  0  0  0
   30.8231  -22.3822  -18.2621 O   0  0  0  0  0  0  0  0  0  0  0  0
   29.2961  -20.8176  -17.3361 C   0  0  0  0  0  0  0  0  0  0  0  0
   28.3207  -20.7288  -16.1999 C   0  0  0  0  0  0  0  0  0  0  0  0
   26.9440  -21.2374  -16.5243 C   0  0  2  0  0  0  0  0  0  0  0  0
   26.7965  -21.2599  -17.9894 N   0  0  0  0  0  0  0  0  0  0  0  0
   25.8560  -20.4654  -15.9070 C   0  0  0  0  0  0  0  0  0  0  0  0
   25.7846  -20.3465  -14.6617 O   0  0  0  0  0  0  0  0  0  0  0  0
   24.8467  -19.8273  -16.7187 N   0  0  0  0  0  0  0  0  0  0  0  0
   23.9059  -18.9909  -16.0476 C   0  0  0  0  0  0  0  0  0  0  0  0
   22.8170  -19.7559  -15.3899 C   0  0  0  0  0  0  0  0  0  0  0  0
   22.2083  -20.5876  -16.0975 O   0  0  0  0  0  0  0  0  0  0  0  0
   22.4555  -19.5864  -14.0443 N   0  0  0  0  0  0  0  0  0  0  0  0
   21.4826  -20.3557  -13.3075 C   0  0  1  0  0  0  0  0  0  0  0  0
   21.8103  -20.5068  -11.8717 C   0  0  0  0  0  0  0  0  0  0  0  0
   23.1911  -20.9834  -11.6545 C   0  0  0  0  0  0  0  0  0  0  0  0
   23.6893  -22.1640  -12.1991 C   0  0  0  0  0  0  0  0  0  0  0  0
   24.9613  -22.2938  -11.8079 N   0  0  0  0  0  0  0  0  0  0  0  0
   25.2840  -21.2405  -11.0377 C   0  0  0  0  0  0  0  0  0  0  0  0
   24.2014  -20.4578  -10.9555 N   0  0  0  0  0  0  0  0  0  0  0  0
   20.0765  -19.9870  -13.6120 C   0  0  0  0  0  0  0  0  0  0  0  0
   19.0385  -20.8229  -13.2529 O   0  0  0  0  0  0  0  0  0  0  0  0
   19.7702  -18.9166  -14.1960 O   0  0  0  0  0  0  0  0  0  0  0  0
  2  4  1  0
  2  1  1  0
  3  2  2  0
  5  6  1  0
  5  4  1  0
  6  7  1  6
  6  8  1  0
  8  9  2  0
  8 10  1  0
 10 11  1  0
 12 11  1  0
 12 14  1  0
 13 12  2  0
 15 14  1  0
 15 16  1  1
 15 22  1  0
 16 17  1  0
 17 18  2  0
 17 21  1  0
 18 19  1  0
 19 20  1  0
 21 20  2  0
 22 23  1  0
 24 22  2  0
M  END
$$$$
