YDM.pdb
     RDKit          3D

 29 29  0  0  1  0  0  0  0  0999 V2000
    7.0922  -12.6301   16.2553 O   0  0  0  0  0  0  0  0  0  0  0  0
    7.3408  -13.3214   17.4501 C   0  0  0  0  0  0  0  0  0  0  0  0
    8.3114  -12.8766   18.3292 C   0  0  0  0  0  0  0  0  0  0  0  0
    8.5333  -13.5809   19.5006 C   0  0  0  0  0  0  0  0  0  0  0  0
    7.8260  -14.7167   19.8373 C   0  0  0  0  0  0  0  0  0  0  0  0
    8.1485  -15.3767   21.1019 C   0  0  0  0  0  0  0  0  0  0  0  0
    9.5331  -15.1361   21.5932 C   0  0  2  0  0  0  0  0  0  0  0  0
   10.5578  -15.2467   20.6037 N   0  0  0  0  0  0  0  0  0  0  0  0
    9.7878  -16.1184   22.7063 C   0  0  0  0  0  0  0  0  0  0  0  0
    8.8566  -16.4229   23.4947 O   0  0  0  0  0  0  0  0  0  0  0  0
    6.8606  -15.1527   18.9552 C   0  0  0  0  0  0  0  0  0  0  0  0
    6.6334  -14.4568   17.7862 C   0  0  0  0  0  0  0  0  0  0  0  0
   11.0516  -16.7148   22.8953 N   0  0  0  0  0  0  0  0  0  0  0  0
   11.4233  -17.5130   24.0421 C   0  0  1  0  0  0  0  0  0  0  0  0
   12.7603  -18.1559   23.7596 C   0  0  0  0  0  0  0  0  0  0  0  0
   12.7451  -19.0508   22.5946 C   0  0  0  0  0  0  0  0  0  0  0  0
   11.8810  -19.9783   22.4913 O   0  0  0  0  0  0  0  0  0  0  0  0
   11.6200  -16.6298   25.2138 C   0  0  0  0  0  0  0  0  0  0  0  0
   12.2733  -15.5760   25.0730 O   0  0  0  0  0  0  0  0  0  0  0  0
   13.6714  -18.9002   21.5888 O   0  0  0  0  0  0  0  0  0  0  0  0
    6.7829  -12.6854   28.2674 C   0  0  0  0  0  0  0  0  0  0  0  0
    8.2594  -12.7936   27.2847 S   0  0  0  0  0  0  0  0  0  0  0  0
    9.4817  -13.9214   27.9380 C   0  0  0  0  0  0  0  0  0  0  0  0
    9.9646  -14.9574   26.9931 C   0  0  0  0  0  0  0  0  0  0  0  0
   10.9511  -15.9456   27.4976 C   0  0  2  0  0  0  0  0  0  0  0  0
   11.0753  -16.9839   26.4566 N   0  0  0  0  0  0  0  0  0  0  0  0
   10.4812  -16.6302   28.7362 C   0  0  0  0  0  0  0  0  0  0  0  0
   10.7037  -16.2201   30.0180 O   0  0  0  0  0  0  0  0  0  0  0  0
    9.8053  -17.7003   28.5768 O   0  0  0  0  0  0  0  0  0  0  0  0
  2  3  2  0
  2  1  1  0
  4  3  1  0
  5  4  2  0
  6  5  1  0
  7  6  1  0
  7  8  1  6
  9  7  1  0
  9 10  2  0
 11  5  1  0
 11 12  2  0
 12  2  1  0
 13  9  1  0
 14 13  1  0
 14 15  1  6
 16 15  1  0
 17 16  2  0
 18 14  1  0
 19 18  2  0
 20 16  1  0
 22 21  1  0
 23 22  1  0
 25 24  1  6
 24 23  1  0
 25 26  1  0
 26 18  1  0
 27 28  1  0
 27 25  1  0
 29 27  2  0
M  END
$$$$
