YDM.pdb
     RDKit          3D

 29 29  0  0  1  0  0  0  0  0999 V2000
    7.3291  -13.4002   14.5855 O   0  0  0  0  0  0  0  0  0  0  0  0
    7.3546  -13.7494   15.9437 C   0  0  0  0  0  0  0  0  0  0  0  0
    7.0380  -15.0350   16.3437 C   0  0  0  0  0  0  0  0  0  0  0  0
    7.0724  -15.3488   17.6919 C   0  0  0  0  0  0  0  0  0  0  0  0
    7.4106  -14.4321   18.6662 C   0  0  0  0  0  0  0  0  0  0  0  0
    7.4123  -14.8792   20.0586 C   0  0  0  0  0  0  0  0  0  0  0  0
    8.7366  -14.8019   20.7346 C   0  0  2  0  0  0  0  0  0  0  0  0
    9.8545  -15.1766   19.9277 N   0  0  0  0  0  0  0  0  0  0  0  0
    8.6664  -15.6836   21.9539 C   0  0  0  0  0  0  0  0  0  0  0  0
    7.7422  -15.5186   22.7905 O   0  0  0  0  0  0  0  0  0  0  0  0
    7.7246  -13.1534   18.2583 C   0  0  0  0  0  0  0  0  0  0  0  0
    7.6928  -12.8327   16.9172 C   0  0  0  0  0  0  0  0  0  0  0  0
    9.6148  -16.7001   22.1904 N   0  0  0  0  0  0  0  0  0  0  0  0
    9.6850  -17.4981   23.3940 C   0  0  1  0  0  0  0  0  0  0  0  0
   10.6390  -18.6430   23.1493 C   0  0  0  0  0  0  0  0  0  0  0  0
   10.1827  -19.5728   22.1074 C   0  0  0  0  0  0  0  0  0  0  0  0
   10.8894  -19.7982   21.0742 O   0  0  0  0  0  0  0  0  0  0  0  0
   10.2696  -16.6893   24.4875 C   0  0  0  0  0  0  0  0  0  0  0  0
   11.0485  -15.7578   24.1999 O   0  0  0  0  0  0  0  0  0  0  0  0
    8.9751  -20.2199   22.2320 O   0  0  0  0  0  0  0  0  0  0  0  0
    7.0634  -11.2277   27.6533 C   0  0  0  0  0  0  0  0  0  0  0  0
    7.3566  -12.6251   26.5957 S   0  0  0  0  0  0  0  0  0  0  0  0
    8.6053  -13.7466   27.2088 C   0  0  0  0  0  0  0  0  0  0  0  0
    8.9113  -14.9030   26.3321 C   0  0  0  0  0  0  0  0  0  0  0  0
    9.9328  -15.8730   26.8008 C   0  0  2  0  0  0  0  0  0  0  0  0
    9.9447  -16.9763   25.8212 N   0  0  0  0  0  0  0  0  0  0  0  0
    9.5795  -16.4712   28.1203 C   0  0  0  0  0  0  0  0  0  0  0  0
    9.1246  -17.7391   28.3350 O   0  0  0  0  0  0  0  0  0  0  0  0
    9.7193  -15.7223   29.1435 O   0  0  0  0  0  0  0  0  0  0  0  0
  2  3  2  0
  2  1  1  0
  4  3  1  0
  5  4  2  0
  6  5  1  0
  7  6  1  0
  7  8  1  6
  9  7  1  0
  9 10  2  0
 11  5  1  0
 11 12  2  0
 12  2  1  0
 13  9  1  0
 14 13  1  0
 14 15  1  6
 16 15  1  0
 17 16  2  0
 18 14  1  0
 19 18  2  0
 20 16  1  0
 22 21  1  0
 23 22  1  0
 25 24  1  6
 24 23  1  0
 25 26  1  0
 26 18  1  0
 27 28  1  0
 27 25  1  0
 29 27  2  0
M  END
$$$$
