YDM.pdb
     RDKit          3D

 29 29  0  0  1  0  0  0  0  0999 V2000
    7.4618  -12.6127   16.2894 O   0  0  0  0  0  0  0  0  0  0  0  0
    7.5566  -13.0782   17.6091 C   0  0  0  0  0  0  0  0  0  0  0  0
    8.7835  -13.4276   18.1434 C   0  0  0  0  0  0  0  0  0  0  0  0
    8.8443  -13.8837   19.4494 C   0  0  0  0  0  0  0  0  0  0  0  0
    7.7291  -14.0082   20.2523 C   0  0  0  0  0  0  0  0  0  0  0  0
    7.9166  -14.5014   21.6163 C   0  0  0  0  0  0  0  0  0  0  0  0
    9.3374  -14.6876   22.0200 C   0  0  2  0  0  0  0  0  0  0  0  0
   10.2782  -14.7061   20.9449 N   0  0  0  0  0  0  0  0  0  0  0  0
    9.4156  -15.9792   22.7913 C   0  0  0  0  0  0  0  0  0  0  0  0
    8.6101  -16.1931   23.7329 O   0  0  0  0  0  0  0  0  0  0  0  0
    6.5106  -13.6577   19.7114 C   0  0  0  0  0  0  0  0  0  0  0  0
    6.4414  -13.2024   18.4112 C   0  0  0  0  0  0  0  0  0  0  0  0
   10.3743  -16.9679   22.4881 N   0  0  0  0  0  0  0  0  0  0  0  0
   10.6049  -18.1605   23.2723 C   0  0  1  0  0  0  0  0  0  0  0  0
   11.5420  -19.0607   22.5026 C   0  0  0  0  0  0  0  0  0  0  0  0
   11.8489  -20.3179   23.1980 C   0  0  0  0  0  0  0  0  0  0  0  0
   12.9948  -20.8604   23.0971 O   0  0  0  0  0  0  0  0  0  0  0  0
   11.3042  -17.7980   24.5258 C   0  0  0  0  0  0  0  0  0  0  0  0
   12.3391  -17.1038   24.4611 O   0  0  0  0  0  0  0  0  0  0  0  0
   10.8958  -20.9342   23.9753 O   0  0  0  0  0  0  0  0  0  0  0  0
    9.8698  -13.0259   29.8476 C   0  0  0  0  0  0  0  0  0  0  0  0
    9.6044  -14.0050   28.3887 S   0  0  0  0  0  0  0  0  0  0  0  0
   10.6209  -15.4722   28.3078 C   0  0  0  0  0  0  0  0  0  0  0  0
   10.4443  -16.3056   27.0938 C   0  0  0  0  0  0  0  0  0  0  0  0
   11.2461  -17.5507   26.9888 C   0  0  2  0  0  0  0  0  0  0  0  0
   10.8006  -18.2346   25.7597 N   0  0  0  0  0  0  0  0  0  0  0  0
   10.9871  -18.4858   28.1212 C   0  0  0  0  0  0  0  0  0  0  0  0
   11.5898  -18.4573   29.3445 O   0  0  0  0  0  0  0  0  0  0  0  0
   10.1165  -19.3969   27.9227 O   0  0  0  0  0  0  0  0  0  0  0  0
  2  3  2  0
  2  1  1  0
  4  3  1  0
  5  4  2  0
  6  5  1  0
  7  6  1  0
  7  8  1  6
  9  7  1  0
  9 10  2  0
 11  5  1  0
 11 12  2  0
 12  2  1  0
 13  9  1  0
 14 13  1  0
 14 15  1  6
 16 15  1  0
 17 16  2  0
 18 14  1  0
 19 18  2  0
 20 16  1  0
 22 21  1  0
 23 22  1  0
 25 24  1  1
 24 23  1  0
 25 26  1  0
 26 18  1  0
 27 28  1  0
 27 25  1  0
 29 27  2  0
M  END
$$$$
