YDM.pdb
     RDKit          3D

 29 29  0  0  1  0  0  0  0  0999 V2000
    7.5290  -11.3838   18.1898 O   0  0  0  0  0  0  0  0  0  0  0  0
    7.8591  -12.4802   18.9997 C   0  0  0  0  0  0  0  0  0  0  0  0
    6.9123  -13.4437   19.2965 C   0  0  0  0  0  0  0  0  0  0  0  0
    7.2691  -14.5144   20.0989 C   0  0  0  0  0  0  0  0  0  0  0  0
    8.5363  -14.6688   20.6224 C   0  0  0  0  0  0  0  0  0  0  0  0
    8.7962  -15.8411   21.4572 C   0  0  0  0  0  0  0  0  0  0  0  0
    9.5933  -16.9106   20.7959 C   0  0  2  0  0  0  0  0  0  0  0  0
    9.0340  -17.4272   19.5870 N   0  0  0  0  0  0  0  0  0  0  0  0
    9.7641  -18.0226   21.7975 C   0  0  0  0  0  0  0  0  0  0  0  0
    9.2898  -19.1612   21.5524 O   0  0  0  0  0  0  0  0  0  0  0  0
    9.4734  -13.7037   20.3214 C   0  0  0  0  0  0  0  0  0  0  0  0
    9.1261  -12.6341   19.5228 C   0  0  0  0  0  0  0  0  0  0  0  0
   10.4466  -17.8259   23.0158 N   0  0  0  0  0  0  0  0  0  0  0  0
   10.7427  -18.8688   23.9725 C   0  0  1  0  0  0  0  0  0  0  0  0
   11.7542  -19.8054   23.3556 C   0  0  0  0  0  0  0  0  0  0  0  0
   12.0428  -20.9835   24.1844 C   0  0  0  0  0  0  0  0  0  0  0  0
   12.3235  -20.8639   25.4192 O   0  0  0  0  0  0  0  0  0  0  0  0
   11.3908  -18.2746   25.1636 C   0  0  0  0  0  0  0  0  0  0  0  0
   12.4648  -17.6555   25.0211 O   0  0  0  0  0  0  0  0  0  0  0  0
   12.0144  -22.2447   23.6358 O   0  0  0  0  0  0  0  0  0  0  0  0
   10.2651  -12.5354   28.8685 C   0  0  0  0  0  0  0  0  0  0  0  0
   10.2031  -13.8888   27.7188 S   0  0  0  0  0  0  0  0  0  0  0  0
    9.6974  -15.4378   28.4520 C   0  0  0  0  0  0  0  0  0  0  0  0
    9.7330  -16.6138   27.5490 C   0  0  0  0  0  0  0  0  0  0  0  0
   11.0140  -17.3552   27.4315 C   0  0  2  0  0  0  0  0  0  0  0  0
   10.7962  -18.4129   26.4261 N   0  0  0  0  0  0  0  0  0  0  0  0
   11.3889  -18.0387   28.7028 C   0  0  0  0  0  0  0  0  0  0  0  0
   11.4386  -19.3861   28.9095 O   0  0  0  0  0  0  0  0  0  0  0  0
   11.6932  -17.2874   29.6878 O   0  0  0  0  0  0  0  0  0  0  0  0
  2  3  2  0
  2  1  1  0
  4  3  1  0
  5  4  2  0
  6  5  1  0
  7  6  1  0
  7  8  1  6
  9  7  1  0
  9 10  2  0
 11  5  1  0
 11 12  2  0
 12  2  1  0
 13  9  1  0
 14 13  1  0
 14 15  1  6
 16 15  1  0
 17 16  2  0
 18 14  1  0
 19 18  2  0
 20 16  1  0
 22 21  1  0
 23 22  1  0
 25 24  1  1
 24 23  1  0
 25 26  1  0
 26 18  1  0
 27 28  1  0
 27 25  1  0
 29 27  2  0
M  END
$$$$
