YDM.pdb
     RDKit          3D

 29 29  0  0  1  0  0  0  0  0999 V2000
    7.3394  -11.9457   17.6854 O   0  0  0  0  0  0  0  0  0  0  0  0
    7.4139  -12.7484   18.8331 C   0  0  0  0  0  0  0  0  0  0  0  0
    8.5003  -12.6568   19.6841 C   0  0  0  0  0  0  0  0  0  0  0  0
    8.5446  -13.4627   20.8093 C   0  0  0  0  0  0  0  0  0  0  0  0
    7.5475  -14.3622   21.1263 C   0  0  0  0  0  0  0  0  0  0  0  0
    7.7040  -15.1605   22.3417 C   0  0  0  0  0  0  0  0  0  0  0  0
    8.1236  -16.5700   22.1097 C   0  0  2  0  0  0  0  0  0  0  0  0
    7.0590  -17.5215   22.0599 N   0  0  0  0  0  0  0  0  0  0  0  0
    9.0857  -16.9350   23.2097 C   0  0  0  0  0  0  0  0  0  0  0  0
    8.6571  -17.4844   24.2565 O   0  0  0  0  0  0  0  0  0  0  0  0
    6.4686  -14.4467   20.2725 C   0  0  0  0  0  0  0  0  0  0  0  0
    6.4168  -13.6474   19.1496 C   0  0  0  0  0  0  0  0  0  0  0  0
   10.4680  -16.6774   23.1025 N   0  0  0  0  0  0  0  0  0  0  0  0
   11.4413  -16.9575   24.1344 C   0  0  1  0  0  0  0  0  0  0  0  0
   12.8027  -16.5449   23.6273 C   0  0  0  0  0  0  0  0  0  0  0  0
   13.9112  -17.0535   24.4463 C   0  0  0  0  0  0  0  0  0  0  0  0
   13.6914  -17.7425   25.4925 O   0  0  0  0  0  0  0  0  0  0  0  0
   11.1598  -16.1146   25.3184 C   0  0  0  0  0  0  0  0  0  0  0  0
   11.1047  -14.8758   25.1787 O   0  0  0  0  0  0  0  0  0  0  0  0
   15.2148  -16.7915   24.0934 O   0  0  0  0  0  0  0  0  0  0  0  0
    7.6953  -11.3620   26.5825 C   0  0  0  0  0  0  0  0  0  0  0  0
    7.6971  -13.1053   26.9261 S   0  0  0  0  0  0  0  0  0  0  0  0
    9.3311  -13.8047   27.1089 C   0  0  0  0  0  0  0  0  0  0  0  0
    9.3741  -15.2275   27.5250 C   0  0  0  0  0  0  0  0  0  0  0  0
   10.7078  -15.8443   27.7379 C   0  0  2  0  0  0  0  0  0  0  0  0
   10.9601  -16.7119   26.5714 N   0  0  0  0  0  0  0  0  0  0  0  0
   10.7377  -16.7219   28.9431 C   0  0  0  0  0  0  0  0  0  0  0  0
   10.8909  -16.3123   30.2352 O   0  0  0  0  0  0  0  0  0  0  0  0
   10.6052  -17.9746   28.7418 O   0  0  0  0  0  0  0  0  0  0  0  0
  2  3  2  0
  2  1  1  0
  4  3  1  0
  5  4  2  0
  6  5  1  0
  7  6  1  0
  7  8  1  1
  9  7  1  0
  9 10  2  0
 11  5  1  0
 11 12  2  0
 12  2  1  0
 13  9  1  0
 14 13  1  0
 14 15  1  6
 16 15  1  0
 17 16  2  0
 18 14  1  0
 19 18  2  0
 20 16  1  0
 22 21  1  0
 23 22  1  0
 25 24  1  6
 24 23  1  0
 25 26  1  0
 26 18  1  0
 27 28  1  0
 27 25  1  0
 29 27  2  0
M  END
$$$$
