YDM.pdb
     RDKit          3D

 29 29  0  0  1  0  0  0  0  0999 V2000
    7.8694  -12.1299   16.8833 O   0  0  0  0  0  0  0  0  0  0  0  0
    7.8531  -12.8084   18.1107 C   0  0  0  0  0  0  0  0  0  0  0  0
    9.0363  -13.1252   18.7531 C   0  0  0  0  0  0  0  0  0  0  0  0
    8.9872  -13.7955   19.9637 C   0  0  0  0  0  0  0  0  0  0  0  0
    7.8031  -14.1668   20.5670 C   0  0  0  0  0  0  0  0  0  0  0  0
    7.8759  -14.8713   21.8466 C   0  0  0  0  0  0  0  0  0  0  0  0
    7.8685  -16.3562   21.7398 C   0  0  2  0  0  0  0  0  0  0  0  0
    6.6118  -16.9344   21.3827 N   0  0  0  0  0  0  0  0  0  0  0  0
    8.3238  -16.9006   23.0685 C   0  0  0  0  0  0  0  0  0  0  0  0
    7.4872  -17.0740   23.9912 O   0  0  0  0  0  0  0  0  0  0  0  0
    6.6289  -13.8470   19.9197 C   0  0  0  0  0  0  0  0  0  0  0  0
    6.6692  -13.1794   18.7134 C   0  0  0  0  0  0  0  0  0  0  0  0
    9.6738  -17.2257   23.3142 N   0  0  0  0  0  0  0  0  0  0  0  0
   10.2137  -17.5819   24.6073 C   0  0  1  0  0  0  0  0  0  0  0  0
   11.5867  -18.1762   24.4009 C   0  0  0  0  0  0  0  0  0  0  0  0
   12.1997  -18.6774   25.6384 C   0  0  0  0  0  0  0  0  0  0  0  0
   11.5734  -18.6346   26.7446 O   0  0  0  0  0  0  0  0  0  0  0  0
   10.4027  -16.3564   25.4163 C   0  0  0  0  0  0  0  0  0  0  0  0
   10.8544  -15.3323   24.8648 O   0  0  0  0  0  0  0  0  0  0  0  0
   13.4700  -19.2050   25.6221 O   0  0  0  0  0  0  0  0  0  0  0  0
    6.9731  -11.8703   25.9428 C   0  0  0  0  0  0  0  0  0  0  0  0
    7.1815  -12.2268   27.6711 S   0  0  0  0  0  0  0  0  0  0  0  0
    8.6927  -13.1008   28.0519 C   0  0  0  0  0  0  0  0  0  0  0  0
    8.9023  -14.3677   27.3099 C   0  0  0  0  0  0  0  0  0  0  0  0
   10.1752  -15.0976   27.5364 C   0  0  2  0  0  0  0  0  0  0  0  0
   10.0752  -16.3605   26.7799 N   0  0  0  0  0  0  0  0  0  0  0  0
   10.3670  -15.4664   28.9685 C   0  0  0  0  0  0  0  0  0  0  0  0
   10.3953  -16.7312   29.4787 O   0  0  0  0  0  0  0  0  0  0  0  0
   10.5209  -14.5037   29.7912 O   0  0  0  0  0  0  0  0  0  0  0  0
  2  3  2  0
  2  1  1  0
  4  3  1  0
  5  4  2  0
  6  5  1  0
  7  6  1  0
  7  8  1  1
  9  7  1  0
  9 10  2  0
 11  5  1  0
 11 12  2  0
 12  2  1  0
 13  9  1  0
 14 13  1  0
 14 15  1  6
 16 15  1  0
 17 16  2  0
 18 14  1  0
 19 18  2  0
 20 16  1  0
 22 21  1  0
 23 22  1  0
 25 24  1  1
 24 23  1  0
 25 26  1  0
 26 18  1  0
 27 28  1  0
 27 25  1  0
 29 27  2  0
M  END
$$$$
