YDM.pdb
     RDKit          3D

 29 29  0  0  1  0  0  0  0  0999 V2000
    7.9760  -12.8503   16.8317 O   0  0  0  0  0  0  0  0  0  0  0  0
    7.8669  -13.3472   18.1387 C   0  0  0  0  0  0  0  0  0  0  0  0
    7.7599  -14.7074   18.3656 C   0  0  0  0  0  0  0  0  0  0  0  0
    7.6536  -15.1670   19.6674 C   0  0  0  0  0  0  0  0  0  0  0  0
    7.6491  -14.3257   20.7610 C   0  0  0  0  0  0  0  0  0  0  0  0
    7.5315  -14.9266   22.0891 C   0  0  0  0  0  0  0  0  0  0  0  0
    7.5416  -16.4153   22.1009 C   0  0  2  0  0  0  0  0  0  0  0  0
    6.2560  -17.0320   22.1902 N   0  0  0  0  0  0  0  0  0  0  0  0
    8.3981  -16.8457   23.2629 C   0  0  0  0  0  0  0  0  0  0  0  0
    7.8624  -17.1019   24.3713 O   0  0  0  0  0  0  0  0  0  0  0  0
    7.7561  -12.9717   20.5254 C   0  0  0  0  0  0  0  0  0  0  0  0
    7.8624  -12.5057   19.2316 C   0  0  0  0  0  0  0  0  0  0  0  0
    9.7978  -16.9719   23.1467 N   0  0  0  0  0  0  0  0  0  0  0  0
   10.6787  -17.3944   24.2125 C   0  0  1  0  0  0  0  0  0  0  0  0
   12.0605  -17.5917   23.6359 C   0  0  0  0  0  0  0  0  0  0  0  0
   12.9792  -18.2917   24.5439 C   0  0  0  0  0  0  0  0  0  0  0  0
   14.2029  -18.4573   24.2392 O   0  0  0  0  0  0  0  0  0  0  0  0
   10.7919  -16.3118   25.2159 C   0  0  0  0  0  0  0  0  0  0  0  0
   11.4305  -15.2807   24.9226 O   0  0  0  0  0  0  0  0  0  0  0  0
   12.5288  -18.7833   25.7471 O   0  0  0  0  0  0  0  0  0  0  0  0
    6.5232  -11.6744   25.9088 C   0  0  0  0  0  0  0  0  0  0  0  0
    6.9436  -13.0134   26.9987 S   0  0  0  0  0  0  0  0  0  0  0  0
    8.5770  -13.6837   26.7241 C   0  0  0  0  0  0  0  0  0  0  0  0
    8.9802  -14.7789   27.6393 C   0  0  0  0  0  0  0  0  0  0  0  0
   10.3311  -15.3675   27.4580 C   0  0  2  0  0  0  0  0  0  0  0  0
   10.1859  -16.4559   26.4724 N   0  0  0  0  0  0  0  0  0  0  0  0
   10.8496  -15.9867   28.7116 C   0  0  0  0  0  0  0  0  0  0  0  0
   11.3552  -15.3218   29.7901 O   0  0  0  0  0  0  0  0  0  0  0  0
   10.8133  -17.2601   28.7779 O   0  0  0  0  0  0  0  0  0  0  0  0
  2  3  2  0
  2  1  1  0
  4  3  1  0
  5  4  2  0
  6  5  1  0
  7  6  1  0
  7  8  1  1
  9  7  1  0
  9 10  2  0
 11  5  1  0
 11 12  2  0
 12  2  1  0
 13  9  1  0
 14 13  1  0
 14 15  1  6
 16 15  1  0
 17 16  2  0
 18 14  1  0
 19 18  2  0
 20 16  1  0
 22 21  1  0
 23 22  1  0
 25 24  1  1
 24 23  1  0
 25 26  1  0
 26 18  1  0
 27 28  1  0
 27 25  1  0
 29 27  2  0
M  END
$$$$
