YDM.pdb
     RDKit          3D

 29 29  0  0  1  0  0  0  0  0999 V2000
    5.8678  -10.5790   26.2541 O   0  0  0  0  0  0  0  0  0  0  0  0
    6.3286  -11.8445   25.8630 C   0  0  0  0  0  0  0  0  0  0  0  0
    5.9115  -12.4051   24.6694 C   0  0  0  0  0  0  0  0  0  0  0  0
    6.3843  -13.6563   24.3110 C   0  0  0  0  0  0  0  0  0  0  0  0
    7.2605  -14.3788   25.0946 C   0  0  0  0  0  0  0  0  0  0  0  0
    7.6913  -15.6905   24.6123 C   0  0  0  0  0  0  0  0  0  0  0  0
    8.4785  -15.6605   23.3491 C   0  0  2  0  0  0  0  0  0  0  0  0
    7.7304  -15.9182   22.1595 N   0  0  0  0  0  0  0  0  0  0  0  0
    9.5838  -16.6744   23.4888 C   0  0  0  0  0  0  0  0  0  0  0  0
    9.3083  -17.8554   23.8214 O   0  0  0  0  0  0  0  0  0  0  0  0
    7.6709  -13.8123   26.2824 C   0  0  0  0  0  0  0  0  0  0  0  0
    7.2045  -12.5664   26.6467 C   0  0  0  0  0  0  0  0  0  0  0  0
   10.9333  -16.3380   23.2562 N   0  0  0  0  0  0  0  0  0  0  0  0
   12.0624  -17.1709   23.6052 C   0  0  1  0  0  0  0  0  0  0  0  0
   13.2587  -16.7067   22.8089 C   0  0  0  0  0  0  0  0  0  0  0  0
   13.1743  -17.0364   21.3797 C   0  0  0  0  0  0  0  0  0  0  0  0
   12.5455  -18.0673   20.9805 O   0  0  0  0  0  0  0  0  0  0  0  0
   12.4018  -16.9676   25.0319 C   0  0  0  0  0  0  0  0  0  0  0  0
   13.3191  -16.1750   25.3275 O   0  0  0  0  0  0  0  0  0  0  0  0
   13.7779  -16.2305   20.4424 O   0  0  0  0  0  0  0  0  0  0  0  0
    9.3278  -13.3231   28.2736 C   0  0  0  0  0  0  0  0  0  0  0  0
   10.7256  -14.3096   28.7536 S   0  0  0  0  0  0  0  0  0  0  0  0
   10.9765  -15.7537   27.7317 C   0  0  0  0  0  0  0  0  0  0  0  0
   12.1276  -16.6100   28.1074 C   0  0  0  0  0  0  0  0  0  0  0  0
   12.3350  -17.8634   27.3392 C   0  0  2  0  0  0  0  0  0  0  0  0
   11.6953  -17.6612   26.0251 N   0  0  0  0  0  0  0  0  0  0  0  0
   11.6592  -19.0320   27.9730 C   0  0  0  0  0  0  0  0  0  0  0  0
   10.6077  -19.7320   27.4583 O   0  0  0  0  0  0  0  0  0  0  0  0
   12.1125  -19.4107   29.1037 O   0  0  0  0  0  0  0  0  0  0  0  0
  2  3  2  0
  2  1  1  0
  4  3  1  0
  5  4  2  0
  6  5  1  0
  7  6  1  0
  7  8  1  6
  9  7  1  0
  9 10  2  0
 11  5  1  0
 11 12  2  0
 12  2  1  0
 13  9  1  0
 14 13  1  0
 14 15  1  6
 16 15  1  0
 17 16  2  0
 18 14  1  0
 19 18  2  0
 20 16  1  0
 22 21  1  0
 23 22  1  0
 25 24  1  1
 24 23  1  0
 25 26  1  0
 26 18  1  0
 27 28  1  0
 27 25  1  0
 29 27  2  0
M  END
$$$$
