YDM.pdb
     RDKit          3D

 29 29  0  0  1  0  0  0  0  0999 V2000
   16.2601  -23.2774   23.2343 O   0  0  0  0  0  0  0  0  0  0  0  0
   15.3890  -22.1804   23.1650 C   0  0  0  0  0  0  0  0  0  0  0  0
   15.7575  -20.9572   23.6949 C   0  0  0  0  0  0  0  0  0  0  0  0
   14.8753  -19.8932   23.6108 C   0  0  0  0  0  0  0  0  0  0  0  0
   13.6335  -19.9946   23.0181 C   0  0  0  0  0  0  0  0  0  0  0  0
   12.7874  -18.8021   22.9885 C   0  0  0  0  0  0  0  0  0  0  0  0
   12.5609  -18.2342   21.6311 C   0  0  2  0  0  0  0  0  0  0  0  0
   13.7210  -18.1613   20.8005 N   0  0  0  0  0  0  0  0  0  0  0  0
   11.9759  -16.8584   21.8158 C   0  0  0  0  0  0  0  0  0  0  0  0
   12.5678  -15.8591   21.3338 O   0  0  0  0  0  0  0  0  0  0  0  0
   13.2747  -21.2174   22.4927 C   0  0  0  0  0  0  0  0  0  0  0  0
   14.1476  -22.2823   22.5723 C   0  0  0  0  0  0  0  0  0  0  0  0
   10.7717  -16.6523   22.5202 N   0  0  0  0  0  0  0  0  0  0  0  0
    9.6734  -15.8358   22.0539 C   0  0  1  0  0  0  0  0  0  0  0  0
    8.7249  -16.7161   21.2752 C   0  0  0  0  0  0  0  0  0  0  0  0
    7.4937  -16.0288   20.8627 C   0  0  0  0  0  0  0  0  0  0  0  0
    7.5189  -14.8218   20.4627 O   0  0  0  0  0  0  0  0  0  0  0  0
    8.9133  -15.3228   23.2162 C   0  0  0  0  0  0  0  0  0  0  0  0
    8.1114  -14.3821   23.0460 O   0  0  0  0  0  0  0  0  0  0  0  0
    6.2844  -16.6833   20.9022 O   0  0  0  0  0  0  0  0  0  0  0  0
    7.8783  -10.8947   26.5129 C   0  0  0  0  0  0  0  0  0  0  0  0
    6.5424  -12.0637   26.4338 S   0  0  0  0  0  0  0  0  0  0  0  0
    7.0337  -13.7472   26.7759 C   0  0  0  0  0  0  0  0  0  0  0  0
    7.5339  -14.5160   25.6105 C   0  0  0  0  0  0  0  0  0  0  0  0
    8.9189  -15.0467   25.6769 C   0  0  2  0  0  0  0  0  0  0  0  0
    9.1014  -15.8943   24.4830 N   0  0  0  0  0  0  0  0  0  0  0  0
    9.1312  -15.9228   26.8648 C   0  0  0  0  0  0  0  0  0  0  0  0
    9.1588  -15.5213   28.1682 O   0  0  0  0  0  0  0  0  0  0  0  0
    9.3010  -17.1661   26.6353 O   0  0  0  0  0  0  0  0  0  0  0  0
  2  3  2  0
  2  1  1  0
  4  3  1  0
  5  4  2  0
  6  5  1  0
  7  6  1  0
  7  8  1  1
  9  7  1  0
  9 10  2  0
 11  5  1  0
 11 12  2  0
 12  2  1  0
 13  9  1  0
 14 13  1  0
 14 15  1  6
 16 15  1  0
 17 16  2  0
 18 14  1  0
 19 18  2  0
 20 16  1  0
 22 21  1  0
 23 22  1  0
 25 24  1  1
 24 23  1  0
 25 26  1  0
 26 18  1  0
 27 28  1  0
 27 25  1  0
 29 27  2  0
M  END
$$$$
