YDM.pdb
     RDKit          3D

 29 29  0  0  1  0  0  0  0  0999 V2000
    7.1425  -12.6117   16.7373 O   0  0  0  0  0  0  0  0  0  0  0  0
    7.5553  -13.2507   17.9156 C   0  0  0  0  0  0  0  0  0  0  0  0
    6.8743  -13.0438   19.1015 C   0  0  0  0  0  0  0  0  0  0  0  0
    7.3064  -13.6891   20.2479 C   0  0  0  0  0  0  0  0  0  0  0  0
    8.3945  -14.5374   20.2653 C   0  0  0  0  0  0  0  0  0  0  0  0
    8.7573  -15.1627   21.5366 C   0  0  0  0  0  0  0  0  0  0  0  0
    8.5583  -16.6374   21.5830 C   0  0  2  0  0  0  0  0  0  0  0  0
    7.1997  -17.0711   21.4980 N   0  0  0  0  0  0  0  0  0  0  0  0
    9.1739  -17.1297   22.8666 C   0  0  0  0  0  0  0  0  0  0  0  0
    8.4442  -17.3338   23.8702 O   0  0  0  0  0  0  0  0  0  0  0  0
    9.0671  -14.7376   19.0789 C   0  0  0  0  0  0  0  0  0  0  0  0
    8.6431  -14.0985   17.9324 C   0  0  0  0  0  0  0  0  0  0  0  0
   10.5585  -17.3719   22.9807 N   0  0  0  0  0  0  0  0  0  0  0  0
   11.2291  -17.7630   24.2005 C   0  0  1  0  0  0  0  0  0  0  0  0
   12.6807  -18.0291   23.8795 C   0  0  0  0  0  0  0  0  0  0  0  0
   13.3555  -18.8720   24.8757 C   0  0  0  0  0  0  0  0  0  0  0  0
   14.5383  -19.2973   24.6819 O   0  0  0  0  0  0  0  0  0  0  0  0
   11.2097  -16.6331   25.1569 C   0  0  0  0  0  0  0  0  0  0  0  0
   11.4527  -15.4830   24.7382 O   0  0  0  0  0  0  0  0  0  0  0  0
   12.7154  -19.2182   26.0431 O   0  0  0  0  0  0  0  0  0  0  0  0
    6.6973  -12.1164   28.5582 C   0  0  0  0  0  0  0  0  0  0  0  0
    7.2968  -13.3850   27.4679 S   0  0  0  0  0  0  0  0  0  0  0  0
    8.8993  -14.0314   27.9228 C   0  0  0  0  0  0  0  0  0  0  0  0
    9.4329  -15.0962   27.0392 C   0  0  0  0  0  0  0  0  0  0  0  0
   10.7359  -15.7072   27.4040 C   0  0  2  0  0  0  0  0  0  0  0  0
   10.9214  -16.8659   26.5095 N   0  0  0  0  0  0  0  0  0  0  0  0
   10.7413  -16.2338   28.7992 C   0  0  0  0  0  0  0  0  0  0  0  0
   10.7963  -17.5467   29.1653 O   0  0  0  0  0  0  0  0  0  0  0  0
   10.6914  -15.3700   29.7366 O   0  0  0  0  0  0  0  0  0  0  0  0
  2  3  2  0
  2  1  1  0
  4  3  1  0
  5  4  2  0
  6  5  1  0
  7  6  1  0
  7  8  1  1
  9  7  1  0
  9 10  2  0
 11  5  1  0
 11 12  2  0
 12  2  1  0
 13  9  1  0
 14 13  1  0
 14 15  1  6
 16 15  1  0
 17 16  2  0
 18 14  1  0
 19 18  2  0
 20 16  1  0
 22 21  1  0
 23 22  1  0
 25 24  1  6
 24 23  1  0
 25 26  1  0
 26 18  1  0
 27 28  1  0
 27 25  1  0
 29 27  2  0
M  END
$$$$
