YDM.pdb
     RDKit          3D

 29 29  0  0  1  0  0  0  0  0999 V2000
    7.7490  -12.7510   16.4290 O   0  0  0  0  0  0  0  0  0  0  0  0
    7.7827  -13.3384   17.7022 C   0  0  0  0  0  0  0  0  0  0  0  0
    7.9497  -12.5571   18.8312 C   0  0  0  0  0  0  0  0  0  0  0  0
    7.9788  -13.1668   20.0741 C   0  0  0  0  0  0  0  0  0  0  0  0
    7.8479  -14.5298   20.2433 C   0  0  0  0  0  0  0  0  0  0  0  0
    7.8944  -15.0602   21.6054 C   0  0  0  0  0  0  0  0  0  0  0  0
    7.8954  -16.5464   21.6940 C   0  0  2  0  0  0  0  0  0  0  0  0
    6.6076  -17.1611   21.6237 N   0  0  0  0  0  0  0  0  0  0  0  0
    8.5688  -16.9148   22.9901 C   0  0  0  0  0  0  0  0  0  0  0  0
    7.8710  -17.1830   24.0013 O   0  0  0  0  0  0  0  0  0  0  0  0
    7.6819  -15.3006   19.1126 C   0  0  0  0  0  0  0  0  0  0  0  0
    7.6518  -14.7011   17.8707 C   0  0  0  0  0  0  0  0  0  0  0  0
    9.9730  -16.9693   23.1077 N   0  0  0  0  0  0  0  0  0  0  0  0
   10.6856  -17.3539   24.3055 C   0  0  1  0  0  0  0  0  0  0  0  0
   12.1284  -17.6076   23.9384 C   0  0  0  0  0  0  0  0  0  0  0  0
   12.9173  -18.1892   25.0329 C   0  0  0  0  0  0  0  0  0  0  0  0
   14.1771  -18.3304   24.9301 O   0  0  0  0  0  0  0  0  0  0  0  0
   10.6870  -16.2236   25.2617 C   0  0  0  0  0  0  0  0  0  0  0  0
   10.7298  -15.0578   24.8189 O   0  0  0  0  0  0  0  0  0  0  0  0
   12.3029  -18.5937   26.1953 O   0  0  0  0  0  0  0  0  0  0  0  0
    6.9669  -12.3291   26.0057 C   0  0  0  0  0  0  0  0  0  0  0  0
    7.0147  -12.9995   27.6506 S   0  0  0  0  0  0  0  0  0  0  0  0
    8.6041  -13.6740   28.1106 C   0  0  0  0  0  0  0  0  0  0  0  0
    9.1187  -14.7525   27.2323 C   0  0  0  0  0  0  0  0  0  0  0  0
   10.4434  -15.3369   27.5607 C   0  0  2  0  0  0  0  0  0  0  0  0
   10.6406  -16.4736   26.6409 N   0  0  0  0  0  0  0  0  0  0  0  0
   10.4890  -15.8891   28.9452 C   0  0  0  0  0  0  0  0  0  0  0  0
   10.7888  -15.1950   30.0806 O   0  0  0  0  0  0  0  0  0  0  0  0
   10.2195  -17.1291   29.0755 O   0  0  0  0  0  0  0  0  0  0  0  0
  2  3  2  0
  2  1  1  0
  4  3  1  0
  5  4  2  0
  6  5  1  0
  7  6  1  0
  7  8  1  1
  9  7  1  0
  9 10  2  0
 11  5  1  0
 11 12  2  0
 12  2  1  0
 13  9  1  0
 14 13  1  0
 14 15  1  6
 16 15  1  0
 17 16  2  0
 18 14  1  0
 19 18  2  0
 20 16  1  0
 22 21  1  0
 23 22  1  0
 25 24  1  6
 24 23  1  0
 25 26  1  0
 26 18  1  0
 27 28  1  0
 27 25  1  0
 29 27  2  0
M  END
$$$$
