YDM.pdb
     RDKit          3D

 29 29  0  0  1  0  0  0  0  0999 V2000
    8.0855  -11.0332   20.1380 O   0  0  0  0  0  0  0  0  0  0  0  0
    8.2202  -12.4290   20.1145 C   0  0  0  0  0  0  0  0  0  0  0  0
    7.4344  -13.2237   20.9293 C   0  0  0  0  0  0  0  0  0  0  0  0
    7.5911  -14.5987   20.8831 C   0  0  0  0  0  0  0  0  0  0  0  0
    8.5024  -15.2215   20.0552 C   0  0  0  0  0  0  0  0  0  0  0  0
    8.5785  -16.6815   20.0930 C   0  0  0  0  0  0  0  0  0  0  0  0
    7.5733  -17.3336   20.9767 C   0  0  2  0  0  0  0  0  0  0  0  0
    6.2627  -16.7667   20.9294 N   0  0  0  0  0  0  0  0  0  0  0  0
    8.1086  -17.2697   22.3832 C   0  0  0  0  0  0  0  0  0  0  0  0
    7.4030  -16.7717   23.2972 O   0  0  0  0  0  0  0  0  0  0  0  0
    9.2814  -14.4217   19.2467 C   0  0  0  0  0  0  0  0  0  0  0  0
    9.1315  -13.0511   19.2867 C   0  0  0  0  0  0  0  0  0  0  0  0
    9.3908  -17.7559   22.7121 N   0  0  0  0  0  0  0  0  0  0  0  0
    9.9064  -17.8769   24.0575 C   0  0  1  0  0  0  0  0  0  0  0  0
   11.2695  -18.5234   23.9869 C   0  0  0  0  0  0  0  0  0  0  0  0
   11.2240  -19.9480   23.6309 C   0  0  0  0  0  0  0  0  0  0  0  0
   10.4256  -20.7454   24.2177 O   0  0  0  0  0  0  0  0  0  0  0  0
   10.1099  -16.5269   24.6300 C   0  0  0  0  0  0  0  0  0  0  0  0
   10.7443  -15.6798   23.9688 O   0  0  0  0  0  0  0  0  0  0  0  0
   12.0497  -20.4473   22.6505 O   0  0  0  0  0  0  0  0  0  0  0  0
    5.8672  -12.6853   26.1089 C   0  0  0  0  0  0  0  0  0  0  0  0
    7.1604  -11.8432   26.9896 S   0  0  0  0  0  0  0  0  0  0  0  0
    8.6911  -12.7607   27.0781 C   0  0  0  0  0  0  0  0  0  0  0  0
    8.6599  -14.1150   26.4745 C   0  0  0  0  0  0  0  0  0  0  0  0
    9.9148  -14.9081   26.4935 C   0  0  2  0  0  0  0  0  0  0  0  0
    9.5925  -16.2183   25.8963 N   0  0  0  0  0  0  0  0  0  0  0  0
   10.3946  -15.1722   27.8805 C   0  0  0  0  0  0  0  0  0  0  0  0
   11.0059  -14.2753   28.7067 O   0  0  0  0  0  0  0  0  0  0  0  0
   10.2121  -16.3504   28.3341 O   0  0  0  0  0  0  0  0  0  0  0  0
  2  3  2  0
  2  1  1  0
  4  3  1  0
  5  4  2  0
  6  5  1  0
  7  6  1  0
  7  8  1  1
  9  7  1  0
  9 10  2  0
 11  5  1  0
 11 12  2  0
 12  2  1  0
 13  9  1  0
 14 13  1  0
 14 15  1  6
 16 15  1  0
 17 16  2  0
 18 14  1  0
 19 18  2  0
 20 16  1  0
 22 21  1  0
 23 22  1  0
 25 24  1  1
 24 23  1  0
 25 26  1  0
 26 18  1  0
 27 28  1  0
 27 25  1  0
 29 27  2  0
M  END
$$$$
