YDM.pdb
     RDKit          3D

 29 29  0  0  1  0  0  0  0  0999 V2000
    2.4441  -23.8554   24.0413 O   0  0  0  0  0  0  0  0  0  0  0  0
    3.6513  -23.1456   24.1197 C   0  0  0  0  0  0  0  0  0  0  0  0
    4.1468  -22.7372   25.3447 C   0  0  0  0  0  0  0  0  0  0  0  0
    5.3412  -22.0381   25.3892 C   0  0  0  0  0  0  0  0  0  0  0  0
    6.0691  -21.7257   24.2594 C   0  0  0  0  0  0  0  0  0  0  0  0
    7.3172  -20.9830   24.4304 C   0  0  0  0  0  0  0  0  0  0  0  0
    7.1743  -19.5028   24.3599 C   0  0  2  0  0  0  0  0  0  0  0  0
    6.4752  -19.0128   23.2143 N   0  0  0  0  0  0  0  0  0  0  0  0
    8.5622  -18.9188   24.4016 C   0  0  0  0  0  0  0  0  0  0  0  0
    9.3946  -19.3484   25.2405 O   0  0  0  0  0  0  0  0  0  0  0  0
    5.5676  -22.1367   23.0430 C   0  0  0  0  0  0  0  0  0  0  0  0
    4.3784  -22.8335   22.9900 C   0  0  0  0  0  0  0  0  0  0  0  0
    8.9629  -17.8937   23.5200 N   0  0  0  0  0  0  0  0  0  0  0  0
   10.2410  -17.2192   23.5666 C   0  0  1  0  0  0  0  0  0  0  0  0
   10.5343  -16.6630   22.1935 C   0  0  0  0  0  0  0  0  0  0  0  0
   10.7188  -17.6997   21.1691 C   0  0  0  0  0  0  0  0  0  0  0  0
   10.3383  -17.5120   19.9701 O   0  0  0  0  0  0  0  0  0  0  0  0
   10.1518  -16.0583   24.4809 C   0  0  0  0  0  0  0  0  0  0  0  0
   10.1436  -14.9079   23.9975 O   0  0  0  0  0  0  0  0  0  0  0  0
   11.3101  -18.8993   21.4911 O   0  0  0  0  0  0  0  0  0  0  0  0
    7.0810  -11.3940   25.2472 C   0  0  0  0  0  0  0  0  0  0  0  0
    6.8103  -12.4049   26.6832 S   0  0  0  0  0  0  0  0  0  0  0  0
    8.2690  -13.2720   27.2426 C   0  0  0  0  0  0  0  0  0  0  0  0
    8.7361  -14.3703   26.3624 C   0  0  0  0  0  0  0  0  0  0  0  0
    9.9771  -15.0863   26.7516 C   0  0  2  0  0  0  0  0  0  0  0  0
   10.0784  -16.2625   25.8664 N   0  0  0  0  0  0  0  0  0  0  0  0
    9.9162  -15.6021   28.1495 C   0  0  0  0  0  0  0  0  0  0  0  0
   10.0840  -14.8690   29.2875 O   0  0  0  0  0  0  0  0  0  0  0  0
    9.6827  -16.8484   28.2895 O   0  0  0  0  0  0  0  0  0  0  0  0
  2  3  2  0
  2  1  1  0
  4  3  1  0
  5  4  2  0
  6  5  1  0
  7  6  1  0
  7  8  1  6
  9  7  1  0
  9 10  2  0
 11  5  1  0
 11 12  2  0
 12  2  1  0
 13  9  1  0
 14 13  1  0
 14 15  1  6
 16 15  1  0
 17 16  2  0
 18 14  1  0
 19 18  2  0
 20 16  1  0
 22 21  1  0
 23 22  1  0
 25 24  1  6
 24 23  1  0
 25 26  1  0
 26 18  1  0
 27 28  1  0
 27 25  1  0
 29 27  2  0
M  END
$$$$
