AHF.pdb
     RDKit          3D

 27 28  0  0  1  0  0  0  0  0999 V2000
   19.5841  -13.4316  -15.5809 C   0  0  0  0  0  0  0  0  0  0  0  0
   19.2016  -13.1865  -17.0467 C   0  0  2  0  0  0  0  0  0  0  0  0
   19.6974  -14.3217  -17.7938 N   0  0  0  0  0  0  0  0  0  0  0  0
   20.0063  -11.9990  -17.4735 C   0  0  0  0  0  0  0  0  0  0  0  0
   21.2226  -12.0829  -17.7869 O   0  0  0  0  0  0  0  0  0  0  0  0
   19.3265  -10.7554  -17.5096 N   0  0  0  0  0  0  0  0  0  0  0  0
   20.0789   -9.5196  -17.8986 C   0  0  1  0  0  0  0  0  0  0  0  0
   19.2953   -8.8176  -18.9525 C   0  0  0  0  0  0  0  0  0  0  0  0
   19.4516   -9.4355  -20.2683 C   0  0  0  0  0  0  0  0  0  0  0  0
   18.6370  -10.3148  -20.9524 C   0  0  0  0  0  0  0  0  0  0  0  0
   19.1919  -10.6690  -22.1213 N   0  0  0  0  0  0  0  0  0  0  0  0
   20.3666  -10.0184  -22.1936 C   0  0  0  0  0  0  0  0  0  0  0  0
   20.5334   -9.2764  -21.0897 N   0  0  0  0  0  0  0  0  0  0  0  0
   20.3321   -8.8277  -16.6491 C   0  0  0  0  0  0  0  0  0  0  0  0
   19.4161   -8.8523  -15.7417 O   0  0  0  0  0  0  0  0  0  0  0  0
   21.5448   -8.1379  -16.3896 N   0  0  0  0  0  0  0  0  0  0  0  0
   21.7029   -7.4421  -15.1026 C   0  0  1  0  0  0  0  0  0  0  0  0
   22.4123   -8.3696  -14.1274 C   0  0  0  0  0  0  0  0  0  0  0  0
   23.6449   -8.9656  -14.6568 C   0  0  0  0  0  0  0  0  0  0  0  0
   24.4644   -8.1668  -15.4612 C   0  0  0  0  0  0  0  0  0  0  0  0
   25.6415   -8.6357  -15.9888 C   0  0  0  0  0  0  0  0  0  0  0  0
   26.0297   -9.9215  -15.7233 C   0  0  0  0  0  0  0  0  0  0  0  0
   25.2573  -10.7441  -14.9380 C   0  0  0  0  0  0  0  0  0  0  0  0
   24.0902  -10.2416  -14.4296 C   0  0  0  0  0  0  0  0  0  0  0  0
   22.4103   -6.1852  -15.2423 C   0  0  0  0  0  0  0  0  0  0  0  0
   22.9389   -5.7642  -16.2869 O   0  0  0  0  0  0  0  0  0  0  0  0
   22.5242   -5.3491  -14.1227 O   0  0  0  0  0  0  0  0  0  0  0  0
  2  1  1  1
  2  3  1  0
  4  2  1  0
  5  4  2  0
  6  4  1  0
  7  6  1  0
  7  8  1  6
  9  8  1  0
 10  9  2  0
 11 10  1  0
 12 11  1  0
 12 13  2  0
 13  9  1  0
 14 15  2  0
 14  7  1  0
 16 14  1  0
 17 16  1  0
 17 18  1  1
 18 19  1  0
 19 24  1  0
 19 20  2  0
 20 21  1  0
 21 22  2  0
 23 22  1  0
 24 23  2  0
 25 17  1  0
 26 25  2  0
 27 25  1  0
M  END
$$$$
