AHF.pdb
     RDKit          3D

 27 28  0  0  1  0  0  0  0  0999 V2000
   20.7150   -9.5974  -19.2996 C   0  0  0  0  0  0  0  0  0  0  0  0
   19.7353  -10.6276  -18.7219 C   0  0  2  0  0  0  0  0  0  0  0  0
   18.7726  -10.9060  -19.7651 N   0  0  0  0  0  0  0  0  0  0  0  0
   19.0020   -9.9102  -17.6323 C   0  0  0  0  0  0  0  0  0  0  0  0
   18.4422   -8.7971  -17.8125 O   0  0  0  0  0  0  0  0  0  0  0  0
   18.9653  -10.5505  -16.3679 N   0  0  0  0  0  0  0  0  0  0  0  0
   18.2109   -9.9096  -15.2432 C   0  0  1  0  0  0  0  0  0  0  0  0
   17.9380  -10.9552  -14.2188 C   0  0  0  0  0  0  0  0  0  0  0  0
   17.2079  -10.4297  -13.0663 C   0  0  0  0  0  0  0  0  0  0  0  0
   16.7972   -9.1458  -12.7698 C   0  0  0  0  0  0  0  0  0  0  0  0
   16.1936   -9.1020  -11.5726 N   0  0  0  0  0  0  0  0  0  0  0  0
   16.2136  -10.3586  -11.0939 C   0  0  0  0  0  0  0  0  0  0  0  0
   16.8185  -11.1628  -11.9795 N   0  0  0  0  0  0  0  0  0  0  0  0
   19.0118   -8.7615  -14.8629 C   0  0  0  0  0  0  0  0  0  0  0  0
   20.2937   -8.8972  -14.8259 O   0  0  0  0  0  0  0  0  0  0  0  0
   18.4395   -7.5034  -14.5410 N   0  0  0  0  0  0  0  0  0  0  0  0
   19.3334   -6.3818  -14.2114 C   0  0  1  0  0  0  0  0  0  0  0  0
   20.1130   -5.9930  -15.4587 C   0  0  0  0  0  0  0  0  0  0  0  0
   20.9154   -4.7732  -15.3072 C   0  0  0  0  0  0  0  0  0  0  0  0
   20.4246   -3.5928  -15.8752 C   0  0  0  0  0  0  0  0  0  0  0  0
   21.1007   -2.4028  -15.7724 C   0  0  0  0  0  0  0  0  0  0  0  0
   22.2901   -2.3641  -15.0955 C   0  0  0  0  0  0  0  0  0  0  0  0
   22.8123   -3.4984  -14.5204 C   0  0  0  0  0  0  0  0  0  0  0  0
   22.1099   -4.6665  -14.6438 C   0  0  0  0  0  0  0  0  0  0  0  0
   18.6130   -5.2486  -13.6668 C   0  0  0  0  0  0  0  0  0  0  0  0
   19.1284   -4.1972  -13.2463 O   0  0  0  0  0  0  0  0  0  0  0  0
   17.2142   -5.3115  -13.5959 O   0  0  0  0  0  0  0  0  0  0  0  0
  2  1  1  6
  2  3  1  0
  4  2  1  0
  5  4  2  0
  6  4  1  0
  7  6  1  0
  7  8  1  1
  9  8  1  0
 10  9  2  0
 11 10  1  0
 12 11  1  0
 12 13  2  0
 13  9  1  0
 14 15  2  0
 14  7  1  0
 16 14  1  0
 17 16  1  0
 17 18  1  6
 18 19  1  0
 19 24  1  0
 19 20  2  0
 20 21  1  0
 21 22  2  0
 23 22  1  0
 24 23  2  0
 25 17  1  0
 26 25  2  0
 27 25  1  0
M  END
$$$$
