AHF.pdb
     RDKit          3D

 27 28  0  0  1  0  0  0  0  0999 V2000
   27.8737  -18.9328  -15.3585 C   0  0  0  0  0  0  0  0  0  0  0  0
   27.9530  -20.1196  -14.3889 C   0  0  2  0  0  0  0  0  0  0  0  0
   27.3403  -21.2418  -15.0655 N   0  0  0  0  0  0  0  0  0  0  0  0
   27.0575  -19.7584  -13.2455 C   0  0  0  0  0  0  0  0  0  0  0  0
   26.8922  -18.5699  -12.8648 O   0  0  0  0  0  0  0  0  0  0  0  0
   26.3932  -20.8317  -12.6000 N   0  0  0  0  0  0  0  0  0  0  0  0
   25.4659  -20.5403  -11.4599 C   0  0  1  0  0  0  0  0  0  0  0  0
   24.2008  -21.2902  -11.6938 C   0  0  0  0  0  0  0  0  0  0  0  0
   23.2834  -20.5739  -12.5786 C   0  0  0  0  0  0  0  0  0  0  0  0
   23.3413  -19.2929  -13.0891 C   0  0  0  0  0  0  0  0  0  0  0  0
   22.2542  -19.0236  -13.8275 N   0  0  0  0  0  0  0  0  0  0  0  0
   21.4922  -20.1312  -13.7948 C   0  0  0  0  0  0  0  0  0  0  0  0
   22.0980  -21.0666  -13.0499 N   0  0  0  0  0  0  0  0  0  0  0  0
   26.2356  -20.8383  -10.2671 C   0  0  0  0  0  0  0  0  0  0  0  0
   26.9631  -21.9031  -10.2606 O   0  0  0  0  0  0  0  0  0  0  0  0
   26.2226  -20.0022   -9.1204 N   0  0  0  0  0  0  0  0  0  0  0  0
   26.9660  -20.4284   -7.9241 C   0  0  1  0  0  0  0  0  0  0  0  0
   27.6650  -19.2178   -7.3238 C   0  0  0  0  0  0  0  0  0  0  0  0
   28.3198  -19.4817   -6.0367 C   0  0  0  0  0  0  0  0  0  0  0  0
   29.4264  -20.3373   -6.0293 C   0  0  0  0  0  0  0  0  0  0  0  0
   30.1084  -20.6307   -4.8749 C   0  0  0  0  0  0  0  0  0  0  0  0
   29.6982  -20.0728   -3.6939 C   0  0  0  0  0  0  0  0  0  0  0  0
   28.6160  -19.2260   -3.6516 C   0  0  0  0  0  0  0  0  0  0  0  0
   27.9609  -18.9568   -4.8227 C   0  0  0  0  0  0  0  0  0  0  0  0
   26.1120  -21.0790   -6.9510 C   0  0  0  0  0  0  0  0  0  0  0  0
   26.4996  -21.8055   -6.0183 O   0  0  0  0  0  0  0  0  0  0  0  0
   24.7255  -20.8916   -7.0406 O   0  0  0  0  0  0  0  0  0  0  0  0
  2  1  1  6
  2  3  1  0
  4  2  1  0
  5  4  2  0
  6  4  1  0
  7  6  1  0
  7  8  1  6
  9  8  1  0
 10  9  2  0
 11 10  1  0
 12 11  1  0
 12 13  2  0
 13  9  1  0
 14 15  2  0
 14  7  1  0
 16 14  1  0
 17 16  1  0
 17 18  1  1
 18 19  1  0
 19 24  1  0
 19 20  2  0
 20 21  1  0
 21 22  2  0
 23 22  1  0
 24 23  2  0
 25 17  1  0
 26 25  2  0
 27 25  1  0
M  END
$$$$
