AHF.pdb
     RDKit          3D

 27 28  0  0  1  0  0  0  0  0999 V2000
   28.7230  -23.3611  -16.3945 C   0  0  0  0  0  0  0  0  0  0  0  0
   27.7815  -22.2536  -16.8866 C   0  0  2  0  0  0  0  0  0  0  0  0
   28.4833  -21.5611  -17.9452 N   0  0  0  0  0  0  0  0  0  0  0  0
   27.6635  -21.2958  -15.7428 C   0  0  0  0  0  0  0  0  0  0  0  0
   28.6401  -20.6235  -15.3196 O   0  0  0  0  0  0  0  0  0  0  0  0
   26.3822  -21.1777  -15.1475 N   0  0  0  0  0  0  0  0  0  0  0  0
   26.1629  -20.1527  -14.0769 C   0  0  1  0  0  0  0  0  0  0  0  0
   25.2345  -19.1196  -14.6137 C   0  0  0  0  0  0  0  0  0  0  0  0
   25.8836  -18.2340  -15.5790 C   0  0  0  0  0  0  0  0  0  0  0  0
   25.7063  -18.1029  -16.9415 C   0  0  0  0  0  0  0  0  0  0  0  0
   26.5522  -17.1932  -17.4478 N   0  0  0  0  0  0  0  0  0  0  0  0
   27.2776  -16.7352  -16.4121 C   0  0  0  0  0  0  0  0  0  0  0  0
   26.8864  -17.3509  -15.2876 N   0  0  0  0  0  0  0  0  0  0  0  0
   25.7526  -20.9124  -12.9113 C   0  0  0  0  0  0  0  0  0  0  0  0
   24.9141  -21.8781  -13.0766 O   0  0  0  0  0  0  0  0  0  0  0  0
   26.2435  -20.6376  -11.6084 N   0  0  0  0  0  0  0  0  0  0  0  0
   25.7331  -21.4287  -10.4774 C   0  0  1  0  0  0  0  0  0  0  0  0
   26.9001  -21.8079   -9.5778 C   0  0  0  0  0  0  0  0  0  0  0  0
   27.2204  -20.8028   -8.5571 C   0  0  0  0  0  0  0  0  0  0  0  0
   28.5205  -20.7860   -8.0412 C   0  0  0  0  0  0  0  0  0  0  0  0
   28.9130  -19.8738   -7.0937 C   0  0  0  0  0  0  0  0  0  0  0  0
   28.0102  -18.9515   -6.6369 C   0  0  0  0  0  0  0  0  0  0  0  0
   26.7212  -18.9290   -7.1143 C   0  0  0  0  0  0  0  0  0  0  0  0
   26.3663  -19.8540   -8.0584 C   0  0  0  0  0  0  0  0  0  0  0  0
   24.7048  -20.7260   -9.7368 C   0  0  0  0  0  0  0  0  0  0  0  0
   24.4273  -19.5186   -9.8512 O   0  0  0  0  0  0  0  0  0  0  0  0
   23.9387  -21.4411   -8.8055 O   0  0  0  0  0  0  0  0  0  0  0  0
  2  1  1  1
  2  3  1  0
  4  2  1  0
  5  4  2  0
  6  4  1  0
  7  6  1  0
  7  8  1  6
  9  8  1  0
 10  9  2  0
 11 10  1  0
 12 11  1  0
 12 13  2  0
 13  9  1  0
 14 15  2  0
 14  7  1  0
 16 14  1  0
 17 16  1  0
 17 18  1  1
 18 19  1  0
 19 24  1  0
 19 20  2  0
 20 21  1  0
 21 22  2  0
 23 22  1  0
 24 23  2  0
 25 17  1  0
 26 25  2  0
 27 25  1  0
M  END
$$$$
