AHF.pdb
     RDKit          3D

 27 28  0  0  1  0  0  0  0  0999 V2000
   28.9839  -18.6203  -14.6305 C   0  0  0  0  0  0  0  0  0  0  0  0
   27.9547  -19.7369  -14.8518 C   0  0  2  0  0  0  0  0  0  0  0  0
   27.2996  -19.4458  -16.1082 N   0  0  0  0  0  0  0  0  0  0  0  0
   26.9322  -19.5532  -13.7745 C   0  0  0  0  0  0  0  0  0  0  0  0
   26.2414  -18.5062  -13.6686 O   0  0  0  0  0  0  0  0  0  0  0  0
   26.7739  -20.6284  -12.8640 N   0  0  0  0  0  0  0  0  0  0  0  0
   25.6946  -20.5581  -11.8272 C   0  0  1  0  0  0  0  0  0  0  0  0
   24.6117  -21.4986  -12.2273 C   0  0  0  0  0  0  0  0  0  0  0  0
   23.7016  -20.9149  -13.2115 C   0  0  0  0  0  0  0  0  0  0  0  0
   22.6101  -20.0860  -13.0480 C   0  0  0  0  0  0  0  0  0  0  0  0
   22.0266  -19.8266  -14.2278 N   0  0  0  0  0  0  0  0  0  0  0  0
   22.7410  -20.4881  -15.1554 C   0  0  0  0  0  0  0  0  0  0  0  0
   23.7468  -21.1436  -14.5590 N   0  0  0  0  0  0  0  0  0  0  0  0
   26.3739  -20.7826  -10.5654 C   0  0  0  0  0  0  0  0  0  0  0  0
   27.1214  -21.8274  -10.4524 O   0  0  0  0  0  0  0  0  0  0  0  0
   26.2523  -19.8964   -9.4636 N   0  0  0  0  0  0  0  0  0  0  0  0
   26.6709  -20.3604   -8.1314 C   0  0  1  0  0  0  0  0  0  0  0  0
   27.1637  -19.1659   -7.3284 C   0  0  0  0  0  0  0  0  0  0  0  0
   28.0749  -19.5162   -6.2321 C   0  0  0  0  0  0  0  0  0  0  0  0
   27.8480  -18.9324   -4.9813 C   0  0  0  0  0  0  0  0  0  0  0  0
   28.6408  -19.2115   -3.8962 C   0  0  0  0  0  0  0  0  0  0  0  0
   29.6851  -20.0857   -4.0364 C   0  0  0  0  0  0  0  0  0  0  0  0
   29.9472  -20.6841   -5.2460 C   0  0  0  0  0  0  0  0  0  0  0  0
   29.1352  -20.3815   -6.3052 C   0  0  0  0  0  0  0  0  0  0  0  0
   25.6092  -21.0597   -7.4360 C   0  0  0  0  0  0  0  0  0  0  0  0
   24.3910  -20.9203   -7.6469 O   0  0  0  0  0  0  0  0  0  0  0  0
   25.9522  -21.9801   -6.4356 O   0  0  0  0  0  0  0  0  0  0  0  0
  2  1  1  1
  2  3  1  0
  4  2  1  0
  5  4  2  0
  6  4  1  0
  7  6  1  0
  7  8  1  6
  9  8  1  0
 10  9  2  0
 11 10  1  0
 12 11  1  0
 12 13  2  0
 13  9  1  0
 14 15  2  0
 14  7  1  0
 16 14  1  0
 17 16  1  0
 17 18  1  1
 18 19  1  0
 19 24  1  0
 19 20  2  0
 20 21  1  0
 21 22  2  0
 23 22  1  0
 24 23  2  0
 25 17  1  0
 26 25  2  0
 27 25  1  0
M  END
$$$$
