AHF.pdb
     RDKit          3D

 27 28  0  0  1  0  0  0  0  0999 V2000
   21.1927  -19.8663  -11.3650 C   0  0  0  0  0  0  0  0  0  0  0  0
   22.1709  -20.2517  -12.4830 C   0  0  2  0  0  0  0  0  0  0  0  0
   21.5471  -21.3301  -13.2181 N   0  0  0  0  0  0  0  0  0  0  0  0
   23.3616  -20.8312  -11.7859 C   0  0  0  0  0  0  0  0  0  0  0  0
   23.3066  -21.9057  -11.1323 O   0  0  0  0  0  0  0  0  0  0  0  0
   24.5739  -20.1043  -11.8963 N   0  0  0  0  0  0  0  0  0  0  0  0
   25.8297  -20.6808  -11.3172 C   0  0  1  0  0  0  0  0  0  0  0  0
   26.9543  -20.3442  -12.2334 C   0  0  0  0  0  0  0  0  0  0  0  0
   26.9740  -21.1894  -13.4262 C   0  0  0  0  0  0  0  0  0  0  0  0
   26.1567  -22.2365  -13.8012 C   0  0  0  0  0  0  0  0  0  0  0  0
   26.5647  -22.7682  -14.9632 N   0  0  0  0  0  0  0  0  0  0  0  0
   27.6469  -22.0647  -15.3406 C   0  0  0  0  0  0  0  0  0  0  0  0
   27.9019  -21.1164  -14.4281 N   0  0  0  0  0  0  0  0  0  0  0  0
   25.8752  -20.1839   -9.9552 C   0  0  0  0  0  0  0  0  0  0  0  0
   25.4418  -18.9911   -9.7261 O   0  0  0  0  0  0  0  0  0  0  0  0
   26.3678  -20.9606   -8.8744 N   0  0  0  0  0  0  0  0  0  0  0  0
   26.4354  -20.3511   -7.5367 C   0  0  1  0  0  0  0  0  0  0  0  0
   26.9406  -21.3917   -6.5485 C   0  0  0  0  0  0  0  0  0  0  0  0
   28.0928  -20.9518   -5.7524 C   0  0  0  0  0  0  0  0  0  0  0  0
   27.8432  -20.3900   -4.4959 C   0  0  0  0  0  0  0  0  0  0  0  0
   28.8592  -19.9630   -3.6778 C   0  0  0  0  0  0  0  0  0  0  0  0
   30.1560  -20.0880   -4.0986 C   0  0  0  0  0  0  0  0  0  0  0  0
   30.4505  -20.6340   -5.3255 C   0  0  0  0  0  0  0  0  0  0  0  0
   29.4112  -21.0485   -6.1137 C   0  0  0  0  0  0  0  0  0  0  0  0
   27.2632  -19.1619   -7.5175 C   0  0  0  0  0  0  0  0  0  0  0  0
   28.2314  -18.9416   -8.2672 O   0  0  0  0  0  0  0  0  0  0  0  0
   26.9724  -18.1546   -6.5868 O   0  0  0  0  0  0  0  0  0  0  0  0
  2  1  1  1
  2  3  1  0
  4  2  1  0
  5  4  2  0
  6  4  1  0
  7  6  1  0
  7  8  1  6
  9  8  1  0
 10  9  2  0
 11 10  1  0
 12 11  1  0
 12 13  2  0
 13  9  1  0
 14 15  2  0
 14  7  1  0
 16 14  1  0
 17 16  1  0
 17 18  1  1
 18 19  1  0
 19 24  1  0
 19 20  2  0
 20 21  1  0
 21 22  2  0
 23 22  1  0
 24 23  2  0
 25 17  1  0
 26 25  2  0
 27 25  1  0
M  END
$$$$
