AHF.pdb
     RDKit          3D

 27 28  0  0  1  0  0  0  0  0999 V2000
   24.4949  -12.4028  -16.2956 C   0  0  0  0  0  0  0  0  0  0  0  0
   23.4891  -12.5319  -17.4474 C   0  0  2  0  0  0  0  0  0  0  0  0
   24.2525  -12.9118  -18.6160 N   0  0  0  0  0  0  0  0  0  0  0  0
   22.9832  -11.1444  -17.6896 C   0  0  0  0  0  0  0  0  0  0  0  0
   23.6168  -10.3040  -18.3803 O   0  0  0  0  0  0  0  0  0  0  0  0
   21.7385  -10.8135  -17.0968 N   0  0  0  0  0  0  0  0  0  0  0  0
   21.1491   -9.4574  -17.3381 C   0  0  1  0  0  0  0  0  0  0  0  0
   19.6964   -9.6309  -17.6154 C   0  0  0  0  0  0  0  0  0  0  0  0
   19.4227   -9.8594  -19.0334 C   0  0  0  0  0  0  0  0  0  0  0  0
   19.7132   -9.0898  -20.1417 C   0  0  0  0  0  0  0  0  0  0  0  0
   19.2338   -9.6596  -21.2575 N   0  0  0  0  0  0  0  0  0  0  0  0
   18.6326  -10.7988  -20.8710 C   0  0  0  0  0  0  0  0  0  0  0  0
   18.7392  -10.9294  -19.5412 N   0  0  0  0  0  0  0  0  0  0  0  0
   21.5437   -8.6685  -16.1865 C   0  0  0  0  0  0  0  0  0  0  0  0
   21.2600   -9.1194  -15.0121 O   0  0  0  0  0  0  0  0  0  0  0  0
   22.2320   -7.4332  -16.3059 N   0  0  0  0  0  0  0  0  0  0  0  0
   22.5801   -6.6948  -15.0815 C   0  0  1  0  0  0  0  0  0  0  0  0
   24.0929   -6.6985  -14.9200 C   0  0  0  0  0  0  0  0  0  0  0  0
   24.8195   -6.1526  -16.0728 C   0  0  0  0  0  0  0  0  0  0  0  0
   25.1198   -4.7864  -16.0693 C   0  0  0  0  0  0  0  0  0  0  0  0
   25.8069   -4.1923  -17.0982 C   0  0  0  0  0  0  0  0  0  0  0  0
   26.2125   -4.9541  -18.1612 C   0  0  0  0  0  0  0  0  0  0  0  0
   25.9405   -6.3008  -18.2090 C   0  0  0  0  0  0  0  0  0  0  0  0
   25.2533   -6.8580  -17.1648 C   0  0  0  0  0  0  0  0  0  0  0  0
   22.0551   -5.3443  -15.0880 C   0  0  0  0  0  0  0  0  0  0  0  0
   21.5715   -4.7602  -16.0744 O   0  0  0  0  0  0  0  0  0  0  0  0
   22.0785   -4.6075  -13.8955 O   0  0  0  0  0  0  0  0  0  0  0  0
  2  1  1  1
  2  3  1  0
  4  2  1  0
  5  4  2  0
  6  4  1  0
  7  6  1  0
  7  8  1  1
  9  8  1  0
 10  9  2  0
 11 10  1  0
 12 11  1  0
 12 13  2  0
 13  9  1  0
 14 15  2  0
 14  7  1  0
 16 14  1  0
 17 16  1  0
 17 18  1  6
 18 19  1  0
 19 24  1  0
 19 20  2  0
 20 21  1  0
 21 22  2  0
 23 22  1  0
 24 23  2  0
 25 17  1  0
 26 25  2  0
 27 25  1  0
M  END
$$$$
