AHF.pdb
     RDKit          3D

 27 28  0  0  1  0  0  0  0  0999 V2000
   28.5714  -19.7812  -18.7871 C   0  0  0  0  0  0  0  0  0  0  0  0
   27.3759  -20.5491  -18.2073 C   0  0  2  0  0  0  0  0  0  0  0  0
   26.1970  -20.0239  -18.8606 N   0  0  0  0  0  0  0  0  0  0  0  0
   27.2984  -20.1365  -16.7708 C   0  0  0  0  0  0  0  0  0  0  0  0
   28.2535  -20.3000  -15.9672 O   0  0  0  0  0  0  0  0  0  0  0  0
   26.0815  -19.5437  -16.3488 N   0  0  0  0  0  0  0  0  0  0  0  0
   25.9826  -18.9788  -14.9646 C   0  0  1  0  0  0  0  0  0  0  0  0
   25.3378  -17.6401  -15.0601 C   0  0  0  0  0  0  0  0  0  0  0  0
   26.2177  -16.6388  -15.6607 C   0  0  0  0  0  0  0  0  0  0  0  0
   27.5771  -16.6615  -15.8984 C   0  0  0  0  0  0  0  0  0  0  0  0
   27.9885  -15.5001  -16.4290 N   0  0  0  0  0  0  0  0  0  0  0  0
   26.8945  -14.7252  -16.5348 C   0  0  0  0  0  0  0  0  0  0  0  0
   25.8277  -15.3961  -16.0779 N   0  0  0  0  0  0  0  0  0  0  0  0
   25.3227  -20.0102  -14.1868 C   0  0  0  0  0  0  0  0  0  0  0  0
   24.4526  -20.7567  -14.7772 O   0  0  0  0  0  0  0  0  0  0  0  0
   25.6046  -20.2296  -12.8133 N   0  0  0  0  0  0  0  0  0  0  0  0
   24.9457  -21.3510  -12.1250 C   0  0  1  0  0  0  0  0  0  0  0  0
   25.8555  -21.8450  -11.0102 C   0  0  0  0  0  0  0  0  0  0  0  0
   25.9155  -20.9523   -9.8465 C   0  0  0  0  0  0  0  0  0  0  0  0
   25.1952  -21.3175   -8.7043 C   0  0  0  0  0  0  0  0  0  0  0  0
   25.2034  -20.5508   -7.5659 C   0  0  0  0  0  0  0  0  0  0  0  0
   25.9358  -19.3943   -7.5420 C   0  0  0  0  0  0  0  0  0  0  0  0
   26.6597  -18.9944   -8.6402 C   0  0  0  0  0  0  0  0  0  0  0  0
   26.6274  -19.7846   -9.7572 C   0  0  0  0  0  0  0  0  0  0  0  0
   23.6383  -20.9892  -11.6156 C   0  0  0  0  0  0  0  0  0  0  0  0
   23.2401  -19.8302  -11.4012 O   0  0  0  0  0  0  0  0  0  0  0  0
   22.7205  -22.0104  -11.3320 O   0  0  0  0  0  0  0  0  0  0  0  0
  2  1  1  6
  2  3  1  0
  4  2  1  0
  5  4  2  0
  6  4  1  0
  7  6  1  0
  7  8  1  6
  9  8  1  0
 10  9  2  0
 11 10  1  0
 12 11  1  0
 12 13  2  0
 13  9  1  0
 14 15  2  0
 14  7  1  0
 16 14  1  0
 17 16  1  0
 17 18  1  1
 18 19  1  0
 19 24  1  0
 19 20  2  0
 20 21  1  0
 21 22  2  0
 23 22  1  0
 24 23  2  0
 25 17  1  0
 26 25  2  0
 27 25  1  0
M  END
$$$$
