AHF.pdb
     RDKit          3D

 27 28  0  0  1  0  0  0  0  0999 V2000
   22.6295  -12.6553  -18.4425 C   0  0  0  0  0  0  0  0  0  0  0  0
   21.7237  -12.9493  -17.2391 C   0  0  2  0  0  0  0  0  0  0  0  0
   20.8373  -14.0175  -17.6461 N   0  0  0  0  0  0  0  0  0  0  0  0
   20.8806  -11.7246  -17.0686 C   0  0  0  0  0  0  0  0  0  0  0  0
   20.1462  -11.2753  -17.9870 O   0  0  0  0  0  0  0  0  0  0  0  0
   20.9471  -11.0828  -15.8062 N   0  0  0  0  0  0  0  0  0  0  0  0
   20.1451   -9.8390  -15.5730 C   0  0  1  0  0  0  0  0  0  0  0  0
   19.1273  -10.1382  -14.5281 C   0  0  0  0  0  0  0  0  0  0  0  0
   17.9285  -10.7666  -15.0809 C   0  0  0  0  0  0  0  0  0  0  0  0
   17.5607  -12.0949  -15.1544 C   0  0  0  0  0  0  0  0  0  0  0  0
   16.3881  -12.2311  -15.7916 N   0  0  0  0  0  0  0  0  0  0  0  0
   15.9967  -10.9900  -16.1308 C   0  0  0  0  0  0  0  0  0  0  0  0
   16.9111  -10.1044  -15.7106 N   0  0  0  0  0  0  0  0  0  0  0  0
   21.1275   -8.8059  -15.3053 C   0  0  0  0  0  0  0  0  0  0  0  0
   21.9584   -8.9905  -14.3364 O   0  0  0  0  0  0  0  0  0  0  0  0
   21.2109   -7.6138  -16.0707 N   0  0  0  0  0  0  0  0  0  0  0  0
   22.2503   -6.6276  -15.7354 C   0  0  1  0  0  0  0  0  0  0  0  0
   22.6263   -5.8633  -16.9960 C   0  0  0  0  0  0  0  0  0  0  0  0
   23.6217   -4.8061  -16.7807 C   0  0  0  0  0  0  0  0  0  0  0  0
   23.1645   -3.4877  -16.6822 C   0  0  0  0  0  0  0  0  0  0  0  0
   24.0213   -2.4371  -16.4683 C   0  0  0  0  0  0  0  0  0  0  0  0
   25.3632   -2.6806  -16.3471 C   0  0  0  0  0  0  0  0  0  0  0  0
   25.8594   -3.9596  -16.4368 C   0  0  0  0  0  0  0  0  0  0  0  0
   24.9746   -4.9816  -16.6505 C   0  0  0  0  0  0  0  0  0  0  0  0
   21.8315   -5.7275  -14.6798 C   0  0  0  0  0  0  0  0  0  0  0  0
   20.6982   -5.2282  -14.5612 O   0  0  0  0  0  0  0  0  0  0  0  0
   22.7600   -5.3713  -13.6915 O   0  0  0  0  0  0  0  0  0  0  0  0
  2  1  1  6
  2  3  1  0
  4  2  1  0
  5  4  2  0
  6  4  1  0
  7  6  1  0
  7  8  1  1
  9  8  1  0
 10  9  2  0
 11 10  1  0
 12 11  1  0
 12 13  2  0
 13  9  1  0
 14 15  2  0
 14  7  1  0
 16 14  1  0
 17 16  1  0
 17 18  1  6
 18 19  1  0
 19 24  1  0
 19 20  2  0
 20 21  1  0
 21 22  2  0
 23 22  1  0
 24 23  2  0
 25 17  1  0
 26 25  2  0
 27 25  1  0
M  END
$$$$
