AHF.pdb
     RDKit          3D

 27 28  0  0  1  0  0  0  0  0999 V2000
   28.6991  -21.4366  -14.9649 C   0  0  0  0  0  0  0  0  0  0  0  0
   27.2005  -21.6774  -15.1907 C   0  0  2  0  0  0  0  0  0  0  0  0
   26.8709  -21.0493  -16.4515 N   0  0  0  0  0  0  0  0  0  0  0  0
   26.5071  -20.8951  -14.1198 C   0  0  0  0  0  0  0  0  0  0  0  0
   26.5750  -19.6402  -14.0469 O   0  0  0  0  0  0  0  0  0  0  0  0
   25.7584  -21.6426  -13.1759 N   0  0  0  0  0  0  0  0  0  0  0  0
   24.9781  -20.9193  -12.1210 C   0  0  1  0  0  0  0  0  0  0  0  0
   23.5547  -21.3425  -12.2319 C   0  0  0  0  0  0  0  0  0  0  0  0
   22.8225  -20.5779  -13.2403 C   0  0  0  0  0  0  0  0  0  0  0  0
   23.2229  -19.5253  -14.0382 C   0  0  0  0  0  0  0  0  0  0  0  0
   22.2064  -19.0869  -14.7958 N   0  0  0  0  0  0  0  0  0  0  0  0
   21.1473  -19.8564  -14.4880 C   0  0  0  0  0  0  0  0  0  0  0  0
   21.5038  -20.7530  -13.5575 N   0  0  0  0  0  0  0  0  0  0  0  0
   25.6850  -21.1884  -10.8833 C   0  0  0  0  0  0  0  0  0  0  0  0
   25.8687  -22.4180  -10.5407 O   0  0  0  0  0  0  0  0  0  0  0  0
   26.1840  -20.1553  -10.0480 N   0  0  0  0  0  0  0  0  0  0  0  0
   26.6782  -20.5050   -8.7068 C   0  0  1  0  0  0  0  0  0  0  0  0
   27.6593  -19.4352   -8.2511 C   0  0  0  0  0  0  0  0  0  0  0  0
   28.2014  -19.6544   -6.9047 C   0  0  0  0  0  0  0  0  0  0  0  0
   27.6320  -18.9390   -5.8460 C   0  0  0  0  0  0  0  0  0  0  0  0
   28.0659  -19.0897   -4.5527 C   0  0  0  0  0  0  0  0  0  0  0  0
   29.0850  -19.9640   -4.2852 C   0  0  0  0  0  0  0  0  0  0  0  0
   29.6757  -20.6891   -5.2929 C   0  0  0  0  0  0  0  0  0  0  0  0
   29.2164  -20.5123   -6.5699 C   0  0  0  0  0  0  0  0  0  0  0  0
   25.6009  -20.6718   -7.7521 C   0  0  0  0  0  0  0  0  0  0  0  0
   25.5631  -21.5217   -6.8443 O   0  0  0  0  0  0  0  0  0  0  0  0
   24.4932  -19.8161   -7.8312 O   0  0  0  0  0  0  0  0  0  0  0  0
  2  1  1  1
  2  3  1  0
  4  2  1  0
  5  4  2  0
  6  4  1  0
  7  6  1  0
  7  8  1  1
  9  8  1  0
 10  9  2  0
 11 10  1  0
 12 11  1  0
 12 13  2  0
 13  9  1  0
 14 15  2  0
 14  7  1  0
 16 14  1  0
 17 16  1  0
 17 18  1  1
 18 19  1  0
 19 24  1  0
 19 20  2  0
 20 21  1  0
 21 22  2  0
 23 22  1  0
 24 23  2  0
 25 17  1  0
 26 25  2  0
 27 25  1  0
M  END
$$$$
