AHF.pdb
     RDKit          3D

 27 28  0  0  1  0  0  0  0  0999 V2000
   28.9234  -19.0426  -14.8776 C   0  0  0  0  0  0  0  0  0  0  0  0
   27.6604  -19.8838  -15.1063 C   0  0  2  0  0  0  0  0  0  0  0  0
   27.0258  -19.3539  -16.2934 N   0  0  0  0  0  0  0  0  0  0  0  0
   26.7599  -19.5688  -13.9533 C   0  0  0  0  0  0  0  0  0  0  0  0
   26.4910  -18.3886  -13.6073 O   0  0  0  0  0  0  0  0  0  0  0  0
   26.2143  -20.6767  -13.2569 N   0  0  0  0  0  0  0  0  0  0  0  0
   25.2514  -20.4354  -12.1347 C   0  0  1  0  0  0  0  0  0  0  0  0
   23.9757  -21.1274  -12.4676 C   0  0  0  0  0  0  0  0  0  0  0  0
   23.1416  -20.3497  -13.3826 C   0  0  0  0  0  0  0  0  0  0  0  0
   23.3131  -19.0815  -13.8995 C   0  0  0  0  0  0  0  0  0  0  0  0
   22.2710  -18.7350  -14.6700 N   0  0  0  0  0  0  0  0  0  0  0  0
   21.4245  -19.7799  -14.6517 C   0  0  0  0  0  0  0  0  0  0  0  0
   21.9349  -20.7530  -13.8840 N   0  0  0  0  0  0  0  0  0  0  0  0
   25.9646  -20.8384  -10.9376 C   0  0  0  0  0  0  0  0  0  0  0  0
   26.1986  -22.0942  -10.7606 O   0  0  0  0  0  0  0  0  0  0  0  0
   26.4169  -19.9067   -9.9674 N   0  0  0  0  0  0  0  0  0  0  0  0
   26.8494  -20.4065   -8.6526 C   0  0  1  0  0  0  0  0  0  0  0  0
   27.7286  -19.3546   -7.9929 C   0  0  0  0  0  0  0  0  0  0  0  0
   28.1837  -19.7146   -6.6446 C   0  0  0  0  0  0  0  0  0  0  0  0
   27.6059  -19.0473   -5.5594 C   0  0  0  0  0  0  0  0  0  0  0  0
   27.9604  -19.3278   -4.2634 C   0  0  0  0  0  0  0  0  0  0  0  0
   28.9061  -20.2873   -4.0200 C   0  0  0  0  0  0  0  0  0  0  0  0
   29.5018  -20.9697   -5.0542 C   0  0  0  0  0  0  0  0  0  0  0  0
   29.1228  -20.6629   -6.3329 C   0  0  0  0  0  0  0  0  0  0  0  0
   25.7287  -20.7619   -7.8056 C   0  0  0  0  0  0  0  0  0  0  0  0
   24.6195  -20.1984   -7.7982 O   0  0  0  0  0  0  0  0  0  0  0  0
   25.8754  -21.8289   -6.9080 O   0  0  0  0  0  0  0  0  0  0  0  0
  2  1  1  1
  2  3  1  0
  4  2  1  0
  5  4  2  0
  6  4  1  0
  7  6  1  0
  7  8  1  6
  9  8  1  0
 10  9  2  0
 11 10  1  0
 12 11  1  0
 12 13  2  0
 13  9  1  0
 14 15  2  0
 14  7  1  0
 16 14  1  0
 17 16  1  0
 17 18  1  1
 18 19  1  0
 19 24  1  0
 19 20  2  0
 20 21  1  0
 21 22  2  0
 23 22  1  0
 24 23  2  0
 25 17  1  0
 26 25  2  0
 27 25  1  0
M  END
$$$$
