AHF.pdb
     RDKit          3D

 27 28  0  0  1  0  0  0  0  0999 V2000
   17.1517  -11.8996  -16.0586 C   0  0  0  0  0  0  0  0  0  0  0  0
   16.2887  -10.7997  -15.4257 C   0  0  2  0  0  0  0  0  0  0  0  0
   16.1875   -9.7432  -16.4085 N   0  0  0  0  0  0  0  0  0  0  0  0
   17.1016  -10.2620  -14.2900 C   0  0  0  0  0  0  0  0  0  0  0  0
   17.5291  -10.9926  -13.3582 O   0  0  0  0  0  0  0  0  0  0  0  0
   17.3729   -8.8706  -14.3107 N   0  0  0  0  0  0  0  0  0  0  0  0
   18.1800   -8.2645  -13.2034 C   0  0  1  0  0  0  0  0  0  0  0  0
   19.2794   -7.4703  -13.8182 C   0  0  0  0  0  0  0  0  0  0  0  0
   20.3932   -8.3083  -14.2596 C   0  0  0  0  0  0  0  0  0  0  0  0
   20.6059   -9.6656  -14.1279 C   0  0  0  0  0  0  0  0  0  0  0  0
   21.7954  -10.0144  -14.6408 N   0  0  0  0  0  0  0  0  0  0  0  0
   22.3528   -8.8820  -15.1049 C   0  0  0  0  0  0  0  0  0  0  0  0
   21.5225   -7.8534  -14.8824 N   0  0  0  0  0  0  0  0  0  0  0  0
   17.2126   -7.5763  -12.3699 C   0  0  0  0  0  0  0  0  0  0  0  0
   16.3327   -6.8298  -12.9458 O   0  0  0  0  0  0  0  0  0  0  0  0
   17.1957   -7.7012  -10.9564 N   0  0  0  0  0  0  0  0  0  0  0  0
   16.1544   -6.9933  -10.1948 C   0  0  1  0  0  0  0  0  0  0  0  0
   15.4750   -7.9809   -9.2580 C   0  0  0  0  0  0  0  0  0  0  0  0
   14.4480   -7.3808   -8.3978 C   0  0  0  0  0  0  0  0  0  0  0  0
   13.1193   -7.4325   -8.8321 C   0  0  0  0  0  0  0  0  0  0  0  0
   12.0920   -6.9091   -8.0875 C   0  0  0  0  0  0  0  0  0  0  0  0
   12.3700   -6.3181   -6.8841 C   0  0  0  0  0  0  0  0  0  0  0  0
   13.6604   -6.2436   -6.4157 C   0  0  0  0  0  0  0  0  0  0  0  0
   14.6584   -6.7765   -7.1858 C   0  0  0  0  0  0  0  0  0  0  0  0
   16.6839   -5.8574   -9.4676 C   0  0  0  0  0  0  0  0  0  0  0  0
   17.8177   -5.7873   -8.9601 O   0  0  0  0  0  0  0  0  0  0  0  0
   15.8739   -4.7245   -9.3066 O   0  0  0  0  0  0  0  0  0  0  0  0
  2  1  1  6
  2  3  1  0
  4  2  1  0
  5  4  2  0
  6  4  1  0
  7  6  1  0
  7  8  1  6
  9  8  1  0
 10  9  2  0
 11 10  1  0
 12 11  1  0
 12 13  2  0
 13  9  1  0
 14 15  2  0
 14  7  1  0
 16 14  1  0
 17 16  1  0
 17 18  1  1
 18 19  1  0
 19 24  1  0
 19 20  2  0
 20 21  1  0
 21 22  2  0
 23 22  1  0
 24 23  2  0
 25 17  1  0
 26 25  2  0
 27 25  1  0
M  END
$$$$
