AHF.pdb
     RDKit          3D

 27 28  0  0  1  0  0  0  0  0999 V2000
   45.1639   -7.8573  -12.8343 C   0  0  0  0  0  0  0  0  0  0  0  0
   45.8880   -9.0044  -12.1167 C   0  0  2  0  0  0  0  0  0  0  0  0
   45.9158  -10.1140  -13.0443 N   0  0  0  0  0  0  0  0  0  0  0  0
   44.9854   -9.4003  -10.9905 C   0  0  0  0  0  0  0  0  0  0  0  0
   44.0129  -10.1844  -11.1463 O   0  0  0  0  0  0  0  0  0  0  0  0
   45.2793   -8.8440   -9.7200 N   0  0  0  0  0  0  0  0  0  0  0  0
   44.4750   -9.2692   -8.5297 C   0  0  1  0  0  0  0  0  0  0  0  0
   45.3454   -9.1638   -7.3261 C   0  0  0  0  0  0  0  0  0  0  0  0
   44.6200   -9.4410   -6.0873 C   0  0  0  0  0  0  0  0  0  0  0  0
   43.6795  -10.4069   -5.7916 C   0  0  0  0  0  0  0  0  0  0  0  0
   43.2325  -10.2691   -4.5343 N   0  0  0  0  0  0  0  0  0  0  0  0
   43.8842   -9.2131   -4.0159 C   0  0  0  0  0  0  0  0  0  0  0  0
   44.7179   -8.7087   -4.9364 N   0  0  0  0  0  0  0  0  0  0  0  0
   43.2710   -8.4622   -8.5850 C   0  0  0  0  0  0  0  0  0  0  0  0
   43.3382   -7.3039   -9.1480 O   0  0  0  0  0  0  0  0  0  0  0  0
   42.0309   -8.9022   -8.0534 N   0  0  0  0  0  0  0  0  0  0  0  0
   40.9017   -7.9593   -8.0151 C   0  0  1  0  0  0  0  0  0  0  0  0
   39.6028   -8.7507   -7.9793 C   0  0  0  0  0  0  0  0  0  0  0  0
   38.4124   -7.9356   -7.7083 C   0  0  0  0  0  0  0  0  0  0  0  0
   37.8917   -7.9502   -6.4101 C   0  0  0  0  0  0  0  0  0  0  0  0
   36.7898   -7.2093   -6.0624 C   0  0  0  0  0  0  0  0  0  0  0  0
   36.1788   -6.4319   -7.0095 C   0  0  0  0  0  0  0  0  0  0  0  0
   36.6545   -6.3854   -8.2985 C   0  0  0  0  0  0  0  0  0  0  0  0
   37.7552   -7.1376   -8.6079 C   0  0  0  0  0  0  0  0  0  0  0  0
   40.9905   -7.0431   -6.8961 C   0  0  0  0  0  0  0  0  0  0  0  0
   41.2805   -7.3541   -5.7269 O   0  0  0  0  0  0  0  0  0  0  0  0
   40.7350   -5.6826   -7.1184 O   0  0  0  0  0  0  0  0  0  0  0  0
  2  1  1  6
  2  3  1  0
  4  2  1  0
  5  4  2  0
  6  4  1  0
  7  6  1  0
  7  8  1  1
  9  8  1  0
 10  9  2  0
 11 10  1  0
 12 11  1  0
 12 13  2  0
 13  9  1  0
 14 15  2  0
 14  7  1  0
 16 14  1  0
 17 16  1  0
 17 18  1  1
 18 19  1  0
 19 24  1  0
 19 20  2  0
 20 21  1  0
 21 22  2  0
 23 22  1  0
 24 23  2  0
 25 17  1  0
 26 25  2  0
 27 25  1  0
M  END
$$$$
