VYY.pdb
     RDKit          3D

 32 33  0  0  1  0  0  0  0  0999 V2000
    9.6302  -20.0206   21.5382 C   0  0  0  0  0  0  0  0  0  0  0  0
   10.1386  -19.7721   20.1554 C   0  0  1  0  0  0  0  0  0  0  0  0
    9.7778  -20.9604   19.2991 C   0  0  0  0  0  0  0  0  0  0  0  0
    9.6166  -18.5333   19.5062 C   0  0  2  0  0  0  0  0  0  0  0  0
   10.0098  -18.4613   18.1258 N   0  0  0  0  0  0  0  0  0  0  0  0
   10.1185  -17.3254   20.2332 C   0  0  0  0  0  0  0  0  0  0  0  0
   11.3010  -16.9821   20.0141 O   0  0  0  0  0  0  0  0  0  0  0  0
    7.0811  -12.2300   17.0596 O   0  0  0  0  0  0  0  0  0  0  0  0
    7.4942  -12.7669   18.2873 C   0  0  0  0  0  0  0  0  0  0  0  0
    6.5923  -13.3257   19.1675 C   0  0  0  0  0  0  0  0  0  0  0  0
    7.0119  -13.8492   20.3696 C   0  0  0  0  0  0  0  0  0  0  0  0
    8.3604  -13.8387   20.7504 C   0  0  0  0  0  0  0  0  0  0  0  0
    8.7916  -14.3872   22.0517 C   0  0  0  0  0  0  0  0  0  0  0  0
    9.8201  -15.4445   21.8921 C   0  0  2  0  0  0  0  0  0  0  0  0
    9.3378  -16.5818   21.1271 N   0  0  0  0  0  0  0  0  0  0  0  0
   10.3775  -15.9150   23.1601 C   0  0  0  0  0  0  0  0  0  0  0  0
    9.6613  -16.1861   24.1575 O   0  0  0  0  0  0  0  0  0  0  0  0
    9.2189  -13.2690   19.8354 C   0  0  0  0  0  0  0  0  0  0  0  0
    8.8136  -12.7424   18.6309 C   0  0  0  0  0  0  0  0  0  0  0  0
   13.4893  -22.3859   27.7259 O   0  0  0  0  0  0  0  0  0  0  0  0
   13.0366  -21.3728   26.8622 C   0  0  0  0  0  0  0  0  0  0  0  0
   13.5185  -20.0869   26.9727 C   0  0  0  0  0  0  0  0  0  0  0  0
   13.0705  -19.0928   26.1208 C   0  0  0  0  0  0  0  0  0  0  0  0
   12.1374  -19.3380   25.1388 C   0  0  0  0  0  0  0  0  0  0  0  0
   11.6499  -18.3016   24.2359 C   0  0  0  0  0  0  0  0  0  0  0  0
   12.3485  -16.9686   24.3611 C   0  0  2  0  0  0  0  0  0  0  0  0
   11.7785  -16.1035   23.3657 N   0  0  0  0  0  0  0  0  0  0  0  0
   13.8053  -17.0348   24.3220 C   0  0  0  0  0  0  0  0  0  0  0  0
   14.5537  -16.4969   23.2918 O   0  0  0  0  0  0  0  0  0  0  0  0
   11.6731  -20.6303   25.0508 C   0  0  0  0  0  0  0  0  0  0  0  0
   12.1039  -21.6352   25.8866 C   0  0  0  0  0  0  0  0  0  0  0  0
   14.4252  -17.6011   25.2547 O   0  0  0  0  0  0  0  0  0  0  0  0
  2  1  1  1
  2  3  1  0
  4  6  1  0
  4  2  1  0
  4  5  1  6
  6  7  2  0
  8  9  1  0
  9 10  2  0
  9 19  1  0
 10 11  1  0
 11 12  2  0
 12 13  1  0
 14 13  1  1
 15 14  1  0
 15  6  1  0
 16 17  2  0
 16 14  1  0
 18 12  1  0
 19 18  2  0
 20 21  1  0
 21 22  2  0
 21 31  1  0
 22 23  1  0
 23 24  2  0
 24 25  1  0
 26 25  1  6
 26 28  1  0
 26 27  1  0
 27 16  1  0
 28 29  1  0
 30 24  1  0
 31 30  2  0
 32 28  2  0
M  END
$$$$
