VYY.pdb
     RDKit          3D

 32 33  0  0  1  0  0  0  0  0999 V2000
    8.0478  -11.5545   18.9875 C   0  0  0  0  0  0  0  0  0  0  0  0
    8.9464  -12.7007   19.3208 C   0  0  1  0  0  0  0  0  0  0  0  0
    8.6331  -13.1531   20.7254 C   0  0  0  0  0  0  0  0  0  0  0  0
    8.8396  -13.8720   18.4016 C   0  0  2  0  0  0  0  0  0  0  0  0
    7.4808  -14.3263   18.2895 N   0  0  0  0  0  0  0  0  0  0  0  0
    9.7019  -14.9903   18.8970 C   0  0  0  0  0  0  0  0  0  0  0  0
    9.2111  -15.7421   19.7678 O   0  0  0  0  0  0  0  0  0  0  0  0
   15.4791  -21.6024   19.1296 O   0  0  0  0  0  0  0  0  0  0  0  0
   14.7027  -20.4983   18.7498 C   0  0  0  0  0  0  0  0  0  0  0  0
   15.2822  -19.2932   18.4147 C   0  0  0  0  0  0  0  0  0  0  0  0
   14.5076  -18.2172   18.0435 C   0  0  0  0  0  0  0  0  0  0  0  0
   13.1096  -18.2959   17.9897 C   0  0  0  0  0  0  0  0  0  0  0  0
   12.2922  -17.1271   17.6079 C   0  0  0  0  0  0  0  0  0  0  0  0
   11.8083  -16.3799   18.7947 C   0  0  2  0  0  0  0  0  0  0  0  0
   11.0039  -15.2239   18.4370 N   0  0  0  0  0  0  0  0  0  0  0  0
   12.8786  -15.9637   19.7008 C   0  0  0  0  0  0  0  0  0  0  0  0
   13.5739  -14.9349   19.5027 O   0  0  0  0  0  0  0  0  0  0  0  0
   12.5823  -19.5215   18.3341 C   0  0  0  0  0  0  0  0  0  0  0  0
   13.3440  -20.6047   18.7067 C   0  0  0  0  0  0  0  0  0  0  0  0
   18.4951  -14.7480   26.3075 O   0  0  0  0  0  0  0  0  0  0  0  0
   17.4209  -14.9435   25.4213 C   0  0  0  0  0  0  0  0  0  0  0  0
   16.2257  -15.4626   25.8684 C   0  0  0  0  0  0  0  0  0  0  0  0
   15.1711  -15.6535   24.9931 C   0  0  0  0  0  0  0  0  0  0  0  0
   15.2651  -15.3386   23.6563 C   0  0  0  0  0  0  0  0  0  0  0  0
   14.1660  -15.5381   22.7186 C   0  0  0  0  0  0  0  0  0  0  0  0
   14.4429  -16.5320   21.6159 C   0  0  2  0  0  0  0  0  0  0  0  0
   13.2185  -16.6924   20.8815 N   0  0  0  0  0  0  0  0  0  0  0  0
   15.0347  -17.7894   22.0594 C   0  0  0  0  0  0  0  0  0  0  0  0
   14.2947  -18.8060   22.6336 O   0  0  0  0  0  0  0  0  0  0  0  0
   16.4696  -14.8221   23.2369 C   0  0  0  0  0  0  0  0  0  0  0  0
   17.5321  -14.6234   24.0887 C   0  0  0  0  0  0  0  0  0  0  0  0
   16.2683  -17.9758   21.9230 O   0  0  0  0  0  0  0  0  0  0  0  0
  2  1  1  6
  2  3  1  0
  4  6  1  0
  4  2  1  0
  4  5  1  1
  6  7  2  0
  8  9  1  0
  9 10  2  0
  9 19  1  0
 10 11  1  0
 11 12  2  0
 12 13  1  0
 14 13  1  6
 15 14  1  0
 15  6  1  0
 16 17  2  0
 16 14  1  0
 18 12  1  0
 19 18  2  0
 20 21  1  0
 21 22  2  0
 21 31  1  0
 22 23  1  0
 23 24  2  0
 24 25  1  0
 26 25  1  1
 26 28  1  0
 26 27  1  0
 27 16  1  0
 28 29  1  0
 30 24  1  0
 31 30  2  0
 32 28  2  0
M  END
$$$$
