VYY.pdb
     RDKit          3D

 32 33  0  0  1  0  0  0  0  0999 V2000
    8.5832  -20.6874   24.1298 C   0  0  0  0  0  0  0  0  0  0  0  0
    8.8950  -21.4076   22.8584 C   0  0  1  0  0  0  0  0  0  0  0  0
    8.7024  -22.8851   23.0934 C   0  0  0  0  0  0  0  0  0  0  0  0
    8.0722  -20.9946   21.6833 C   0  0  2  0  0  0  0  0  0  0  0  0
    8.2727  -21.8790   20.5683 N   0  0  0  0  0  0  0  0  0  0  0  0
    8.4213  -19.5959   21.2816 C   0  0  0  0  0  0  0  0  0  0  0  0
    9.4857  -19.4376   20.6442 O   0  0  0  0  0  0  0  0  0  0  0  0
    8.2833  -10.8851   19.8525 O   0  0  0  0  0  0  0  0  0  0  0  0
    7.9115  -12.2090   20.1268 C   0  0  0  0  0  0  0  0  0  0  0  0
    7.6351  -12.6266   21.4112 C   0  0  0  0  0  0  0  0  0  0  0  0
    7.2711  -13.9297   21.6660 C   0  0  0  0  0  0  0  0  0  0  0  0
    7.1657  -14.8817   20.6432 C   0  0  0  0  0  0  0  0  0  0  0  0
    6.7925  -16.2800   20.9358 C   0  0  0  0  0  0  0  0  0  0  0  0
    7.9766  -17.1099   21.2680 C   0  0  2  0  0  0  0  0  0  0  0  0
    7.6248  -18.4841   21.5828 N   0  0  0  0  0  0  0  0  0  0  0  0
    8.7926  -16.5588   22.3498 C   0  0  0  0  0  0  0  0  0  0  0  0
    9.0741  -15.3360   22.4324 O   0  0  0  0  0  0  0  0  0  0  0  0
    7.4526  -14.4123   19.3799 C   0  0  0  0  0  0  0  0  0  0  0  0
    7.8174  -13.1135   19.1108 C   0  0  0  0  0  0  0  0  0  0  0  0
   10.8743  -13.9203   30.2498 O   0  0  0  0  0  0  0  0  0  0  0  0
   10.4172  -14.4287   29.0210 C   0  0  0  0  0  0  0  0  0  0  0  0
   10.1008  -15.7627   28.8857 C   0  0  0  0  0  0  0  0  0  0  0  0
    9.6514  -16.2591   27.6747 C   0  0  0  0  0  0  0  0  0  0  0  0
    9.5017  -15.4563   26.5664 C   0  0  0  0  0  0  0  0  0  0  0  0
    9.0346  -15.9632   25.2812 C   0  0  0  0  0  0  0  0  0  0  0  0
   10.0147  -16.8525   24.5538 C   0  0  2  0  0  0  0  0  0  0  0  0
    9.3340  -17.3654   23.3972 N   0  0  0  0  0  0  0  0  0  0  0  0
   10.6355  -17.8830   25.3790 C   0  0  0  0  0  0  0  0  0  0  0  0
   11.8978  -17.7473   25.9258 O   0  0  0  0  0  0  0  0  0  0  0  0
    9.8249  -14.1288   26.7296 C   0  0  0  0  0  0  0  0  0  0  0  0
   10.2736  -13.6126   27.9238 C   0  0  0  0  0  0  0  0  0  0  0  0
   10.0130  -18.9471   25.6140 O   0  0  0  0  0  0  0  0  0  0  0  0
  2  1  1  1
  2  3  1  0
  4  6  1  0
  4  2  1  0
  4  5  1  6
  6  7  2  0
  8  9  1  0
  9 10  2  0
  9 19  1  0
 10 11  1  0
 11 12  2  0
 12 13  1  0
 14 13  1  1
 15 14  1  0
 15  6  1  0
 16 17  2  0
 16 14  1  0
 18 12  1  0
 19 18  2  0
 20 21  1  0
 21 22  2  0
 21 31  1  0
 22 23  1  0
 23 24  2  0
 24 25  1  0
 26 25  1  1
 26 28  1  0
 26 27  1  0
 27 16  1  0
 28 29  1  0
 30 24  1  0
 31 30  2  0
 32 28  2  0
M  END
$$$$
