VYY.pdb
     RDKit          3D

 32 33  0  0  1  0  0  0  0  0999 V2000
    6.2263  -18.2589   24.0168 C   0  0  0  0  0  0  0  0  0  0  0  0
    6.7121  -19.1127   22.8910 C   0  0  1  0  0  0  0  0  0  0  0  0
    5.8103  -20.3177   22.7892 C   0  0  0  0  0  0  0  0  0  0  0  0
    6.7620  -18.4338   21.5625 C   0  0  2  0  0  0  0  0  0  0  0  0
    6.9780  -19.3780   20.5008 N   0  0  0  0  0  0  0  0  0  0  0  0
    7.8543  -17.4109   21.5524 C   0  0  0  0  0  0  0  0  0  0  0  0
    9.0160  -17.8236   21.3415 O   0  0  0  0  0  0  0  0  0  0  0  0
    7.4629  -14.0986   15.5879 O   0  0  0  0  0  0  0  0  0  0  0  0
    7.6511  -14.0095   16.9745 C   0  0  0  0  0  0  0  0  0  0  0  0
    6.9018  -13.1486   17.7478 C   0  0  0  0  0  0  0  0  0  0  0  0
    7.0972  -13.0714   19.1084 C   0  0  0  0  0  0  0  0  0  0  0  0
    8.0561  -13.8557   19.7635 C   0  0  0  0  0  0  0  0  0  0  0  0
    8.2663  -13.7472   21.2209 C   0  0  0  0  0  0  0  0  0  0  0  0
    8.6840  -15.0402   21.8166 C   0  0  2  0  0  0  0  0  0  0  0  0
    7.6348  -16.0440   21.7642 N   0  0  0  0  0  0  0  0  0  0  0  0
    9.1722  -14.9211   23.1904 C   0  0  0  0  0  0  0  0  0  0  0  0
    8.7970  -14.0062   23.9673 O   0  0  0  0  0  0  0  0  0  0  0  0
    8.7767  -14.6979   18.9448 C   0  0  0  0  0  0  0  0  0  0  0  0
    8.5920  -14.7853   17.5844 C   0  0  0  0  0  0  0  0  0  0  0  0
   10.8345  -15.4131   31.5395 O   0  0  0  0  0  0  0  0  0  0  0  0
   10.4994  -15.4693   30.1750 C   0  0  0  0  0  0  0  0  0  0  0  0
   10.2935  -14.3142   29.4530 C   0  0  0  0  0  0  0  0  0  0  0  0
    9.9639  -14.3738   28.1105 C   0  0  0  0  0  0  0  0  0  0  0  0
    9.8284  -15.5707   27.4440 C   0  0  0  0  0  0  0  0  0  0  0  0
    9.4763  -15.6525   26.0311 C   0  0  0  0  0  0  0  0  0  0  0  0
   10.6515  -15.7310   25.0860 C   0  0  2  0  0  0  0  0  0  0  0  0
   10.1131  -15.8339   23.7580 N   0  0  0  0  0  0  0  0  0  0  0  0
   11.6289  -16.7647   25.4089 C   0  0  0  0  0  0  0  0  0  0  0  0
   12.6962  -16.5490   26.2603 O   0  0  0  0  0  0  0  0  0  0  0  0
   10.0393  -16.7083   28.1888 C   0  0  0  0  0  0  0  0  0  0  0  0
   10.3680  -16.6737   29.5248 C   0  0  0  0  0  0  0  0  0  0  0  0
   11.5137  -17.9066   24.9011 O   0  0  0  0  0  0  0  0  0  0  0  0
  2  1  1  1
  2  3  1  0
  4  6  1  0
  4  2  1  0
  4  5  1  6
  6  7  2  0
  8  9  1  0
  9 10  2  0
  9 19  1  0
 10 11  1  0
 11 12  2  0
 12 13  1  0
 14 13  1  1
 15 14  1  0
 15  6  1  0
 16 17  2  0
 16 14  1  0
 18 12  1  0
 19 18  2  0
 20 21  1  0
 21 22  2  0
 21 31  1  0
 22 23  1  0
 23 24  2  0
 24 25  1  0
 26 25  1  1
 26 28  1  0
 26 27  1  0
 27 16  1  0
 28 29  1  0
 30 24  1  0
 31 30  2  0
 32 28  2  0
M  END
$$$$
