VYY.pdb
     RDKit          3D

 32 33  0  0  1  0  0  0  0  0999 V2000
    6.0925  -19.6582   25.2750 C   0  0  0  0  0  0  0  0  0  0  0  0
    6.5778  -20.7550   24.3839 C   0  0  1  0  0  0  0  0  0  0  0  0
    6.0069  -22.0581   24.8854 C   0  0  0  0  0  0  0  0  0  0  0  0
    6.2251  -20.5968   22.9421 C   0  0  2  0  0  0  0  0  0  0  0  0
    6.5913  -21.7613   22.1836 N   0  0  0  0  0  0  0  0  0  0  0  0
    6.9139  -19.3945   22.3768 C   0  0  0  0  0  0  0  0  0  0  0  0
    8.1435  -19.4904   22.1690 O   0  0  0  0  0  0  0  0  0  0  0  0
    8.9394  -11.5061   19.0561 O   0  0  0  0  0  0  0  0  0  0  0  0
    8.2219  -12.6159   19.5248 C   0  0  0  0  0  0  0  0  0  0  0  0
    7.5394  -12.5774   20.7220 C   0  0  0  0  0  0  0  0  0  0  0  0
    6.8389  -13.6747   21.1700 C   0  0  0  0  0  0  0  0  0  0  0  0
    6.7875  -14.8685   20.4382 C   0  0  0  0  0  0  0  0  0  0  0  0
    6.0472  -16.0426   20.9418 C   0  0  0  0  0  0  0  0  0  0  0  0
    6.9222  -16.9568   21.7163 C   0  0  2  0  0  0  0  0  0  0  0  0
    6.2544  -18.1955   22.0782 N   0  0  0  0  0  0  0  0  0  0  0  0
    7.4914  -16.3448   22.9167 C   0  0  0  0  0  0  0  0  0  0  0  0
    6.7806  -15.8846   23.8464 O   0  0  0  0  0  0  0  0  0  0  0  0
    7.4861  -14.8534   19.2505 C   0  0  0  0  0  0  0  0  0  0  0  0
    8.1900  -13.7646   18.7908 C   0  0  0  0  0  0  0  0  0  0  0  0
   10.7562  -14.6375   30.5647 O   0  0  0  0  0  0  0  0  0  0  0  0
   10.2470  -15.0025   29.3057 C   0  0  0  0  0  0  0  0  0  0  0  0
    9.6436  -14.0680   28.4932 C   0  0  0  0  0  0  0  0  0  0  0  0
    9.1438  -14.4312   27.2550 C   0  0  0  0  0  0  0  0  0  0  0  0
    9.2248  -15.7225   26.7847 C   0  0  0  0  0  0  0  0  0  0  0  0
    8.6989  -16.1242   25.4851 C   0  0  0  0  0  0  0  0  0  0  0  0
    9.5015  -15.6462   24.2985 C   0  0  2  0  0  0  0  0  0  0  0  0
    8.8989  -16.2215   23.1280 N   0  0  0  0  0  0  0  0  0  0  0  0
   10.9383  -15.8781   24.3978 C   0  0  0  0  0  0  0  0  0  0  0  0
   11.6210  -16.7322   23.5520 O   0  0  0  0  0  0  0  0  0  0  0  0
    9.8321  -16.6351   27.6164 C   0  0  0  0  0  0  0  0  0  0  0  0
   10.3364  -16.2973   28.8515 C   0  0  0  0  0  0  0  0  0  0  0  0
   11.6018  -15.2862   25.2835 O   0  0  0  0  0  0  0  0  0  0  0  0
  2  1  1  1
  2  3  1  0
  4  6  1  0
  4  2  1  0
  4  5  1  6
  6  7  2  0
  8  9  1  0
  9 10  2  0
  9 19  1  0
 10 11  1  0
 11 12  2  0
 12 13  1  0
 14 13  1  1
 15 14  1  0
 15  6  1  0
 16 17  2  0
 16 14  1  0
 18 12  1  0
 19 18  2  0
 20 21  1  0
 21 22  2  0
 21 31  1  0
 22 23  1  0
 23 24  2  0
 24 25  1  0
 26 25  1  1
 26 28  1  0
 26 27  1  0
 27 16  1  0
 28 29  1  0
 30 24  1  0
 31 30  2  0
 32 28  2  0
M  END
$$$$
