VYY.pdb
     RDKit          3D

 32 33  0  0  1  0  0  0  0  0999 V2000
    7.5250  -15.8812   19.3498 C   0  0  0  0  0  0  0  0  0  0  0  0
    8.0658  -14.5732   18.8714 C   0  0  1  0  0  0  0  0  0  0  0  0
    7.4942  -14.2983   17.5027 C   0  0  0  0  0  0  0  0  0  0  0  0
    7.7738  -13.4090   19.7589 C   0  0  2  0  0  0  0  0  0  0  0  0
    8.2764  -12.1851   19.1979 N   0  0  0  0  0  0  0  0  0  0  0  0
    8.3844  -13.6291   21.1074 C   0  0  0  0  0  0  0  0  0  0  0  0
    9.5648  -13.2469   21.2649 O   0  0  0  0  0  0  0  0  0  0  0  0
    9.4573  -14.5286   29.8122 O   0  0  0  0  0  0  0  0  0  0  0  0
    8.9468  -14.3515   28.5183 C   0  0  0  0  0  0  0  0  0  0  0  0
    9.0961  -13.1586   27.8436 C   0  0  0  0  0  0  0  0  0  0  0  0
    8.5898  -12.9987   26.5734 C   0  0  0  0  0  0  0  0  0  0  0  0
    7.9067  -14.0295   25.9144 C   0  0  0  0  0  0  0  0  0  0  0  0
    7.3531  -13.8357   24.5594 C   0  0  0  0  0  0  0  0  0  0  0  0
    8.2483  -14.3871   23.5127 C   0  0  2  0  0  0  0  0  0  0  0  0
    7.7051  -14.2308   22.1741 N   0  0  0  0  0  0  0  0  0  0  0  0
    8.6078  -15.7885   23.7289 C   0  0  0  0  0  0  0  0  0  0  0  0
    7.9934  -16.5300   24.5375 O   0  0  0  0  0  0  0  0  0  0  0  0
    7.7854  -15.1992   26.6327 C   0  0  0  0  0  0  0  0  0  0  0  0
    8.2862  -15.3729   27.9021 C   0  0  0  0  0  0  0  0  0  0  0  0
   14.1665  -14.4823   18.4026 O   0  0  0  0  0  0  0  0  0  0  0  0
   13.5679  -14.6904   19.6579 C   0  0  0  0  0  0  0  0  0  0  0  0
   14.3291  -14.7073   20.8060 C   0  0  0  0  0  0  0  0  0  0  0  0
   13.7363  -14.9123   22.0394 C   0  0  0  0  0  0  0  0  0  0  0  0
   12.3801  -15.1060   22.1749 C   0  0  0  0  0  0  0  0  0  0  0  0
   11.7392  -15.3289   23.4658 C   0  0  0  0  0  0  0  0  0  0  0  0
   10.9949  -16.6371   23.5891 C   0  0  2  0  0  0  0  0  0  0  0  0
    9.6846  -16.4253   23.0392 N   0  0  0  0  0  0  0  0  0  0  0  0
   10.9868  -17.2129   24.9295 C   0  0  0  0  0  0  0  0  0  0  0  0
   10.6420  -16.4889   26.0554 O   0  0  0  0  0  0  0  0  0  0  0  0
   11.6440  -15.0844   21.0125 C   0  0  0  0  0  0  0  0  0  0  0  0
   12.2114  -14.8822   19.7751 C   0  0  0  0  0  0  0  0  0  0  0  0
   11.3044  -18.4166   25.0887 O   0  0  0  0  0  0  0  0  0  0  0  0
  2  1  1  1
  2  3  1  0
  4  6  1  0
  4  2  1  0
  4  5  1  6
  6  7  2  0
  8  9  1  0
  9 10  2  0
  9 19  1  0
 10 11  1  0
 11 12  2  0
 12 13  1  0
 14 13  1  1
 15 14  1  0
 15  6  1  0
 16 17  2  0
 16 14  1  0
 18 12  1  0
 19 18  2  0
 20 21  1  0
 21 22  2  0
 21 31  1  0
 22 23  1  0
 23 24  2  0
 24 25  1  0
 26 25  1  1
 26 28  1  0
 26 27  1  0
 27 16  1  0
 28 29  1  0
 30 24  1  0
 31 30  2  0
 32 28  2  0
M  END
$$$$
