VYY.pdb
     RDKit          3D

 32 33  0  0  1  0  0  0  0  0999 V2000
    7.9729  -13.0106   20.1460 C   0  0  0  0  0  0  0  0  0  0  0  0
    7.2949  -13.6480   18.9771 C   0  0  1  0  0  0  0  0  0  0  0  0
    7.8542  -13.0372   17.7163 C   0  0  0  0  0  0  0  0  0  0  0  0
    7.4379  -15.1318   18.8990 C   0  0  2  0  0  0  0  0  0  0  0  0
    6.7914  -15.6583   17.7284 N   0  0  0  0  0  0  0  0  0  0  0  0
    6.8531  -15.7663   20.1217 C   0  0  0  0  0  0  0  0  0  0  0  0
    5.6857  -15.4381   20.4280 O   0  0  0  0  0  0  0  0  0  0  0  0
    1.6487  -18.9959   19.3011 O   0  0  0  0  0  0  0  0  0  0  0  0
    2.8655  -18.8906   19.9900 C   0  0  0  0  0  0  0  0  0  0  0  0
    4.0630  -19.2110   19.3869 C   0  0  0  0  0  0  0  0  0  0  0  0
    5.2504  -19.1029   20.0753 C   0  0  0  0  0  0  0  0  0  0  0  0
    5.2967  -18.6668   21.4061 C   0  0  0  0  0  0  0  0  0  0  0  0
    6.5766  -18.5745   22.1363 C   0  0  0  0  0  0  0  0  0  0  0  0
    7.0749  -17.1787   22.2036 C   0  0  2  0  0  0  0  0  0  0  0  0
    7.5423  -16.6899   20.9176 N   0  0  0  0  0  0  0  0  0  0  0  0
    8.1202  -16.9781   23.2071 C   0  0  0  0  0  0  0  0  0  0  0  0
    9.2676  -17.4818   23.1020 O   0  0  0  0  0  0  0  0  0  0  0  0
    4.0731  -18.3600   21.9606 C   0  0  0  0  0  0  0  0  0  0  0  0
    2.8793  -18.4633   21.2848 C   0  0  0  0  0  0  0  0  0  0  0  0
   11.5769  -14.1305   30.9739 O   0  0  0  0  0  0  0  0  0  0  0  0
   10.8318  -14.3014   29.7937 C   0  0  0  0  0  0  0  0  0  0  0  0
    9.4561  -14.2299   29.8137 C   0  0  0  0  0  0  0  0  0  0  0  0
    8.7266  -14.3986   28.6501 C   0  0  0  0  0  0  0  0  0  0  0  0
    9.3312  -14.6419   27.4375 C   0  0  0  0  0  0  0  0  0  0  0  0
    8.5781  -14.8276   26.2025 C   0  0  0  0  0  0  0  0  0  0  0  0
    8.8371  -16.1334   25.4897 C   0  0  2  0  0  0  0  0  0  0  0  0
    7.9206  -16.1947   24.3849 N   0  0  0  0  0  0  0  0  0  0  0  0
    8.8099  -17.3142   26.3458 C   0  0  0  0  0  0  0  0  0  0  0  0
    9.9553  -17.9084   26.8417 O   0  0  0  0  0  0  0  0  0  0  0  0
   10.7056  -14.7083   27.4464 C   0  0  0  0  0  0  0  0  0  0  0  0
   11.4521  -14.5437   28.5907 C   0  0  0  0  0  0  0  0  0  0  0  0
    7.7084  -17.8289   26.6570 O   0  0  0  0  0  0  0  0  0  0  0  0
  2  1  1  1
  2  3  1  0
  4  6  1  0
  4  2  1  0
  4  5  1  6
  6  7  2  0
  8  9  1  0
  9 10  2  0
  9 19  1  0
 10 11  1  0
 11 12  2  0
 12 13  1  0
 14 13  1  6
 15 14  1  0
 15  6  1  0
 16 17  2  0
 16 14  1  0
 18 12  1  0
 19 18  2  0
 20 21  1  0
 21 22  2  0
 21 31  1  0
 22 23  1  0
 23 24  2  0
 24 25  1  0
 26 25  1  1
 26 28  1  0
 26 27  1  0
 27 16  1  0
 28 29  1  0
 30 24  1  0
 31 30  2  0
 32 28  2  0
M  END
$$$$
