VYY.pdb
     RDKit          3D

 32 33  0  0  1  0  0  0  0  0999 V2000
    8.7893  -13.1845   21.9274 C   0  0  0  0  0  0  0  0  0  0  0  0
    7.6837  -13.6353   21.0292 C   0  0  1  0  0  0  0  0  0  0  0  0
    7.8323  -12.9271   19.7056 C   0  0  0  0  0  0  0  0  0  0  0  0
    7.6313  -15.1072   20.7857 C   0  0  2  0  0  0  0  0  0  0  0  0
    6.5998  -15.4447   19.8436 N   0  0  0  0  0  0  0  0  0  0  0  0
    7.3886  -15.8295   22.0736 C   0  0  0  0  0  0  0  0  0  0  0  0
    6.2491  -15.7226   22.5780 O   0  0  0  0  0  0  0  0  0  0  0  0
    7.8058  -20.9427   29.2065 O   0  0  0  0  0  0  0  0  0  0  0  0
    7.9468  -20.3923   27.9246 C   0  0  0  0  0  0  0  0  0  0  0  0
    9.1837  -20.2635   27.3296 C   0  0  0  0  0  0  0  0  0  0  0  0
    9.3074  -19.7213   26.0702 C   0  0  0  0  0  0  0  0  0  0  0  0
    8.1942  -19.2800   25.3424 C   0  0  0  0  0  0  0  0  0  0  0  0
    8.3458  -18.6832   24.0004 C   0  0  0  0  0  0  0  0  0  0  0  0
    8.1926  -17.2079   24.0312 C   0  0  2  0  0  0  0  0  0  0  0  0
    8.3611  -16.6014   22.7216 N   0  0  0  0  0  0  0  0  0  0  0  0
    9.0795  -16.5472   24.9887 C   0  0  0  0  0  0  0  0  0  0  0  0
   10.2676  -16.2405   24.7137 O   0  0  0  0  0  0  0  0  0  0  0  0
    6.9834  -19.4313   25.9826 C   0  0  0  0  0  0  0  0  0  0  0  0
    6.8451  -19.9712   27.2403 C   0  0  0  0  0  0  0  0  0  0  0  0
    6.1078  -10.5029   24.9379 O   0  0  0  0  0  0  0  0  0  0  0  0
    6.7116  -11.5146   25.7055 C   0  0  0  0  0  0  0  0  0  0  0  0
    5.9551  -12.3183   26.5299 C   0  0  0  0  0  0  0  0  0  0  0  0
    6.5531  -13.3127   27.2837 C   0  0  0  0  0  0  0  0  0  0  0  0
    7.9100  -13.5420   27.2458 C   0  0  0  0  0  0  0  0  0  0  0  0
    8.5578  -14.5816   28.0372 C   0  0  0  0  0  0  0  0  0  0  0  0
    9.4802  -15.4907   27.2604 C   0  0  2  0  0  0  0  0  0  0  0  0
    8.6666  -16.1983   26.3110 N   0  0  0  0  0  0  0  0  0  0  0  0
   10.3195  -16.3571   28.0808 C   0  0  0  0  0  0  0  0  0  0  0  0
   11.3595  -15.8796   28.8560 O   0  0  0  0  0  0  0  0  0  0  0  0
    8.6413  -12.7249   26.4144 C   0  0  0  0  0  0  0  0  0  0  0  0
    8.0687  -11.7298   25.6556 C   0  0  0  0  0  0  0  0  0  0  0  0
   10.1045  -17.5935   28.0967 O   0  0  0  0  0  0  0  0  0  0  0  0
  2  1  1  1
  2  3  1  0
  4  6  1  0
  4  2  1  0
  4  5  1  6
  6  7  2  0
  8  9  1  0
  9 10  2  0
  9 19  1  0
 10 11  1  0
 11 12  2  0
 12 13  1  0
 14 13  1  6
 15 14  1  0
 15  6  1  0
 16 17  2  0
 16 14  1  0
 18 12  1  0
 19 18  2  0
 20 21  1  0
 21 22  2  0
 21 31  1  0
 22 23  1  0
 23 24  2  0
 24 25  1  0
 26 25  1  1
 26 28  1  0
 26 27  1  0
 27 16  1  0
 28 29  1  0
 30 24  1  0
 31 30  2  0
 32 28  2  0
M  END
$$$$
