VYY.pdb
     RDKit          3D

 32 33  0  0  1  0  0  0  0  0999 V2000
    8.5808  -13.1585   20.1647 C   0  0  0  0  0  0  0  0  0  0  0  0
    7.7372  -13.9844   19.2490 C   0  0  1  0  0  0  0  0  0  0  0  0
    7.9206  -13.4675   17.8437 C   0  0  0  0  0  0  0  0  0  0  0  0
    8.0345  -15.4471   19.2677 C   0  0  2  0  0  0  0  0  0  0  0  0
    7.2868  -16.1454   18.2583 N   0  0  0  0  0  0  0  0  0  0  0  0
    7.7115  -16.0167   20.6134 C   0  0  0  0  0  0  0  0  0  0  0  0
    6.5237  -16.3505   20.8179 O   0  0  0  0  0  0  0  0  0  0  0  0
    7.3713  -21.1152   27.5680 O   0  0  0  0  0  0  0  0  0  0  0  0
    7.5137  -20.4278   26.3542 C   0  0  0  0  0  0  0  0  0  0  0  0
    8.3386  -20.8976   25.3545 C   0  0  0  0  0  0  0  0  0  0  0  0
    8.4689  -20.2123   24.1676 C   0  0  0  0  0  0  0  0  0  0  0  0
    7.7768  -19.0187   23.9229 C   0  0  0  0  0  0  0  0  0  0  0  0
    7.9422  -18.2859   22.6518 C   0  0  0  0  0  0  0  0  0  0  0  0
    8.4186  -16.8982   22.8720 C   0  0  2  0  0  0  0  0  0  0  0  0
    8.6614  -16.1871   21.6283 N   0  0  0  0  0  0  0  0  0  0  0  0
    9.6094  -16.8155   23.7177 C   0  0  0  0  0  0  0  0  0  0  0  0
   10.2404  -17.8326   24.1030 O   0  0  0  0  0  0  0  0  0  0  0  0
    6.9672  -18.5939   24.9538 C   0  0  0  0  0  0  0  0  0  0  0  0
    6.8274  -19.2684   26.1446 C   0  0  0  0  0  0  0  0  0  0  0  0
    5.5699  -10.9280   28.4776 O   0  0  0  0  0  0  0  0  0  0  0  0
    6.2510  -11.7286   27.5435 C   0  0  0  0  0  0  0  0  0  0  0  0
    6.1458  -11.4779   26.1930 C   0  0  0  0  0  0  0  0  0  0  0  0
    6.8177  -12.2680   25.2770 C   0  0  0  0  0  0  0  0  0  0  0  0
    7.6098  -13.3247   25.6659 C   0  0  0  0  0  0  0  0  0  0  0  0
    8.3205  -14.1711   24.7145 C   0  0  0  0  0  0  0  0  0  0  0  0
    9.5970  -14.7846   25.2386 C   0  0  2  0  0  0  0  0  0  0  0  0
   10.1494  -15.5736   24.1724 N   0  0  0  0  0  0  0  0  0  0  0  0
    9.4566  -15.5084   26.4974 C   0  0  0  0  0  0  0  0  0  0  0  0
    9.9524  -15.0320   27.6965 O   0  0  0  0  0  0  0  0  0  0  0  0
    7.6969  -13.5527   27.0201 C   0  0  0  0  0  0  0  0  0  0  0  0
    7.0382  -12.7804   27.9495 C   0  0  0  0  0  0  0  0  0  0  0  0
    8.8634  -16.6143   26.5135 O   0  0  0  0  0  0  0  0  0  0  0  0
  2  1  1  1
  2  3  1  0
  4  6  1  0
  4  2  1  0
  4  5  1  6
  6  7  2  0
  8  9  1  0
  9 10  2  0
  9 19  1  0
 10 11  1  0
 11 12  2  0
 12 13  1  0
 14 13  1  6
 15 14  1  0
 15  6  1  0
 16 17  2  0
 16 14  1  0
 18 12  1  0
 19 18  2  0
 20 21  1  0
 21 22  2  0
 21 31  1  0
 22 23  1  0
 23 24  2  0
 24 25  1  0
 26 25  1  6
 26 28  1  0
 26 27  1  0
 27 16  1  0
 28 29  1  0
 30 24  1  0
 31 30  2  0
 32 28  2  0
M  END
$$$$
