LPR.pdb
     RDKit          3D

 27 27  0  0  1  0  0  0  0  0999 V2000
    5.7482  -12.5046   25.3391 C   0  0  0  0  0  0  0  0  0  0  0  0
    6.9731  -13.3074   25.7301 C   0  0  1  0  0  0  0  0  0  0  0  0
    7.6494  -12.4973   26.8460 C   0  0  0  0  0  0  0  0  0  0  0  0
    6.6198  -14.6285   26.3299 C   0  0  0  0  0  0  0  0  0  0  0  0
    6.2258  -15.6856   25.3262 C   0  0  2  0  0  0  0  0  0  0  0  0
    5.8132  -16.8413   26.0944 N   0  0  0  0  0  0  0  0  0  0  0  0
    7.3248  -16.0308   24.3922 C   0  0  0  0  0  0  0  0  0  0  0  0
    8.0076  -17.0659   24.7222 O   0  0  0  0  0  0  0  0  0  0  0  0
    7.6353  -15.3010   23.2126 N   0  0  0  0  0  0  0  0  0  0  0  0
    7.0267  -14.0816   22.8043 C   0  0  0  0  0  0  0  0  0  0  0  0
    7.6211  -13.7758   21.4426 C   0  0  0  0  0  0  0  0  0  0  0  0
    8.1481  -15.1306   20.9655 C   0  0  0  0  0  0  0  0  0  0  0  0
    8.6238  -15.7140   22.2654 C   0  0  1  0  0  0  0  0  0  0  0  0
    9.9686  -15.2234   22.6494 C   0  0  0  0  0  0  0  0  0  0  0  0
   10.0689  -14.2228   23.3951 O   0  0  0  0  0  0  0  0  0  0  0  0
   11.2071  -14.2172   28.0995 N   0  0  0  0  0  0  0  0  0  0  0  0
   11.1690  -15.5631   28.5510 C   0  0  0  0  0  0  0  0  0  0  0  0
   10.6642  -15.7971   29.7341 N   0  0  0  0  0  0  0  0  0  0  0  0
   11.6448  -16.6520   27.7924 N   0  0  0  0  0  0  0  0  0  0  0  0
   10.8580  -17.1722   26.6448 C   0  0  0  0  0  0  0  0  0  0  0  0
   11.2953  -16.3964   25.4720 C   0  0  0  0  0  0  0  0  0  0  0  0
   11.7811  -17.0522   24.2655 C   0  0  0  0  0  0  0  0  0  0  0  0
   12.2069  -16.2955   23.0714 C   0  0  2  0  0  0  0  0  0  0  0  0
   11.1503  -15.8585   22.1937 N   0  0  0  0  0  0  0  0  0  0  0  0
   13.3406  -16.8878   22.3449 C   0  0  0  0  0  0  0  0  0  0  0  0
   14.4771  -16.8939   22.8484 O   0  0  0  0  0  0  0  0  0  0  0  0
   13.1381  -17.4371   21.1016 O   0  0  0  0  0  0  0  0  0  0  0  0
  2  3  1  1
  2  1  1  0
  4  2  1  0
  4  5  1  0
  5  7  1  0
  5  6  1  1
  7  8  2  0
  9 13  1  0
  9  7  1  0
 10  9  1  0
 11 10  1  0
 11 12  1  0
 12 13  1  0
 13 14  1  1
 14 15  2  0
 16 17  1  0
 17 19  1  0
 18 17  2  0
 19 20  1  0
 21 20  1  0
 21 22  1  0
 23 22  1  1
 23 24  1  0
 23 25  1  0
 24 14  1  0
 25 27  1  0
 26 25  2  0
M  END
$$$$
