LPR.pdb
     RDKit          3D

 27 27  0  0  1  0  0  0  0  0999 V2000
    7.9520  -12.0456   27.5498 C   0  0  0  0  0  0  0  0  0  0  0  0
    6.9212  -12.8910   26.8283 C   0  0  1  0  0  0  0  0  0  0  0  0
    5.9756  -11.8874   26.1518 C   0  0  0  0  0  0  0  0  0  0  0  0
    7.5212  -13.7044   25.7291 C   0  0  0  0  0  0  0  0  0  0  0  0
    6.5306  -14.5490   24.9639 C   0  0  2  0  0  0  0  0  0  0  0  0
    5.9709  -15.4829   25.9181 N   0  0  0  0  0  0  0  0  0  0  0  0
    7.1457  -15.2617   23.8181 C   0  0  0  0  0  0  0  0  0  0  0  0
    7.2088  -16.5368   23.9474 O   0  0  0  0  0  0  0  0  0  0  0  0
    7.6412  -14.6243   22.6482 N   0  0  0  0  0  0  0  0  0  0  0  0
    7.5611  -13.2331   22.3614 C   0  0  0  0  0  0  0  0  0  0  0  0
    8.1262  -13.0814   20.9619 C   0  0  0  0  0  0  0  0  0  0  0  0
    8.0109  -14.4879   20.3709 C   0  0  0  0  0  0  0  0  0  0  0  0
    8.2985  -15.3217   21.5868 C   0  0  1  0  0  0  0  0  0  0  0  0
    9.7503  -15.4540   21.8540 C   0  0  0  0  0  0  0  0  0  0  0  0
   10.2955  -14.6909   22.6833 O   0  0  0  0  0  0  0  0  0  0  0  0
    9.9644  -22.6510   20.9621 N   0  0  0  0  0  0  0  0  0  0  0  0
   10.1850  -22.1381   22.2678 C   0  0  0  0  0  0  0  0  0  0  0  0
    9.1570  -22.0457   23.0702 N   0  0  0  0  0  0  0  0  0  0  0  0
   11.4484  -21.7265   22.7389 N   0  0  0  0  0  0  0  0  0  0  0  0
   12.4076  -21.0483   21.8298 C   0  0  0  0  0  0  0  0  0  0  0  0
   12.3910  -19.6269   22.2146 C   0  0  0  0  0  0  0  0  0  0  0  0
   11.4895  -18.6775   21.5759 C   0  0  0  0  0  0  0  0  0  0  0  0
   11.5348  -17.2297   21.8617 C   0  0  2  0  0  0  0  0  0  0  0  0
   10.5427  -16.4252   21.1935 N   0  0  0  0  0  0  0  0  0  0  0  0
   12.8799  -16.6373   21.8036 C   0  0  0  0  0  0  0  0  0  0  0  0
   13.1654  -15.8084   20.9222 O   0  0  0  0  0  0  0  0  0  0  0  0
   13.8246  -17.0047   22.7315 O   0  0  0  0  0  0  0  0  0  0  0  0
  2  3  1  6
  2  1  1  0
  4  2  1  0
  4  5  1  0
  5  7  1  0
  5  6  1  1
  7  8  2  0
  9 13  1  0
  9  7  1  0
 10  9  1  0
 11 10  1  0
 11 12  1  0
 12 13  1  0
 13 14  1  1
 14 15  2  0
 16 17  1  0
 17 19  1  0
 18 17  2  0
 19 20  1  0
 21 20  1  0
 21 22  1  0
 23 22  1  6
 23 24  1  0
 23 25  1  0
 24 14  1  0
 25 27  1  0
 26 25  2  0
M  END
$$$$
