LPR.pdb
     RDKit          3D

 27 27  0  0  1  0  0  0  0  0999 V2000
    7.0375  -12.0042   27.4043 C   0  0  0  0  0  0  0  0  0  0  0  0
    6.2869  -13.0625   26.6204 C   0  0  1  0  0  0  0  0  0  0  0  0
    5.2840  -12.2886   25.7520 C   0  0  0  0  0  0  0  0  0  0  0  0
    7.1724  -13.8041   25.6738 C   0  0  0  0  0  0  0  0  0  0  0  0
    6.4843  -14.9106   24.9108 C   0  0  2  0  0  0  0  0  0  0  0  0
    6.0259  -15.8623   25.9007 N   0  0  0  0  0  0  0  0  0  0  0  0
    7.3708  -15.5615   23.9158 C   0  0  0  0  0  0  0  0  0  0  0  0
    7.7386  -16.7528   24.2193 O   0  0  0  0  0  0  0  0  0  0  0  0
    7.8059  -14.9520   22.7077 N   0  0  0  0  0  0  0  0  0  0  0  0
    7.4841  -13.6346   22.2776 C   0  0  0  0  0  0  0  0  0  0  0  0
    8.0916  -13.5076   20.8934 C   0  0  0  0  0  0  0  0  0  0  0  0
    8.2759  -14.9587   20.4448 C   0  0  0  0  0  0  0  0  0  0  0  0
    8.6428  -15.6056   21.7499 C   0  0  1  0  0  0  0  0  0  0  0  0
   10.0757  -15.4318   22.0866 C   0  0  0  0  0  0  0  0  0  0  0  0
   10.4678  -14.3434   22.5651 O   0  0  0  0  0  0  0  0  0  0  0  0
    9.9542  -15.3123   28.5463 N   0  0  0  0  0  0  0  0  0  0  0  0
   11.1216  -16.1039   28.7111 C   0  0  0  0  0  0  0  0  0  0  0  0
   11.9111  -15.8274   29.7158 N   0  0  0  0  0  0  0  0  0  0  0  0
   11.4693  -17.1659   27.8515 N   0  0  0  0  0  0  0  0  0  0  0  0
   10.6297  -17.4833   26.6679 C   0  0  0  0  0  0  0  0  0  0  0  0
   11.4952  -17.2800   25.4940 C   0  0  0  0  0  0  0  0  0  0  0  0
   10.9963  -17.4757   24.1394 C   0  0  0  0  0  0  0  0  0  0  0  0
   11.7720  -17.0810   22.9468 C   0  0  2  0  0  0  0  0  0  0  0  0
   11.0191  -16.4686   21.8810 N   0  0  0  0  0  0  0  0  0  0  0  0
   12.7120  -18.1040   22.4634 C   0  0  0  0  0  0  0  0  0  0  0  0
   12.6816  -19.2568   22.9276 O   0  0  0  0  0  0  0  0  0  0  0  0
   13.6284  -17.7796   21.4921 O   0  0  0  0  0  0  0  0  0  0  0  0
  2  3  1  6
  2  1  1  0
  4  2  1  0
  4  5  1  0
  5  7  1  0
  5  6  1  1
  7  8  2  0
  9 13  1  0
  9  7  1  0
 10  9  1  0
 11 10  1  0
 11 12  1  0
 12 13  1  0
 13 14  1  1
 14 15  2  0
 16 17  1  0
 17 19  1  0
 18 17  2  0
 19 20  1  0
 21 20  1  0
 21 22  1  0
 23 22  1  1
 23 24  1  0
 23 25  1  0
 24 14  1  0
 25 27  1  0
 26 25  2  0
M  END
$$$$
