LPR.pdb
     RDKit          3D

 27 27  0  0  1  0  0  0  0  0999 V2000
    5.4621  -14.3922   21.3541 C   0  0  0  0  0  0  0  0  0  0  0  0
    6.7981  -15.1013   21.4546 C   0  0  1  0  0  0  0  0  0  0  0  0
    6.6559  -16.3590   20.5846 C   0  0  0  0  0  0  0  0  0  0  0  0
    7.9111  -14.3050   20.8571 C   0  0  0  0  0  0  0  0  0  0  0  0
    8.4340  -13.1992   21.7424 C   0  0  2  0  0  0  0  0  0  0  0  0
    9.6284  -12.6942   21.0987 N   0  0  0  0  0  0  0  0  0  0  0  0
    8.7248  -13.6558   23.1231 C   0  0  0  0  0  0  0  0  0  0  0  0
    9.7841  -14.3701   23.2428 O   0  0  0  0  0  0  0  0  0  0  0  0
    7.9214  -13.3517   24.2555 N   0  0  0  0  0  0  0  0  0  0  0  0
    6.6558  -12.7024   24.2275 C   0  0  0  0  0  0  0  0  0  0  0  0
    6.2711  -12.5162   25.6830 C   0  0  0  0  0  0  0  0  0  0  0  0
    7.6040  -12.6243   26.4262 C   0  0  0  0  0  0  0  0  0  0  0  0
    8.2965  -13.6692   25.5985 C   0  0  1  0  0  0  0  0  0  0  0  0
    7.8802  -15.0456   25.9575 C   0  0  0  0  0  0  0  0  0  0  0  0
    6.7896  -15.4894   25.5323 O   0  0  0  0  0  0  0  0  0  0  0  0
   11.8399  -18.8035   20.5611 N   0  0  0  0  0  0  0  0  0  0  0  0
   12.6179  -18.7225   21.7463 C   0  0  0  0  0  0  0  0  0  0  0  0
   13.9068  -18.9174   21.6463 N   0  0  0  0  0  0  0  0  0  0  0  0
   12.0736  -18.4440   23.0167 N   0  0  0  0  0  0  0  0  0  0  0  0
   10.6068  -18.2870   23.1903 C   0  0  0  0  0  0  0  0  0  0  0  0
   10.4030  -17.9493   24.6092 C   0  0  0  0  0  0  0  0  0  0  0  0
    9.0724  -17.7009   25.1474 C   0  0  0  0  0  0  0  0  0  0  0  0
    8.8503  -17.2922   26.5486 C   0  0  2  0  0  0  0  0  0  0  0  0
    8.6865  -15.8777   26.7730 N   0  0  0  0  0  0  0  0  0  0  0  0
    9.7597  -17.9199   27.5196 C   0  0  0  0  0  0  0  0  0  0  0  0
    9.8153  -19.1575   27.6215 O   0  0  0  0  0  0  0  0  0  0  0  0
   10.5518  -17.1296   28.3175 O   0  0  0  0  0  0  0  0  0  0  0  0
  2  3  1  6
  2  1  1  0
  4  2  1  0
  4  5  1  0
  5  7  1  0
  5  6  1  6
  7  8  2  0
  9 13  1  0
  9  7  1  0
 10  9  1  0
 11 10  1  0
 11 12  1  0
 12 13  1  0
 13 14  1  1
 14 15  2  0
 16 17  1  0
 17 19  1  0
 18 17  2  0
 19 20  1  0
 21 20  1  0
 21 22  1  0
 23 22  1  6
 23 24  1  0
 23 25  1  0
 24 14  1  0
 25 27  1  0
 26 25  2  0
M  END
$$$$
