LPR.pdb
     RDKit          3D

 27 27  0  0  1  0  0  0  0  0999 V2000
    8.9615  -14.1021   29.2051 C   0  0  0  0  0  0  0  0  0  0  0  0
    9.6369  -15.2856   28.5409 C   0  0  1  0  0  0  0  0  0  0  0  0
   10.9881  -15.4348   29.2557 C   0  0  0  0  0  0  0  0  0  0  0  0
    8.9002  -16.5639   28.7713 C   0  0  0  0  0  0  0  0  0  0  0  0
    7.4960  -16.5850   28.2166 C   0  0  2  0  0  0  0  0  0  0  0  0
    6.9653  -17.9008   28.5047 N   0  0  0  0  0  0  0  0  0  0  0  0
    7.4468  -16.2968   26.7627 C   0  0  0  0  0  0  0  0  0  0  0  0
    7.4687  -17.3333   26.0066 O   0  0  0  0  0  0  0  0  0  0  0  0
    7.3812  -14.9912   26.2045 N   0  0  0  0  0  0  0  0  0  0  0  0
    7.3146  -13.7747   26.9393 C   0  0  0  0  0  0  0  0  0  0  0  0
    7.1500  -12.6868   25.8950 C   0  0  0  0  0  0  0  0  0  0  0  0
    6.6232  -13.4376   24.6704 C   0  0  0  0  0  0  0  0  0  0  0  0
    7.3733  -14.7328   24.7981 C   0  0  1  0  0  0  0  0  0  0  0  0
    8.7532  -14.6447   24.2641 C   0  0  0  0  0  0  0  0  0  0  0  0
    9.7075  -14.4588   25.0527 O   0  0  0  0  0  0  0  0  0  0  0  0
    7.8698  -12.4378   16.9401 N   0  0  0  0  0  0  0  0  0  0  0  0
    7.5032  -13.8074   17.0194 C   0  0  0  0  0  0  0  0  0  0  0  0
    6.8998  -14.3396   15.9889 N   0  0  0  0  0  0  0  0  0  0  0  0
    7.7559  -14.6165   18.1461 N   0  0  0  0  0  0  0  0  0  0  0  0
    9.0090  -14.4518   18.9265 C   0  0  0  0  0  0  0  0  0  0  0  0
    9.0048  -15.5318   19.9276 C   0  0  0  0  0  0  0  0  0  0  0  0
   10.1075  -15.7041   20.8637 C   0  0  0  0  0  0  0  0  0  0  0  0
    9.9018  -15.7653   22.3245 C   0  0  2  0  0  0  0  0  0  0  0  0
    9.0237  -14.7655   22.8786 N   0  0  0  0  0  0  0  0  0  0  0  0
   11.1348  -15.9359   23.1084 C   0  0  0  0  0  0  0  0  0  0  0  0
   11.3904  -15.1713   24.0546 O   0  0  0  0  0  0  0  0  0  0  0  0
   12.0075  -16.9486   22.7898 O   0  0  0  0  0  0  0  0  0  0  0  0
  2  3  1  1
  2  1  1  0
  4  2  1  0
  4  5  1  0
  5  7  1  0
  5  6  1  6
  7  8  2  0
  9 13  1  0
  9  7  1  0
 10  9  1  0
 11 10  1  0
 11 12  1  0
 12 13  1  0
 13 14  1  1
 14 15  2  0
 16 17  1  0
 17 19  1  0
 18 17  2  0
 19 20  1  0
 21 20  1  0
 21 22  1  0
 23 22  1  6
 23 24  1  0
 23 25  1  0
 24 14  1  0
 25 27  1  0
 26 25  2  0
M  END
$$$$
