LPR.pdb
     RDKit          3D

 27 27  0  0  1  0  0  0  0  0999 V2000
    8.0224  -12.7580   27.3342 C   0  0  0  0  0  0  0  0  0  0  0  0
    6.9647  -13.4760   26.5196 C   0  0  1  0  0  0  0  0  0  0  0  0
    5.9618  -12.3879   26.1084 C   0  0  0  0  0  0  0  0  0  0  0  0
    7.5108  -14.0407   25.2496 C   0  0  0  0  0  0  0  0  0  0  0  0
    6.5131  -14.8304   24.4366 C   0  0  2  0  0  0  0  0  0  0  0  0
    6.1276  -15.9614   25.2539 N   0  0  0  0  0  0  0  0  0  0  0  0
    7.0585  -15.2768   23.1317 C   0  0  0  0  0  0  0  0  0  0  0  0
    7.1049  -16.5494   22.9737 O   0  0  0  0  0  0  0  0  0  0  0  0
    7.5077  -14.4003   22.1068 N   0  0  0  0  0  0  0  0  0  0  0  0
    7.7948  -13.0156   22.2630 C   0  0  0  0  0  0  0  0  0  0  0  0
    8.1250  -12.5173   20.8689 C   0  0  0  0  0  0  0  0  0  0  0  0
    7.4961  -13.5674   19.9509 C   0  0  0  0  0  0  0  0  0  0  0  0
    7.7319  -14.8133   20.7562 C   0  0  1  0  0  0  0  0  0  0  0  0
    9.1025  -15.3503   20.5830 C   0  0  0  0  0  0  0  0  0  0  0  0
    9.5054  -15.6509   19.4365 O   0  0  0  0  0  0  0  0  0  0  0  0
   15.4986  -14.1634   16.8160 N   0  0  0  0  0  0  0  0  0  0  0  0
   16.0655  -14.1839   18.1178 C   0  0  0  0  0  0  0  0  0  0  0  0
   17.2777  -13.7165   18.2643 N   0  0  0  0  0  0  0  0  0  0  0  0
   15.3911  -14.6793   19.2525 N   0  0  0  0  0  0  0  0  0  0  0  0
   13.9303  -14.9440   19.2051 C   0  0  0  0  0  0  0  0  0  0  0  0
   13.3640  -14.2921   20.3981 C   0  0  0  0  0  0  0  0  0  0  0  0
   11.9474  -14.3973   20.7208 C   0  0  0  0  0  0  0  0  0  0  0  0
   11.4104  -15.4701   21.5813 C   0  0  2  0  0  0  0  0  0  0  0  0
    9.9741  -15.5339   21.6849 N   0  0  0  0  0  0  0  0  0  0  0  0
   12.0804  -15.6012   22.8843 C   0  0  0  0  0  0  0  0  0  0  0  0
   11.5047  -15.2453   23.9270 O   0  0  0  0  0  0  0  0  0  0  0  0
   13.3510  -16.1209   22.9454 O   0  0  0  0  0  0  0  0  0  0  0  0
  2  3  1  6
  2  1  1  0
  4  2  1  0
  4  5  1  0
  5  7  1  0
  5  6  1  1
  7  8  2  0
  9 13  1  0
  9  7  1  0
 10  9  1  0
 11 10  1  0
 11 12  1  0
 12 13  1  0
 13 14  1  1
 14 15  2  0
 16 17  1  0
 17 19  1  0
 18 17  2  0
 19 20  1  0
 21 20  1  0
 21 22  1  0
 23 22  1  1
 23 24  1  0
 23 25  1  0
 24 14  1  0
 25 27  1  0
 26 25  2  0
M  END
$$$$
