LPR.pdb
     RDKit          3D

 27 27  0  0  1  0  0  0  0  0999 V2000
    8.3678  -12.7697   20.6659 C   0  0  0  0  0  0  0  0  0  0  0  0
    7.8992  -13.6286   21.8238 C   0  0  1  0  0  0  0  0  0  0  0  0
    7.3647  -12.6404   22.8711 C   0  0  0  0  0  0  0  0  0  0  0  0
    6.7486  -14.5051   21.4526 C   0  0  0  0  0  0  0  0  0  0  0  0
    7.1394  -15.7948   20.7714 C   0  0  2  0  0  0  0  0  0  0  0  0
    5.9042  -16.4942   20.4867 N   0  0  0  0  0  0  0  0  0  0  0  0
    8.0469  -16.6293   21.5958 C   0  0  0  0  0  0  0  0  0  0  0  0
    7.4815  -17.2328   22.5770 O   0  0  0  0  0  0  0  0  0  0  0  0
    9.4401  -16.7781   21.3564 N   0  0  0  0  0  0  0  0  0  0  0  0
   10.1882  -16.1038   20.3516 C   0  0  0  0  0  0  0  0  0  0  0  0
   11.5865  -16.6854   20.4381 C   0  0  0  0  0  0  0  0  0  0  0  0
   11.3796  -18.0192   21.1584 C   0  0  0  0  0  0  0  0  0  0  0  0
   10.2837  -17.6476   22.1161 C   0  0  1  0  0  0  0  0  0  0  0  0
   10.7963  -16.9677   23.3292 C   0  0  0  0  0  0  0  0  0  0  0  0
   11.0519  -15.7429   23.2867 O   0  0  0  0  0  0  0  0  0  0  0  0
    5.8948  -13.4375   25.3076 N   0  0  0  0  0  0  0  0  0  0  0  0
    6.8358  -13.2582   26.3559 C   0  0  0  0  0  0  0  0  0  0  0  0
    7.4554  -12.1095   26.4316 N   0  0  0  0  0  0  0  0  0  0  0  0
    7.1330  -14.2501   27.3127 N   0  0  0  0  0  0  0  0  0  0  0  0
    7.0658  -15.6895   26.9520 C   0  0  0  0  0  0  0  0  0  0  0  0
    8.4544  -16.1785   26.9862 C   0  0  0  0  0  0  0  0  0  0  0  0
    9.0981  -16.7211   25.7974 C   0  0  0  0  0  0  0  0  0  0  0  0
   10.4825  -17.2340   25.8128 C   0  0  2  0  0  0  0  0  0  0  0  0
   11.0064  -17.6690   24.5423 N   0  0  0  0  0  0  0  0  0  0  0  0
   10.7711  -18.1812   26.9007 C   0  0  0  0  0  0  0  0  0  0  0  0
   10.5374  -19.3938   26.7584 O   0  0  0  0  0  0  0  0  0  0  0  0
   11.3026  -17.7189   28.0806 O   0  0  0  0  0  0  0  0  0  0  0  0
  2  3  1  1
  2  1  1  0
  4  2  1  0
  4  5  1  0
  5  7  1  0
  5  6  1  1
  7  8  2  0
  9 13  1  0
  9  7  1  0
 10  9  1  0
 11 10  1  0
 11 12  1  0
 12 13  1  0
 13 14  1  1
 14 15  2  0
 16 17  1  0
 17 19  1  0
 18 17  2  0
 19 20  1  0
 21 20  1  0
 21 22  1  0
 23 22  1  6
 23 24  1  0
 23 25  1  0
 24 14  1  0
 25 27  1  0
 26 25  2  0
M  END
$$$$
