LPR.pdb
     RDKit          3D

 27 27  0  0  1  0  0  0  0  0999 V2000
    5.6568  -16.0713   21.2967 C   0  0  0  0  0  0  0  0  0  0  0  0
    6.9486  -16.3957   22.0206 C   0  0  1  0  0  0  0  0  0  0  0  0
    7.3883  -17.7615   21.4726 C   0  0  0  0  0  0  0  0  0  0  0  0
    8.0449  -15.4392   21.6842 C   0  0  0  0  0  0  0  0  0  0  0  0
    7.8158  -14.0288   22.1724 C   0  0  2  0  0  0  0  0  0  0  0  0
    8.3442  -13.1535   21.1475 N   0  0  0  0  0  0  0  0  0  0  0  0
    8.4560  -13.7622   23.4833 C   0  0  0  0  0  0  0  0  0  0  0  0
    9.7315  -13.6285   23.4430 O   0  0  0  0  0  0  0  0  0  0  0  0
    7.7525  -13.6559   24.7138 N   0  0  0  0  0  0  0  0  0  0  0  0
    6.3389  -13.6957   24.8701 C   0  0  0  0  0  0  0  0  0  0  0  0
    6.0932  -13.4314   26.3435 C   0  0  0  0  0  0  0  0  0  0  0  0
    7.3835  -12.7541   26.8096 C   0  0  0  0  0  0  0  0  0  0  0  0
    8.3961  -13.4909   25.9801 C   0  0  1  0  0  0  0  0  0  0  0  0
    8.7646  -14.8016   26.5660 C   0  0  0  0  0  0  0  0  0  0  0  0
    7.9048  -15.7089   26.6339 O   0  0  0  0  0  0  0  0  0  0  0  0
   16.0853  -17.1069   25.5421 N   0  0  0  0  0  0  0  0  0  0  0  0
   15.2619  -16.5525   24.5266 C   0  0  0  0  0  0  0  0  0  0  0  0
   15.7822  -15.6405   23.7476 N   0  0  0  0  0  0  0  0  0  0  0  0
   13.9208  -16.9339   24.3178 N   0  0  0  0  0  0  0  0  0  0  0  0
   12.8093  -16.0477   24.7489 C   0  0  0  0  0  0  0  0  0  0  0  0
   11.8322  -16.9235   25.4174 C   0  0  0  0  0  0  0  0  0  0  0  0
   11.6799  -16.9250   26.8661 C   0  0  0  0  0  0  0  0  0  0  0  0
   10.4992  -16.3460   27.5373 C   0  0  2  0  0  0  0  0  0  0  0  0
   10.0698  -15.0575   27.0542 N   0  0  0  0  0  0  0  0  0  0  0  0
   10.5341  -16.4193   29.0060 C   0  0  0  0  0  0  0  0  0  0  0  0
   10.7479  -17.5024   29.5776 O   0  0  0  0  0  0  0  0  0  0  0  0
   10.3289  -15.2810   29.7479 O   0  0  0  0  0  0  0  0  0  0  0  0
  2  3  1  6
  2  1  1  0
  4  2  1  0
  4  5  1  0
  5  7  1  0
  5  6  1  6
  7  8  2  0
  9 13  1  0
  9  7  1  0
 10  9  1  0
 11 10  1  0
 11 12  1  0
 12 13  1  0
 13 14  1  1
 14 15  2  0
 16 17  1  0
 17 19  1  0
 18 17  2  0
 19 20  1  0
 21 20  1  0
 21 22  1  0
 23 22  1  6
 23 24  1  0
 23 25  1  0
 24 14  1  0
 25 27  1  0
 26 25  2  0
M  END
$$$$
