LPR.pdb
     RDKit          3D

 27 27  0  0  1  0  0  0  0  0999 V2000
    3.3327  -19.3059   21.1552 C   0  0  0  0  0  0  0  0  0  0  0  0
    3.9011  -18.4535   20.0379 C   0  0  1  0  0  0  0  0  0  0  0  0
    2.9088  -17.2936   19.8680 C   0  0  0  0  0  0  0  0  0  0  0  0
    5.2088  -17.8328   20.4050 C   0  0  0  0  0  0  0  0  0  0  0  0
    5.9044  -17.1220   19.2688 C   0  0  2  0  0  0  0  0  0  0  0  0
    5.9848  -18.0752   18.1821 N   0  0  0  0  0  0  0  0  0  0  0  0
    7.2503  -16.6222   19.6403 C   0  0  0  0  0  0  0  0  0  0  0  0
    8.2224  -17.3879   19.3007 O   0  0  0  0  0  0  0  0  0  0  0  0
    7.4928  -15.3978   20.3203 N   0  0  0  0  0  0  0  0  0  0  0  0
    6.4987  -14.4843   20.7691 C   0  0  0  0  0  0  0  0  0  0  0  0
    7.2671  -13.3006   21.3253 C   0  0  0  0  0  0  0  0  0  0  0  0
    8.6462  -13.4266   20.6749 C   0  0  0  0  0  0  0  0  0  0  0  0
    8.8010  -14.9205   20.6455 C   0  0  1  0  0  0  0  0  0  0  0  0
    9.2618  -15.4690   21.9431 C   0  0  0  0  0  0  0  0  0  0  0  0
    8.4605  -15.5354   22.9026 O   0  0  0  0  0  0  0  0  0  0  0  0
   14.2904  -18.3878   19.4262 N   0  0  0  0  0  0  0  0  0  0  0  0
   13.6599  -19.6602   19.4377 C   0  0  0  0  0  0  0  0  0  0  0  0
   13.7261  -20.3852   18.3517 N   0  0  0  0  0  0  0  0  0  0  0  0
   12.9711  -20.1771   20.5538 N   0  0  0  0  0  0  0  0  0  0  0  0
   11.7567  -19.4963   21.0718 C   0  0  0  0  0  0  0  0  0  0  0  0
   12.2406  -18.3244   21.8209 C   0  0  0  0  0  0  0  0  0  0  0  0
   11.6477  -17.9392   23.0945 C   0  0  0  0  0  0  0  0  0  0  0  0
   11.0373  -16.6128   23.3131 C   0  0  2  0  0  0  0  0  0  0  0  0
   10.5911  -15.9227   22.1288 N   0  0  0  0  0  0  0  0  0  0  0  0
   11.7848  -15.7401   24.2315 C   0  0  0  0  0  0  0  0  0  0  0  0
   12.0625  -16.1255   25.3803 O   0  0  0  0  0  0  0  0  0  0  0  0
   12.1771  -14.4913   23.8133 O   0  0  0  0  0  0  0  0  0  0  0  0
  2  3  1  1
  2  1  1  0
  4  2  1  0
  4  5  1  0
  5  7  1  0
  5  6  1  6
  7  8  2  0
  9 13  1  0
  9  7  1  0
 10  9  1  0
 11 10  1  0
 11 12  1  0
 12 13  1  0
 13 14  1  1
 14 15  2  0
 16 17  1  0
 17 19  1  0
 18 17  2  0
 19 20  1  0
 21 20  1  0
 21 22  1  0
 23 22  1  6
 23 24  1  0
 23 25  1  0
 24 14  1  0
 25 27  1  0
 26 25  2  0
M  END
$$$$
