YYG.pdb
     RDKit          3D

 29 30  0  0  1  0  0  0  0  0999 V2000
   23.8456  -12.7397  -20.0582 O   0  0  0  0  0  0  0  0  0  0  0  0
   23.6521  -14.0124  -19.4983 C   0  0  0  0  0  0  0  0  0  0  0  0
   23.6765  -15.1522  -20.2524 C   0  0  0  0  0  0  0  0  0  0  0  0
   23.4828  -16.3768  -19.6696 C   0  0  0  0  0  0  0  0  0  0  0  0
   23.2617  -16.4703  -18.3197 C   0  0  0  0  0  0  0  0  0  0  0  0
   23.0377  -17.7596  -17.6674 C   0  0  0  0  0  0  0  0  0  0  0  0
   24.2277  -18.3431  -16.9956 C   0  0  2  0  0  0  0  0  0  0  0  0
   25.3132  -18.6275  -17.9065 N   0  0  0  0  0  0  0  0  0  0  0  0
   23.8973  -19.4799  -16.1121 C   0  0  0  0  0  0  0  0  0  0  0  0
   24.1244  -20.6733  -16.4008 O   0  0  0  0  0  0  0  0  0  0  0  0
   23.2397  -15.3168  -17.5709 C   0  0  0  0  0  0  0  0  0  0  0  0
   23.4304  -14.0922  -18.1348 C   0  0  0  0  0  0  0  0  0  0  0  0
   29.2933  -20.9402  -12.8279 O   0  0  0  0  0  0  0  0  0  0  0  0
   27.9342  -20.6236  -12.7937 C   0  0  0  0  0  0  0  0  0  0  0  0
   27.0770  -21.5628  -12.2815 C   0  0  0  0  0  0  0  0  0  0  0  0
   25.7282  -21.2871  -12.2302 C   0  0  0  0  0  0  0  0  0  0  0  0
   25.2536  -20.0663  -12.6956 C   0  0  0  0  0  0  0  0  0  0  0  0
   23.8161  -19.8036  -12.6079 C   0  0  0  0  0  0  0  0  0  0  0  0
   23.0242  -20.1596  -13.8338 C   0  0  2  0  0  0  0  0  0  0  0  0
   23.2804  -19.1990  -14.8614 N   0  0  0  0  0  0  0  0  0  0  0  0
   21.5904  -20.1741  -13.4106 C   0  0  0  0  0  0  0  0  0  0  0  0
   21.1255  -19.0648  -13.0419 O   0  0  0  0  0  0  0  0  0  0  0  0
   26.1200  -19.1170  -13.2139 C   0  0  0  0  0  0  0  0  0  0  0  0
   27.4818  -19.3983  -13.2644 C   0  0  0  0  0  0  0  0  0  0  0  0
   20.7733  -21.3078  -13.4034 N   0  0  0  0  0  0  0  0  0  0  0  0
   19.3836  -21.2066  -13.0067 C   0  0  0  0  0  0  0  0  0  0  0  0
   19.1877  -21.9267  -11.7028 C   0  0  0  0  0  0  0  0  0  0  0  0
   20.2002  -22.6343  -11.0989 O   0  0  0  0  0  0  0  0  0  0  0  0
   18.0764  -21.8922  -11.1354 O   0  0  0  0  0  0  0  0  0  0  0  0
  2  3  2  0
  2  1  1  0
  4  3  1  0
  5  4  2  0
  6  5  1  0
  7  6  1  0
  7  8  1  6
  9  7  1  0
  9 10  2  0
 11  5  1  0
 11 12  2  0
 12  2  1  0
 13 14  1  0
 14 15  2  0
 15 16  1  0
 17 16  2  0
 17 18  1  0
 19 18  1  1
 19 20  1  0
 20  9  1  0
 21 25  1  0
 21 19  1  0
 22 21  2  0
 23 17  1  0
 24 23  2  0
 24 14  1  0
 26 25  1  0
 27 26  1  0
 28 27  1  0
 29 27  2  0
M  END
$$$$
