YYG.pdb
     RDKit          3D

 29 30  0  0  1  0  0  0  0  0999 V2000
   16.7278  -12.8670  -20.5233 O   0  0  0  0  0  0  0  0  0  0  0  0
   17.4452  -12.0739  -19.6138 C   0  0  0  0  0  0  0  0  0  0  0  0
   18.5142  -11.3124  -19.9955 C   0  0  0  0  0  0  0  0  0  0  0  0
   19.1899  -10.5515  -19.0783 C   0  0  0  0  0  0  0  0  0  0  0  0
   18.7984  -10.5472  -17.7643 C   0  0  0  0  0  0  0  0  0  0  0  0
   19.5051   -9.7577  -16.7567 C   0  0  0  0  0  0  0  0  0  0  0  0
   20.8597  -10.2541  -16.4009 C   0  0  2  0  0  0  0  0  0  0  0  0
   20.8599  -11.6209  -15.9311 N   0  0  0  0  0  0  0  0  0  0  0  0
   21.6013   -9.3345  -15.5141 C   0  0  0  0  0  0  0  0  0  0  0  0
   21.6981   -9.4876  -14.2786 O   0  0  0  0  0  0  0  0  0  0  0  0
   17.7212  -11.3170  -17.3919 C   0  0  0  0  0  0  0  0  0  0  0  0
   17.0390  -12.0786  -18.2911 C   0  0  0  0  0  0  0  0  0  0  0  0
   26.8352  -12.2584  -16.4418 O   0  0  0  0  0  0  0  0  0  0  0  0
   26.2494  -11.0008  -16.2878 C   0  0  0  0  0  0  0  0  0  0  0  0
   25.6048  -10.4643  -17.3722 C   0  0  0  0  0  0  0  0  0  0  0  0
   25.0134   -9.2252  -17.2594 C   0  0  0  0  0  0  0  0  0  0  0  0
   25.0762   -8.5361  -16.0538 C   0  0  0  0  0  0  0  0  0  0  0  0
   24.4204   -7.2301  -15.9682 C   0  0  0  0  0  0  0  0  0  0  0  0
   23.0312   -7.2473  -15.3966 C   0  0  2  0  0  0  0  0  0  0  0  0
   22.2387   -8.2063  -16.1012 N   0  0  0  0  0  0  0  0  0  0  0  0
   22.5062   -5.8551  -15.5427 C   0  0  0  0  0  0  0  0  0  0  0  0
   22.0283   -5.5745  -16.6720 O   0  0  0  0  0  0  0  0  0  0  0  0
   25.7281   -9.0780  -14.9577 C   0  0  0  0  0  0  0  0  0  0  0  0
   26.3245  -10.3298  -15.0747 C   0  0  0  0  0  0  0  0  0  0  0  0
   22.5179   -4.8892  -14.5327 N   0  0  0  0  0  0  0  0  0  0  0  0
   21.8966   -3.5982  -14.7467 C   0  0  0  0  0  0  0  0  0  0  0  0
   22.8042   -2.7457  -15.5874 C   0  0  0  0  0  0  0  0  0  0  0  0
   22.4879   -1.4501  -15.9219 O   0  0  0  0  0  0  0  0  0  0  0  0
   23.8843   -3.2125  -16.0043 O   0  0  0  0  0  0  0  0  0  0  0  0
  2  3  2  0
  2  1  1  0
  4  3  1  0
  5  4  2  0
  6  5  1  0
  7  6  1  0
  7  8  1  1
  9  7  1  0
  9 10  2  0
 11  5  1  0
 11 12  2  0
 12  2  1  0
 13 14  1  0
 14 15  2  0
 15 16  1  0
 17 16  2  0
 17 18  1  0
 19 18  1  6
 19 20  1  0
 20  9  1  0
 21 25  1  0
 21 19  1  0
 22 21  2  0
 23 17  1  0
 24 23  2  0
 24 14  1  0
 26 25  1  0
 27 26  1  0
 28 27  1  0
 29 27  2  0
M  END
$$$$
