YYG.pdb
     RDKit          3D

 29 30  0  0  1  0  0  0  0  0999 V2000
   29.5489  -20.2575   -3.7072 O   0  0  0  0  0  0  0  0  0  0  0  0
   28.8563  -19.9837   -4.8971 C   0  0  0  0  0  0  0  0  0  0  0  0
   29.2910  -19.0497   -5.7956 C   0  0  0  0  0  0  0  0  0  0  0  0
   28.5872  -18.8099   -6.9462 C   0  0  0  0  0  0  0  0  0  0  0  0
   27.4360  -19.5072   -7.2077 C   0  0  0  0  0  0  0  0  0  0  0  0
   26.6530  -19.2670   -8.4190 C   0  0  0  0  0  0  0  0  0  0  0  0
   26.6776  -20.3685   -9.4160 C   0  0  2  0  0  0  0  0  0  0  0  0
   28.0110  -20.8457   -9.7043 N   0  0  0  0  0  0  0  0  0  0  0  0
   25.8915  -20.0707  -10.6306 C   0  0  0  0  0  0  0  0  0  0  0  0
   26.1861  -19.1722  -11.4462 O   0  0  0  0  0  0  0  0  0  0  0  0
   27.0083  -20.4448   -6.2967 C   0  0  0  0  0  0  0  0  0  0  0  0
   27.6963  -20.6949   -5.1486 C   0  0  0  0  0  0  0  0  0  0  0  0
   28.5264  -20.7938  -16.3211 O   0  0  0  0  0  0  0  0  0  0  0  0
   27.4016  -21.0120  -15.5238 C   0  0  0  0  0  0  0  0  0  0  0  0
   27.5546  -21.8015  -14.4136 C   0  0  0  0  0  0  0  0  0  0  0  0
   26.4678  -22.0396  -13.6013 C   0  0  0  0  0  0  0  0  0  0  0  0
   25.2345  -21.4798  -13.9142 C   0  0  0  0  0  0  0  0  0  0  0  0
   24.1078  -21.7417  -13.0169 C   0  0  0  0  0  0  0  0  0  0  0  0
   23.8435  -20.6747  -11.9929 C   0  0  2  0  0  0  0  0  0  0  0  0
   24.7286  -20.8500  -10.8838 N   0  0  0  0  0  0  0  0  0  0  0  0
   22.4068  -20.8199  -11.6053 C   0  0  0  0  0  0  0  0  0  0  0  0
   22.1759  -21.6551  -10.6934 O   0  0  0  0  0  0  0  0  0  0  0  0
   25.0796  -20.6822  -15.0367 C   0  0  0  0  0  0  0  0  0  0  0  0
   26.1792  -20.4434  -15.8553 C   0  0  0  0  0  0  0  0  0  0  0  0
   21.3509  -20.1063  -12.1788 N   0  0  0  0  0  0  0  0  0  0  0  0
   19.9900  -20.3288  -11.7349 C   0  0  0  0  0  0  0  0  0  0  0  0
   19.3507  -21.3740  -12.6044 C   0  0  0  0  0  0  0  0  0  0  0  0
   18.2803  -21.0918  -13.4199 O   0  0  0  0  0  0  0  0  0  0  0  0
   19.7926  -22.5414  -12.5987 O   0  0  0  0  0  0  0  0  0  0  0  0
  2  3  2  0
  2  1  1  0
  4  3  1  0
  5  4  2  0
  6  5  1  0
  7  6  1  0
  7  8  1  6
  9  7  1  0
  9 10  2  0
 11  5  1  0
 11 12  2  0
 12  2  1  0
 13 14  1  0
 14 15  2  0
 15 16  1  0
 17 16  2  0
 17 18  1  0
 19 18  1  6
 19 20  1  0
 20  9  1  0
 21 25  1  0
 21 19  1  0
 22 21  2  0
 23 17  1  0
 24 23  2  0
 24 14  1  0
 26 25  1  0
 27 26  1  0
 28 27  1  0
 29 27  2  0
M  END
$$$$
