YYG.pdb
     RDKit          3D

 29 30  0  0  1  0  0  0  0  0999 V2000
   27.8416  -15.6581  -17.6261 O   0  0  0  0  0  0  0  0  0  0  0  0
   27.4523  -16.5134  -16.5832 C   0  0  0  0  0  0  0  0  0  0  0  0
   27.6542  -16.1990  -15.2684 C   0  0  0  0  0  0  0  0  0  0  0  0
   27.2608  -17.0601  -14.2782 C   0  0  0  0  0  0  0  0  0  0  0  0
   26.6589  -18.2497  -14.5986 C   0  0  0  0  0  0  0  0  0  0  0  0
   26.2389  -19.1980  -13.5680 C   0  0  0  0  0  0  0  0  0  0  0  0
   27.3341  -19.9993  -12.9626 C   0  0  2  0  0  0  0  0  0  0  0  0
   27.9533  -20.9132  -13.8954 N   0  0  0  0  0  0  0  0  0  0  0  0
   26.9492  -20.6409  -11.6889 C   0  0  0  0  0  0  0  0  0  0  0  0
   26.7343  -21.8645  -11.5642 O   0  0  0  0  0  0  0  0  0  0  0  0
   26.4605  -18.5552  -15.9249 C   0  0  0  0  0  0  0  0  0  0  0  0
   26.8456  -17.7103  -16.9208 C   0  0  0  0  0  0  0  0  0  0  0  0
   29.7638  -20.3349   -3.8251 O   0  0  0  0  0  0  0  0  0  0  0  0
   28.9833  -20.0661   -4.9507 C   0  0  0  0  0  0  0  0  0  0  0  0
   27.8553  -19.3074   -4.7739 C   0  0  0  0  0  0  0  0  0  0  0  0
   27.0594  -19.0201   -5.8610 C   0  0  0  0  0  0  0  0  0  0  0  0
   27.4067  -19.4998   -7.1186 C   0  0  0  0  0  0  0  0  0  0  0  0
   26.5452  -19.1583   -8.2518 C   0  0  0  0  0  0  0  0  0  0  0  0
   26.3473  -20.2551   -9.2591 C   0  0  2  0  0  0  0  0  0  0  0  0
   26.8111  -19.8158  -10.5382 N   0  0  0  0  0  0  0  0  0  0  0  0
   24.8837  -20.5604   -9.2565 C   0  0  0  0  0  0  0  0  0  0  0  0
   24.4859  -21.2874   -8.3100 O   0  0  0  0  0  0  0  0  0  0  0  0
   28.5466  -20.2671   -7.2974 C   0  0  0  0  0  0  0  0  0  0  0  0
   29.3486  -20.5558   -6.1975 C   0  0  0  0  0  0  0  0  0  0  0  0
   23.9722  -20.0998  -10.2105 N   0  0  0  0  0  0  0  0  0  0  0  0
   22.5618  -20.4052  -10.0832 C   0  0  0  0  0  0  0  0  0  0  0  0
   22.1993  -21.4857  -11.0622 C   0  0  0  0  0  0  0  0  0  0  0  0
   20.8978  -21.8772  -11.2702 O   0  0  0  0  0  0  0  0  0  0  0  0
   23.0959  -22.0571  -11.7162 O   0  0  0  0  0  0  0  0  0  0  0  0
  2  3  2  0
  2  1  1  0
  4  3  1  0
  5  4  2  0
  6  5  1  0
  7  6  1  0
  7  8  1  6
  9  7  1  0
  9 10  2  0
 11  5  1  0
 11 12  2  0
 12  2  1  0
 13 14  1  0
 14 15  2  0
 15 16  1  0
 17 16  2  0
 17 18  1  0
 19 18  1  1
 19 20  1  0
 20  9  1  0
 21 25  1  0
 21 19  1  0
 22 21  2  0
 23 17  1  0
 24 23  2  0
 24 14  1  0
 26 25  1  0
 27 26  1  0
 28 27  1  0
 29 27  2  0
M  END
$$$$
