YYG.pdb
     RDKit          3D

 29 30  0  0  1  0  0  0  0  0999 V2000
   27.1057  -33.3591  -16.7587 O   0  0  0  0  0  0  0  0  0  0  0  0
   26.8801  -33.3400  -15.3732 C   0  0  0  0  0  0  0  0  0  0  0  0
   27.5013  -34.2100  -14.5213 C   0  0  0  0  0  0  0  0  0  0  0  0
   27.2550  -34.1609  -13.1745 C   0  0  0  0  0  0  0  0  0  0  0  0
   26.3797  -33.2353  -12.6674 C   0  0  0  0  0  0  0  0  0  0  0  0
   26.0833  -33.1640  -11.2374 C   0  0  0  0  0  0  0  0  0  0  0  0
   25.1396  -34.1962  -10.7354 C   0  0  2  0  0  0  0  0  0  0  0  0
   23.8387  -34.1308  -11.3617 N   0  0  0  0  0  0  0  0  0  0  0  0
   25.0727  -34.2546   -9.2609 C   0  0  0  0  0  0  0  0  0  0  0  0
   24.1579  -33.7384   -8.5857 O   0  0  0  0  0  0  0  0  0  0  0  0
   25.7609  -32.3648  -13.5341 C   0  0  0  0  0  0  0  0  0  0  0  0
   25.9949  -32.4005  -14.8749 C   0  0  0  0  0  0  0  0  0  0  0  0
   20.3118  -37.5367   -7.0336 O   0  0  0  0  0  0  0  0  0  0  0  0
   21.6779  -37.2689   -6.9308 C   0  0  0  0  0  0  0  0  0  0  0  0
   22.4557  -37.5073   -8.0341 C   0  0  0  0  0  0  0  0  0  0  0  0
   23.8086  -37.2547   -7.9720 C   0  0  0  0  0  0  0  0  0  0  0  0
   24.3672  -36.7635   -6.7978 C   0  0  0  0  0  0  0  0  0  0  0  0
   25.8054  -36.4910   -6.7767 C   0  0  0  0  0  0  0  0  0  0  0  0
   26.1972  -35.0897   -7.1506 C   0  0  2  0  0  0  0  0  0  0  0  0
   26.1134  -34.9349   -8.5695 N   0  0  0  0  0  0  0  0  0  0  0  0
   27.5878  -34.8975   -6.6365 C   0  0  0  0  0  0  0  0  0  0  0  0
   28.5024  -35.0401   -7.4884 O   0  0  0  0  0  0  0  0  0  0  0  0
   23.5812  -36.5230   -5.6822 C   0  0  0  0  0  0  0  0  0  0  0  0
   22.2150  -36.7791   -5.7480 C   0  0  0  0  0  0  0  0  0  0  0  0
   27.9118  -34.5808   -5.3145 N   0  0  0  0  0  0  0  0  0  0  0  0
   29.2958  -34.4198   -4.9179 C   0  0  0  0  0  0  0  0  0  0  0  0
   29.3504  -33.9520   -3.4913 C   0  0  0  0  0  0  0  0  0  0  0  0
   28.2134  -33.7202   -2.7538 O   0  0  0  0  0  0  0  0  0  0  0  0
   30.4551  -33.7624   -2.9419 O   0  0  0  0  0  0  0  0  0  0  0  0
  2  3  2  0
  2  1  1  0
  4  3  1  0
  5  4  2  0
  6  5  1  0
  7  6  1  0
  7  8  1  6
  9  7  1  0
  9 10  2  0
 11  5  1  0
 11 12  2  0
 12  2  1  0
 13 14  1  0
 14 15  2  0
 15 16  1  0
 17 16  2  0
 17 18  1  0
 19 18  1  6
 19 20  1  0
 20  9  1  0
 21 25  1  0
 21 19  1  0
 22 21  2  0
 23 17  1  0
 24 23  2  0
 24 14  1  0
 26 25  1  0
 27 26  1  0
 28 27  1  0
 29 27  2  0
M  END
$$$$
