YYG.pdb
     RDKit          3D

 29 30  0  0  1  0  0  0  0  0999 V2000
   26.8513  -16.4948  -20.8316 O   0  0  0  0  0  0  0  0  0  0  0  0
   26.4412  -17.4363  -19.8744 C   0  0  0  0  0  0  0  0  0  0  0  0
   26.2852  -18.7608  -20.1745 C   0  0  0  0  0  0  0  0  0  0  0  0
   25.8827  -19.6498  -19.2130 C   0  0  0  0  0  0  0  0  0  0  0  0
   25.6314  -19.2172  -17.9364 C   0  0  0  0  0  0  0  0  0  0  0  0
   25.1872  -20.1361  -16.8895 C   0  0  0  0  0  0  0  0  0  0  0  0
   26.2615  -20.6451  -15.9980 C   0  0  2  0  0  0  0  0  0  0  0  0
   27.2219  -21.4799  -16.6832 N   0  0  0  0  0  0  0  0  0  0  0  0
   25.7455  -21.2531  -14.7545 C   0  0  0  0  0  0  0  0  0  0  0  0
   25.5530  -22.4780  -14.6077 O   0  0  0  0  0  0  0  0  0  0  0  0
   25.7921  -17.8824  -17.6460 C   0  0  0  0  0  0  0  0  0  0  0  0
   26.1916  -16.9862  -18.5900 C   0  0  0  0  0  0  0  0  0  0  0  0
   31.2362  -21.3790  -11.1341 O   0  0  0  0  0  0  0  0  0  0  0  0
   29.8744  -21.0728  -11.1433 C   0  0  0  0  0  0  0  0  0  0  0  0
   29.4089  -20.2825  -12.1621 C   0  0  0  0  0  0  0  0  0  0  0  0
   28.0705  -19.9589  -12.2061 C   0  0  0  0  0  0  0  0  0  0  0  0
   27.2113  -20.4345  -11.2225 C   0  0  0  0  0  0  0  0  0  0  0  0
   25.7929  -20.0835  -11.3137 C   0  0  0  0  0  0  0  0  0  0  0  0
   25.0171  -20.8213  -12.3675 C   0  0  2  0  0  0  0  0  0  0  0  0
   25.4463  -20.3923  -13.6621 N   0  0  0  0  0  0  0  0  0  0  0  0
   23.5765  -20.5133  -12.1126 C   0  0  0  0  0  0  0  0  0  0  0  0
   23.1249  -19.5067  -12.7171 O   0  0  0  0  0  0  0  0  0  0  0  0
   27.6817  -21.2330  -10.1923 C   0  0  0  0  0  0  0  0  0  0  0  0
   29.0340  -21.5582  -10.1505 C   0  0  0  0  0  0  0  0  0  0  0  0
   22.7399  -21.2539  -11.2732 N   0  0  0  0  0  0  0  0  0  0  0  0
   21.3668  -20.8439  -11.0604 C   0  0  0  0  0  0  0  0  0  0  0  0
   20.5137  -21.3730  -12.1781 C   0  0  0  0  0  0  0  0  0  0  0  0
   19.1593  -21.1432  -12.2360 O   0  0  0  0  0  0  0  0  0  0  0  0
   21.0346  -22.0450  -13.0921 O   0  0  0  0  0  0  0  0  0  0  0  0
  2  3  2  0
  2  1  1  0
  4  3  1  0
  5  4  2  0
  6  5  1  0
  7  6  1  0
  7  8  1  6
  9  7  1  0
  9 10  2  0
 11  5  1  0
 11 12  2  0
 12  2  1  0
 13 14  1  0
 14 15  2  0
 15 16  1  0
 17 16  2  0
 17 18  1  0
 19 18  1  1
 19 20  1  0
 20  9  1  0
 21 25  1  0
 21 19  1  0
 22 21  2  0
 23 17  1  0
 24 23  2  0
 24 14  1  0
 26 25  1  0
 27 26  1  0
 28 27  1  0
 29 27  2  0
M  END
$$$$
