YYG.pdb
     RDKit          3D

 29 30  0  0  1  0  0  0  0  0999 V2000
   32.5958   -6.3364  -18.4825 O   0  0  0  0  0  0  0  0  0  0  0  0
   31.3320   -6.9378  -18.3737 C   0  0  0  0  0  0  0  0  0  0  0  0
   31.1511   -8.1509  -17.7703 C   0  0  0  0  0  0  0  0  0  0  0  0
   29.9017   -8.7062  -17.6839 C   0  0  0  0  0  0  0  0  0  0  0  0
   28.8175   -8.0476  -18.2042 C   0  0  0  0  0  0  0  0  0  0  0  0
   27.4723   -8.6173  -18.1416 C   0  0  0  0  0  0  0  0  0  0  0  0
   27.3579  -10.0209  -18.6156 C   0  0  2  0  0  0  0  0  0  0  0  0
   27.9701  -10.2374  -19.9068 N   0  0  0  0  0  0  0  0  0  0  0  0
   25.9830  -10.5538  -18.5275 C   0  0  0  0  0  0  0  0  0  0  0  0
   25.3440  -10.9933  -19.5061 O   0  0  0  0  0  0  0  0  0  0  0  0
   29.0114   -6.8274  -18.8087 C   0  0  0  0  0  0  0  0  0  0  0  0
   30.2465   -6.2620  -18.9026 C   0  0  0  0  0  0  0  0  0  0  0  0
   27.0580  -16.6850  -16.7325 O   0  0  0  0  0  0  0  0  0  0  0  0
   26.3496  -15.5061  -16.4946 C   0  0  0  0  0  0  0  0  0  0  0  0
   25.0729  -15.4230  -16.9868 C   0  0  0  0  0  0  0  0  0  0  0  0
   24.3413  -14.2756  -16.7719 C   0  0  0  0  0  0  0  0  0  0  0  0
   24.9025  -13.2203  -16.0621 C   0  0  0  0  0  0  0  0  0  0  0  0
   24.0872  -12.0250  -15.8393 C   0  0  0  0  0  0  0  0  0  0  0  0
   24.0346  -11.0619  -16.9911 C   0  0  2  0  0  0  0  0  0  0  0  0
   25.3484  -10.5629  -17.2544 N   0  0  0  0  0  0  0  0  0  0  0  0
   23.0845   -9.9817  -16.5844 C   0  0  0  0  0  0  0  0  0  0  0  0
   21.8704  -10.3104  -16.5646 O   0  0  0  0  0  0  0  0  0  0  0  0
   26.1932  -13.3039  -15.5650 C   0  0  0  0  0  0  0  0  0  0  0  0
   26.9297  -14.4641  -15.7836 C   0  0  0  0  0  0  0  0  0  0  0  0
   23.4585   -8.6801  -16.2393 N   0  0  0  0  0  0  0  0  0  0  0  0
   22.4540   -7.7011  -15.8770 C   0  0  0  0  0  0  0  0  0  0  0  0
   22.0501   -7.9132  -14.4455 C   0  0  0  0  0  0  0  0  0  0  0  0
   21.0979   -7.1344  -13.8314 O   0  0  0  0  0  0  0  0  0  0  0  0
   22.5859   -8.8213  -13.7773 O   0  0  0  0  0  0  0  0  0  0  0  0
  2  3  2  0
  2  1  1  0
  4  3  1  0
  5  4  2  0
  6  5  1  0
  7  6  1  0
  7  8  1  6
  9  7  1  0
  9 10  2  0
 11  5  1  0
 11 12  2  0
 12  2  1  0
 13 14  1  0
 14 15  2  0
 15 16  1  0
 17 16  2  0
 17 18  1  0
 19 18  1  1
 19 20  1  0
 20  9  1  0
 21 25  1  0
 21 19  1  0
 22 21  2  0
 23 17  1  0
 24 23  2  0
 24 14  1  0
 26 25  1  0
 27 26  1  0
 28 27  1  0
 29 27  2  0
M  END
$$$$
