YYG.pdb
     RDKit          3D

 29 30  0  0  1  0  0  0  0  0999 V2000
   24.8680  -15.6417  -16.4884 O   0  0  0  0  0  0  0  0  0  0  0  0
   24.7268  -14.2682  -16.7420 C   0  0  0  0  0  0  0  0  0  0  0  0
   24.1708  -13.7933  -17.8969 C   0  0  0  0  0  0  0  0  0  0  0  0
   24.0506  -12.4452  -18.1087 C   0  0  0  0  0  0  0  0  0  0  0  0
   24.4888  -11.5569  -17.1606 C   0  0  0  0  0  0  0  0  0  0  0  0
   24.3884  -10.1119  -17.3598 C   0  0  0  0  0  0  0  0  0  0  0  0
   23.3457   -9.4330  -16.5475 C   0  0  2  0  0  0  0  0  0  0  0  0
   22.0916  -10.1506  -16.5162 N   0  0  0  0  0  0  0  0  0  0  0  0
   23.1888   -8.0026  -16.8812 C   0  0  0  0  0  0  0  0  0  0  0  0
   22.1475   -7.5120  -17.3652 O   0  0  0  0  0  0  0  0  0  0  0  0
   25.0462  -12.0463  -16.0023 C   0  0  0  0  0  0  0  0  0  0  0  0
   25.1728  -13.3830  -15.7765 C   0  0  0  0  0  0  0  0  0  0  0  0
   19.8187   -2.8311  -13.3457 O   0  0  0  0  0  0  0  0  0  0  0  0
   20.9666   -3.4062  -13.8935 C   0  0  0  0  0  0  0  0  0  0  0  0
   21.8009   -2.5926  -14.6155 C   0  0  0  0  0  0  0  0  0  0  0  0
   22.9442   -3.1232  -15.1714 C   0  0  0  0  0  0  0  0  0  0  0  0
   23.2381   -4.4703  -14.9952 C   0  0  0  0  0  0  0  0  0  0  0  0
   24.4712   -4.9928  -15.5864 C   0  0  0  0  0  0  0  0  0  0  0  0
   24.2977   -5.7255  -16.8864 C   0  0  2  0  0  0  0  0  0  0  0  0
   24.2896   -7.1340  -16.6413 N   0  0  0  0  0  0  0  0  0  0  0  0
   25.4392   -5.3036  -17.7549 C   0  0  0  0  0  0  0  0  0  0  0  0
   25.4822   -4.0771  -18.0313 O   0  0  0  0  0  0  0  0  0  0  0  0
   22.3946   -5.2930  -14.2659 C   0  0  0  0  0  0  0  0  0  0  0  0
   21.2404   -4.7543  -13.7056 C   0  0  0  0  0  0  0  0  0  0  0  0
   26.4202   -6.1642  -18.2550 N   0  0  0  0  0  0  0  0  0  0  0  0
   27.3803   -5.6917  -19.2315 C   0  0  0  0  0  0  0  0  0  0  0  0
   26.9689   -6.1625  -20.5976 C   0  0  0  0  0  0  0  0  0  0  0  0
   27.8008   -6.0600  -21.6875 O   0  0  0  0  0  0  0  0  0  0  0  0
   25.8390   -6.6654  -20.7668 O   0  0  0  0  0  0  0  0  0  0  0  0
  2  3  2  0
  2  1  1  0
  4  3  1  0
  5  4  2  0
  6  5  1  0
  7  6  1  0
  7  8  1  6
  9  7  1  0
  9 10  2  0
 11  5  1  0
 11 12  2  0
 12  2  1  0
 13 14  1  0
 14 15  2  0
 15 16  1  0
 17 16  2  0
 17 18  1  0
 19 18  1  1
 19 20  1  0
 20  9  1  0
 21 25  1  0
 21 19  1  0
 22 21  2  0
 23 17  1  0
 24 23  2  0
 24 14  1  0
 26 25  1  0
 27 26  1  0
 28 27  1  0
 29 27  2  0
M  END
$$$$
