YYG.pdb
     RDKit          3D

 29 30  0  0  1  0  0  0  0  0999 V2000
   13.5844  -21.8647    1.7723 O   0  0  0  0  0  0  0  0  0  0  0  0
   14.6645  -21.1582    2.3245 C   0  0  0  0  0  0  0  0  0  0  0  0
   14.7161  -20.8233    3.6488 C   0  0  0  0  0  0  0  0  0  0  0  0
   15.7873  -20.1325    4.1510 C   0  0  0  0  0  0  0  0  0  0  0  0
   16.8209  -19.7694    3.3266 C   0  0  0  0  0  0  0  0  0  0  0  0
   17.9727  -19.0200    3.8263 C   0  0  0  0  0  0  0  0  0  0  0  0
   17.6496  -17.7222    4.4738 C   0  0  2  0  0  0  0  0  0  0  0  0
   16.8962  -16.8321    3.6200 N   0  0  0  0  0  0  0  0  0  0  0  0
   18.8225  -17.0756    5.0970 C   0  0  0  0  0  0  0  0  0  0  0  0
   19.7126  -16.4821    4.4532 O   0  0  0  0  0  0  0  0  0  0  0  0
   16.7583  -20.1121    1.9960 C   0  0  0  0  0  0  0  0  0  0  0  0
   15.7010  -20.7984    1.4813 C   0  0  0  0  0  0  0  0  0  0  0  0
   20.6976  -10.3598    6.2838 O   0  0  0  0  0  0  0  0  0  0  0  0
   20.4462  -11.6415    6.7763 C   0  0  0  0  0  0  0  0  0  0  0  0
   19.3059  -12.2721    6.3506 C   0  0  0  0  0  0  0  0  0  0  0  0
   19.0233  -13.5384    6.8138 C   0  0  0  0  0  0  0  0  0  0  0  0
   19.8928  -14.1597    7.7028 C   0  0  0  0  0  0  0  0  0  0  0  0
   19.5670  -15.5122    8.1585 C   0  0  0  0  0  0  0  0  0  0  0  0
   20.0477  -16.6215    7.2667 C   0  0  2  0  0  0  0  0  0  0  0  0
   18.9474  -17.1366    6.5128 N   0  0  0  0  0  0  0  0  0  0  0  0
   20.6503  -17.6481    8.1712 C   0  0  0  0  0  0  0  0  0  0  0  0
   19.8286  -18.3937    8.7641 O   0  0  0  0  0  0  0  0  0  0  0  0
   21.0453  -13.5222    8.1335 C   0  0  0  0  0  0  0  0  0  0  0  0
   21.3281  -12.2432    7.6639 C   0  0  0  0  0  0  0  0  0  0  0  0
   22.0213  -17.8162    8.3839 N   0  0  0  0  0  0  0  0  0  0  0  0
   22.5065  -18.9021    9.2110 C   0  0  0  0  0  0  0  0  0  0  0  0
   22.5158  -18.4635   10.6479 C   0  0  0  0  0  0  0  0  0  0  0  0
   21.9417  -17.2826   11.0556 O   0  0  0  0  0  0  0  0  0  0  0  0
   23.0578  -19.1820   11.5128 O   0  0  0  0  0  0  0  0  0  0  0  0
  2  3  2  0
  2  1  1  0
  4  3  1  0
  5  4  2  0
  6  5  1  0
  7  6  1  0
  7  8  1  6
  9  7  1  0
  9 10  2  0
 11  5  1  0
 11 12  2  0
 12  2  1  0
 13 14  1  0
 14 15  2  0
 15 16  1  0
 17 16  2  0
 17 18  1  0
 19 18  1  1
 19 20  1  0
 20  9  1  0
 21 25  1  0
 21 19  1  0
 22 21  2  0
 23 17  1  0
 24 23  2  0
 24 14  1  0
 26 25  1  0
 27 26  1  0
 28 27  1  0
 29 27  2  0
M  END
$$$$
