YYG.pdb
     RDKit          3D

 29 30  0  0  1  0  0  0  0  0999 V2000
   11.8376  -22.2463    0.2303 O   0  0  0  0  0  0  0  0  0  0  0  0
   12.7823  -21.5903    1.0352 C   0  0  0  0  0  0  0  0  0  0  0  0
   14.0712  -22.0302    1.1528 C   0  0  0  0  0  0  0  0  0  0  0  0
   14.9646  -21.3633    1.9490 C   0  0  0  0  0  0  0  0  0  0  0  0
   14.5723  -20.2445    2.6377 C   0  0  0  0  0  0  0  0  0  0  0  0
   15.4956  -19.5166    3.5068 C   0  0  0  0  0  0  0  0  0  0  0  0
   16.1438  -18.3312    2.8883 C   0  0  2  0  0  0  0  0  0  0  0  0
   16.5890  -18.5677    1.5339 N   0  0  0  0  0  0  0  0  0  0  0  0
   17.1836  -17.7245    3.7444 C   0  0  0  0  0  0  0  0  0  0  0  0
   18.4088  -17.8197    3.5230 O   0  0  0  0  0  0  0  0  0  0  0  0
   13.2731  -19.8110    2.5115 C   0  0  0  0  0  0  0  0  0  0  0  0
   12.3731  -20.4624    1.7243 C   0  0  0  0  0  0  0  0  0  0  0  0
   21.1088  -11.0623    6.7022 O   0  0  0  0  0  0  0  0  0  0  0  0
   20.1243  -12.0344    6.5176 C   0  0  0  0  0  0  0  0  0  0  0  0
   19.6740  -12.7000    7.6283 C   0  0  0  0  0  0  0  0  0  0  0  0
   18.7022  -13.6661    7.4869 C   0  0  0  0  0  0  0  0  0  0  0  0
   18.1914  -13.9540    6.2266 C   0  0  0  0  0  0  0  0  0  0  0  0
   17.1473  -14.9746    6.1195 C   0  0  0  0  0  0  0  0  0  0  0  0
   17.6380  -16.3651    5.8326 C   0  0  2  0  0  0  0  0  0  0  0  0
   16.7649  -16.9929    4.8904 N   0  0  0  0  0  0  0  0  0  0  0  0
   17.6633  -17.0749    7.1482 C   0  0  0  0  0  0  0  0  0  0  0  0
   16.5481  -17.4844    7.5617 O   0  0  0  0  0  0  0  0  0  0  0  0
   18.6468  -13.2818    5.1037 C   0  0  0  0  0  0  0  0  0  0  0  0
   19.6285  -12.3064    5.2496 C   0  0  0  0  0  0  0  0  0  0  0  0
   18.8128  -17.2980    7.9111 N   0  0  0  0  0  0  0  0  0  0  0  0
   18.7329  -18.0281    9.1597 C   0  0  0  0  0  0  0  0  0  0  0  0
   19.6765  -19.1962    9.1111 C   0  0  0  0  0  0  0  0  0  0  0  0
   19.9234  -19.8888    7.9492 O   0  0  0  0  0  0  0  0  0  0  0  0
   20.2640  -19.5634   10.1494 O   0  0  0  0  0  0  0  0  0  0  0  0
  2  3  2  0
  2  1  1  0
  4  3  1  0
  5  4  2  0
  6  5  1  0
  7  6  1  0
  7  8  1  6
  9  7  1  0
  9 10  2  0
 11  5  1  0
 11 12  2  0
 12  2  1  0
 13 14  1  0
 14 15  2  0
 15 16  1  0
 17 16  2  0
 17 18  1  0
 19 18  1  1
 19 20  1  0
 20  9  1  0
 21 25  1  0
 21 19  1  0
 22 21  2  0
 23 17  1  0
 24 23  2  0
 24 14  1  0
 26 25  1  0
 27 26  1  0
 28 27  1  0
 29 27  2  0
M  END
$$$$
