YYG.pdb
     RDKit          3D

 29 30  0  0  1  0  0  0  0  0999 V2000
   13.0988   -6.1496  -19.5949 O   0  0  0  0  0  0  0  0  0  0  0  0
   14.1697   -6.1711  -18.6875 C   0  0  0  0  0  0  0  0  0  0  0  0
   15.4696   -6.2802  -19.0960 C   0  0  0  0  0  0  0  0  0  0  0  0
   16.4880   -6.2984  -18.1799 C   0  0  0  0  0  0  0  0  0  0  0  0
   16.2115   -6.2071  -16.8401 C   0  0  0  0  0  0  0  0  0  0  0  0
   17.2727   -6.2371  -15.8348 C   0  0  0  0  0  0  0  0  0  0  0  0
   18.0607   -7.4959  -15.7852 C   0  0  2  0  0  0  0  0  0  0  0  0
   17.2377   -8.6785  -15.6724 N   0  0  0  0  0  0  0  0  0  0  0  0
   19.1589   -7.4556  -14.7980 C   0  0  0  0  0  0  0  0  0  0  0  0
   19.1173   -8.0267  -13.6884 O   0  0  0  0  0  0  0  0  0  0  0  0
   14.8999   -6.0973  -16.4408 C   0  0  0  0  0  0  0  0  0  0  0  0
   13.8763   -6.0778  -17.3384 C   0  0  0  0  0  0  0  0  0  0  0  0
   22.6361  -12.6710  -15.9713 O   0  0  0  0  0  0  0  0  0  0  0  0
   22.6737  -11.2988  -15.7186 C   0  0  0  0  0  0  0  0  0  0  0  0
   22.0426  -10.4719  -16.6115 C   0  0  0  0  0  0  0  0  0  0  0  0
   22.0571   -9.1113  -16.3961 C   0  0  0  0  0  0  0  0  0  0  0  0
   22.7076   -8.5944  -15.2818 C   0  0  0  0  0  0  0  0  0  0  0  0
   22.6857   -7.1448  -15.0781 C   0  0  0  0  0  0  0  0  0  0  0  0
   21.5017   -6.6233  -14.3145 C   0  0  2  0  0  0  0  0  0  0  0  0
   20.3305   -6.7196  -15.1290 N   0  0  0  0  0  0  0  0  0  0  0  0
   21.8315   -5.2105  -13.9536 C   0  0  0  0  0  0  0  0  0  0  0  0
   22.8560   -5.0613  -13.2391 O   0  0  0  0  0  0  0  0  0  0  0  0
   23.3460   -9.4300  -14.3793 C   0  0  0  0  0  0  0  0  0  0  0  0
   23.3298  -10.8038  -14.5995 C   0  0  0  0  0  0  0  0  0  0  0  0
   21.0923   -4.0932  -14.3516 N   0  0  0  0  0  0  0  0  0  0  0  0
   21.4526   -2.7712  -13.8814 C   0  0  0  0  0  0  0  0  0  0  0  0
   21.9898   -1.9667  -15.0309 C   0  0  0  0  0  0  0  0  0  0  0  0
   21.2963   -0.9092  -15.5706 O   0  0  0  0  0  0  0  0  0  0  0  0
   23.1000   -2.2536  -15.5242 O   0  0  0  0  0  0  0  0  0  0  0  0
  2  3  2  0
  2  1  1  0
  4  3  1  0
  5  4  2  0
  6  5  1  0
  7  6  1  0
  7  8  1  1
  9  7  1  0
  9 10  2  0
 11  5  1  0
 11 12  2  0
 12  2  1  0
 13 14  1  0
 14 15  2  0
 15 16  1  0
 17 16  2  0
 17 18  1  0
 19 18  1  6
 19 20  1  0
 20  9  1  0
 21 25  1  0
 21 19  1  0
 22 21  2  0
 23 17  1  0
 24 23  2  0
 24 14  1  0
 26 25  1  0
 27 26  1  0
 28 27  1  0
 29 27  2  0
M  END
$$$$
