YYG.pdb
     RDKit          3D

 29 30  0  0  1  0  0  0  0  0999 V2000
   22.7720  -20.6111  -21.4728 O   0  0  0  0  0  0  0  0  0  0  0  0
   23.2869  -20.1814  -20.2395 C   0  0  0  0  0  0  0  0  0  0  0  0
   24.1671  -20.9351  -19.5144 C   0  0  0  0  0  0  0  0  0  0  0  0
   24.6475  -20.4820  -18.3141 C   0  0  0  0  0  0  0  0  0  0  0  0
   24.2480  -19.2640  -17.8275 C   0  0  0  0  0  0  0  0  0  0  0  0
   24.7301  -18.7560  -16.5440 C   0  0  0  0  0  0  0  0  0  0  0  0
   24.4414  -19.6233  -15.3725 C   0  0  2  0  0  0  0  0  0  0  0  0
   23.0455  -19.6280  -14.9980 N   0  0  0  0  0  0  0  0  0  0  0  0
   25.3484  -19.3806  -14.2321 C   0  0  0  0  0  0  0  0  0  0  0  0
   25.2943  -18.3673  -13.5044 O   0  0  0  0  0  0  0  0  0  0  0  0
   23.3623  -18.5142  -18.5659 C   0  0  0  0  0  0  0  0  0  0  0  0
   22.8757  -18.9501  -19.7605 C   0  0  0  0  0  0  0  0  0  0  0  0
   21.8611  -20.9162   -9.5415 O   0  0  0  0  0  0  0  0  0  0  0  0
   23.1415  -21.0176  -10.0880 C   0  0  0  0  0  0  0  0  0  0  0  0
   23.2654  -21.6431  -11.3015 C   0  0  0  0  0  0  0  0  0  0  0  0
   24.5129  -21.7623  -11.8738 C   0  0  0  0  0  0  0  0  0  0  0  0
   25.6263  -21.2497  -11.2183 C   0  0  0  0  0  0  0  0  0  0  0  0
   26.9323  -21.3803  -11.8668 C   0  0  0  0  0  0  0  0  0  0  0  0
   27.2661  -20.3012  -12.8573 C   0  0  2  0  0  0  0  0  0  0  0  0
   26.3446  -20.3560  -13.9491 N   0  0  0  0  0  0  0  0  0  0  0  0
   28.6755  -20.5548  -13.2865 C   0  0  0  0  0  0  0  0  0  0  0  0
   28.8068  -21.2810  -14.3054 O   0  0  0  0  0  0  0  0  0  0  0  0
   25.5014  -20.6179   -9.9914 C   0  0  0  0  0  0  0  0  0  0  0  0
   24.2401  -20.4991   -9.4158 C   0  0  0  0  0  0  0  0  0  0  0  0
   29.8078  -20.0489  -12.6424 N   0  0  0  0  0  0  0  0  0  0  0  0
   30.3551  -20.7252  -11.4841 C   0  0  0  0  0  0  0  0  0  0  0  0
   31.1445  -21.9207  -11.9364 C   0  0  0  0  0  0  0  0  0  0  0  0
   32.1390  -22.4746  -11.1653 O   0  0  0  0  0  0  0  0  0  0  0  0
   30.9031  -22.4408  -13.0452 O   0  0  0  0  0  0  0  0  0  0  0  0
  2  3  2  0
  2  1  1  0
  4  3  1  0
  5  4  2  0
  6  5  1  0
  7  6  1  0
  7  8  1  1
  9  7  1  0
  9 10  2  0
 11  5  1  0
 11 12  2  0
 12  2  1  0
 13 14  1  0
 14 15  2  0
 15 16  1  0
 17 16  2  0
 17 18  1  0
 19 18  1  1
 19 20  1  0
 20  9  1  0
 21 25  1  0
 21 19  1  0
 22 21  2  0
 23 17  1  0
 24 23  2  0
 24 14  1  0
 26 25  1  0
 27 26  1  0
 28 27  1  0
 29 27  2  0
M  END
$$$$
