YYG.pdb
     RDKit          3D

 29 30  0  0  1  0  0  0  0  0999 V2000
   23.6919  -21.1047   -9.5334 O   0  0  0  0  0  0  0  0  0  0  0  0
   23.4866  -20.4271  -10.7456 C   0  0  0  0  0  0  0  0  0  0  0  0
   24.4691  -20.3047  -11.6880 C   0  0  0  0  0  0  0  0  0  0  0  0
   24.2308  -19.6351  -12.8593 C   0  0  0  0  0  0  0  0  0  0  0  0
   23.0001  -19.0796  -13.0973 C   0  0  0  0  0  0  0  0  0  0  0  0
   22.7156  -18.3468  -14.3301 C   0  0  0  0  0  0  0  0  0  0  0  0
   21.7849  -19.0259  -15.2685 C   0  0  2  0  0  0  0  0  0  0  0  0
   22.1938  -20.3715  -15.6015 N   0  0  0  0  0  0  0  0  0  0  0  0
   21.4555  -18.2083  -16.4539 C   0  0  0  0  0  0  0  0  0  0  0  0
   22.0942  -18.2496  -17.5260 O   0  0  0  0  0  0  0  0  0  0  0  0
   22.0191  -19.2094  -12.1420 C   0  0  0  0  0  0  0  0  0  0  0  0
   22.2398  -19.8717  -10.9730 C   0  0  0  0  0  0  0  0  0  0  0  0
   18.1890  -21.3595  -21.2554 O   0  0  0  0  0  0  0  0  0  0  0  0
   18.2677  -20.2857  -20.3670 C   0  0  0  0  0  0  0  0  0  0  0  0
   18.2367  -19.0214  -20.8959 C   0  0  0  0  0  0  0  0  0  0  0  0
   18.3114  -17.9357  -20.0511 C   0  0  0  0  0  0  0  0  0  0  0  0
   18.4166  -18.1329  -18.6792 C   0  0  0  0  0  0  0  0  0  0  0  0
   18.4757  -16.9541  -17.8131 C   0  0  0  0  0  0  0  0  0  0  0  0
   19.8589  -16.5050  -17.4363 C   0  0  2  0  0  0  0  0  0  0  0  0
   20.3486  -17.3187  -16.3675 N   0  0  0  0  0  0  0  0  0  0  0  0
   19.7359  -15.0664  -17.0484 C   0  0  0  0  0  0  0  0  0  0  0  0
   19.4798  -14.8549  -15.8350 O   0  0  0  0  0  0  0  0  0  0  0  0
   18.4484  -19.4108  -18.1444 C   0  0  0  0  0  0  0  0  0  0  0  0
   18.3728  -20.5055  -19.0002 C   0  0  0  0  0  0  0  0  0  0  0  0
   19.8842  -13.9891  -17.9262 N   0  0  0  0  0  0  0  0  0  0  0  0
   19.6202  -12.6372  -17.4776 C   0  0  0  0  0  0  0  0  0  0  0  0
   20.8968  -12.0244  -16.9755 C   0  0  0  0  0  0  0  0  0  0  0  0
   20.9489  -10.7400  -16.4875 O   0  0  0  0  0  0  0  0  0  0  0  0
   21.9537  -12.6884  -16.9945 O   0  0  0  0  0  0  0  0  0  0  0  0
  2  3  2  0
  2  1  1  0
  4  3  1  0
  5  4  2  0
  6  5  1  0
  7  6  1  0
  7  8  1  6
  9  7  1  0
  9 10  2  0
 11  5  1  0
 11 12  2  0
 12  2  1  0
 13 14  1  0
 14 15  2  0
 15 16  1  0
 17 16  2  0
 17 18  1  0
 19 18  1  1
 19 20  1  0
 20  9  1  0
 21 25  1  0
 21 19  1  0
 22 21  2  0
 23 17  1  0
 24 23  2  0
 24 14  1  0
 26 25  1  0
 27 26  1  0
 28 27  1  0
 29 27  2  0
M  END
$$$$
