YYG.pdb
     RDKit          3D

 29 30  0  0  1  0  0  0  0  0999 V2000
   25.2279  -16.0178  -20.9373 O   0  0  0  0  0  0  0  0  0  0  0  0
   24.9685  -16.8564  -19.8417 C   0  0  0  0  0  0  0  0  0  0  0  0
   25.0783  -16.4233  -18.5498 C   0  0  0  0  0  0  0  0  0  0  0  0
   24.8172  -17.2719  -17.5065 C   0  0  0  0  0  0  0  0  0  0  0  0
   24.4424  -18.5682  -17.7498 C   0  0  0  0  0  0  0  0  0  0  0  0
   24.1696  -19.5043  -16.6603 C   0  0  0  0  0  0  0  0  0  0  0  0
   25.3724  -20.0432  -15.9742 C   0  0  2  0  0  0  0  0  0  0  0  0
   26.2595  -20.7614  -16.8608 N   0  0  0  0  0  0  0  0  0  0  0  0
   25.0520  -20.7912  -14.7413 C   0  0  0  0  0  0  0  0  0  0  0  0
   25.0121  -22.0374  -14.6750 O   0  0  0  0  0  0  0  0  0  0  0  0
   24.3349  -18.9927  -19.0537 C   0  0  0  0  0  0  0  0  0  0  0  0
   24.5907  -18.1619  -20.1017 C   0  0  0  0  0  0  0  0  0  0  0  0
   30.7791  -21.2987  -11.3775 O   0  0  0  0  0  0  0  0  0  0  0  0
   29.4294  -20.9425  -11.3752 C   0  0  0  0  0  0  0  0  0  0  0  0
   28.6048  -21.5871  -10.4899 C   0  0  0  0  0  0  0  0  0  0  0  0
   27.2664  -21.2626  -10.4571 C   0  0  0  0  0  0  0  0  0  0  0  0
   26.7691  -20.2904  -11.3173 C   0  0  0  0  0  0  0  0  0  0  0  0
   25.3448  -19.9610  -11.2400 C   0  0  0  0  0  0  0  0  0  0  0  0
   24.4794  -20.6132  -12.2805 C   0  0  2  0  0  0  0  0  0  0  0  0
   24.7681  -20.0482  -13.5618 N   0  0  0  0  0  0  0  0  0  0  0  0
   23.0668  -20.3711  -11.8550 C   0  0  0  0  0  0  0  0  0  0  0  0
   22.5361  -19.3276  -12.3154 O   0  0  0  0  0  0  0  0  0  0  0  0
   27.6024  -19.6392  -12.2126 C   0  0  0  0  0  0  0  0  0  0  0  0
   28.9539  -19.9690  -12.2434 C   0  0  0  0  0  0  0  0  0  0  0  0
   22.3353  -21.2081  -11.0080 N   0  0  0  0  0  0  0  0  0  0  0  0
   20.9667  -20.8838  -10.6609 C   0  0  0  0  0  0  0  0  0  0  0  0
   20.0499  -21.3905  -11.7379 C   0  0  0  0  0  0  0  0  0  0  0  0
   20.5220  -22.0371  -12.8556 O   0  0  0  0  0  0  0  0  0  0  0  0
   18.8169  -21.2278  -11.6308 O   0  0  0  0  0  0  0  0  0  0  0  0
  2  3  2  0
  2  1  1  0
  4  3  1  0
  5  4  2  0
  6  5  1  0
  7  6  1  0
  7  8  1  6
  9  7  1  0
  9 10  2  0
 11  5  1  0
 11 12  2  0
 12  2  1  0
 13 14  1  0
 14 15  2  0
 15 16  1  0
 17 16  2  0
 17 18  1  0
 19 18  1  1
 19 20  1  0
 20  9  1  0
 21 25  1  0
 21 19  1  0
 22 21  2  0
 23 17  1  0
 24 23  2  0
 24 14  1  0
 26 25  1  0
 27 26  1  0
 28 27  1  0
 29 27  2  0
M  END
$$$$
