DQG.pdb
     RDKit          3D

 22 21  0  0  1  0  0  0  0  0999 V2000
   14.0453  -16.7417   17.5204 N   0  0  0  0  0  0  0  0  0  0  0  0
   14.1024  -15.3530   17.2091 C   0  0  1  0  0  0  0  0  0  0  0  0
   12.8868  -14.9634   16.3743 C   0  0  0  0  0  0  0  0  0  0  0  0
   12.9613  -15.6644   15.0786 C   0  0  0  0  0  0  0  0  0  0  0  0
   13.8664  -16.4964   14.8455 O   0  0  0  0  0  0  0  0  0  0  0  0
   14.0079  -14.5626   18.4854 C   0  0  0  0  0  0  0  0  0  0  0  0
   14.0390  -13.3145   18.3964 O   0  0  0  0  0  0  0  0  0  0  0  0
   12.0173  -15.3928   14.1106 O   0  0  0  0  0  0  0  0  0  0  0  0
   10.6132  -15.5642   23.3304 N   0  0  0  0  0  0  0  0  0  0  0  0
   10.9166  -16.4415   22.2813 C   0  0  0  0  0  0  0  0  0  0  0  0
   10.2454  -17.4529   22.0550 O   0  0  0  0  0  0  0  0  0  0  0  0
   12.0962  -16.1649   21.3789 C   0  0  0  0  0  0  0  0  0  0  0  0
   12.7695  -14.8938   21.8225 C   0  0  0  0  0  0  0  0  0  0  0  0
   13.9737  -14.6008   20.9730 C   0  0  2  0  0  0  0  0  0  0  0  0
   13.8917  -15.2838   19.6949 N   0  0  0  0  0  0  0  0  0  0  0  0
   15.2422  -14.8256   21.6522 C   0  0  0  0  0  0  0  0  0  0  0  0
   15.6152  -14.0867   22.5925 O   0  0  0  0  0  0  0  0  0  0  0  0
   16.1216  -15.9122   21.2664 N   0  0  0  0  0  0  0  0  0  0  0  0
   17.5267  -15.6231   21.0864 C   0  0  0  0  0  0  0  0  0  0  0  0
   18.2579  -15.6396   22.3679 C   0  0  0  0  0  0  0  0  0  0  0  0
   19.6064  -15.9535   22.4309 O   0  0  0  0  0  0  0  0  0  0  0  0
   17.6777  -15.3677   23.4526 O   0  0  0  0  0  0  0  0  0  0  0  0
  2  1  1  1
  3  2  1  0
  4  3  1  0
  4  8  1  0
  5  4  2  0
  6 15  1  0
  6  2  1  0
  7  6  2  0
  9 10  1  0
 10 12  1  0
 11 10  2  0
 12 13  1  0
 14 13  1  1
 14 16  1  0
 14 15  1  0
 16 18  1  0
 17 16  2  0
 18 19  1  0
 20 19  1  0
 20 21  1  0
 22 20  2  0
M  END
$$$$
