DQG.pdb
     RDKit          3D

 22 21  0  0  1  0  0  0  0  0999 V2000
   11.6384  -18.4611   19.7032 N   0  0  0  0  0  0  0  0  0  0  0  0
   12.8361  -18.1707   20.4173 C   0  0  1  0  0  0  0  0  0  0  0  0
   13.6912  -17.1980   19.6118 C   0  0  0  0  0  0  0  0  0  0  0  0
   15.0077  -17.0757   20.2657 C   0  0  0  0  0  0  0  0  0  0  0  0
   15.4628  -15.9584   20.5975 O   0  0  0  0  0  0  0  0  0  0  0  0
   12.4821  -17.4615   21.6957 C   0  0  0  0  0  0  0  0  0  0  0  0
   13.4245  -17.0343   22.4001 O   0  0  0  0  0  0  0  0  0  0  0  0
   15.7465  -18.2142   20.5108 O   0  0  0  0  0  0  0  0  0  0  0  0
    6.3366  -16.0639   25.2281 N   0  0  0  0  0  0  0  0  0  0  0  0
    7.4544  -15.4529   24.6453 C   0  0  0  0  0  0  0  0  0  0  0  0
    7.3807  -14.3673   24.0617 O   0  0  0  0  0  0  0  0  0  0  0  0
    8.8079  -16.1197   24.7202 C   0  0  0  0  0  0  0  0  0  0  0  0
    9.3785  -16.2358   23.3321 C   0  0  0  0  0  0  0  0  0  0  0  0
   10.6957  -16.9582   23.3529 C   0  0  2  0  0  0  0  0  0  0  0  0
   11.1116  -17.3280   22.0124 N   0  0  0  0  0  0  0  0  0  0  0  0
   10.7396  -18.0759   24.2854 C   0  0  0  0  0  0  0  0  0  0  0  0
   10.3509  -19.2182   23.9487 O   0  0  0  0  0  0  0  0  0  0  0  0
   11.2342  -17.9098   25.6385 N   0  0  0  0  0  0  0  0  0  0  0  0
   11.2273  -19.0599   26.5146 C   0  0  0  0  0  0  0  0  0  0  0  0
   11.7059  -18.7200   27.8684 C   0  0  0  0  0  0  0  0  0  0  0  0
   10.8253  -18.4798   28.9113 O   0  0  0  0  0  0  0  0  0  0  0  0
   12.9371  -18.6366   28.1222 O   0  0  0  0  0  0  0  0  0  0  0  0
  2  1  1  6
  3  2  1  0
  4  3  1  0
  4  8  1  0
  5  4  2  0
  6 15  1  0
  6  2  1  0
  7  6  2  0
  9 10  1  0
 10 12  1  0
 11 10  2  0
 12 13  1  0
 14 13  1  6
 14 16  1  0
 14 15  1  0
 16 18  1  0
 17 16  2  0
 18 19  1  0
 20 19  1  0
 20 21  1  0
 22 20  2  0
M  END
$$$$
