DQG.pdb
     RDKit          3D

 22 21  0  0  1  0  0  0  0  0999 V2000
    8.0766  -16.9271   21.9894 N   0  0  0  0  0  0  0  0  0  0  0  0
    9.3340  -16.3169   21.7148 C   0  0  1  0  0  0  0  0  0  0  0  0
    9.2474  -15.5251   20.4142 C   0  0  0  0  0  0  0  0  0  0  0  0
    9.2395  -16.4740   19.2850 C   0  0  0  0  0  0  0  0  0  0  0  0
    8.2369  -17.1829   19.0440 O   0  0  0  0  0  0  0  0  0  0  0  0
    9.6381  -15.3176   22.7972 C   0  0  0  0  0  0  0  0  0  0  0  0
   10.5827  -14.5204   22.5995 O   0  0  0  0  0  0  0  0  0  0  0  0
   10.3588  -16.5800   18.4863 O   0  0  0  0  0  0  0  0  0  0  0  0
    6.5810  -11.2917   26.0507 N   0  0  0  0  0  0  0  0  0  0  0  0
    6.0138  -12.5704   26.1243 C   0  0  0  0  0  0  0  0  0  0  0  0
    4.8626  -12.7567   26.5300 O   0  0  0  0  0  0  0  0  0  0  0  0
    6.8123  -13.7796   25.6971 C   0  0  0  0  0  0  0  0  0  0  0  0
    8.1231  -13.3244   25.1135 C   0  0  0  0  0  0  0  0  0  0  0  0
    9.1119  -14.4549   25.0708 C   0  0  2  0  0  0  0  0  0  0  0  0
    8.8376  -15.3491   23.9610 N   0  0  0  0  0  0  0  0  0  0  0  0
    9.2582  -15.1573   26.3381 C   0  0  0  0  0  0  0  0  0  0  0  0
    9.4112  -14.5324   27.4131 O   0  0  0  0  0  0  0  0  0  0  0  0
    9.2328  -16.6057   26.4045 N   0  0  0  0  0  0  0  0  0  0  0  0
   10.0461  -17.2583   27.4060 C   0  0  0  0  0  0  0  0  0  0  0  0
   10.7890  -18.4040   26.8469 C   0  0  0  0  0  0  0  0  0  0  0  0
   12.1363  -18.5945   27.1103 O   0  0  0  0  0  0  0  0  0  0  0  0
   10.2203  -19.2512   26.1080 O   0  0  0  0  0  0  0  0  0  0  0  0
  2  1  1  1
  3  2  1  0
  4  3  1  0
  4  8  1  0
  5  4  2  0
  6 15  1  0
  6  2  1  0
  7  6  2  0
  9 10  1  0
 10 12  1  0
 11 10  2  0
 12 13  1  0
 14 13  1  1
 14 16  1  0
 14 15  1  0
 16 18  1  0
 17 16  2  0
 18 19  1  0
 20 19  1  0
 20 21  1  0
 22 20  2  0
M  END
$$$$
