DQG.pdb
     RDKit          3D

 22 21  0  0  1  0  0  0  0  0999 V2000
   11.1891  -16.8546   16.5254 N   0  0  0  0  0  0  0  0  0  0  0  0
   12.2507  -16.8570   17.4750 C   0  0  1  0  0  0  0  0  0  0  0  0
   13.4955  -16.2304   16.8553 C   0  0  0  0  0  0  0  0  0  0  0  0
   14.1163  -17.2145   15.9488 C   0  0  0  0  0  0  0  0  0  0  0  0
   13.8662  -18.4362   16.0527 O   0  0  0  0  0  0  0  0  0  0  0  0
   11.8696  -15.9784   18.6350 C   0  0  0  0  0  0  0  0  0  0  0  0
   12.7033  -15.1242   19.0118 O   0  0  0  0  0  0  0  0  0  0  0  0
   14.9882  -16.7764   14.9741 O   0  0  0  0  0  0  0  0  0  0  0  0
    6.6579  -13.2390   19.8295 N   0  0  0  0  0  0  0  0  0  0  0  0
    7.2645  -13.1320   21.0877 C   0  0  0  0  0  0  0  0  0  0  0  0
    6.7636  -12.4749   22.0053 O   0  0  0  0  0  0  0  0  0  0  0  0
    8.5733  -13.8353   21.3605 C   0  0  0  0  0  0  0  0  0  0  0  0
    9.0082  -14.5678   20.1194 C   0  0  0  0  0  0  0  0  0  0  0  0
   10.2022  -15.4355   20.4001 C   0  0  2  0  0  0  0  0  0  0  0  0
   10.5985  -16.1793   19.2184 N   0  0  0  0  0  0  0  0  0  0  0  0
   10.0514  -16.2824   21.5752 C   0  0  0  0  0  0  0  0  0  0  0  0
    9.7248  -17.4872   21.4697 O   0  0  0  0  0  0  0  0  0  0  0  0
   10.2729  -15.7642   22.9114 N   0  0  0  0  0  0  0  0  0  0  0  0
   11.6336  -15.6692   23.3906 C   0  0  0  0  0  0  0  0  0  0  0  0
   12.1872  -16.9933   23.7336 C   0  0  0  0  0  0  0  0  0  0  0  0
   12.2312  -17.4452   25.0431 O   0  0  0  0  0  0  0  0  0  0  0  0
   12.6402  -17.7606   22.8431 O   0  0  0  0  0  0  0  0  0  0  0  0
  2  1  1  6
  3  2  1  0
  4  3  1  0
  4  8  1  0
  5  4  2  0
  6 15  1  0
  6  2  1  0
  7  6  2  0
  9 10  1  0
 10 12  1  0
 11 10  2  0
 12 13  1  0
 14 13  1  6
 14 16  1  0
 14 15  1  0
 16 18  1  0
 17 16  2  0
 18 19  1  0
 20 19  1  0
 20 21  1  0
 22 20  2  0
M  END
$$$$
