DQG.pdb
     RDKit          3D

 22 21  0  0  1  0  0  0  0  0999 V2000
    6.8166  -17.9529   20.1175 N   0  0  0  0  0  0  0  0  0  0  0  0
    8.0599  -17.4043   19.6908 C   0  0  1  0  0  0  0  0  0  0  0  0
    7.8694  -16.6665   18.3697 C   0  0  0  0  0  0  0  0  0  0  0  0
    7.5533  -17.6538   17.3204 C   0  0  0  0  0  0  0  0  0  0  0  0
    7.4140  -18.8665   17.5955 O   0  0  0  0  0  0  0  0  0  0  0  0
    8.5060  -16.3718   20.6897 C   0  0  0  0  0  0  0  0  0  0  0  0
    9.4731  -15.6423   20.3745 O   0  0  0  0  0  0  0  0  0  0  0  0
    7.4127  -17.2288   16.0160 O   0  0  0  0  0  0  0  0  0  0  0  0
    5.6986  -14.1146   25.9780 N   0  0  0  0  0  0  0  0  0  0  0  0
    6.4081  -13.1212   25.2909 C   0  0  0  0  0  0  0  0  0  0  0  0
    6.3543  -11.9311   25.6157 O   0  0  0  0  0  0  0  0  0  0  0  0
    7.2780  -13.4889   24.1119 C   0  0  0  0  0  0  0  0  0  0  0  0
    7.1500  -14.9649   23.8455 C   0  0  0  0  0  0  0  0  0  0  0  0
    8.2853  -15.4558   22.9924 C   0  0  2  0  0  0  0  0  0  0  0  0
    7.8034  -16.2983   21.9133 N   0  0  0  0  0  0  0  0  0  0  0  0
    9.3666  -16.0717   23.7489 C   0  0  0  0  0  0  0  0  0  0  0  0
    9.1326  -16.8980   24.6609 O   0  0  0  0  0  0  0  0  0  0  0  0
   10.7547  -15.7524   23.4760 N   0  0  0  0  0  0  0  0  0  0  0  0
   11.7716  -16.3632   24.3024 C   0  0  0  0  0  0  0  0  0  0  0  0
   13.1237  -15.8935   23.9439 C   0  0  0  0  0  0  0  0  0  0  0  0
   14.2284  -16.1955   24.7246 O   0  0  0  0  0  0  0  0  0  0  0  0
   13.3196  -15.1991   22.9112 O   0  0  0  0  0  0  0  0  0  0  0  0
  2  1  1  1
  3  2  1  0
  4  3  1  0
  4  8  1  0
  5  4  2  0
  6 15  1  0
  6  2  1  0
  7  6  2  0
  9 10  1  0
 10 12  1  0
 11 10  2  0
 12 13  1  0
 14 13  1  1
 14 16  1  0
 14 15  1  0
 16 18  1  0
 17 16  2  0
 18 19  1  0
 20 19  1  0
 20 21  1  0
 22 20  2  0
M  END
$$$$
