DQG.pdb
     RDKit          3D

 22 21  0  0  1  0  0  0  0  0999 V2000
   10.2881  -15.8208   20.0823 N   0  0  0  0  0  0  0  0  0  0  0  0
    9.1012  -16.1352   20.8043 C   0  0  1  0  0  0  0  0  0  0  0  0
    8.8461  -17.6377   20.7439 C   0  0  0  0  0  0  0  0  0  0  0  0
    7.7751  -17.8943   19.7628 C   0  0  0  0  0  0  0  0  0  0  0  0
    6.5752  -17.6797   20.0454 O   0  0  0  0  0  0  0  0  0  0  0  0
    9.3103  -15.8012   22.2560 C   0  0  0  0  0  0  0  0  0  0  0  0
   10.4170  -16.0928   22.7628 O   0  0  0  0  0  0  0  0  0  0  0  0
    8.1065  -18.3812   18.5157 O   0  0  0  0  0  0  0  0  0  0  0  0
    5.5475  -11.9350   25.5720 N   0  0  0  0  0  0  0  0  0  0  0  0
    6.6201  -12.1680   26.4424 C   0  0  0  0  0  0  0  0  0  0  0  0
    6.7457  -11.5586   27.5090 O   0  0  0  0  0  0  0  0  0  0  0  0
    7.6712  -13.1950   26.0922 C   0  0  0  0  0  0  0  0  0  0  0  0
    7.4516  -13.6639   24.6788 C   0  0  0  0  0  0  0  0  0  0  0  0
    8.3943  -14.7813   24.3324 C   0  0  2  0  0  0  0  0  0  0  0  0
    8.2434  -15.1831   22.9458 N   0  0  0  0  0  0  0  0  0  0  0  0
    8.3377  -15.9067   25.2549 C   0  0  0  0  0  0  0  0  0  0  0  0
    7.2699  -16.5310   25.4530 O   0  0  0  0  0  0  0  0  0  0  0  0
    9.5142  -16.3475   25.9793 N   0  0  0  0  0  0  0  0  0  0  0  0
    9.3811  -17.4704   26.8802 C   0  0  0  0  0  0  0  0  0  0  0  0
   10.6526  -17.7792   27.5622 C   0  0  0  0  0  0  0  0  0  0  0  0
   10.7394  -18.7765   28.5208 O   0  0  0  0  0  0  0  0  0  0  0  0
   11.7066  -17.1433   27.2944 O   0  0  0  0  0  0  0  0  0  0  0  0
  2  1  1  6
  3  2  1  0
  4  3  1  0
  4  8  1  0
  5  4  2  0
  6 15  1  0
  6  2  1  0
  7  6  2  0
  9 10  1  0
 10 12  1  0
 11 10  2  0
 12 13  1  0
 14 13  1  1
 14 16  1  0
 14 15  1  0
 16 18  1  0
 17 16  2  0
 18 19  1  0
 20 19  1  0
 20 21  1  0
 22 20  2  0
M  END
$$$$
