DQG.pdb
     RDKit          3D

 22 21  0  0  1  0  0  0  0  0999 V2000
    8.5717  -16.9107   20.3538 N   0  0  0  0  0  0  0  0  0  0  0  0
    9.9396  -16.8545   20.7468 C   0  0  1  0  0  0  0  0  0  0  0  0
   10.7350  -16.0494   19.7244 C   0  0  0  0  0  0  0  0  0  0  0  0
   10.5371  -16.6529   18.3931 C   0  0  0  0  0  0  0  0  0  0  0  0
   11.0290  -17.7680   18.1098 O   0  0  0  0  0  0  0  0  0  0  0  0
   10.0433  -16.1046   22.0467 C   0  0  0  0  0  0  0  0  0  0  0  0
   11.1877  -15.7855   22.4405 O   0  0  0  0  0  0  0  0  0  0  0  0
    9.7995  -15.9717   17.4477 O   0  0  0  0  0  0  0  0  0  0  0  0
    6.9743  -11.5262   26.2784 N   0  0  0  0  0  0  0  0  0  0  0  0
    6.6942  -12.8699   25.9984 C   0  0  0  0  0  0  0  0  0  0  0  0
    5.5386  -13.2977   25.9183 O   0  0  0  0  0  0  0  0  0  0  0  0
    7.8228  -13.8500   25.7798 C   0  0  0  0  0  0  0  0  0  0  0  0
    7.7560  -14.3732   24.3699 C   0  0  0  0  0  0  0  0  0  0  0  0
    8.8710  -15.3449   24.1056 C   0  0  2  0  0  0  0  0  0  0  0  0
    8.8425  -15.8140   22.7324 N   0  0  0  0  0  0  0  0  0  0  0  0
    8.9455  -16.4323   25.0715 C   0  0  0  0  0  0  0  0  0  0  0  0
    8.0019  -17.2448   25.2088 O   0  0  0  0  0  0  0  0  0  0  0  0
   10.1137  -16.6163   25.9109 N   0  0  0  0  0  0  0  0  0  0  0  0
   10.1746  -17.7928   26.7490 C   0  0  0  0  0  0  0  0  0  0  0  0
   11.4091  -17.8267   27.5565 C   0  0  0  0  0  0  0  0  0  0  0  0
   11.3714  -17.9534   28.9363 O   0  0  0  0  0  0  0  0  0  0  0  0
   12.5438  -17.7412   27.0159 O   0  0  0  0  0  0  0  0  0  0  0  0
  2  1  1  6
  3  2  1  0
  4  3  1  0
  4  8  1  0
  5  4  2  0
  6 15  1  0
  6  2  1  0
  7  6  2  0
  9 10  1  0
 10 12  1  0
 11 10  2  0
 12 13  1  0
 14 13  1  1
 14 16  1  0
 14 15  1  0
 16 18  1  0
 17 16  2  0
 18 19  1  0
 20 19  1  0
 20 21  1  0
 22 20  2  0
M  END
$$$$
