DQG.pdb
     RDKit          3D

 22 21  0  0  1  0  0  0  0  0999 V2000
   12.5348  -14.3311   17.8484 N   0  0  0  0  0  0  0  0  0  0  0  0
   13.5508  -15.1854   18.3649 C   0  0  1  0  0  0  0  0  0  0  0  0
   14.8761  -14.8837   17.6730 C   0  0  0  0  0  0  0  0  0  0  0  0
   14.7416  -15.2019   16.2390 C   0  0  0  0  0  0  0  0  0  0  0  0
   13.7590  -15.8470   15.8099 O   0  0  0  0  0  0  0  0  0  0  0  0
   13.7557  -14.8740   19.8222 C   0  0  0  0  0  0  0  0  0  0  0  0
   14.3393  -13.8043   20.1085 O   0  0  0  0  0  0  0  0  0  0  0  0
   15.7188  -14.7817   15.3613 O   0  0  0  0  0  0  0  0  0  0  0  0
   10.5961  -17.7832   24.4504 N   0  0  0  0  0  0  0  0  0  0  0  0
   11.3707  -16.8502   25.1517 C   0  0  0  0  0  0  0  0  0  0  0  0
   11.2908  -16.7176   26.3767 O   0  0  0  0  0  0  0  0  0  0  0  0
   12.3466  -15.9659   24.4115 C   0  0  0  0  0  0  0  0  0  0  0  0
   12.3107  -16.3094   22.9464 C   0  0  0  0  0  0  0  0  0  0  0  0
   13.3458  -15.5284   22.1875 C   0  0  2  0  0  0  0  0  0  0  0  0
   13.2763  -15.8105   20.7654 N   0  0  0  0  0  0  0  0  0  0  0  0
   14.6934  -15.6609   22.7235 C   0  0  0  0  0  0  0  0  0  0  0  0
   14.9778  -15.2538   23.8736 O   0  0  0  0  0  0  0  0  0  0  0  0
   15.7571  -16.2685   21.9473 N   0  0  0  0  0  0  0  0  0  0  0  0
   17.0530  -16.4250   22.5689 C   0  0  0  0  0  0  0  0  0  0  0  0
   18.0948  -15.6525   21.8653 C   0  0  0  0  0  0  0  0  0  0  0  0
   19.3302  -15.4050   22.4428 O   0  0  0  0  0  0  0  0  0  0  0  0
   17.8948  -15.1900   20.7106 O   0  0  0  0  0  0  0  0  0  0  0  0
  2  1  1  6
  3  2  1  0
  4  3  1  0
  4  8  1  0
  5  4  2  0
  6 15  1  0
  6  2  1  0
  7  6  2  0
  9 10  1  0
 10 12  1  0
 11 10  2  0
 12 13  1  0
 14 13  1  1
 14 16  1  0
 14 15  1  0
 16 18  1  0
 17 16  2  0
 18 19  1  0
 20 19  1  0
 20 21  1  0
 22 20  2  0
M  END
$$$$
