DQG.pdb
     RDKit          3D

 22 21  0  0  1  0  0  0  0  0999 V2000
    8.0308  -13.0127   18.6652 N   0  0  0  0  0  0  0  0  0  0  0  0
    7.9252  -14.1844   19.4682 C   0  0  1  0  0  0  0  0  0  0  0  0
    8.8033  -15.2870   18.8857 C   0  0  0  0  0  0  0  0  0  0  0  0
    8.2772  -15.6556   17.5579 C   0  0  0  0  0  0  0  0  0  0  0  0
    7.1051  -16.0713   17.4201 O   0  0  0  0  0  0  0  0  0  0  0  0
    8.4733  -13.8884   20.8375 C   0  0  0  0  0  0  0  0  0  0  0  0
    9.6032  -13.3542   20.9051 O   0  0  0  0  0  0  0  0  0  0  0  0
    9.0954  -15.5409   16.4536 O   0  0  0  0  0  0  0  0  0  0  0  0
    5.8826  -11.1294   26.5781 N   0  0  0  0  0  0  0  0  0  0  0  0
    6.0733  -12.4705   26.2211 C   0  0  0  0  0  0  0  0  0  0  0  0
    5.2626  -13.3523   26.5208 O   0  0  0  0  0  0  0  0  0  0  0  0
    7.3004  -12.8802   25.4410 C   0  0  0  0  0  0  0  0  0  0  0  0
    6.8745  -13.4495   24.1142 C   0  0  0  0  0  0  0  0  0  0  0  0
    8.0687  -13.8435   23.2921 C   0  0  2  0  0  0  0  0  0  0  0  0
    7.6753  -14.2349   21.9509 N   0  0  0  0  0  0  0  0  0  0  0  0
    8.9290  -14.8260   23.9366 C   0  0  0  0  0  0  0  0  0  0  0  0
    9.3118  -14.6770   25.1201 O   0  0  0  0  0  0  0  0  0  0  0  0
    9.3755  -16.0135   23.2340 N   0  0  0  0  0  0  0  0  0  0  0  0
   10.1145  -17.0097   23.9768 C   0  0  0  0  0  0  0  0  0  0  0  0
   11.5720  -16.8167   23.8514 C   0  0  0  0  0  0  0  0  0  0  0  0
   12.4737  -17.6960   24.4302 O   0  0  0  0  0  0  0  0  0  0  0  0
   12.0474  -15.8416   23.2109 O   0  0  0  0  0  0  0  0  0  0  0  0
  2  1  1  6
  3  2  1  0
  4  3  1  0
  4  8  1  0
  5  4  2  0
  6 15  1  0
  6  2  1  0
  7  6  2  0
  9 10  1  0
 10 12  1  0
 11 10  2  0
 12 13  1  0
 14 13  1  1
 14 16  1  0
 14 15  1  0
 16 18  1  0
 17 16  2  0
 18 19  1  0
 20 19  1  0
 20 21  1  0
 22 20  2  0
M  END
$$$$
