DQG.pdb
     RDKit          3D

 22 21  0  0  1  0  0  0  0  0999 V2000
   10.0628  -15.8465   21.6297 N   0  0  0  0  0  0  0  0  0  0  0  0
   10.6812  -16.9552   22.2756 C   0  0  1  0  0  0  0  0  0  0  0  0
   11.9912  -17.2941   21.5720 C   0  0  0  0  0  0  0  0  0  0  0  0
   11.6896  -17.7045   20.1877 C   0  0  0  0  0  0  0  0  0  0  0  0
   11.0236  -16.9681   19.4262 O   0  0  0  0  0  0  0  0  0  0  0  0
   11.0472  -16.5595   23.6800 C   0  0  0  0  0  0  0  0  0  0  0  0
   12.0561  -15.8345   23.8322 O   0  0  0  0  0  0  0  0  0  0  0  0
   12.1490  -18.9220   19.7308 O   0  0  0  0  0  0  0  0  0  0  0  0
    8.7939  -13.1152   27.4429 N   0  0  0  0  0  0  0  0  0  0  0  0
    8.2227  -13.6544   26.2830 C   0  0  0  0  0  0  0  0  0  0  0  0
    7.1945  -13.1912   25.7800 O   0  0  0  0  0  0  0  0  0  0  0  0
    8.8654  -14.8398   25.6020 C   0  0  0  0  0  0  0  0  0  0  0  0
   10.1295  -15.2038   26.3338 C   0  0  0  0  0  0  0  0  0  0  0  0
   10.4863  -16.6448   26.1025 C   0  0  2  0  0  0  0  0  0  0  0  0
   10.2278  -17.0345   24.7285 N   0  0  0  0  0  0  0  0  0  0  0  0
    9.8955  -17.5601   27.0689 C   0  0  0  0  0  0  0  0  0  0  0  0
    8.6710  -17.8237   27.0492 O   0  0  0  0  0  0  0  0  0  0  0  0
   10.7009  -18.2009   28.0906 N   0  0  0  0  0  0  0  0  0  0  0  0
   10.0429  -19.0895   29.0220 C   0  0  0  0  0  0  0  0  0  0  0  0
   10.9839  -19.6286   30.0226 C   0  0  0  0  0  0  0  0  0  0  0  0
   10.5434  -20.3613   31.1136 O   0  0  0  0  0  0  0  0  0  0  0  0
   12.2251  -19.4398   29.9177 O   0  0  0  0  0  0  0  0  0  0  0  0
  2  1  1  6
  3  2  1  0
  4  3  1  0
  4  8  1  0
  5  4  2  0
  6 15  1  0
  6  2  1  0
  7  6  2  0
  9 10  1  0
 10 12  1  0
 11 10  2  0
 12 13  1  0
 14 13  1  1
 14 16  1  0
 14 15  1  0
 16 18  1  0
 17 16  2  0
 18 19  1  0
 20 19  1  0
 20 21  1  0
 22 20  2  0
M  END
$$$$
