DQG.pdb
     RDKit          3D

 22 21  0  0  1  0  0  0  0  0999 V2000
    9.2630  -14.8709   19.6919 N   0  0  0  0  0  0  0  0  0  0  0  0
    8.3933  -15.5180   20.6159 C   0  0  1  0  0  0  0  0  0  0  0  0
    8.6010  -17.0274   20.5460 C   0  0  0  0  0  0  0  0  0  0  0  0
    8.2223  -17.4928   19.1986 C   0  0  0  0  0  0  0  0  0  0  0  0
    7.2983  -16.9407   18.5605 O   0  0  0  0  0  0  0  0  0  0  0  0
    8.7705  -15.1049   22.0123 C   0  0  0  0  0  0  0  0  0  0  0  0
    9.9892  -14.9812   22.2694 O   0  0  0  0  0  0  0  0  0  0  0  0
    8.8989  -18.5559   18.6383 O   0  0  0  0  0  0  0  0  0  0  0  0
    5.9622  -11.8682   27.8887 N   0  0  0  0  0  0  0  0  0  0  0  0
    6.5081  -11.8774   26.5987 C   0  0  0  0  0  0  0  0  0  0  0  0
    6.2579  -10.9943   25.7727 O   0  0  0  0  0  0  0  0  0  0  0  0
    7.4391  -12.9900   26.1773 C   0  0  0  0  0  0  0  0  0  0  0  0
    7.1434  -13.3672   24.7504 C   0  0  0  0  0  0  0  0  0  0  0  0
    8.0144  -14.5081   24.3064 C   0  0  2  0  0  0  0  0  0  0  0  0
    7.7235  -14.8864   22.9356 N   0  0  0  0  0  0  0  0  0  0  0  0
    8.0077  -15.6435   25.2183 C   0  0  0  0  0  0  0  0  0  0  0  0
    6.9608  -16.2965   25.4348 O   0  0  0  0  0  0  0  0  0  0  0  0
    9.2116  -16.0616   25.9104 N   0  0  0  0  0  0  0  0  0  0  0  0
    9.1320  -17.2072   26.7888 C   0  0  0  0  0  0  0  0  0  0  0  0
   10.4476  -17.5502   27.3620 C   0  0  0  0  0  0  0  0  0  0  0  0
   11.5937  -16.8491   27.0214 O   0  0  0  0  0  0  0  0  0  0  0  0
   10.5733  -18.4964   28.1843 O   0  0  0  0  0  0  0  0  0  0  0  0
  2  1  1  6
  3  2  1  0
  4  3  1  0
  4  8  1  0
  5  4  2  0
  6 15  1  0
  6  2  1  0
  7  6  2  0
  9 10  1  0
 10 12  1  0
 11 10  2  0
 12 13  1  0
 14 13  1  1
 14 16  1  0
 14 15  1  0
 16 18  1  0
 17 16  2  0
 18 19  1  0
 20 19  1  0
 20 21  1  0
 22 20  2  0
M  END
$$$$
