YCY.pdb
     RDKit          3D

 31 32  0  0  1  0  0  0  0  0999 V2000
   30.1543  -16.1036  -18.9744 O   0  0  0  0  0  0  0  0  0  0  0  0
   29.2734  -16.9513  -18.3058 C   0  0  0  0  0  0  0  0  0  0  0  0
   28.8757  -16.6432  -17.0248 C   0  0  0  0  0  0  0  0  0  0  0  0
   28.0060  -17.4598  -16.3359 C   0  0  0  0  0  0  0  0  0  0  0  0
   27.5040  -18.6156  -16.9083 C   0  0  0  0  0  0  0  0  0  0  0  0
   26.5804  -19.4468  -16.1255 C   0  0  0  0  0  0  0  0  0  0  0  0
   27.3742  -20.4510  -15.3515 C   0  0  2  0  0  0  0  0  0  0  0  0
   28.0285  -21.4118  -16.2090 N   0  0  0  0  0  0  0  0  0  0  0  0
   26.5790  -21.1694  -14.3268 C   0  0  0  0  0  0  0  0  0  0  0  0
   25.8438  -22.1424  -14.5999 O   0  0  0  0  0  0  0  0  0  0  0  0
   27.9168  -18.9047  -18.1945 C   0  0  0  0  0  0  0  0  0  0  0  0
   28.7827  -18.0984  -18.8899 C   0  0  0  0  0  0  0  0  0  0  0  0
   26.6241  -20.7646  -12.9464 N   0  0  0  0  0  0  0  0  0  0  0  0
   25.6056  -21.1653  -11.9956 C   0  0  1  0  0  0  0  0  0  0  0  0
   26.0214  -20.7249  -10.6150 C   0  0  0  0  0  0  0  0  0  0  0  0
   24.7247  -21.0504   -9.3896 S   0  0  0  0  0  0  0  0  0  0  0  0
   24.3157  -20.6367  -12.4206 C   0  0  0  0  0  0  0  0  0  0  0  0
   24.2570  -19.5295  -13.0083 O   0  0  0  0  0  0  0  0  0  0  0  0
   16.8908  -18.6919  -16.2248 O   0  0  0  0  0  0  0  0  0  0  0  0
   18.0891  -19.1910  -15.7295 C   0  0  0  0  0  0  0  0  0  0  0  0
   18.2398  -20.5213  -15.4010 C   0  0  0  0  0  0  0  0  0  0  0  0
   19.4215  -21.0396  -14.9072 C   0  0  0  0  0  0  0  0  0  0  0  0
   20.5107  -20.2126  -14.7261 C   0  0  0  0  0  0  0  0  0  0  0  0
   21.8040  -20.6870  -14.2054 C   0  0  0  0  0  0  0  0  0  0  0  0
   21.8359  -20.7314  -12.6912 C   0  0  2  0  0  0  0  0  0  0  0  0
   23.0698  -21.3089  -12.2105 N   0  0  0  0  0  0  0  0  0  0  0  0
   20.7067  -21.5862  -12.2582 C   0  0  0  0  0  0  0  0  0  0  0  0
   20.9193  -22.9143  -11.9306 O   0  0  0  0  0  0  0  0  0  0  0  0
   20.3749  -18.8797  -15.0502 C   0  0  0  0  0  0  0  0  0  0  0  0
   19.1925  -18.3555  -15.5455 C   0  0  0  0  0  0  0  0  0  0  0  0
   19.5229  -21.1541  -12.1692 O   0  0  0  0  0  0  0  0  0  0  0  0
  2  1  1  0
  3  2  2  0
  4  3  1  0
  5 11  1  0
  5  4  2  0
  6  5  1  0
  7  6  1  0
  7  8  1  6
  9  7  1  0
  9 10  2  0
 11 12  2  0
 12  2  1  0
 13  9  1  0
 14 13  1  0
 14 15  1  1
 16 15  1  0
 17 14  1  0
 18 17  2  0
 20 30  2  0
 20 19  1  0
 21 20  1  0
 22 23  1  0
 22 21  2  0
 23 29  2  0
 25 24  1  6
 24 23  1  0
 25 26  1  0
 26 17  1  0
 27 28  1  0
 27 25  1  0
 29 30  1  0
 31 27  2  0
M  END
$$$$
