YCY.pdb
     RDKit          3D

 31 32  0  0  1  0  0  0  0  0999 V2000
   19.1707  -25.0554  -26.3758 O   0  0  0  0  0  0  0  0  0  0  0  0
   19.1960  -24.4307  -25.1305 C   0  0  0  0  0  0  0  0  0  0  0  0
   20.2529  -24.6578  -24.2788 C   0  0  0  0  0  0  0  0  0  0  0  0
   20.3087  -24.0560  -23.0408 C   0  0  0  0  0  0  0  0  0  0  0  0
   19.3051  -23.2043  -22.6130 C   0  0  0  0  0  0  0  0  0  0  0  0
   19.4189  -22.5919  -21.2831 C   0  0  0  0  0  0  0  0  0  0  0  0
   20.1103  -21.2723  -21.4181 C   0  0  2  0  0  0  0  0  0  0  0  0
   21.4687  -21.4104  -21.8895 N   0  0  0  0  0  0  0  0  0  0  0  0
   20.1030  -20.4714  -20.1703 C   0  0  0  0  0  0  0  0  0  0  0  0
   21.1229  -20.3032  -19.4679 O   0  0  0  0  0  0  0  0  0  0  0  0
   18.2545  -22.9913  -23.4843 C   0  0  0  0  0  0  0  0  0  0  0  0
   18.1887  -23.5855  -24.7197 C   0  0  0  0  0  0  0  0  0  0  0  0
   18.8934  -19.8424  -19.7093 N   0  0  0  0  0  0  0  0  0  0  0  0
   18.8305  -19.1332  -18.4464 C   0  0  1  0  0  0  0  0  0  0  0  0
   18.8696  -17.6498  -18.7131 C   0  0  0  0  0  0  0  0  0  0  0  0
   18.1261  -17.2380  -20.3152 S   0  0  0  0  0  0  0  0  0  0  0  0
   17.6527  -19.5695  -17.7073 C   0  0  0  0  0  0  0  0  0  0  0  0
   16.7108  -20.1374  -18.3115 O   0  0  0  0  0  0  0  0  0  0  0  0
   10.6656  -22.3089  -13.8686 O   0  0  0  0  0  0  0  0  0  0  0  0
   11.9449  -22.0328  -14.3350 C   0  0  0  0  0  0  0  0  0  0  0  0
   13.0689  -22.3762  -13.6146 C   0  0  0  0  0  0  0  0  0  0  0  0
   14.3503  -22.1117  -14.0584 C   0  0  0  0  0  0  0  0  0  0  0  0
   14.5400  -21.4788  -15.2695 C   0  0  0  0  0  0  0  0  0  0  0  0
   15.8718  -21.1620  -15.8124 C   0  0  0  0  0  0  0  0  0  0  0  0
   16.2212  -19.6950  -15.6661 C   0  0  2  0  0  0  0  0  0  0  0  0
   17.4851  -19.3926  -16.2970 N   0  0  0  0  0  0  0  0  0  0  0  0
   16.3318  -19.4178  -14.2155 C   0  0  0  0  0  0  0  0  0  0  0  0
   15.1972  -19.3649  -13.4242 O   0  0  0  0  0  0  0  0  0  0  0  0
   13.4252  -21.1294  -16.0011 C   0  0  0  0  0  0  0  0  0  0  0  0
   12.1388  -21.3923  -15.5604 C   0  0  0  0  0  0  0  0  0  0  0  0
   17.4413  -19.2208  -13.6443 O   0  0  0  0  0  0  0  0  0  0  0  0
  2  1  1  0
  3  2  2  0
  4  3  1  0
  5 11  1  0
  5  4  2  0
  6  5  1  0
  7  6  1  0
  7  8  1  1
  9  7  1  0
  9 10  2  0
 11 12  2  0
 12  2  1  0
 13  9  1  0
 14 13  1  0
 14 15  1  6
 16 15  1  0
 17 14  1  0
 18 17  2  0
 20 30  2  0
 20 19  1  0
 21 20  1  0
 22 23  1  0
 22 21  2  0
 23 29  2  0
 25 24  1  1
 24 23  1  0
 25 26  1  0
 26 17  1  0
 27 28  1  0
 27 25  1  0
 29 30  1  0
 31 27  2  0
M  END
$$$$
