YCY.pdb
     RDKit          3D

 31 32  0  0  1  0  0  0  0  0999 V2000
   27.0326  -25.5573  -17.0169 O   0  0  0  0  0  0  0  0  0  0  0  0
   26.0519  -25.0006  -16.1983 C   0  0  0  0  0  0  0  0  0  0  0  0
   25.9306  -23.6320  -16.1194 C   0  0  0  0  0  0  0  0  0  0  0  0
   24.9718  -23.0494  -15.3198 C   0  0  0  0  0  0  0  0  0  0  0  0
   24.1000  -23.8201  -14.5705 C   0  0  0  0  0  0  0  0  0  0  0  0
   23.0986  -23.1430  -13.7365 C   0  0  0  0  0  0  0  0  0  0  0  0
   21.7408  -23.4021  -14.3083 C   0  0  2  0  0  0  0  0  0  0  0  0
   21.6020  -22.8825  -15.6489 N   0  0  0  0  0  0  0  0  0  0  0  0
   20.6364  -22.8851  -13.4648 C   0  0  0  0  0  0  0  0  0  0  0  0
   20.3870  -21.6660  -13.3485 O   0  0  0  0  0  0  0  0  0  0  0  0
   24.2402  -25.1911  -14.6654 C   0  0  0  0  0  0  0  0  0  0  0  0
   25.1916  -25.7820  -15.4586 C   0  0  0  0  0  0  0  0  0  0  0  0
   19.7895  -23.7879  -12.7307 N   0  0  0  0  0  0  0  0  0  0  0  0
   18.6750  -23.3164  -11.9322 C   0  0  1  0  0  0  0  0  0  0  0  0
   17.4238  -23.3383  -12.7730 C   0  0  0  0  0  0  0  0  0  0  0  0
   15.9397  -23.0466  -11.7724 S   0  0  0  0  0  0  0  0  0  0  0  0
   18.5831  -24.1135  -10.7156 C   0  0  0  0  0  0  0  0  0  0  0  0
   18.6703  -25.3637  -10.7796 O   0  0  0  0  0  0  0  0  0  0  0  0
   17.1113  -26.9334   -2.4829 O   0  0  0  0  0  0  0  0  0  0  0  0
   17.3420  -26.1204   -3.5857 C   0  0  0  0  0  0  0  0  0  0  0  0
   16.3317  -25.3859   -4.1689 C   0  0  0  0  0  0  0  0  0  0  0  0
   16.5377  -24.5711   -5.2655 C   0  0  0  0  0  0  0  0  0  0  0  0
   17.7975  -24.4709   -5.8188 C   0  0  0  0  0  0  0  0  0  0  0  0
   18.0992  -23.6254   -6.9861 C   0  0  0  0  0  0  0  0  0  0  0  0
   18.1516  -24.4188   -8.2759 C   0  0  2  0  0  0  0  0  0  0  0  0
   18.3947  -23.5579   -9.4102 N   0  0  0  0  0  0  0  0  0  0  0  0
   16.8302  -25.0666   -8.4410 C   0  0  0  0  0  0  0  0  0  0  0  0
   16.6748  -26.4170   -8.1794 O   0  0  0  0  0  0  0  0  0  0  0  0
   18.8179  -25.1998   -5.2462 C   0  0  0  0  0  0  0  0  0  0  0  0
   18.6163  -26.0178   -4.1469 C   0  0  0  0  0  0  0  0  0  0  0  0
   15.8053  -24.4324   -8.8197 O   0  0  0  0  0  0  0  0  0  0  0  0
  2  1  1  0
  3  2  2  0
  4  3  1  0
  5 11  1  0
  5  4  2  0
  6  5  1  0
  7  6  1  0
  7  8  1  6
  9  7  1  0
  9 10  2  0
 11 12  2  0
 12  2  1  0
 13  9  1  0
 14 13  1  0
 14 15  1  6
 16 15  1  0
 17 14  1  0
 18 17  2  0
 20 30  2  0
 20 19  1  0
 21 20  1  0
 22 23  1  0
 22 21  2  0
 23 29  2  0
 25 24  1  1
 24 23  1  0
 25 26  1  0
 26 17  1  0
 27 28  1  0
 27 25  1  0
 29 30  1  0
 31 27  2  0
M  END
$$$$
