YCY.pdb
     RDKit          3D

 31 32  0  0  1  0  0  0  0  0999 V2000
   28.3227  -23.0965  -24.8287 O   0  0  0  0  0  0  0  0  0  0  0  0
   27.6672  -23.5451  -23.6837 C   0  0  0  0  0  0  0  0  0  0  0  0
   27.0155  -22.6406  -22.8767 C   0  0  0  0  0  0  0  0  0  0  0  0
   26.3578  -23.0508  -21.7378 C   0  0  0  0  0  0  0  0  0  0  0  0
   26.3308  -24.3842  -21.3678 C   0  0  0  0  0  0  0  0  0  0  0  0
   25.6138  -24.7620  -20.1431 C   0  0  0  0  0  0  0  0  0  0  0  0
   24.5473  -25.7502  -20.4947 C   0  0  2  0  0  0  0  0  0  0  0  0
   23.4923  -25.1605  -21.2857 N   0  0  0  0  0  0  0  0  0  0  0  0
   23.9565  -26.4264  -19.3147 C   0  0  0  0  0  0  0  0  0  0  0  0
   23.0209  -25.9324  -18.6495 O   0  0  0  0  0  0  0  0  0  0  0  0
   26.9915  -25.2738  -22.1927 C   0  0  0  0  0  0  0  0  0  0  0  0
   27.6497  -24.8762  -23.3295 C   0  0  0  0  0  0  0  0  0  0  0  0
   24.4490  -27.7069  -18.8800 N   0  0  0  0  0  0  0  0  0  0  0  0
   23.8349  -28.4342  -17.7864 C   0  0  1  0  0  0  0  0  0  0  0  0
   22.3665  -28.6123  -18.0777 C   0  0  0  0  0  0  0  0  0  0  0  0
   21.5339  -29.5530  -16.7697 S   0  0  0  0  0  0  0  0  0  0  0  0
   24.5519  -29.6858  -17.5780 C   0  0  0  0  0  0  0  0  0  0  0  0
   25.1223  -30.2475  -18.5443 O   0  0  0  0  0  0  0  0  0  0  0  0
   29.8496  -36.1747  -16.1407 O   0  0  0  0  0  0  0  0  0  0  0  0
   29.1268  -34.9894  -16.1959 C   0  0  0  0  0  0  0  0  0  0  0  0
   29.1220  -34.0938  -15.1479 C   0  0  0  0  0  0  0  0  0  0  0  0
   28.4111  -32.9096  -15.1805 C   0  0  0  0  0  0  0  0  0  0  0  0
   27.6672  -32.5864  -16.2966 C   0  0  0  0  0  0  0  0  0  0  0  0
   26.8832  -31.3449  -16.4096 C   0  0  0  0  0  0  0  0  0  0  0  0
   25.4025  -31.5744  -16.1848 C   0  0  2  0  0  0  0  0  0  0  0  0
   24.6570  -30.3434  -16.3113 N   0  0  0  0  0  0  0  0  0  0  0  0
   25.2476  -32.0882  -14.8044 C   0  0  0  0  0  0  0  0  0  0  0  0
   25.7100  -33.3496  -14.4709 O   0  0  0  0  0  0  0  0  0  0  0  0
   27.6625  -33.4724  -17.3526 C   0  0  0  0  0  0  0  0  0  0  0  0
   28.3735  -34.6607  -17.3245 C   0  0  0  0  0  0  0  0  0  0  0  0
   24.6989  -31.4153  -13.8868 O   0  0  0  0  0  0  0  0  0  0  0  0
  2  1  1  0
  3  2  2  0
  4  3  1  0
  5 11  1  0
  5  4  2  0
  6  5  1  0
  7  6  1  0
  7  8  1  1
  9  7  1  0
  9 10  2  0
 11 12  2  0
 12  2  1  0
 13  9  1  0
 14 13  1  0
 14 15  1  6
 16 15  1  0
 17 14  1  0
 18 17  2  0
 20 30  2  0
 20 19  1  0
 21 20  1  0
 22 23  1  0
 22 21  2  0
 23 29  2  0
 25 24  1  1
 24 23  1  0
 25 26  1  0
 26 17  1  0
 27 28  1  0
 27 25  1  0
 29 30  1  0
 31 27  2  0
M  END
$$$$
