YCY.pdb
     RDKit          3D

 31 32  0  0  1  0  0  0  0  0999 V2000
   30.5340  -14.1032  -17.3378 O   0  0  0  0  0  0  0  0  0  0  0  0
   29.4468  -13.2333  -17.3918 C   0  0  0  0  0  0  0  0  0  0  0  0
   28.9049  -12.7511  -16.2223 C   0  0  0  0  0  0  0  0  0  0  0  0
   27.8299  -11.8896  -16.2405 C   0  0  0  0  0  0  0  0  0  0  0  0
   27.2600  -11.4812  -17.4338 C   0  0  0  0  0  0  0  0  0  0  0  0
   26.1157  -10.5617  -17.3907 C   0  0  0  0  0  0  0  0  0  0  0  0
   24.8755  -11.3491  -17.1087 C   0  0  2  0  0  0  0  0  0  0  0  0
   24.6661  -12.4061  -18.0707 N   0  0  0  0  0  0  0  0  0  0  0  0
   23.6529  -10.5145  -17.0228 C   0  0  0  0  0  0  0  0  0  0  0  0
   22.9046  -10.3072  -18.0021 O   0  0  0  0  0  0  0  0  0  0  0  0
   27.8203  -11.9779  -18.5947 C   0  0  0  0  0  0  0  0  0  0  0  0
   28.8910  -12.8364  -18.5882 C   0  0  0  0  0  0  0  0  0  0  0  0
   23.2722   -9.8966  -15.7800 N   0  0  0  0  0  0  0  0  0  0  0  0
   22.1179   -9.0253  -15.6782 C   0  0  1  0  0  0  0  0  0  0  0  0
   20.9543   -9.8127  -15.1313 C   0  0  0  0  0  0  0  0  0  0  0  0
   19.6406   -8.7249  -14.5152 S   0  0  0  0  0  0  0  0  0  0  0  0
   22.4663   -7.8558  -14.8815 C   0  0  0  0  0  0  0  0  0  0  0  0
   23.1181   -7.9956  -13.8183 O   0  0  0  0  0  0  0  0  0  0  0  0
   18.9781   -2.2614  -18.7198 O   0  0  0  0  0  0  0  0  0  0  0  0
   19.9672   -2.7540  -17.8775 C   0  0  0  0  0  0  0  0  0  0  0  0
   20.8241   -3.7579  -18.2752 C   0  0  0  0  0  0  0  0  0  0  0  0
   21.8146   -4.2630  -17.4550 C   0  0  0  0  0  0  0  0  0  0  0  0
   21.9735   -3.7590  -16.1806 C   0  0  0  0  0  0  0  0  0  0  0  0
   23.0040   -4.2426  -15.2464 C   0  0  0  0  0  0  0  0  0  0  0  0
   22.5204   -5.4061  -14.4048 C   0  0  2  0  0  0  0  0  0  0  0  0
   22.1084   -6.5155  -15.2332 N   0  0  0  0  0  0  0  0  0  0  0  0
   21.3520   -4.9263  -13.6315 C   0  0  0  0  0  0  0  0  0  0  0  0
   21.5097   -3.9627  -12.6501 O   0  0  0  0  0  0  0  0  0  0  0  0
   21.1237   -2.7547  -15.7691 C   0  0  0  0  0  0  0  0  0  0  0  0
   20.1294   -2.2451  -16.5875 C   0  0  0  0  0  0  0  0  0  0  0  0
   20.1827   -5.3633  -13.8261 O   0  0  0  0  0  0  0  0  0  0  0  0
  2  1  1  0
  3  2  2  0
  4  3  1  0
  5 11  1  0
  5  4  2  0
  6  5  1  0
  7  6  1  0
  7  8  1  6
  9  7  1  0
  9 10  2  0
 11 12  2  0
 12  2  1  0
 13  9  1  0
 14 13  1  0
 14 15  1  1
 16 15  1  0
 17 14  1  0
 18 17  2  0
 20 30  2  0
 20 19  1  0
 21 20  1  0
 22 23  1  0
 22 21  2  0
 23 29  2  0
 25 24  1  6
 24 23  1  0
 25 26  1  0
 26 17  1  0
 27 28  1  0
 27 25  1  0
 29 30  1  0
 31 27  2  0
M  END
$$$$
