YCY.pdb
     RDKit          3D

 31 32  0  0  1  0  0  0  0  0999 V2000
   27.8237   -6.2161  -18.0524 O   0  0  0  0  0  0  0  0  0  0  0  0
   27.0982   -7.1820  -17.3579 C   0  0  0  0  0  0  0  0  0  0  0  0
   27.5367   -8.4865  -17.3524 C   0  0  0  0  0  0  0  0  0  0  0  0
   26.8429   -9.4657  -16.6758 C   0  0  0  0  0  0  0  0  0  0  0  0
   25.6835   -9.1705  -15.9801 C   0  0  0  0  0  0  0  0  0  0  0  0
   24.9866  -10.2557  -15.2776 C   0  0  0  0  0  0  0  0  0  0  0  0
   23.9018  -10.7834  -16.1621 C   0  0  2  0  0  0  0  0  0  0  0  0
   24.4157  -11.3155  -17.4027 N   0  0  0  0  0  0  0  0  0  0  0  0
   22.8431   -9.7877  -16.4563 C   0  0  0  0  0  0  0  0  0  0  0  0
   22.7765   -9.1711  -17.5412 O   0  0  0  0  0  0  0  0  0  0  0  0
   25.2624   -7.8549  -15.9995 C   0  0  0  0  0  0  0  0  0  0  0  0
   25.9456   -6.8716  -16.6701 C   0  0  0  0  0  0  0  0  0  0  0  0
   21.8282   -9.4862  -15.4814 N   0  0  0  0  0  0  0  0  0  0  0  0
   20.7570   -8.5481  -15.7541 C   0  0  1  0  0  0  0  0  0  0  0  0
   19.4380   -9.2752  -15.6871 C   0  0  0  0  0  0  0  0  0  0  0  0
   18.0370   -8.1237  -15.7091 S   0  0  0  0  0  0  0  0  0  0  0  0
   20.8578   -7.4217  -14.8348 C   0  0  0  0  0  0  0  0  0  0  0  0
   21.2962   -7.6009  -13.6727 O   0  0  0  0  0  0  0  0  0  0  0  0
   23.5051   -2.1723  -19.1993 O   0  0  0  0  0  0  0  0  0  0  0  0
   23.1483   -2.7285  -17.9771 C   0  0  0  0  0  0  0  0  0  0  0  0
   22.4667   -2.0043  -17.0225 C   0  0  0  0  0  0  0  0  0  0  0  0
   22.1017   -2.5363  -15.8008 C   0  0  0  0  0  0  0  0  0  0  0  0
   22.4206   -3.8442  -15.4991 C   0  0  0  0  0  0  0  0  0  0  0  0
   22.0675   -4.4847  -14.2209 C   0  0  0  0  0  0  0  0  0  0  0  0
   20.6476   -5.0134  -14.2126 C   0  0  2  0  0  0  0  0  0  0  0  0
   20.4816   -6.0823  -15.1702 N   0  0  0  0  0  0  0  0  0  0  0  0
   19.7632   -3.8881  -14.5933 C   0  0  0  0  0  0  0  0  0  0  0  0
   19.7211   -2.7390  -13.8225 O   0  0  0  0  0  0  0  0  0  0  0  0
   23.1021   -4.5808  -16.4442 C   0  0  0  0  0  0  0  0  0  0  0  0
   23.4702   -4.0519  -17.6702 C   0  0  0  0  0  0  0  0  0  0  0  0
   19.0222   -3.9223  -15.6159 O   0  0  0  0  0  0  0  0  0  0  0  0
  2  1  1  0
  3  2  2  0
  4  3  1  0
  5 11  1  0
  5  4  2  0
  6  5  1  0
  7  6  1  0
  7  8  1  6
  9  7  1  0
  9 10  2  0
 11 12  2  0
 12  2  1  0
 13  9  1  0
 14 13  1  0
 14 15  1  1
 16 15  1  0
 17 14  1  0
 18 17  2  0
 20 30  2  0
 20 19  1  0
 21 20  1  0
 22 23  1  0
 22 21  2  0
 23 29  2  0
 25 24  1  6
 24 23  1  0
 25 26  1  0
 26 17  1  0
 27 28  1  0
 27 25  1  0
 29 30  1  0
 31 27  2  0
M  END
$$$$
