YCY.pdb
     RDKit          3D

 31 32  0  0  1  0  0  0  0  0999 V2000
   30.3307  -16.8867  -18.9944 O   0  0  0  0  0  0  0  0  0  0  0  0
   29.3654  -17.4205  -18.1429 C   0  0  0  0  0  0  0  0  0  0  0  0
   29.6956  -17.7081  -16.8383 C   0  0  0  0  0  0  0  0  0  0  0  0
   28.7652  -18.2366  -15.9706 C   0  0  0  0  0  0  0  0  0  0  0  0
   27.4692  -18.4954  -16.3815 C   0  0  0  0  0  0  0  0  0  0  0  0
   26.5210  -19.0591  -15.4120 C   0  0  0  0  0  0  0  0  0  0  0  0
   26.8572  -20.4999  -15.1912 C   0  0  2  0  0  0  0  0  0  0  0  0
   26.8198  -21.2657  -16.4154 N   0  0  0  0  0  0  0  0  0  0  0  0
   26.0007  -21.1571  -14.1749 C   0  0  0  0  0  0  0  0  0  0  0  0
   25.0399  -21.8976  -14.4758 O   0  0  0  0  0  0  0  0  0  0  0  0
   27.1605  -18.1989  -17.6950 C   0  0  0  0  0  0  0  0  0  0  0  0
   28.0794  -17.6724  -18.5678 C   0  0  0  0  0  0  0  0  0  0  0  0
   26.2483  -20.9632  -12.7705 N   0  0  0  0  0  0  0  0  0  0  0  0
   25.3042  -21.3944  -11.7582 C   0  0  1  0  0  0  0  0  0  0  0  0
   25.9434  -21.2576  -10.3997 C   0  0  0  0  0  0  0  0  0  0  0  0
   24.7450  -20.7265   -9.1464 S   0  0  0  0  0  0  0  0  0  0  0  0
   24.0638  -20.6436  -11.9056 C   0  0  0  0  0  0  0  0  0  0  0  0
   24.0948  -19.3903  -11.9603 O   0  0  0  0  0  0  0  0  0  0  0  0
   22.0208  -23.1396  -17.9410 O   0  0  0  0  0  0  0  0  0  0  0  0
   21.9046  -22.2974  -16.8421 C   0  0  0  0  0  0  0  0  0  0  0  0
   20.7227  -22.1772  -16.1427 C   0  0  0  0  0  0  0  0  0  0  0  0
   20.5841  -21.3464  -15.0475 C   0  0  0  0  0  0  0  0  0  0  0  0
   21.6577  -20.5954  -14.6156 C   0  0  0  0  0  0  0  0  0  0  0  0
   21.5915  -19.6876  -13.4580 C   0  0  0  0  0  0  0  0  0  0  0  0
   21.5874  -20.4330  -12.1389 C   0  0  2  0  0  0  0  0  0  0  0  0
   22.7704  -21.2496  -11.9956 N   0  0  0  0  0  0  0  0  0  0  0  0
   20.3959  -21.3125  -12.1411 C   0  0  0  0  0  0  0  0  0  0  0  0
   19.1234  -20.7676  -12.1500 O   0  0  0  0  0  0  0  0  0  0  0  0
   22.8462  -20.7053  -15.3053 C   0  0  0  0  0  0  0  0  0  0  0  0
   22.9901  -21.5367  -16.4036 C   0  0  0  0  0  0  0  0  0  0  0  0
   20.4820  -22.5729  -12.1351 O   0  0  0  0  0  0  0  0  0  0  0  0
  2  1  1  0
  3  2  2  0
  4  3  1  0
  5 11  1  0
  5  4  2  0
  6  5  1  0
  7  6  1  0
  7  8  1  6
  9  7  1  0
  9 10  2  0
 11 12  2  0
 12  2  1  0
 13  9  1  0
 14 13  1  0
 14 15  1  1
 16 15  1  0
 17 14  1  0
 18 17  2  0
 20 30  2  0
 20 19  1  0
 21 20  1  0
 22 23  1  0
 22 21  2  0
 23 29  2  0
 25 24  1  6
 24 23  1  0
 25 26  1  0
 26 17  1  0
 27 28  1  0
 27 25  1  0
 29 30  1  0
 31 27  2  0
M  END
$$$$
