YCY.pdb
     RDKit          3D

 31 32  0  0  1  0  0  0  0  0999 V2000
   25.9898  -11.3254  -20.4078 O   0  0  0  0  0  0  0  0  0  0  0  0
   25.2443  -12.3965  -19.9189 C   0  0  0  0  0  0  0  0  0  0  0  0
   23.9096  -12.2202  -19.6337 C   0  0  0  0  0  0  0  0  0  0  0  0
   23.1442  -13.2581  -19.1491 C   0  0  0  0  0  0  0  0  0  0  0  0
   23.6915  -14.5109  -18.9333 C   0  0  0  0  0  0  0  0  0  0  0  0
   22.8266  -15.5788  -18.4153 C   0  0  0  0  0  0  0  0  0  0  0  0
   22.5919  -16.5787  -19.5028 C   0  0  2  0  0  0  0  0  0  0  0  0
   21.8832  -16.0110  -20.6262 N   0  0  0  0  0  0  0  0  0  0  0  0
   21.8848  -17.7977  -19.0417 C   0  0  0  0  0  0  0  0  0  0  0  0
   20.6397  -17.9038  -19.0549 O   0  0  0  0  0  0  0  0  0  0  0  0
   25.0327  -14.6645  -19.2265 C   0  0  0  0  0  0  0  0  0  0  0  0
   25.8044  -13.6376  -19.7096 C   0  0  0  0  0  0  0  0  0  0  0  0
   22.6220  -18.9316  -18.5497 N   0  0  0  0  0  0  0  0  0  0  0  0
   21.9631  -20.1568  -18.1417 C   0  0  1  0  0  0  0  0  0  0  0  0
   22.8628  -21.3259  -18.4526 C   0  0  0  0  0  0  0  0  0  0  0  0
   22.2432  -22.8622  -17.7144 S   0  0  0  0  0  0  0  0  0  0  0  0
   21.5883  -20.0572  -16.7369 C   0  0  0  0  0  0  0  0  0  0  0  0
   22.4066  -19.5992  -15.9029 O   0  0  0  0  0  0  0  0  0  0  0  0
   15.3443  -16.5961  -16.9812 O   0  0  0  0  0  0  0  0  0  0  0  0
   16.4463  -17.1618  -16.3519 C   0  0  0  0  0  0  0  0  0  0  0  0
   17.7332  -16.9054  -16.7744 C   0  0  0  0  0  0  0  0  0  0  0  0
   18.8435  -17.4565  -16.1642 C   0  0  0  0  0  0  0  0  0  0  0  0
   18.6849  -18.3016  -15.0853 C   0  0  0  0  0  0  0  0  0  0  0  0
   19.8159  -18.9284  -14.3806 C   0  0  0  0  0  0  0  0  0  0  0  0
   20.0365  -20.3658  -14.8061 C   0  0  2  0  0  0  0  0  0  0  0  0
   20.3145  -20.4560  -16.2208 N   0  0  0  0  0  0  0  0  0  0  0  0
   18.7841  -21.1012  -14.5164 C   0  0  0  0  0  0  0  0  0  0  0  0
   18.1331  -21.7979  -15.5200 O   0  0  0  0  0  0  0  0  0  0  0  0
   17.4037  -18.5673  -14.6515 C   0  0  0  0  0  0  0  0  0  0  0  0
   16.2877  -18.0173  -15.2599 C   0  0  0  0  0  0  0  0  0  0  0  0
   18.2621  -21.1272  -13.3662 O   0  0  0  0  0  0  0  0  0  0  0  0
  2  1  1  0
  3  2  2  0
  4  3  1  0
  5 11  1  0
  5  4  2  0
  6  5  1  0
  7  6  1  0
  7  8  1  6
  9  7  1  0
  9 10  2  0
 11 12  2  0
 12  2  1  0
 13  9  1  0
 14 13  1  0
 14 15  1  1
 16 15  1  0
 17 14  1  0
 18 17  2  0
 20 30  2  0
 20 19  1  0
 21 20  1  0
 22 23  1  0
 22 21  2  0
 23 29  2  0
 25 24  1  6
 24 23  1  0
 25 26  1  0
 26 17  1  0
 27 28  1  0
 27 25  1  0
 29 30  1  0
 31 27  2  0
M  END
$$$$
