YCY.pdb
     RDKit          3D

 31 32  0  0  1  0  0  0  0  0999 V2000
   37.9846   -9.4930  -11.7511 O   0  0  0  0  0  0  0  0  0  0  0  0
   38.4892   -9.3428  -10.4609 C   0  0  0  0  0  0  0  0  0  0  0  0
   38.1940   -8.2052   -9.7449 C   0  0  0  0  0  0  0  0  0  0  0  0
   38.6767   -8.0254   -8.4672 C   0  0  0  0  0  0  0  0  0  0  0  0
   39.4735   -8.9815   -7.8620 C   0  0  0  0  0  0  0  0  0  0  0  0
   39.9590   -8.7347   -6.4981 C   0  0  0  0  0  0  0  0  0  0  0  0
   41.2201   -7.9339   -6.5732 C   0  0  2  0  0  0  0  0  0  0  0  0
   42.3180   -8.6904   -7.1289 N   0  0  0  0  0  0  0  0  0  0  0  0
   41.6315   -7.3566   -5.2709 C   0  0  0  0  0  0  0  0  0  0  0  0
   42.5989   -7.7943   -4.6117 O   0  0  0  0  0  0  0  0  0  0  0  0
   39.7567  -10.1149   -8.5993 C   0  0  0  0  0  0  0  0  0  0  0  0
   39.2812  -10.3043   -9.8727 C   0  0  0  0  0  0  0  0  0  0  0  0
   40.9163   -6.2445   -4.7026 N   0  0  0  0  0  0  0  0  0  0  0  0
   41.3723   -5.5716   -3.5021 C   0  0  1  0  0  0  0  0  0  0  0  0
   42.7575   -5.0261   -3.7403 C   0  0  0  0  0  0  0  0  0  0  0  0
   43.6695   -4.8139   -2.1873 S   0  0  0  0  0  0  0  0  0  0  0  0
   40.3969   -4.5594   -3.1175 C   0  0  0  0  0  0  0  0  0  0  0  0
   39.5327   -4.1786   -3.9439 O   0  0  0  0  0  0  0  0  0  0  0  0
   33.5256   -1.3538    0.9892 O   0  0  0  0  0  0  0  0  0  0  0  0
   34.6599   -2.0306    0.5584 C   0  0  0  0  0  0  0  0  0  0  0  0
   34.8402   -2.3747   -0.7643 C   0  0  0  0  0  0  0  0  0  0  0  0
   35.9596   -3.0474   -1.2152 C   0  0  0  0  0  0  0  0  0  0  0  0
   36.9526   -3.4009   -0.3251 C   0  0  0  0  0  0  0  0  0  0  0  0
   38.1749   -4.1179   -0.7258 C   0  0  0  0  0  0  0  0  0  0  0  0
   39.1804   -3.2105   -1.4052 C   0  0  2  0  0  0  0  0  0  0  0  0
   40.3501   -3.9471   -1.8248 N   0  0  0  0  0  0  0  0  0  0  0  0
   39.5874   -2.1920   -0.4102 C   0  0  0  0  0  0  0  0  0  0  0  0
   39.0139   -0.9321   -0.4231 O   0  0  0  0  0  0  0  0  0  0  0  0
   36.7861   -3.0635    1.0010 C   0  0  0  0  0  0  0  0  0  0  0  0
   35.6659   -2.3892    1.4578 C   0  0  0  0  0  0  0  0  0  0  0  0
   40.4574   -2.4190    0.4773 O   0  0  0  0  0  0  0  0  0  0  0  0
  2  1  1  0
  3  2  2  0
  4  3  1  0
  5 11  1  0
  5  4  2  0
  6  5  1  0
  7  6  1  0
  7  8  1  1
  9  7  1  0
  9 10  2  0
 11 12  2  0
 12  2  1  0
 13  9  1  0
 14 13  1  0
 14 15  1  6
 16 15  1  0
 17 14  1  0
 18 17  2  0
 20 30  2  0
 20 19  1  0
 21 20  1  0
 22 23  1  0
 22 21  2  0
 23 29  2  0
 25 24  1  1
 24 23  1  0
 25 26  1  0
 26 17  1  0
 27 28  1  0
 27 25  1  0
 29 30  1  0
 31 27  2  0
M  END
$$$$
