LWN.pdb
     RDKit          3D

 31 32  0  0  1  0  0  0  0  0999 V2000
    7.7424  -12.3613   18.6040 C   0  0  0  0  0  0  0  0  0  0  0  0
    7.4754  -13.6712   19.2873 C   0  0  2  0  0  0  0  0  0  0  0  0
    5.9714  -13.7500   19.5257 C   0  0  0  0  0  0  0  0  0  0  0  0
    8.1477  -13.7272   20.6552 C   0  0  0  0  0  0  0  0  0  0  0  0
    8.6601  -15.0989   20.9474 C   0  0  2  0  0  0  0  0  0  0  0  0
    7.6448  -16.1146   20.8683 N   0  0  0  0  0  0  0  0  0  0  0  0
    9.3513  -15.0893   22.2608 C   0  0  0  0  0  0  0  0  0  0  0  0
   10.1709  -14.1635   22.4913 O   0  0  0  0  0  0  0  0  0  0  0  0
    9.1393  -16.0592   23.2613 N   0  0  0  0  0  0  0  0  0  0  0  0
    9.8744  -16.0243   24.4875 C   0  0  1  0  0  0  0  0  0  0  0  0
    9.0923  -16.2673   25.7286 C   0  0  0  0  0  0  0  0  0  0  0  0
    7.9027  -15.4240   25.8921 C   0  0  0  0  0  0  0  0  0  0  0  0
    6.5896  -15.8424   25.8229 C   0  0  0  0  0  0  0  0  0  0  0  0
    5.7662  -14.8033   26.0031 N   0  0  0  0  0  0  0  0  0  0  0  0
    6.4904  -13.6708   26.1967 C   0  0  0  0  0  0  0  0  0  0  0  0
    6.1164  -12.3679   26.4277 C   0  0  0  0  0  0  0  0  0  0  0  0
    7.0911  -11.4208   26.5962 C   0  0  0  0  0  0  0  0  0  0  0  0
    8.4137  -11.7988   26.5298 C   0  0  0  0  0  0  0  0  0  0  0  0
    8.7819  -13.1007   26.2987 C   0  0  0  0  0  0  0  0  0  0  0  0
    7.8301  -14.0694   26.1258 C   0  0  0  0  0  0  0  0  0  0  0  0
   11.0792  -16.8828   24.3349 C   0  0  0  0  0  0  0  0  0  0  0  0
   11.0003  -18.1469   24.4619 O   0  0  0  0  0  0  0  0  0  0  0  0
   14.1404  -14.7164   21.3202 N   0  0  0  0  0  0  0  0  0  0  0  0
   14.1566  -16.0535   21.7831 C   0  0  0  0  0  0  0  0  0  0  0  0
   13.7874  -16.9569   20.9959 O   0  0  0  0  0  0  0  0  0  0  0  0
   14.5858  -16.4326   23.1433 C   0  0  0  0  0  0  0  0  0  0  0  0
   13.5240  -17.2695   23.8723 C   0  0  2  0  0  0  0  0  0  0  0  0
   12.3784  -16.3835   24.0423 N   0  0  0  0  0  0  0  0  0  0  0  0
   14.0162  -17.7799   25.1645 C   0  0  0  0  0  0  0  0  0  0  0  0
   15.0121  -18.7332   25.2792 O   0  0  0  0  0  0  0  0  0  0  0  0
   13.5148  -17.3363   26.2222 O   0  0  0  0  0  0  0  0  0  0  0  0
  2  1  1  1
  2  3  1  0
  4  5  1  0
  4  2  1  0
  5  6  1  1
  7  5  1  0
  7  8  2  0
  9  7  1  0
 10  9  1  0
 10 11  1  1
 12 11  1  0
 13 12  2  0
 14 13  1  0
 15 14  1  0
 15 20  2  0
 16 15  1  0
 17 16  2  0
 17 18  1  0
 18 19  2  0
 19 20  1  0
 20 12  1  0
 21 10  1  0
 22 21  2  0
 23 24  1  0
 24 26  1  0
 24 25  2  0
 27 26  1  1
 27 28  1  0
 27 29  1  0
 28 21  1  0
 29 30  1  0
 31 29  2  0
M  END
$$$$
