LWN.pdb
     RDKit          3D

 31 32  0  0  1  0  0  0  0  0999 V2000
    8.6866  -14.1661   16.7397 C   0  0  0  0  0  0  0  0  0  0  0  0
    7.7866  -13.7135   17.8530 C   0  0  2  0  0  0  0  0  0  0  0  0
    7.3344  -12.2978   17.5116 C   0  0  0  0  0  0  0  0  0  0  0  0
    8.5421  -13.6340   19.1756 C   0  0  0  0  0  0  0  0  0  0  0  0
    8.9512  -14.9914   19.6441 C   0  0  2  0  0  0  0  0  0  0  0  0
    8.0967  -16.0422   19.1601 N   0  0  0  0  0  0  0  0  0  0  0  0
    9.0561  -14.9827   21.1246 C   0  0  0  0  0  0  0  0  0  0  0  0
    9.8064  -14.1268   21.6596 O   0  0  0  0  0  0  0  0  0  0  0  0
    8.3619  -15.8797   21.9614 N   0  0  0  0  0  0  0  0  0  0  0  0
    8.4008  -15.7390   23.3840 C   0  0  1  0  0  0  0  0  0  0  0  0
    7.0850  -15.6839   24.0742 C   0  0  0  0  0  0  0  0  0  0  0  0
    7.1193  -15.1553   25.4426 C   0  0  0  0  0  0  0  0  0  0  0  0
    7.1022  -15.8982   26.6054 C   0  0  0  0  0  0  0  0  0  0  0  0
    7.1274  -15.0871   27.6691 N   0  0  0  0  0  0  0  0  0  0  0  0
    7.1623  -13.7926   27.2598 C   0  0  0  0  0  0  0  0  0  0  0  0
    7.2031  -12.6080   27.9569 C   0  0  0  0  0  0  0  0  0  0  0  0
    7.2411  -11.4311   27.2578 C   0  0  0  0  0  0  0  0  0  0  0  0
    7.2375  -11.4670   25.8811 C   0  0  0  0  0  0  0  0  0  0  0  0
    7.1965  -12.6521   25.1899 C   0  0  0  0  0  0  0  0  0  0  0  0
    7.1573  -13.8446   25.8613 C   0  0  0  0  0  0  0  0  0  0  0  0
    9.3453  -16.7509   23.9282 C   0  0  0  0  0  0  0  0  0  0  0  0
    9.1368  -17.2967   25.0589 O   0  0  0  0  0  0  0  0  0  0  0  0
   11.7608  -18.3604   20.2458 N   0  0  0  0  0  0  0  0  0  0  0  0
   11.6423  -19.0078   21.4986 C   0  0  0  0  0  0  0  0  0  0  0  0
   10.8757  -19.9963   21.5839 O   0  0  0  0  0  0  0  0  0  0  0  0
   12.3759  -18.5756   22.7041 C   0  0  0  0  0  0  0  0  0  0  0  0
   11.4284  -18.1627   23.8404 C   0  0  2  0  0  0  0  0  0  0  0  0
   10.5214  -17.1825   23.2548 N   0  0  0  0  0  0  0  0  0  0  0  0
   12.1598  -17.6092   24.9941 C   0  0  0  0  0  0  0  0  0  0  0  0
   12.9918  -18.3622   25.8030 O   0  0  0  0  0  0  0  0  0  0  0  0
   12.0299  -16.3948   25.2683 O   0  0  0  0  0  0  0  0  0  0  0  0
  2  1  1  6
  2  3  1  0
  4  5  1  0
  4  2  1  0
  5  6  1  1
  7  5  1  0
  7  8  2  0
  9  7  1  0
 10  9  1  0
 10 11  1  1
 12 11  1  0
 13 12  2  0
 14 13  1  0
 15 14  1  0
 15 20  2  0
 16 15  1  0
 17 16  2  0
 17 18  1  0
 18 19  2  0
 19 20  1  0
 20 12  1  0
 21 10  1  0
 22 21  2  0
 23 24  1  0
 24 26  1  0
 24 25  2  0
 27 26  1  6
 27 28  1  0
 27 29  1  0
 28 21  1  0
 29 30  1  0
 31 29  2  0
M  END
$$$$
