LWN.pdb
     RDKit          3D

 31 32  0  0  1  0  0  0  0  0999 V2000
    8.1375  -13.9894   18.4355 C   0  0  0  0  0  0  0  0  0  0  0  0
    7.5998  -13.4518   19.7301 C   0  0  2  0  0  0  0  0  0  0  0  0
    7.5222  -11.9360   19.5841 C   0  0  0  0  0  0  0  0  0  0  0  0
    8.5523  -13.7408   20.8857 C   0  0  0  0  0  0  0  0  0  0  0  0
    8.6389  -15.2063   21.1583 C   0  0  2  0  0  0  0  0  0  0  0  0
    7.3950  -15.8982   20.9513 N   0  0  0  0  0  0  0  0  0  0  0  0
    9.1832  -15.4148   22.5232 C   0  0  0  0  0  0  0  0  0  0  0  0
   10.1628  -14.7129   22.8832 O   0  0  0  0  0  0  0  0  0  0  0  0
    8.6630  -16.3547   23.4356 N   0  0  0  0  0  0  0  0  0  0  0  0
    9.2256  -16.5012   24.7423 C   0  0  1  0  0  0  0  0  0  0  0  0
    8.2618  -16.5103   25.8745 C   0  0  0  0  0  0  0  0  0  0  0  0
    7.2540  -15.4441   25.8452 C   0  0  0  0  0  0  0  0  0  0  0  0
    5.9294  -15.5826   25.4844 C   0  0  0  0  0  0  0  0  0  0  0  0
    5.3072  -14.4003   25.5581 N   0  0  0  0  0  0  0  0  0  0  0  0
    6.1821  -13.4448   25.9653 C   0  0  0  0  0  0  0  0  0  0  0  0
    6.0312  -12.0976   26.1965 C   0  0  0  0  0  0  0  0  0  0  0  0
    7.1148  -11.3744   26.6185 C   0  0  0  0  0  0  0  0  0  0  0  0
    8.3208  -12.0145   26.7990 C   0  0  0  0  0  0  0  0  0  0  0  0
    8.4663  -13.3594   26.5666 C   0  0  0  0  0  0  0  0  0  0  0  0
    7.4013  -14.1084   26.1435 C   0  0  0  0  0  0  0  0  0  0  0  0
   10.1672  -17.6522   24.7194 C   0  0  0  0  0  0  0  0  0  0  0  0
   10.4373  -18.2530   23.6303 O   0  0  0  0  0  0  0  0  0  0  0  0
   14.3252  -19.8714   24.3219 N   0  0  0  0  0  0  0  0  0  0  0  0
   14.1251  -18.4709   24.3519 C   0  0  0  0  0  0  0  0  0  0  0  0
   14.8781  -17.7503   23.6548 O   0  0  0  0  0  0  0  0  0  0  0  0
   13.0759  -17.8217   25.1617 C   0  0  0  0  0  0  0  0  0  0  0  0
   12.1129  -18.8425   25.7861 C   0  0  2  0  0  0  0  0  0  0  0  0
   10.8259  -18.1624   25.8721 N   0  0  0  0  0  0  0  0  0  0  0  0
   12.5774  -19.3018   27.1074 C   0  0  0  0  0  0  0  0  0  0  0  0
   13.1867  -20.5255   27.3192 O   0  0  0  0  0  0  0  0  0  0  0  0
   12.4177  -18.5552   28.0993 O   0  0  0  0  0  0  0  0  0  0  0  0
  2  1  1  6
  2  3  1  0
  4  5  1  0
  4  2  1  0
  5  6  1  1
  7  5  1  0
  7  8  2  0
  9  7  1  0
 10  9  1  0
 10 11  1  1
 12 11  1  0
 13 12  2  0
 14 13  1  0
 15 14  1  0
 15 20  2  0
 16 15  1  0
 17 16  2  0
 17 18  1  0
 18 19  2  0
 19 20  1  0
 20 12  1  0
 21 10  1  0
 22 21  2  0
 23 24  1  0
 24 26  1  0
 24 25  2  0
 27 26  1  1
 27 28  1  0
 27 29  1  0
 28 21  1  0
 29 30  1  0
 31 29  2  0
M  END
$$$$
