LWN.pdb
     RDKit          3D

 31 32  0  0  1  0  0  0  0  0999 V2000
   10.4926  -19.2151   17.5722 C   0  0  0  0  0  0  0  0  0  0  0  0
   11.7553  -18.5356   18.0170 C   0  0  2  0  0  0  0  0  0  0  0  0
   12.8002  -19.6275   18.2200 C   0  0  0  0  0  0  0  0  0  0  0  0
   11.5651  -17.8441   19.3631 C   0  0  0  0  0  0  0  0  0  0  0  0
   10.4023  -16.9080   19.3278 C   0  0  2  0  0  0  0  0  0  0  0  0
   10.5809  -15.8127   18.4129 N   0  0  0  0  0  0  0  0  0  0  0  0
   10.1051  -16.4509   20.7082 C   0  0  0  0  0  0  0  0  0  0  0  0
   11.0495  -15.9776   21.3910 O   0  0  0  0  0  0  0  0  0  0  0  0
    8.8249  -16.5182   21.2940 N   0  0  0  0  0  0  0  0  0  0  0  0
    8.5923  -16.0188   22.6137 C   0  0  1  0  0  0  0  0  0  0  0  0
    7.1999  -15.5961   22.9194 C   0  0  0  0  0  0  0  0  0  0  0  0
    6.9853  -15.0902   24.2799 C   0  0  0  0  0  0  0  0  0  0  0  0
    6.4982  -15.8105   25.3514 C   0  0  0  0  0  0  0  0  0  0  0  0
    6.4177  -15.0271   26.4331 N   0  0  0  0  0  0  0  0  0  0  0  0
    6.8428  -13.7743   26.1263 C   0  0  0  0  0  0  0  0  0  0  0  0
    6.9561  -12.6306   26.8813 C   0  0  0  0  0  0  0  0  0  0  0  0
    7.4352  -11.4927   26.2888 C   0  0  0  0  0  0  0  0  0  0  0  0
    7.7888  -11.5259   24.9582 C   0  0  0  0  0  0  0  0  0  0  0  0
    7.6736  -12.6700   24.2088 C   0  0  0  0  0  0  0  0  0  0  0  0
    7.1974  -13.8228   24.7733 C   0  0  0  0  0  0  0  0  0  0  0  0
    9.1772  -16.9793   23.5869 C   0  0  0  0  0  0  0  0  0  0  0  0
    9.2400  -18.2222   23.3199 O   0  0  0  0  0  0  0  0  0  0  0  0
   14.0753  -18.4877   25.5502 N   0  0  0  0  0  0  0  0  0  0  0  0
   12.6798  -18.7223   25.5430 C   0  0  0  0  0  0  0  0  0  0  0  0
   12.2412  -19.7034   26.1891 O   0  0  0  0  0  0  0  0  0  0  0  0
   11.7208  -17.8699   24.8138 C   0  0  0  0  0  0  0  0  0  0  0  0
   10.4895  -17.5259   25.6652 C   0  0  2  0  0  0  0  0  0  0  0  0
    9.7005  -16.6051   24.8554 N   0  0  0  0  0  0  0  0  0  0  0  0
   10.8640  -16.9307   26.9606 C   0  0  0  0  0  0  0  0  0  0  0  0
   10.5002  -15.6533   27.3473 O   0  0  0  0  0  0  0  0  0  0  0  0
   11.5481  -17.6056   27.7627 O   0  0  0  0  0  0  0  0  0  0  0  0
  2  1  1  1
  2  3  1  0
  4  5  1  0
  4  2  1  0
  5  6  1  6
  7  5  1  0
  7  8  2  0
  9  7  1  0
 10  9  1  0
 10 11  1  1
 12 11  1  0
 13 12  2  0
 14 13  1  0
 15 14  1  0
 15 20  2  0
 16 15  1  0
 17 16  2  0
 17 18  1  0
 18 19  2  0
 19 20  1  0
 20 12  1  0
 21 10  1  0
 22 21  2  0
 23 24  1  0
 24 26  1  0
 24 25  2  0
 27 26  1  6
 27 28  1  0
 27 29  1  0
 28 21  1  0
 29 30  1  0
 31 29  2  0
M  END
$$$$
