LWN.pdb
     RDKit          3D

 31 32  0  0  1  0  0  0  0  0999 V2000
    8.1151  -14.3742   17.8564 C   0  0  0  0  0  0  0  0  0  0  0  0
    7.4825  -13.7337   19.0580 C   0  0  2  0  0  0  0  0  0  0  0  0
    7.3040  -12.2550   18.7316 C   0  0  0  0  0  0  0  0  0  0  0  0
    8.4000  -13.8149   20.2737 C   0  0  0  0  0  0  0  0  0  0  0  0
    8.6081  -15.2314   20.6974 C   0  0  2  0  0  0  0  0  0  0  0  0
    7.3850  -15.9819   20.7951 N   0  0  0  0  0  0  0  0  0  0  0  0
    9.3874  -15.2508   21.9604 C   0  0  0  0  0  0  0  0  0  0  0  0
   10.4193  -14.5350   22.0301 O   0  0  0  0  0  0  0  0  0  0  0  0
    9.0345  -16.0261   23.0833 N   0  0  0  0  0  0  0  0  0  0  0  0
    9.7256  -15.8778   24.3266 C   0  0  1  0  0  0  0  0  0  0  0  0
    8.9231  -16.1150   25.5557 C   0  0  0  0  0  0  0  0  0  0  0  0
    7.7000  -15.3122   25.6674 C   0  0  0  0  0  0  0  0  0  0  0  0
    6.4079  -15.7644   25.4936 C   0  0  0  0  0  0  0  0  0  0  0  0
    5.5429  -14.7564   25.6540 N   0  0  0  0  0  0  0  0  0  0  0  0
    6.2174  -13.6121   25.9369 C   0  0  0  0  0  0  0  0  0  0  0  0
    5.7890  -12.3298   26.1881 C   0  0  0  0  0  0  0  0  0  0  0  0
    6.7207  -11.3627   26.4565 C   0  0  0  0  0  0  0  0  0  0  0  0
    8.0557  -11.7006   26.4674 C   0  0  0  0  0  0  0  0  0  0  0  0
    8.4783  -12.9820   26.2158 C   0  0  0  0  0  0  0  0  0  0  0  0
    7.5704  -13.9699   25.9437 C   0  0  0  0  0  0  0  0  0  0  0  0
   10.9922  -16.6539   24.2528 C   0  0  0  0  0  0  0  0  0  0  0  0
   10.9819  -17.8946   23.9688 O   0  0  0  0  0  0  0  0  0  0  0  0
   16.3297  -17.1465   22.5596 N   0  0  0  0  0  0  0  0  0  0  0  0
   15.9034  -16.5135   23.7513 C   0  0  0  0  0  0  0  0  0  0  0  0
   16.6911  -16.4959   24.7267 O   0  0  0  0  0  0  0  0  0  0  0  0
   14.5806  -15.8759   23.8989 C   0  0  0  0  0  0  0  0  0  0  0  0
   13.4990  -16.8802   24.3242 C   0  0  2  0  0  0  0  0  0  0  0  0
   12.2800  -16.0960   24.4836 N   0  0  0  0  0  0  0  0  0  0  0  0
   13.8604  -17.5863   25.5665 C   0  0  0  0  0  0  0  0  0  0  0  0
   13.4109  -17.2070   26.8185 O   0  0  0  0  0  0  0  0  0  0  0  0
   14.6140  -18.5836   25.4996 O   0  0  0  0  0  0  0  0  0  0  0  0
  2  1  1  6
  2  3  1  0
  4  5  1  0
  4  2  1  0
  5  6  1  1
  7  5  1  0
  7  8  2  0
  9  7  1  0
 10  9  1  0
 10 11  1  1
 12 11  1  0
 13 12  2  0
 14 13  1  0
 15 14  1  0
 15 20  2  0
 16 15  1  0
 17 16  2  0
 17 18  1  0
 18 19  2  0
 19 20  1  0
 20 12  1  0
 21 10  1  0
 22 21  2  0
 23 24  1  0
 24 26  1  0
 24 25  2  0
 27 26  1  1
 27 28  1  0
 27 29  1  0
 28 21  1  0
 29 30  1  0
 31 29  2  0
M  END
$$$$
