LWN.pdb
     RDKit          3D

 31 32  0  0  1  0  0  0  0  0999 V2000
    8.3806  -14.1981   18.2951 C   0  0  0  0  0  0  0  0  0  0  0  0
    7.5141  -13.7701   19.4441 C   0  0  2  0  0  0  0  0  0  0  0  0
    7.2305  -12.2835   19.2575 C   0  0  0  0  0  0  0  0  0  0  0  0
    8.2462  -13.9214   20.7735 C   0  0  0  0  0  0  0  0  0  0  0  0
    8.5573  -15.3541   21.0566 C   0  0  2  0  0  0  0  0  0  0  0  0
    7.4368  -16.2316   20.8490 N   0  0  0  0  0  0  0  0  0  0  0  0
    9.1200  -15.4673   22.4253 C   0  0  0  0  0  0  0  0  0  0  0  0
   10.0727  -14.7080   22.7382 O   0  0  0  0  0  0  0  0  0  0  0  0
    8.6456  -16.3776   23.3913 N   0  0  0  0  0  0  0  0  0  0  0  0
    9.2042  -16.4116   24.7073 C   0  0  1  0  0  0  0  0  0  0  0  0
    8.2323  -16.4478   25.8320 C   0  0  0  0  0  0  0  0  0  0  0  0
    7.2574  -15.3512   25.8503 C   0  0  0  0  0  0  0  0  0  0  0  0
    5.9127  -15.4494   25.5569 C   0  0  0  0  0  0  0  0  0  0  0  0
    5.3315  -14.2485   25.6583 N   0  0  0  0  0  0  0  0  0  0  0  0
    6.2546  -13.3197   26.0183 C   0  0  0  0  0  0  0  0  0  0  0  0
    6.1568  -11.9683   26.2529 C   0  0  0  0  0  0  0  0  0  0  0  0
    7.2819  -11.2781   26.6179 C   0  0  0  0  0  0  0  0  0  0  0  0
    8.4753  -11.9547   26.7394 C   0  0  0  0  0  0  0  0  0  0  0  0
    8.5676  -13.3037   26.5038 C   0  0  0  0  0  0  0  0  0  0  0  0
    7.4603  -14.0202   26.1370 C   0  0  0  0  0  0  0  0  0  0  0  0
   10.2404  -17.4778   24.7479 C   0  0  0  0  0  0  0  0  0  0  0  0
   10.2419  -18.4194   23.8915 O   0  0  0  0  0  0  0  0  0  0  0  0
   13.4242  -18.4208   22.6049 N   0  0  0  0  0  0  0  0  0  0  0  0
   13.9186  -18.7668   23.8848 C   0  0  0  0  0  0  0  0  0  0  0  0
   14.7228  -19.7251   23.9696 O   0  0  0  0  0  0  0  0  0  0  0  0
   13.5335  -18.0555   25.1193 C   0  0  0  0  0  0  0  0  0  0  0  0
   12.2496  -18.6269   25.7393 C   0  0  2  0  0  0  0  0  0  0  0  0
   11.2841  -17.5345   25.7125 N   0  0  0  0  0  0  0  0  0  0  0  0
   12.4731  -19.1250   27.1084 C   0  0  0  0  0  0  0  0  0  0  0  0
   13.1176  -20.3157   27.3917 O   0  0  0  0  0  0  0  0  0  0  0  0
   12.0624  -18.4446   28.0755 O   0  0  0  0  0  0  0  0  0  0  0  0
  2  1  1  6
  2  3  1  0
  4  5  1  0
  4  2  1  0
  5  6  1  1
  7  5  1  0
  7  8  2  0
  9  7  1  0
 10  9  1  0
 10 11  1  1
 12 11  1  0
 13 12  2  0
 14 13  1  0
 15 14  1  0
 15 20  2  0
 16 15  1  0
 17 16  2  0
 17 18  1  0
 18 19  2  0
 19 20  1  0
 20 12  1  0
 21 10  1  0
 22 21  2  0
 23 24  1  0
 24 26  1  0
 24 25  2  0
 27 26  1  1
 27 28  1  0
 27 29  1  0
 28 21  1  0
 29 30  1  0
 31 29  2  0
M  END
$$$$
