LWN.pdb
     RDKit          3D

 31 32  0  0  1  0  0  0  0  0999 V2000
    8.0140  -19.5591   17.6509 C   0  0  0  0  0  0  0  0  0  0  0  0
    9.4655  -19.1842   17.7337 C   0  0  2  0  0  0  0  0  0  0  0  0
   10.2547  -20.4840   17.8464 C   0  0  0  0  0  0  0  0  0  0  0  0
    9.7554  -18.3752   18.9938 C   0  0  0  0  0  0  0  0  0  0  0  0
    8.9503  -17.1181   19.0235 C   0  0  2  0  0  0  0  0  0  0  0  0
    9.2803  -16.2057   17.9617 N   0  0  0  0  0  0  0  0  0  0  0  0
    9.0727  -16.4949   20.3649 C   0  0  0  0  0  0  0  0  0  0  0  0
   10.0939  -15.8005   20.6039 O   0  0  0  0  0  0  0  0  0  0  0  0
    8.1088  -16.6388   21.3831 N   0  0  0  0  0  0  0  0  0  0  0  0
    8.2721  -15.9915   22.6479 C   0  0  1  0  0  0  0  0  0  0  0  0
    7.0421  -15.8351   23.4686 C   0  0  0  0  0  0  0  0  0  0  0  0
    7.2490  -15.2506   24.7985 C   0  0  0  0  0  0  0  0  0  0  0  0
    7.5126  -15.9431   25.9626 C   0  0  0  0  0  0  0  0  0  0  0  0
    7.6273  -15.0913   26.9880 N   0  0  0  0  0  0  0  0  0  0  0  0
    7.4474  -13.8182   26.5506 C   0  0  0  0  0  0  0  0  0  0  0  0
    7.4734  -12.6086   27.2041 C   0  0  0  0  0  0  0  0  0  0  0  0
    7.2604  -11.4637   26.4835 C   0  0  0  0  0  0  0  0  0  0  0  0
    7.0272  -11.5559   25.1293 C   0  0  0  0  0  0  0  0  0  0  0  0
    7.0020  -12.7658   24.4817 C   0  0  0  0  0  0  0  0  0  0  0  0
    7.2109  -13.9273   25.1755 C   0  0  0  0  0  0  0  0  0  0  0  0
    9.4137  -16.6299   23.3558 C   0  0  0  0  0  0  0  0  0  0  0  0
    9.5054  -17.8968   23.4366 O   0  0  0  0  0  0  0  0  0  0  0  0
   14.5841  -17.4315   24.4806 N   0  0  0  0  0  0  0  0  0  0  0  0
   14.1025  -16.1252   24.7337 C   0  0  0  0  0  0  0  0  0  0  0  0
   14.8007  -15.3644   25.4450 O   0  0  0  0  0  0  0  0  0  0  0  0
   12.8224  -15.6186   24.2018 C   0  0  0  0  0  0  0  0  0  0  0  0
   11.6544  -16.5696   24.5029 C   0  0  2  0  0  0  0  0  0  0  0  0
   10.4662  -15.9053   23.9804 N   0  0  0  0  0  0  0  0  0  0  0  0
   11.5323  -16.8535   25.9441 C   0  0  0  0  0  0  0  0  0  0  0  0
   12.2360  -17.8561   26.5868 O   0  0  0  0  0  0  0  0  0  0  0  0
   10.7536  -16.1584   26.6350 O   0  0  0  0  0  0  0  0  0  0  0  0
  2  1  1  1
  2  3  1  0
  4  5  1  0
  4  2  1  0
  5  6  1  6
  7  5  1  0
  7  8  2  0
  9  7  1  0
 10  9  1  0
 10 11  1  1
 12 11  1  0
 13 12  2  0
 14 13  1  0
 15 14  1  0
 15 20  2  0
 16 15  1  0
 17 16  2  0
 17 18  1  0
 18 19  2  0
 19 20  1  0
 20 12  1  0
 21 10  1  0
 22 21  2  0
 23 24  1  0
 24 26  1  0
 24 25  2  0
 27 26  1  1
 27 28  1  0
 27 29  1  0
 28 21  1  0
 29 30  1  0
 31 29  2  0
M  END
$$$$
