LWN.pdb
     RDKit          3D

 31 32  0  0  1  0  0  0  0  0999 V2000
    7.4413  -14.4156   17.0391 C   0  0  0  0  0  0  0  0  0  0  0  0
    7.7010  -13.7840   18.3762 C   0  0  2  0  0  0  0  0  0  0  0  0
    7.5583  -12.2772   18.1916 C   0  0  0  0  0  0  0  0  0  0  0  0
    9.1303  -14.0435   18.8409 C   0  0  0  0  0  0  0  0  0  0  0  0
    9.2534  -15.3882   19.4782 C   0  0  2  0  0  0  0  0  0  0  0  0
    8.2609  -16.3256   19.0256 N   0  0  0  0  0  0  0  0  0  0  0  0
    9.2508  -15.2281   20.9537 C   0  0  0  0  0  0  0  0  0  0  0  0
   10.1378  -14.5021   21.4717 O   0  0  0  0  0  0  0  0  0  0  0  0
    8.3104  -15.8440   21.8039 N   0  0  0  0  0  0  0  0  0  0  0  0
    8.3079  -15.5833   23.2101 C   0  0  1  0  0  0  0  0  0  0  0  0
    6.9727  -15.4928   23.8582 C   0  0  0  0  0  0  0  0  0  0  0  0
    6.9883  -15.0727   25.2641 C   0  0  0  0  0  0  0  0  0  0  0  0
    6.9761  -15.9046   26.3649 C   0  0  0  0  0  0  0  0  0  0  0  0
    6.9797  -15.1791   27.4891 N   0  0  0  0  0  0  0  0  0  0  0  0
    6.9948  -13.8562   27.1826 C   0  0  0  0  0  0  0  0  0  0  0  0
    7.0100  -12.7294   27.9707 C   0  0  0  0  0  0  0  0  0  0  0  0
    7.0322  -11.5008   27.3663 C   0  0  0  0  0  0  0  0  0  0  0  0
    7.0389  -11.4287   25.9910 C   0  0  0  0  0  0  0  0  0  0  0  0
    7.0234  -12.5564   25.2088 C   0  0  0  0  0  0  0  0  0  0  0  0
    7.0004  -13.7983   25.7843 C   0  0  0  0  0  0  0  0  0  0  0  0
    9.2519  -16.5293   23.8626 C   0  0  0  0  0  0  0  0  0  0  0  0
    9.1387  -17.7856   23.6926 O   0  0  0  0  0  0  0  0  0  0  0  0
   12.6229  -17.0590   22.8120 N   0  0  0  0  0  0  0  0  0  0  0  0
   13.2449  -16.4617   23.9339 C   0  0  0  0  0  0  0  0  0  0  0  0
   14.3792  -15.9501   23.7793 O   0  0  0  0  0  0  0  0  0  0  0  0
   12.6236  -16.4130   25.2717 C   0  0  0  0  0  0  0  0  0  0  0  0
   11.2456  -17.0911   25.2942 C   0  0  2  0  0  0  0  0  0  0  0  0
   10.3265  -16.1260   24.7025 N   0  0  0  0  0  0  0  0  0  0  0  0
   10.8384  -17.4668   26.6601 C   0  0  0  0  0  0  0  0  0  0  0  0
   11.3794  -18.5362   27.3509 O   0  0  0  0  0  0  0  0  0  0  0  0
    9.9569  -16.7910   27.2373 O   0  0  0  0  0  0  0  0  0  0  0  0
  2  1  1  6
  2  3  1  0
  4  5  1  0
  4  2  1  0
  5  6  1  1
  7  5  1  0
  7  8  2  0
  9  7  1  0
 10  9  1  0
 10 11  1  1
 12 11  1  0
 13 12  2  0
 14 13  1  0
 15 14  1  0
 15 20  2  0
 16 15  1  0
 17 16  2  0
 17 18  1  0
 18 19  2  0
 19 20  1  0
 20 12  1  0
 21 10  1  0
 22 21  2  0
 23 24  1  0
 24 26  1  0
 24 25  2  0
 27 26  1  1
 27 28  1  0
 27 29  1  0
 28 21  1  0
 29 30  1  0
 31 29  2  0
M  END
$$$$
