LWN.pdb
     RDKit          3D

 31 32  0  0  1  0  0  0  0  0999 V2000
    8.0055  -14.2584   18.2695 C   0  0  0  0  0  0  0  0  0  0  0  0
    7.3228  -13.7379   19.5012 C   0  0  2  0  0  0  0  0  0  0  0  0
    7.0763  -12.2498   19.2778 C   0  0  0  0  0  0  0  0  0  0  0  0
    8.2237  -13.8622   20.7257 C   0  0  0  0  0  0  0  0  0  0  0  0
    8.5161  -15.2933   21.0357 C   0  0  2  0  0  0  0  0  0  0  0  0
    7.3582  -16.1423   20.9502 N   0  0  0  0  0  0  0  0  0  0  0  0
    9.1837  -15.3767   22.3586 C   0  0  0  0  0  0  0  0  0  0  0  0
   10.1408  -14.5937   22.5889 O   0  0  0  0  0  0  0  0  0  0  0  0
    8.8041  -16.2836   23.3686 N   0  0  0  0  0  0  0  0  0  0  0  0
    9.4167  -16.2452   24.6603 C   0  0  1  0  0  0  0  0  0  0  0  0
    8.4985  -16.3489   25.8253 C   0  0  0  0  0  0  0  0  0  0  0  0
    7.4321  -15.3420   25.8713 C   0  0  0  0  0  0  0  0  0  0  0  0
    6.0880  -15.5658   25.6531 C   0  0  0  0  0  0  0  0  0  0  0  0
    5.4082  -14.4183   25.7586 N   0  0  0  0  0  0  0  0  0  0  0  0
    6.2622  -13.4026   26.0473 C   0  0  0  0  0  0  0  0  0  0  0  0
    6.0568  -12.0591   26.2563 C   0  0  0  0  0  0  0  0  0  0  0  0
    7.1332  -11.2631   26.5444 C   0  0  0  0  0  0  0  0  0  0  0  0
    8.3868  -11.8288   26.6166 C   0  0  0  0  0  0  0  0  0  0  0  0
    8.5867  -13.1704   26.4070 C   0  0  0  0  0  0  0  0  0  0  0  0
    7.5301  -13.9911   26.1166 C   0  0  0  0  0  0  0  0  0  0  0  0
   10.5453  -17.2137   24.6714 C   0  0  0  0  0  0  0  0  0  0  0  0
   10.4315  -18.3551   24.1198 O   0  0  0  0  0  0  0  0  0  0  0  0
   14.9345  -15.6196   23.4548 N   0  0  0  0  0  0  0  0  0  0  0  0
   14.4936  -16.9020   23.8592 C   0  0  0  0  0  0  0  0  0  0  0  0
   14.3707  -17.7895   22.9821 O   0  0  0  0  0  0  0  0  0  0  0  0
   14.1732  -17.2420   25.2592 C   0  0  0  0  0  0  0  0  0  0  0  0
   12.8346  -17.9853   25.3816 C   0  0  2  0  0  0  0  0  0  0  0  0
   11.8065  -16.9566   25.2768 N   0  0  0  0  0  0  0  0  0  0  0  0
   12.7327  -18.7322   26.6483 C   0  0  0  0  0  0  0  0  0  0  0  0
   13.5393  -19.8103   26.9655 O   0  0  0  0  0  0  0  0  0  0  0  0
   11.8748  -18.3835   27.4903 O   0  0  0  0  0  0  0  0  0  0  0  0
  2  1  1  6
  2  3  1  0
  4  5  1  0
  4  2  1  0
  5  6  1  1
  7  5  1  0
  7  8  2  0
  9  7  1  0
 10  9  1  0
 10 11  1  1
 12 11  1  0
 13 12  2  0
 14 13  1  0
 15 14  1  0
 15 20  2  0
 16 15  1  0
 17 16  2  0
 17 18  1  0
 18 19  2  0
 19 20  1  0
 20 12  1  0
 21 10  1  0
 22 21  2  0
 23 24  1  0
 24 26  1  0
 24 25  2  0
 27 26  1  1
 27 28  1  0
 27 29  1  0
 28 21  1  0
 29 30  1  0
 31 29  2  0
M  END
$$$$
