LWN.pdb
     RDKit          3D

 31 32  0  0  1  0  0  0  0  0999 V2000
    8.4717  -12.4064   18.6136 C   0  0  0  0  0  0  0  0  0  0  0  0
    8.0014  -13.7127   19.1849 C   0  0  2  0  0  0  0  0  0  0  0  0
    6.4790  -13.7135   19.0984 C   0  0  0  0  0  0  0  0  0  0  0  0
    8.3647  -13.8319   20.6614 C   0  0  0  0  0  0  0  0  0  0  0  0
    9.0479  -15.1291   20.9446 C   0  0  2  0  0  0  0  0  0  0  0  0
    8.3015  -16.2748   20.4984 N   0  0  0  0  0  0  0  0  0  0  0  0
    9.3809  -15.1970   22.3893 C   0  0  0  0  0  0  0  0  0  0  0  0
   10.0438  -14.2520   22.8889 O   0  0  0  0  0  0  0  0  0  0  0  0
    8.9954  -16.2608   23.2298 N   0  0  0  0  0  0  0  0  0  0  0  0
    9.3826  -16.2887   24.6062 C   0  0  1  0  0  0  0  0  0  0  0  0
    8.2896  -16.5035   25.5912 C   0  0  0  0  0  0  0  0  0  0  0  0
    7.3649  -15.3758   25.7536 C   0  0  0  0  0  0  0  0  0  0  0  0
    5.9926  -15.4190   25.6155 C   0  0  0  0  0  0  0  0  0  0  0  0
    5.4721  -14.2031   25.8177 N   0  0  0  0  0  0  0  0  0  0  0  0
    6.4644  -13.3182   26.0945 C   0  0  0  0  0  0  0  0  0  0  0  0
    6.4447  -11.9726   26.3773 C   0  0  0  0  0  0  0  0  0  0  0  0
    7.6292  -11.3331   26.6287 C   0  0  0  0  0  0  0  0  0  0  0  0
    8.8026  -12.0531   26.5917 C   0  0  0  0  0  0  0  0  0  0  0  0
    8.8169  -13.3961   26.3088 C   0  0  0  0  0  0  0  0  0  0  0  0
    7.6488  -14.0625   26.0526 C   0  0  0  0  0  0  0  0  0  0  0  0
   10.5372  -17.2153   24.7483 C   0  0  0  0  0  0  0  0  0  0  0  0
   10.3730  -18.4762   24.6920 O   0  0  0  0  0  0  0  0  0  0  0  0
   14.0717  -17.0654   22.6148 N   0  0  0  0  0  0  0  0  0  0  0  0
   14.3880  -16.3570   23.7982 C   0  0  0  0  0  0  0  0  0  0  0  0
   14.8060  -15.1798   23.6897 O   0  0  0  0  0  0  0  0  0  0  0  0
   14.2495  -16.9366   25.1485 C   0  0  0  0  0  0  0  0  0  0  0  0
   12.9392  -17.7219   25.3089 C   0  0  2  0  0  0  0  0  0  0  0  0
   11.8785  -16.7876   24.9506 N   0  0  0  0  0  0  0  0  0  0  0  0
   12.7712  -18.2398   26.6786 C   0  0  0  0  0  0  0  0  0  0  0  0
   12.1945  -17.5124   27.7042 O   0  0  0  0  0  0  0  0  0  0  0  0
   13.1676  -19.3976   26.9417 O   0  0  0  0  0  0  0  0  0  0  0  0
  2  1  1  1
  2  3  1  0
  4  5  1  0
  4  2  1  0
  5  6  1  1
  7  5  1  0
  7  8  2  0
  9  7  1  0
 10  9  1  0
 10 11  1  1
 12 11  1  0
 13 12  2  0
 14 13  1  0
 15 14  1  0
 15 20  2  0
 16 15  1  0
 17 16  2  0
 17 18  1  0
 18 19  2  0
 19 20  1  0
 20 12  1  0
 21 10  1  0
 22 21  2  0
 23 24  1  0
 24 26  1  0
 24 25  2  0
 27 26  1  1
 27 28  1  0
 27 29  1  0
 28 21  1  0
 29 30  1  0
 31 29  2  0
M  END
$$$$
