LWN.pdb
     RDKit          3D

 31 32  0  0  1  0  0  0  0  0999 V2000
    8.1835  -14.3171   18.0114 C   0  0  0  0  0  0  0  0  0  0  0  0
    7.4791  -13.7363   19.2034 C   0  0  2  0  0  0  0  0  0  0  0  0
    7.2956  -12.2475   18.9297 C   0  0  0  0  0  0  0  0  0  0  0  0
    8.3326  -13.8570   20.4616 C   0  0  0  0  0  0  0  0  0  0  0  0
    8.5359  -15.2872   20.8390 C   0  0  2  0  0  0  0  0  0  0  0  0
    7.3226  -16.0593   20.8184 N   0  0  0  0  0  0  0  0  0  0  0  0
    9.2252  -15.3496   22.1519 C   0  0  0  0  0  0  0  0  0  0  0  0
   10.2340  -14.6187   22.3259 O   0  0  0  0  0  0  0  0  0  0  0  0
    8.8116  -16.1815   23.2118 N   0  0  0  0  0  0  0  0  0  0  0  0
    9.5411  -16.2250   24.4411 C   0  0  1  0  0  0  0  0  0  0  0  0
    8.7321  -16.3779   25.6793 C   0  0  0  0  0  0  0  0  0  0  0  0
    7.6497  -15.4008   25.8425 C   0  0  0  0  0  0  0  0  0  0  0  0
    6.3026  -15.6364   25.6585 C   0  0  0  0  0  0  0  0  0  0  0  0
    5.6060  -14.5152   25.8773 N   0  0  0  0  0  0  0  0  0  0  0  0
    6.4516  -13.5061   26.2109 C   0  0  0  0  0  0  0  0  0  0  0  0
    6.2293  -12.1872   26.5301 C   0  0  0  0  0  0  0  0  0  0  0  0
    7.3011  -11.3923   26.8379 C   0  0  0  0  0  0  0  0  0  0  0  0
    8.5669  -11.9346   26.8192 C   0  0  0  0  0  0  0  0  0  0  0  0
    8.7835  -13.2517   26.4997 C   0  0  0  0  0  0  0  0  0  0  0  0
    7.7319  -14.0706   26.1870 C   0  0  0  0  0  0  0  0  0  0  0  0
   10.6448  -17.2111   24.2950 C   0  0  0  0  0  0  0  0  0  0  0  0
   10.3999  -18.4279   24.0133 O   0  0  0  0  0  0  0  0  0  0  0  0
   15.2879  -19.1357   22.3473 N   0  0  0  0  0  0  0  0  0  0  0  0
   15.3212  -17.9281   23.0842 C   0  0  0  0  0  0  0  0  0  0  0  0
   16.4248  -17.5406   23.5360 O   0  0  0  0  0  0  0  0  0  0  0  0
   14.1228  -17.1070   23.3447 C   0  0  0  0  0  0  0  0  0  0  0  0
   13.0744  -17.8617   24.1757 C   0  0  2  0  0  0  0  0  0  0  0  0
   12.0219  -16.8906   24.4503 N   0  0  0  0  0  0  0  0  0  0  0  0
   13.6473  -18.4120   25.4173 C   0  0  0  0  0  0  0  0  0  0  0  0
   13.2877  -17.9792   26.6811 O   0  0  0  0  0  0  0  0  0  0  0  0
   14.5061  -19.3191   25.3387 O   0  0  0  0  0  0  0  0  0  0  0  0
  2  1  1  6
  2  3  1  0
  4  5  1  0
  4  2  1  0
  5  6  1  1
  7  5  1  0
  7  8  2  0
  9  7  1  0
 10  9  1  0
 10 11  1  1
 12 11  1  0
 13 12  2  0
 14 13  1  0
 15 14  1  0
 15 20  2  0
 16 15  1  0
 17 16  2  0
 17 18  1  0
 18 19  2  0
 19 20  1  0
 20 12  1  0
 21 10  1  0
 22 21  2  0
 23 24  1  0
 24 26  1  0
 24 25  2  0
 27 26  1  1
 27 28  1  0
 27 29  1  0
 28 21  1  0
 29 30  1  0
 31 29  2  0
M  END
$$$$
