LWN.pdb
     RDKit          3D

 31 32  0  0  1  0  0  0  0  0999 V2000
    8.4355  -14.0933   18.4259 C   0  0  0  0  0  0  0  0  0  0  0  0
    7.4823  -13.7693   19.5397 C   0  0  2  0  0  0  0  0  0  0  0  0
    7.0591  -12.3162   19.3544 C   0  0  0  0  0  0  0  0  0  0  0  0
    8.1685  -13.8646   20.8985 C   0  0  0  0  0  0  0  0  0  0  0  0
    8.6108  -15.2624   21.1814 C   0  0  2  0  0  0  0  0  0  0  0  0
    7.5429  -16.2231   21.1084 N   0  0  0  0  0  0  0  0  0  0  0  0
    9.3135  -15.2940   22.4883 C   0  0  0  0  0  0  0  0  0  0  0  0
   10.2165  -14.4434   22.6954 O   0  0  0  0  0  0  0  0  0  0  0  0
    9.0242  -16.2236   23.5075 N   0  0  0  0  0  0  0  0  0  0  0  0
    9.7285  -16.1943   24.7519 C   0  0  1  0  0  0  0  0  0  0  0  0
    8.8929  -16.2533   25.9804 C   0  0  0  0  0  0  0  0  0  0  0  0
    7.7463  -15.3379   26.0002 C   0  0  0  0  0  0  0  0  0  0  0  0
    6.4420  -15.6561   25.6818 C   0  0  0  0  0  0  0  0  0  0  0  0
    5.6644  -14.5730   25.7934 N   0  0  0  0  0  0  0  0  0  0  0  0
    6.4117  -13.5088   26.1852 C   0  0  0  0  0  0  0  0  0  0  0  0
    6.0832  -12.1982   26.4410 C   0  0  0  0  0  0  0  0  0  0  0  0
    7.0698  -11.3352   26.8372 C   0  0  0  0  0  0  0  0  0  0  0  0
    8.3586  -11.8026   26.9680 C   0  0  0  0  0  0  0  0  0  0  0  0
    8.6814  -13.1117   26.7112 C   0  0  0  0  0  0  0  0  0  0  0  0
    7.7168  -13.9977   26.3130 C   0  0  0  0  0  0  0  0  0  0  0  0
   10.8205  -17.2024   24.6949 C   0  0  0  0  0  0  0  0  0  0  0  0
   11.6621  -17.3073   25.6440 O   0  0  0  0  0  0  0  0  0  0  0  0
   15.7903  -18.4876   23.7390 N   0  0  0  0  0  0  0  0  0  0  0  0
   14.6198  -18.7656   22.9939 C   0  0  0  0  0  0  0  0  0  0  0  0
   14.6656  -19.6824   22.1399 O   0  0  0  0  0  0  0  0  0  0  0  0
   13.3532  -18.0299   23.1744 C   0  0  0  0  0  0  0  0  0  0  0  0
   12.1864  -18.9651   23.5255 C   0  0  2  0  0  0  0  0  0  0  0  0
   11.0113  -18.1062   23.6134 N   0  0  0  0  0  0  0  0  0  0  0  0
   12.4246  -19.6952   24.7835 C   0  0  0  0  0  0  0  0  0  0  0  0
   12.4372  -19.0893   26.0270 O   0  0  0  0  0  0  0  0  0  0  0  0
   12.6284  -20.9295   24.7388 O   0  0  0  0  0  0  0  0  0  0  0  0
  2  1  1  6
  2  3  1  0
  4  5  1  0
  4  2  1  0
  5  6  1  1
  7  5  1  0
  7  8  2  0
  9  7  1  0
 10  9  1  0
 10 11  1  1
 12 11  1  0
 13 12  2  0
 14 13  1  0
 15 14  1  0
 15 20  2  0
 16 15  1  0
 17 16  2  0
 17 18  1  0
 18 19  2  0
 19 20  1  0
 20 12  1  0
 21 10  1  0
 22 21  2  0
 23 24  1  0
 24 26  1  0
 24 25  2  0
 27 26  1  1
 27 28  1  0
 27 29  1  0
 28 21  1  0
 29 30  1  0
 31 29  2  0
M  END
$$$$
