IVP.pdb
     RDKit          3D

 23 23  0  0  1  0  0  0  0  0999 V2000
   20.3221  -20.7595  -12.6862 C   0  0  0  0  0  0  0  0  0  0  0  0
   21.3802  -19.8008  -12.2271 C   0  0  0  0  0  0  0  0  0  0  0  0
   22.3587  -20.4742  -11.3258 C   0  0  2  0  0  0  0  0  0  0  0  0
   22.1718  -20.0113   -9.9004 C   0  0  0  0  0  0  0  0  0  0  0  0
   23.7781  -20.4456  -11.7677 C   0  0  2  0  0  0  0  0  0  0  0  0
   23.8548  -21.1698  -13.0506 N   0  0  0  0  0  0  0  0  0  0  0  0
   24.7530  -21.0659  -10.8736 C   0  0  0  0  0  0  0  0  0  0  0  0
   24.7274  -22.3236  -10.5964 O   0  0  0  0  0  0  0  0  0  0  0  0
   27.9571  -22.2452  -11.1382 C   0  0  0  0  0  0  0  0  0  0  0  0
   28.0796  -21.2227  -10.0336 C   0  0  1  0  0  0  0  0  0  0  0  0
   28.7146  -19.9715  -10.6294 C   0  0  0  0  0  0  0  0  0  0  0  0
   26.7786  -20.9404   -9.3499 C   0  0  2  0  0  0  0  0  0  0  0  0
   25.7963  -20.3410  -10.2396 N   0  0  0  0  0  0  0  0  0  0  0  0
   26.9873  -20.0677   -8.1515 C   0  0  0  0  0  0  0  0  0  0  0  0
   26.7463  -18.8285   -8.2736 O   0  0  0  0  0  0  0  0  0  0  0  0
   27.4327  -20.5557   -6.9116 N   0  0  0  0  0  0  0  0  0  0  0  0
   27.7534  -21.9135   -6.5207 C   0  0  0  0  0  0  0  0  0  0  0  0
   27.4502  -21.9279   -5.0086 C   0  0  0  0  0  0  0  0  0  0  0  0
   28.0979  -20.6049   -4.6215 C   0  0  0  0  0  0  0  0  0  0  0  0
   27.6596  -19.6981   -5.7420 C   0  0  1  0  0  0  0  0  0  0  0  0
   28.6567  -18.6664   -6.0544 C   0  0  0  0  0  0  0  0  0  0  0  0
   29.2893  -18.6965   -7.1350 O   0  0  0  0  0  0  0  0  0  0  0  0
   28.8965  -17.6534   -5.1447 O   0  0  0  0  0  0  0  0  0  0  0  0
  2  1  1  0
  3  2  1  0
  3  4  1  1
  5  3  1  0
  5  7  1  0
  5  6  1  6
  7  8  2  0
 10 12  1  0
 10  9  1  6
 11 10  1  0
 12 14  1  0
 13  7  1  0
 12 13  1  6
 14 15  2  0
 16 14  1  0
 16 17  1  0
 17 18  1  0
 19 18  1  0
 20 19  1  0
 20 16  1  0
 20 21  1  6
 22 21  2  0
 23 21  1  0
M  END
$$$$
