IVP.pdb
     RDKit          3D

 23 23  0  0  1  0  0  0  0  0999 V2000
   27.4710  -21.7094  -15.1599 C   0  0  0  0  0  0  0  0  0  0  0  0
   28.6469  -21.4475  -14.2665 C   0  0  0  0  0  0  0  0  0  0  0  0
   28.2676  -20.5639  -13.1268 C   0  0  2  0  0  0  0  0  0  0  0  0
   29.2931  -20.6548  -12.0218 C   0  0  0  0  0  0  0  0  0  0  0  0
   26.8694  -20.6950  -12.6383 C   0  0  2  0  0  0  0  0  0  0  0  0
   25.9865  -20.1170  -13.6690 N   0  0  0  0  0  0  0  0  0  0  0  0
   26.5507  -20.0202  -11.3822 C   0  0  0  0  0  0  0  0  0  0  0  0
   26.1805  -18.7872  -11.3401 O   0  0  0  0  0  0  0  0  0  0  0  0
   23.8017  -19.8709   -9.7880 C   0  0  0  0  0  0  0  0  0  0  0  0
   24.6767  -20.3492   -8.6538 C   0  0  1  0  0  0  0  0  0  0  0  0
   24.3840  -21.8293   -8.4359 C   0  0  0  0  0  0  0  0  0  0  0  0
   26.1305  -20.0752   -8.8800 C   0  0  2  0  0  0  0  0  0  0  0  0
   26.6253  -20.6597  -10.1167 N   0  0  0  0  0  0  0  0  0  0  0  0
   26.9476  -20.5555   -7.7212 C   0  0  0  0  0  0  0  0  0  0  0  0
   27.0415  -21.8077   -7.5428 O   0  0  0  0  0  0  0  0  0  0  0  0
   27.6078  -19.6898   -6.8330 N   0  0  0  0  0  0  0  0  0  0  0  0
   27.6233  -18.2414   -6.8037 C   0  0  0  0  0  0  0  0  0  0  0  0
   28.9923  -17.9144   -6.1732 C   0  0  0  0  0  0  0  0  0  0  0  0
   28.9821  -18.9296   -5.0379 C   0  0  0  0  0  0  0  0  0  0  0  0
   28.4390  -20.1594   -5.7178 C   0  0  1  0  0  0  0  0  0  0  0  0
   27.6458  -21.0000   -4.8120 C   0  0  0  0  0  0  0  0  0  0  0  0
   26.4107  -21.1274   -4.9770 O   0  0  0  0  0  0  0  0  0  0  0  0
   28.2717  -21.6556   -3.7681 O   0  0  0  0  0  0  0  0  0  0  0  0
  2  1  1  0
  3  2  1  0
  3  4  1  1
  5  3  1  0
  5  7  1  0
  5  6  1  6
  7  8  2  0
 10 12  1  0
 10  9  1  6
 11 10  1  0
 12 14  1  0
 13  7  1  0
 12 13  1  6
 14 15  2  0
 16 14  1  0
 16 17  1  0
 17 18  1  0
 19 18  1  0
 20 19  1  0
 20 16  1  0
 20 21  1  1
 22 21  2  0
 23 21  1  0
M  END
$$$$
