IVP.pdb
     RDKit          3D

 23 23  0  0  1  0  0  0  0  0999 V2000
   12.7002  -14.5770  -13.4784 C   0  0  0  0  0  0  0  0  0  0  0  0
   13.8259  -13.9243  -14.2241 C   0  0  0  0  0  0  0  0  0  0  0  0
   14.5055  -12.9004  -13.3796 C   0  0  2  0  0  0  0  0  0  0  0  0
   13.4892  -12.0040  -12.7129 C   0  0  0  0  0  0  0  0  0  0  0  0
   15.6100  -12.1477  -14.0309 C   0  0  2  0  0  0  0  0  0  0  0  0
   16.6468  -13.1263  -14.4094 N   0  0  0  0  0  0  0  0  0  0  0  0
   16.2693  -11.1253  -13.2219 C   0  0  0  0  0  0  0  0  0  0  0  0
   17.0717  -11.4235  -12.2593 O   0  0  0  0  0  0  0  0  0  0  0  0
   17.1316   -7.3594  -14.7946 C   0  0  0  0  0  0  0  0  0  0  0  0
   17.7739   -7.9602  -13.5669 C   0  0  1  0  0  0  0  0  0  0  0  0
   18.4899   -6.8385  -12.8233 C   0  0  0  0  0  0  0  0  0  0  0  0
   16.8032   -8.6997  -12.7005 C   0  0  2  0  0  0  0  0  0  0  0  0
   16.0796   -9.7329  -13.4248 N   0  0  0  0  0  0  0  0  0  0  0  0
   15.8395   -7.7529  -12.0555 C   0  0  0  0  0  0  0  0  0  0  0  0
   14.9474   -7.2273  -12.7880 O   0  0  0  0  0  0  0  0  0  0  0  0
   15.8790   -7.4253  -10.6898 N   0  0  0  0  0  0  0  0  0  0  0  0
   16.7850   -7.8911   -9.6596 C   0  0  0  0  0  0  0  0  0  0  0  0
   15.9345   -7.8082   -8.3757 C   0  0  0  0  0  0  0  0  0  0  0  0
   15.3011   -6.4406   -8.5956 C   0  0  0  0  0  0  0  0  0  0  0  0
   14.9405   -6.4901  -10.0575 C   0  0  1  0  0  0  0  0  0  0  0  0
   15.0230   -5.1737  -10.7028 C   0  0  0  0  0  0  0  0  0  0  0  0
   14.1145   -4.3264  -10.5430 O   0  0  0  0  0  0  0  0  0  0  0  0
   16.1156   -4.8700  -11.4936 O   0  0  0  0  0  0  0  0  0  0  0  0
  2  1  1  0
  3  2  1  0
  3  4  1  6
  5  3  1  0
  5  7  1  0
  5  6  1  1
  7  8  2  0
 10 12  1  0
 10  9  1  6
 11 10  1  0
 12 14  1  0
 13  7  1  0
 12 13  1  6
 14 15  2  0
 16 14  1  0
 16 17  1  0
 17 18  1  0
 19 18  1  0
 20 19  1  0
 20 16  1  0
 20 21  1  6
 22 21  2  0
 23 21  1  0
M  END
$$$$
