IVP.pdb
     RDKit          3D

 23 23  0  0  1  0  0  0  0  0999 V2000
   16.1415  -13.4124  -20.0410 C   0  0  0  0  0  0  0  0  0  0  0  0
   17.4376  -14.0114  -19.5820 C   0  0  0  0  0  0  0  0  0  0  0  0
   18.0407  -13.2051  -18.4821 C   0  0  2  0  0  0  0  0  0  0  0  0
   18.1324  -11.7510  -18.8798 C   0  0  0  0  0  0  0  0  0  0  0  0
   19.3050  -13.7335  -17.9050 C   0  0  2  0  0  0  0  0  0  0  0  0
   19.0266  -15.0929  -17.4044 N   0  0  0  0  0  0  0  0  0  0  0  0
   19.8783  -12.9822  -16.7907 C   0  0  0  0  0  0  0  0  0  0  0  0
   19.3477  -12.9831  -15.6170 O   0  0  0  0  0  0  0  0  0  0  0  0
   23.7444  -10.7601  -14.6355 C   0  0  0  0  0  0  0  0  0  0  0  0
   23.1159  -11.6239  -15.7029 C   0  0  1  0  0  0  0  0  0  0  0  0
   23.5031  -13.0700  -15.4154 C   0  0  0  0  0  0  0  0  0  0  0  0
   21.6356  -11.4336  -15.8140 C   0  0  2  0  0  0  0  0  0  0  0  0
   21.0533  -12.1940  -16.9087 N   0  0  0  0  0  0  0  0  0  0  0  0
   21.2965   -9.9826  -15.9580 C   0  0  0  0  0  0  0  0  0  0  0  0
   21.6999   -9.3819  -16.9996 O   0  0  0  0  0  0  0  0  0  0  0  0
   20.5588   -9.2655  -15.0011 N   0  0  0  0  0  0  0  0  0  0  0  0
   19.9660   -9.7285  -13.7628 C   0  0  0  0  0  0  0  0  0  0  0  0
   18.7599   -8.7861  -13.5732 C   0  0  0  0  0  0  0  0  0  0  0  0
   19.4324   -7.4637  -13.9176 C   0  0  0  0  0  0  0  0  0  0  0  0
   20.2598   -7.8333  -15.1212 C   0  0  1  0  0  0  0  0  0  0  0  0
   21.5051   -7.0599  -15.2076 C   0  0  0  0  0  0  0  0  0  0  0  0
   22.6098   -7.6003  -14.9702 O   0  0  0  0  0  0  0  0  0  0  0  0
   21.4537   -5.7228  -15.5549 O   0  0  0  0  0  0  0  0  0  0  0  0
  2  1  1  0
  3  2  1  0
  3  4  1  6
  5  3  1  0
  5  7  1  0
  5  6  1  1
  7  8  2  0
 10 12  1  0
 10  9  1  1
 11 10  1  0
 12 14  1  0
 13  7  1  0
 12 13  1  6
 14 15  2  0
 16 14  1  0
 16 17  1  0
 17 18  1  0
 19 18  1  0
 20 19  1  0
 20 16  1  0
 20 21  1  1
 22 21  2  0
 23 21  1  0
M  END
$$$$
