IVP.pdb
     RDKit          3D

 23 23  0  0  1  0  0  0  0  0999 V2000
   24.2101  -22.1255   -7.2762 C   0  0  0  0  0  0  0  0  0  0  0  0
   24.1023  -21.9827   -8.7653 C   0  0  0  0  0  0  0  0  0  0  0  0
   24.1072  -20.5468   -9.1675 C   0  0  2  0  0  0  0  0  0  0  0  0
   22.8638  -20.2136   -9.9574 C   0  0  0  0  0  0  0  0  0  0  0  0
   25.3553  -20.0540   -9.8078 C   0  0  2  0  0  0  0  0  0  0  0  0
   25.5916  -20.8805  -11.0065 N   0  0  0  0  0  0  0  0  0  0  0  0
   26.5725  -20.1204   -9.0023 C   0  0  0  0  0  0  0  0  0  0  0  0
   27.5281  -20.9419   -9.2689 O   0  0  0  0  0  0  0  0  0  0  0  0
   28.8686  -17.0236   -8.2878 C   0  0  0  0  0  0  0  0  0  0  0  0
   28.4747  -17.7202   -7.0071 C   0  0  1  0  0  0  0  0  0  0  0  0
   27.3660  -16.9008   -6.3566 C   0  0  0  0  0  0  0  0  0  0  0  0
   28.0897  -19.1517   -7.2134 C   0  0  2  0  0  0  0  0  0  0  0  0
   26.7991  -19.2961   -7.8686 N   0  0  0  0  0  0  0  0  0  0  0  0
   28.0927  -19.8946   -5.9137 C   0  0  0  0  0  0  0  0  0  0  0  0
   26.9993  -19.9747   -5.2762 O   0  0  0  0  0  0  0  0  0  0  0  0
   29.2405  -20.5007   -5.3758 N   0  0  0  0  0  0  0  0  0  0  0  0
   30.5398  -20.7073   -5.9826 C   0  0  0  0  0  0  0  0  0  0  0  0
   31.0618  -21.9765   -5.2787 C   0  0  0  0  0  0  0  0  0  0  0  0
   30.6799  -21.6302   -3.8456 C   0  0  0  0  0  0  0  0  0  0  0  0
   29.2990  -21.0526   -4.0168 C   0  0  1  0  0  0  0  0  0  0  0  0
   28.9998  -20.0066   -3.0305 C   0  0  0  0  0  0  0  0  0  0  0  0
   28.9527  -18.8023   -3.3716 O   0  0  0  0  0  0  0  0  0  0  0  0
   28.7682  -20.3583   -1.7137 O   0  0  0  0  0  0  0  0  0  0  0  0
  2  1  1  0
  3  2  1  0
  3  4  1  6
  5  3  1  0
  5  7  1  0
  5  6  1  6
  7  8  2  0
 10 12  1  0
 10  9  1  6
 11 10  1  0
 12 14  1  0
 13  7  1  0
 12 13  1  1
 14 15  2  0
 16 14  1  0
 16 17  1  0
 17 18  1  0
 19 18  1  0
 20 19  1  0
 20 16  1  0
 20 21  1  1
 22 21  2  0
 23 21  1  0
M  END
$$$$
