IVP.pdb
     RDKit          3D

 23 23  0  0  1  0  0  0  0  0999 V2000
   21.9397  -20.9973  -12.6940 C   0  0  0  0  0  0  0  0  0  0  0  0
   22.8227  -19.9667  -12.0558 C   0  0  0  0  0  0  0  0  0  0  0  0
   23.8012  -20.6010  -11.1263 C   0  0  2  0  0  0  0  0  0  0  0  0
   23.6223  -20.0682   -9.7244 C   0  0  0  0  0  0  0  0  0  0  0  0
   25.2189  -20.6018  -11.5743 C   0  0  2  0  0  0  0  0  0  0  0  0
   25.3086  -21.4865  -12.7512 N   0  0  0  0  0  0  0  0  0  0  0  0
   26.2079  -21.0791  -10.6106 C   0  0  0  0  0  0  0  0  0  0  0  0
   26.2608  -22.3097  -10.2337 O   0  0  0  0  0  0  0  0  0  0  0  0
   30.5329  -21.0597   -8.4151 C   0  0  0  0  0  0  0  0  0  0  0  0
   29.5417  -20.6452   -9.4765 C   0  0  1  0  0  0  0  0  0  0  0  0
   29.7686  -21.5340  -10.6940 C   0  0  0  0  0  0  0  0  0  0  0  0
   28.1242  -20.6733   -8.9971 C   0  0  2  0  0  0  0  0  0  0  0  0
   27.1802  -20.2345  -10.0130 N   0  0  0  0  0  0  0  0  0  0  0  0
   27.9668  -19.8482   -7.7579 C   0  0  0  0  0  0  0  0  0  0  0  0
   27.6846  -18.6196   -7.8978 O   0  0  0  0  0  0  0  0  0  0  0  0
   28.1155  -20.3693   -6.4617 N   0  0  0  0  0  0  0  0  0  0  0  0
   28.4685  -21.7117   -6.0466 C   0  0  0  0  0  0  0  0  0  0  0  0
   27.7754  -21.8527   -4.6761 C   0  0  0  0  0  0  0  0  0  0  0  0
   28.1448  -20.5007   -4.0802 C   0  0  0  0  0  0  0  0  0  0  0  0
   27.9244  -19.5707   -5.2448 C   0  0  1  0  0  0  0  0  0  0  0  0
   28.8477  -18.4289   -5.2364 C   0  0  0  0  0  0  0  0  0  0  0  0
   28.6420  -17.4471   -4.4863 O   0  0  0  0  0  0  0  0  0  0  0  0
   29.9538  -18.4413   -6.0657 O   0  0  0  0  0  0  0  0  0  0  0  0
  2  1  1  0
  3  2  1  0
  3  4  1  1
  5  3  1  0
  5  7  1  0
  5  6  1  6
  7  8  2  0
 10 12  1  0
 10  9  1  1
 11 10  1  0
 12 14  1  0
 13  7  1  0
 12 13  1  6
 14 15  2  0
 16 14  1  0
 16 17  1  0
 17 18  1  0
 19 18  1  0
 20 19  1  0
 20 16  1  0
 20 21  1  1
 22 21  2  0
 23 21  1  0
M  END
$$$$
