IVP.pdb
     RDKit          3D

 23 23  0  0  1  0  0  0  0  0999 V2000
   18.9386  -21.8296  -15.3454 C   0  0  0  0  0  0  0  0  0  0  0  0
   18.9538  -20.5736  -14.5259 C   0  0  0  0  0  0  0  0  0  0  0  0
   20.3340  -20.0193  -14.4203 C   0  0  2  0  0  0  0  0  0  0  0  0
   20.8041  -19.5088  -15.7617 C   0  0  0  0  0  0  0  0  0  0  0  0
   21.3339  -20.8860  -13.7422 C   0  0  2  0  0  0  0  0  0  0  0  0
   20.8112  -21.1926  -12.3973 N   0  0  0  0  0  0  0  0  0  0  0  0
   22.6690  -20.3219  -13.5581 C   0  0  0  0  0  0  0  0  0  0  0  0
   22.9082  -19.0641  -13.6996 O   0  0  0  0  0  0  0  0  0  0  0  0
   25.0672  -20.5467  -10.5466 C   0  0  0  0  0  0  0  0  0  0  0  0
   25.7960  -21.0161  -11.7832 C   0  0  1  0  0  0  0  0  0  0  0  0
   25.9291  -22.5321  -11.6944 C   0  0  0  0  0  0  0  0  0  0  0  0
   25.1439  -20.5671  -13.0532 C   0  0  2  0  0  0  0  0  0  0  0  0
   23.8024  -21.1054  -13.2153 N   0  0  0  0  0  0  0  0  0  0  0  0
   25.9875  -20.9233  -14.2376 C   0  0  0  0  0  0  0  0  0  0  0  0
   25.8816  -22.0967  -14.7072 O   0  0  0  0  0  0  0  0  0  0  0  0
   26.8808  -20.0249  -14.8450 N   0  0  0  0  0  0  0  0  0  0  0  0
   27.1641  -18.6442  -14.5100 C   0  0  0  0  0  0  0  0  0  0  0  0
   27.5837  -18.0306  -15.8613 C   0  0  0  0  0  0  0  0  0  0  0  0
   28.5028  -19.1407  -16.3538 C   0  0  0  0  0  0  0  0  0  0  0  0
   27.7248  -20.3792  -15.9927 C   0  0  1  0  0  0  0  0  0  0  0  0
   28.5952  -21.5119  -15.6525 C   0  0  0  0  0  0  0  0  0  0  0  0
   28.7728  -21.8442  -14.4580 O   0  0  0  0  0  0  0  0  0  0  0  0
   29.2229  -22.2161  -16.6632 O   0  0  0  0  0  0  0  0  0  0  0  0
  2  1  1  0
  3  2  1  0
  3  4  1  6
  5  3  1  0
  5  7  1  0
  5  6  1  1
  7  8  2  0
 10 12  1  0
 10  9  1  1
 11 10  1  0
 12 14  1  0
 13  7  1  0
 12 13  1  6
 14 15  2  0
 16 14  1  0
 16 17  1  0
 17 18  1  0
 19 18  1  0
 20 19  1  0
 20 16  1  0
 20 21  1  1
 22 21  2  0
 23 21  1  0
M  END
$$$$
