IVP.pdb
     RDKit          3D

 23 23  0  0  1  0  0  0  0  0999 V2000
   28.8004  -19.4810  -15.8976 C   0  0  0  0  0  0  0  0  0  0  0  0
   27.8225  -20.3474  -15.1611 C   0  0  0  0  0  0  0  0  0  0  0  0
   27.5856  -19.8345  -13.7811 C   0  0  2  0  0  0  0  0  0  0  0  0
   28.8976  -19.5589  -13.0857 C   0  0  0  0  0  0  0  0  0  0  0  0
   26.6369  -20.6200  -12.9482 C   0  0  2  0  0  0  0  0  0  0  0  0
   25.3728  -20.7256  -13.7010 N   0  0  0  0  0  0  0  0  0  0  0  0
   26.3035  -20.0646  -11.6386 C   0  0  0  0  0  0  0  0  0  0  0  0
   25.7205  -18.9237  -11.5050 O   0  0  0  0  0  0  0  0  0  0  0  0
   24.0092  -20.6011   -7.6301 C   0  0  0  0  0  0  0  0  0  0  0  0
   24.6761  -21.0335   -8.9143 C   0  0  1  0  0  0  0  0  0  0  0  0
   23.6939  -20.7831  -10.0529 C   0  0  0  0  0  0  0  0  0  0  0  0
   26.0002  -20.3728   -9.1379 C   0  0  2  0  0  0  0  0  0  0  0  0
   26.5946  -20.7274  -10.4172 N   0  0  0  0  0  0  0  0  0  0  0  0
   26.9478  -20.6928   -8.0240 C   0  0  0  0  0  0  0  0  0  0  0  0
   27.2775  -21.9064   -7.8589 O   0  0  0  0  0  0  0  0  0  0  0  0
   27.4822  -19.7190   -7.1638 N   0  0  0  0  0  0  0  0  0  0  0  0
   27.2324  -18.2924   -7.1239 C   0  0  0  0  0  0  0  0  0  0  0  0
   28.5484  -17.7178   -6.5612 C   0  0  0  0  0  0  0  0  0  0  0  0
   28.7836  -18.7157   -5.4348 C   0  0  0  0  0  0  0  0  0  0  0  0
   28.4418  -20.0256   -6.0960 C   0  0  1  0  0  0  0  0  0  0  0  0
   27.8645  -20.9964   -5.1577 C   0  0  0  0  0  0  0  0  0  0  0  0
   26.6434  -21.2724   -5.1957 O   0  0  0  0  0  0  0  0  0  0  0  0
   28.6798  -21.6098   -4.2248 O   0  0  0  0  0  0  0  0  0  0  0  0
  2  1  1  0
  3  2  1  0
  3  4  1  1
  5  3  1  0
  5  7  1  0
  5  6  1  6
  7  8  2  0
 10 12  1  0
 10  9  1  1
 11 10  1  0
 12 14  1  0
 13  7  1  0
 12 13  1  6
 14 15  2  0
 16 14  1  0
 16 17  1  0
 17 18  1  0
 19 18  1  0
 20 19  1  0
 20 16  1  0
 20 21  1  1
 22 21  2  0
 23 21  1  0
M  END
$$$$
