IVP.pdb
     RDKit          3D

 23 23  0  0  1  0  0  0  0  0999 V2000
   23.3475  -40.0554  -10.0722 C   0  0  0  0  0  0  0  0  0  0  0  0
   23.3224  -38.6455  -10.5830 C   0  0  0  0  0  0  0  0  0  0  0  0
   24.3589  -37.8126   -9.9081 C   0  0  2  0  0  0  0  0  0  0  0  0
   24.2966  -37.9997   -8.4107 C   0  0  0  0  0  0  0  0  0  0  0  0
   24.4136  -36.3839  -10.3163 C   0  0  2  0  0  0  0  0  0  0  0  0
   24.7828  -36.3474  -11.7440 N   0  0  0  0  0  0  0  0  0  0  0  0
   25.3741  -35.5393   -9.6099 C   0  0  0  0  0  0  0  0  0  0  0  0
   26.6027  -35.4371   -9.9828 O   0  0  0  0  0  0  0  0  0  0  0  0
   25.6680  -31.8644   -9.1937 C   0  0  0  0  0  0  0  0  0  0  0  0
   25.5636  -32.4633   -7.8113 C   0  0  1  0  0  0  0  0  0  0  0  0
   24.1396  -32.2382   -7.3158 C   0  0  0  0  0  0  0  0  0  0  0  0
   25.9706  -33.9027   -7.7643 C   0  0  2  0  0  0  0  0  0  0  0  0
   25.0374  -34.7722   -8.4635 N   0  0  0  0  0  0  0  0  0  0  0  0
   26.1385  -34.3607   -6.3490 C   0  0  0  0  0  0  0  0  0  0  0  0
   25.0915  -34.5192   -5.6509 O   0  0  0  0  0  0  0  0  0  0  0  0
   27.3907  -34.6203   -5.7669 N   0  0  0  0  0  0  0  0  0  0  0  0
   28.7140  -34.5019   -6.3447 C   0  0  0  0  0  0  0  0  0  0  0  0
   29.5324  -35.5587   -5.5752 C   0  0  0  0  0  0  0  0  0  0  0  0
   29.0357  -35.2669   -4.1653 C   0  0  0  0  0  0  0  0  0  0  0  0
   27.5566  -35.0811   -4.3831 C   0  0  1  0  0  0  0  0  0  0  0  0
   26.9675  -34.1114   -3.4508 C   0  0  0  0  0  0  0  0  0  0  0  0
   26.5148  -33.0200   -3.8666 O   0  0  0  0  0  0  0  0  0  0  0  0
   26.9136  -34.4095   -2.1020 O   0  0  0  0  0  0  0  0  0  0  0  0
  2  1  1  0
  3  2  1  0
  3  4  1  1
  5  3  1  0
  5  7  1  0
  5  6  1  6
  7  8  2  0
 10 12  1  0
 10  9  1  6
 11 10  1  0
 12 14  1  0
 13  7  1  0
 12 13  1  1
 14 15  2  0
 16 14  1  0
 16 17  1  0
 17 18  1  0
 19 18  1  0
 20 19  1  0
 20 16  1  0
 20 21  1  1
 22 21  2  0
 23 21  1  0
M  END
$$$$
