IVP.pdb
     RDKit          3D

 23 23  0  0  1  0  0  0  0  0999 V2000
   16.1466  -13.8568  -19.3424 C   0  0  0  0  0  0  0  0  0  0  0  0
   17.5878  -14.1035  -19.0090 C   0  0  0  0  0  0  0  0  0  0  0  0
   18.0219  -13.2650  -17.8548 C   0  0  2  0  0  0  0  0  0  0  0  0
   17.6078  -11.8270  -18.0592 C   0  0  0  0  0  0  0  0  0  0  0  0
   19.4429  -13.4105  -17.4421 C   0  0  2  0  0  0  0  0  0  0  0  0
   19.6730  -14.8380  -17.1502 N   0  0  0  0  0  0  0  0  0  0  0  0
   19.8580  -12.6646  -16.2563 C   0  0  0  0  0  0  0  0  0  0  0  0
   19.4559  -12.9772  -15.0731 O   0  0  0  0  0  0  0  0  0  0  0  0
   23.1889  -12.2382  -14.6788 C   0  0  0  0  0  0  0  0  0  0  0  0
   22.6663  -10.8516  -14.9699 C   0  0  1  0  0  0  0  0  0  0  0  0
   23.4115  -10.3229  -16.1901 C   0  0  0  0  0  0  0  0  0  0  0  0
   21.1797  -10.8092  -15.1379 C   0  0  2  0  0  0  0  0  0  0  0  0
   20.7269  -11.5429  -16.3094 N   0  0  0  0  0  0  0  0  0  0  0  0
   20.6925   -9.3948  -15.1969 C   0  0  0  0  0  0  0  0  0  0  0  0
   20.9103   -8.7385  -16.2601 O   0  0  0  0  0  0  0  0  0  0  0  0
   20.0118   -8.7700  -14.1384 N   0  0  0  0  0  0  0  0  0  0  0  0
   19.6315   -9.3065  -12.8475 C   0  0  0  0  0  0  0  0  0  0  0  0
   18.3683   -8.4987  -12.4862 C   0  0  0  0  0  0  0  0  0  0  0  0
   18.8517   -7.1090  -12.8797 C   0  0  0  0  0  0  0  0  0  0  0  0
   19.5538   -7.3761  -14.1856 C   0  0  1  0  0  0  0  0  0  0  0  0
   20.6917   -6.4749  -14.4080 C   0  0  0  0  0  0  0  0  0  0  0  0
   20.5086   -5.3033  -14.8113 O   0  0  0  0  0  0  0  0  0  0  0  0
   21.9758   -6.9274  -14.1685 O   0  0  0  0  0  0  0  0  0  0  0  0
  2  1  1  0
  3  2  1  0
  3  4  1  6
  5  3  1  0
  5  7  1  0
  5  6  1  1
  7  8  2  0
 10 12  1  0
 10  9  1  6
 11 10  1  0
 12 14  1  0
 13  7  1  0
 12 13  1  6
 14 15  2  0
 16 14  1  0
 16 17  1  0
 17 18  1  0
 19 18  1  0
 20 19  1  0
 20 16  1  0
 20 21  1  1
 22 21  2  0
 23 21  1  0
M  END
$$$$
