IVP.pdb
     RDKit          3D

 23 23  0  0  1  0  0  0  0  0999 V2000
   18.8413  -20.0389  -17.7916 C   0  0  0  0  0  0  0  0  0  0  0  0
   19.4856  -19.0188  -16.9007 C   0  0  0  0  0  0  0  0  0  0  0  0
   20.7468  -19.5471  -16.3059 C   0  0  2  0  0  0  0  0  0  0  0  0
   20.6899  -19.4808  -14.7981 C   0  0  0  0  0  0  0  0  0  0  0  0
   22.0106  -19.0006  -16.8672 C   0  0  2  0  0  0  0  0  0  0  0  0
   22.0991  -19.4475  -18.2701 N   0  0  0  0  0  0  0  0  0  0  0  0
   23.2491  -19.4159  -16.2126 C   0  0  0  0  0  0  0  0  0  0  0  0
   23.7053  -20.6169  -16.3057 O   0  0  0  0  0  0  0  0  0  0  0  0
   27.5572  -18.1992  -14.0118 C   0  0  0  0  0  0  0  0  0  0  0  0
   26.3004  -17.8340  -14.7654 C   0  0  1  0  0  0  0  0  0  0  0  0
   26.7111  -17.4015  -16.1683 C   0  0  0  0  0  0  0  0  0  0  0  0
   25.2829  -18.9316  -14.7741 C   0  0  2  0  0  0  0  0  0  0  0  0
   24.0422  -18.5405  -15.4249 N   0  0  0  0  0  0  0  0  0  0  0  0
   25.0056  -19.4091  -13.3827 C   0  0  0  0  0  0  0  0  0  0  0  0
   24.3177  -18.6585  -12.6263 O   0  0  0  0  0  0  0  0  0  0  0  0
   25.4680  -20.6385  -12.8838 N   0  0  0  0  0  0  0  0  0  0  0  0
   26.1688  -21.7035  -13.5721 C   0  0  0  0  0  0  0  0  0  0  0  0
   25.7488  -22.9660  -12.7919 C   0  0  0  0  0  0  0  0  0  0  0  0
   25.9009  -22.4330  -11.3733 C   0  0  0  0  0  0  0  0  0  0  0  0
   25.3003  -21.0560  -11.4865 C   0  0  1  0  0  0  0  0  0  0  0  0
   25.9392  -20.0871  -10.5867 C   0  0  0  0  0  0  0  0  0  0  0  0
   26.8026  -19.2887  -11.0179 O   0  0  0  0  0  0  0  0  0  0  0  0
   25.5816  -20.0589   -9.2516 O   0  0  0  0  0  0  0  0  0  0  0  0
  2  1  1  0
  3  2  1  0
  3  4  1  1
  5  3  1  0
  5  7  1  0
  5  6  1  6
  7  8  2  0
 10 12  1  0
 10  9  1  1
 11 10  1  0
 12 14  1  0
 13  7  1  0
 12 13  1  1
 14 15  2  0
 16 14  1  0
 16 17  1  0
 17 18  1  0
 19 18  1  0
 20 19  1  0
 20 16  1  0
 20 21  1  1
 22 21  2  0
 23 21  1  0
M  END
$$$$
