IVP.pdb
     RDKit          3D

 23 23  0  0  1  0  0  0  0  0999 V2000
   27.5332  -16.1133  -15.8769 C   0  0  0  0  0  0  0  0  0  0  0  0
   26.0696  -16.3656  -15.6680 C   0  0  0  0  0  0  0  0  0  0  0  0
   25.2709  -15.1338  -15.9292 C   0  0  2  0  0  0  0  0  0  0  0  0
   25.7625  -13.9918  -15.0717 C   0  0  0  0  0  0  0  0  0  0  0  0
   23.7933  -15.2961  -15.8946 C   0  0  2  0  0  0  0  0  0  0  0  0
   23.4615  -16.4835  -16.7045 N   0  0  0  0  0  0  0  0  0  0  0  0
   23.0022  -14.1883  -16.4252 C   0  0  0  0  0  0  0  0  0  0  0  0
   23.0431  -13.8485  -17.6670 O   0  0  0  0  0  0  0  0  0  0  0  0
   18.9843  -11.4609  -16.4950 C   0  0  0  0  0  0  0  0  0  0  0  0
   19.8554  -12.6413  -16.1363 C   0  0  1  0  0  0  0  0  0  0  0  0
   19.5065  -13.7800  -17.0878 C   0  0  0  0  0  0  0  0  0  0  0  0
   21.3157  -12.3138  -16.1386 C   0  0  2  0  0  0  0  0  0  0  0  0
   22.1346  -13.4001  -15.6239 N   0  0  0  0  0  0  0  0  0  0  0  0
   21.5794  -11.0597  -15.3646 C   0  0  0  0  0  0  0  0  0  0  0  0
   21.4127  -11.0947  -14.1078 O   0  0  0  0  0  0  0  0  0  0  0  0
   21.9993   -9.8596  -15.9625 N   0  0  0  0  0  0  0  0  0  0  0  0
   22.2391   -9.5651  -17.3607 C   0  0  0  0  0  0  0  0  0  0  0  0
   23.3147   -8.4609  -17.3108 C   0  0  0  0  0  0  0  0  0  0  0  0
   22.7230   -7.5996  -16.2029 C   0  0  0  0  0  0  0  0  0  0  0  0
   22.2745   -8.6337  -15.2033 C   0  0  1  0  0  0  0  0  0  0  0  0
   21.0785   -8.2173  -14.4601 C   0  0  0  0  0  0  0  0  0  0  0  0
   19.9372   -8.5671  -14.8396 O   0  0  0  0  0  0  0  0  0  0  0  0
   21.2174   -7.4317  -13.3310 O   0  0  0  0  0  0  0  0  0  0  0  0
  2  1  1  0
  3  2  1  0
  3  4  1  1
  5  3  1  0
  5  7  1  0
  5  6  1  6
  7  8  2  0
 10 12  1  0
 10  9  1  6
 11 10  1  0
 12 14  1  0
 13  7  1  0
 12 13  1  1
 14 15  2  0
 16 14  1  0
 16 17  1  0
 17 18  1  0
 19 18  1  0
 20 19  1  0
 20 16  1  0
 20 21  1  6
 22 21  2  0
 23 21  1  0
M  END
$$$$
