ILE.pdb
     RDKit          3D

 26 25  0  0  1  0  0  0  0  0999 V2000
    8.0789  -11.7617   20.0507 C   0  0  0  0  0  0  0  0  0  0  0  0
    7.9014  -12.9884   20.8792 C   0  0  0  0  0  0  0  0  0  0  0  0
    8.5343  -14.2316   20.3364 C   0  0  2  0  0  0  0  0  0  0  0  0
    8.0142  -14.5990   18.9557 C   0  0  0  0  0  0  0  0  0  0  0  0
    8.2414  -15.4482   21.2017 C   0  0  2  0  0  0  0  0  0  0  0  0
    6.7889  -15.6040   21.1868 N   0  0  0  0  0  0  0  0  0  0  0  0
    8.7006  -15.2561   22.5910 C   0  0  0  0  0  0  0  0  0  0  0  0
    9.9490  -15.1963   22.7833 O   0  0  0  0  0  0  0  0  0  0  0  0
    5.8500  -12.5207   26.6482 C   0  0  0  0  0  0  0  0  0  0  0  0
    7.0518  -12.8241   25.6965 C   0  0  1  0  0  0  0  0  0  0  0  0
    8.1427  -11.9311   26.2047 C   0  0  0  0  0  0  0  0  0  0  0  0
    7.2619  -14.2711   25.8030 C   0  0  0  0  0  0  0  0  0  0  0  0
    8.3427  -14.9718   25.0922 C   0  0  2  0  0  0  0  0  0  0  0  0
    7.8194  -15.1384   23.6906 N   0  0  0  0  0  0  0  0  0  0  0  0
    8.8691  -16.2273   25.5539 C   0  0  0  0  0  0  0  0  0  0  0  0
    8.0258  -17.1600   25.8234 O   0  0  0  0  0  0  0  0  0  0  0  0
   10.2260  -16.5883   25.7464 N   0  0  0  0  0  0  0  0  0  0  0  0
   10.5839  -17.9661   26.1191 C   0  0  1  0  0  0  0  0  0  0  0  0
   11.9270  -18.3140   25.4883 C   0  0  0  0  0  0  0  0  0  0  0  0
   12.3843  -19.7080   25.7968 C   0  0  0  0  0  0  0  0  0  0  0  0
   13.3927  -20.0970   24.7817 C   0  0  0  0  0  0  0  0  0  0  0  0
   14.4957  -19.5273   24.7175 O   0  0  0  0  0  0  0  0  0  0  0  0
   10.5542  -18.1205   27.5714 C   0  0  0  0  0  0  0  0  0  0  0  0
   10.7604  -17.0873   28.4724 O   0  0  0  0  0  0  0  0  0  0  0  0
   13.0874  -21.1134   23.8979 O   0  0  0  0  0  0  0  0  0  0  0  0
   10.3301  -19.2540   28.0670 O   0  0  0  0  0  0  0  0  0  0  0  0
  2  3  1  0
  2  1  1  0
  3  4  1  6
  5  6  1  1
  5  3  1  0
  7  5  1  0
  8  7  2  0
 10 12  1  0
 10  9  1  1
 11 10  1  0
 13 12  1  1
 13 15  1  0
 13 14  1  0
 14  7  1  0
 15 16  2  0
 17 18  1  0
 17 15  1  0
 19 20  1  0
 18 19  1  1
 20 21  1  0
 21 25  1  0
 21 22  2  0
 23 24  1  0
 23 18  1  0
 26 23  2  0
M  END
$$$$
