ILE.pdb
     RDKit          3D

 26 25  0  0  1  0  0  0  0  0999 V2000
    7.8167  -18.4760   19.3146 C   0  0  0  0  0  0  0  0  0  0  0  0
    7.5002  -17.0950   19.7786 C   0  0  0  0  0  0  0  0  0  0  0  0
    8.1667  -16.6723   21.0505 C   0  0  2  0  0  0  0  0  0  0  0  0
    7.9015  -17.6333   22.1984 C   0  0  0  0  0  0  0  0  0  0  0  0
    7.6595  -15.3250   21.5426 C   0  0  2  0  0  0  0  0  0  0  0  0
    7.9325  -14.3805   20.4620 N   0  0  0  0  0  0  0  0  0  0  0  0
    8.3609  -14.8885   22.7655 C   0  0  0  0  0  0  0  0  0  0  0  0
    9.5804  -14.5746   22.6506 O   0  0  0  0  0  0  0  0  0  0  0  0
    5.7854  -12.0917   26.7894 C   0  0  0  0  0  0  0  0  0  0  0  0
    6.8242  -12.3903   25.6608 C   0  0  1  0  0  0  0  0  0  0  0  0
    7.6833  -11.1628   25.6337 C   0  0  0  0  0  0  0  0  0  0  0  0
    7.4617  -13.6495   26.0580 C   0  0  0  0  0  0  0  0  0  0  0  0
    8.4875  -14.3139   25.2391 C   0  0  2  0  0  0  0  0  0  0  0  0
    7.7368  -14.8089   24.0318 N   0  0  0  0  0  0  0  0  0  0  0  0
    9.3051  -15.3766   25.7574 C   0  0  0  0  0  0  0  0  0  0  0  0
   10.0249  -15.1197   26.7916 O   0  0  0  0  0  0  0  0  0  0  0  0
    9.4194  -16.7051   25.2771 N   0  0  0  0  0  0  0  0  0  0  0  0
   10.3428  -17.6525   25.9213 C   0  0  1  0  0  0  0  0  0  0  0  0
    9.8798  -19.0731   25.6211 C   0  0  0  0  0  0  0  0  0  0  0  0
   10.3099  -19.5650   24.2718 C   0  0  0  0  0  0  0  0  0  0  0  0
   10.0551  -21.0244   24.2110 C   0  0  0  0  0  0  0  0  0  0  0  0
    9.5306  -21.6274   25.1632 O   0  0  0  0  0  0  0  0  0  0  0  0
   11.7171  -17.3781   25.5089 C   0  0  0  0  0  0  0  0  0  0  0  0
   12.8327  -18.0125   26.0331 O   0  0  0  0  0  0  0  0  0  0  0  0
   10.4114  -21.7137   23.0685 O   0  0  0  0  0  0  0  0  0  0  0  0
   11.9344  -16.5136   24.6223 O   0  0  0  0  0  0  0  0  0  0  0  0
  2  3  1  0
  2  1  1  0
  3  4  1  1
  5  6  1  6
  5  3  1  0
  7  5  1  0
  8  7  2  0
 10 12  1  0
 10  9  1  1
 11 10  1  0
 13 12  1  1
 13 15  1  0
 13 14  1  0
 14  7  1  0
 15 16  2  0
 17 18  1  0
 17 15  1  0
 19 20  1  0
 18 19  1  6
 20 21  1  0
 21 25  1  0
 21 22  2  0
 23 24  1  0
 23 18  1  0
 26 23  2  0
M  END
$$$$
