ILE.pdb
     RDKit          3D

 26 25  0  0  1  0  0  0  0  0999 V2000
    7.3137  -12.7013   18.7867 C   0  0  0  0  0  0  0  0  0  0  0  0
    7.3530  -13.8981   19.6747 C   0  0  0  0  0  0  0  0  0  0  0  0
    8.0269  -13.7000   20.9965 C   0  0  2  0  0  0  0  0  0  0  0  0
    9.4664  -13.2311   20.8558 C   0  0  0  0  0  0  0  0  0  0  0  0
    8.1123  -14.9920   21.7953 C   0  0  2  0  0  0  0  0  0  0  0  0
    6.7800  -15.5875   21.7283 N   0  0  0  0  0  0  0  0  0  0  0  0
    8.4683  -14.7421   23.2055 C   0  0  0  0  0  0  0  0  0  0  0  0
    9.6474  -14.3521   23.4429 O   0  0  0  0  0  0  0  0  0  0  0  0
    5.3831  -12.2809   26.8947 C   0  0  0  0  0  0  0  0  0  0  0  0
    6.6404  -12.6348   26.0369 C   0  0  1  0  0  0  0  0  0  0  0  0
    7.6490  -11.6026   26.4406 C   0  0  0  0  0  0  0  0  0  0  0  0
    6.9395  -14.0324   26.3642 C   0  0  0  0  0  0  0  0  0  0  0  0
    8.0162  -14.7896   25.7072 C   0  0  2  0  0  0  0  0  0  0  0  0
    7.5628  -14.9169   24.2775 N   0  0  0  0  0  0  0  0  0  0  0  0
    8.4436  -16.0762   26.1853 C   0  0  0  0  0  0  0  0  0  0  0  0
    8.4142  -16.2759   27.4553 O   0  0  0  0  0  0  0  0  0  0  0  0
    8.8936  -17.1852   25.4263 N   0  0  0  0  0  0  0  0  0  0  0  0
    9.2795  -18.4377   26.0954 C   0  0  1  0  0  0  0  0  0  0  0  0
    8.4922  -19.5881   25.4795 C   0  0  0  0  0  0  0  0  0  0  0  0
    7.0126  -19.4766   25.6933 C   0  0  0  0  0  0  0  0  0  0  0  0
    6.3577  -20.5956   24.9740 C   0  0  0  0  0  0  0  0  0  0  0  0
    6.5979  -21.7793   25.2680 O   0  0  0  0  0  0  0  0  0  0  0  0
   10.7284  -18.6148   26.0393 C   0  0  0  0  0  0  0  0  0  0  0  0
   11.5912  -17.7869   25.3380 O   0  0  0  0  0  0  0  0  0  0  0  0
    5.4658  -20.3024   23.9611 O   0  0  0  0  0  0  0  0  0  0  0  0
   11.2573  -19.5735   26.6571 O   0  0  0  0  0  0  0  0  0  0  0  0
  2  3  1  0
  2  1  1  0
  3  4  1  6
  5  6  1  1
  5  3  1  0
  7  5  1  0
  8  7  2  0
 10 12  1  0
 10  9  1  1
 11 10  1  0
 13 12  1  1
 13 15  1  0
 13 14  1  0
 14  7  1  0
 15 16  2  0
 17 18  1  0
 17 15  1  0
 19 20  1  0
 18 19  1  6
 20 21  1  0
 21 25  1  0
 21 22  2  0
 23 24  1  0
 23 18  1  0
 26 23  2  0
M  END
$$$$
