ILE.pdb
     RDKit          3D

 26 25  0  0  1  0  0  0  0  0999 V2000
    9.2495  -19.5964   21.6016 C   0  0  0  0  0  0  0  0  0  0  0  0
    9.3783  -18.1131   21.5241 C   0  0  0  0  0  0  0  0  0  0  0  0
    8.1278  -17.3741   21.1625 C   0  0  2  0  0  0  0  0  0  0  0  0
    7.5894  -17.7671   19.7960 C   0  0  0  0  0  0  0  0  0  0  0  0
    8.3547  -15.8721   21.0768 C   0  0  2  0  0  0  0  0  0  0  0  0
    9.4529  -15.6911   20.1308 N   0  0  0  0  0  0  0  0  0  0  0  0
    8.7323  -15.2994   22.3834 C   0  0  0  0  0  0  0  0  0  0  0  0
    9.9640  -15.2743   22.6685 O   0  0  0  0  0  0  0  0  0  0  0  0
    8.1593  -11.6000   26.2986 C   0  0  0  0  0  0  0  0  0  0  0  0
    7.0573  -12.7065   26.3571 C   0  0  1  0  0  0  0  0  0  0  0  0
    5.8101  -11.9493   26.6990 C   0  0  0  0  0  0  0  0  0  0  0  0
    7.1095  -13.3610   25.0462 C   0  0  0  0  0  0  0  0  0  0  0  0
    8.2326  -14.2144   24.6280 C   0  0  2  0  0  0  0  0  0  0  0  0
    7.7922  -14.7884   23.3080 N   0  0  0  0  0  0  0  0  0  0  0  0
    8.7363  -15.2724   25.4606 C   0  0  0  0  0  0  0  0  0  0  0  0
    7.9517  -16.2631   25.6991 O   0  0  0  0  0  0  0  0  0  0  0  0
   10.0162  -15.3790   26.0597 N   0  0  0  0  0  0  0  0  0  0  0  0
   10.3534  -16.5443   26.8926 C   0  0  1  0  0  0  0  0  0  0  0  0
   11.6938  -17.1063   26.4341 C   0  0  0  0  0  0  0  0  0  0  0  0
   11.8032  -17.2405   24.9450 C   0  0  0  0  0  0  0  0  0  0  0  0
   13.1394  -17.8008   24.6300 C   0  0  0  0  0  0  0  0  0  0  0  0
   13.2599  -18.8570   23.9857 O   0  0  0  0  0  0  0  0  0  0  0  0
   10.3161  -16.1819   28.3073 C   0  0  0  0  0  0  0  0  0  0  0  0
   10.0453  -14.9078   28.7817 O   0  0  0  0  0  0  0  0  0  0  0  0
   14.2623  -17.1254   25.0662 O   0  0  0  0  0  0  0  0  0  0  0  0
   10.5415  -17.0624   29.1760 O   0  0  0  0  0  0  0  0  0  0  0  0
  2  3  1  0
  2  1  1  0
  3  4  1  6
  5  6  1  6
  5  3  1  0
  7  5  1  0
  8  7  2  0
 10 12  1  0
 10  9  1  6
 11 10  1  0
 13 12  1  1
 13 15  1  0
 13 14  1  0
 14  7  1  0
 15 16  2  0
 17 18  1  0
 17 15  1  0
 19 20  1  0
 18 19  1  6
 20 21  1  0
 21 25  1  0
 21 22  2  0
 23 24  1  0
 23 18  1  0
 26 23  2  0
M  END
$$$$
