ILE.pdb
     RDKit          3D

 26 25  0  0  1  0  0  0  0  0999 V2000
    7.3850  -12.2038   18.8171 C   0  0  0  0  0  0  0  0  0  0  0  0
    7.3830  -13.5001   19.5534 C   0  0  0  0  0  0  0  0  0  0  0  0
    8.0162  -13.4737   20.9095 C   0  0  2  0  0  0  0  0  0  0  0  0
    9.4294  -12.9133   20.8855 C   0  0  0  0  0  0  0  0  0  0  0  0
    8.1577  -14.8675   21.5028 C   0  0  2  0  0  0  0  0  0  0  0  0
    6.8288  -15.4687   21.4223 N   0  0  0  0  0  0  0  0  0  0  0  0
    8.5916  -14.8216   22.9126 C   0  0  0  0  0  0  0  0  0  0  0  0
    9.7945  -14.5022   23.1363 O   0  0  0  0  0  0  0  0  0  0  0  0
    5.7219  -12.4319   26.7885 C   0  0  0  0  0  0  0  0  0  0  0  0
    6.9777  -12.7903   25.9303 C   0  0  1  0  0  0  0  0  0  0  0  0
    8.0506  -11.9001   26.4799 C   0  0  0  0  0  0  0  0  0  0  0  0
    7.1505  -14.2364   26.0997 C   0  0  0  0  0  0  0  0  0  0  0  0
    8.2128  -14.9948   25.4209 C   0  0  2  0  0  0  0  0  0  0  0  0
    7.7344  -15.1137   23.9986 N   0  0  0  0  0  0  0  0  0  0  0  0
    8.6432  -16.2852   25.8856 C   0  0  0  0  0  0  0  0  0  0  0  0
    9.0410  -16.3732   27.1054 O   0  0  0  0  0  0  0  0  0  0  0  0
    8.6785  -17.5060   25.1665 N   0  0  0  0  0  0  0  0  0  0  0  0
    9.9133  -18.3047   25.1163 C   0  0  1  0  0  0  0  0  0  0  0  0
   10.7522  -17.8411   23.9314 C   0  0  0  0  0  0  0  0  0  0  0  0
   12.0965  -18.5009   23.8615 C   0  0  0  0  0  0  0  0  0  0  0  0
   12.7053  -18.1679   22.5511 C   0  0  0  0  0  0  0  0  0  0  0  0
   13.8148  -18.6216   22.2219 O   0  0  0  0  0  0  0  0  0  0  0  0
   10.6110  -18.2375   26.3981 C   0  0  0  0  0  0  0  0  0  0  0  0
   11.1067  -17.0705   26.9587 O   0  0  0  0  0  0  0  0  0  0  0  0
   12.0150  -17.3377   21.6900 O   0  0  0  0  0  0  0  0  0  0  0  0
   10.7898  -19.2916   27.0594 O   0  0  0  0  0  0  0  0  0  0  0  0
  2  3  1  0
  2  1  1  0
  3  4  1  6
  5  6  1  1
  5  3  1  0
  7  5  1  0
  8  7  2  0
 10 12  1  0
 10  9  1  1
 11 10  1  0
 13 12  1  1
 13 15  1  0
 13 14  1  0
 14  7  1  0
 15 16  2  0
 17 18  1  0
 17 15  1  0
 19 20  1  0
 18 19  1  6
 20 21  1  0
 21 25  1  0
 21 22  2  0
 23 24  1  0
 23 18  1  0
 26 23  2  0
M  END
$$$$
