ILE.pdb
     RDKit          3D

 26 25  0  0  1  0  0  0  0  0999 V2000
    8.0526  -12.1428   19.2057 C   0  0  0  0  0  0  0  0  0  0  0  0
    8.6393  -13.4053   19.7390 C   0  0  0  0  0  0  0  0  0  0  0  0
    7.6540  -14.4129   20.2435 C   0  0  2  0  0  0  0  0  0  0  0  0
    6.6316  -13.8083   21.1926 C   0  0  0  0  0  0  0  0  0  0  0  0
    8.3250  -15.5192   21.0439 C   0  0  2  0  0  0  0  0  0  0  0  0
    7.2704  -16.4836   21.3472 N   0  0  0  0  0  0  0  0  0  0  0  0
    8.9032  -15.0114   22.3031 C   0  0  0  0  0  0  0  0  0  0  0  0
   10.0378  -14.4572   22.2352 O   0  0  0  0  0  0  0  0  0  0  0  0
    5.7837  -13.1241   26.6301 C   0  0  0  0  0  0  0  0  0  0  0  0
    6.9761  -12.9384   25.6373 C   0  0  1  0  0  0  0  0  0  0  0  0
    7.7055  -11.7452   26.1760 C   0  0  0  0  0  0  0  0  0  0  0  0
    7.6832  -14.2227   25.6520 C   0  0  0  0  0  0  0  0  0  0  0  0
    8.8449  -14.5003   24.7932 C   0  0  2  0  0  0  0  0  0  0  0  0
    8.2528  -15.1171   23.5542 N   0  0  0  0  0  0  0  0  0  0  0  0
    9.9488  -15.3044   25.2418 C   0  0  0  0  0  0  0  0  0  0  0  0
   11.1233  -14.7840   25.1827 O   0  0  0  0  0  0  0  0  0  0  0  0
    9.9153  -16.6216   25.7635 N   0  0  0  0  0  0  0  0  0  0  0  0
   11.1586  -17.2883   26.1819 C   0  0  1  0  0  0  0  0  0  0  0  0
   10.8659  -18.1582   27.3986 C   0  0  0  0  0  0  0  0  0  0  0  0
   10.0267  -19.3593   27.0814 C   0  0  0  0  0  0  0  0  0  0  0  0
    9.6309  -19.9954   28.3610 C   0  0  0  0  0  0  0  0  0  0  0  0
   10.0225  -19.5466   29.4521 O   0  0  0  0  0  0  0  0  0  0  0  0
   11.7432  -18.0177   25.0594 C   0  0  0  0  0  0  0  0  0  0  0  0
   11.1419  -18.1561   23.8180 O   0  0  0  0  0  0  0  0  0  0  0  0
    8.8108  -21.1060   28.3248 O   0  0  0  0  0  0  0  0  0  0  0  0
   12.8649  -18.5683   25.1982 O   0  0  0  0  0  0  0  0  0  0  0  0
  2  3  1  0
  2  1  1  0
  3  4  1  1
  5  6  1  1
  5  3  1  0
  7  5  1  0
  8  7  2  0
 10 12  1  0
 10  9  1  1
 11 10  1  0
 13 12  1  1
 13 15  1  0
 13 14  1  0
 14  7  1  0
 15 16  2  0
 17 18  1  0
 17 15  1  0
 19 20  1  0
 18 19  1  1
 20 21  1  0
 21 25  1  0
 21 22  2  0
 23 24  1  0
 23 18  1  0
 26 23  2  0
M  END
$$$$
