ILE.pdb
     RDKit          3D

 26 25  0  0  1  0  0  0  0  0999 V2000
    7.7662  -18.5358   18.2719 C   0  0  0  0  0  0  0  0  0  0  0  0
    7.7722  -17.1076   18.6994 C   0  0  0  0  0  0  0  0  0  0  0  0
    8.1220  -16.8643   20.1344 C   0  0  2  0  0  0  0  0  0  0  0  0
    7.1535  -17.5353   21.0954 C   0  0  0  0  0  0  0  0  0  0  0  0
    8.0701  -15.3870   20.4941 C   0  0  2  0  0  0  0  0  0  0  0  0
    8.9918  -14.7233   19.5752 N   0  0  0  0  0  0  0  0  0  0  0  0
    8.5033  -15.1456   21.8840 C   0  0  0  0  0  0  0  0  0  0  0  0
    9.6828  -15.4847   22.1883 O   0  0  0  0  0  0  0  0  0  0  0  0
    8.1474  -12.3870   26.6098 C   0  0  0  0  0  0  0  0  0  0  0  0
    7.0238  -13.4544   26.4088 C   0  0  1  0  0  0  0  0  0  0  0  0
    5.8038  -12.7996   26.9820 C   0  0  0  0  0  0  0  0  0  0  0  0
    7.0236  -13.7360   24.9699 C   0  0  0  0  0  0  0  0  0  0  0  0
    8.1048  -14.4803   24.3055 C   0  0  2  0  0  0  0  0  0  0  0  0
    7.6701  -14.5626   22.8667 N   0  0  0  0  0  0  0  0  0  0  0  0
    8.5180  -15.7830   24.7511 C   0  0  0  0  0  0  0  0  0  0  0  0
    9.5981  -16.2663   24.2474 O   0  0  0  0  0  0  0  0  0  0  0  0
    7.8862  -16.6225   25.7022 N   0  0  0  0  0  0  0  0  0  0  0  0
    8.6058  -17.7707   26.2757 C   0  0  1  0  0  0  0  0  0  0  0  0
    9.9011  -17.2749   26.9074 C   0  0  0  0  0  0  0  0  0  0  0  0
   10.6616  -18.3498   27.6241 C   0  0  0  0  0  0  0  0  0  0  0  0
   11.9237  -17.7604   28.1322 C   0  0  0  0  0  0  0  0  0  0  0  0
   12.9593  -17.7639   27.4446 O   0  0  0  0  0  0  0  0  0  0  0  0
    7.7392  -18.5009   27.1976 C   0  0  0  0  0  0  0  0  0  0  0  0
    7.9348  -19.8199   27.5766 O   0  0  0  0  0  0  0  0  0  0  0  0
   11.9340  -17.1999   29.3943 O   0  0  0  0  0  0  0  0  0  0  0  0
    6.7410  -17.9214   27.6960 O   0  0  0  0  0  0  0  0  0  0  0  0
  2  3  1  0
  2  1  1  0
  3  4  1  1
  5  6  1  6
  5  3  1  0
  7  5  1  0
  8  7  2  0
 10 12  1  0
 10  9  1  6
 11 10  1  0
 13 12  1  1
 13 15  1  0
 13 14  1  0
 14  7  1  0
 15 16  2  0
 17 18  1  0
 17 15  1  0
 19 20  1  0
 18 19  1  1
 20 21  1  0
 21 25  1  0
 21 22  2  0
 23 24  1  0
 23 18  1  0
 26 23  2  0
M  END
$$$$
