ILE.pdb
     RDKit          3D

 26 25  0  0  1  0  0  0  0  0999 V2000
    6.9805  -13.1102   18.5009 C   0  0  0  0  0  0  0  0  0  0  0  0
    7.3595  -14.2186   19.4230 C   0  0  0  0  0  0  0  0  0  0  0  0
    7.9634  -13.7968   20.7261 C   0  0  2  0  0  0  0  0  0  0  0  0
    9.2483  -13.0039   20.5470 C   0  0  0  0  0  0  0  0  0  0  0  0
    8.3553  -14.9878   21.5879 C   0  0  2  0  0  0  0  0  0  0  0  0
    7.1167  -15.7221   21.8350 N   0  0  0  0  0  0  0  0  0  0  0  0
    8.9404  -14.5643   22.8748 C   0  0  0  0  0  0  0  0  0  0  0  0
   10.1669  -14.2567   22.8779 O   0  0  0  0  0  0  0  0  0  0  0  0
    5.8332  -12.3058   26.9124 C   0  0  0  0  0  0  0  0  0  0  0  0
    6.9217  -12.4242   25.7974 C   0  0  1  0  0  0  0  0  0  0  0  0
    7.5774  -11.0766   25.7953 C   0  0  0  0  0  0  0  0  0  0  0  0
    7.7437  -13.5722   26.1925 C   0  0  0  0  0  0  0  0  0  0  0  0
    8.8535  -14.0762   25.3687 C   0  0  2  0  0  0  0  0  0  0  0  0
    8.2000  -14.4901   24.0773 N   0  0  0  0  0  0  0  0  0  0  0  0
    9.7198  -15.1305   25.8207 C   0  0  0  0  0  0  0  0  0  0  0  0
   10.6944  -14.8057   26.5942 O   0  0  0  0  0  0  0  0  0  0  0  0
    9.6360  -16.5152   25.5309 N   0  0  0  0  0  0  0  0  0  0  0  0
   10.6095  -17.4564   26.1067 C   0  0  1  0  0  0  0  0  0  0  0  0
    9.8544  -18.6041   26.7665 C   0  0  0  0  0  0  0  0  0  0  0  0
   10.7552  -19.6682   27.3177 C   0  0  0  0  0  0  0  0  0  0  0  0
    9.9058  -20.7265   27.9152 C   0  0  0  0  0  0  0  0  0  0  0  0
    8.6660  -20.6776   27.8389 O   0  0  0  0  0  0  0  0  0  0  0  0
   11.5632  -17.8844   25.0862 C   0  0  0  0  0  0  0  0  0  0  0  0
   12.7647  -18.5209   25.3560 O   0  0  0  0  0  0  0  0  0  0  0  0
   10.5171  -21.7807   28.5650 O   0  0  0  0  0  0  0  0  0  0  0  0
   11.3053  -17.6743   23.8738 O   0  0  0  0  0  0  0  0  0  0  0  0
  2  3  1  0
  2  1  1  0
  3  4  1  6
  5  6  1  1
  5  3  1  0
  7  5  1  0
  8  7  2  0
 10 12  1  0
 10  9  1  1
 11 10  1  0
 13 12  1  1
 13 15  1  0
 13 14  1  0
 14  7  1  0
 15 16  2  0
 17 18  1  0
 17 15  1  0
 19 20  1  0
 18 19  1  6
 20 21  1  0
 21 25  1  0
 21 22  2  0
 23 24  1  0
 23 18  1  0
 26 23  2  0
M  END
$$$$
