ILE.pdb
     RDKit          3D

 26 25  0  0  1  0  0  0  0  0999 V2000
    6.7440  -17.5634   19.9586 C   0  0  0  0  0  0  0  0  0  0  0  0
    7.6573  -16.4401   20.3145 C   0  0  0  0  0  0  0  0  0  0  0  0
    7.0335  -15.0794   20.3263 C   0  0  2  0  0  0  0  0  0  0  0  0
    6.4707  -14.6811   18.9712 C   0  0  0  0  0  0  0  0  0  0  0  0
    8.0401  -13.9908   20.6675 C   0  0  2  0  0  0  0  0  0  0  0  0
    9.1762  -14.2085   19.7753 N   0  0  0  0  0  0  0  0  0  0  0  0
    8.4920  -14.0820   22.0694 C   0  0  0  0  0  0  0  0  0  0  0  0
    9.7215  -14.3016   22.2666 O   0  0  0  0  0  0  0  0  0  0  0  0
    8.2111  -11.6856   26.7913 C   0  0  0  0  0  0  0  0  0  0  0  0
    7.1681  -12.8486   26.7537 C   0  0  1  0  0  0  0  0  0  0  0  0
    5.9577  -12.2630   27.4154 C   0  0  0  0  0  0  0  0  0  0  0  0
    7.0534  -13.2074   25.3368 C   0  0  0  0  0  0  0  0  0  0  0  0
    8.1627  -13.8021   24.5751 C   0  0  2  0  0  0  0  0  0  0  0  0
    7.6237  -13.9359   23.1760 N   0  0  0  0  0  0  0  0  0  0  0  0
    8.7773  -15.0411   24.9668 C   0  0  0  0  0  0  0  0  0  0  0  0
    9.4691  -15.0425   26.0508 O   0  0  0  0  0  0  0  0  0  0  0  0
    8.7129  -16.2949   24.3091 N   0  0  0  0  0  0  0  0  0  0  0  0
    9.4184  -17.4621   24.8614 C   0  0  1  0  0  0  0  0  0  0  0  0
   10.5882  -17.8084   23.9480 C   0  0  0  0  0  0  0  0  0  0  0  0
   10.2159  -17.8499   22.4964 C   0  0  0  0  0  0  0  0  0  0  0  0
   11.4568  -18.0426   21.7081 C   0  0  0  0  0  0  0  0  0  0  0  0
   12.3106  -18.8810   22.0447 O   0  0  0  0  0  0  0  0  0  0  0  0
    9.8042  -17.2099   26.2477 C   0  0  0  0  0  0  0  0  0  0  0  0
    9.2389  -17.8418   27.3444 O   0  0  0  0  0  0  0  0  0  0  0  0
   11.6540  -17.2699   20.5805 O   0  0  0  0  0  0  0  0  0  0  0  0
   10.7053  -16.3686   26.4942 O   0  0  0  0  0  0  0  0  0  0  0  0
  2  3  1  0
  2  1  1  0
  3  4  1  6
  5  6  1  6
  5  3  1  0
  7  5  1  0
  8  7  2  0
 10 12  1  0
 10  9  1  6
 11 10  1  0
 13 12  1  1
 13 15  1  0
 13 14  1  0
 14  7  1  0
 15 16  2  0
 17 18  1  0
 17 15  1  0
 19 20  1  0
 18 19  1  6
 20 21  1  0
 21 25  1  0
 21 22  2  0
 23 24  1  0
 23 18  1  0
 26 23  2  0
M  END
$$$$
