ILE.pdb
     RDKit          3D

 26 25  0  0  1  0  0  0  0  0999 V2000
    7.2436  -16.5665   17.6460 C   0  0  0  0  0  0  0  0  0  0  0  0
    7.0804  -15.3261   18.4568 C   0  0  0  0  0  0  0  0  0  0  0  0
    7.7403  -15.3410   19.8002 C   0  0  2  0  0  0  0  0  0  0  0  0
    7.3850  -16.5753   20.6139 C   0  0  0  0  0  0  0  0  0  0  0  0
    7.3083  -14.1652   20.6636 C   0  0  2  0  0  0  0  0  0  0  0  0
    7.7384  -12.9678   19.9456 N   0  0  0  0  0  0  0  0  0  0  0  0
    7.9479  -14.1971   21.9932 C   0  0  0  0  0  0  0  0  0  0  0  0
    9.2036  -14.0535   22.0333 O   0  0  0  0  0  0  0  0  0  0  0  0
    5.2308  -12.4797   26.6078 C   0  0  0  0  0  0  0  0  0  0  0  0
    6.3768  -12.4521   25.5457 C   0  0  1  0  0  0  0  0  0  0  0  0
    7.3412  -11.4417   26.0887 C   0  0  0  0  0  0  0  0  0  0  0  0
    6.8382  -13.8405   25.4519 C   0  0  0  0  0  0  0  0  0  0  0  0
    7.9085  -14.2621   24.5347 C   0  0  2  0  0  0  0  0  0  0  0  0
    7.2280  -14.3773   23.1969 N   0  0  0  0  0  0  0  0  0  0  0  0
    8.6924  -15.4437   24.7710 C   0  0  0  0  0  0  0  0  0  0  0  0
    8.1060  -16.5803   24.6367 O   0  0  0  0  0  0  0  0  0  0  0  0
   10.0608  -15.5272   25.1299 N   0  0  0  0  0  0  0  0  0  0  0  0
   10.7471  -16.8287   25.1491 C   0  0  1  0  0  0  0  0  0  0  0  0
   12.0537  -16.7083   24.3739 C   0  0  0  0  0  0  0  0  0  0  0  0
   12.9451  -17.9043   24.5234 C   0  0  0  0  0  0  0  0  0  0  0  0
   14.1842  -17.6550   23.7481 C   0  0  0  0  0  0  0  0  0  0  0  0
   14.6525  -16.5093   23.6324 O   0  0  0  0  0  0  0  0  0  0  0  0
   10.9153  -17.2910   26.5246 C   0  0  0  0  0  0  0  0  0  0  0  0
   10.6077  -16.5369   27.6465 O   0  0  0  0  0  0  0  0  0  0  0  0
   14.8197  -18.7251   23.1496 O   0  0  0  0  0  0  0  0  0  0  0  0
   11.3679  -18.4445   26.7371 O   0  0  0  0  0  0  0  0  0  0  0  0
  2  3  1  0
  2  1  1  0
  3  4  1  1
  5  6  1  6
  5  3  1  0
  7  5  1  0
  8  7  2  0
 10 12  1  0
 10  9  1  1
 11 10  1  0
 13 12  1  1
 13 15  1  0
 13 14  1  0
 14  7  1  0
 15 16  2  0
 17 18  1  0
 17 15  1  0
 19 20  1  0
 18 19  1  1
 20 21  1  0
 21 25  1  0
 21 22  2  0
 23 24  1  0
 23 18  1  0
 26 23  2  0
M  END
$$$$
