ILE.pdb
     RDKit          3D

 26 25  0  0  1  0  0  0  0  0999 V2000
    6.1404  -20.6503   20.7745 C   0  0  0  0  0  0  0  0  0  0  0  0
    6.1747  -19.1631   20.6765 C   0  0  0  0  0  0  0  0  0  0  0  0
    6.9213  -18.4608   21.7674 C   0  0  2  0  0  0  0  0  0  0  0  0
    6.3593  -18.7595   23.1482 C   0  0  0  0  0  0  0  0  0  0  0  0
    6.8438  -16.9474   21.6321 C   0  0  2  0  0  0  0  0  0  0  0  0
    7.4854  -16.6305   20.3585 N   0  0  0  0  0  0  0  0  0  0  0  0
    7.5584  -16.2619   22.7263 C   0  0  0  0  0  0  0  0  0  0  0  0
    8.8186  -16.3638   22.7456 O   0  0  0  0  0  0  0  0  0  0  0  0
    8.1211  -11.9057   25.9841 C   0  0  0  0  0  0  0  0  0  0  0  0
    7.0613  -12.9433   26.4765 C   0  0  1  0  0  0  0  0  0  0  0  0
    5.9524  -12.0913   27.0153 C   0  0  0  0  0  0  0  0  0  0  0  0
    6.7660  -13.7682   25.3009 C   0  0  0  0  0  0  0  0  0  0  0  0
    7.6849  -14.8053   24.8065 C   0  0  2  0  0  0  0  0  0  0  0  0
    6.9042  -15.5120   23.7308 N   0  0  0  0  0  0  0  0  0  0  0  0
    8.2747  -15.7806   25.6825 C   0  0  0  0  0  0  0  0  0  0  0  0
    7.4932  -16.6606   26.2010 O   0  0  0  0  0  0  0  0  0  0  0  0
    9.6364  -15.9132   26.0521 N   0  0  0  0  0  0  0  0  0  0  0  0
   10.1182  -17.1503   26.6867 C   0  0  1  0  0  0  0  0  0  0  0  0
   11.1733  -17.7859   25.7892 C   0  0  0  0  0  0  0  0  0  0  0  0
   12.3753  -18.2745   26.5401 C   0  0  0  0  0  0  0  0  0  0  0  0
   13.3469  -18.8095   25.5561 C   0  0  0  0  0  0  0  0  0  0  0  0
   14.4207  -19.3180   25.9216 O   0  0  0  0  0  0  0  0  0  0  0  0
   10.5838  -16.8740   28.0436 C   0  0  0  0  0  0  0  0  0  0  0  0
   10.6115  -15.6134   28.6196 O   0  0  0  0  0  0  0  0  0  0  0  0
   13.0395  -18.7354   24.2117 O   0  0  0  0  0  0  0  0  0  0  0  0
   10.9935  -17.8220   28.7604 O   0  0  0  0  0  0  0  0  0  0  0  0
  2  3  1  0
  2  1  1  0
  3  4  1  1
  5  6  1  6
  5  3  1  0
  7  5  1  0
  8  7  2  0
 10 12  1  0
 10  9  1  6
 11 10  1  0
 13 12  1  1
 13 15  1  0
 13 14  1  0
 14  7  1  0
 15 16  2  0
 17 18  1  0
 17 15  1  0
 19 20  1  0
 18 19  1  6
 20 21  1  0
 21 25  1  0
 21 22  2  0
 23 24  1  0
 23 18  1  0
 26 23  2  0
M  END
$$$$
