ILE.pdb
     RDKit          3D

 26 25  0  0  1  0  0  0  0  0999 V2000
    7.8454  -11.7466   19.7079 C   0  0  0  0  0  0  0  0  0  0  0  0
    7.7090  -12.9276   20.6075 C   0  0  0  0  0  0  0  0  0  0  0  0
    8.3616  -14.1856   20.1255 C   0  0  2  0  0  0  0  0  0  0  0  0
    7.8245  -14.6457   18.7797 C   0  0  0  0  0  0  0  0  0  0  0  0
    8.1150  -15.3555   21.0663 C   0  0  2  0  0  0  0  0  0  0  0  0
    6.6675  -15.5519   21.0827 N   0  0  0  0  0  0  0  0  0  0  0  0
    8.5872  -15.0677   22.4346 C   0  0  0  0  0  0  0  0  0  0  0  0
    9.8284  -14.8833   22.5901 O   0  0  0  0  0  0  0  0  0  0  0  0
    5.7896  -12.3464   26.5517 C   0  0  0  0  0  0  0  0  0  0  0  0
    6.9421  -12.6456   25.5397 C   0  0  1  0  0  0  0  0  0  0  0  0
    8.0455  -11.7300   25.9758 C   0  0  0  0  0  0  0  0  0  0  0  0
    7.1797  -14.0879   25.6535 C   0  0  0  0  0  0  0  0  0  0  0  0
    8.2688  -14.7728   24.9399 C   0  0  2  0  0  0  0  0  0  0  0  0
    7.7254  -14.9910   23.5531 N   0  0  0  0  0  0  0  0  0  0  0  0
    8.8425  -15.9992   25.4226 C   0  0  0  0  0  0  0  0  0  0  0  0
    8.0666  -17.0207   25.5138 O   0  0  0  0  0  0  0  0  0  0  0  0
   10.1835  -16.2435   25.8106 N   0  0  0  0  0  0  0  0  0  0  0  0
   10.6263  -17.6075   26.1402 C   0  0  1  0  0  0  0  0  0  0  0  0
   11.9585  -17.8735   25.4494 C   0  0  0  0  0  0  0  0  0  0  0  0
   12.5997  -19.1610   25.8722 C   0  0  0  0  0  0  0  0  0  0  0  0
   13.8910  -19.2896   25.1548 C   0  0  0  0  0  0  0  0  0  0  0  0
   14.2854  -18.4062   24.3741 O   0  0  0  0  0  0  0  0  0  0  0  0
   10.6638  -17.7904   27.5890 C   0  0  0  0  0  0  0  0  0  0  0  0
   10.8110  -19.0162   28.2194 O   0  0  0  0  0  0  0  0  0  0  0  0
   14.6599  -20.4168   25.3682 O   0  0  0  0  0  0  0  0  0  0  0  0
   10.5569  -16.7881   28.3405 O   0  0  0  0  0  0  0  0  0  0  0  0
  2  3  1  0
  2  1  1  0
  3  4  1  6
  5  6  1  1
  5  3  1  0
  7  5  1  0
  8  7  2  0
 10 12  1  0
 10  9  1  1
 11 10  1  0
 13 12  1  1
 13 15  1  0
 13 14  1  0
 14  7  1  0
 15 16  2  0
 17 18  1  0
 17 15  1  0
 19 20  1  0
 18 19  1  1
 20 21  1  0
 21 25  1  0
 21 22  2  0
 23 24  1  0
 23 18  1  0
 26 23  2  0
M  END
$$$$
