QKY.pdb
     RDKit          3D

 31 31  0  0  1  0  0  0  0  0999 V2000
   14.8314  -14.1912   16.9247 N   0  0  0  0  0  0  0  0  0  0  0  0
   14.8259  -14.5663   18.2976 C   0  0  0  0  0  0  0  0  0  0  0  0
   15.8064  -14.2315   18.9818 O   0  0  0  0  0  0  0  0  0  0  0  0
   13.6934  -15.3200   18.8402 C   0  0  0  0  0  0  0  0  0  0  0  0
   12.5330  -14.5285   19.3346 C   0  0  0  0  0  0  0  0  0  0  0  0
   11.2376  -15.1209   18.9089 C   0  0  2  0  0  0  0  0  0  0  0  0
   10.5626  -14.2619   17.9728 N   0  0  0  0  0  0  0  0  0  0  0  0
   10.3089  -15.3450   20.0449 C   0  0  0  0  0  0  0  0  0  0  0  0
    9.7781  -14.3942   20.6493 O   0  0  0  0  0  0  0  0  0  0  0  0
   10.0263  -16.6754   20.4429 N   0  0  0  0  0  0  0  0  0  0  0  0
    9.0899  -16.9975   21.4870 C   0  0  1  0  0  0  0  0  0  0  0  0
    8.4146  -18.3007   21.3909 C   0  0  0  0  0  0  0  0  0  0  0  0
    7.5699  -18.8387   22.4479 C   0  0  0  0  0  0  0  0  0  0  0  0
    7.0739  -20.2463   22.3069 C   0  0  0  0  0  0  0  0  0  0  0  0
    6.0619  -20.6186   23.3715 C   0  0  0  0  0  0  0  0  0  0  0  0
    5.7184  -22.0301   23.2626 N   0  0  0  0  0  0  0  0  0  0  0  0
    9.7098  -16.7217   22.8043 C   0  0  0  0  0  0  0  0  0  0  0  0
   10.9043  -17.0581   22.9841 O   0  0  0  0  0  0  0  0  0  0  0  0
   10.9797  -14.5934   31.2746 O   0  0  0  0  0  0  0  0  0  0  0  0
   10.4162  -14.7516   30.0165 C   0  0  0  0  0  0  0  0  0  0  0  0
    9.7284  -15.8769   29.6235 C   0  0  0  0  0  0  0  0  0  0  0  0
    9.1776  -16.0117   28.3700 C   0  0  0  0  0  0  0  0  0  0  0  0
    9.3077  -14.9900   27.4534 C   0  0  0  0  0  0  0  0  0  0  0  0
    8.7586  -15.0713   26.0810 C   0  0  0  0  0  0  0  0  0  0  0  0
    9.6163  -15.9149   25.2089 C   0  0  2  0  0  0  0  0  0  0  0  0
    9.0327  -16.0984   23.8783 N   0  0  0  0  0  0  0  0  0  0  0  0
    9.8963  -17.2561   25.7586 C   0  0  0  0  0  0  0  0  0  0  0  0
    9.0362  -18.1882   25.6855 O   0  0  0  0  0  0  0  0  0  0  0  0
   10.0040  -13.8565   27.8574 C   0  0  0  0  0  0  0  0  0  0  0  0
   10.5443  -13.7317   29.0964 C   0  0  0  0  0  0  0  0  0  0  0  0
   11.0934  -17.6105   26.3860 O   0  0  0  0  0  0  0  0  0  0  0  0
  2  1  1  0
  2  4  1  0
  3  2  2  0
  5  4  1  0
  6  5  1  0
  6  7  1  6
  8  6  1  0
  8  9  2  0
 10  8  1  0
 11 10  1  0
 11 12  1  1
 13 12  1  0
 14 13  1  0
 15 14  1  0
 16 15  1  0
 17 11  1  0
 17 26  1  0
 18 17  2  0
 19 20  1  0
 20 30  2  0
 20 21  1  0
 21 22  2  0
 22 23  1  0
 23 24  1  0
 25 24  1  1
 25 26  1  0
 25 27  1  0
 27 28  2  0
 27 31  1  0
 29 23  2  0
 30 29  1  0
M  END
$$$$
