QKY.pdb
     RDKit          3D

 31 31  0  0  1  0  0  0  0  0999 V2000
   14.6739  -16.8092   16.4719 N   0  0  0  0  0  0  0  0  0  0  0  0
   14.8676  -15.4829   16.9506 C   0  0  0  0  0  0  0  0  0  0  0  0
   15.7723  -14.8153   16.4239 O   0  0  0  0  0  0  0  0  0  0  0  0
   14.0166  -14.9670   18.0252 C   0  0  0  0  0  0  0  0  0  0  0  0
   12.9329  -15.8632   18.5147 C   0  0  0  0  0  0  0  0  0  0  0  0
   11.6563  -15.1285   18.7165 C   0  0  2  0  0  0  0  0  0  0  0  0
   11.8646  -13.7069   18.6444 N   0  0  0  0  0  0  0  0  0  0  0  0
   11.0334  -15.4130   20.0334 C   0  0  0  0  0  0  0  0  0  0  0  0
   11.3857  -14.8094   21.0643 O   0  0  0  0  0  0  0  0  0  0  0  0
   10.0150  -16.3956   20.1085 N   0  0  0  0  0  0  0  0  0  0  0  0
    9.3889  -16.7804   21.3457 C   0  0  1  0  0  0  0  0  0  0  0  0
    8.1902  -17.6270   21.2451 C   0  0  0  0  0  0  0  0  0  0  0  0
    8.2487  -19.0745   21.0990 C   0  0  0  0  0  0  0  0  0  0  0  0
    6.9580  -19.8201   20.9390 C   0  0  0  0  0  0  0  0  0  0  0  0
    7.1570  -21.3194   20.8463 C   0  0  0  0  0  0  0  0  0  0  0  0
    5.8687  -21.9877   20.7215 N   0  0  0  0  0  0  0  0  0  0  0  0
   10.4209  -17.2843   22.2820 C   0  0  0  0  0  0  0  0  0  0  0  0
   11.6253  -17.0451   22.0280 O   0  0  0  0  0  0  0  0  0  0  0  0
   10.5693  -14.0821   30.2092 O   0  0  0  0  0  0  0  0  0  0  0  0
   10.3930  -14.6318   28.9475 C   0  0  0  0  0  0  0  0  0  0  0  0
   11.1065  -15.7107   28.4777 C   0  0  0  0  0  0  0  0  0  0  0  0
   10.9145  -16.2394   27.2222 C   0  0  0  0  0  0  0  0  0  0  0  0
    9.9737  -15.6814   26.3828 C   0  0  0  0  0  0  0  0  0  0  0  0
    9.7254  -16.1839   25.0126 C   0  0  0  0  0  0  0  0  0  0  0  0
   10.3496  -17.5168   24.8084 C   0  0  2  0  0  0  0  0  0  0  0  0
   10.1292  -18.0234   23.4521 N   0  0  0  0  0  0  0  0  0  0  0  0
    9.8777  -18.5514   25.7499 C   0  0  0  0  0  0  0  0  0  0  0  0
   10.6539  -19.0448   26.6261 O   0  0  0  0  0  0  0  0  0  0  0  0
    9.2570  -14.5916   26.8640 C   0  0  0  0  0  0  0  0  0  0  0  0
    9.4529  -14.0763   28.1045 C   0  0  0  0  0  0  0  0  0  0  0  0
    8.5775  -19.0628   25.7633 O   0  0  0  0  0  0  0  0  0  0  0  0
  2  1  1  0
  2  4  1  0
  3  2  2  0
  5  4  1  0
  6  5  1  0
  6  7  1  1
  8  6  1  0
  8  9  2  0
 10  8  1  0
 11 10  1  0
 11 12  1  6
 13 12  1  0
 14 13  1  0
 15 14  1  0
 16 15  1  0
 17 11  1  0
 17 26  1  0
 18 17  2  0
 19 20  1  0
 20 30  2  0
 20 21  1  0
 21 22  2  0
 22 23  1  0
 23 24  1  0
 25 24  1  6
 25 26  1  0
 25 27  1  0
 27 28  2  0
 27 31  1  0
 29 23  2  0
 30 29  1  0
M  END
$$$$
