QKY.pdb
     RDKit          3D

 31 31  0  0  1  0  0  0  0  0999 V2000
    8.7660  -15.5146   13.8713 N   0  0  0  0  0  0  0  0  0  0  0  0
    9.0401  -16.7775   14.4680 C   0  0  0  0  0  0  0  0  0  0  0  0
   10.1201  -17.3186   14.1814 O   0  0  0  0  0  0  0  0  0  0  0  0
    8.0595  -17.3814   15.3729 C   0  0  0  0  0  0  0  0  0  0  0  0
    7.8751  -16.7283   16.6983 C   0  0  0  0  0  0  0  0  0  0  0  0
    8.8894  -17.1836   17.6853 C   0  0  2  0  0  0  0  0  0  0  0  0
    9.3607  -18.5047   17.3656 N   0  0  0  0  0  0  0  0  0  0  0  0
    8.3593  -17.2319   19.0709 C   0  0  0  0  0  0  0  0  0  0  0  0
    7.5559  -16.3780   19.4909 O   0  0  0  0  0  0  0  0  0  0  0  0
    8.7834  -18.2781   19.9276 N   0  0  0  0  0  0  0  0  0  0  0  0
    8.2675  -18.4568   21.2590 C   0  0  1  0  0  0  0  0  0  0  0  0
    8.3428  -19.8141   21.8209 C   0  0  0  0  0  0  0  0  0  0  0  0
    7.7216  -20.1878   23.0837 C   0  0  0  0  0  0  0  0  0  0  0  0
    7.9491  -21.5774   23.5979 C   0  0  0  0  0  0  0  0  0  0  0  0
    7.2124  -21.8488   24.8939 C   0  0  0  0  0  0  0  0  0  0  0  0
    7.3861  -23.2412   25.2853 N   0  0  0  0  0  0  0  0  0  0  0  0
    8.8069  -17.3952   22.1408 C   0  0  0  0  0  0  0  0  0  0  0  0
   10.0405  -17.1713   22.1197 O   0  0  0  0  0  0  0  0  0  0  0  0
    8.0579  -12.3745   18.3309 O   0  0  0  0  0  0  0  0  0  0  0  0
    7.9423  -12.8582   19.6263 C   0  0  0  0  0  0  0  0  0  0  0  0
    6.8198  -13.4922   20.1077 C   0  0  0  0  0  0  0  0  0  0  0  0
    6.7277  -13.9640   21.3967 C   0  0  0  0  0  0  0  0  0  0  0  0
    7.7916  -13.8064   22.2593 C   0  0  0  0  0  0  0  0  0  0  0  0
    7.7581  -14.2709   23.6646 C   0  0  0  0  0  0  0  0  0  0  0  0
    8.5382  -15.5240   23.8344 C   0  0  2  0  0  0  0  0  0  0  0  0
    8.0109  -16.6140   23.0105 N   0  0  0  0  0  0  0  0  0  0  0  0
    8.5978  -16.0103   25.2270 C   0  0  0  0  0  0  0  0  0  0  0  0
    9.0976  -15.2959   26.1509 O   0  0  0  0  0  0  0  0  0  0  0  0
    8.9220  -13.1647   21.7661 C   0  0  0  0  0  0  0  0  0  0  0  0
    9.0045  -12.7022   20.4926 C   0  0  0  0  0  0  0  0  0  0  0  0
    8.1237  -17.2576   25.6414 O   0  0  0  0  0  0  0  0  0  0  0  0
  2  1  1  0
  2  4  1  0
  3  2  2  0
  5  4  1  0
  6  5  1  0
  6  7  1  6
  8  6  1  0
  8  9  2  0
 10  8  1  0
 11 10  1  0
 11 12  1  1
 13 12  1  0
 14 13  1  0
 15 14  1  0
 16 15  1  0
 17 11  1  0
 17 26  1  0
 18 17  2  0
 19 20  1  0
 20 30  2  0
 20 21  1  0
 21 22  2  0
 22 23  1  0
 23 24  1  0
 25 24  1  1
 25 26  1  0
 25 27  1  0
 27 28  2  0
 27 31  1  0
 29 23  2  0
 30 29  1  0
M  END
$$$$
