QKY.pdb
     RDKit          3D

 31 31  0  0  1  0  0  0  0  0999 V2000
    9.4638  -18.1813   16.2963 N   0  0  0  0  0  0  0  0  0  0  0  0
   10.8224  -18.1198   16.7162 C   0  0  0  0  0  0  0  0  0  0  0  0
   11.6574  -18.7301   16.0294 O   0  0  0  0  0  0  0  0  0  0  0  0
   11.1776  -17.3612   17.9176 C   0  0  0  0  0  0  0  0  0  0  0  0
   10.0541  -16.7831   18.7054 C   0  0  0  0  0  0  0  0  0  0  0  0
    9.7958  -17.5550   19.9494 C   0  0  2  0  0  0  0  0  0  0  0  0
    9.1626  -18.8121   19.6520 N   0  0  0  0  0  0  0  0  0  0  0  0
    8.9114  -16.8336   20.8983 C   0  0  0  0  0  0  0  0  0  0  0  0
    9.2057  -15.7040   21.3324 O   0  0  0  0  0  0  0  0  0  0  0  0
    7.7064  -17.4532   21.3135 N   0  0  0  0  0  0  0  0  0  0  0  0
    6.7206  -16.7844   22.1207 C   0  0  1  0  0  0  0  0  0  0  0  0
    5.4495  -17.4931   22.3347 C   0  0  0  0  0  0  0  0  0  0  0  0
    4.6415  -18.0238   21.2457 C   0  0  0  0  0  0  0  0  0  0  0  0
    3.6217  -19.0734   21.5706 C   0  0  0  0  0  0  0  0  0  0  0  0
    2.8479  -19.5332   20.3517 C   0  0  0  0  0  0  0  0  0  0  0  0
    1.9242  -20.5983   20.7187 N   0  0  0  0  0  0  0  0  0  0  0  0
    7.3599  -16.2807   23.3589 C   0  0  0  0  0  0  0  0  0  0  0  0
    7.3498  -15.0458   23.5762 O   0  0  0  0  0  0  0  0  0  0  0  0
    7.1906  -10.4465   25.9742 O   0  0  0  0  0  0  0  0  0  0  0  0
    7.1814  -11.8295   26.0863 C   0  0  0  0  0  0  0  0  0  0  0  0
    6.0321  -12.5816   26.1697 C   0  0  0  0  0  0  0  0  0  0  0  0
    6.0472  -13.9528   26.2802 C   0  0  0  0  0  0  0  0  0  0  0  0
    7.2522  -14.6223   26.3106 C   0  0  0  0  0  0  0  0  0  0  0  0
    7.3472  -16.0934   26.4468 C   0  0  0  0  0  0  0  0  0  0  0  0
    8.4552  -16.6384   25.6204 C   0  0  2  0  0  0  0  0  0  0  0  0
    7.9850  -17.1126   24.3169 N   0  0  0  0  0  0  0  0  0  0  0  0
    9.1890  -17.7497   26.2576 C   0  0  0  0  0  0  0  0  0  0  0  0
    9.0974  -18.9366   25.8140 O   0  0  0  0  0  0  0  0  0  0  0  0
    8.4091  -13.8559   26.2263 C   0  0  0  0  0  0  0  0  0  0  0  0
    8.3850  -12.5030   26.1173 C   0  0  0  0  0  0  0  0  0  0  0  0
   10.0244  -17.6012   27.3677 O   0  0  0  0  0  0  0  0  0  0  0  0
  2  1  1  0
  2  4  1  0
  3  2  2  0
  5  4  1  0
  6  5  1  0
  6  7  1  6
  8  6  1  0
  8  9  2  0
 10  8  1  0
 11 10  1  0
 11 12  1  1
 13 12  1  0
 14 13  1  0
 15 14  1  0
 16 15  1  0
 17 11  1  0
 17 26  1  0
 18 17  2  0
 19 20  1  0
 20 30  2  0
 20 21  1  0
 21 22  2  0
 22 23  1  0
 23 24  1  0
 25 24  1  1
 25 26  1  0
 25 27  1  0
 27 28  2  0
 27 31  1  0
 29 23  2  0
 30 29  1  0
M  END
$$$$
