QKY.pdb
     RDKit          3D

 31 31  0  0  1  0  0  0  0  0999 V2000
   17.1130  -13.4178   18.1814 N   0  0  0  0  0  0  0  0  0  0  0  0
   16.5004  -14.3504   17.2978 C   0  0  0  0  0  0  0  0  0  0  0  0
   17.2246  -14.8797   16.4394 O   0  0  0  0  0  0  0  0  0  0  0  0
   15.0708  -14.6416   17.4263 C   0  0  0  0  0  0  0  0  0  0  0  0
   14.4245  -14.2838   18.7192 C   0  0  0  0  0  0  0  0  0  0  0  0
   13.4897  -15.3430   19.1824 C   0  0  2  0  0  0  0  0  0  0  0  0
   12.7860  -15.9285   18.0726 N   0  0  0  0  0  0  0  0  0  0  0  0
   12.4666  -14.8310   20.1279 C   0  0  0  0  0  0  0  0  0  0  0  0
   12.7825  -14.1616   21.1295 O   0  0  0  0  0  0  0  0  0  0  0  0
   11.1014  -15.1157   19.8759 N   0  0  0  0  0  0  0  0  0  0  0  0
   10.0273  -14.5306   20.6340 C   0  0  1  0  0  0  0  0  0  0  0  0
    8.7127  -14.4661   19.9772 C   0  0  0  0  0  0  0  0  0  0  0  0
    8.5200  -13.9409   18.6329 C   0  0  0  0  0  0  0  0  0  0  0  0
    7.2512  -14.2892   17.9145 C   0  0  0  0  0  0  0  0  0  0  0  0
    7.1672  -13.6600   16.5386 C   0  0  0  0  0  0  0  0  0  0  0  0
    5.9412  -14.0782   15.8720 N   0  0  0  0  0  0  0  0  0  0  0  0
   10.0075  -15.1209   21.9929 C   0  0  0  0  0  0  0  0  0  0  0  0
   10.1433  -16.3623   22.1066 O   0  0  0  0  0  0  0  0  0  0  0  0
   10.0395  -16.1497   30.7978 O   0  0  0  0  0  0  0  0  0  0  0  0
   10.1007  -15.6582   29.5017 C   0  0  0  0  0  0  0  0  0  0  0  0
   10.7162  -16.3181   28.4626 C   0  0  0  0  0  0  0  0  0  0  0  0
   10.7643  -15.8112   27.1846 C   0  0  0  0  0  0  0  0  0  0  0  0
   10.1785  -14.5936   26.9102 C   0  0  0  0  0  0  0  0  0  0  0  0
   10.2069  -13.9769   25.5647 C   0  0  0  0  0  0  0  0  0  0  0  0
    9.8110  -14.9543   24.5179 C   0  0  2  0  0  0  0  0  0  0  0  0
    9.8438  -14.3654   23.1774 N   0  0  0  0  0  0  0  0  0  0  0  0
    8.4673  -15.5335   24.7145 C   0  0  0  0  0  0  0  0  0  0  0  0
    7.4401  -15.0021   24.1889 O   0  0  0  0  0  0  0  0  0  0  0  0
    9.5590  -13.9327   27.9648 C   0  0  0  0  0  0  0  0  0  0  0  0
    9.5160  -14.4402   29.2231 C   0  0  0  0  0  0  0  0  0  0  0  0
    8.2127  -16.6812   25.4695 O   0  0  0  0  0  0  0  0  0  0  0  0
  2  1  1  0
  2  4  1  0
  3  2  2  0
  5  4  1  0
  6  5  1  0
  6  7  1  6
  8  6  1  0
  8  9  2  0
 10  8  1  0
 11 10  1  0
 11 12  1  6
 13 12  1  0
 14 13  1  0
 15 14  1  0
 16 15  1  0
 17 11  1  0
 17 26  1  0
 18 17  2  0
 19 20  1  0
 20 30  2  0
 20 21  1  0
 21 22  2  0
 22 23  1  0
 23 24  1  0
 25 24  1  1
 25 26  1  0
 25 27  1  0
 27 28  2  0
 27 31  1  0
 29 23  2  0
 30 29  1  0
M  END
$$$$
