QKY.pdb
     RDKit          3D

 31 31  0  0  1  0  0  0  0  0999 V2000
    9.2266  -12.5899   17.5076 N   0  0  0  0  0  0  0  0  0  0  0  0
    8.4023  -13.4805   16.7638 C   0  0  0  0  0  0  0  0  0  0  0  0
    8.5967  -13.5454   15.5392 O   0  0  0  0  0  0  0  0  0  0  0  0
    7.3755  -14.2659   17.4522 C   0  0  0  0  0  0  0  0  0  0  0  0
    7.5072  -14.3984   18.9295 C   0  0  0  0  0  0  0  0  0  0  0  0
    8.7769  -15.0695   19.3138 C   0  0  2  0  0  0  0  0  0  0  0  0
    9.1495  -16.0607   18.3400 N   0  0  0  0  0  0  0  0  0  0  0  0
    8.6871  -15.7577   20.6258 C   0  0  0  0  0  0  0  0  0  0  0  0
    8.0107  -15.2903   21.5613 O   0  0  0  0  0  0  0  0  0  0  0  0
    9.3907  -16.9742   20.8078 N   0  0  0  0  0  0  0  0  0  0  0  0
    9.4717  -17.6490   22.0762 C   0  0  1  0  0  0  0  0  0  0  0  0
    9.8435  -19.0718   22.0460 C   0  0  0  0  0  0  0  0  0  0  0  0
    9.4061  -19.9862   21.0006 C   0  0  0  0  0  0  0  0  0  0  0  0
    9.9317  -21.3899   21.0259 C   0  0  0  0  0  0  0  0  0  0  0  0
    9.3539  -22.2502   19.9204 C   0  0  0  0  0  0  0  0  0  0  0  0
    9.9872  -21.9230   18.6499 N   0  0  0  0  0  0  0  0  0  0  0  0
   10.2642  -16.8262   23.0200 C   0  0  0  0  0  0  0  0  0  0  0  0
   11.1593  -16.0808   22.5558 O   0  0  0  0  0  0  0  0  0  0  0  0
    5.7278  -11.2386   27.7531 O   0  0  0  0  0  0  0  0  0  0  0  0
    6.3936  -12.1905   26.9942 C   0  0  0  0  0  0  0  0  0  0  0  0
    7.7591  -12.3602   27.0082 C   0  0  0  0  0  0  0  0  0  0  0  0
    8.3980  -13.3114   26.2469 C   0  0  0  0  0  0  0  0  0  0  0  0
    7.6598  -14.1401   25.4288 C   0  0  0  0  0  0  0  0  0  0  0  0
    8.2789  -15.1730   24.5676 C   0  0  0  0  0  0  0  0  0  0  0  0
    9.5342  -15.6921   25.1699 C   0  0  2  0  0  0  0  0  0  0  0  0
   10.0719  -16.8300   24.4212 N   0  0  0  0  0  0  0  0  0  0  0  0
    9.3949  -16.1141   26.5778 C   0  0  0  0  0  0  0  0  0  0  0  0
    8.6344  -17.0787   26.9017 O   0  0  0  0  0  0  0  0  0  0  0  0
    6.2809  -13.9627   25.4196 C   0  0  0  0  0  0  0  0  0  0  0  0
    5.6586  -13.0215   26.1741 C   0  0  0  0  0  0  0  0  0  0  0  0
   10.0661  -15.5123   27.6452 O   0  0  0  0  0  0  0  0  0  0  0  0
  2  1  1  0
  2  4  1  0
  3  2  2  0
  5  4  1  0
  6  5  1  0
  6  7  1  6
  8  6  1  0
  8  9  2  0
 10  8  1  0
 11 10  1  0
 11 12  1  6
 13 12  1  0
 14 13  1  0
 15 14  1  0
 16 15  1  0
 17 11  1  0
 17 26  1  0
 18 17  2  0
 19 20  1  0
 20 30  2  0
 20 21  1  0
 21 22  2  0
 22 23  1  0
 23 24  1  0
 25 24  1  6
 25 26  1  0
 25 27  1  0
 27 28  2  0
 27 31  1  0
 29 23  2  0
 30 29  1  0
M  END
$$$$
