QKY.pdb
     RDKit          3D

 31 31  0  0  1  0  0  0  0  0999 V2000
    8.9178  -12.5335   17.2694 N   0  0  0  0  0  0  0  0  0  0  0  0
    7.8762  -13.3959   16.8256 C   0  0  0  0  0  0  0  0  0  0  0  0
    8.0179  -13.9332   15.7153 O   0  0  0  0  0  0  0  0  0  0  0  0
    6.7001  -13.6098   17.6719 C   0  0  0  0  0  0  0  0  0  0  0  0
    6.9429  -13.7798   19.1312 C   0  0  0  0  0  0  0  0  0  0  0  0
    7.9238  -14.8626   19.4064 C   0  0  2  0  0  0  0  0  0  0  0  0
    7.6325  -16.0319   18.6205 N   0  0  0  0  0  0  0  0  0  0  0  0
    7.9292  -15.2828   20.8300 C   0  0  0  0  0  0  0  0  0  0  0  0
    7.8491  -14.4520   21.7544 O   0  0  0  0  0  0  0  0  0  0  0  0
    8.0280  -16.6635   21.1335 N   0  0  0  0  0  0  0  0  0  0  0  0
    8.0893  -17.1660   22.4805 C   0  0  1  0  0  0  0  0  0  0  0  0
    7.3329  -18.3955   22.7629 C   0  0  0  0  0  0  0  0  0  0  0  0
    7.2926  -19.0204   24.0774 C   0  0  0  0  0  0  0  0  0  0  0  0
    6.5405  -20.3090   24.2232 C   0  0  0  0  0  0  0  0  0  0  0  0
    6.5876  -20.8564   25.6354 C   0  0  0  0  0  0  0  0  0  0  0  0
    5.9316  -22.1559   25.6897 N   0  0  0  0  0  0  0  0  0  0  0  0
    9.5011  -17.1956   22.9293 C   0  0  0  0  0  0  0  0  0  0  0  0
   10.1090  -18.2922   22.9156 O   0  0  0  0  0  0  0  0  0  0  0  0
   10.4179  -14.9370   31.0801 O   0  0  0  0  0  0  0  0  0  0  0  0
   10.1309  -15.1093   29.7335 C   0  0  0  0  0  0  0  0  0  0  0  0
    9.9208  -16.3368   29.1480 C   0  0  0  0  0  0  0  0  0  0  0  0
    9.6371  -16.4836   27.8099 C   0  0  0  0  0  0  0  0  0  0  0  0
    9.5551  -15.3687   27.0029 C   0  0  0  0  0  0  0  0  0  0  0  0
    9.2729  -15.4500   25.5519 C   0  0  0  0  0  0  0  0  0  0  0  0
   10.5012  -15.7807   24.7840 C   0  0  2  0  0  0  0  0  0  0  0  0
   10.2098  -16.0557   23.3753 N   0  0  0  0  0  0  0  0  0  0  0  0
   11.2486  -16.9375   25.3157 C   0  0  0  0  0  0  0  0  0  0  0  0
   10.8025  -18.1204   25.1917 O   0  0  0  0  0  0  0  0  0  0  0  0
    9.7688  -14.1320   27.6012 C   0  0  0  0  0  0  0  0  0  0  0  0
   10.0481  -13.9963   28.9226 C   0  0  0  0  0  0  0  0  0  0  0  0
   12.4742  -16.8393   25.9794 O   0  0  0  0  0  0  0  0  0  0  0  0
  2  1  1  0
  2  4  1  0
  3  2  2  0
  5  4  1  0
  6  5  1  0
  6  7  1  6
  8  6  1  0
  8  9  2  0
 10  8  1  0
 11 10  1  0
 11 12  1  6
 13 12  1  0
 14 13  1  0
 15 14  1  0
 16 15  1  0
 17 11  1  0
 17 26  1  0
 18 17  2  0
 19 20  1  0
 20 30  2  0
 20 21  1  0
 21 22  2  0
 22 23  1  0
 23 24  1  0
 25 24  1  1
 25 26  1  0
 25 27  1  0
 27 28  2  0
 27 31  1  0
 29 23  2  0
 30 29  1  0
M  END
$$$$
