QKY.pdb
     RDKit          3D

 31 31  0  0  1  0  0  0  0  0999 V2000
   12.8335  -20.2458   17.8388 N   0  0  0  0  0  0  0  0  0  0  0  0
   12.4618  -21.2509   18.7755 C   0  0  0  0  0  0  0  0  0  0  0  0
   12.7039  -22.4297   18.4697 O   0  0  0  0  0  0  0  0  0  0  0  0
   11.8178  -20.8685   20.0340 C   0  0  0  0  0  0  0  0  0  0  0  0
   11.5312  -19.4205   20.2306 C   0  0  0  0  0  0  0  0  0  0  0  0
   10.9032  -19.1553   21.5518 C   0  0  2  0  0  0  0  0  0  0  0  0
    9.6063  -19.7721   21.6375 N   0  0  0  0  0  0  0  0  0  0  0  0
   10.7169  -17.7069   21.8174 C   0  0  0  0  0  0  0  0  0  0  0  0
   11.6811  -16.9187   21.8346 O   0  0  0  0  0  0  0  0  0  0  0  0
    9.4076  -17.2196   22.0552 N   0  0  0  0  0  0  0  0  0  0  0  0
    9.1071  -15.8192   22.1936 C   0  0  1  0  0  0  0  0  0  0  0  0
    7.8633  -15.3446   21.5680 C   0  0  0  0  0  0  0  0  0  0  0  0
    7.6373  -13.9534   21.2023 C   0  0  0  0  0  0  0  0  0  0  0  0
    7.9461  -13.5346   19.7964 C   0  0  0  0  0  0  0  0  0  0  0  0
    7.6515  -12.0696   19.5452 C   0  0  0  0  0  0  0  0  0  0  0  0
    7.8494  -11.7544   18.1368 N   0  0  0  0  0  0  0  0  0  0  0  0
    9.2745  -15.4191   23.6105 C   0  0  0  0  0  0  0  0  0  0  0  0
    8.9271  -14.2629   23.9493 O   0  0  0  0  0  0  0  0  0  0  0  0
    5.7324  -11.0589   26.2827 O   0  0  0  0  0  0  0  0  0  0  0  0
    6.3332  -12.3091   26.3209 C   0  0  0  0  0  0  0  0  0  0  0  0
    5.7767  -13.4412   25.7709 C   0  0  0  0  0  0  0  0  0  0  0  0
    6.3912  -14.6710   25.8206 C   0  0  0  0  0  0  0  0  0  0  0  0
    7.6154  -14.7983   26.4420 C   0  0  0  0  0  0  0  0  0  0  0  0
    8.3269  -16.0919   26.5511 C   0  0  0  0  0  0  0  0  0  0  0  0
    9.7196  -15.9828   26.0448 C   0  0  2  0  0  0  0  0  0  0  0  0
    9.8054  -16.2666   24.6106 N   0  0  0  0  0  0  0  0  0  0  0  0
   10.6790  -16.8710   26.7304 C   0  0  0  0  0  0  0  0  0  0  0  0
   10.8012  -16.8542   27.9947 O   0  0  0  0  0  0  0  0  0  0  0  0
    8.1712  -13.6505   26.9955 C   0  0  0  0  0  0  0  0  0  0  0  0
    7.5580  -12.4406   26.9419 C   0  0  0  0  0  0  0  0  0  0  0  0
   11.5102  -17.7815   26.0728 O   0  0  0  0  0  0  0  0  0  0  0  0
  2  1  1  0
  2  4  1  0
  3  2  2  0
  5  4  1  0
  6  5  1  0
  6  7  1  6
  8  6  1  0
  8  9  2  0
 10  8  1  0
 11 10  1  0
 11 12  1  1
 13 12  1  0
 14 13  1  0
 15 14  1  0
 16 15  1  0
 17 11  1  0
 17 26  1  0
 18 17  2  0
 19 20  1  0
 20 30  2  0
 20 21  1  0
 21 22  2  0
 22 23  1  0
 23 24  1  0
 25 24  1  1
 25 26  1  0
 25 27  1  0
 27 28  2  0
 27 31  1  0
 29 23  2  0
 30 29  1  0
M  END
$$$$
