QKY.pdb
     RDKit          3D

 31 31  0  0  1  0  0  0  0  0999 V2000
    7.5707  -12.2715   16.0610 N   0  0  0  0  0  0  0  0  0  0  0  0
    7.4338  -13.5532   15.4575 C   0  0  0  0  0  0  0  0  0  0  0  0
    7.4919  -13.6067   14.2185 O   0  0  0  0  0  0  0  0  0  0  0  0
    7.2291  -14.7342   16.2992 C   0  0  0  0  0  0  0  0  0  0  0  0
    7.2094  -14.5159   17.7720 C   0  0  0  0  0  0  0  0  0  0  0  0
    8.5005  -14.8943   18.4047 C   0  0  2  0  0  0  0  0  0  0  0  0
    9.1882  -15.8829   17.6178 N   0  0  0  0  0  0  0  0  0  0  0  0
    8.3274  -15.4615   19.7654 C   0  0  0  0  0  0  0  0  0  0  0  0
    7.6224  -14.8955   20.6220 O   0  0  0  0  0  0  0  0  0  0  0  0
    8.9834  -16.6757   20.0870 N   0  0  0  0  0  0  0  0  0  0  0  0
    8.8141  -17.3461   21.3489 C   0  0  1  0  0  0  0  0  0  0  0  0
    9.0877  -18.7912   21.3723 C   0  0  0  0  0  0  0  0  0  0  0  0
    8.1104  -19.7925   20.9692 C   0  0  0  0  0  0  0  0  0  0  0  0
    8.4940  -20.7575   19.8881 C   0  0  0  0  0  0  0  0  0  0  0  0
    7.3505  -21.6652   19.4825 C   0  0  0  0  0  0  0  0  0  0  0  0
    7.8176  -22.6612   18.5275 N   0  0  0  0  0  0  0  0  0  0  0  0
    9.4996  -16.5731   22.4111 C   0  0  0  0  0  0  0  0  0  0  0  0
   10.7145  -16.3012   22.2619 O   0  0  0  0  0  0  0  0  0  0  0  0
   11.2698  -14.6660   30.8444 O   0  0  0  0  0  0  0  0  0  0  0  0
   10.6475  -14.7391   29.6063 C   0  0  0  0  0  0  0  0  0  0  0  0
   10.5226  -13.6695   28.7497 C   0  0  0  0  0  0  0  0  0  0  0  0
    9.9013  -13.7655   27.5260 C   0  0  0  0  0  0  0  0  0  0  0  0
    9.3746  -14.9735   27.1204 C   0  0  0  0  0  0  0  0  0  0  0  0
    8.6760  -15.1481   25.8269 C   0  0  0  0  0  0  0  0  0  0  0  0
    9.5866  -15.7118   24.7970 C   0  0  2  0  0  0  0  0  0  0  0  0
    8.8637  -16.1203   23.5905 N   0  0  0  0  0  0  0  0  0  0  0  0
   10.3695  -16.8748   25.2594 C   0  0  0  0  0  0  0  0  0  0  0  0
   11.6118  -16.7743   25.5045 O   0  0  0  0  0  0  0  0  0  0  0  0
    9.5043  -16.0495   27.9912 C   0  0  0  0  0  0  0  0  0  0  0  0
   10.1190  -15.9459   29.1969 C   0  0  0  0  0  0  0  0  0  0  0  0
    9.8323  -18.1483   25.4645 O   0  0  0  0  0  0  0  0  0  0  0  0
  2  1  1  0
  2  4  1  0
  3  2  2  0
  5  4  1  0
  6  5  1  0
  6  7  1  6
  8  6  1  0
  8  9  2  0
 10  8  1  0
 11 10  1  0
 11 12  1  6
 13 12  1  0
 14 13  1  0
 15 14  1  0
 16 15  1  0
 17 11  1  0
 17 26  1  0
 18 17  2  0
 19 20  1  0
 20 30  2  0
 20 21  1  0
 21 22  2  0
 22 23  1  0
 23 24  1  0
 25 24  1  1
 25 26  1  0
 25 27  1  0
 27 28  2  0
 27 31  1  0
 29 23  2  0
 30 29  1  0
M  END
$$$$
