QKY.pdb
     RDKit          3D

 31 31  0  0  1  0  0  0  0  0999 V2000
    9.9374  -13.7318   17.4166 N   0  0  0  0  0  0  0  0  0  0  0  0
    8.6065  -13.4822   16.9782 C   0  0  0  0  0  0  0  0  0  0  0  0
    8.4541  -13.1297   15.7975 O   0  0  0  0  0  0  0  0  0  0  0  0
    7.4915  -13.6412   17.9144 C   0  0  0  0  0  0  0  0  0  0  0  0
    7.8227  -14.1431   19.2766 C   0  0  0  0  0  0  0  0  0  0  0  0
    8.2293  -15.5730   19.2557 C   0  0  2  0  0  0  0  0  0  0  0  0
    7.1938  -16.3934   18.6862 N   0  0  0  0  0  0  0  0  0  0  0  0
    8.5151  -16.1074   20.6106 C   0  0  0  0  0  0  0  0  0  0  0  0
    7.6664  -16.0619   21.5210 O   0  0  0  0  0  0  0  0  0  0  0  0
    9.7860  -16.6810   20.8637 N   0  0  0  0  0  0  0  0  0  0  0  0
   10.1376  -17.2787   22.1247 C   0  0  1  0  0  0  0  0  0  0  0  0
   11.2581  -18.2315   22.1155 C   0  0  0  0  0  0  0  0  0  0  0  0
   11.7130  -18.9359   23.3060 C   0  0  0  0  0  0  0  0  0  0  0  0
   12.8662  -19.8837   23.1674 C   0  0  0  0  0  0  0  0  0  0  0  0
   13.2335  -20.5522   24.4766 C   0  0  0  0  0  0  0  0  0  0  0  0
   12.2384  -21.5592   24.8200 N   0  0  0  0  0  0  0  0  0  0  0  0
   10.2378  -16.2213   23.1579 C   0  0  0  0  0  0  0  0  0  0  0  0
   10.4604  -15.0441   22.7877 O   0  0  0  0  0  0  0  0  0  0  0  0
    5.7979  -10.5350   27.0302 O   0  0  0  0  0  0  0  0  0  0  0  0
    6.3568  -11.6723   26.4649 C   0  0  0  0  0  0  0  0  0  0  0  0
    7.2359  -11.6464   25.4065 C   0  0  0  0  0  0  0  0  0  0  0  0
    7.7780  -12.7876   24.8622 C   0  0  0  0  0  0  0  0  0  0  0  0
    7.4409  -14.0192   25.3824 C   0  0  0  0  0  0  0  0  0  0  0  0
    7.9690  -15.2901   24.8369 C   0  0  0  0  0  0  0  0  0  0  0  0
    9.2879  -15.6236   25.4343 C   0  0  2  0  0  0  0  0  0  0  0  0
   10.0971  -16.4597   24.5449 N   0  0  0  0  0  0  0  0  0  0  0  0
    9.2001  -16.3164   26.7350 C   0  0  0  0  0  0  0  0  0  0  0  0
    9.0088  -17.5706   26.7991 O   0  0  0  0  0  0  0  0  0  0  0  0
    6.5520  -14.0376   26.4513 C   0  0  0  0  0  0  0  0  0  0  0  0
    6.0219  -12.9065   26.9824 C   0  0  0  0  0  0  0  0  0  0  0  0
    9.3175  -15.6770   27.9718 O   0  0  0  0  0  0  0  0  0  0  0  0
  2  1  1  0
  2  4  1  0
  3  2  2  0
  5  4  1  0
  6  5  1  0
  6  7  1  1
  8  6  1  0
  8  9  2  0
 10  8  1  0
 11 10  1  0
 11 12  1  6
 13 12  1  0
 14 13  1  0
 15 14  1  0
 16 15  1  0
 17 11  1  0
 17 26  1  0
 18 17  2  0
 19 20  1  0
 20 30  2  0
 20 21  1  0
 21 22  2  0
 22 23  1  0
 23 24  1  0
 25 24  1  6
 25 26  1  0
 25 27  1  0
 27 28  2  0
 27 31  1  0
 29 23  2  0
 30 29  1  0
M  END
$$$$
