QKY.pdb
     RDKit          3D

 31 31  0  0  1  0  0  0  0  0999 V2000
   10.8773  -17.5505   15.4631 N   0  0  0  0  0  0  0  0  0  0  0  0
    9.8610  -17.1797   16.3880 C   0  0  0  0  0  0  0  0  0  0  0  0
    9.1161  -16.2397   16.0668 O   0  0  0  0  0  0  0  0  0  0  0  0
    9.7363  -17.8995   17.6574 C   0  0  0  0  0  0  0  0  0  0  0  0
   10.9427  -17.9401   18.5294 C   0  0  0  0  0  0  0  0  0  0  0  0
   10.5836  -17.9191   19.9720 C   0  0  2  0  0  0  0  0  0  0  0  0
    9.3665  -18.6486   20.2093 N   0  0  0  0  0  0  0  0  0  0  0  0
   10.3774  -16.5440   20.4913 C   0  0  0  0  0  0  0  0  0  0  0  0
   11.2566  -15.6685   20.3832 O   0  0  0  0  0  0  0  0  0  0  0  0
    9.1481  -16.2302   21.1227 N   0  0  0  0  0  0  0  0  0  0  0  0
    8.8031  -14.8987   21.5453 C   0  0  1  0  0  0  0  0  0  0  0  0
    7.4303  -14.4507   21.2654 C   0  0  0  0  0  0  0  0  0  0  0  0
    6.8447  -14.4663   19.9324 C   0  0  0  0  0  0  0  0  0  0  0  0
    7.7097  -14.0613   18.7770 C   0  0  0  0  0  0  0  0  0  0  0  0
    7.0000  -14.1857   17.4440 C   0  0  0  0  0  0  0  0  0  0  0  0
    7.8841  -13.7635   16.3659 N   0  0  0  0  0  0  0  0  0  0  0  0
    9.2414  -14.6996   22.9467 C   0  0  0  0  0  0  0  0  0  0  0  0
    8.8333  -13.6859   23.5615 O   0  0  0  0  0  0  0  0  0  0  0  0
   10.7678  -15.1113   31.3973 O   0  0  0  0  0  0  0  0  0  0  0  0
   10.4182  -15.0961   30.0546 C   0  0  0  0  0  0  0  0  0  0  0  0
   10.3611  -13.9515   29.2929 C   0  0  0  0  0  0  0  0  0  0  0  0
   10.0118  -13.9606   27.9622 C   0  0  0  0  0  0  0  0  0  0  0  0
    9.7023  -15.1542   27.3455 C   0  0  0  0  0  0  0  0  0  0  0  0
    9.2997  -15.2395   25.9234 C   0  0  0  0  0  0  0  0  0  0  0  0
   10.4815  -15.4193   25.0409 C   0  0  2  0  0  0  0  0  0  0  0  0
   10.0974  -15.5885   23.6378 N   0  0  0  0  0  0  0  0  0  0  0  0
   11.3359  -16.5660   25.4077 C   0  0  0  0  0  0  0  0  0  0  0  0
   11.0901  -17.7336   24.9717 O   0  0  0  0  0  0  0  0  0  0  0  0
    9.7619  -16.3064   28.1213 C   0  0  0  0  0  0  0  0  0  0  0  0
   10.1076  -16.2884   29.4339 C   0  0  0  0  0  0  0  0  0  0  0  0
   12.4559  -16.4736   26.2379 O   0  0  0  0  0  0  0  0  0  0  0  0
  2  1  1  0
  2  4  1  0
  3  2  2  0
  5  4  1  0
  6  5  1  0
  6  7  1  6
  8  6  1  0
  8  9  2  0
 10  8  1  0
 11 10  1  0
 11 12  1  1
 13 12  1  0
 14 13  1  0
 15 14  1  0
 16 15  1  0
 17 11  1  0
 17 26  1  0
 18 17  2  0
 19 20  1  0
 20 30  2  0
 20 21  1  0
 21 22  2  0
 22 23  1  0
 23 24  1  0
 25 24  1  1
 25 26  1  0
 25 27  1  0
 27 28  2  0
 27 31  1  0
 29 23  2  0
 30 29  1  0
M  END
$$$$
