QKY.pdb
     RDKit          3D

 31 31  0  0  1  0  0  0  0  0999 V2000
    7.2813  -15.4549   16.5093 N   0  0  0  0  0  0  0  0  0  0  0  0
    7.8153  -14.1357   16.5240 C   0  0  0  0  0  0  0  0  0  0  0  0
    8.2995  -13.7071   15.4641 O   0  0  0  0  0  0  0  0  0  0  0  0
    7.7801  -13.3515   17.7605 C   0  0  0  0  0  0  0  0  0  0  0  0
    7.4404  -14.0832   19.0121 C   0  0  0  0  0  0  0  0  0  0  0  0
    8.4133  -13.7998   20.1000 C   0  0  2  0  0  0  0  0  0  0  0  0
    9.7551  -13.7343   19.5854 N   0  0  0  0  0  0  0  0  0  0  0  0
    8.4026  -14.8360   21.1627 C   0  0  0  0  0  0  0  0  0  0  0  0
    7.3612  -15.1217   21.7831 O   0  0  0  0  0  0  0  0  0  0  0  0
    9.6105  -15.5101   21.4705 N   0  0  0  0  0  0  0  0  0  0  0  0
    9.6718  -16.6378   22.3622 C   0  0  1  0  0  0  0  0  0  0  0  0
   10.1073  -17.9173   21.7816 C   0  0  0  0  0  0  0  0  0  0  0  0
   10.2519  -19.1373   22.5632 C   0  0  0  0  0  0  0  0  0  0  0  0
   10.7092  -20.3777   21.8566 C   0  0  0  0  0  0  0  0  0  0  0  0
   10.8619  -21.5602   22.7918 C   0  0  0  0  0  0  0  0  0  0  0  0
   11.2864  -22.7366   22.0447 N   0  0  0  0  0  0  0  0  0  0  0  0
   10.3894  -16.2475   23.5985 C   0  0  0  0  0  0  0  0  0  0  0  0
   11.5067  -16.7675   23.8296 O   0  0  0  0  0  0  0  0  0  0  0  0
    5.9376  -10.4593   27.0069 O   0  0  0  0  0  0  0  0  0  0  0  0
    6.4775  -11.7182   26.7853 C   0  0  0  0  0  0  0  0  0  0  0  0
    7.7943  -12.0378   27.0252 C   0  0  0  0  0  0  0  0  0  0  0  0
    8.3078  -13.2937   26.7981 C   0  0  0  0  0  0  0  0  0  0  0  0
    7.4877  -14.2889   26.3101 C   0  0  0  0  0  0  0  0  0  0  0  0
    7.9737  -15.6576   26.0235 C   0  0  0  0  0  0  0  0  0  0  0  0
    9.4532  -15.6848   25.8894 C   0  0  2  0  0  0  0  0  0  0  0  0
    9.8883  -15.3185   24.5399 N   0  0  0  0  0  0  0  0  0  0  0  0
   10.0615  -16.9908   26.2117 C   0  0  0  0  0  0  0  0  0  0  0  0
    9.9225  -17.5140   27.3610 O   0  0  0  0  0  0  0  0  0  0  0  0
    6.1588  -13.9586   26.0698 C   0  0  0  0  0  0  0  0  0  0  0  0
    5.6603  -12.7166   26.2968 C   0  0  0  0  0  0  0  0  0  0  0  0
   10.8180  -17.7453   25.3114 O   0  0  0  0  0  0  0  0  0  0  0  0
  2  1  1  0
  2  4  1  0
  3  2  2  0
  5  4  1  0
  6  5  1  0
  6  7  1  6
  8  6  1  0
  8  9  2  0
 10  8  1  0
 11 10  1  0
 11 12  1  6
 13 12  1  0
 14 13  1  0
 15 14  1  0
 16 15  1  0
 17 11  1  0
 17 26  1  0
 18 17  2  0
 19 20  1  0
 20 30  2  0
 20 21  1  0
 21 22  2  0
 22 23  1  0
 23 24  1  0
 25 24  1  6
 25 26  1  0
 25 27  1  0
 27 28  2  0
 27 31  1  0
 29 23  2  0
 30 29  1  0
M  END
$$$$
