QKY.pdb
     RDKit          3D

 31 31  0  0  1  0  0  0  0  0999 V2000
    9.3974  -13.1518   17.3664 N   0  0  0  0  0  0  0  0  0  0  0  0
    8.1071  -13.5817   16.9468 C   0  0  0  0  0  0  0  0  0  0  0  0
    7.8923  -13.6247   15.7248 O   0  0  0  0  0  0  0  0  0  0  0  0
    7.1013  -13.9444   17.9477 C   0  0  0  0  0  0  0  0  0  0  0  0
    7.5254  -13.9016   19.3744 C   0  0  0  0  0  0  0  0  0  0  0  0
    8.2691  -15.1274   19.7676 C   0  0  2  0  0  0  0  0  0  0  0  0
    7.9277  -16.2323   18.9118 N   0  0  0  0  0  0  0  0  0  0  0  0
    7.9827  -15.5492   21.1615 C   0  0  0  0  0  0  0  0  0  0  0  0
    7.8349  -14.7171   22.0763 O   0  0  0  0  0  0  0  0  0  0  0  0
    7.8766  -16.9331   21.4475 N   0  0  0  0  0  0  0  0  0  0  0  0
    7.6092  -17.4411   22.7670 C   0  0  1  0  0  0  0  0  0  0  0  0
    7.2049  -18.8521   22.8632 C   0  0  0  0  0  0  0  0  0  0  0  0
    5.8385  -19.3048   22.6440 C   0  0  0  0  0  0  0  0  0  0  0  0
    5.6036  -20.3644   21.6099 C   0  0  0  0  0  0  0  0  0  0  0  0
    4.1314  -20.6359   21.3755 C   0  0  0  0  0  0  0  0  0  0  0  0
    3.9668  -21.6006   20.2964 N   0  0  0  0  0  0  0  0  0  0  0  0
    8.7147  -17.0548   23.6749 C   0  0  0  0  0  0  0  0  0  0  0  0
    9.8722  -16.9646   23.2013 O   0  0  0  0  0  0  0  0  0  0  0  0
    5.5796  -11.6360   27.1960 O   0  0  0  0  0  0  0  0  0  0  0  0
    6.6666  -12.4467   26.9018 C   0  0  0  0  0  0  0  0  0  0  0  0
    7.6085  -12.8281   27.8297 C   0  0  0  0  0  0  0  0  0  0  0  0
    8.6787  -13.6333   27.5150 C   0  0  0  0  0  0  0  0  0  0  0  0
    8.8341  -14.0887   26.2230 C   0  0  0  0  0  0  0  0  0  0  0  0
    9.9698  -14.9420   25.8063 C   0  0  0  0  0  0  0  0  0  0  0  0
    9.6363  -16.3835   25.9424 C   0  0  2  0  0  0  0  0  0  0  0  0
    8.5435  -16.7799   25.0517 N   0  0  0  0  0  0  0  0  0  0  0  0
    9.2596  -16.7860   27.3119 C   0  0  0  0  0  0  0  0  0  0  0  0
    8.1226  -17.2969   27.5566 O   0  0  0  0  0  0  0  0  0  0  0  0
    7.8789  -13.6991   25.2909 C   0  0  0  0  0  0  0  0  0  0  0  0
    6.8257  -12.9043   25.6101 C   0  0  0  0  0  0  0  0  0  0  0  0
   10.0925  -16.6479   28.4252 O   0  0  0  0  0  0  0  0  0  0  0  0
  2  1  1  0
  2  4  1  0
  3  2  2  0
  5  4  1  0
  6  5  1  0
  6  7  1  6
  8  6  1  0
  8  9  2  0
 10  8  1  0
 11 10  1  0
 11 12  1  6
 13 12  1  0
 14 13  1  0
 15 14  1  0
 16 15  1  0
 17 11  1  0
 17 26  1  0
 18 17  2  0
 19 20  1  0
 20 30  2  0
 20 21  1  0
 21 22  2  0
 22 23  1  0
 23 24  1  0
 25 24  1  1
 25 26  1  0
 25 27  1  0
 27 28  2  0
 27 31  1  0
 29 23  2  0
 30 29  1  0
M  END
$$$$
