QKK.pdb
     RDKit          3D

 28 27  0  0  1  0  0  0  0  0999 V2000
   15.7449  -14.0892   17.8142 N   0  0  0  0  0  0  0  0  0  0  0  0
   14.8438  -14.3036   18.9195 C   0  0  0  0  0  0  0  0  0  0  0  0
   15.3725  -14.6019   20.0061 O   0  0  0  0  0  0  0  0  0  0  0  0
   13.3911  -14.1576   18.6974 C   0  0  0  0  0  0  0  0  0  0  0  0
   12.6559  -15.4512   18.6337 C   0  0  0  0  0  0  0  0  0  0  0  0
   11.1825  -15.2175   18.5793 C   0  0  2  0  0  0  0  0  0  0  0  0
   10.9732  -13.7718   18.4734 N   0  0  0  0  0  0  0  0  0  0  0  0
   10.4914  -15.6764   19.8101 C   0  0  0  0  0  0  0  0  0  0  0  0
   10.0952  -14.8138   20.6522 O   0  0  0  0  0  0  0  0  0  0  0  0
   10.2884  -17.0526   20.0212 N   0  0  0  0  0  0  0  0  0  0  0  0
    9.4236  -17.4749   21.1623 C   0  0  1  0  0  0  0  0  0  0  0  0
    9.0176  -18.8984   20.8728 C   0  0  0  0  0  0  0  0  0  0  0  0
    8.2790  -19.5618   21.9734 C   0  0  0  0  0  0  0  0  0  0  0  0
    7.9575  -20.9994   21.6605 C   0  0  0  0  0  0  0  0  0  0  0  0
    7.2577  -21.6879   22.8017 C   0  0  0  0  0  0  0  0  0  0  0  0
    7.0319  -23.0825   22.5542 N   0  0  0  0  0  0  0  0  0  0  0  0
   10.2122  -17.2861   22.3839 C   0  0  0  0  0  0  0  0  0  0  0  0
   11.4468  -17.5597   22.3677 O   0  0  0  0  0  0  0  0  0  0  0  0
    9.6913  -16.8104   23.5932 N   0  0  0  0  0  0  0  0  0  0  0  0
   10.5339  -16.6065   24.7772 C   0  0  1  0  0  0  0  0  0  0  0  0
    9.7130  -15.7845   25.7344 C   0  0  0  0  0  0  0  0  0  0  0  0
   10.3904  -15.5362   27.0510 C   0  0  0  0  0  0  0  0  0  0  0  0
    9.5511  -14.6613   27.9401 C   0  0  0  0  0  0  0  0  0  0  0  0
   10.2452  -14.3640   29.2528 C   0  0  0  0  0  0  0  0  0  0  0  0
    9.4653  -13.4163   30.0160 N   0  0  0  0  0  0  0  0  0  0  0  0
   10.9167  -17.9225   25.2970 C   0  0  0  0  0  0  0  0  0  0  0  0
   12.1496  -18.0912   25.8952 O   0  0  0  0  0  0  0  0  0  0  0  0
   10.1457  -18.8938   25.2073 O   0  0  0  0  0  0  0  0  0  0  0  0
  2  1  1  0
  3  2  2  0
  4  2  1  0
  5  4  1  0
  6  8  1  0
  6  5  1  0
  6  7  1  1
  8  9  2  0
 10 11  1  0
 10  8  1  0
 12 13  1  0
 11 12  1  6
 13 14  1  0
 14 15  1  0
 15 16  1  0
 17 18  2  0
 17 11  1  0
 19 17  1  0
 20 26  1  0
 20 19  1  0
 20 21  1  1
 22 21  1  0
 23 24  1  0
 23 22  1  0
 25 24  1  0
 26 27  1  0
 28 26  2  0
M  END
$$$$
