QKK.pdb
     RDKit          3D

 28 27  0  0  1  0  0  0  0  0999 V2000
   13.8987  -14.0658   17.5544 N   0  0  0  0  0  0  0  0  0  0  0  0
   13.0924  -13.4778   18.5955 C   0  0  0  0  0  0  0  0  0  0  0  0
   13.7040  -13.0909   19.6081 O   0  0  0  0  0  0  0  0  0  0  0  0
   11.6326  -13.3737   18.3975 C   0  0  0  0  0  0  0  0  0  0  0  0
   10.8310  -14.1298   19.3993 C   0  0  0  0  0  0  0  0  0  0  0  0
   11.3791  -15.5063   19.5820 C   0  0  2  0  0  0  0  0  0  0  0  0
   11.1230  -16.2462   18.3443 N   0  0  0  0  0  0  0  0  0  0  0  0
   10.7085  -16.2403   20.6841 C   0  0  0  0  0  0  0  0  0  0  0  0
   10.3228  -15.5971   21.7076 O   0  0  0  0  0  0  0  0  0  0  0  0
   10.5129  -17.6295   20.5758 N   0  0  0  0  0  0  0  0  0  0  0  0
    9.8971  -18.3508   21.7286 C   0  0  1  0  0  0  0  0  0  0  0  0
    9.9735  -19.8187   21.3904 C   0  0  0  0  0  0  0  0  0  0  0  0
    9.5912  -20.7247   22.4994 C   0  0  0  0  0  0  0  0  0  0  0  0
    8.3388  -21.5037   22.1950 C   0  0  0  0  0  0  0  0  0  0  0  0
    7.9528  -22.4246   23.3214 C   0  0  0  0  0  0  0  0  0  0  0  0
    6.7441  -23.1496   23.0564 N   0  0  0  0  0  0  0  0  0  0  0  0
   10.6390  -17.9461   22.9266 C   0  0  0  0  0  0  0  0  0  0  0  0
   11.9034  -17.9540   22.8994 O   0  0  0  0  0  0  0  0  0  0  0  0
   10.0403  -17.5375   24.1244 N   0  0  0  0  0  0  0  0  0  0  0  0
   10.8312  -17.0978   25.2797 C   0  0  1  0  0  0  0  0  0  0  0  0
    9.9084  -16.2542   26.1178 C   0  0  0  0  0  0  0  0  0  0  0  0
   10.5061  -15.8232   27.4259 C   0  0  0  0  0  0  0  0  0  0  0  0
    9.5609  -14.9412   28.1935 C   0  0  0  0  0  0  0  0  0  0  0  0
   10.1866  -14.4268   29.4730 C   0  0  0  0  0  0  0  0  0  0  0  0
    9.3172  -13.4474   30.0844 N   0  0  0  0  0  0  0  0  0  0  0  0
   11.3383  -18.2898   25.9658 C   0  0  0  0  0  0  0  0  0  0  0  0
   12.6253  -18.2977   26.4656 O   0  0  0  0  0  0  0  0  0  0  0  0
   10.6249  -19.2985   26.1055 O   0  0  0  0  0  0  0  0  0  0  0  0
  2  1  1  0
  3  2  2  0
  4  2  1  0
  5  4  1  0
  6  8  1  0
  6  5  1  0
  6  7  1  6
  8  9  2  0
 10 11  1  0
 10  8  1  0
 12 13  1  0
 11 12  1  6
 13 14  1  0
 14 15  1  0
 15 16  1  0
 17 18  2  0
 17 11  1  0
 19 17  1  0
 20 26  1  0
 20 19  1  0
 20 21  1  1
 22 21  1  0
 23 24  1  0
 23 22  1  0
 25 24  1  0
 26 27  1  0
 28 26  2  0
M  END
$$$$
