QKK.pdb
     RDKit          3D

 28 27  0  0  1  0  0  0  0  0999 V2000
    8.2152  -12.1953   16.1537 N   0  0  0  0  0  0  0  0  0  0  0  0
    8.0499  -13.3620   15.3223 C   0  0  0  0  0  0  0  0  0  0  0  0
    8.2853  -13.2075   14.1100 O   0  0  0  0  0  0  0  0  0  0  0  0
    7.6253  -14.6313   15.9465 C   0  0  0  0  0  0  0  0  0  0  0  0
    7.3983  -14.5367   17.4154 C   0  0  0  0  0  0  0  0  0  0  0  0
    8.6306  -14.9223   18.1646 C   0  0  2  0  0  0  0  0  0  0  0  0
    9.3761  -15.8625   17.3248 N   0  0  0  0  0  0  0  0  0  0  0  0
    8.3229  -15.6156   19.4405 C   0  0  0  0  0  0  0  0  0  0  0  0
    7.5596  -15.0491   20.2810 O   0  0  0  0  0  0  0  0  0  0  0  0
    8.8800  -16.8823   19.6950 N   0  0  0  0  0  0  0  0  0  0  0  0
    8.5823  -17.5380   21.0027 C   0  0  1  0  0  0  0  0  0  0  0  0
    8.6972  -19.0223   20.7601 C   0  0  0  0  0  0  0  0  0  0  0  0
    7.6275  -19.8317   21.3908 C   0  0  0  0  0  0  0  0  0  0  0  0
    7.7420  -21.2943   21.0506 C   0  0  0  0  0  0  0  0  0  0  0  0
    6.6552  -22.1150   21.6920 C   0  0  0  0  0  0  0  0  0  0  0  0
    6.8101  -23.5214   21.4577 N   0  0  0  0  0  0  0  0  0  0  0  0
    9.5300  -16.9889   21.9773 C   0  0  0  0  0  0  0  0  0  0  0  0
   10.7476  -16.8747   21.6548 O   0  0  0  0  0  0  0  0  0  0  0  0
    9.1806  -16.5672   23.2658 N   0  0  0  0  0  0  0  0  0  0  0  0
   10.1591  -15.9687   24.1811 C   0  0  1  0  0  0  0  0  0  0  0  0
    9.3705  -15.4638   25.3596 C   0  0  0  0  0  0  0  0  0  0  0  0
   10.2194  -14.8526   26.4365 C   0  0  0  0  0  0  0  0  0  0  0  0
    9.3792  -14.3737   27.5878 C   0  0  0  0  0  0  0  0  0  0  0  0
   10.2131  -13.6669   28.6359 C   0  0  0  0  0  0  0  0  0  0  0  0
    9.3508  -13.1006   29.6481 N   0  0  0  0  0  0  0  0  0  0  0  0
   11.1514  -16.9924   24.5213 C   0  0  0  0  0  0  0  0  0  0  0  0
   10.7614  -18.3112   24.6445 O   0  0  0  0  0  0  0  0  0  0  0  0
   12.3442  -16.6911   24.7018 O   0  0  0  0  0  0  0  0  0  0  0  0
  2  1  1  0
  3  2  2  0
  4  2  1  0
  5  4  1  0
  6  8  1  0
  6  5  1  0
  6  7  1  6
  8  9  2  0
 10 11  1  0
 10  8  1  0
 12 13  1  0
 11 12  1  6
 13 14  1  0
 14 15  1  0
 15 16  1  0
 17 18  2  0
 17 11  1  0
 19 17  1  0
 20 26  1  0
 20 19  1  0
 20 21  1  1
 22 21  1  0
 23 24  1  0
 23 22  1  0
 25 24  1  0
 26 27  1  0
 28 26  2  0
M  END
$$$$
