QKK.pdb
     RDKit          3D

 28 27  0  0  1  0  0  0  0  0999 V2000
    8.5749  -21.0895   19.2502 N   0  0  0  0  0  0  0  0  0  0  0  0
    8.7528  -21.1475   17.8202 C   0  0  0  0  0  0  0  0  0  0  0  0
    8.9135  -22.2822   17.3347 O   0  0  0  0  0  0  0  0  0  0  0  0
    8.7315  -19.8908   17.0448 C   0  0  0  0  0  0  0  0  0  0  0  0
    8.4860  -18.6753   17.8695 C   0  0  0  0  0  0  0  0  0  0  0  0
    9.3687  -17.5541   17.4308 C   0  0  2  0  0  0  0  0  0  0  0  0
   10.4873  -18.1427   16.6912 N   0  0  0  0  0  0  0  0  0  0  0  0
    9.9408  -16.8035   18.5764 C   0  0  0  0  0  0  0  0  0  0  0  0
   11.2017  -16.7458   18.7072 O   0  0  0  0  0  0  0  0  0  0  0  0
    9.0802  -16.1719   19.4929 N   0  0  0  0  0  0  0  0  0  0  0  0
    9.6847  -15.3525   20.5845 C   0  0  1  0  0  0  0  0  0  0  0  0
    8.6075  -14.3970   21.0336 C   0  0  0  0  0  0  0  0  0  0  0  0
    8.4115  -13.2298   20.1413 C   0  0  0  0  0  0  0  0  0  0  0  0
    7.3592  -13.4816   19.0938 C   0  0  0  0  0  0  0  0  0  0  0  0
    7.1540  -12.2917   18.1949 C   0  0  0  0  0  0  0  0  0  0  0  0
    6.1493  -12.5169   17.1965 N   0  0  0  0  0  0  0  0  0  0  0  0
   10.1541  -16.2910   21.6084 C   0  0  0  0  0  0  0  0  0  0  0  0
    9.3893  -17.2259   21.9833 O   0  0  0  0  0  0  0  0  0  0  0  0
   11.4156  -16.2325   22.2130 N   0  0  0  0  0  0  0  0  0  0  0  0
   11.9527  -17.3466   23.0028 C   0  0  1  0  0  0  0  0  0  0  0  0
   12.7361  -18.1983   22.0402 C   0  0  0  0  0  0  0  0  0  0  0  0
   13.3644  -19.4048   22.6753 C   0  0  0  0  0  0  0  0  0  0  0  0
   14.0315  -20.2771   21.6484 C   0  0  0  0  0  0  0  0  0  0  0  0
   14.7076  -21.4747   22.2824 C   0  0  0  0  0  0  0  0  0  0  0  0
   13.7196  -22.4755   22.6161 N   0  0  0  0  0  0  0  0  0  0  0  0
   12.7554  -16.7869   24.0941 C   0  0  0  0  0  0  0  0  0  0  0  0
   13.0935  -15.4483   24.0799 O   0  0  0  0  0  0  0  0  0  0  0  0
   13.1386  -17.5014   25.0368 O   0  0  0  0  0  0  0  0  0  0  0  0
  2  1  1  0
  3  2  2  0
  4  2  1  0
  5  4  1  0
  6  8  1  0
  6  5  1  0
  6  7  1  1
  8  9  2  0
 10 11  1  0
 10  8  1  0
 12 13  1  0
 11 12  1  1
 13 14  1  0
 14 15  1  0
 15 16  1  0
 17 18  2  0
 17 11  1  0
 19 17  1  0
 20 26  1  0
 20 19  1  0
 20 21  1  6
 22 21  1  0
 23 24  1  0
 23 22  1  0
 25 24  1  0
 26 27  1  0
 28 26  2  0
M  END
$$$$
