QKK.pdb
     RDKit          3D

 28 27  0  0  1  0  0  0  0  0999 V2000
    9.9042  -16.2746   26.9050 N   0  0  0  0  0  0  0  0  0  0  0  0
    8.9589  -16.8785   27.8114 C   0  0  0  0  0  0  0  0  0  0  0  0
    9.0125  -16.4936   28.9938 O   0  0  0  0  0  0  0  0  0  0  0  0
    8.0125  -17.8861   27.2918 C   0  0  0  0  0  0  0  0  0  0  0  0
    8.1679  -18.1688   25.8379 C   0  0  0  0  0  0  0  0  0  0  0  0
    6.9176  -17.8256   25.0980 C   0  0  2  0  0  0  0  0  0  0  0  0
    5.9985  -18.9563   25.2456 N   0  0  0  0  0  0  0  0  0  0  0  0
    7.1546  -17.6338   23.6454 C   0  0  0  0  0  0  0  0  0  0  0  0
    7.3882  -18.6484   22.9200 O   0  0  0  0  0  0  0  0  0  0  0  0
    7.1166  -16.3373   23.1002 N   0  0  0  0  0  0  0  0  0  0  0  0
    7.9468  -16.0510   21.8931 C   0  0  1  0  0  0  0  0  0  0  0  0
    7.4173  -14.7603   21.3198 C   0  0  0  0  0  0  0  0  0  0  0  0
    8.0634  -14.3405   20.0536 C   0  0  0  0  0  0  0  0  0  0  0  0
    7.3032  -13.2399   19.3617 C   0  0  0  0  0  0  0  0  0  0  0  0
    7.7724  -13.0254   17.9475 C   0  0  0  0  0  0  0  0  0  0  0  0
    6.9710  -12.0729   17.2351 N   0  0  0  0  0  0  0  0  0  0  0  0
    9.3429  -16.0105   22.3390 C   0  0  0  0  0  0  0  0  0  0  0  0
    9.6258  -15.4242   23.4233 O   0  0  0  0  0  0  0  0  0  0  0  0
   10.4106  -16.5891   21.6422 N   0  0  0  0  0  0  0  0  0  0  0  0
   11.7799  -16.5816   22.1698 C   0  0  1  0  0  0  0  0  0  0  0  0
   12.1639  -18.0261   22.3484 C   0  0  0  0  0  0  0  0  0  0  0  0
   13.5990  -18.2248   22.7416 C   0  0  0  0  0  0  0  0  0  0  0  0
   13.9114  -19.6807   22.9494 C   0  0  0  0  0  0  0  0  0  0  0  0
   15.3607  -19.8952   23.3327 C   0  0  0  0  0  0  0  0  0  0  0  0
   15.6185  -21.3068   23.5046 N   0  0  0  0  0  0  0  0  0  0  0  0
   12.6291  -15.8507   21.2247 C   0  0  0  0  0  0  0  0  0  0  0  0
   12.2446  -15.7373   19.9035 O   0  0  0  0  0  0  0  0  0  0  0  0
   13.6951  -15.3289   21.5952 O   0  0  0  0  0  0  0  0  0  0  0  0
  2  1  1  0
  3  2  2  0
  4  2  1  0
  5  4  1  0
  6  8  1  0
  6  5  1  0
  6  7  1  6
  8  9  2  0
 10 11  1  0
 10  8  1  0
 12 13  1  0
 11 12  1  1
 13 14  1  0
 14 15  1  0
 15 16  1  0
 17 18  2  0
 17 11  1  0
 19 17  1  0
 20 26  1  0
 20 19  1  0
 20 21  1  6
 22 21  1  0
 23 24  1  0
 23 22  1  0
 25 24  1  0
 26 27  1  0
 28 26  2  0
M  END
$$$$
