QKK.pdb
     RDKit          3D

 28 27  0  0  1  0  0  0  0  0999 V2000
    1.1212  -19.8210   22.2848 N   0  0  0  0  0  0  0  0  0  0  0  0
    2.0734  -19.3678   21.3011 C   0  0  0  0  0  0  0  0  0  0  0  0
    1.8255  -19.6711   20.1197 O   0  0  0  0  0  0  0  0  0  0  0  0
    3.2486  -18.5923   21.7467 C   0  0  0  0  0  0  0  0  0  0  0  0
    4.3876  -19.4327   22.2098 C   0  0  0  0  0  0  0  0  0  0  0  0
    5.2567  -18.6684   23.1528 C   0  0  2  0  0  0  0  0  0  0  0  0
    4.4205  -17.6467   23.7868 N   0  0  0  0  0  0  0  0  0  0  0  0
    6.3643  -17.9660   22.4579 C   0  0  0  0  0  0  0  0  0  0  0  0
    7.1857  -18.6428   21.7670 O   0  0  0  0  0  0  0  0  0  0  0  0
    6.4841  -16.5691   22.5763 N   0  0  0  0  0  0  0  0  0  0  0  0
    7.6211  -15.8937   21.8839 C   0  0  1  0  0  0  0  0  0  0  0  0
    7.1558  -14.4890   21.5918 C   0  0  0  0  0  0  0  0  0  0  0  0
    8.1434  -13.6534   20.8684 C   0  0  0  0  0  0  0  0  0  0  0  0
    7.8169  -13.5215   19.4042 C   0  0  0  0  0  0  0  0  0  0  0  0
    8.8338  -12.6923   18.6663 C   0  0  0  0  0  0  0  0  0  0  0  0
    8.4490  -12.4175   17.3122 N   0  0  0  0  0  0  0  0  0  0  0  0
    8.7805  -15.9952   22.7756 C   0  0  0  0  0  0  0  0  0  0  0  0
    8.6432  -15.7051   23.9989 O   0  0  0  0  0  0  0  0  0  0  0  0
   10.0561  -16.4029   22.3674 N   0  0  0  0  0  0  0  0  0  0  0  0
   11.1907  -16.4569   23.2965 C   0  0  1  0  0  0  0  0  0  0  0  0
   11.3363  -17.9023   23.6905 C   0  0  0  0  0  0  0  0  0  0  0  0
   12.5560  -18.1818   24.5200 C   0  0  0  0  0  0  0  0  0  0  0  0
   12.6666  -19.6439   24.8525 C   0  0  0  0  0  0  0  0  0  0  0  0
   13.9213  -19.9465   25.6447 C   0  0  0  0  0  0  0  0  0  0  0  0
   13.9580  -21.3500   25.9873 N   0  0  0  0  0  0  0  0  0  0  0  0
   12.3646  -15.9026   22.6160 C   0  0  0  0  0  0  0  0  0  0  0  0
   12.3557  -15.7562   21.2431 O   0  0  0  0  0  0  0  0  0  0  0  0
   13.3731  -15.5606   23.2580 O   0  0  0  0  0  0  0  0  0  0  0  0
  2  1  1  0
  3  2  2  0
  4  2  1  0
  5  4  1  0
  6  8  1  0
  6  5  1  0
  6  7  1  6
  8  9  2  0
 10 11  1  0
 10  8  1  0
 12 13  1  0
 11 12  1  1
 13 14  1  0
 14 15  1  0
 15 16  1  0
 17 18  2  0
 17 11  1  0
 19 17  1  0
 20 26  1  0
 20 19  1  0
 20 21  1  6
 22 21  1  0
 23 24  1  0
 23 22  1  0
 25 24  1  0
 26 27  1  0
 28 26  2  0
M  END
$$$$
