QKK.pdb
     RDKit          3D

 28 27  0  0  1  0  0  0  0  0999 V2000
    7.3543  -11.9630   18.1469 N   0  0  0  0  0  0  0  0  0  0  0  0
    7.0857  -13.3650   17.9418 C   0  0  0  0  0  0  0  0  0  0  0  0
    6.2754  -13.6400   17.0380 O   0  0  0  0  0  0  0  0  0  0  0  0
    7.7724  -14.3573   18.7931 C   0  0  0  0  0  0  0  0  0  0  0  0
    8.6570  -13.7562   19.8295 C   0  0  0  0  0  0  0  0  0  0  0  0
    9.2592  -14.8184   20.6884 C   0  0  2  0  0  0  0  0  0  0  0  0
    9.5085  -15.9816   19.8341 N   0  0  0  0  0  0  0  0  0  0  0  0
    8.3453  -15.2535   21.7740 C   0  0  0  0  0  0  0  0  0  0  0  0
    7.9529  -14.4008   22.6278 O   0  0  0  0  0  0  0  0  0  0  0  0
    7.9318  -16.5969   21.8377 N   0  0  0  0  0  0  0  0  0  0  0  0
    7.1207  -17.0342   23.0121 C   0  0  1  0  0  0  0  0  0  0  0  0
    6.3365  -18.2376   22.5519 C   0  0  0  0  0  0  0  0  0  0  0  0
    5.1139  -17.9145   21.7789 C   0  0  0  0  0  0  0  0  0  0  0  0
    4.4350  -19.1468   21.2419 C   0  0  0  0  0  0  0  0  0  0  0  0
    3.1586  -18.8221   20.5129 C   0  0  0  0  0  0  0  0  0  0  0  0
    2.4824  -19.9911   20.0298 N   0  0  0  0  0  0  0  0  0  0  0  0
    8.0622  -17.2835   24.1080 C   0  0  0  0  0  0  0  0  0  0  0  0
    9.1723  -17.8329   23.8526 O   0  0  0  0  0  0  0  0  0  0  0  0
    7.8222  -16.9474   25.4458 N   0  0  0  0  0  0  0  0  0  0  0  0
    8.7875  -17.2483   26.5093 C   0  0  1  0  0  0  0  0  0  0  0  0
    8.8684  -16.0089   27.3595 C   0  0  0  0  0  0  0  0  0  0  0  0
    9.7812  -16.1477   28.5434 C   0  0  0  0  0  0  0  0  0  0  0  0
    9.8909  -14.8545   29.3025 C   0  0  0  0  0  0  0  0  0  0  0  0
   10.7895  -14.9888   30.5140 C   0  0  0  0  0  0  0  0  0  0  0  0
   10.9550  -13.7000   31.1468 N   0  0  0  0  0  0  0  0  0  0  0  0
    8.3182  -18.4361   27.2287 C   0  0  0  0  0  0  0  0  0  0  0  0
    7.0347  -18.9008   27.0213 O   0  0  0  0  0  0  0  0  0  0  0  0
    9.0606  -19.0346   28.0267 O   0  0  0  0  0  0  0  0  0  0  0  0
  2  1  1  0
  3  2  2  0
  4  2  1  0
  5  4  1  0
  6  8  1  0
  6  5  1  0
  6  7  1  6
  8  9  2  0
 10 11  1  0
 10  8  1  0
 12 13  1  0
 11 12  1  6
 13 14  1  0
 14 15  1  0
 15 16  1  0
 17 18  2  0
 17 11  1  0
 19 17  1  0
 20 26  1  0
 20 19  1  0
 20 21  1  1
 22 21  1  0
 23 24  1  0
 23 22  1  0
 25 24  1  0
 26 27  1  0
 28 26  2  0
M  END
$$$$
