QKK.pdb
     RDKit          3D

 28 27  0  0  1  0  0  0  0  0999 V2000
   16.5435  -17.5926   18.1148 N   0  0  0  0  0  0  0  0  0  0  0  0
   15.3290  -17.8040   17.3666 C   0  0  0  0  0  0  0  0  0  0  0  0
   15.4705  -18.1945   16.1932 O   0  0  0  0  0  0  0  0  0  0  0  0
   14.0306  -17.5523   18.0236 C   0  0  0  0  0  0  0  0  0  0  0  0
   14.1447  -17.1340   19.4484 C   0  0  0  0  0  0  0  0  0  0  0  0
   13.0652  -17.7586   20.2687 C   0  0  2  0  0  0  0  0  0  0  0  0
   12.0794  -18.3174   19.3408 N   0  0  0  0  0  0  0  0  0  0  0  0
   12.3599  -16.7701   21.1222 C   0  0  0  0  0  0  0  0  0  0  0  0
   13.0412  -16.0077   21.8737 O   0  0  0  0  0  0  0  0  0  0  0  0
   10.9554  -16.6956   21.0839 N   0  0  0  0  0  0  0  0  0  0  0  0
   10.2727  -15.7149   21.9788 C   0  0  1  0  0  0  0  0  0  0  0  0
    8.9179  -15.4640   21.3652 C   0  0  0  0  0  0  0  0  0  0  0  0
    8.9270  -14.5196   20.2228 C   0  0  0  0  0  0  0  0  0  0  0  0
    7.5503  -14.2976   19.6540 C   0  0  0  0  0  0  0  0  0  0  0  0
    7.5631  -13.3489   18.4853 C   0  0  0  0  0  0  0  0  0  0  0  0
    6.2612  -13.1504   17.9172 N   0  0  0  0  0  0  0  0  0  0  0  0
   10.2514  -16.3082   23.3194 C   0  0  0  0  0  0  0  0  0  0  0  0
   10.3300  -17.5649   23.4375 O   0  0  0  0  0  0  0  0  0  0  0  0
   10.1532  -15.5719   24.5061 N   0  0  0  0  0  0  0  0  0  0  0  0
   10.1991  -16.2124   25.8257 C   0  0  1  0  0  0  0  0  0  0  0  0
   10.2096  -15.0920   26.8309 C   0  0  0  0  0  0  0  0  0  0  0  0
   10.2831  -15.5601   28.2554 C   0  0  0  0  0  0  0  0  0  0  0  0
   10.3349  -14.3991   29.2093 C   0  0  0  0  0  0  0  0  0  0  0  0
   10.3401  -14.8577   30.6526 C   0  0  0  0  0  0  0  0  0  0  0  0
   10.5208  -13.7214   31.5273 N   0  0  0  0  0  0  0  0  0  0  0  0
    9.0426  -17.1058   25.9397 C   0  0  0  0  0  0  0  0  0  0  0  0
    7.9513  -16.9235   25.1137 O   0  0  0  0  0  0  0  0  0  0  0  0
    9.0283  -18.0293   26.7721 O   0  0  0  0  0  0  0  0  0  0  0  0
  2  1  1  0
  3  2  2  0
  4  2  1  0
  5  4  1  0
  6  8  1  0
  6  5  1  0
  6  7  1  6
  8  9  2  0
 10 11  1  0
 10  8  1  0
 12 13  1  0
 11 12  1  6
 13 14  1  0
 14 15  1  0
 15 16  1  0
 17 18  2  0
 17 11  1  0
 19 17  1  0
 20 26  1  0
 20 19  1  0
 20 21  1  1
 22 21  1  0
 23 24  1  0
 23 22  1  0
 25 24  1  0
 26 27  1  0
 28 26  2  0
M  END
$$$$
