QKK.pdb
     RDKit          3D

 28 27  0  0  1  0  0  0  0  0999 V2000
    8.7577  -12.8505   18.7320 N   0  0  0  0  0  0  0  0  0  0  0  0
    8.4559  -13.7554   17.6505 C   0  0  0  0  0  0  0  0  0  0  0  0
    8.6346  -13.3127   16.5010 O   0  0  0  0  0  0  0  0  0  0  0  0
    7.9693  -15.1132   17.9679 C   0  0  0  0  0  0  0  0  0  0  0  0
    9.0400  -16.1478   17.9979 C   0  0  0  0  0  0  0  0  0  0  0  0
    8.4988  -17.4520   18.4826 C   0  0  2  0  0  0  0  0  0  0  0  0
    7.4147  -17.8385   17.5770 N   0  0  0  0  0  0  0  0  0  0  0  0
    7.9226  -17.3531   19.8469 C   0  0  0  0  0  0  0  0  0  0  0  0
    6.7202  -16.9706   19.9817 O   0  0  0  0  0  0  0  0  0  0  0  0
    8.7151  -17.6832   20.9617 N   0  0  0  0  0  0  0  0  0  0  0  0
    8.0441  -17.8475   22.2850 C   0  0  1  0  0  0  0  0  0  0  0  0
    8.4435  -19.2123   22.7879 C   0  0  0  0  0  0  0  0  0  0  0  0
    7.8677  -19.5736   24.1051 C   0  0  0  0  0  0  0  0  0  0  0  0
    8.4077  -20.8794   24.6259 C   0  0  0  0  0  0  0  0  0  0  0  0
    7.7883  -21.2676   25.9419 C   0  0  0  0  0  0  0  0  0  0  0  0
    8.3258  -22.4879   26.4700 N   0  0  0  0  0  0  0  0  0  0  0  0
    8.4747  -16.7227   23.1210 C   0  0  0  0  0  0  0  0  0  0  0  0
    9.7050  -16.4356   23.1801 O   0  0  0  0  0  0  0  0  0  0  0  0
    7.6071  -15.9208   23.8721 N   0  0  0  0  0  0  0  0  0  0  0  0
    8.0954  -14.8252   24.7175 C   0  0  1  0  0  0  0  0  0  0  0  0
    6.8693  -14.1211   25.2338 C   0  0  0  0  0  0  0  0  0  0  0  0
    7.1725  -13.0050   26.1910 C   0  0  0  0  0  0  0  0  0  0  0  0
    5.9774  -12.1140   26.3868 C   0  0  0  0  0  0  0  0  0  0  0  0
    6.2592  -11.0063   27.3802 C   0  0  0  0  0  0  0  0  0  0  0  0
    5.0611  -10.2283   27.5997 N   0  0  0  0  0  0  0  0  0  0  0  0
    8.9399  -15.4011   25.7681 C   0  0  0  0  0  0  0  0  0  0  0  0
   10.0800  -14.7358   26.1729 O   0  0  0  0  0  0  0  0  0  0  0  0
    8.6449  -16.4841   26.3030 O   0  0  0  0  0  0  0  0  0  0  0  0
  2  1  1  0
  3  2  2  0
  4  2  1  0
  5  4  1  0
  6  8  1  0
  6  5  1  0
  6  7  1  6
  8  9  2  0
 10 11  1  0
 10  8  1  0
 12 13  1  0
 11 12  1  1
 13 14  1  0
 14 15  1  0
 15 16  1  0
 17 18  2  0
 17 11  1  0
 19 17  1  0
 20 26  1  0
 20 19  1  0
 20 21  1  1
 22 21  1  0
 23 24  1  0
 23 22  1  0
 25 24  1  0
 26 27  1  0
 28 26  2  0
M  END
$$$$
