QKK.pdb
     RDKit          3D

 28 27  0  0  1  0  0  0  0  0999 V2000
    9.5578  -14.8377   15.9258 N   0  0  0  0  0  0  0  0  0  0  0  0
    8.2054  -14.8887   16.4238 C   0  0  0  0  0  0  0  0  0  0  0  0
    7.3524  -14.2786   15.7535 O   0  0  0  0  0  0  0  0  0  0  0  0
    7.9269  -15.6426   17.6628 C   0  0  0  0  0  0  0  0  0  0  0  0
    9.1220  -16.3159   18.2426 C   0  0  0  0  0  0  0  0  0  0  0  0
    8.7602  -17.0459   19.4936 C   0  0  2  0  0  0  0  0  0  0  0  0
    7.2983  -17.1108   19.5540 N   0  0  0  0  0  0  0  0  0  0  0  0
    9.2232  -16.3398   20.7143 C   0  0  0  0  0  0  0  0  0  0  0  0
   10.4468  -16.0187   20.8136 O   0  0  0  0  0  0  0  0  0  0  0  0
    8.3026  -16.0403   21.7353 N   0  0  0  0  0  0  0  0  0  0  0  0
    8.8165  -15.4284   22.9963 C   0  0  1  0  0  0  0  0  0  0  0  0
    7.6849  -14.5971   23.5472 C   0  0  0  0  0  0  0  0  0  0  0  0
    7.9861  -13.9267   24.8343 C   0  0  0  0  0  0  0  0  0  0  0  0
    6.8184  -13.1272   25.3491 C   0  0  0  0  0  0  0  0  0  0  0  0
    7.1239  -12.4516   26.6592 C   0  0  0  0  0  0  0  0  0  0  0  0
    6.0153  -11.6955   27.1657 N   0  0  0  0  0  0  0  0  0  0  0  0
    9.2559  -16.5328   23.8546 C   0  0  0  0  0  0  0  0  0  0  0  0
    8.4593  -17.4878   24.0848 O   0  0  0  0  0  0  0  0  0  0  0  0
   10.5211  -16.6149   24.4484 N   0  0  0  0  0  0  0  0  0  0  0  0
   10.8896  -17.7151   25.3468 C   0  0  1  0  0  0  0  0  0  0  0  0
   12.3306  -18.0308   25.0475 C   0  0  0  0  0  0  0  0  0  0  0  0
   12.9131  -19.0917   25.9357 C   0  0  0  0  0  0  0  0  0  0  0  0
   14.3762  -19.2951   25.6557 C   0  0  0  0  0  0  0  0  0  0  0  0
   14.9962  -20.2972   26.6068 C   0  0  0  0  0  0  0  0  0  0  0  0
   16.4203  -20.3780   26.3738 N   0  0  0  0  0  0  0  0  0  0  0  0
   10.6479  -17.2792   26.7252 C   0  0  0  0  0  0  0  0  0  0  0  0
   10.4591  -18.2193   27.7186 O   0  0  0  0  0  0  0  0  0  0  0  0
   10.6099  -16.0708   27.0157 O   0  0  0  0  0  0  0  0  0  0  0  0
  2  1  1  0
  3  2  2  0
  4  2  1  0
  5  4  1  0
  6  8  1  0
  6  5  1  0
  6  7  1  1
  8  9  2  0
 10 11  1  0
 10  8  1  0
 12 13  1  0
 11 12  1  1
 13 14  1  0
 14 15  1  0
 15 16  1  0
 17 18  2  0
 17 11  1  0
 19 17  1  0
 20 26  1  0
 20 19  1  0
 20 21  1  1
 22 21  1  0
 23 24  1  0
 23 22  1  0
 25 24  1  0
 26 27  1  0
 28 26  2  0
M  END
$$$$
