QKK.pdb
     RDKit          3D

 28 27  0  0  1  0  0  0  0  0999 V2000
   13.6981  -21.4260   16.2745 N   0  0  0  0  0  0  0  0  0  0  0  0
   12.3574  -20.9572   16.0245 C   0  0  0  0  0  0  0  0  0  0  0  0
   11.8331  -21.3406   14.9628 O   0  0  0  0  0  0  0  0  0  0  0  0
   11.7097  -20.0777   17.0185 C   0  0  0  0  0  0  0  0  0  0  0  0
   12.5601  -19.7745   18.2029 C   0  0  0  0  0  0  0  0  0  0  0  0
   11.7843  -19.9475   19.4665 C   0  0  2  0  0  0  0  0  0  0  0  0
   10.4389  -20.3918   19.0956 N   0  0  0  0  0  0  0  0  0  0  0  0
   11.6395  -18.6768   20.2197 C   0  0  0  0  0  0  0  0  0  0  0  0
   12.6675  -18.1531   20.7479 O   0  0  0  0  0  0  0  0  0  0  0  0
   10.3716  -18.0776   20.3347 N   0  0  0  0  0  0  0  0  0  0  0  0
   10.2604  -16.7921   21.0854 C   0  0  1  0  0  0  0  0  0  0  0  0
    9.0725  -16.0697   20.5006 C   0  0  0  0  0  0  0  0  0  0  0  0
    8.8405  -14.7169   21.0603 C   0  0  0  0  0  0  0  0  0  0  0  0
    7.9073  -13.8982   20.2078 C   0  0  0  0  0  0  0  0  0  0  0  0
    7.6170  -12.5509   20.8132 C   0  0  0  0  0  0  0  0  0  0  0  0
    6.6289  -11.8140   20.0799 N   0  0  0  0  0  0  0  0  0  0  0  0
   10.1437  -17.1394   22.5050 C   0  0  0  0  0  0  0  0  0  0  0  0
    9.3100  -18.0232   22.8559 O   0  0  0  0  0  0  0  0  0  0  0  0
   10.9063  -16.5570   23.5246 N   0  0  0  0  0  0  0  0  0  0  0  0
   10.7285  -16.9217   24.9349 C   0  0  1  0  0  0  0  0  0  0  0  0
   12.0076  -17.5956   25.3539 C   0  0  0  0  0  0  0  0  0  0  0  0
   11.8200  -19.0107   25.8187 C   0  0  0  0  0  0  0  0  0  0  0  0
   13.1279  -19.6285   26.2285 C   0  0  0  0  0  0  0  0  0  0  0  0
   12.9750  -21.0976   26.5626 C   0  0  0  0  0  0  0  0  0  0  0  0
   14.2727  -21.6792   26.8208 N   0  0  0  0  0  0  0  0  0  0  0  0
   10.4228  -15.7011   25.6868 C   0  0  0  0  0  0  0  0  0  0  0  0
   10.4581  -14.4766   25.0500 O   0  0  0  0  0  0  0  0  0  0  0  0
   10.1310  -15.7509   26.8944 O   0  0  0  0  0  0  0  0  0  0  0  0
  2  1  1  0
  3  2  2  0
  4  2  1  0
  5  4  1  0
  6  8  1  0
  6  5  1  0
  6  7  1  6
  8  9  2  0
 10 11  1  0
 10  8  1  0
 12 13  1  0
 11 12  1  6
 13 14  1  0
 14 15  1  0
 15 16  1  0
 17 18  2  0
 17 11  1  0
 19 17  1  0
 20 26  1  0
 20 19  1  0
 20 21  1  1
 22 21  1  0
 23 24  1  0
 23 22  1  0
 25 24  1  0
 26 27  1  0
 28 26  2  0
M  END
$$$$
