QKK.pdb
     RDKit          3D

 28 27  0  0  1  0  0  0  0  0999 V2000
    1.4270  -19.9053   20.7506 N   0  0  0  0  0  0  0  0  0  0  0  0
    2.3944  -20.0732   21.8068 C   0  0  0  0  0  0  0  0  0  0  0  0
    1.9484  -20.4697   22.8990 O   0  0  0  0  0  0  0  0  0  0  0  0
    3.8141  -19.7738   21.5312 C   0  0  0  0  0  0  0  0  0  0  0  0
    4.7525  -20.2854   22.5683 C   0  0  0  0  0  0  0  0  0  0  0  0
    5.3262  -19.1583   23.3615 C   0  0  2  0  0  0  0  0  0  0  0  0
    4.2784  -18.1446   23.5010 N   0  0  0  0  0  0  0  0  0  0  0  0
    6.4770  -18.5151   22.6794 C   0  0  0  0  0  0  0  0  0  0  0  0
    7.4930  -19.2181   22.3899 O   0  0  0  0  0  0  0  0  0  0  0  0
    6.4222  -17.1443   22.3671 N   0  0  0  0  0  0  0  0  0  0  0  0
    7.6398  -16.4985   21.7937 C   0  0  1  0  0  0  0  0  0  0  0  0
    7.1775  -15.1915   21.1995 C   0  0  0  0  0  0  0  0  0  0  0  0
    8.1301  -14.5818   20.2415 C   0  0  0  0  0  0  0  0  0  0  0  0
    7.5947  -13.3127   19.6328 C   0  0  0  0  0  0  0  0  0  0  0  0
    8.5264  -12.7400   18.5983 C   0  0  0  0  0  0  0  0  0  0  0  0
    8.0113  -11.5500   17.9854 N   0  0  0  0  0  0  0  0  0  0  0  0
    8.6106  -16.3798   22.8859 C   0  0  0  0  0  0  0  0  0  0  0  0
    8.2048  -16.0464   24.0364 O   0  0  0  0  0  0  0  0  0  0  0  0
    9.9836  -16.6177   22.7501 N   0  0  0  0  0  0  0  0  0  0  0  0
   10.9235  -16.4063   23.8569 C   0  0  1  0  0  0  0  0  0  0  0  0
   10.7933  -17.6121   24.7484 C   0  0  0  0  0  0  0  0  0  0  0  0
   11.7973  -17.6491   25.8640 C   0  0  0  0  0  0  0  0  0  0  0  0
   11.6817  -18.9192   26.6602 C   0  0  0  0  0  0  0  0  0  0  0  0
   12.7243  -18.9920   27.7562 C   0  0  0  0  0  0  0  0  0  0  0  0
   12.5820  -20.2309   28.4866 N   0  0  0  0  0  0  0  0  0  0  0  0
   12.2630  -16.2251   23.2898 C   0  0  0  0  0  0  0  0  0  0  0  0
   13.2645  -15.6693   24.0607 O   0  0  0  0  0  0  0  0  0  0  0  0
   12.5130  -16.5654   22.1203 O   0  0  0  0  0  0  0  0  0  0  0  0
  2  1  1  0
  3  2  2  0
  4  2  1  0
  5  4  1  0
  6  8  1  0
  6  5  1  0
  6  7  1  6
  8  9  2  0
 10 11  1  0
 10  8  1  0
 12 13  1  0
 11 12  1  1
 13 14  1  0
 14 15  1  0
 15 16  1  0
 17 18  2  0
 17 11  1  0
 19 17  1  0
 20 26  1  0
 20 19  1  0
 20 21  1  1
 22 21  1  0
 23 24  1  0
 23 22  1  0
 25 24  1  0
 26 27  1  0
 28 26  2  0
M  END
$$$$
