YFT.pdb
     RDKit          3D

 31 32  0  0  1  0  0  0  0  0999 V2000
    7.7504  -13.9317   15.7298 O   0  0  0  0  0  0  0  0  0  0  0  0
    7.9358  -13.8421   17.0900 C   0  0  0  0  0  0  0  0  0  0  0  0
    7.4527  -12.7618   17.7742 C   0  0  0  0  0  0  0  0  0  0  0  0
    7.6430  -12.6820   19.1306 C   0  0  0  0  0  0  0  0  0  0  0  0
    8.3176  -13.6745   19.8347 C   0  0  0  0  0  0  0  0  0  0  0  0
    8.5176  -13.5770   21.2955 C   0  0  0  0  0  0  0  0  0  0  0  0
    8.9997  -14.9442   21.7670 C   0  0  2  0  0  0  0  0  0  0  0  0
    7.9187  -15.8722   21.5080 N   0  0  0  0  0  0  0  0  0  0  0  0
    9.3274  -14.9707   23.1891 C   0  0  0  0  0  0  0  0  0  0  0  0
   10.3839  -14.4043   23.5533 O   0  0  0  0  0  0  0  0  0  0  0  0
    8.8033  -14.7604   19.1478 C   0  0  0  0  0  0  0  0  0  0  0  0
    8.6123  -14.8474   17.7647 C   0  0  0  0  0  0  0  0  0  0  0  0
    8.4652  -15.6203   24.1061 N   0  0  0  0  0  0  0  0  0  0  0  0
    8.8308  -15.6276   25.5005 C   0  0  1  0  0  0  0  0  0  0  0  0
    7.6068  -15.3958   26.3385 C   0  0  0  0  0  0  0  0  0  0  0  0
    7.3247  -13.9594   26.5046 C   0  0  0  0  0  0  0  0  0  0  0  0
    6.0515  -13.4934   26.2809 C   0  0  0  0  0  0  0  0  0  0  0  0
    5.8139  -12.1531   26.4342 C   0  0  0  0  0  0  0  0  0  0  0  0
    6.8104  -11.2840   26.8012 C   0  0  0  0  0  0  0  0  0  0  0  0
    8.0926  -11.7318   27.0296 C   0  0  0  0  0  0  0  0  0  0  0  0
    8.3229  -13.0971   26.8706 C   0  0  0  0  0  0  0  0  0  0  0  0
    9.4784  -16.9379   25.8100 C   0  0  0  0  0  0  0  0  0  0  0  0
    9.6461  -17.3984   26.9614 O   0  0  0  0  0  0  0  0  0  0  0  0
   11.3869  -21.2023   24.1075 C   0  0  0  0  0  0  0  0  0  0  0  0
   10.7312  -19.8922   23.7913 C   0  0  1  0  0  0  0  0  0  0  0  0
    9.4604  -20.0735   23.2192 O   0  0  0  0  0  0  0  0  0  0  0  0
   10.5794  -19.0461   25.0402 C   0  0  2  0  0  0  0  0  0  0  0  0
    9.9619  -17.7680   24.7336 N   0  0  0  0  0  0  0  0  0  0  0  0
   11.9303  -18.8473   25.6348 C   0  0  0  0  0  0  0  0  0  0  0  0
   12.3876  -17.6716   25.7048 O   0  0  0  0  0  0  0  0  0  0  0  0
   12.6757  -19.8908   26.0996 O   0  0  0  0  0  0  0  0  0  0  0  0
  2 12  2  0
  2  1  1  0
  3  2  1  0
  4  5  1  0
  4  3  2  0
  5 11  2  0
  6  5  1  0
  6  7  1  0
  7  8  1  1
  9  7  1  0
  9 13  1  0
 10  9  2  0
 11 12  1  0
 13 14  1  0
 15 16  1  0
 14 15  1  1
 16 17  2  0
 17 18  1  0
 19 18  2  0
 20 19  1  0
 21 20  2  0
 21 16  1  0
 22 23  2  0
 22 14  1  0
 25 24  1  1
 25 27  1  0
 26 25  1  0
 27 28  1  6
 27 29  1  0
 28 22  1  0
 29 31  1  0
 30 29  2  0
M  END
$$$$
