YFT.pdb
     RDKit          3D

 31 32  0  0  1  0  0  0  0  0999 V2000
    7.1245  -14.5061   14.4990 O   0  0  0  0  0  0  0  0  0  0  0  0
    7.6288  -14.7312   15.7590 C   0  0  0  0  0  0  0  0  0  0  0  0
    8.8521  -14.2281   16.1037 C   0  0  0  0  0  0  0  0  0  0  0  0
    9.3461  -14.4584   17.3628 C   0  0  0  0  0  0  0  0  0  0  0  0
    8.6338  -15.1937   18.3053 C   0  0  0  0  0  0  0  0  0  0  0  0
    9.1766  -15.4362   19.6580 C   0  0  0  0  0  0  0  0  0  0  0  0
    8.6854  -14.2952   20.5416 C   0  0  2  0  0  0  0  0  0  0  0  0
    9.4409  -13.1221   20.1546 N   0  0  0  0  0  0  0  0  0  0  0  0
    8.8882  -14.5516   21.9641 C   0  0  0  0  0  0  0  0  0  0  0  0
    9.9593  -14.1559   22.4796 O   0  0  0  0  0  0  0  0  0  0  0  0
    7.4044  -15.6994   17.9596 C   0  0  0  0  0  0  0  0  0  0  0  0
    6.8955  -15.4679   16.6773 C   0  0  0  0  0  0  0  0  0  0  0  0
    7.8939  -15.2258   22.7145 N   0  0  0  0  0  0  0  0  0  0  0  0
    8.0961  -15.3808   24.1334 C   0  0  1  0  0  0  0  0  0  0  0  0
    6.7985  -15.1457   24.8510 C   0  0  0  0  0  0  0  0  0  0  0  0
    6.7318  -13.7909   25.4258 C   0  0  0  0  0  0  0  0  0  0  0  0
    5.8100  -12.8970   24.9368 C   0  0  0  0  0  0  0  0  0  0  0  0
    5.7709  -11.6406   25.4814 C   0  0  0  0  0  0  0  0  0  0  0  0
    6.6233  -11.2678   26.4900 C   0  0  0  0  0  0  0  0  0  0  0  0
    7.5541  -12.1494   26.9933 C   0  0  0  0  0  0  0  0  0  0  0  0
    7.5850  -13.4246   26.4318 C   0  0  0  0  0  0  0  0  0  0  0  0
    8.6319  -16.7526   24.3850 C   0  0  0  0  0  0  0  0  0  0  0  0
    8.1328  -17.8087   23.9360 O   0  0  0  0  0  0  0  0  0  0  0  0
   11.3108  -18.5256   23.2020 C   0  0  0  0  0  0  0  0  0  0  0  0
   11.5813  -18.5275   24.6761 C   0  0  1  0  0  0  0  0  0  0  0  0
   12.5366  -17.5591   25.0289 O   0  0  0  0  0  0  0  0  0  0  0  0
   10.3122  -18.2585   25.4609 C   0  0  2  0  0  0  0  0  0  0  0  0
    9.8102  -16.9211   25.2002 N   0  0  0  0  0  0  0  0  0  0  0  0
   10.6145  -18.4330   26.9087 C   0  0  0  0  0  0  0  0  0  0  0  0
   10.4885  -17.4343   27.6722 O   0  0  0  0  0  0  0  0  0  0  0  0
   11.0189  -19.6298   27.4232 O   0  0  0  0  0  0  0  0  0  0  0  0
  2 12  2  0
  2  1  1  0
  3  2  1  0
  4  5  1  0
  4  3  2  0
  5 11  2  0
  6  5  1  0
  6  7  1  0
  7  8  1  6
  9  7  1  0
  9 13  1  0
 10  9  2  0
 11 12  1  0
 13 14  1  0
 15 16  1  0
 14 15  1  1
 16 17  2  0
 17 18  1  0
 19 18  2  0
 20 19  1  0
 21 20  2  0
 21 16  1  0
 22 23  2  0
 22 14  1  0
 25 24  1  6
 25 27  1  0
 26 25  1  0
 27 28  1  1
 27 29  1  0
 28 22  1  0
 29 31  1  0
 30 29  2  0
M  END
$$$$
