YFT.pdb
     RDKit          3D

 31 32  0  0  1  0  0  0  0  0999 V2000
    8.0447  -14.1411   14.4631 O   0  0  0  0  0  0  0  0  0  0  0  0
    7.9503  -14.4995   15.7880 C   0  0  0  0  0  0  0  0  0  0  0  0
    7.9516  -13.5353   16.7569 C   0  0  0  0  0  0  0  0  0  0  0  0
    7.8572  -13.9032   18.0752 C   0  0  0  0  0  0  0  0  0  0  0  0
    7.7596  -15.2376   18.4575 C   0  0  0  0  0  0  0  0  0  0  0  0
    7.6596  -15.6219   19.8808 C   0  0  0  0  0  0  0  0  0  0  0  0
    8.9014  -15.0734   20.5741 C   0  0  2  0  0  0  0  0  0  0  0  0
   10.0118  -15.8932   20.1362 N   0  0  0  0  0  0  0  0  0  0  0  0
    8.8082  -15.1258   22.0298 C   0  0  0  0  0  0  0  0  0  0  0  0
    9.6518  -15.8208   22.6421 O   0  0  0  0  0  0  0  0  0  0  0  0
    7.7581  -16.2070   17.4844 C   0  0  0  0  0  0  0  0  0  0  0  0
    7.8541  -15.8380   16.1384 C   0  0  0  0  0  0  0  0  0  0  0  0
    7.7907  -14.4072   22.7041 N   0  0  0  0  0  0  0  0  0  0  0  0
    7.8724  -14.2901   24.1385 C   0  0  1  0  0  0  0  0  0  0  0  0
    6.8743  -13.2743   24.6140 C   0  0  0  0  0  0  0  0  0  0  0  0
    7.0006  -13.0222   26.0599 C   0  0  0  0  0  0  0  0  0  0  0  0
    6.0150  -12.3184   26.7089 C   0  0  0  0  0  0  0  0  0  0  0  0
    6.1569  -12.0895   28.0521 C   0  0  0  0  0  0  0  0  0  0  0  0
    7.2492  -12.5443   28.7470 C   0  0  0  0  0  0  0  0  0  0  0  0
    8.2475  -13.2513   28.1143 C   0  0  0  0  0  0  0  0  0  0  0  0
    8.0927  -13.4783   26.7480 C   0  0  0  0  0  0  0  0  0  0  0  0
    7.6244  -15.6372   24.7352 C   0  0  0  0  0  0  0  0  0  0  0  0
    6.5248  -16.2343   24.7208 O   0  0  0  0  0  0  0  0  0  0  0  0
    7.7905  -18.8647   24.0290 C   0  0  0  0  0  0  0  0  0  0  0  0
    8.7531  -18.7777   25.1744 C   0  0  1  0  0  0  0  0  0  0  0  0
   10.0796  -18.6504   24.7281 O   0  0  0  0  0  0  0  0  0  0  0  0
    8.4305  -17.5942   26.0655 C   0  0  2  0  0  0  0  0  0  0  0  0
    8.7031  -16.3396   25.3869 N   0  0  0  0  0  0  0  0  0  0  0  0
    9.2474  -17.7087   27.3054 C   0  0  0  0  0  0  0  0  0  0  0  0
   10.1076  -16.8140   27.5417 O   0  0  0  0  0  0  0  0  0  0  0  0
    9.0911  -18.7433   28.1806 O   0  0  0  0  0  0  0  0  0  0  0  0
  2 12  2  0
  2  1  1  0
  3  2  1  0
  4  5  1  0
  4  3  2  0
  5 11  2  0
  6  5  1  0
  6  7  1  0
  7  8  1  6
  9  7  1  0
  9 13  1  0
 10  9  2  0
 11 12  1  0
 13 14  1  0
 15 16  1  0
 14 15  1  1
 16 17  2  0
 17 18  1  0
 19 18  2  0
 20 19  1  0
 21 20  2  0
 21 16  1  0
 22 23  2  0
 22 14  1  0
 25 24  1  6
 25 27  1  0
 26 25  1  0
 27 28  1  6
 27 29  1  0
 28 22  1  0
 29 31  1  0
 30 29  2  0
M  END
$$$$
