YFT.pdb
     RDKit          3D

 31 32  0  0  1  0  0  0  0  0999 V2000
    7.9651  -13.2323   15.8499 O   0  0  0  0  0  0  0  0  0  0  0  0
    7.9142  -13.7869   17.1079 C   0  0  0  0  0  0  0  0  0  0  0  0
    7.7188  -15.1320   17.2526 C   0  0  0  0  0  0  0  0  0  0  0  0
    7.6694  -15.6751   18.5116 C   0  0  0  0  0  0  0  0  0  0  0  0
    7.8133  -14.8920   19.6527 C   0  0  0  0  0  0  0  0  0  0  0  0
    7.7572  -15.4881   21.0036 C   0  0  0  0  0  0  0  0  0  0  0  0
    8.9105  -14.8874   21.7991 C   0  0  2  0  0  0  0  0  0  0  0  0
   10.1288  -15.3347   21.1569 N   0  0  0  0  0  0  0  0  0  0  0  0
    8.9180  -15.3116   23.1956 C   0  0  0  0  0  0  0  0  0  0  0  0
   10.0105  -15.6797   23.6860 O   0  0  0  0  0  0  0  0  0  0  0  0
    8.0098  -13.5403   19.5080 C   0  0  0  0  0  0  0  0  0  0  0  0
    8.0611  -12.9806   18.2269 C   0  0  0  0  0  0  0  0  0  0  0  0
    7.7190  -15.2986   23.9498 N   0  0  0  0  0  0  0  0  0  0  0  0
    7.8048  -15.5064   25.3737 C   0  0  1  0  0  0  0  0  0  0  0  0
    6.5792  -14.9453   26.0347 C   0  0  0  0  0  0  0  0  0  0  0  0
    6.7129  -13.5012   26.2938 C   0  0  0  0  0  0  0  0  0  0  0  0
    5.6015  -12.7753   26.6482 C   0  0  0  0  0  0  0  0  0  0  0  0
    5.7480  -11.4327   26.8772 C   0  0  0  0  0  0  0  0  0  0  0  0
    6.9665  -10.8127   26.7600 C   0  0  0  0  0  0  0  0  0  0  0  0
    8.0920  -11.5230   26.4057 C   0  0  0  0  0  0  0  0  0  0  0  0
    7.9312  -12.8880   26.1751 C   0  0  0  0  0  0  0  0  0  0  0  0
    7.9539  -16.9712   25.6270 C   0  0  0  0  0  0  0  0  0  0  0  0
    7.0216  -17.8043   25.5757 O   0  0  0  0  0  0  0  0  0  0  0  0
    9.5834  -19.5631   23.7970 C   0  0  0  0  0  0  0  0  0  0  0  0
   10.2624  -19.5809   25.1330 C   0  0  1  0  0  0  0  0  0  0  0  0
   11.4936  -18.9041   25.0976 O   0  0  0  0  0  0  0  0  0  0  0  0
    9.3907  -18.9370   26.1933 C   0  0  2  0  0  0  0  0  0  0  0  0
    9.2502  -17.5108   25.9589 N   0  0  0  0  0  0  0  0  0  0  0  0
   10.0105  -19.1919   27.5233 C   0  0  0  0  0  0  0  0  0  0  0  0
   10.0202  -20.3762   27.9633 O   0  0  0  0  0  0  0  0  0  0  0  0
   10.5607  -18.1902   28.2679 O   0  0  0  0  0  0  0  0  0  0  0  0
  2 12  2  0
  2  1  1  0
  3  2  1  0
  4  5  1  0
  4  3  2  0
  5 11  2  0
  6  5  1  0
  6  7  1  0
  7  8  1  6
  9  7  1  0
  9 13  1  0
 10  9  2  0
 11 12  1  0
 13 14  1  0
 15 16  1  0
 14 15  1  1
 16 17  2  0
 17 18  1  0
 19 18  2  0
 20 19  1  0
 21 20  2  0
 21 16  1  0
 22 23  2  0
 22 14  1  0
 25 24  1  6
 25 27  1  0
 26 25  1  0
 27 28  1  6
 27 29  1  0
 28 22  1  0
 29 31  1  0
 30 29  2  0
M  END
$$$$
