YFT.pdb
     RDKit          3D

 31 32  0  0  1  0  0  0  0  0999 V2000
    6.4883  -19.8669   15.5330 O   0  0  0  0  0  0  0  0  0  0  0  0
    6.9760  -19.4417   16.7471 C   0  0  0  0  0  0  0  0  0  0  0  0
    8.2605  -19.7389   17.1078 C   0  0  0  0  0  0  0  0  0  0  0  0
    8.7371  -19.3103   18.3208 C   0  0  0  0  0  0  0  0  0  0  0  0
    7.9464  -18.5772   19.2003 C   0  0  0  0  0  0  0  0  0  0  0  0
    8.4704  -18.1219   20.5048 C   0  0  0  0  0  0  0  0  0  0  0  0
    8.8218  -16.6468   20.3485 C   0  0  2  0  0  0  0  0  0  0  0  0
   10.0372  -16.5955   19.5631 N   0  0  0  0  0  0  0  0  0  0  0  0
    9.0452  -15.9784   21.6266 C   0  0  0  0  0  0  0  0  0  0  0  0
   10.1845  -16.0697   22.1395 O   0  0  0  0  0  0  0  0  0  0  0  0
    6.6555  -18.2781   18.8384 C   0  0  0  0  0  0  0  0  0  0  0  0
    6.1639  -18.7124   17.6029 C   0  0  0  0  0  0  0  0  0  0  0  0
    7.9948  -15.2574   22.2459 N   0  0  0  0  0  0  0  0  0  0  0  0
    8.2533  -14.6305   23.5179 C   0  0  1  0  0  0  0  0  0  0  0  0
    7.1706  -13.6328   23.8117 C   0  0  0  0  0  0  0  0  0  0  0  0
    7.3045  -13.0666   25.1652 C   0  0  0  0  0  0  0  0  0  0  0  0
    8.4496  -12.3846   25.4991 C   0  0  0  0  0  0  0  0  0  0  0  0
    8.5554  -11.8730   26.7654 C   0  0  0  0  0  0  0  0  0  0  0  0
    7.5528  -12.0286   27.6892 C   0  0  0  0  0  0  0  0  0  0  0  0
    6.3977  -12.7090   27.3737 C   0  0  0  0  0  0  0  0  0  0  0  0
    6.3009  -13.2251   26.0827 C   0  0  0  0  0  0  0  0  0  0  0  0
    8.3270  -15.6970   24.5615 C   0  0  0  0  0  0  0  0  0  0  0  0
    7.3690  -16.4218   24.9122 O   0  0  0  0  0  0  0  0  0  0  0  0
    9.7398  -18.8279   24.4151 C   0  0  0  0  0  0  0  0  0  0  0  0
   10.4772  -18.1989   25.5583 C   0  0  1  0  0  0  0  0  0  0  0  0
   11.7258  -17.6952   25.1551 O   0  0  0  0  0  0  0  0  0  0  0  0
    9.6741  -17.0641   26.1632 C   0  0  2  0  0  0  0  0  0  0  0  0
    9.5744  -15.9456   25.2424 N   0  0  0  0  0  0  0  0  0  0  0  0
   10.3399  -16.6452   27.4279 C   0  0  0  0  0  0  0  0  0  0  0  0
   10.7918  -15.4679   27.5063 O   0  0  0  0  0  0  0  0  0  0  0  0
   10.4717  -17.4914   28.4896 O   0  0  0  0  0  0  0  0  0  0  0  0
  2 12  2  0
  2  1  1  0
  3  2  1  0
  4  5  1  0
  4  3  2  0
  5 11  2  0
  6  5  1  0
  6  7  1  0
  7  8  1  6
  9  7  1  0
  9 13  1  0
 10  9  2  0
 11 12  1  0
 13 14  1  0
 15 16  1  0
 14 15  1  1
 16 17  2  0
 17 18  1  0
 19 18  2  0
 20 19  1  0
 21 20  2  0
 21 16  1  0
 22 23  2  0
 22 14  1  0
 25 24  1  6
 25 27  1  0
 26 25  1  0
 27 28  1  6
 27 29  1  0
 28 22  1  0
 29 31  1  0
 30 29  2  0
M  END
$$$$
