YFT.pdb
     RDKit          3D

 31 32  0  0  1  0  0  0  0  0999 V2000
    7.0750  -16.1399   15.5274 O   0  0  0  0  0  0  0  0  0  0  0  0
    7.5948  -16.2002   16.7997 C   0  0  0  0  0  0  0  0  0  0  0  0
    8.6901  -15.4499   17.1250 C   0  0  0  0  0  0  0  0  0  0  0  0
    9.2008  -15.5174   18.3967 C   0  0  0  0  0  0  0  0  0  0  0  0
    8.6329  -16.3323   19.3711 C   0  0  0  0  0  0  0  0  0  0  0  0
    9.1925  -16.3977   20.7372 C   0  0  0  0  0  0  0  0  0  0  0  0
    8.4266  -15.3817   21.5767 C   0  0  2  0  0  0  0  0  0  0  0  0
    8.8689  -14.0732   21.1417 N   0  0  0  0  0  0  0  0  0  0  0  0
    8.6771  -15.5241   23.0076 C   0  0  0  0  0  0  0  0  0  0  0  0
    9.8455  -15.3300   23.4158 O   0  0  0  0  0  0  0  0  0  0  0  0
    7.5322  -17.0865   19.0449 C   0  0  0  0  0  0  0  0  0  0  0  0
    7.0069  -17.0219   17.7500 C   0  0  0  0  0  0  0  0  0  0  0  0
    7.6196  -15.8703   23.8841 N   0  0  0  0  0  0  0  0  0  0  0  0
    7.9053  -15.9713   25.2935 C   0  0  1  0  0  0  0  0  0  0  0  0
    6.7751  -15.3678   26.0762 C   0  0  0  0  0  0  0  0  0  0  0  0
    6.9597  -13.9191   26.2703 C   0  0  0  0  0  0  0  0  0  0  0  0
    6.1292  -13.0413   25.6163 C   0  0  0  0  0  0  0  0  0  0  0  0
    6.3239  -11.6986   25.8060 C   0  0  0  0  0  0  0  0  0  0  0  0
    7.3183  -11.2254   26.6246 C   0  0  0  0  0  0  0  0  0  0  0  0
    8.1608  -12.0893   27.2885 C   0  0  0  0  0  0  0  0  0  0  0  0
    7.9536  -13.4528   27.0881 C   0  0  0  0  0  0  0  0  0  0  0  0
    8.1094  -17.4125   25.6299 C   0  0  0  0  0  0  0  0  0  0  0  0
    7.2254  -18.2954   25.5593 O   0  0  0  0  0  0  0  0  0  0  0  0
   10.1617  -20.1300   24.2576 C   0  0  0  0  0  0  0  0  0  0  0  0
   10.6244  -19.9505   25.6718 C   0  0  1  0  0  0  0  0  0  0  0  0
   11.8150  -19.2067   25.7370 O   0  0  0  0  0  0  0  0  0  0  0  0
    9.5706  -19.2438   26.5018 C   0  0  2  0  0  0  0  0  0  0  0  0
    9.4051  -17.8662   26.0734 N   0  0  0  0  0  0  0  0  0  0  0  0
    9.9866  -19.3030   27.9306 C   0  0  0  0  0  0  0  0  0  0  0  0
   10.2348  -18.2179   28.5283 O   0  0  0  0  0  0  0  0  0  0  0  0
   10.1045  -20.4854   28.6004 O   0  0  0  0  0  0  0  0  0  0  0  0
  2 12  2  0
  2  1  1  0
  3  2  1  0
  4  5  1  0
  4  3  2  0
  5 11  2  0
  6  5  1  0
  6  7  1  0
  7  8  1  6
  9  7  1  0
  9 13  1  0
 10  9  2  0
 11 12  1  0
 13 14  1  0
 15 16  1  0
 14 15  1  1
 16 17  2  0
 17 18  1  0
 19 18  2  0
 20 19  1  0
 21 20  2  0
 21 16  1  0
 22 23  2  0
 22 14  1  0
 25 24  1  6
 25 27  1  0
 26 25  1  0
 27 28  1  6
 27 29  1  0
 28 22  1  0
 29 31  1  0
 30 29  2  0
M  END
$$$$
