YFT.pdb
     RDKit          3D

 31 32  0  0  1  0  0  0  0  0999 V2000
    7.8988  -14.2547   14.0461 O   0  0  0  0  0  0  0  0  0  0  0  0
    7.8947  -14.6086   15.3755 C   0  0  0  0  0  0  0  0  0  0  0  0
    7.6607  -13.6612   16.3326 C   0  0  0  0  0  0  0  0  0  0  0  0
    7.6589  -14.0246   17.6556 C   0  0  0  0  0  0  0  0  0  0  0  0
    7.8898  -15.3376   18.0543 C   0  0  0  0  0  0  0  0  0  0  0  0
    7.8867  -15.7169   19.4824 C   0  0  0  0  0  0  0  0  0  0  0  0
    8.9841  -14.9023   20.1577 C   0  0  2  0  0  0  0  0  0  0  0  0
   10.2406  -15.3838   19.6228 N   0  0  0  0  0  0  0  0  0  0  0  0
    8.9895  -15.0515   21.6096 C   0  0  0  0  0  0  0  0  0  0  0  0
    9.9642  -15.6417   22.1301 O   0  0  0  0  0  0  0  0  0  0  0  0
    8.1250  -16.2901   17.0930 C   0  0  0  0  0  0  0  0  0  0  0  0
    8.1281  -15.9257   15.7424 C   0  0  0  0  0  0  0  0  0  0  0  0
    7.9186  -14.5382   22.3817 N   0  0  0  0  0  0  0  0  0  0  0  0
    8.1426  -14.2950   23.7848 C   0  0  1  0  0  0  0  0  0  0  0  0
    7.2345  -13.1944   24.2517 C   0  0  0  0  0  0  0  0  0  0  0  0
    7.3290  -12.9914   25.7078 C   0  0  0  0  0  0  0  0  0  0  0  0
    6.2308  -13.2418   26.4948 C   0  0  0  0  0  0  0  0  0  0  0  0
    6.3393  -13.0391   27.8453 C   0  0  0  0  0  0  0  0  0  0  0  0
    7.5075  -12.5975   28.4140 C   0  0  0  0  0  0  0  0  0  0  0  0
    8.6187  -12.3409   27.6420 C   0  0  0  0  0  0  0  0  0  0  0  0
    8.4969  -12.5505   26.2696 C   0  0  0  0  0  0  0  0  0  0  0  0
    7.9022  -15.5690   24.5272 C   0  0  0  0  0  0  0  0  0  0  0  0
    6.7940  -16.1420   24.6240 O   0  0  0  0  0  0  0  0  0  0  0  0
    8.8501  -18.9023   23.8477 C   0  0  0  0  0  0  0  0  0  0  0  0
    9.4746  -18.6244   25.1815 C   0  0  1  0  0  0  0  0  0  0  0  0
   10.8358  -18.2972   25.0583 O   0  0  0  0  0  0  0  0  0  0  0  0
    8.7677  -17.4819   25.8841 C   0  0  2  0  0  0  0  0  0  0  0  0
    8.9994  -16.2232   25.1980 N   0  0  0  0  0  0  0  0  0  0  0  0
    9.2683  -17.4160   27.2851 C   0  0  0  0  0  0  0  0  0  0  0  0
    9.9576  -16.4147   27.6293 O   0  0  0  0  0  0  0  0  0  0  0  0
    9.0037  -18.3984   28.1938 O   0  0  0  0  0  0  0  0  0  0  0  0
  2 12  2  0
  2  1  1  0
  3  2  1  0
  4  5  1  0
  4  3  2  0
  5 11  2  0
  6  5  1  0
  6  7  1  0
  7  8  1  6
  9  7  1  0
  9 13  1  0
 10  9  2  0
 11 12  1  0
 13 14  1  0
 15 16  1  0
 14 15  1  1
 16 17  2  0
 17 18  1  0
 19 18  2  0
 20 19  1  0
 21 20  2  0
 21 16  1  0
 22 23  2  0
 22 14  1  0
 25 24  1  6
 25 27  1  0
 26 25  1  0
 27 28  1  6
 27 29  1  0
 28 22  1  0
 29 31  1  0
 30 29  2  0
M  END
$$$$
