YFT.pdb
     RDKit          3D

 31 32  0  0  1  0  0  0  0  0999 V2000
    7.2510  -19.9604   15.4584 O   0  0  0  0  0  0  0  0  0  0  0  0
    7.6888  -19.4933   16.6762 C   0  0  0  0  0  0  0  0  0  0  0  0
    8.7864  -18.6811   16.7403 C   0  0  0  0  0  0  0  0  0  0  0  0
    9.2148  -18.2207   17.9597 C   0  0  0  0  0  0  0  0  0  0  0  0
    8.5608  -18.5584   19.1405 C   0  0  0  0  0  0  0  0  0  0  0  0
    9.0322  -18.0574   20.4483 C   0  0  0  0  0  0  0  0  0  0  0  0
    9.1844  -16.5467   20.3131 C   0  0  2  0  0  0  0  0  0  0  0  0
   10.3753  -16.3236   19.5201 N   0  0  0  0  0  0  0  0  0  0  0  0
    9.3293  -15.8738   21.6002 C   0  0  0  0  0  0  0  0  0  0  0  0
   10.4866  -15.7449   22.0623 O   0  0  0  0  0  0  0  0  0  0  0  0
    7.4577  -19.3744   19.0768 C   0  0  0  0  0  0  0  0  0  0  0  0
    7.0161  -19.8470   17.8363 C   0  0  0  0  0  0  0  0  0  0  0  0
    8.1862  -15.3916   22.2838 N   0  0  0  0  0  0  0  0  0  0  0  0
    8.3772  -14.7138   23.5416 C   0  0  1  0  0  0  0  0  0  0  0  0
    7.2354  -13.7679   23.7772 C   0  0  0  0  0  0  0  0  0  0  0  0
    7.2857  -13.1789   25.1266 C   0  0  0  0  0  0  0  0  0  0  0  0
    8.2659  -12.2634   25.4251 C   0  0  0  0  0  0  0  0  0  0  0  0
    8.2979  -11.7342   26.6882 C   0  0  0  0  0  0  0  0  0  0  0  0
    7.3822  -12.0982   27.6431 C   0  0  0  0  0  0  0  0  0  0  0  0
    6.3925  -13.0142   27.3632 C   0  0  0  0  0  0  0  0  0  0  0  0
    6.3695  -13.5460   26.0752 C   0  0  0  0  0  0  0  0  0  0  0  0
    8.4803  -15.7430   24.6196 C   0  0  0  0  0  0  0  0  0  0  0  0
    7.5483  -16.4959   24.9809 O   0  0  0  0  0  0  0  0  0  0  0  0
   10.3693  -18.7474   24.6203 C   0  0  0  0  0  0  0  0  0  0  0  0
   10.8597  -18.0257   25.8388 C   0  0  1  0  0  0  0  0  0  0  0  0
   12.0861  -17.3817   25.6012 O   0  0  0  0  0  0  0  0  0  0  0  0
    9.8533  -16.9884   26.2968 C   0  0  2  0  0  0  0  0  0  0  0  0
    9.7272  -15.9176   25.3241 N   0  0  0  0  0  0  0  0  0  0  0  0
   10.3024  -16.4529   27.6119 C   0  0  0  0  0  0  0  0  0  0  0  0
   10.5742  -15.2219   27.6970 O   0  0  0  0  0  0  0  0  0  0  0  0
   10.4257  -17.2495   28.7123 O   0  0  0  0  0  0  0  0  0  0  0  0
  2 12  2  0
  2  1  1  0
  3  2  1  0
  4  5  1  0
  4  3  2  0
  5 11  2  0
  6  5  1  0
  6  7  1  0
  7  8  1  6
  9  7  1  0
  9 13  1  0
 10  9  2  0
 11 12  1  0
 13 14  1  0
 15 16  1  0
 14 15  1  1
 16 17  2  0
 17 18  1  0
 19 18  2  0
 20 19  1  0
 21 20  2  0
 21 16  1  0
 22 23  2  0
 22 14  1  0
 25 24  1  6
 25 27  1  0
 26 25  1  0
 27 28  1  6
 27 29  1  0
 28 22  1  0
 29 31  1  0
 30 29  2  0
M  END
$$$$
