YFT.pdb
     RDKit          3D

 31 32  0  0  1  0  0  0  0  0999 V2000
    8.2500  -20.7842   28.4976 O   0  0  0  0  0  0  0  0  0  0  0  0
    8.1815  -20.6967   27.1264 C   0  0  0  0  0  0  0  0  0  0  0  0
    7.0387  -21.0693   26.4756 C   0  0  0  0  0  0  0  0  0  0  0  0
    6.9808  -20.9783   25.1078 C   0  0  0  0  0  0  0  0  0  0  0  0
    8.0580  -20.5149   24.3588 C   0  0  0  0  0  0  0  0  0  0  0  0
    7.9843  -20.4224   22.8860 C   0  0  0  0  0  0  0  0  0  0  0  0
    7.0494  -19.2625   22.5630 C   0  0  2  0  0  0  0  0  0  0  0  0
    6.9598  -19.1974   21.1192 N   0  0  0  0  0  0  0  0  0  0  0  0
    7.5341  -17.9840   23.0739 C   0  0  0  0  0  0  0  0  0  0  0  0
    8.5951  -17.5280   22.5882 O   0  0  0  0  0  0  0  0  0  0  0  0
    9.2067  -20.1402   25.0122 C   0  0  0  0  0  0  0  0  0  0  0  0
    9.2718  -20.2308   26.4067 C   0  0  0  0  0  0  0  0  0  0  0  0
    6.8125  -17.3015   24.0838 N   0  0  0  0  0  0  0  0  0  0  0  0
    7.3451  -16.0584   24.5830 C   0  0  1  0  0  0  0  0  0  0  0  0
    6.2146  -15.1639   25.0023 C   0  0  0  0  0  0  0  0  0  0  0  0
    6.7053  -13.9051   25.5897 C   0  0  0  0  0  0  0  0  0  0  0  0
    6.4328  -13.6261   26.9073 C   0  0  0  0  0  0  0  0  0  0  0  0
    6.8928  -12.4466   27.4304 C   0  0  0  0  0  0  0  0  0  0  0  0
    7.6089  -11.5551   26.6719 C   0  0  0  0  0  0  0  0  0  0  0  0
    7.8919  -11.8166   25.3497 C   0  0  0  0  0  0  0  0  0  0  0  0
    7.4191  -13.0194   24.8281 C   0  0  0  0  0  0  0  0  0  0  0  0
    8.2655  -16.3637   25.7195 C   0  0  0  0  0  0  0  0  0  0  0  0
    7.9222  -16.9136   26.7899 O   0  0  0  0  0  0  0  0  0  0  0  0
   11.8798  -17.9199   25.1545 C   0  0  0  0  0  0  0  0  0  0  0  0
   11.9471  -16.7561   26.0964 C   0  0  1  0  0  0  0  0  0  0  0  0
   12.4432  -15.6042   25.4622 O   0  0  0  0  0  0  0  0  0  0  0  0
   10.5781  -16.4391   26.6657 C   0  0  2  0  0  0  0  0  0  0  0  0
    9.6625  -16.0171   25.6206 N   0  0  0  0  0  0  0  0  0  0  0  0
   10.7360  -15.3687   27.6891 C   0  0  0  0  0  0  0  0  0  0  0  0
   11.4151  -15.6236   28.7236 O   0  0  0  0  0  0  0  0  0  0  0  0
   10.1722  -14.1358   27.5380 O   0  0  0  0  0  0  0  0  0  0  0  0
  2 12  2  0
  2  1  1  0
  3  2  1  0
  4  5  1  0
  4  3  2  0
  5 11  2  0
  6  5  1  0
  6  7  1  0
  7  8  1  6
  9  7  1  0
  9 13  1  0
 10  9  2  0
 11 12  1  0
 13 14  1  0
 15 16  1  0
 14 15  1  1
 16 17  2  0
 17 18  1  0
 19 18  2  0
 20 19  1  0
 21 20  2  0
 21 16  1  0
 22 23  2  0
 22 14  1  0
 25 24  1  6
 25 27  1  0
 26 25  1  0
 27 28  1  6
 27 29  1  0
 28 22  1  0
 29 31  1  0
 30 29  2  0
M  END
$$$$
