YFT.pdb
     RDKit          3D

 31 32  0  0  1  0  0  0  0  0999 V2000
    8.0584  -21.2900   16.2746 O   0  0  0  0  0  0  0  0  0  0  0  0
    8.4409  -20.6085   17.4068 C   0  0  0  0  0  0  0  0  0  0  0  0
    9.7294  -20.1715   17.5370 C   0  0  0  0  0  0  0  0  0  0  0  0
   10.1007  -19.4929   18.6702 C   0  0  0  0  0  0  0  0  0  0  0  0
    9.1983  -19.2348   19.6974 C   0  0  0  0  0  0  0  0  0  0  0  0
    9.6099  -18.5039   20.9139 C   0  0  0  0  0  0  0  0  0  0  0  0
    9.4697  -17.0179   20.6043 C   0  0  2  0  0  0  0  0  0  0  0  0
   10.5658  -16.6775   19.7214 N   0  0  0  0  0  0  0  0  0  0  0  0
    9.5350  -16.1811   21.7984 C   0  0  0  0  0  0  0  0  0  0  0  0
   10.6694  -15.8680   22.2281 O   0  0  0  0  0  0  0  0  0  0  0  0
    7.9031  -19.6736   19.5672 C   0  0  0  0  0  0  0  0  0  0  0  0
    7.5187  -20.3660   18.4141 C   0  0  0  0  0  0  0  0  0  0  0  0
    8.3433  -15.7503   22.4316 N   0  0  0  0  0  0  0  0  0  0  0  0
    8.4542  -14.9694   23.6382 C   0  0  1  0  0  0  0  0  0  0  0  0
    7.2821  -14.0367   23.7383 C   0  0  0  0  0  0  0  0  0  0  0  0
    7.2584  -13.3286   25.0300 C   0  0  0  0  0  0  0  0  0  0  0  0
    8.1436  -12.3011   25.2506 C   0  0  0  0  0  0  0  0  0  0  0  0
    8.1085  -11.6618   26.4616 C   0  0  0  0  0  0  0  0  0  0  0  0
    7.2184  -12.0255   27.4405 C   0  0  0  0  0  0  0  0  0  0  0  0
    6.3236  -13.0527   27.2386 C   0  0  0  0  0  0  0  0  0  0  0  0
    6.3682  -13.6960   26.0030 C   0  0  0  0  0  0  0  0  0  0  0  0
    8.5223  -15.9061   24.8000 C   0  0  0  0  0  0  0  0  0  0  0  0
    7.5888  -16.6512   25.1736 O   0  0  0  0  0  0  0  0  0  0  0  0
   10.4513  -18.8495   25.1236 C   0  0  0  0  0  0  0  0  0  0  0  0
   10.8725  -18.0327   26.3075 C   0  0  1  0  0  0  0  0  0  0  0  0
   12.1013  -17.3890   26.0821 O   0  0  0  0  0  0  0  0  0  0  0  0
    9.8325  -16.9802   26.6382 C   0  0  2  0  0  0  0  0  0  0  0  0
    9.7338  -15.9921   25.5787 N   0  0  0  0  0  0  0  0  0  0  0  0
   10.2163  -16.3346   27.9242 C   0  0  0  0  0  0  0  0  0  0  0  0
   10.5034  -15.1042   27.9153 O   0  0  0  0  0  0  0  0  0  0  0  0
   10.2646  -17.0310   29.0961 O   0  0  0  0  0  0  0  0  0  0  0  0
  2 12  2  0
  2  1  1  0
  3  2  1  0
  4  5  1  0
  4  3  2  0
  5 11  2  0
  6  5  1  0
  6  7  1  0
  7  8  1  6
  9  7  1  0
  9 13  1  0
 10  9  2  0
 11 12  1  0
 13 14  1  0
 15 16  1  0
 14 15  1  1
 16 17  2  0
 17 18  1  0
 19 18  2  0
 20 19  1  0
 21 20  2  0
 21 16  1  0
 22 23  2  0
 22 14  1  0
 25 24  1  6
 25 27  1  0
 26 25  1  0
 27 28  1  6
 27 29  1  0
 28 22  1  0
 29 31  1  0
 30 29  2  0
M  END
$$$$
