SFC.pdb
     RDKit          3D

 24 24  0  0  1  0  0  0  0  0999 V2000
   20.4700   -8.9794  -18.9388 O   0  0  0  0  0  0  0  0  0  0  0  0
   20.2112  -10.3300  -18.7867 C   0  0  0  0  0  0  0  0  0  0  0  0
   20.8822  -10.8448  -17.5407 C   0  0  2  0  0  0  0  0  0  0  0  0
   20.7665  -12.2579  -17.3665 N   0  0  0  0  0  0  0  0  0  0  0  0
   20.2604  -10.1665  -16.3787 C   0  0  0  0  0  0  0  0  0  0  0  0
   19.1116  -10.4637  -15.9863 O   0  0  0  0  0  0  0  0  0  0  0  0
   20.9545   -9.1548  -15.6742 N   0  0  0  0  0  0  0  0  0  0  0  0
   20.3328   -8.3868  -14.5844 C   0  0  1  0  0  0  0  0  0  0  0  0
   21.4760   -8.0032  -13.6694 C   0  0  0  0  0  0  0  0  0  0  0  0
   21.0261   -7.2055  -12.5184 C   0  0  0  0  0  0  0  0  0  0  0  0
   21.0869   -5.8209  -12.6270 C   0  0  0  0  0  0  0  0  0  0  0  0
   20.6636   -5.0661  -11.5531 C   0  0  0  0  0  0  0  0  0  0  0  0
   20.2020   -5.7005  -10.4269 C   0  0  0  0  0  0  0  0  0  0  0  0
   20.1438   -7.0691  -10.3245 C   0  0  0  0  0  0  0  0  0  0  0  0
   20.5675   -7.8380  -11.3998 C   0  0  0  0  0  0  0  0  0  0  0  0
   19.6321   -7.2387  -15.1661 C   0  0  0  0  0  0  0  0  0  0  0  0
   20.0832   -6.5688  -16.1293 O   0  0  0  0  0  0  0  0  0  0  0  0
   18.3556   -6.7998  -14.6567 N   0  0  0  0  0  0  0  0  0  0  0  0
   17.7052   -5.6113  -15.1759 C   0  0  1  0  0  0  0  0  0  0  0  0
   16.5092   -6.0055  -16.0520 C   0  0  0  0  0  0  0  0  0  0  0  0
   15.6507   -4.4999  -16.5417 S   0  0  0  0  0  0  0  0  0  0  0  0
   17.2380   -4.7166  -14.1102 C   0  0  0  0  0  0  0  0  0  0  0  0
   17.1850   -3.3565  -14.3771 O   0  0  0  0  0  0  0  0  0  0  0  0
   16.8908   -5.1313  -12.9854 O   0  0  0  0  0  0  0  0  0  0  0  0
  1  2  1  0
  2  3  1  0
  3  5  1  0
  3  4  1  1
  5  6  2  0
  7  8  1  0
  7  5  1  0
  9 10  1  0
  8  9  1  1
 10 11  2  0
 11 12  1  0
 13 12  2  0
 14 13  1  0
 15 14  2  0
 15 10  1  0
 16  8  1  0
 16 17  2  0
 18 16  1  0
 19 18  1  0
 19 22  1  0
 19 20  1  1
 21 20  1  0
 22 23  1  0
 24 22  2  0
M  END
$$$$
