SFC.pdb
     RDKit          3D

 24 24  0  0  1  0  0  0  0  0999 V2000
   17.4018  -13.0145  -15.3105 O   0  0  0  0  0  0  0  0  0  0  0  0
   18.0979  -12.3568  -16.3091 C   0  0  0  0  0  0  0  0  0  0  0  0
   19.4286  -13.0249  -16.5337 C   0  0  2  0  0  0  0  0  0  0  0  0
   19.5090  -14.3444  -15.9921 N   0  0  0  0  0  0  0  0  0  0  0  0
   20.4706  -12.1827  -15.8997 C   0  0  0  0  0  0  0  0  0  0  0  0
   20.8524  -12.3876  -14.7274 O   0  0  0  0  0  0  0  0  0  0  0  0
   21.0680  -11.1140  -16.6084 N   0  0  0  0  0  0  0  0  0  0  0  0
   22.1142  -10.2653  -16.0176 C   0  0  1  0  0  0  0  0  0  0  0  0
   23.2365  -10.2569  -17.0333 C   0  0  0  0  0  0  0  0  0  0  0  0
   24.0305  -11.4946  -16.9979 C   0  0  0  0  0  0  0  0  0  0  0  0
   24.9580  -11.6396  -15.9726 C   0  0  0  0  0  0  0  0  0  0  0  0
   25.7039  -12.7989  -15.9308 C   0  0  0  0  0  0  0  0  0  0  0  0
   25.5072  -13.7588  -16.8920 C   0  0  0  0  0  0  0  0  0  0  0  0
   24.5893  -13.6108  -17.9032 C   0  0  0  0  0  0  0  0  0  0  0  0
   23.8335  -12.4477  -17.9542 C   0  0  0  0  0  0  0  0  0  0  0  0
   21.5452   -8.9404  -15.7563 C   0  0  0  0  0  0  0  0  0  0  0  0
   20.5760   -8.4648  -16.4002 O   0  0  0  0  0  0  0  0  0  0  0  0
   22.0750   -8.0850  -14.7223 N   0  0  0  0  0  0  0  0  0  0  0  0
   21.5119   -6.7721  -14.4683 C   0  0  1  0  0  0  0  0  0  0  0  0
   22.1512   -6.1581  -13.2163 C   0  0  0  0  0  0  0  0  0  0  0  0
   21.3149   -4.6025  -12.8634 S   0  0  0  0  0  0  0  0  0  0  0  0
   21.7010   -5.8528  -15.5968 C   0  0  0  0  0  0  0  0  0  0  0  0
   20.6469   -5.0205  -15.9435 O   0  0  0  0  0  0  0  0  0  0  0  0
   22.7640   -5.7940  -16.2480 O   0  0  0  0  0  0  0  0  0  0  0  0
  1  2  1  0
  2  3  1  0
  3  5  1  0
  3  4  1  1
  5  6  2  0
  7  8  1  0
  7  5  1  0
  9 10  1  0
  8  9  1  6
 10 11  2  0
 11 12  1  0
 13 12  2  0
 14 13  1  0
 15 14  2  0
 15 10  1  0
 16  8  1  0
 16 17  2  0
 18 16  1  0
 19 18  1  0
 19 22  1  0
 19 20  1  1
 21 20  1  0
 22 23  1  0
 24 22  2  0
M  END
$$$$
