SFC.pdb
     RDKit          3D

 24 24  0  0  1  0  0  0  0  0999 V2000
   26.6522   -8.8500  -21.4053 O   0  0  0  0  0  0  0  0  0  0  0  0
   25.6981   -8.9157  -20.4055 C   0  0  0  0  0  0  0  0  0  0  0  0
   25.9003  -10.1609  -19.5832 C   0  0  2  0  0  0  0  0  0  0  0  0
   25.6811  -11.3718  -20.3087 N   0  0  0  0  0  0  0  0  0  0  0  0
   24.9554  -10.1083  -18.4425 C   0  0  0  0  0  0  0  0  0  0  0  0
   23.8875  -10.7577  -18.4480 O   0  0  0  0  0  0  0  0  0  0  0  0
   25.2367   -9.3153  -17.3051 N   0  0  0  0  0  0  0  0  0  0  0  0
   24.3916   -9.3383  -16.1012 C   0  0  1  0  0  0  0  0  0  0  0  0
   25.3504   -9.5524  -14.9497 C   0  0  0  0  0  0  0  0  0  0  0  0
   25.8744  -10.9262  -14.9077 C   0  0  0  0  0  0  0  0  0  0  0  0
   27.1761  -11.1362  -15.3482 C   0  0  0  0  0  0  0  0  0  0  0  0
   27.6756  -12.4212  -15.3087 C   0  0  0  0  0  0  0  0  0  0  0  0
   26.8795  -13.4370  -14.8412 C   0  0  0  0  0  0  0  0  0  0  0  0
   25.5938  -13.2242  -14.4070 C   0  0  0  0  0  0  0  0  0  0  0  0
   25.0816  -11.9345  -14.4426 C   0  0  0  0  0  0  0  0  0  0  0  0
   23.6538   -8.0744  -16.0273 C   0  0  0  0  0  0  0  0  0  0  0  0
   24.0390   -7.0152  -16.5839 O   0  0  0  0  0  0  0  0  0  0  0  0
   22.4149   -7.9686  -15.2956 N   0  0  0  0  0  0  0  0  0  0  0  0
   21.5641   -6.7997  -15.4190 C   0  0  1  0  0  0  0  0  0  0  0  0
   21.1787   -6.5815  -16.8877 C   0  0  0  0  0  0  0  0  0  0  0  0
   20.0498   -5.1806  -16.9704 S   0  0  0  0  0  0  0  0  0  0  0  0
   20.3388   -6.9108  -14.6185 C   0  0  0  0  0  0  0  0  0  0  0  0
   19.7233   -5.7395  -14.2024 O   0  0  0  0  0  0  0  0  0  0  0  0
   19.8368   -8.0089  -14.3027 O   0  0  0  0  0  0  0  0  0  0  0  0
  1  2  1  0
  2  3  1  0
  3  5  1  0
  3  4  1  6
  5  6  2  0
  7  8  1  0
  7  5  1  0
  9 10  1  0
  8  9  1  1
 10 11  2  0
 11 12  1  0
 13 12  2  0
 14 13  1  0
 15 14  2  0
 15 10  1  0
 16  8  1  0
 16 17  2  0
 18 16  1  0
 19 18  1  0
 19 22  1  0
 19 20  1  6
 21 20  1  0
 22 23  1  0
 24 22  2  0
M  END
$$$$
