SFC.pdb
     RDKit          3D

 24 24  0  0  1  0  0  0  0  0999 V2000
   25.5416  -20.7837  -17.7188 O   0  0  0  0  0  0  0  0  0  0  0  0
   26.8236  -20.5458  -17.2563 C   0  0  0  0  0  0  0  0  0  0  0  0
   27.3666  -21.7813  -16.5882 C   0  0  2  0  0  0  0  0  0  0  0  0
   27.2182  -22.9694  -17.3673 N   0  0  0  0  0  0  0  0  0  0  0  0
   26.6447  -21.9564  -15.3055 C   0  0  0  0  0  0  0  0  0  0  0  0
   25.7560  -22.8245  -15.1690 O   0  0  0  0  0  0  0  0  0  0  0  0
   26.9428  -21.1396  -14.1895 N   0  0  0  0  0  0  0  0  0  0  0  0
   26.1926  -21.2276  -12.9272 C   0  0  1  0  0  0  0  0  0  0  0  0
   27.0432  -20.4970  -11.9104 C   0  0  0  0  0  0  0  0  0  0  0  0
   26.4225  -20.4738  -10.5771 C   0  0  0  0  0  0  0  0  0  0  0  0
   25.6402  -19.3732  -10.2462 C   0  0  0  0  0  0  0  0  0  0  0  0
   25.0522  -19.3459   -8.9990 C   0  0  0  0  0  0  0  0  0  0  0  0
   25.2571  -20.3941   -8.1369 C   0  0  0  0  0  0  0  0  0  0  0  0
   26.0311  -21.4795   -8.4686 C   0  0  0  0  0  0  0  0  0  0  0  0
   26.6274  -21.5168   -9.7216 C   0  0  0  0  0  0  0  0  0  0  0  0
   24.8705  -20.6288  -13.1297 C   0  0  0  0  0  0  0  0  0  0  0  0
   24.6961  -19.4972  -13.6487 O   0  0  0  0  0  0  0  0  0  0  0  0
   23.6650  -21.3171  -12.7369 N   0  0  0  0  0  0  0  0  0  0  0  0
   22.3646  -20.6832  -12.8485 C   0  0  1  0  0  0  0  0  0  0  0  0
   21.5761  -21.2998  -14.0109 C   0  0  0  0  0  0  0  0  0  0  0  0
   21.7763  -23.0883  -13.9397 S   0  0  0  0  0  0  0  0  0  0  0  0
   21.5725  -20.8077  -11.6190 C   0  0  0  0  0  0  0  0  0  0  0  0
   20.3668  -20.1257  -11.5483 O   0  0  0  0  0  0  0  0  0  0  0  0
   21.9410  -21.4974  -10.6463 O   0  0  0  0  0  0  0  0  0  0  0  0
  1  2  1  0
  2  3  1  0
  3  5  1  0
  3  4  1  6
  5  6  2  0
  7  8  1  0
  7  5  1  0
  9 10  1  0
  8  9  1  1
 10 11  2  0
 11 12  1  0
 13 12  2  0
 14 13  1  0
 15 14  2  0
 15 10  1  0
 16  8  1  0
 16 17  2  0
 18 16  1  0
 19 18  1  0
 19 22  1  0
 19 20  1  6
 21 20  1  0
 22 23  1  0
 24 22  2  0
M  END
$$$$
