SFC.pdb
     RDKit          3D

 24 24  0  0  1  0  0  0  0  0999 V2000
   18.3459   -4.6528  -18.7890 O   0  0  0  0  0  0  0  0  0  0  0  0
   18.2298   -5.5614  -17.7521 C   0  0  0  0  0  0  0  0  0  0  0  0
   19.4763   -6.4016  -17.6629 C   0  0  2  0  0  0  0  0  0  0  0  0
   19.5420   -7.4398  -18.6419 N   0  0  0  0  0  0  0  0  0  0  0  0
   19.5143   -7.0129  -16.3132 C   0  0  0  0  0  0  0  0  0  0  0  0
   19.0641   -8.1595  -16.1022 O   0  0  0  0  0  0  0  0  0  0  0  0
   20.0657   -6.3108  -15.2156 N   0  0  0  0  0  0  0  0  0  0  0  0
   20.1679   -6.9039  -13.8733 C   0  0  1  0  0  0  0  0  0  0  0  0
   21.6312   -6.7918  -13.5023 C   0  0  0  0  0  0  0  0  0  0  0  0
   21.9253   -7.4074  -12.1992 C   0  0  0  0  0  0  0  0  0  0  0  0
   22.1367   -8.7810  -12.1652 C   0  0  0  0  0  0  0  0  0  0  0  0
   22.4163   -9.3650  -10.9474 C   0  0  0  0  0  0  0  0  0  0  0  0
   22.4757   -8.5790   -9.8237 C   0  0  0  0  0  0  0  0  0  0  0  0
   22.2662   -7.2220   -9.8626 C   0  0  0  0  0  0  0  0  0  0  0  0
   21.9840   -6.6244  -11.0834 C   0  0  0  0  0  0  0  0  0  0  0  0
   19.2732   -6.1721  -12.9726 C   0  0  0  0  0  0  0  0  0  0  0  0
   19.2512   -4.9180  -12.8883 O   0  0  0  0  0  0  0  0  0  0  0  0
   18.3447   -6.8623  -12.1106 N   0  0  0  0  0  0  0  0  0  0  0  0
   17.4654   -6.1353  -11.2142 C   0  0  1  0  0  0  0  0  0  0  0  0
   16.0606   -6.7509  -11.2406 C   0  0  0  0  0  0  0  0  0  0  0  0
   15.4129   -6.6020  -12.9146 S   0  0  0  0  0  0  0  0  0  0  0  0
   17.9550   -6.1298   -9.8304 C   0  0  0  0  0  0  0  0  0  0  0  0
   17.2990   -5.3260   -8.9098 O   0  0  0  0  0  0  0  0  0  0  0  0
   18.9292   -6.8147   -9.4571 O   0  0  0  0  0  0  0  0  0  0  0  0
  1  2  1  0
  2  3  1  0
  3  5  1  0
  3  4  1  6
  5  6  2  0
  7  8  1  0
  7  5  1  0
  9 10  1  0
  8  9  1  1
 10 11  2  0
 11 12  1  0
 13 12  2  0
 14 13  1  0
 15 14  2  0
 15 10  1  0
 16  8  1  0
 16 17  2  0
 18 16  1  0
 19 18  1  0
 19 22  1  0
 19 20  1  1
 21 20  1  0
 22 23  1  0
 24 22  2  0
M  END
$$$$
