SFC.pdb
     RDKit          3D

 24 24  0  0  1  0  0  0  0  0999 V2000
   21.3056  -17.6303  -16.4049 O   0  0  0  0  0  0  0  0  0  0  0  0
   21.4126  -16.2682  -16.1870 C   0  0  0  0  0  0  0  0  0  0  0  0
   22.8510  -15.8396  -16.3089 C   0  0  2  0  0  0  0  0  0  0  0  0
   23.7622  -16.6696  -15.5867 N   0  0  0  0  0  0  0  0  0  0  0  0
   22.9552  -14.4534  -15.7946 C   0  0  0  0  0  0  0  0  0  0  0  0
   23.0827  -14.2170  -14.5740 O   0  0  0  0  0  0  0  0  0  0  0  0
   22.9131  -13.3485  -16.6772 N   0  0  0  0  0  0  0  0  0  0  0  0
   23.1320  -11.9675  -16.2202 C   0  0  1  0  0  0  0  0  0  0  0  0
   24.3755  -11.5030  -16.9478 C   0  0  0  0  0  0  0  0  0  0  0  0
   25.6037  -11.7830  -16.1884 C   0  0  0  0  0  0  0  0  0  0  0  0
   26.0748  -10.7944  -15.3320 C   0  0  0  0  0  0  0  0  0  0  0  0
   27.2241  -11.0510  -14.6141 C   0  0  0  0  0  0  0  0  0  0  0  0
   27.8562  -12.2596  -14.7679 C   0  0  0  0  0  0  0  0  0  0  0  0
   27.3866  -13.2332  -15.6155 C   0  0  0  0  0  0  0  0  0  0  0  0
   26.2305  -12.9850  -16.3427 C   0  0  0  0  0  0  0  0  0  0  0  0
   21.9367  -11.1797  -16.5331 C   0  0  0  0  0  0  0  0  0  0  0  0
   21.4130  -11.1413  -17.6752 O   0  0  0  0  0  0  0  0  0  0  0  0
   21.2757  -10.3842  -15.5271 N   0  0  0  0  0  0  0  0  0  0  0  0
   20.1069   -9.5857  -15.8454 C   0  0  1  0  0  0  0  0  0  0  0  0
   18.9897   -9.8594  -14.8305 C   0  0  0  0  0  0  0  0  0  0  0  0
   17.6698   -8.6667  -15.1123 S   0  0  0  0  0  0  0  0  0  0  0  0
   20.3965   -8.1467  -15.8556 C   0  0  0  0  0  0  0  0  0  0  0  0
   21.6281   -7.7260  -15.3760 O   0  0  0  0  0  0  0  0  0  0  0  0
   19.5833   -7.2981  -16.2756 O   0  0  0  0  0  0  0  0  0  0  0  0
  1  2  1  0
  2  3  1  0
  3  5  1  0
  3  4  1  1
  5  6  2  0
  7  8  1  0
  7  5  1  0
  9 10  1  0
  8  9  1  6
 10 11  2  0
 11 12  1  0
 13 12  2  0
 14 13  1  0
 15 14  2  0
 15 10  1  0
 16  8  1  0
 16 17  2  0
 18 16  1  0
 19 18  1  0
 19 22  1  0
 19 20  1  1
 21 20  1  0
 22 23  1  0
 24 22  2  0
M  END
$$$$
