SFC.pdb
     RDKit          3D

 24 24  0  0  1  0  0  0  0  0999 V2000
   26.3486  -20.6085  -18.3922 O   0  0  0  0  0  0  0  0  0  0  0  0
   27.5171  -20.6109  -17.6514 C   0  0  0  0  0  0  0  0  0  0  0  0
   27.7390  -21.9717  -17.0459 C   0  0  2  0  0  0  0  0  0  0  0  0
   27.4450  -23.0517  -17.9335 N   0  0  0  0  0  0  0  0  0  0  0  0
   26.8685  -22.0828  -15.8514 C   0  0  0  0  0  0  0  0  0  0  0  0
   25.9524  -22.9305  -15.7871 O   0  0  0  0  0  0  0  0  0  0  0  0
   27.0505  -21.2260  -14.7405 N   0  0  0  0  0  0  0  0  0  0  0  0
   26.1573  -21.2520  -13.5720 C   0  0  1  0  0  0  0  0  0  0  0  0
   26.9294  -20.5601  -12.4690 C   0  0  0  0  0  0  0  0  0  0  0  0
   26.1761  -20.5108  -11.2067 C   0  0  0  0  0  0  0  0  0  0  0  0
   26.2472  -21.6163  -10.3668 C   0  0  0  0  0  0  0  0  0  0  0  0
   25.5462  -21.5761   -9.1797 C   0  0  0  0  0  0  0  0  0  0  0  0
   24.8108  -20.4589   -8.8717 C   0  0  0  0  0  0  0  0  0  0  0  0
   24.7438  -19.3689   -9.7051 C   0  0  0  0  0  0  0  0  0  0  0  0
   25.4457  -19.3993  -10.9023 C   0  0  0  0  0  0  0  0  0  0  0  0
   24.9061  -20.5778  -13.9286 C   0  0  0  0  0  0  0  0  0  0  0  0
   24.8591  -19.4216  -14.4196 O   0  0  0  0  0  0  0  0  0  0  0  0
   23.6264  -21.2148  -13.7331 N   0  0  0  0  0  0  0  0  0  0  0  0
   22.3885  -20.4636  -13.8257 C   0  0  1  0  0  0  0  0  0  0  0  0
   21.6363  -20.8439  -15.1073 C   0  0  0  0  0  0  0  0  0  0  0  0
   22.4442  -20.0298  -16.4959 S   0  0  0  0  0  0  0  0  0  0  0  0
   21.5075  -20.6899  -12.6736 C   0  0  0  0  0  0  0  0  0  0  0  0
   20.4346  -19.8293  -12.4942 O   0  0  0  0  0  0  0  0  0  0  0  0
   21.6874  -21.6184  -11.8592 O   0  0  0  0  0  0  0  0  0  0  0  0
  1  2  1  0
  2  3  1  0
  3  5  1  0
  3  4  1  6
  5  6  2  0
  7  8  1  0
  7  5  1  0
  9 10  1  0
  8  9  1  1
 10 11  2  0
 11 12  1  0
 13 12  2  0
 14 13  1  0
 15 14  2  0
 15 10  1  0
 16  8  1  0
 16 17  2  0
 18 16  1  0
 19 18  1  0
 19 22  1  0
 19 20  1  6
 21 20  1  0
 22 23  1  0
 24 22  2  0
M  END
$$$$
