SFC.pdb
     RDKit          3D

 24 24  0  0  1  0  0  0  0  0999 V2000
   26.7394  -21.9670  -18.9754 O   0  0  0  0  0  0  0  0  0  0  0  0
   27.1685  -20.9744  -18.1123 C   0  0  0  0  0  0  0  0  0  0  0  0
   28.0155  -21.5733  -17.0207 C   0  0  2  0  0  0  0  0  0  0  0  0
   28.7309  -22.7424  -17.4231 N   0  0  0  0  0  0  0  0  0  0  0  0
   27.1191  -21.9246  -15.8937 C   0  0  0  0  0  0  0  0  0  0  0  0
   26.8994  -23.1142  -15.5797 O   0  0  0  0  0  0  0  0  0  0  0  0
   26.4811  -20.9157  -15.1344 N   0  0  0  0  0  0  0  0  0  0  0  0
   25.6737  -21.2196  -13.9429 C   0  0  1  0  0  0  0  0  0  0  0  0
   25.9731  -20.1017  -12.9672 C   0  0  0  0  0  0  0  0  0  0  0  0
   25.2755  -20.2788  -11.6844 C   0  0  0  0  0  0  0  0  0  0  0  0
   25.9663  -20.9041  -10.6528 C   0  0  0  0  0  0  0  0  0  0  0  0
   25.3199  -21.0707   -9.4459 C   0  0  0  0  0  0  0  0  0  0  0  0
   24.0315  -20.6186   -9.3062 C   0  0  0  0  0  0  0  0  0  0  0  0
   23.3532  -20.0012  -10.3288 C   0  0  0  0  0  0  0  0  0  0  0  0
   23.9948  -19.8285  -11.5475 C   0  0  0  0  0  0  0  0  0  0  0  0
   24.2656  -21.2928  -14.3421 C   0  0  0  0  0  0  0  0  0  0  0  0
   23.7182  -20.4555  -15.1033 O   0  0  0  0  0  0  0  0  0  0  0  0
   23.4057  -22.3530  -13.8750 N   0  0  0  0  0  0  0  0  0  0  0  0
   21.9883  -22.3656  -14.1850 C   0  0  1  0  0  0  0  0  0  0  0  0
   21.3787  -23.7217  -13.8075 C   0  0  0  0  0  0  0  0  0  0  0  0
   19.6145  -23.6640  -14.1652 S   0  0  0  0  0  0  0  0  0  0  0  0
   21.2522  -21.3040  -13.4881 C   0  0  0  0  0  0  0  0  0  0  0  0
   20.3844  -20.5167  -14.2304 O   0  0  0  0  0  0  0  0  0  0  0  0
   21.3779  -21.0871  -12.2654 O   0  0  0  0  0  0  0  0  0  0  0  0
  1  2  1  0
  2  3  1  0
  3  5  1  0
  3  4  1  6
  5  6  2  0
  7  8  1  0
  7  5  1  0
  9 10  1  0
  8  9  1  1
 10 11  2  0
 11 12  1  0
 13 12  2  0
 14 13  1  0
 15 14  2  0
 15 10  1  0
 16  8  1  0
 16 17  2  0
 18 16  1  0
 19 18  1  0
 19 22  1  0
 19 20  1  1
 21 20  1  0
 22 23  1  0
 24 22  2  0
M  END
$$$$
