SFC.pdb
     RDKit          3D

 24 24  0  0  1  0  0  0  0  0999 V2000
   19.9682  -15.9522  -17.8324 O   0  0  0  0  0  0  0  0  0  0  0  0
   20.1618  -16.1071  -16.4712 C   0  0  0  0  0  0  0  0  0  0  0  0
   19.5144  -14.9691  -15.7273 C   0  0  2  0  0  0  0  0  0  0  0  0
   18.1387  -14.7734  -16.0586 N   0  0  0  0  0  0  0  0  0  0  0  0
   20.2653  -13.7325  -16.0495 C   0  0  0  0  0  0  0  0  0  0  0  0
   19.8192  -12.8885  -16.8561 O   0  0  0  0  0  0  0  0  0  0  0  0
   21.5187  -13.4691  -15.4486 N   0  0  0  0  0  0  0  0  0  0  0  0
   22.2748  -12.2355  -15.7138 C   0  0  1  0  0  0  0  0  0  0  0  0
   23.0843  -11.9907  -14.4584 C   0  0  0  0  0  0  0  0  0  0  0  0
   24.0407  -10.8846  -14.6179 C   0  0  0  0  0  0  0  0  0  0  0  0
   25.3919  -11.2029  -14.6929 C   0  0  0  0  0  0  0  0  0  0  0  0
   26.2946  -10.1714  -14.8458 C   0  0  0  0  0  0  0  0  0  0  0  0
   25.8332   -8.8807  -14.9180 C   0  0  0  0  0  0  0  0  0  0  0  0
   24.4969   -8.5713  -14.8434 C   0  0  0  0  0  0  0  0  0  0  0  0
   23.5802   -9.6023  -14.6895 C   0  0  0  0  0  0  0  0  0  0  0  0
   23.0926  -12.4404  -16.9124 C   0  0  0  0  0  0  0  0  0  0  0  0
   23.7633  -13.4828  -17.1221 O   0  0  0  0  0  0  0  0  0  0  0  0
   23.1784  -11.4364  -17.9450 N   0  0  0  0  0  0  0  0  0  0  0  0
   24.0934  -11.5802  -19.0618 C   0  0  1  0  0  0  0  0  0  0  0  0
   23.3149  -11.5837  -20.3835 C   0  0  0  0  0  0  0  0  0  0  0  0
   22.3639  -13.1107  -20.4717 S   0  0  0  0  0  0  0  0  0  0  0  0
   25.0975  -10.5103  -19.1056 C   0  0  0  0  0  0  0  0  0  0  0  0
   26.3697  -10.8281  -19.5578 O   0  0  0  0  0  0  0  0  0  0  0  0
   24.8501   -9.3385  -18.7544 O   0  0  0  0  0  0  0  0  0  0  0  0
  1  2  1  0
  2  3  1  0
  3  5  1  0
  3  4  1  6
  5  6  2  0
  7  8  1  0
  7  5  1  0
  9 10  1  0
  8  9  1  1
 10 11  2  0
 11 12  1  0
 13 12  2  0
 14 13  1  0
 15 14  2  0
 15 10  1  0
 16  8  1  0
 16 17  2  0
 18 16  1  0
 19 18  1  0
 19 22  1  0
 19 20  1  6
 21 20  1  0
 22 23  1  0
 24 22  2  0
M  END
$$$$
