SFC.pdb
     RDKit          3D

 24 24  0  0  1  0  0  0  0  0999 V2000
   28.1579  -16.8075  -14.6526 O   0  0  0  0  0  0  0  0  0  0  0  0
   27.1683  -17.7721  -14.5869 C   0  0  0  0  0  0  0  0  0  0  0  0
   27.7837  -19.1450  -14.6512 C   0  0  2  0  0  0  0  0  0  0  0  0
   28.3458  -19.4648  -15.9249 N   0  0  0  0  0  0  0  0  0  0  0  0
   26.7236  -20.1314  -14.3342 C   0  0  0  0  0  0  0  0  0  0  0  0
   25.8946  -20.4988  -15.1943 O   0  0  0  0  0  0  0  0  0  0  0  0
   26.6184  -20.6901  -13.0388 N   0  0  0  0  0  0  0  0  0  0  0  0
   25.5209  -21.5925  -12.6578 C   0  0  1  0  0  0  0  0  0  0  0  0
   26.0015  -22.2916  -11.4042 C   0  0  0  0  0  0  0  0  0  0  0  0
   26.1151  -21.3726  -10.2613 C   0  0  0  0  0  0  0  0  0  0  0  0
   24.9393  -20.9413   -9.6581 C   0  0  0  0  0  0  0  0  0  0  0  0
   25.0379  -20.0821   -8.5837 C   0  0  0  0  0  0  0  0  0  0  0  0
   26.2794  -19.6868   -8.1519 C   0  0  0  0  0  0  0  0  0  0  0  0
   27.4384  -20.1159   -8.7514 C   0  0  0  0  0  0  0  0  0  0  0  0
   27.3501  -20.9809   -9.8335 C   0  0  0  0  0  0  0  0  0  0  0  0
   24.3093  -20.7925  -12.4594 C   0  0  0  0  0  0  0  0  0  0  0  0
   24.3273  -19.5619  -12.2036 O   0  0  0  0  0  0  0  0  0  0  0  0
   22.9957  -21.3826  -12.5479 N   0  0  0  0  0  0  0  0  0  0  0  0
   21.8611  -20.6254  -13.0425 C   0  0  1  0  0  0  0  0  0  0  0  0
   22.1297  -20.1501  -14.4761 C   0  0  0  0  0  0  0  0  0  0  0  0
   20.6879  -19.2315  -15.0431 S   0  0  0  0  0  0  0  0  0  0  0  0
   20.6169  -21.4042  -13.0263 C   0  0  0  0  0  0  0  0  0  0  0  0
   19.4725  -20.7947  -12.5336 O   0  0  0  0  0  0  0  0  0  0  0  0
   20.5530  -22.5816  -13.4352 O   0  0  0  0  0  0  0  0  0  0  0  0
  1  2  1  0
  2  3  1  0
  3  5  1  0
  3  4  1  6
  5  6  2  0
  7  8  1  0
  7  5  1  0
  9 10  1  0
  8  9  1  1
 10 11  2  0
 11 12  1  0
 13 12  2  0
 14 13  1  0
 15 14  2  0
 15 10  1  0
 16  8  1  0
 16 17  2  0
 18 16  1  0
 19 18  1  0
 19 22  1  0
 19 20  1  6
 21 20  1  0
 22 23  1  0
 24 22  2  0
M  END
$$$$
