SFC.pdb
     RDKit          3D

 24 24  0  0  1  0  0  0  0  0999 V2000
   18.8692   -9.7853  -20.2944 O   0  0  0  0  0  0  0  0  0  0  0  0
   19.4315   -8.8231  -19.4745 C   0  0  0  0  0  0  0  0  0  0  0  0
   20.2325   -9.4823  -18.3830 C   0  0  2  0  0  0  0  0  0  0  0  0
   20.0435  -10.8960  -18.3038 N   0  0  0  0  0  0  0  0  0  0  0  0
   19.8287   -8.8721  -17.0939 C   0  0  0  0  0  0  0  0  0  0  0  0
   18.9370   -9.3809  -16.3811 O   0  0  0  0  0  0  0  0  0  0  0  0
   20.4455   -7.6868  -16.6291 N   0  0  0  0  0  0  0  0  0  0  0  0
   20.0224   -7.0126  -15.3920 C   0  0  1  0  0  0  0  0  0  0  0  0
   21.3004   -6.7687  -14.6182 C   0  0  0  0  0  0  0  0  0  0  0  0
   21.7213   -7.9498  -13.8493 C   0  0  0  0  0  0  0  0  0  0  0  0
   21.1018   -8.1807  -12.6264 C   0  0  0  0  0  0  0  0  0  0  0  0
   21.4889   -9.2882  -11.9012 C   0  0  0  0  0  0  0  0  0  0  0  0
   22.4613  -10.1150  -12.4059 C   0  0  0  0  0  0  0  0  0  0  0  0
   23.0705   -9.8825  -13.6150 C   0  0  0  0  0  0  0  0  0  0  0  0
   22.6881   -8.7705  -14.3527 C   0  0  0  0  0  0  0  0  0  0  0  0
   19.3079   -5.7852  -15.7528 C   0  0  0  0  0  0  0  0  0  0  0  0
   19.5619   -5.1154  -16.7858 O   0  0  0  0  0  0  0  0  0  0  0  0
   18.2479   -5.2614  -14.9261 N   0  0  0  0  0  0  0  0  0  0  0  0
   17.4270   -4.1495  -15.3677 C   0  0  1  0  0  0  0  0  0  0  0  0
   16.7595   -4.4870  -16.7070 C   0  0  0  0  0  0  0  0  0  0  0  0
   15.6884   -3.1128  -17.1633 S   0  0  0  0  0  0  0  0  0  0  0  0
   16.3860   -3.7992  -14.3939 C   0  0  0  0  0  0  0  0  0  0  0  0
   16.2822   -2.4737  -13.9988 O   0  0  0  0  0  0  0  0  0  0  0  0
   15.6002   -4.6419  -13.9143 O   0  0  0  0  0  0  0  0  0  0  0  0
  1  2  1  0
  2  3  1  0
  3  5  1  0
  3  4  1  1
  5  6  2  0
  7  8  1  0
  7  5  1  0
  9 10  1  0
  8  9  1  1
 10 11  2  0
 11 12  1  0
 13 12  2  0
 14 13  1  0
 15 14  2  0
 15 10  1  0
 16  8  1  0
 16 17  2  0
 18 16  1  0
 19 18  1  0
 19 22  1  0
 19 20  1  6
 21 20  1  0
 22 23  1  0
 24 22  2  0
M  END
$$$$
