SFC.pdb
     RDKit          3D

 24 24  0  0  1  0  0  0  0  0999 V2000
   17.1265   -8.9033  -16.8299 O   0  0  0  0  0  0  0  0  0  0  0  0
   18.4042   -8.4675  -17.1325 C   0  0  0  0  0  0  0  0  0  0  0  0
   19.4214   -9.4067  -16.5400 C   0  0  2  0  0  0  0  0  0  0  0  0
   19.2110  -10.7764  -16.8868 N   0  0  0  0  0  0  0  0  0  0  0  0
   19.3578   -9.2708  -15.0654 C   0  0  0  0  0  0  0  0  0  0  0  0
   18.7627  -10.1109  -14.3568 O   0  0  0  0  0  0  0  0  0  0  0  0
   19.9738   -8.1777  -14.4117 N   0  0  0  0  0  0  0  0  0  0  0  0
   19.9826   -8.0401  -12.9471 C   0  0  1  0  0  0  0  0  0  0  0  0
   21.4453   -7.9542  -12.5672 C   0  0  0  0  0  0  0  0  0  0  0  0
   22.1999   -7.0539  -13.4525 C   0  0  0  0  0  0  0  0  0  0  0  0
   23.0779   -7.6287  -14.3642 C   0  0  0  0  0  0  0  0  0  0  0  0
   23.7866   -6.7911  -15.2000 C   0  0  0  0  0  0  0  0  0  0  0  0
   23.6027   -5.4343  -15.1041 C   0  0  0  0  0  0  0  0  0  0  0  0
   22.7337   -4.8712  -14.2014 C   0  0  0  0  0  0  0  0  0  0  0  0
   22.0157   -5.7055  -13.3557 C   0  0  0  0  0  0  0  0  0  0  0  0
   19.2089   -6.8486  -12.5878 C   0  0  0  0  0  0  0  0  0  0  0  0
   19.0165   -5.8861  -13.3732 O   0  0  0  0  0  0  0  0  0  0  0  0
   18.6092   -6.7065  -11.2833 N   0  0  0  0  0  0  0  0  0  0  0  0
   17.7921   -5.5545  -10.9508 C   0  0  1  0  0  0  0  0  0  0  0  0
   16.5710   -5.4899  -11.8771 C   0  0  0  0  0  0  0  0  0  0  0  0
   15.6082   -4.0327  -11.4371 S   0  0  0  0  0  0  0  0  0  0  0  0
   17.3300   -5.5778   -9.5578 C   0  0  0  0  0  0  0  0  0  0  0  0
   16.6448   -4.4707   -9.0794 O   0  0  0  0  0  0  0  0  0  0  0  0
   17.5294   -6.5471   -8.7973 O   0  0  0  0  0  0  0  0  0  0  0  0
  1  2  1  0
  2  3  1  0
  3  5  1  0
  3  4  1  1
  5  6  2  0
  7  8  1  0
  7  5  1  0
  9 10  1  0
  8  9  1  6
 10 11  2  0
 11 12  1  0
 13 12  2  0
 14 13  1  0
 15 14  2  0
 15 10  1  0
 16  8  1  0
 16 17  2  0
 18 16  1  0
 19 18  1  0
 19 22  1  0
 19 20  1  6
 21 20  1  0
 22 23  1  0
 24 22  2  0
M  END
$$$$
