SFC.pdb
     RDKit          3D

 24 24  0  0  1  0  0  0  0  0999 V2000
   21.0901   -8.6372  -20.1830 O   0  0  0  0  0  0  0  0  0  0  0  0
   21.2381   -7.7099  -19.1670 C   0  0  0  0  0  0  0  0  0  0  0  0
   21.7093   -8.3942  -17.9111 C   0  0  2  0  0  0  0  0  0  0  0  0
   21.4036   -9.7889  -17.8661 N   0  0  0  0  0  0  0  0  0  0  0  0
   21.0596   -7.7241  -16.7596 C   0  0  0  0  0  0  0  0  0  0  0  0
   19.9626   -8.1177  -16.3084 O   0  0  0  0  0  0  0  0  0  0  0  0
   21.6669   -6.6107  -16.1327 N   0  0  0  0  0  0  0  0  0  0  0  0
   21.1215   -6.0019  -14.9097 C   0  0  1  0  0  0  0  0  0  0  0  0
   22.2393   -6.0892  -13.8927 C   0  0  0  0  0  0  0  0  0  0  0  0
   22.2910   -7.4021  -13.2316 C   0  0  0  0  0  0  0  0  0  0  0  0
   21.5030   -7.5895  -12.1017 C   0  0  0  0  0  0  0  0  0  0  0  0
   21.5437   -8.8191  -11.4783 C   0  0  0  0  0  0  0  0  0  0  0  0
   22.3515   -9.8044  -11.9889 C   0  0  0  0  0  0  0  0  0  0  0  0
   23.1283   -9.6142  -13.1058 C   0  0  0  0  0  0  0  0  0  0  0  0
   23.0945   -8.3803  -13.7407 C   0  0  0  0  0  0  0  0  0  0  0  0
   20.7100   -4.6296  -15.2176 C   0  0  0  0  0  0  0  0  0  0  0  0
   21.3155   -3.8934  -16.0371 O   0  0  0  0  0  0  0  0  0  0  0  0
   19.5608   -4.0292  -14.5847 N   0  0  0  0  0  0  0  0  0  0  0  0
   19.0078   -2.7750  -15.0605 C   0  0  1  0  0  0  0  0  0  0  0  0
   18.6155   -2.8992  -16.5382 C   0  0  0  0  0  0  0  0  0  0  0  0
   17.8148   -1.3653  -17.0381 S   0  0  0  0  0  0  0  0  0  0  0  0
   17.8311   -2.3531  -14.2911 C   0  0  0  0  0  0  0  0  0  0  0  0
   16.8711   -3.3084  -13.9913 O   0  0  0  0  0  0  0  0  0  0  0  0
   17.6655   -1.1790  -13.9016 O   0  0  0  0  0  0  0  0  0  0  0  0
  1  2  1  0
  2  3  1  0
  3  5  1  0
  3  4  1  6
  5  6  2  0
  7  8  1  0
  7  5  1  0
  9 10  1  0
  8  9  1  1
 10 11  2  0
 11 12  1  0
 13 12  2  0
 14 13  1  0
 15 14  2  0
 15 10  1  0
 16  8  1  0
 16 17  2  0
 18 16  1  0
 19 18  1  0
 19 22  1  0
 19 20  1  6
 21 20  1  0
 22 23  1  0
 24 22  2  0
M  END
$$$$
