SFC.pdb
     RDKit          3D

 24 24  0  0  1  0  0  0  0  0999 V2000
   19.9479  -12.5732  -20.9637 O   0  0  0  0  0  0  0  0  0  0  0  0
   19.9085  -11.5260  -20.0604 C   0  0  0  0  0  0  0  0  0  0  0  0
   20.5537  -11.9405  -18.7644 C   0  0  2  0  0  0  0  0  0  0  0  0
   20.0491  -13.1684  -18.2370 N   0  0  0  0  0  0  0  0  0  0  0  0
   20.3173  -10.8616  -17.7759 C   0  0  0  0  0  0  0  0  0  0  0  0
   19.3370  -10.8885  -17.0011 O   0  0  0  0  0  0  0  0  0  0  0  0
   21.2013   -9.7612  -17.6797 N   0  0  0  0  0  0  0  0  0  0  0  0
   20.9978   -8.6704  -16.7140 C   0  0  1  0  0  0  0  0  0  0  0  0
   22.3281   -8.5133  -16.0093 C   0  0  0  0  0  0  0  0  0  0  0  0
   22.3162   -7.4129  -15.0333 C   0  0  0  0  0  0  0  0  0  0  0  0
   22.7945   -6.1751  -15.4475 C   0  0  0  0  0  0  0  0  0  0  0  0
   22.7833   -5.1375  -14.5389 C   0  0  0  0  0  0  0  0  0  0  0  0
   22.3058   -5.3600  -13.2714 C   0  0  0  0  0  0  0  0  0  0  0  0
   21.8342   -6.5851  -12.8670 C   0  0  0  0  0  0  0  0  0  0  0  0
   21.8410   -7.6361  -13.7739 C   0  0  0  0  0  0  0  0  0  0  0  0
   20.5736   -7.4743  -17.4468 C   0  0  0  0  0  0  0  0  0  0  0  0
   21.1088   -7.0940  -18.5188 O   0  0  0  0  0  0  0  0  0  0  0  0
   19.4934   -6.6446  -16.9712 N   0  0  0  0  0  0  0  0  0  0  0  0
   19.1451   -5.4046  -17.6392 C   0  0  1  0  0  0  0  0  0  0  0  0
   17.6460   -5.3846  -17.9644 C   0  0  0  0  0  0  0  0  0  0  0  0
   16.7337   -5.5546  -16.4208 S   0  0  0  0  0  0  0  0  0  0  0  0
   19.4714   -4.2222  -16.8329 C   0  0  0  0  0  0  0  0  0  0  0  0
   19.3994   -2.9779  -17.4415 O   0  0  0  0  0  0  0  0  0  0  0  0
   19.8074   -4.2959  -15.6332 O   0  0  0  0  0  0  0  0  0  0  0  0
  1  2  1  0
  2  3  1  0
  3  5  1  0
  3  4  1  1
  5  6  2  0
  7  8  1  0
  7  5  1  0
  9 10  1  0
  8  9  1  6
 10 11  2  0
 11 12  1  0
 13 12  2  0
 14 13  1  0
 15 14  2  0
 15 10  1  0
 16  8  1  0
 16 17  2  0
 18 16  1  0
 19 18  1  0
 19 22  1  0
 19 20  1  1
 21 20  1  0
 22 23  1  0
 24 22  2  0
M  END
$$$$
