AIH.pdb
     RDKit          3D

 24 24  0  0  1  0  0  0  0  0999 V2000
    6.8879  -16.8847   21.8633 C   0  0  0  0  0  0  0  0  0  0  0  0
    6.9865  -15.3812   21.8215 C   0  0  2  0  0  0  0  0  0  0  0  0
    7.4579  -14.9899   20.5297 N   0  0  0  0  0  0  0  0  0  0  0  0
    7.9267  -14.9186   22.9102 C   0  0  0  0  0  0  0  0  0  0  0  0
    9.1494  -14.7678   22.6694 O   0  0  0  0  0  0  0  0  0  0  0  0
    5.8323  -11.4632   26.7261 C   0  0  0  0  0  0  0  0  0  0  0  0
    6.7547  -12.1895   25.7594 C   0  0  0  0  0  0  0  0  0  0  0  0
    7.3676  -13.4035   26.3323 C   0  0  2  0  0  0  0  0  0  0  0  0
    8.2917  -12.9577   27.4798 C   0  0  0  0  0  0  0  0  0  0  0  0
    8.1272  -14.2786   25.3675 C   0  0  2  0  0  0  0  0  0  0  0  0
    7.3969  -14.6625   24.1962 N   0  0  0  0  0  0  0  0  0  0  0  0
    8.7026  -15.4693   26.0170 C   0  0  0  0  0  0  0  0  0  0  0  0
    7.9822  -16.3309   26.5808 O   0  0  0  0  0  0  0  0  0  0  0  0
   10.1053  -15.6482   26.0058 N   0  0  0  0  0  0  0  0  0  0  0  0
   10.6639  -16.8234   26.6667 C   0  0  1  0  0  0  0  0  0  0  0  0
   12.0040  -17.1585   26.0398 C   0  0  0  0  0  0  0  0  0  0  0  0
   11.8387  -17.4803   24.6065 C   0  0  0  0  0  0  0  0  0  0  0  0
   10.8055  -18.0632   23.9165 C   0  0  0  0  0  0  0  0  0  0  0  0
   11.1312  -18.1574   22.6093 N   0  0  0  0  0  0  0  0  0  0  0  0
   12.3678  -17.6374   22.4614 C   0  0  0  0  0  0  0  0  0  0  0  0
   12.7859  -17.2336   23.6619 N   0  0  0  0  0  0  0  0  0  0  0  0
   10.7371  -16.6143   28.1245 C   0  0  0  0  0  0  0  0  0  0  0  0
   11.0833  -17.5858   28.8780 O   0  0  0  0  0  0  0  0  0  0  0  0
   10.4516  -15.4143   28.7387 O   0  0  0  0  0  0  0  0  0  0  0  0
  2  4  1  0
  2  1  1  6
  2  3  1  0
  4  5  2  0
  6  7  1  0
  7  8  1  0
  8 10  1  0
  8  9  1  1
 10 12  1  0
 10 11  1  6
 11  4  1  0
 12 13  2  0
 12 14  1  0
 14 15  1  0
 15 22  1  0
 15 16  1  6
 17 16  1  0
 17 18  2  0
 19 18  1  0
 20 19  1  0
 21 20  2  0
 21 17  1  0
 22 23  2  0
 22 24  1  0
M  END
$$$$
