AIH.pdb
     RDKit          3D

 24 24  0  0  1  0  0  0  0  0999 V2000
    7.8916  -19.3506   18.3457 C   0  0  0  0  0  0  0  0  0  0  0  0
    8.3721  -18.0369   17.7843 C   0  0  2  0  0  0  0  0  0  0  0  0
    9.2652  -18.3026   16.6999 N   0  0  0  0  0  0  0  0  0  0  0  0
    9.0591  -17.2548   18.8797 C   0  0  0  0  0  0  0  0  0  0  0  0
   10.3028  -17.3340   19.0301 O   0  0  0  0  0  0  0  0  0  0  0  0
    6.8928  -12.2211   20.0512 C   0  0  0  0  0  0  0  0  0  0  0  0
    7.8634  -13.3723   19.8378 C   0  0  0  0  0  0  0  0  0  0  0  0
    7.9027  -14.3239   20.9650 C   0  0  2  0  0  0  0  0  0  0  0  0
    8.4006  -13.5552   22.2022 C   0  0  0  0  0  0  0  0  0  0  0  0
    8.7374  -15.5620   20.7557 C   0  0  2  0  0  0  0  0  0  0  0  0
    8.2702  -16.4386   19.7232 N   0  0  0  0  0  0  0  0  0  0  0  0
    8.9499  -16.3180   22.0023 C   0  0  0  0  0  0  0  0  0  0  0  0
    8.0007  -16.8695   22.6139 O   0  0  0  0  0  0  0  0  0  0  0  0
   10.2590  -16.4266   22.5259 N   0  0  0  0  0  0  0  0  0  0  0  0
   10.4551  -17.1725   23.7649 C   0  0  1  0  0  0  0  0  0  0  0  0
   11.7599  -17.9419   23.6827 C   0  0  0  0  0  0  0  0  0  0  0  0
   11.6310  -19.0812   22.7497 C   0  0  0  0  0  0  0  0  0  0  0  0
   10.5589  -19.5614   22.0402 C   0  0  0  0  0  0  0  0  0  0  0  0
   10.9374  -20.6437   21.3267 N   0  0  0  0  0  0  0  0  0  0  0  0
   12.2462  -20.8570   21.5775 C   0  0  0  0  0  0  0  0  0  0  0  0
   12.6555  -19.9173   22.4309 N   0  0  0  0  0  0  0  0  0  0  0  0
   10.3801  -16.2729   24.9307 C   0  0  0  0  0  0  0  0  0  0  0  0
   10.4968  -15.0130   24.7557 O   0  0  0  0  0  0  0  0  0  0  0  0
   10.1872  -16.7120   26.2225 O   0  0  0  0  0  0  0  0  0  0  0  0
  2  4  1  0
  2  1  1  1
  2  3  1  0
  4  5  2  0
  6  7  1  0
  7  8  1  0
  8 10  1  0
  8  9  1  1
 10 12  1  0
 10 11  1  6
 11  4  1  0
 12 13  2  0
 12 14  1  0
 14 15  1  0
 15 22  1  0
 15 16  1  6
 17 16  1  0
 17 18  2  0
 19 18  1  0
 20 19  1  0
 21 20  2  0
 21 17  1  0
 22 23  2  0
 22 24  1  0
M  END
$$$$
