AIH.pdb
     RDKit          3D

 24 24  0  0  1  0  0  0  0  0999 V2000
    5.6560  -19.3733   24.4405 C   0  0  0  0  0  0  0  0  0  0  0  0
    4.9922  -18.0328   24.2550 C   0  0  2  0  0  0  0  0  0  0  0  0
    4.1403  -18.0994   23.1087 N   0  0  0  0  0  0  0  0  0  0  0  0
    6.0575  -16.9749   24.0841 C   0  0  0  0  0  0  0  0  0  0  0  0
    6.7273  -16.9158   23.0241 O   0  0  0  0  0  0  0  0  0  0  0  0
    5.5055  -12.2808   27.1821 C   0  0  0  0  0  0  0  0  0  0  0  0
    5.9328  -13.0975   25.9725 C   0  0  0  0  0  0  0  0  0  0  0  0
    7.0788  -13.9880   26.2402 C   0  0  2  0  0  0  0  0  0  0  0  0
    8.3321  -13.1034   26.3675 C   0  0  0  0  0  0  0  0  0  0  0  0
    7.3177  -15.0799   25.2282 C   0  0  2  0  0  0  0  0  0  0  0  0
    6.2776  -16.0613   25.1409 N   0  0  0  0  0  0  0  0  0  0  0  0
    8.6222  -15.7409   25.4071 C   0  0  0  0  0  0  0  0  0  0  0  0
    8.8200  -16.5829   26.3187 O   0  0  0  0  0  0  0  0  0  0  0  0
    9.6823  -15.4191   24.5282 N   0  0  0  0  0  0  0  0  0  0  0  0
   10.6801  -16.4429   24.2345 C   0  0  1  0  0  0  0  0  0  0  0  0
   11.1255  -16.3058   22.7909 C   0  0  0  0  0  0  0  0  0  0  0  0
   12.1950  -17.2792   22.4846 C   0  0  0  0  0  0  0  0  0  0  0  0
   12.8401  -18.2016   23.2698 C   0  0  0  0  0  0  0  0  0  0  0  0
   13.7615  -18.8575   22.5320 N   0  0  0  0  0  0  0  0  0  0  0  0
   13.7079  -18.3583   21.2793 C   0  0  0  0  0  0  0  0  0  0  0  0
   12.7672  -17.4130   21.2578 N   0  0  0  0  0  0  0  0  0  0  0  0
   11.7939  -16.3748   25.1983 C   0  0  0  0  0  0  0  0  0  0  0  0
   12.3044  -17.4591   25.6403 O   0  0  0  0  0  0  0  0  0  0  0  0
   12.3313  -15.1934   25.6615 O   0  0  0  0  0  0  0  0  0  0  0  0
  2  4  1  0
  2  1  1  6
  2  3  1  0
  4  5  2  0
  6  7  1  0
  7  8  1  0
  8 10  1  0
  8  9  1  6
 10 12  1  0
 10 11  1  1
 11  4  1  0
 12 13  2  0
 12 14  1  0
 14 15  1  0
 15 22  1  0
 15 16  1  6
 17 16  1  0
 17 18  2  0
 19 18  1  0
 20 19  1  0
 21 20  2  0
 21 17  1  0
 22 23  2  0
 22 24  1  0
M  END
$$$$
