AIH.pdb
     RDKit          3D

 24 24  0  0  1  0  0  0  0  0999 V2000
    6.5662  -16.0987   21.1840 C   0  0  0  0  0  0  0  0  0  0  0  0
    7.0758  -14.6932   21.3758 C   0  0  2  0  0  0  0  0  0  0  0  0
    7.7868  -14.3004   20.1992 N   0  0  0  0  0  0  0  0  0  0  0  0
    7.9699  -14.6551   22.5934 C   0  0  0  0  0  0  0  0  0  0  0  0
    9.2077  -14.8275   22.4761 O   0  0  0  0  0  0  0  0  0  0  0  0
    5.8523  -11.5445   26.7117 C   0  0  0  0  0  0  0  0  0  0  0  0
    6.8720  -12.1538   25.7622 C   0  0  0  0  0  0  0  0  0  0  0  0
    7.3111  -13.5052   26.1603 C   0  0  2  0  0  0  0  0  0  0  0  0
    8.1765  -13.3566   27.4246 C   0  0  0  0  0  0  0  0  0  0  0  0
    8.0572  -14.2929   25.1132 C   0  0  2  0  0  0  0  0  0  0  0  0
    7.3798  -14.4220   23.8573 N   0  0  0  0  0  0  0  0  0  0  0  0
    8.4802  -15.6184   25.5976 C   0  0  0  0  0  0  0  0  0  0  0  0
    7.6485  -16.5080   25.9076 O   0  0  0  0  0  0  0  0  0  0  0  0
    9.8612  -15.8982   25.7173 N   0  0  0  0  0  0  0  0  0  0  0  0
   10.2666  -17.1969   26.2454 C   0  0  1  0  0  0  0  0  0  0  0  0
   11.4691  -17.6981   25.4681 C   0  0  0  0  0  0  0  0  0  0  0  0
   11.1002  -17.9699   24.0627 C   0  0  0  0  0  0  0  0  0  0  0  0
    9.9081  -18.3313   23.4869 C   0  0  0  0  0  0  0  0  0  0  0  0
   10.0757  -18.4781   22.1549 N   0  0  0  0  0  0  0  0  0  0  0  0
   11.3694  -18.2123   21.8776 C   0  0  0  0  0  0  0  0  0  0  0  0
   11.9776  -17.9085   23.0251 N   0  0  0  0  0  0  0  0  0  0  0  0
   10.5028  -17.1164   27.6986 C   0  0  0  0  0  0  0  0  0  0  0  0
   10.7725  -18.1831   28.3474 O   0  0  0  0  0  0  0  0  0  0  0  0
   10.4515  -15.9411   28.4162 O   0  0  0  0  0  0  0  0  0  0  0  0
  2  4  1  0
  2  1  1  6
  2  3  1  0
  4  5  2  0
  6  7  1  0
  7  8  1  0
  8 10  1  0
  8  9  1  1
 10 12  1  0
 10 11  1  6
 11  4  1  0
 12 13  2  0
 12 14  1  0
 14 15  1  0
 15 22  1  0
 15 16  1  6
 17 16  1  0
 17 18  2  0
 19 18  1  0
 20 19  1  0
 21 20  2  0
 21 17  1  0
 22 23  2  0
 22 24  1  0
M  END
$$$$
