AIH.pdb
     RDKit          3D

 24 24  0  0  1  0  0  0  0  0999 V2000
    6.3521  -15.9765   20.9528 C   0  0  0  0  0  0  0  0  0  0  0  0
    6.9249  -14.5925   21.1218 C   0  0  2  0  0  0  0  0  0  0  0  0
    7.6530  -14.2518   19.9395 N   0  0  0  0  0  0  0  0  0  0  0  0
    7.8196  -14.5749   22.3394 C   0  0  0  0  0  0  0  0  0  0  0  0
    9.0586  -14.7346   22.2174 O   0  0  0  0  0  0  0  0  0  0  0  0
    5.8153  -11.4494   26.5566 C   0  0  0  0  0  0  0  0  0  0  0  0
    6.7322  -12.1049   25.5356 C   0  0  0  0  0  0  0  0  0  0  0  0
    7.1549  -13.4670   25.9148 C   0  0  2  0  0  0  0  0  0  0  0  0
    8.0052  -13.3485   27.1925 C   0  0  0  0  0  0  0  0  0  0  0  0
    7.9077  -14.2421   24.8633 C   0  0  2  0  0  0  0  0  0  0  0  0
    7.2287  -14.3753   23.6087 N   0  0  0  0  0  0  0  0  0  0  0  0
    8.3480  -15.5640   25.3422 C   0  0  0  0  0  0  0  0  0  0  0  0
    7.5289  -16.4760   25.6192 O   0  0  0  0  0  0  0  0  0  0  0  0
    9.7314  -15.8143   25.4946 N   0  0  0  0  0  0  0  0  0  0  0  0
   10.1523  -17.1103   26.0174 C   0  0  1  0  0  0  0  0  0  0  0  0
   11.4466  -17.5237   25.3428 C   0  0  0  0  0  0  0  0  0  0  0  0
   11.2038  -17.8723   23.9269 C   0  0  0  0  0  0  0  0  0  0  0  0
   10.0434  -18.0998   23.2304 C   0  0  0  0  0  0  0  0  0  0  0  0
   10.3382  -18.4015   21.9475 N   0  0  0  0  0  0  0  0  0  0  0  0
   11.6814  -18.3678   21.8216 C   0  0  0  0  0  0  0  0  0  0  0  0
   12.1939  -18.0501   23.0113 N   0  0  0  0  0  0  0  0  0  0  0  0
   10.2469  -17.0716   27.4884 C   0  0  0  0  0  0  0  0  0  0  0  0
   10.3097  -15.9415   28.0805 O   0  0  0  0  0  0  0  0  0  0  0  0
   10.2713  -18.1981   28.2815 O   0  0  0  0  0  0  0  0  0  0  0  0
  2  4  1  0
  2  1  1  6
  2  3  1  0
  4  5  2  0
  6  7  1  0
  7  8  1  0
  8 10  1  0
  8  9  1  1
 10 12  1  0
 10 11  1  6
 11  4  1  0
 12 13  2  0
 12 14  1  0
 14 15  1  0
 15 22  1  0
 15 16  1  6
 17 16  1  0
 17 18  2  0
 19 18  1  0
 20 19  1  0
 21 20  2  0
 21 17  1  0
 22 23  2  0
 22 24  1  0
M  END
$$$$
