AIH.pdb
     RDKit          3D

 24 24  0  0  1  0  0  0  0  0999 V2000
    8.5406  -19.8283   21.5154 C   0  0  0  0  0  0  0  0  0  0  0  0
    7.8907  -18.6589   20.8211 C   0  0  2  0  0  0  0  0  0  0  0  0
    7.9742  -18.8622   19.4084 N   0  0  0  0  0  0  0  0  0  0  0  0
    8.5956  -17.3873   21.2333 C   0  0  0  0  0  0  0  0  0  0  0  0
    9.8467  -17.3075   21.1699 O   0  0  0  0  0  0  0  0  0  0  0  0
    6.6702  -12.4853   19.5980 C   0  0  0  0  0  0  0  0  0  0  0  0
    7.4988  -13.6683   20.0743 C   0  0  0  0  0  0  0  0  0  0  0  0
    7.4796  -13.8471   21.5390 C   0  0  2  0  0  0  0  0  0  0  0  0
    7.9615  -12.5294   22.1721 C   0  0  0  0  0  0  0  0  0  0  0  0
    8.2865  -15.0029   22.0742 C   0  0  2  0  0  0  0  0  0  0  0  0
    7.8148  -16.2995   21.6883 N   0  0  0  0  0  0  0  0  0  0  0  0
    8.4594  -14.9428   23.5361 C   0  0  0  0  0  0  0  0  0  0  0  0
    8.1537  -13.9198   24.1989 O   0  0  0  0  0  0  0  0  0  0  0  0
    8.9842  -16.0679   24.2133 N   0  0  0  0  0  0  0  0  0  0  0  0
    9.0887  -16.0203   25.6682 C   0  0  1  0  0  0  0  0  0  0  0  0
    7.7073  -15.8174   26.2611 C   0  0  0  0  0  0  0  0  0  0  0  0
    7.3748  -14.3782   26.3182 C   0  0  0  0  0  0  0  0  0  0  0  0
    8.0913  -13.2941   26.7597 C   0  0  0  0  0  0  0  0  0  0  0  0
    7.3494  -12.1745   26.6191 N   0  0  0  0  0  0  0  0  0  0  0  0
    6.1625  -12.5385   26.0899 C   0  0  0  0  0  0  0  0  0  0  0  0
    6.1844  -13.8602   25.9122 N   0  0  0  0  0  0  0  0  0  0  0  0
    9.7731  -17.2220   26.1797 C   0  0  0  0  0  0  0  0  0  0  0  0
   10.0933  -18.1524   25.3653 O   0  0  0  0  0  0  0  0  0  0  0  0
   10.0971  -17.4094   27.5059 O   0  0  0  0  0  0  0  0  0  0  0  0
  2  4  1  0
  2  1  1  1
  2  3  1  0
  4  5  2  0
  6  7  1  0
  7  8  1  0
  8 10  1  0
  8  9  1  1
 10 12  1  0
 10 11  1  1
 11  4  1  0
 12 13  2  0
 12 14  1  0
 14 15  1  0
 15 22  1  0
 15 16  1  1
 17 16  1  0
 17 18  2  0
 19 18  1  0
 20 19  1  0
 21 20  2  0
 21 17  1  0
 22 23  2  0
 22 24  1  0
M  END
$$$$
