AIH.pdb
     RDKit          3D

 24 24  0  0  1  0  0  0  0  0999 V2000
    6.5386  -16.2490   21.0954 C   0  0  0  0  0  0  0  0  0  0  0  0
    6.8908  -14.7852   21.1680 C   0  0  2  0  0  0  0  0  0  0  0  0
    7.5281  -14.4073   19.9453 N   0  0  0  0  0  0  0  0  0  0  0  0
    7.8003  -14.5554   22.3527 C   0  0  0  0  0  0  0  0  0  0  0  0
    9.0454  -14.5189   22.1978 O   0  0  0  0  0  0  0  0  0  0  0  0
    5.7415  -11.3375   26.3739 C   0  0  0  0  0  0  0  0  0  0  0  0
    6.6767  -12.0331   25.3970 C   0  0  0  0  0  0  0  0  0  0  0  0
    7.1616  -13.3412   25.8782 C   0  0  2  0  0  0  0  0  0  0  0  0
    8.0532  -13.0808   27.1057 C   0  0  0  0  0  0  0  0  0  0  0  0
    7.9029  -14.1827   24.8704 C   0  0  2  0  0  0  0  0  0  0  0  0
    7.2162  -14.3840   23.6292 N   0  0  0  0  0  0  0  0  0  0  0  0
    8.3357  -15.4775   25.4241 C   0  0  0  0  0  0  0  0  0  0  0  0
    7.5106  -16.3444   25.8075 O   0  0  0  0  0  0  0  0  0  0  0  0
    9.7188  -15.7534   25.5273 N   0  0  0  0  0  0  0  0  0  0  0  0
   10.1342  -17.0583   26.0319 C   0  0  1  0  0  0  0  0  0  0  0  0
   11.4495  -17.4479   25.3844 C   0  0  0  0  0  0  0  0  0  0  0  0
   11.2760  -17.6264   23.9272 C   0  0  0  0  0  0  0  0  0  0  0  0
   10.1946  -18.0202   23.1796 C   0  0  0  0  0  0  0  0  0  0  0  0
   10.5332  -18.0435   21.8725 N   0  0  0  0  0  0  0  0  0  0  0  0
   11.8260  -17.6665   21.7820 C   0  0  0  0  0  0  0  0  0  0  0  0
   12.2649  -17.4181   23.0167 N   0  0  0  0  0  0  0  0  0  0  0  0
   10.1878  -17.0527   27.5055 C   0  0  0  0  0  0  0  0  0  0  0  0
   10.2811  -15.9383   28.1226 O   0  0  0  0  0  0  0  0  0  0  0  0
   10.1416  -18.1947   28.2752 O   0  0  0  0  0  0  0  0  0  0  0  0
  2  4  1  0
  2  1  1  6
  2  3  1  0
  4  5  2  0
  6  7  1  0
  7  8  1  0
  8 10  1  0
  8  9  1  1
 10 12  1  0
 10 11  1  6
 11  4  1  0
 12 13  2  0
 12 14  1  0
 14 15  1  0
 15 22  1  0
 15 16  1  6
 17 16  1  0
 17 18  2  0
 19 18  1  0
 20 19  1  0
 21 20  2  0
 21 17  1  0
 22 23  2  0
 22 24  1  0
M  END
$$$$
