AIH.pdb
     RDKit          3D

 24 24  0  0  1  0  0  0  0  0999 V2000
    6.8491  -16.3908   21.3200 C   0  0  0  0  0  0  0  0  0  0  0  0
    6.9592  -14.8977   21.4945 C   0  0  2  0  0  0  0  0  0  0  0  0
    7.4880  -14.3347   20.2914 N   0  0  0  0  0  0  0  0  0  0  0  0
    7.8550  -14.6044   22.6756 C   0  0  0  0  0  0  0  0  0  0  0  0
    9.0848  -14.4180   22.5070 O   0  0  0  0  0  0  0  0  0  0  0  0
    5.5069  -11.7758   26.8177 C   0  0  0  0  0  0  0  0  0  0  0  0
    6.5502  -12.3008   25.8437 C   0  0  0  0  0  0  0  0  0  0  0  0
    7.1346  -13.5936   26.2495 C   0  0  2  0  0  0  0  0  0  0  0  0
    7.9875  -13.3415   27.5059 C   0  0  0  0  0  0  0  0  0  0  0  0
    7.9540  -14.3059   25.2033 C   0  0  2  0  0  0  0  0  0  0  0  0
    7.2757  -14.5459   23.9644 N   0  0  0  0  0  0  0  0  0  0  0  0
    8.5472  -15.5576   25.7052 C   0  0  0  0  0  0  0  0  0  0  0  0
    7.8375  -16.5234   26.0829 O   0  0  0  0  0  0  0  0  0  0  0  0
    9.9551  -15.6762   25.7638 N   0  0  0  0  0  0  0  0  0  0  0  0
   10.5303  -16.9290   26.2430 C   0  0  1  0  0  0  0  0  0  0  0  0
   11.8635  -17.1602   25.5573 C   0  0  0  0  0  0  0  0  0  0  0  0
   11.6661  -17.4162   24.1148 C   0  0  0  0  0  0  0  0  0  0  0  0
   10.5397  -17.7064   23.3865 C   0  0  0  0  0  0  0  0  0  0  0  0
   10.8712  -17.8704   22.0877 N   0  0  0  0  0  0  0  0  0  0  0  0
   12.2041  -17.6863   21.9832 C   0  0  0  0  0  0  0  0  0  0  0  0
   12.6741  -17.4145   23.2015 N   0  0  0  0  0  0  0  0  0  0  0  0
   10.6227  -16.9293   27.7146 C   0  0  0  0  0  0  0  0  0  0  0  0
   10.5767  -15.8183   28.3433 O   0  0  0  0  0  0  0  0  0  0  0  0
   10.7569  -18.0734   28.4707 O   0  0  0  0  0  0  0  0  0  0  0  0
  2  4  1  0
  2  1  1  6
  2  3  1  0
  4  5  2  0
  6  7  1  0
  7  8  1  0
  8 10  1  0
  8  9  1  1
 10 12  1  0
 10 11  1  6
 11  4  1  0
 12 13  2  0
 12 14  1  0
 14 15  1  0
 15 22  1  0
 15 16  1  6
 17 16  1  0
 17 18  2  0
 19 18  1  0
 20 19  1  0
 21 20  2  0
 21 17  1  0
 22 23  2  0
 22 24  1  0
M  END
$$$$
