AIH.pdb
     RDKit          3D

 24 24  0  0  1  0  0  0  0  0999 V2000
    6.3197  -15.8224   20.7848 C   0  0  0  0  0  0  0  0  0  0  0  0
    7.2593  -14.6450   20.8398 C   0  0  2  0  0  0  0  0  0  0  0  0
    8.1919  -14.7539   19.7617 N   0  0  0  0  0  0  0  0  0  0  0  0
    7.9656  -14.6402   22.1757 C   0  0  0  0  0  0  0  0  0  0  0  0
    9.0372  -15.2759   22.3279 O   0  0  0  0  0  0  0  0  0  0  0  0
    7.3447  -11.3055   27.4883 C   0  0  0  0  0  0  0  0  0  0  0  0
    7.9384  -12.4774   26.7222 C   0  0  0  0  0  0  0  0  0  0  0  0
    7.3248  -12.6837   25.3961 C   0  0  2  0  0  0  0  0  0  0  0  0
    5.8091  -12.8485   25.6084 C   0  0  0  0  0  0  0  0  0  0  0  0
    7.8625  -13.8400   24.5918 C   0  0  2  0  0  0  0  0  0  0  0  0
    7.3919  -13.9069   23.2402 N   0  0  0  0  0  0  0  0  0  0  0  0
    7.6611  -15.1368   25.2615 C   0  0  0  0  0  0  0  0  0  0  0  0
    6.7343  -15.9180   24.9298 O   0  0  0  0  0  0  0  0  0  0  0  0
    8.5351  -15.5136   26.3073 N   0  0  0  0  0  0  0  0  0  0  0  0
    8.9145  -16.9177   26.4275 C   0  0  1  0  0  0  0  0  0  0  0  0
    9.5826  -17.3657   25.1414 C   0  0  0  0  0  0  0  0  0  0  0  0
    9.9245  -18.8023   25.2091 C   0  0  0  0  0  0  0  0  0  0  0  0
    9.7874  -19.7254   26.2153 C   0  0  0  0  0  0  0  0  0  0  0  0
   10.2608  -20.9201   25.8002 N   0  0  0  0  0  0  0  0  0  0  0  0
   10.6997  -20.7641   24.5335 C   0  0  0  0  0  0  0  0  0  0  0  0
   10.4953  -19.4928   24.1855 N   0  0  0  0  0  0  0  0  0  0  0  0
    9.7496  -17.1299   27.6241 C   0  0  0  0  0  0  0  0  0  0  0  0
    9.5611  -18.1704   28.3406 O   0  0  0  0  0  0  0  0  0  0  0  0
   10.7408  -16.2615   28.0268 O   0  0  0  0  0  0  0  0  0  0  0  0
  2  4  1  0
  2  1  1  1
  2  3  1  0
  4  5  2  0
  6  7  1  0
  7  8  1  0
  8 10  1  0
  8  9  1  1
 10 12  1  0
 10 11  1  6
 11  4  1  0
 12 13  2  0
 12 14  1  0
 14 15  1  0
 15 22  1  0
 15 16  1  6
 17 16  1  0
 17 18  2  0
 19 18  1  0
 20 19  1  0
 21 20  2  0
 21 17  1  0
 22 23  2  0
 22 24  1  0
M  END
$$$$
