AIH.pdb
     RDKit          3D

 24 24  0  0  1  0  0  0  0  0999 V2000
    6.4370  -15.8570   21.0418 C   0  0  0  0  0  0  0  0  0  0  0  0
    6.9753  -14.4635   21.2425 C   0  0  2  0  0  0  0  0  0  0  0  0
    7.6741  -14.0687   20.0593 N   0  0  0  0  0  0  0  0  0  0  0  0
    7.8896  -14.4569   22.4456 C   0  0  0  0  0  0  0  0  0  0  0  0
    9.1245  -14.6315   22.3037 O   0  0  0  0  0  0  0  0  0  0  0  0
    5.9279  -11.3760   26.6621 C   0  0  0  0  0  0  0  0  0  0  0  0
    6.8885  -12.0080   25.6668 C   0  0  0  0  0  0  0  0  0  0  0  0
    7.3108  -13.3711   26.0426 C   0  0  2  0  0  0  0  0  0  0  0  0
    8.2057  -13.2509   27.2893 C   0  0  0  0  0  0  0  0  0  0  0  0
    8.0195  -14.1620   24.9723 C   0  0  2  0  0  0  0  0  0  0  0  0
    7.3216  -14.2506   23.7242 N   0  0  0  0  0  0  0  0  0  0  0  0
    8.4108  -15.5071   25.4288 C   0  0  0  0  0  0  0  0  0  0  0  0
    7.5581  -16.3823   25.7223 O   0  0  0  0  0  0  0  0  0  0  0  0
    9.7847  -15.8228   25.5401 N   0  0  0  0  0  0  0  0  0  0  0  0
   10.1591  -17.1636   25.9783 C   0  0  1  0  0  0  0  0  0  0  0  0
   11.4841  -17.5435   25.3449 C   0  0  0  0  0  0  0  0  0  0  0  0
   11.3298  -17.7134   23.8846 C   0  0  0  0  0  0  0  0  0  0  0  0
   10.2268  -17.6467   23.0708 C   0  0  0  0  0  0  0  0  0  0  0  0
   10.5923  -17.8881   21.7934 N   0  0  0  0  0  0  0  0  0  0  0  0
   11.9237  -18.1088   21.7877 C   0  0  0  0  0  0  0  0  0  0  0  0
   12.3593  -18.0027   23.0439 N   0  0  0  0  0  0  0  0  0  0  0  0
   10.1709  -17.2449   27.4505 C   0  0  0  0  0  0  0  0  0  0  0  0
   10.2240  -16.1677   28.1349 O   0  0  0  0  0  0  0  0  0  0  0  0
   10.1265  -18.4315   28.1498 O   0  0  0  0  0  0  0  0  0  0  0  0
  2  4  1  0
  2  1  1  6
  2  3  1  0
  4  5  2  0
  6  7  1  0
  7  8  1  0
  8 10  1  0
  8  9  1  1
 10 12  1  0
 10 11  1  6
 11  4  1  0
 12 13  2  0
 12 14  1  0
 14 15  1  0
 15 22  1  0
 15 16  1  1
 17 16  1  0
 17 18  2  0
 19 18  1  0
 20 19  1  0
 21 20  2  0
 21 17  1  0
 22 23  2  0
 22 24  1  0
M  END
$$$$
