AIH.pdb
     RDKit          3D

 24 24  0  0  1  0  0  0  0  0999 V2000
    7.9646  -14.7238   20.2596 C   0  0  0  0  0  0  0  0  0  0  0  0
    7.3063  -15.5004   21.3711 C   0  0  2  0  0  0  0  0  0  0  0  0
    5.9248  -15.1365   21.4268 N   0  0  0  0  0  0  0  0  0  0  0  0
    8.0072  -15.1877   22.6728 C   0  0  0  0  0  0  0  0  0  0  0  0
    9.2407  -15.3872   22.7919 O   0  0  0  0  0  0  0  0  0  0  0  0
    6.0158  -10.9452   25.6300 C   0  0  0  0  0  0  0  0  0  0  0  0
    6.9396  -11.9788   25.0045 C   0  0  0  0  0  0  0  0  0  0  0  0
    7.0007  -13.2453   25.7594 C   0  0  2  0  0  0  0  0  0  0  0  0
    7.6777  -12.9469   27.1093 C   0  0  0  0  0  0  0  0  0  0  0  0
    7.7002  -14.3909   25.0726 C   0  0  2  0  0  0  0  0  0  0  0  0
    7.2428  -14.6689   23.7436 N   0  0  0  0  0  0  0  0  0  0  0  0
    7.6905  -15.6242   25.8786 C   0  0  0  0  0  0  0  0  0  0  0  0
    6.6342  -16.2723   26.0870 O   0  0  0  0  0  0  0  0  0  0  0  0
    8.9039  -16.0923   26.4337 N   0  0  0  0  0  0  0  0  0  0  0  0
    8.9513  -17.4529   26.9597 C   0  0  1  0  0  0  0  0  0  0  0  0
    8.5769  -18.4267   25.8585 C   0  0  0  0  0  0  0  0  0  0  0  0
    8.6701  -19.8193   26.3455 C   0  0  0  0  0  0  0  0  0  0  0  0
    8.9658  -20.3343   27.5827 C   0  0  0  0  0  0  0  0  0  0  0  0
    8.9394  -21.6834   27.5288 N   0  0  0  0  0  0  0  0  0  0  0  0
    8.6284  -22.0323   26.2627 C   0  0  0  0  0  0  0  0  0  0  0  0
    8.4683  -20.9106   25.5590 N   0  0  0  0  0  0  0  0  0  0  0  0
   10.2675  -17.7313   27.5630 C   0  0  0  0  0  0  0  0  0  0  0  0
   10.3230  -18.2993   28.7058 O   0  0  0  0  0  0  0  0  0  0  0  0
   11.4657  -17.4132   26.9613 O   0  0  0  0  0  0  0  0  0  0  0  0
  2  4  1  0
  2  1  1  6
  2  3  1  0
  4  5  2  0
  6  7  1  0
  7  8  1  0
  8 10  1  0
  8  9  1  1
 10 12  1  0
 10 11  1  6
 11  4  1  0
 12 13  2  0
 12 14  1  0
 14 15  1  0
 15 22  1  0
 15 16  1  6
 17 16  1  0
 17 18  2  0
 19 18  1  0
 20 19  1  0
 21 20  2  0
 21 17  1  0
 22 23  2  0
 22 24  1  0
M  END
$$$$
