AIH.pdb
     RDKit          3D

 24 24  0  0  1  0  0  0  0  0999 V2000
    6.9332  -16.7923   21.4844 C   0  0  0  0  0  0  0  0  0  0  0  0
    7.3297  -15.3381   21.4807 C   0  0  2  0  0  0  0  0  0  0  0  0
    8.0526  -15.0645   20.2779 N   0  0  0  0  0  0  0  0  0  0  0  0
    8.1729  -15.0542   22.7022 C   0  0  0  0  0  0  0  0  0  0  0  0
    9.4176  -15.2125   22.6635 O   0  0  0  0  0  0  0  0  0  0  0  0
    5.8392  -11.4200   26.3055 C   0  0  0  0  0  0  0  0  0  0  0  0
    6.8491  -12.1554   25.4383 C   0  0  0  0  0  0  0  0  0  0  0  0
    7.3377  -13.4104   26.0417 C   0  0  2  0  0  0  0  0  0  0  0  0
    8.1641  -13.0347   27.2849 C   0  0  0  0  0  0  0  0  0  0  0  0
    8.1438  -14.3083   25.1375 C   0  0  2  0  0  0  0  0  0  0  0  0
    7.5279  -14.6094   23.8795 N   0  0  0  0  0  0  0  0  0  0  0  0
    8.5639  -15.5527   25.8050 C   0  0  0  0  0  0  0  0  0  0  0  0
    7.7431  -16.4578   26.0988 O   0  0  0  0  0  0  0  0  0  0  0  0
    9.9294  -15.7344   26.1244 N   0  0  0  0  0  0  0  0  0  0  0  0
   10.3400  -16.9912   26.7425 C   0  0  1  0  0  0  0  0  0  0  0  0
   11.6949  -17.3973   26.1943 C   0  0  0  0  0  0  0  0  0  0  0  0
   11.5641  -17.8975   24.8095 C   0  0  0  0  0  0  0  0  0  0  0  0
   10.4615  -18.1847   24.0445 C   0  0  0  0  0  0  0  0  0  0  0  0
   10.8562  -18.6309   22.8325 N   0  0  0  0  0  0  0  0  0  0  0  0
   12.2057  -18.6300   22.8200 C   0  0  0  0  0  0  0  0  0  0  0  0
   12.6234  -18.1895   24.0076 N   0  0  0  0  0  0  0  0  0  0  0  0
   10.3141  -16.8803   28.2126 C   0  0  0  0  0  0  0  0  0  0  0  0
   10.4514  -17.9345   28.9207 O   0  0  0  0  0  0  0  0  0  0  0  0
   10.1491  -15.6891   28.8854 O   0  0  0  0  0  0  0  0  0  0  0  0
  2  4  1  0
  2  1  1  6
  2  3  1  0
  4  5  2  0
  6  7  1  0
  7  8  1  0
  8 10  1  0
  8  9  1  1
 10 12  1  0
 10 11  1  6
 11  4  1  0
 12 13  2  0
 12 14  1  0
 14 15  1  0
 15 22  1  0
 15 16  1  6
 17 16  1  0
 17 18  2  0
 19 18  1  0
 20 19  1  0
 21 20  2  0
 21 17  1  0
 22 23  2  0
 22 24  1  0
M  END
$$$$
