AIH.pdb
     RDKit          3D

 24 24  0  0  1  0  0  0  0  0999 V2000
    7.4102  -17.3482   21.6525 C   0  0  0  0  0  0  0  0  0  0  0  0
    7.7003  -15.8914   21.3962 C   0  0  2  0  0  0  0  0  0  0  0  0
    8.4291  -15.7792   20.1713 N   0  0  0  0  0  0  0  0  0  0  0  0
    8.4921  -15.3351   22.5568 C   0  0  0  0  0  0  0  0  0  0  0  0
    9.7467  -15.3750   22.5448 O   0  0  0  0  0  0  0  0  0  0  0  0
    7.2516  -11.4498   27.3198 C   0  0  0  0  0  0  0  0  0  0  0  0
    8.1059  -12.5612   26.7300 C   0  0  0  0  0  0  0  0  0  0  0  0
    7.5139  -13.1827   25.5296 C   0  0  2  0  0  0  0  0  0  0  0  0
    6.1513  -13.7712   25.9376 C   0  0  0  0  0  0  0  0  0  0  0  0
    8.3502  -14.2382   24.8513 C   0  0  2  0  0  0  0  0  0  0  0  0
    7.7880  -14.7732   23.6470 N   0  0  0  0  0  0  0  0  0  0  0  0
    8.7271  -15.3328   25.7626 C   0  0  0  0  0  0  0  0  0  0  0  0
    7.9054  -16.2163   26.1140 O   0  0  0  0  0  0  0  0  0  0  0  0
   10.0509  -15.3915   26.2563 N   0  0  0  0  0  0  0  0  0  0  0  0
   10.4188  -16.4958   27.1367 C   0  0  1  0  0  0  0  0  0  0  0  0
   11.7782  -17.0293   26.7263 C   0  0  0  0  0  0  0  0  0  0  0  0
   11.6648  -17.8458   25.4993 C   0  0  0  0  0  0  0  0  0  0  0  0
   10.5730  -18.2660   24.7818 C   0  0  0  0  0  0  0  0  0  0  0  0
   10.9815  -19.0092   23.7309 N   0  0  0  0  0  0  0  0  0  0  0  0
   12.3292  -19.0657   23.7740 C   0  0  0  0  0  0  0  0  0  0  0  0
   12.7321  -18.3666   24.8360 N   0  0  0  0  0  0  0  0  0  0  0  0
   10.3580  -16.0768   28.5492 C   0  0  0  0  0  0  0  0  0  0  0  0
   10.5265  -16.9491   29.4669 O   0  0  0  0  0  0  0  0  0  0  0  0
   10.1276  -14.7791   28.9511 O   0  0  0  0  0  0  0  0  0  0  0  0
  2  4  1  0
  2  1  1  1
  2  3  1  0
  4  5  2  0
  6  7  1  0
  7  8  1  0
  8 10  1  0
  8  9  1  1
 10 12  1  0
 10 11  1  6
 11  4  1  0
 12 13  2  0
 12 14  1  0
 14 15  1  0
 15 22  1  0
 15 16  1  6
 17 16  1  0
 17 18  2  0
 19 18  1  0
 20 19  1  0
 21 20  2  0
 21 17  1  0
 22 23  2  0
 22 24  1  0
M  END
$$$$
