AIH.pdb
     RDKit          3D

 24 24  0  0  1  0  0  0  0  0999 V2000
    6.5133  -15.6173   20.7593 C   0  0  0  0  0  0  0  0  0  0  0  0
    7.0356  -14.2267   21.0152 C   0  0  2  0  0  0  0  0  0  0  0  0
    7.7942  -13.8072   19.8783 N   0  0  0  0  0  0  0  0  0  0  0  0
    7.8855  -14.2417   22.2646 C   0  0  0  0  0  0  0  0  0  0  0  0
    9.1227  -14.4394   22.1868 O   0  0  0  0  0  0  0  0  0  0  0  0
    5.5090  -11.4806   26.5250 C   0  0  0  0  0  0  0  0  0  0  0  0
    6.6162  -11.9551   25.5967 C   0  0  0  0  0  0  0  0  0  0  0  0
    7.0758  -13.3276   25.8842 C   0  0  2  0  0  0  0  0  0  0  0  0
    7.8866  -13.2795   27.1918 C   0  0  0  0  0  0  0  0  0  0  0  0
    7.8835  -13.9947   24.7998 C   0  0  2  0  0  0  0  0  0  0  0  0
    7.2552  -14.0291   23.5126 N   0  0  0  0  0  0  0  0  0  0  0  0
    8.3322  -15.3459   25.1790 C   0  0  0  0  0  0  0  0  0  0  0  0
    7.5642  -16.3392   25.1265 O   0  0  0  0  0  0  0  0  0  0  0  0
    9.6647  -15.5308   25.6146 N   0  0  0  0  0  0  0  0  0  0  0  0
   10.1497  -16.8923   25.8177 C   0  0  1  0  0  0  0  0  0  0  0  0
   11.4731  -17.0631   25.0963 C   0  0  0  0  0  0  0  0  0  0  0  0
   11.3261  -17.9965   23.9595 C   0  0  0  0  0  0  0  0  0  0  0  0
   10.2425  -18.6936   23.4868 C   0  0  0  0  0  0  0  0  0  0  0  0
   10.6119  -19.4336   22.4193 N   0  0  0  0  0  0  0  0  0  0  0  0
   11.9264  -19.2124   22.2081 C   0  0  0  0  0  0  0  0  0  0  0  0
   12.3480  -18.3504   23.1345 N   0  0  0  0  0  0  0  0  0  0  0  0
   10.2234  -17.2087   27.2560 C   0  0  0  0  0  0  0  0  0  0  0  0
   10.2631  -16.2542   28.1040 O   0  0  0  0  0  0  0  0  0  0  0  0
   10.2517  -18.4930   27.7545 O   0  0  0  0  0  0  0  0  0  0  0  0
  2  4  1  0
  2  1  1  6
  2  3  1  0
  4  5  2  0
  6  7  1  0
  7  8  1  0
  8 10  1  0
  8  9  1  1
 10 12  1  0
 10 11  1  6
 11  4  1  0
 12 13  2  0
 12 14  1  0
 14 15  1  0
 15 22  1  0
 15 16  1  1
 17 16  1  0
 17 18  2  0
 19 18  1  0
 20 19  1  0
 21 20  2  0
 21 17  1  0
 22 23  2  0
 22 24  1  0
M  END
$$$$
