AIH.pdb
     RDKit          3D

 24 24  0  0  1  0  0  0  0  0999 V2000
    6.5083  -16.3564   21.1317 C   0  0  0  0  0  0  0  0  0  0  0  0
    7.2151  -15.0267   21.1980 C   0  0  2  0  0  0  0  0  0  0  0  0
    8.0851  -14.9149   20.0690 N   0  0  0  0  0  0  0  0  0  0  0  0
    7.9874  -14.9433   22.4941 C   0  0  0  0  0  0  0  0  0  0  0  0
    9.1697  -15.3608   22.5550 O   0  0  0  0  0  0  0  0  0  0  0  0
    6.0000  -11.0451   26.0136 C   0  0  0  0  0  0  0  0  0  0  0  0
    6.9523  -11.9147   25.2076 C   0  0  0  0  0  0  0  0  0  0  0  0
    7.2004  -13.2354   25.8174 C   0  0  2  0  0  0  0  0  0  0  0  0
    8.0110  -13.0052   27.1055 C   0  0  0  0  0  0  0  0  0  0  0  0
    7.8968  -14.2469   24.9426 C   0  0  2  0  0  0  0  0  0  0  0  0
    7.3483  -14.3873   23.6264 N   0  0  0  0  0  0  0  0  0  0  0  0
    8.0110  -15.5674   25.5858 C   0  0  0  0  0  0  0  0  0  0  0  0
    7.1473  -16.4645   25.4170 O   0  0  0  0  0  0  0  0  0  0  0  0
    9.1238  -15.8336   26.4167 N   0  0  0  0  0  0  0  0  0  0  0  0
    9.6491  -17.1944   26.4644 C   0  0  1  0  0  0  0  0  0  0  0  0
   10.0812  -17.6113   25.0713 C   0  0  0  0  0  0  0  0  0  0  0  0
   10.6472  -18.9767   25.0920 C   0  0  0  0  0  0  0  0  0  0  0  0
   10.8386  -19.8686   26.1174 C   0  0  0  0  0  0  0  0  0  0  0  0
   11.4076  -20.9949   25.6364 N   0  0  0  0  0  0  0  0  0  0  0  0
   11.5806  -20.8264   24.3086 C   0  0  0  0  0  0  0  0  0  0  0  0
   11.1229  -19.6150   23.9890 N   0  0  0  0  0  0  0  0  0  0  0  0
   10.7258  -17.3011   27.4662 C   0  0  0  0  0  0  0  0  0  0  0  0
   10.9397  -18.4243   28.0356 O   0  0  0  0  0  0  0  0  0  0  0  0
   11.5330  -16.2467   27.8344 O   0  0  0  0  0  0  0  0  0  0  0  0
  2  4  1  0
  2  1  1  6
  2  3  1  0
  4  5  2  0
  6  7  1  0
  7  8  1  0
  8 10  1  0
  8  9  1  1
 10 12  1  0
 10 11  1  6
 11  4  1  0
 12 13  2  0
 12 14  1  0
 14 15  1  0
 15 22  1  0
 15 16  1  6
 17 16  1  0
 17 18  2  0
 19 18  1  0
 20 19  1  0
 21 20  2  0
 21 17  1  0
 22 23  2  0
 22 24  1  0
M  END
$$$$
