AIH.pdb
     RDKit          3D

 24 24  0  0  1  0  0  0  0  0999 V2000
    6.5504  -15.7577   20.9630 C   0  0  0  0  0  0  0  0  0  0  0  0
    7.2916  -14.4586   21.1502 C   0  0  2  0  0  0  0  0  0  0  0  0
    8.1669  -14.2672   20.0361 N   0  0  0  0  0  0  0  0  0  0  0  0
    8.0629  -14.5141   22.4485 C   0  0  0  0  0  0  0  0  0  0  0  0
    9.2513  -14.9179   22.4626 O   0  0  0  0  0  0  0  0  0  0  0  0
    6.1632  -11.0485   26.4942 C   0  0  0  0  0  0  0  0  0  0  0  0
    7.0672  -11.8348   25.5576 C   0  0  0  0  0  0  0  0  0  0  0  0
    7.2425  -13.2447   25.9567 C   0  0  2  0  0  0  0  0  0  0  0  0
    7.9898  -13.2549   27.3024 C   0  0  0  0  0  0  0  0  0  0  0  0
    7.9538  -14.1290   24.9641 C   0  0  2  0  0  0  0  0  0  0  0  0
    7.4155  -14.1024   23.6366 N   0  0  0  0  0  0  0  0  0  0  0  0
    8.0753  -15.5207   25.4321 C   0  0  0  0  0  0  0  0  0  0  0  0
    7.3306  -16.4345   24.9968 O   0  0  0  0  0  0  0  0  0  0  0  0
    9.0576  -15.8378   26.3987 N   0  0  0  0  0  0  0  0  0  0  0  0
    9.7179  -17.1370   26.3219 C   0  0  1  0  0  0  0  0  0  0  0  0
   10.4075  -17.2674   24.9771 C   0  0  0  0  0  0  0  0  0  0  0  0
   11.1484  -18.5441   24.8971 C   0  0  0  0  0  0  0  0  0  0  0  0
   11.3248  -19.5543   25.8091 C   0  0  0  0  0  0  0  0  0  0  0  0
   12.1014  -20.5189   25.2706 N   0  0  0  0  0  0  0  0  0  0  0  0
   12.4219  -20.1293   24.0188 C   0  0  0  0  0  0  0  0  0  0  0  0
   11.8478  -18.9452   23.8015 N   0  0  0  0  0  0  0  0  0  0  0  0
   10.6288  -17.3256   27.4660 C   0  0  0  0  0  0  0  0  0  0  0  0
   11.0935  -16.3003   28.0697 O   0  0  0  0  0  0  0  0  0  0  0  0
   11.0181  -18.5610   27.9362 O   0  0  0  0  0  0  0  0  0  0  0  0
  2  4  1  0
  2  1  1  6
  2  3  1  0
  4  5  2  0
  6  7  1  0
  7  8  1  0
  8 10  1  0
  8  9  1  1
 10 12  1  0
 10 11  1  6
 11  4  1  0
 12 13  2  0
 12 14  1  0
 14 15  1  0
 15 22  1  0
 15 16  1  6
 17 16  1  0
 17 18  2  0
 19 18  1  0
 20 19  1  0
 21 20  2  0
 21 17  1  0
 22 23  2  0
 22 24  1  0
M  END
$$$$
