HCQ.pdb
     RDKit          3D

 26 26  0  0  1  0  0  0  0  0999 V2000
   19.1379  -14.4089  -16.9776 N   0  0  0  0  0  0  0  0  0  0  0  0
   18.3265  -13.2532  -16.6904 C   0  0  1  0  0  0  0  0  0  0  0  0
   17.3243  -13.6687  -15.6149 C   0  0  0  0  0  0  0  0  0  0  0  0
   16.3676  -14.6649  -16.1539 C   0  0  0  0  0  0  0  0  0  0  0  0
   15.3642  -14.4244  -17.0663 C   0  0  0  0  0  0  0  0  0  0  0  0
   14.6915  -15.5524  -17.3300 N   0  0  0  0  0  0  0  0  0  0  0  0
   15.2597  -16.5193  -16.5888 C   0  0  0  0  0  0  0  0  0  0  0  0
   16.2875  -15.9851  -15.8650 N   0  0  0  0  0  0  0  0  0  0  0  0
   19.1645  -12.1304  -16.2400 C   0  0  0  0  0  0  0  0  0  0  0  0
   19.8940  -12.2635  -15.2126 O   0  0  0  0  0  0  0  0  0  0  0  0
   19.1984  -10.8758  -16.9135 N   0  0  0  0  0  0  0  0  0  0  0  0
   20.0174   -9.7851  -16.4906 C   0  0  1  0  0  0  0  0  0  0  0  0
   20.6147   -9.0829  -17.6860 C   0  0  0  0  0  0  0  0  0  0  0  0
   21.8535  -10.1935  -18.4121 S   0  0  0  0  0  0  0  0  0  0  0  0
   19.3088   -8.8499  -15.5855 C   0  0  0  0  0  0  0  0  0  0  0  0
   18.0792   -8.9289  -15.4684 O   0  0  0  0  0  0  0  0  0  0  0  0
   16.9212   -9.3274  -11.0919 N   0  0  0  0  0  0  0  0  0  0  0  0
   17.1297   -7.9436  -10.8856 C   0  0  0  0  0  0  0  0  0  0  0  0
   16.5571   -7.4178   -9.8742 O   0  0  0  0  0  0  0  0  0  0  0  0
   17.9623   -7.0974  -11.7580 C   0  0  0  0  0  0  0  0  0  0  0  0
   18.5919   -7.7852  -12.9164 C   0  0  0  0  0  0  0  0  0  0  0  0
   19.4055   -6.9909  -13.8616 C   0  0  2  0  0  0  0  0  0  0  0  0
   20.0310   -7.8726  -14.8595 N   0  0  0  0  0  0  0  0  0  0  0  0
   20.3117   -5.9968  -13.3443 C   0  0  0  0  0  0  0  0  0  0  0  0
   21.5525   -6.1820  -13.3128 O   0  0  0  0  0  0  0  0  0  0  0  0
   19.8971   -4.7538  -12.8378 O   0  0  0  0  0  0  0  0  0  0  0  0
  2  1  1  1
  3  2  1  0
  4  8  1  0
  4  3  1  0
  5  4  2  0
  6  5  1  0
  6  7  1  0
  7  8  2  0
  9 10  2  0
  9  2  1  0
 11  9  1  0
 12 11  1  0
 12 13  1  6
 14 13  1  0
 15 12  1  0
 16 15  2  0
 17 18  1  0
 18 20  1  0
 19 18  2  0
 21 20  1  0
 22 21  1  1
 22 23  1  0
 23 15  1  0
 24 22  1  0
 24 26  1  0
 25 24  2  0
M  END
$$$$
