HCQ.pdb
     RDKit          3D

 26 26  0  0  1  0  0  0  0  0999 V2000
   28.7832  -15.8589  -19.0569 N   0  0  0  0  0  0  0  0  0  0  0  0
   28.5977  -14.7126  -19.9102 C   0  0  1  0  0  0  0  0  0  0  0  0
   27.3139  -14.9508  -20.7032 C   0  0  0  0  0  0  0  0  0  0  0  0
   27.4941  -16.0701  -21.6587 C   0  0  0  0  0  0  0  0  0  0  0  0
   28.6880  -16.5116  -22.1851 C   0  0  0  0  0  0  0  0  0  0  0  0
   28.4806  -17.5422  -23.0152 N   0  0  0  0  0  0  0  0  0  0  0  0
   27.1550  -17.7656  -23.0246 C   0  0  0  0  0  0  0  0  0  0  0  0
   26.5423  -16.8686  -22.1965 N   0  0  0  0  0  0  0  0  0  0  0  0
   28.5156  -13.4794  -19.1112 C   0  0  0  0  0  0  0  0  0  0  0  0
   27.5665  -13.3277  -18.2857 O   0  0  0  0  0  0  0  0  0  0  0  0
   29.4679  -12.4259  -19.2206 N   0  0  0  0  0  0  0  0  0  0  0  0
   29.3899  -11.2214  -18.4574 C   0  0  1  0  0  0  0  0  0  0  0  0
   30.7340  -10.8955  -17.8524 C   0  0  0  0  0  0  0  0  0  0  0  0
   30.5433   -9.3755  -16.8784 S   0  0  0  0  0  0  0  0  0  0  0  0
   28.8306  -10.0862  -19.2285 C   0  0  0  0  0  0  0  0  0  0  0  0
   29.2894   -9.8247  -20.3478 O   0  0  0  0  0  0  0  0  0  0  0  0
   23.0549   -9.3649  -20.6008 N   0  0  0  0  0  0  0  0  0  0  0  0
   23.5748   -8.0947  -20.9430 C   0  0  0  0  0  0  0  0  0  0  0  0
   22.8155   -7.3224  -21.6171 O   0  0  0  0  0  0  0  0  0  0  0  0
   24.9186   -7.6255  -20.5629 C   0  0  0  0  0  0  0  0  0  0  0  0
   25.7604   -8.6039  -19.8244 C   0  0  0  0  0  0  0  0  0  0  0  0
   27.1316   -8.2131  -19.4329 C   0  0  2  0  0  0  0  0  0  0  0  0
   27.7794   -9.3057  -18.6906 N   0  0  0  0  0  0  0  0  0  0  0  0
   27.3490   -6.9207  -18.8333 C   0  0  0  0  0  0  0  0  0  0  0  0
   27.7595   -6.7969  -17.6539 O   0  0  0  0  0  0  0  0  0  0  0  0
   27.1257   -5.7051  -19.5011 O   0  0  0  0  0  0  0  0  0  0  0  0
  2  1  1  1
  3  2  1  0
  4  8  1  0
  4  3  1  0
  5  4  2  0
  6  5  1  0
  6  7  1  0
  7  8  2  0
  9 10  2  0
  9  2  1  0
 11  9  1  0
 12 11  1  0
 12 13  1  6
 14 13  1  0
 15 12  1  0
 16 15  2  0
 17 18  1  0
 18 20  1  0
 19 18  2  0
 21 20  1  0
 22 21  1  1
 22 23  1  0
 23 15  1  0
 24 22  1  0
 24 26  1  0
 25 24  2  0
M  END
$$$$
