HCQ.pdb
     RDKit          3D

 26 26  0  0  1  0  0  0  0  0999 V2000
   27.3810  -21.9970  -16.1834 N   0  0  0  0  0  0  0  0  0  0  0  0
   27.0966  -20.9059  -15.2861 C   0  0  1  0  0  0  0  0  0  0  0  0
   26.5239  -19.7706  -16.1328 C   0  0  0  0  0  0  0  0  0  0  0  0
   27.5704  -19.2037  -17.0170 C   0  0  0  0  0  0  0  0  0  0  0  0
   28.7028  -18.5299  -16.6157 C   0  0  0  0  0  0  0  0  0  0  0  0
   29.4272  -18.1576  -17.6791 N   0  0  0  0  0  0  0  0  0  0  0  0
   28.7634  -18.5904  -18.7651 C   0  0  0  0  0  0  0  0  0  0  0  0
   27.6247  -19.2325  -18.3694 N   0  0  0  0  0  0  0  0  0  0  0  0
   26.1503  -21.3275  -14.2408 C   0  0  0  0  0  0  0  0  0  0  0  0
   25.1286  -22.0075  -14.5555 O   0  0  0  0  0  0  0  0  0  0  0  0
   26.3277  -21.0038  -12.8651 N   0  0  0  0  0  0  0  0  0  0  0  0
   25.2685  -21.0551  -11.9087 C   0  0  1  0  0  0  0  0  0  0  0  0
   25.7924  -20.7415  -10.5281 C   0  0  0  0  0  0  0  0  0  0  0  0
   24.4339  -21.0042   -9.3530 S   0  0  0  0  0  0  0  0  0  0  0  0
   24.1157  -20.2012  -12.2797 C   0  0  0  0  0  0  0  0  0  0  0  0
   24.2954  -19.2172  -13.0086 O   0  0  0  0  0  0  0  0  0  0  0  0
   20.9344  -22.8124  -15.7404 N   0  0  0  0  0  0  0  0  0  0  0  0
   20.2716  -21.5632  -15.7726 C   0  0  0  0  0  0  0  0  0  0  0  0
   19.2922  -21.4497  -16.5822 O   0  0  0  0  0  0  0  0  0  0  0  0
   20.6431  -20.4121  -14.9316 C   0  0  0  0  0  0  0  0  0  0  0  0
   21.7598  -20.6424  -13.9769 C   0  0  0  0  0  0  0  0  0  0  0  0
   21.5953  -20.2164  -12.5705 C   0  0  2  0  0  0  0  0  0  0  0  0
   22.8176  -20.5069  -11.8050 N   0  0  0  0  0  0  0  0  0  0  0  0
   20.3917  -20.5762  -11.8643 C   0  0  0  0  0  0  0  0  0  0  0  0
   19.6749  -19.7181  -11.2944 O   0  0  0  0  0  0  0  0  0  0  0  0
   19.9199  -21.8946  -11.7513 O   0  0  0  0  0  0  0  0  0  0  0  0
  2  1  1  6
  3  2  1  0
  4  8  1  0
  4  3  1  0
  5  4  2  0
  6  5  1  0
  6  7  1  0
  7  8  2  0
  9 10  2  0
  9  2  1  0
 11  9  1  0
 12 11  1  0
 12 13  1  1
 14 13  1  0
 15 12  1  0
 16 15  2  0
 17 18  1  0
 18 20  1  0
 19 18  2  0
 21 20  1  0
 22 21  1  6
 22 23  1  0
 23 15  1  0
 24 22  1  0
 24 26  1  0
 25 24  2  0
M  END
$$$$
