HCQ.pdb
     RDKit          3D

 26 26  0  0  1  0  0  0  0  0999 V2000
   22.0368  -17.4052  -15.4497 N   0  0  0  0  0  0  0  0  0  0  0  0
   21.4899  -16.2424  -16.1018 C   0  0  1  0  0  0  0  0  0  0  0  0
   19.9762  -16.2902  -15.9018 C   0  0  0  0  0  0  0  0  0  0  0  0
   19.4068  -17.5035  -16.5359 C   0  0  0  0  0  0  0  0  0  0  0  0
   19.4060  -17.7992  -17.8812 C   0  0  0  0  0  0  0  0  0  0  0  0
   18.8074  -18.9772  -18.1009 N   0  0  0  0  0  0  0  0  0  0  0  0
   18.4225  -19.4411  -16.8993 C   0  0  0  0  0  0  0  0  0  0  0  0
   18.7855  -18.5451  -15.9344 N   0  0  0  0  0  0  0  0  0  0  0  0
   22.0685  -15.0120  -15.5387 C   0  0  0  0  0  0  0  0  0  0  0  0
   21.7007  -14.6115  -14.3942 O   0  0  0  0  0  0  0  0  0  0  0  0
   23.0405  -14.2320  -16.2282 N   0  0  0  0  0  0  0  0  0  0  0  0
   23.5788  -13.0166  -15.7063 C   0  0  1  0  0  0  0  0  0  0  0  0
   25.0474  -12.9079  -16.0383 C   0  0  0  0  0  0  0  0  0  0  0  0
   25.9058  -14.2559  -15.1772 S   0  0  0  0  0  0  0  0  0  0  0  0
   22.8162  -11.8195  -16.1320 C   0  0  0  0  0  0  0  0  0  0  0  0
   21.9450  -11.9298  -17.0040 O   0  0  0  0  0  0  0  0  0  0  0  0
   17.9897  -10.3279  -15.4816 N   0  0  0  0  0  0  0  0  0  0  0  0
   18.4167   -8.9978  -15.7044 C   0  0  0  0  0  0  0  0  0  0  0  0
   17.5085   -8.1056  -15.7849 O   0  0  0  0  0  0  0  0  0  0  0  0
   19.8281   -8.5979  -15.8391 C   0  0  0  0  0  0  0  0  0  0  0  0
   20.8270   -9.6888  -15.6851 C   0  0  0  0  0  0  0  0  0  0  0  0
   22.2638   -9.3639  -15.8128 C   0  0  2  0  0  0  0  0  0  0  0  0
   23.0808  -10.5581  -15.5467 N   0  0  0  0  0  0  0  0  0  0  0  0
   22.7753   -8.1792  -15.1711 C   0  0  0  0  0  0  0  0  0  0  0  0
   23.6477   -8.2362  -14.2707 O   0  0  0  0  0  0  0  0  0  0  0  0
   22.3526   -6.8776  -15.4884 O   0  0  0  0  0  0  0  0  0  0  0  0
  2  1  1  1
  3  2  1  0
  4  8  1  0
  4  3  1  0
  5  4  2  0
  6  5  1  0
  6  7  1  0
  7  8  2  0
  9 10  2  0
  9  2  1  0
 11  9  1  0
 12 11  1  0
 12 13  1  6
 14 13  1  0
 15 12  1  0
 16 15  2  0
 17 18  1  0
 18 20  1  0
 19 18  2  0
 21 20  1  0
 22 21  1  1
 22 23  1  0
 23 15  1  0
 24 22  1  0
 24 26  1  0
 25 24  2  0
M  END
$$$$
