HCQ.pdb
     RDKit          3D

 26 26  0  0  1  0  0  0  0  0999 V2000
   21.8597  -17.3078  -17.2570 N   0  0  0  0  0  0  0  0  0  0  0  0
   21.5310  -16.0316  -17.8399 C   0  0  1  0  0  0  0  0  0  0  0  0
   20.0071  -15.9247  -17.8475 C   0  0  0  0  0  0  0  0  0  0  0  0
   19.4196  -16.9457  -18.7479 C   0  0  0  0  0  0  0  0  0  0  0  0
   19.4920  -16.9616  -20.1233 C   0  0  0  0  0  0  0  0  0  0  0  0
   18.8500  -18.0303  -20.6132 N   0  0  0  0  0  0  0  0  0  0  0  0
   18.3639  -18.7031  -19.5557 C   0  0  0  0  0  0  0  0  0  0  0  0
   18.7079  -18.0462  -18.4086 N   0  0  0  0  0  0  0  0  0  0  0  0
   22.1433  -14.9369  -17.0702 C   0  0  0  0  0  0  0  0  0  0  0  0
   21.6089  -14.5553  -15.9866 O   0  0  0  0  0  0  0  0  0  0  0  0
   23.3303  -14.2705  -17.4893 N   0  0  0  0  0  0  0  0  0  0  0  0
   23.8815  -13.1494  -16.7974 C   0  0  1  0  0  0  0  0  0  0  0  0
   25.3799  -13.1074  -16.9760 C   0  0  0  0  0  0  0  0  0  0  0  0
   26.0893  -14.4460  -15.9757 S   0  0  0  0  0  0  0  0  0  0  0  0
   23.2351  -11.8687  -17.1689 C   0  0  0  0  0  0  0  0  0  0  0  0
   22.9883  -11.6329  -18.3585 O   0  0  0  0  0  0  0  0  0  0  0  0
   21.8658   -7.2361  -12.8208 N   0  0  0  0  0  0  0  0  0  0  0  0
   21.4108   -6.7389  -14.0644 C   0  0  0  0  0  0  0  0  0  0  0  0
   20.9573   -5.5466  -14.0786 O   0  0  0  0  0  0  0  0  0  0  0  0
   21.4391   -7.5098  -15.3194 C   0  0  0  0  0  0  0  0  0  0  0  0
   22.0192   -8.8759  -15.2264 C   0  0  0  0  0  0  0  0  0  0  0  0
   22.2135   -9.6546  -16.4682 C   0  0  2  0  0  0  0  0  0  0  0  0
   22.9016  -10.9208  -16.1720 N   0  0  0  0  0  0  0  0  0  0  0  0
   22.7346   -8.9927  -17.6376 C   0  0  0  0  0  0  0  0  0  0  0  0
   21.9993   -8.6762  -18.6040 O   0  0  0  0  0  0  0  0  0  0  0  0
   24.0868   -8.6480  -17.7995 O   0  0  0  0  0  0  0  0  0  0  0  0
  2  1  1  1
  3  2  1  0
  4  8  1  0
  4  3  1  0
  5  4  2  0
  6  5  1  0
  6  7  1  0
  7  8  2  0
  9 10  2  0
  9  2  1  0
 11  9  1  0
 12 11  1  0
 12 13  1  6
 14 13  1  0
 15 12  1  0
 16 15  2  0
 17 18  1  0
 18 20  1  0
 19 18  2  0
 21 20  1  0
 22 21  1  1
 22 23  1  0
 23 15  1  0
 24 22  1  0
 24 26  1  0
 25 24  2  0
M  END
$$$$
