HCQ.pdb
     RDKit          3D

 26 26  0  0  1  0  0  0  0  0999 V2000
   25.5582  -23.2683  -16.3806 N   0  0  0  0  0  0  0  0  0  0  0  0
   24.6911  -24.2325  -15.7521 C   0  0  1  0  0  0  0  0  0  0  0  0
   25.5837  -25.1784  -14.9507 C   0  0  0  0  0  0  0  0  0  0  0  0
   26.4807  -25.9367  -15.8555 C   0  0  0  0  0  0  0  0  0  0  0  0
   26.1148  -26.9631  -16.6980 C   0  0  0  0  0  0  0  0  0  0  0  0
   27.1801  -27.4195  -17.3696 N   0  0  0  0  0  0  0  0  0  0  0  0
   28.2320  -26.6887  -16.9613 C   0  0  0  0  0  0  0  0  0  0  0  0
   27.8133  -25.7777  -16.0337 N   0  0  0  0  0  0  0  0  0  0  0  0
   23.7076  -23.5599  -14.8883 C   0  0  0  0  0  0  0  0  0  0  0  0
   24.0443  -23.1864  -13.7254 O   0  0  0  0  0  0  0  0  0  0  0  0
   22.3689  -23.3019  -15.3009 N   0  0  0  0  0  0  0  0  0  0  0  0
   21.3824  -22.7340  -14.4385 C   0  0  1  0  0  0  0  0  0  0  0  0
   20.7305  -21.5435  -15.0992 C   0  0  0  0  0  0  0  0  0  0  0  0
   22.0381  -20.3435  -15.4805 S   0  0  0  0  0  0  0  0  0  0  0  0
   20.3900  -23.7278  -13.9658 C   0  0  0  0  0  0  0  0  0  0  0  0
   20.3614  -24.8530  -14.4802 O   0  0  0  0  0  0  0  0  0  0  0  0
   18.1791  -26.1265   -9.0301 N   0  0  0  0  0  0  0  0  0  0  0  0
   18.6457  -27.0007  -10.0395 C   0  0  0  0  0  0  0  0  0  0  0  0
   19.2561  -28.0530   -9.6553 O   0  0  0  0  0  0  0  0  0  0  0  0
   18.4610  -26.7658  -11.4820 C   0  0  0  0  0  0  0  0  0  0  0  0
   19.2390  -25.6372  -12.0584 C   0  0  0  0  0  0  0  0  0  0  0  0
   18.5432  -24.3648  -12.3469 C   0  0  2  0  0  0  0  0  0  0  0  0
   19.4806  -23.3943  -12.9335 N   0  0  0  0  0  0  0  0  0  0  0  0
   17.6934  -23.7849  -11.3377 C   0  0  0  0  0  0  0  0  0  0  0  0
   16.4663  -24.0406  -11.2763 O   0  0  0  0  0  0  0  0  0  0  0  0
   18.1518  -22.8978  -10.3495 O   0  0  0  0  0  0  0  0  0  0  0  0
  2  1  1  1
  3  2  1  0
  4  8  1  0
  4  3  1  0
  5  4  2  0
  6  5  1  0
  6  7  1  0
  7  8  2  0
  9 10  2  0
  9  2  1  0
 11  9  1  0
 12 11  1  0
 12 13  1  6
 14 13  1  0
 15 12  1  0
 16 15  2  0
 17 18  1  0
 18 20  1  0
 19 18  2  0
 21 20  1  0
 22 21  1  1
 22 23  1  0
 23 15  1  0
 24 22  1  0
 24 26  1  0
 25 24  2  0
M  END
$$$$
