HCQ.pdb
     RDKit          3D

 26 26  0  0  1  0  0  0  0  0999 V2000
   21.0494  -10.1889  -16.0429 N   0  0  0  0  0  0  0  0  0  0  0  0
   19.7500  -10.0087  -15.4467 C   0  0  1  0  0  0  0  0  0  0  0  0
   19.0664  -11.3749  -15.4471 C   0  0  0  0  0  0  0  0  0  0  0  0
   18.6923  -11.7677  -16.8270 C   0  0  0  0  0  0  0  0  0  0  0  0
   17.8093  -11.1088  -17.6537 C   0  0  0  0  0  0  0  0  0  0  0  0
   17.7094  -11.7410  -18.8304 N   0  0  0  0  0  0  0  0  0  0  0  0
   18.5265  -12.8064  -18.7632 C   0  0  0  0  0  0  0  0  0  0  0  0
   19.1330  -12.8311  -17.5396 N   0  0  0  0  0  0  0  0  0  0  0  0
   19.8754   -9.4704  -14.0828 C   0  0  0  0  0  0  0  0  0  0  0  0
   20.6685  -10.0193  -13.2612 O   0  0  0  0  0  0  0  0  0  0  0  0
   19.1359   -8.3406  -13.6295 N   0  0  0  0  0  0  0  0  0  0  0  0
   19.3282   -7.7463  -12.3453 C   0  0  1  0  0  0  0  0  0  0  0  0
   20.5148   -6.8134  -12.3711 C   0  0  0  0  0  0  0  0  0  0  0  0
   20.3000   -5.6916  -13.7820 S   0  0  0  0  0  0  0  0  0  0  0  0
   18.1064   -7.0874  -11.8268 C   0  0  0  0  0  0  0  0  0  0  0  0
   17.3264   -6.5408  -12.6171 O   0  0  0  0  0  0  0  0  0  0  0  0
   13.7270   -9.6615   -8.8805 N   0  0  0  0  0  0  0  0  0  0  0  0
   13.4021   -8.2992   -8.6814 C   0  0  0  0  0  0  0  0  0  0  0  0
   12.2532   -8.0456   -8.1884 O   0  0  0  0  0  0  0  0  0  0  0  0
   14.3069   -7.1818   -9.0019 C   0  0  0  0  0  0  0  0  0  0  0  0
   15.6605   -7.5637   -9.4849 C   0  0  0  0  0  0  0  0  0  0  0  0
   16.6099   -6.4958   -9.8653 C   0  0  2  0  0  0  0  0  0  0  0  0
   17.8316   -7.0820  -10.4382 N   0  0  0  0  0  0  0  0  0  0  0  0
   16.8820   -5.4329   -8.9309 C   0  0  0  0  0  0  0  0  0  0  0  0
   15.9771   -4.6736   -8.5074 O   0  0  0  0  0  0  0  0  0  0  0  0
   18.1603   -5.1549   -8.4185 O   0  0  0  0  0  0  0  0  0  0  0  0
  2  1  1  1
  3  2  1  0
  4  8  1  0
  4  3  1  0
  5  4  2  0
  6  5  1  0
  6  7  1  0
  7  8  2  0
  9 10  2  0
  9  2  1  0
 11  9  1  0
 12 11  1  0
 12 13  1  6
 14 13  1  0
 15 12  1  0
 16 15  2  0
 17 18  1  0
 18 20  1  0
 19 18  2  0
 21 20  1  0
 22 21  1  1
 22 23  1  0
 23 15  1  0
 24 22  1  0
 24 26  1  0
 25 24  2  0
M  END
$$$$
