HCQ.pdb
     RDKit          3D

 26 26  0  0  1  0  0  0  0  0999 V2000
   17.5822  -12.7545  -15.8308 N   0  0  0  0  0  0  0  0  0  0  0  0
   17.3981  -11.3485  -16.0875 C   0  0  1  0  0  0  0  0  0  0  0  0
   15.9114  -11.1381  -16.3690 C   0  0  0  0  0  0  0  0  0  0  0  0
   15.5364  -11.7527  -17.6651 C   0  0  0  0  0  0  0  0  0  0  0  0
   15.7486  -11.2164  -18.9160 C   0  0  0  0  0  0  0  0  0  0  0  0
   15.2836  -12.0412  -19.8636 N   0  0  0  0  0  0  0  0  0  0  0  0
   14.7722  -13.1081  -19.2253 C   0  0  0  0  0  0  0  0  0  0  0  0
   14.9225  -12.9403  -17.8781 N   0  0  0  0  0  0  0  0  0  0  0  0
   17.8463  -10.5483  -14.9366 C   0  0  0  0  0  0  0  0  0  0  0  0
   17.3893  -10.7980  -13.7816 O   0  0  0  0  0  0  0  0  0  0  0  0
   18.7869   -9.4855  -15.0569 N   0  0  0  0  0  0  0  0  0  0  0  0
   19.1951   -8.6763  -13.9533 C   0  0  1  0  0  0  0  0  0  0  0  0
   20.5720   -8.1086  -14.1998 C   0  0  0  0  0  0  0  0  0  0  0  0
   21.0483   -7.1643  -12.7244 S   0  0  0  0  0  0  0  0  0  0  0  0
   18.2069   -7.6259  -13.6127 C   0  0  0  0  0  0  0  0  0  0  0  0
   17.6893   -6.9592  -14.5179 O   0  0  0  0  0  0  0  0  0  0  0  0
   15.4930   -7.0704   -7.7588 N   0  0  0  0  0  0  0  0  0  0  0  0
   15.0630   -5.9331   -8.4818 C   0  0  0  0  0  0  0  0  0  0  0  0
   14.3010   -5.1135   -7.8693 O   0  0  0  0  0  0  0  0  0  0  0  0
   15.4475   -5.6496   -9.8753 C   0  0  0  0  0  0  0  0  0  0  0  0
   16.4037   -6.6083  -10.4902 C   0  0  0  0  0  0  0  0  0  0  0  0
   16.9031   -6.3409  -11.8560 C   0  0  2  0  0  0  0  0  0  0  0  0
   17.8560   -7.3855  -12.2626 N   0  0  0  0  0  0  0  0  0  0  0  0
   17.3489   -5.0124  -12.1929 C   0  0  0  0  0  0  0  0  0  0  0  0
   18.5417   -4.6538  -12.0399 O   0  0  0  0  0  0  0  0  0  0  0  0
   16.5054   -4.0167  -12.7132 O   0  0  0  0  0  0  0  0  0  0  0  0
  2  1  1  1
  3  2  1  0
  4  8  1  0
  4  3  1  0
  5  4  2  0
  6  5  1  0
  6  7  1  0
  7  8  2  0
  9 10  2  0
  9  2  1  0
 11  9  1  0
 12 11  1  0
 12 13  1  6
 14 13  1  0
 15 12  1  0
 16 15  2  0
 17 18  1  0
 18 20  1  0
 19 18  2  0
 21 20  1  0
 22 21  1  1
 22 23  1  0
 23 15  1  0
 24 22  1  0
 24 26  1  0
 25 24  2  0
M  END
$$$$
