HCQ.pdb
     RDKit          3D

 26 26  0  0  1  0  0  0  0  0999 V2000
   28.6367  -21.0683  -16.1503 N   0  0  0  0  0  0  0  0  0  0  0  0
   28.1244  -20.1723  -15.1446 C   0  0  1  0  0  0  0  0  0  0  0  0
   27.2039  -19.1828  -15.8568 C   0  0  0  0  0  0  0  0  0  0  0  0
   27.9499  -18.4378  -16.8993 C   0  0  0  0  0  0  0  0  0  0  0  0
   27.7919  -18.5595  -18.2622 C   0  0  0  0  0  0  0  0  0  0  0  0
   28.6291  -17.7352  -18.9056 N   0  0  0  0  0  0  0  0  0  0  0  0
   29.3264  -17.0826  -17.9595 C   0  0  0  0  0  0  0  0  0  0  0  0
   28.9172  -17.5064  -16.7272 N   0  0  0  0  0  0  0  0  0  0  0  0
   27.4055  -20.9207  -14.1011 C   0  0  0  0  0  0  0  0  0  0  0  0
   28.0040  -21.8330  -13.4570 O   0  0  0  0  0  0  0  0  0  0  0  0
   26.0434  -20.6669  -13.7712 N   0  0  0  0  0  0  0  0  0  0  0  0
   25.4335  -21.1289  -12.5653 C   0  0  1  0  0  0  0  0  0  0  0  0
   26.2517  -20.7078  -11.3687 C   0  0  0  0  0  0  0  0  0  0  0  0
   25.3783  -21.2724   -9.8808 S   0  0  0  0  0  0  0  0  0  0  0  0
   24.0133  -20.7232  -12.4461 C   0  0  0  0  0  0  0  0  0  0  0  0
   23.7328  -19.5314  -12.2658 O   0  0  0  0  0  0  0  0  0  0  0  0
   23.6330  -23.4986  -14.4582 N   0  0  0  0  0  0  0  0  0  0  0  0
   22.8266  -22.9407  -15.4777 C   0  0  0  0  0  0  0  0  0  0  0  0
   23.2686  -23.0195  -16.6718 O   0  0  0  0  0  0  0  0  0  0  0  0
   21.5262  -22.2920  -15.2364 C   0  0  0  0  0  0  0  0  0  0  0  0
   21.0392  -22.3221  -13.8316 C   0  0  0  0  0  0  0  0  0  0  0  0
   21.5904  -21.3489  -12.8644 C   0  0  2  0  0  0  0  0  0  0  0  0
   22.9836  -21.6902  -12.5375 N   0  0  0  0  0  0  0  0  0  0  0  0
   20.8121  -20.9946  -11.7043 C   0  0  0  0  0  0  0  0  0  0  0  0
   21.0644  -21.4626  -10.5676 O   0  0  0  0  0  0  0  0  0  0  0  0
   19.7213  -20.1101  -11.7391 O   0  0  0  0  0  0  0  0  0  0  0  0
  2  1  1  6
  3  2  1  0
  4  8  1  0
  4  3  1  0
  5  4  2  0
  6  5  1  0
  6  7  1  0
  7  8  2  0
  9 10  2  0
  9  2  1  0
 11  9  1  0
 12 11  1  0
 12 13  1  1
 14 13  1  0
 15 12  1  0
 16 15  2  0
 17 18  1  0
 18 20  1  0
 19 18  2  0
 21 20  1  0
 22 21  1  1
 22 23  1  0
 23 15  1  0
 24 22  1  0
 24 26  1  0
 25 24  2  0
M  END
$$$$
