HCQ.pdb
     RDKit          3D

 26 26  0  0  1  0  0  0  0  0999 V2000
   20.4509  -13.0495  -20.5388 N   0  0  0  0  0  0  0  0  0  0  0  0
   20.5643  -12.3567  -19.2804 C   0  0  1  0  0  0  0  0  0  0  0  0
   21.7658  -12.9538  -18.5499 C   0  0  0  0  0  0  0  0  0  0  0  0
   21.5492  -14.3970  -18.2878 C   0  0  0  0  0  0  0  0  0  0  0  0
   20.4877  -14.9545  -17.6100 C   0  0  0  0  0  0  0  0  0  0  0  0
   20.6128  -16.2872  -17.5597 N   0  0  0  0  0  0  0  0  0  0  0  0
   21.7533  -16.5894  -18.2040 C   0  0  0  0  0  0  0  0  0  0  0  0
   22.3340  -15.4377  -18.6536 N   0  0  0  0  0  0  0  0  0  0  0  0
   20.7310  -10.9107  -19.4978 C   0  0  0  0  0  0  0  0  0  0  0  0
   21.4510  -10.4983  -20.4553 O   0  0  0  0  0  0  0  0  0  0  0  0
   20.1117   -9.9309  -18.6701 N   0  0  0  0  0  0  0  0  0  0  0  0
   20.1242   -8.5349  -18.9708 C   0  0  1  0  0  0  0  0  0  0  0  0
   19.4528   -8.2780  -20.2982 C   0  0  0  0  0  0  0  0  0  0  0  0
   17.7294   -8.8306  -20.1574 S   0  0  0  0  0  0  0  0  0  0  0  0
   19.5537   -7.7063  -17.8827 C   0  0  0  0  0  0  0  0  0  0  0  0
   18.5635   -8.1132  -17.2617 O   0  0  0  0  0  0  0  0  0  0  0  0
   21.5553   -6.6647  -12.6809 N   0  0  0  0  0  0  0  0  0  0  0  0
   22.0742   -5.6265  -13.4894 C   0  0  0  0  0  0  0  0  0  0  0  0
   23.1327   -5.0467  -13.0760 O   0  0  0  0  0  0  0  0  0  0  0  0
   21.4705   -5.1938  -14.7616 C   0  0  0  0  0  0  0  0  0  0  0  0
   20.2627   -5.9462  -15.1933 C   0  0  0  0  0  0  0  0  0  0  0  0
   19.6244   -5.5937  -16.4796 C   0  0  2  0  0  0  0  0  0  0  0  0
   20.1354   -6.4582  -17.5547 N   0  0  0  0  0  0  0  0  0  0  0  0
   19.5414   -4.2076  -16.8654 C   0  0  0  0  0  0  0  0  0  0  0  0
   19.9655   -3.8007  -17.9742 O   0  0  0  0  0  0  0  0  0  0  0  0
   18.9889   -3.2046  -16.0516 O   0  0  0  0  0  0  0  0  0  0  0  0
  2  1  1  6
  3  2  1  0
  4  8  1  0
  4  3  1  0
  5  4  2  0
  6  5  1  0
  6  7  1  0
  7  8  2  0
  9 10  2  0
  9  2  1  0
 11  9  1  0
 12 11  1  0
 12 13  1  6
 14 13  1  0
 15 12  1  0
 16 15  2  0
 17 18  1  0
 18 20  1  0
 19 18  2  0
 21 20  1  0
 22 21  1  1
 22 23  1  0
 23 15  1  0
 24 22  1  0
 24 26  1  0
 25 24  2  0
M  END
$$$$
