HCQ.pdb
     RDKit          3D

 26 26  0  0  1  0  0  0  0  0999 V2000
   25.7559  -14.1018  -18.7220 N   0  0  0  0  0  0  0  0  0  0  0  0
   24.8438  -13.0117  -18.9593 C   0  0  1  0  0  0  0  0  0  0  0  0
   23.5573  -13.6203  -19.5146 C   0  0  0  0  0  0  0  0  0  0  0  0
   23.7975  -14.2091  -20.8539 C   0  0  0  0  0  0  0  0  0  0  0  0
   23.8306  -15.5509  -21.1632 C   0  0  0  0  0  0  0  0  0  0  0  0
   24.0723  -15.7241  -22.4693 N   0  0  0  0  0  0  0  0  0  0  0  0
   24.1951  -14.4960  -23.0022 C   0  0  0  0  0  0  0  0  0  0  0  0
   24.0283  -13.5614  -22.0201 N   0  0  0  0  0  0  0  0  0  0  0  0
   24.5929  -12.2656  -17.7158 C   0  0  0  0  0  0  0  0  0  0  0  0
   24.0860  -12.8596  -16.7181 O   0  0  0  0  0  0  0  0  0  0  0  0
   24.8970  -10.8814  -17.5733 N   0  0  0  0  0  0  0  0  0  0  0  0
   24.6944  -10.1591  -16.3582 C   0  0  1  0  0  0  0  0  0  0  0  0
   25.9272  -10.2358  -15.4903 C   0  0  0  0  0  0  0  0  0  0  0  0
   27.3529   -9.7906  -16.5220 S   0  0  0  0  0  0  0  0  0  0  0  0
   24.2526   -8.7629  -16.5849 C   0  0  0  0  0  0  0  0  0  0  0  0
   24.5580   -8.1904  -17.6388 O   0  0  0  0  0  0  0  0  0  0  0  0
   20.9705   -6.5683  -19.7656 N   0  0  0  0  0  0  0  0  0  0  0  0
   20.9307   -5.4606  -18.8868 C   0  0  0  0  0  0  0  0  0  0  0  0
   20.3157   -4.4205  -19.2961 O   0  0  0  0  0  0  0  0  0  0  0  0
   21.5452   -5.4493  -17.5480 C   0  0  0  0  0  0  0  0  0  0  0  0
   22.2726   -6.6869  -17.1598 C   0  0  0  0  0  0  0  0  0  0  0  0
   22.9006   -6.7558  -15.8230 C   0  0  2  0  0  0  0  0  0  0  0  0
   23.4869   -8.0873  -15.6046 N   0  0  0  0  0  0  0  0  0  0  0  0
   22.1717   -6.2688  -14.6791 C   0  0  0  0  0  0  0  0  0  0  0  0
   21.6869   -7.0457  -13.8210 O   0  0  0  0  0  0  0  0  0  0  0  0
   21.9417   -4.9064  -14.4248 O   0  0  0  0  0  0  0  0  0  0  0  0
  2  1  1  1
  3  2  1  0
  4  8  1  0
  4  3  1  0
  5  4  2  0
  6  5  1  0
  6  7  1  0
  7  8  2  0
  9 10  2  0
  9  2  1  0
 11  9  1  0
 12 11  1  0
 12 13  1  6
 14 13  1  0
 15 12  1  0
 16 15  2  0
 17 18  1  0
 18 20  1  0
 19 18  2  0
 21 20  1  0
 22 21  1  6
 22 23  1  0
 23 15  1  0
 24 22  1  0
 24 26  1  0
 25 24  2  0
M  END
$$$$
