HCQ.pdb
     RDKit          3D

 26 26  0  0  1  0  0  0  0  0999 V2000
   20.0674  -13.2506  -19.0284 N   0  0  0  0  0  0  0  0  0  0  0  0
   20.6488  -12.2021  -18.2289 C   0  0  1  0  0  0  0  0  0  0  0  0
   21.7869  -11.5963  -19.0483 C   0  0  0  0  0  0  0  0  0  0  0  0
   22.8888  -12.5752  -19.2094 C   0  0  0  0  0  0  0  0  0  0  0  0
   22.9932  -13.7988  -18.5854 C   0  0  0  0  0  0  0  0  0  0  0  0
   24.1175  -14.4217  -18.9623 N   0  0  0  0  0  0  0  0  0  0  0  0
   24.7379  -13.6016  -19.8282 C   0  0  0  0  0  0  0  0  0  0  0  0
   23.9926  -12.4678  -19.9858 N   0  0  0  0  0  0  0  0  0  0  0  0
   19.6366  -11.1910  -17.8842 C   0  0  0  0  0  0  0  0  0  0  0  0
   19.1231  -10.4792  -18.7980 O   0  0  0  0  0  0  0  0  0  0  0  0
   19.1954  -10.9667  -16.5487 N   0  0  0  0  0  0  0  0  0  0  0  0
   18.2188   -9.9834  -16.2043 C   0  0  1  0  0  0  0  0  0  0  0  0
   16.9886  -10.6439  -15.6305 C   0  0  0  0  0  0  0  0  0  0  0  0
   17.5339  -11.7717  -14.3167 S   0  0  0  0  0  0  0  0  0  0  0  0
   18.7550   -8.9256  -15.3158 C   0  0  0  0  0  0  0  0  0  0  0  0
   19.7881   -9.1389  -14.6686 O   0  0  0  0  0  0  0  0  0  0  0  0
   22.8533   -5.8756  -15.1238 N   0  0  0  0  0  0  0  0  0  0  0  0
   22.1712   -5.1557  -14.1151 C   0  0  0  0  0  0  0  0  0  0  0  0
   22.8437   -4.2809  -13.4749 O   0  0  0  0  0  0  0  0  0  0  0  0
   20.7514   -5.3564  -13.7775 C   0  0  0  0  0  0  0  0  0  0  0  0
   20.0467   -6.4152  -14.5481 C   0  0  0  0  0  0  0  0  0  0  0  0
   18.5884   -6.5785  -14.3669 C   0  0  2  0  0  0  0  0  0  0  0  0
   18.0919   -7.6798  -15.2066 N   0  0  0  0  0  0  0  0  0  0  0  0
   17.7409   -5.4137  -14.4098 C   0  0  0  0  0  0  0  0  0  0  0  0
   17.1181   -5.0838  -15.4482 O   0  0  0  0  0  0  0  0  0  0  0  0
   17.5383   -4.5575  -13.3146 O   0  0  0  0  0  0  0  0  0  0  0  0
  2  1  1  6
  3  2  1  0
  4  8  1  0
  4  3  1  0
  5  4  2  0
  6  5  1  0
  6  7  1  0
  7  8  2  0
  9 10  2  0
  9  2  1  0
 11  9  1  0
 12 11  1  0
 12 13  1  1
 14 13  1  0
 15 12  1  0
 16 15  2  0
 17 18  1  0
 18 20  1  0
 19 18  2  0
 21 20  1  0
 22 21  1  6
 22 23  1  0
 23 15  1  0
 24 22  1  0
 24 26  1  0
 25 24  2  0
M  END
$$$$
