SFE.pdb
     RDKit          3D

 27 27  0  0  1  0  0  0  0  0999 V2000
    9.5111  -18.7317   20.7669 O   0  0  0  0  0  0  0  0  0  0  0  0
    8.6902  -17.9451   19.9356 C   0  0  0  0  0  0  0  0  0  0  0  0
    9.3138  -16.5693   19.9144 C   0  0  2  0  0  0  0  0  0  0  0  0
   10.6207  -16.6897   19.2941 N   0  0  0  0  0  0  0  0  0  0  0  0
    9.4849  -15.9625   21.2419 C   0  0  0  0  0  0  0  0  0  0  0  0
   10.5971  -15.9241   21.8288 O   0  0  0  0  0  0  0  0  0  0  0  0
    8.3917  -15.3770   21.9500 N   0  0  0  0  0  0  0  0  0  0  0  0
    8.4980  -14.7890   23.2654 C   0  0  1  0  0  0  0  0  0  0  0  0
    7.2563  -13.9706   23.5137 C   0  0  0  0  0  0  0  0  0  0  0  0
    7.2467  -13.3032   24.8148 C   0  0  0  0  0  0  0  0  0  0  0  0
    6.3934  -13.7466   25.7955 C   0  0  0  0  0  0  0  0  0  0  0  0
    6.3428  -13.1693   27.0604 C   0  0  0  0  0  0  0  0  0  0  0  0
    7.1653  -12.1220   27.3506 C   0  0  0  0  0  0  0  0  0  0  0  0
    8.0323  -11.6611   26.3705 C   0  0  0  0  0  0  0  0  0  0  0  0
    8.0722  -12.2426   25.1232 C   0  0  0  0  0  0  0  0  0  0  0  0
    8.7103  -15.8612   24.2549 C   0  0  0  0  0  0  0  0  0  0  0  0
    7.9468  -16.8562   24.2880 O   0  0  0  0  0  0  0  0  0  0  0  0
    9.7734  -15.8013   25.1909 N   0  0  0  0  0  0  0  0  0  0  0  0
   10.0285  -16.9213   26.1178 C   0  0  1  0  0  0  0  0  0  0  0  0
   11.4408  -17.3659   25.8711 C   0  0  0  0  0  0  0  0  0  0  0  0
   11.6792  -18.0328   24.5598 C   0  0  0  0  0  0  0  0  0  0  0  0
   13.1048  -18.4835   24.4406 C   0  0  0  0  0  0  0  0  0  0  0  0
   14.0330  -17.7616   24.9119 O   0  0  0  0  0  0  0  0  0  0  0  0
    9.9076  -16.4605   27.5180 C   0  0  0  0  0  0  0  0  0  0  0  0
    9.7695  -15.2011   27.7044 O   0  0  0  0  0  0  0  0  0  0  0  0
   13.3964  -19.6883   23.8163 O   0  0  0  0  0  0  0  0  0  0  0  0
    9.9269  -17.2447   28.6317 O   0  0  0  0  0  0  0  0  0  0  0  0
  2  1  1  0
  3  2  1  0
  3  4  1  1
  5  3  1  0
  5  6  2  0
  7  5  1  0
  8  7  1  0
  8  9  1  1
 10  9  1  0
 10 15  2  0
 11 10  1  0
 12 11  2  0
 12 13  1  0
 13 14  2  0
 14 15  1  0
 16  8  1  0
 17 16  2  0
 18 16  1  0
 19 24  1  0
 19 18  1  0
 19 20  1  1
 21 20  1  0
 21 22  1  0
 22 23  2  0
 24 27  1  0
 25 24  2  0
 26 22  1  0
M  END
$$$$
