SFE.pdb
     RDKit          3D

 27 27  0  0  1  0  0  0  0  0999 V2000
    8.6971  -18.6373   20.4399 O   0  0  0  0  0  0  0  0  0  0  0  0
    7.6021  -17.9515   19.8794 C   0  0  0  0  0  0  0  0  0  0  0  0
    8.0672  -16.5311   19.6599 C   0  0  2  0  0  0  0  0  0  0  0  0
    9.2004  -16.5757   18.7537 N   0  0  0  0  0  0  0  0  0  0  0  0
    8.4811  -15.8341   20.8857 C   0  0  0  0  0  0  0  0  0  0  0  0
    9.6893  -15.6905   21.2059 O   0  0  0  0  0  0  0  0  0  0  0  0
    7.5304  -15.2752   21.7930 N   0  0  0  0  0  0  0  0  0  0  0  0
    7.8780  -14.6333   23.0398 C   0  0  1  0  0  0  0  0  0  0  0  0
    6.6563  -13.9130   23.5515 C   0  0  0  0  0  0  0  0  0  0  0  0
    6.8641  -13.2521   24.8393 C   0  0  0  0  0  0  0  0  0  0  0  0
    6.0463  -13.5629   25.8982 C   0  0  0  0  0  0  0  0  0  0  0  0
    6.1970  -12.9850   27.1548 C   0  0  0  0  0  0  0  0  0  0  0  0
    7.1895  -12.0729   27.3564 C   0  0  0  0  0  0  0  0  0  0  0  0
    8.0235  -11.7468   26.2967 C   0  0  0  0  0  0  0  0  0  0  0  0
    7.8632  -12.3274   25.0586 C   0  0  0  0  0  0  0  0  0  0  0  0
    8.4033  -15.6476   23.9720 C   0  0  0  0  0  0  0  0  0  0  0  0
    7.7596  -16.7014   24.1937 O   0  0  0  0  0  0  0  0  0  0  0  0
    9.6401  -15.4650   24.6404 N   0  0  0  0  0  0  0  0  0  0  0  0
   10.3015  -16.5914   25.3276 C   0  0  1  0  0  0  0  0  0  0  0  0
   11.7683  -16.4684   25.0336 C   0  0  0  0  0  0  0  0  0  0  0  0
   12.6285  -17.5317   25.6257 C   0  0  0  0  0  0  0  0  0  0  0  0
   14.0708  -17.3062   25.2812 C   0  0  0  0  0  0  0  0  0  0  0  0
   14.4053  -16.2779   24.6214 O   0  0  0  0  0  0  0  0  0  0  0  0
   10.0941  -16.4887   26.7884 C   0  0  0  0  0  0  0  0  0  0  0  0
    9.7309  -15.3484   27.2440 O   0  0  0  0  0  0  0  0  0  0  0  0
   15.0280  -18.2248   25.6887 O   0  0  0  0  0  0  0  0  0  0  0  0
   10.2499  -17.4895   27.6994 O   0  0  0  0  0  0  0  0  0  0  0  0
  2  1  1  0
  3  2  1  0
  3  4  1  6
  5  3  1  0
  5  6  2  0
  7  5  1  0
  8  7  1  0
  8  9  1  1
 10  9  1  0
 10 15  2  0
 11 10  1  0
 12 11  2  0
 12 13  1  0
 13 14  2  0
 14 15  1  0
 16  8  1  0
 17 16  2  0
 18 16  1  0
 19 24  1  0
 19 18  1  0
 19 20  1  1
 21 20  1  0
 21 22  1  0
 22 23  2  0
 24 27  1  0
 25 24  2  0
 26 22  1  0
M  END
$$$$
