SFE.pdb
     RDKit          3D

 27 27  0  0  1  0  0  0  0  0999 V2000
    9.6459  -18.7285   20.6572 O   0  0  0  0  0  0  0  0  0  0  0  0
    8.5499  -18.0668   20.0703 C   0  0  0  0  0  0  0  0  0  0  0  0
    8.9585  -16.6184   19.9386 C   0  0  2  0  0  0  0  0  0  0  0  0
   10.1924  -16.5785   19.1748 N   0  0  0  0  0  0  0  0  0  0  0  0
    9.1840  -15.9349   21.2198 C   0  0  0  0  0  0  0  0  0  0  0  0
   10.3366  -15.6861   21.6590 O   0  0  0  0  0  0  0  0  0  0  0  0
    8.1016  -15.5099   22.0487 N   0  0  0  0  0  0  0  0  0  0  0  0
    8.2654  -14.8773   23.3372 C   0  0  1  0  0  0  0  0  0  0  0  0
    6.9264  -14.3308   23.7636 C   0  0  0  0  0  0  0  0  0  0  0  0
    6.9710  -13.5940   25.0259 C   0  0  0  0  0  0  0  0  0  0  0  0
    5.8122  -13.0684   25.5429 C   0  0  0  0  0  0  0  0  0  0  0  0
    5.7786  -12.3704   26.7460 C   0  0  0  0  0  0  0  0  0  0  0  0
    6.9332  -12.1930   27.4483 C   0  0  0  0  0  0  0  0  0  0  0  0
    8.1127  -12.7165   26.9391 C   0  0  0  0  0  0  0  0  0  0  0  0
    8.1309  -13.4058   25.7475 C   0  0  0  0  0  0  0  0  0  0  0  0
    8.8365  -15.8540   24.2826 C   0  0  0  0  0  0  0  0  0  0  0  0
    8.2174  -16.9101   24.5570 O   0  0  0  0  0  0  0  0  0  0  0  0
   10.0908  -15.6318   24.9049 N   0  0  0  0  0  0  0  0  0  0  0  0
   10.6998  -16.6630   25.7677 C   0  0  1  0  0  0  0  0  0  0  0  0
   12.1855  -16.5456   25.5887 C   0  0  0  0  0  0  0  0  0  0  0  0
   12.6626  -16.5853   24.1774 C   0  0  0  0  0  0  0  0  0  0  0  0
   14.1560  -16.4602   24.1141 C   0  0  0  0  0  0  0  0  0  0  0  0
   14.8238  -16.3633   25.1861 O   0  0  0  0  0  0  0  0  0  0  0  0
   10.3646  -16.4036   27.1846 C   0  0  0  0  0  0  0  0  0  0  0  0
   10.7842  -17.2542   28.0450 O   0  0  0  0  0  0  0  0  0  0  0  0
   14.7950  -16.4528   22.8821 O   0  0  0  0  0  0  0  0  0  0  0  0
    9.6535  -15.3464   27.6667 O   0  0  0  0  0  0  0  0  0  0  0  0
  2  1  1  0
  3  2  1  0
  3  4  1  6
  5  3  1  0
  5  6  2  0
  7  5  1  0
  8  7  1  0
  8  9  1  1
 10  9  1  0
 10 15  2  0
 11 10  1  0
 12 11  2  0
 12 13  1  0
 13 14  2  0
 14 15  1  0
 16  8  1  0
 17 16  2  0
 18 16  1  0
 19 24  1  0
 19 18  1  0
 19 20  1  1
 21 20  1  0
 21 22  1  0
 22 23  2  0
 24 27  1  0
 25 24  2  0
 26 22  1  0
M  END
$$$$
