SFE.pdb
     RDKit          3D

 27 27  0  0  1  0  0  0  0  0999 V2000
    8.7667  -18.6080   20.1395 O   0  0  0  0  0  0  0  0  0  0  0  0
    7.5365  -18.0526   19.7375 C   0  0  0  0  0  0  0  0  0  0  0  0
    7.7963  -16.5815   19.5125 C   0  0  2  0  0  0  0  0  0  0  0  0
    8.8400  -16.4689   18.5098 N   0  0  0  0  0  0  0  0  0  0  0  0
    8.2270  -15.8529   20.7139 C   0  0  0  0  0  0  0  0  0  0  0  0
    9.4366  -15.6068   20.9572 O   0  0  0  0  0  0  0  0  0  0  0  0
    7.2923  -15.3781   21.6835 N   0  0  0  0  0  0  0  0  0  0  0  0
    7.6643  -14.7535   22.9320 C   0  0  1  0  0  0  0  0  0  0  0  0
    6.4196  -14.1720   23.5533 C   0  0  0  0  0  0  0  0  0  0  0  0
    6.6602  -13.5113   24.8354 C   0  0  0  0  0  0  0  0  0  0  0  0
    7.1795  -12.2398   24.8534 C   0  0  0  0  0  0  0  0  0  0  0  0
    7.4188  -11.5460   26.0354 C   0  0  0  0  0  0  0  0  0  0  0  0
    7.1324  -12.1394   27.2285 C   0  0  0  0  0  0  0  0  0  0  0  0
    6.6086  -13.4240   27.2278 C   0  0  0  0  0  0  0  0  0  0  0  0
    6.3762  -14.0985   26.0502 C   0  0  0  0  0  0  0  0  0  0  0  0
    8.3436  -15.7478   23.7827 C   0  0  0  0  0  0  0  0  0  0  0  0
    7.8824  -16.9091   23.8958 O   0  0  0  0  0  0  0  0  0  0  0  0
    9.5276  -15.4253   24.4927 N   0  0  0  0  0  0  0  0  0  0  0  0
   10.3525  -16.4837   25.1074 C   0  0  1  0  0  0  0  0  0  0  0  0
   11.7477  -16.2930   24.5877 C   0  0  0  0  0  0  0  0  0  0  0  0
   12.7526  -17.2753   25.0841 C   0  0  0  0  0  0  0  0  0  0  0  0
   14.0689  -17.0912   24.3889 C   0  0  0  0  0  0  0  0  0  0  0  0
   14.6062  -18.0709   23.7922 O   0  0  0  0  0  0  0  0  0  0  0  0
   10.3627  -16.3310   26.5784 C   0  0  0  0  0  0  0  0  0  0  0  0
   10.0765  -15.1726   27.0433 O   0  0  0  0  0  0  0  0  0  0  0  0
   14.6876  -15.8489   24.4033 O   0  0  0  0  0  0  0  0  0  0  0  0
   10.6454  -17.3028   27.4902 O   0  0  0  0  0  0  0  0  0  0  0  0
  2  1  1  0
  3  2  1  0
  3  4  1  6
  5  3  1  0
  5  6  2  0
  7  5  1  0
  8  7  1  0
  8  9  1  1
 10  9  1  0
 10 15  2  0
 11 10  1  0
 12 11  2  0
 12 13  1  0
 13 14  2  0
 14 15  1  0
 16  8  1  0
 17 16  2  0
 18 16  1  0
 19 24  1  0
 19 18  1  0
 19 20  1  6
 21 20  1  0
 21 22  1  0
 22 23  2  0
 24 27  1  0
 25 24  2  0
 26 22  1  0
M  END
$$$$
