SFE.pdb
     RDKit          3D

 27 27  0  0  1  0  0  0  0  0999 V2000
    8.6254  -18.7973   20.4073 O   0  0  0  0  0  0  0  0  0  0  0  0
    7.5584  -18.0616   19.8563 C   0  0  0  0  0  0  0  0  0  0  0  0
    8.0680  -16.6495   19.6881 C   0  0  2  0  0  0  0  0  0  0  0  0
    9.2354  -16.7041   18.8270 N   0  0  0  0  0  0  0  0  0  0  0  0
    8.4494  -15.9906   20.9451 C   0  0  0  0  0  0  0  0  0  0  0  0
    9.6423  -15.9289   21.3405 O   0  0  0  0  0  0  0  0  0  0  0  0
    7.4827  -15.3775   21.7987 N   0  0  0  0  0  0  0  0  0  0  0  0
    7.7866  -14.8051   23.0900 C   0  0  1  0  0  0  0  0  0  0  0  0
    6.5915  -14.0030   23.5391 C   0  0  0  0  0  0  0  0  0  0  0  0
    6.7745  -13.3600   24.8396 C   0  0  0  0  0  0  0  0  0  0  0  0
    7.5178  -12.2082   24.9254 C   0  0  0  0  0  0  0  0  0  0  0  0
    7.7194  -11.5355   26.1265 C   0  0  0  0  0  0  0  0  0  0  0  0
    7.1646  -12.0280   27.2698 C   0  0  0  0  0  0  0  0  0  0  0  0
    6.4119  -13.1914   27.2006 C   0  0  0  0  0  0  0  0  0  0  0  0
    6.2201  -13.8462   26.0048 C   0  0  0  0  0  0  0  0  0  0  0  0
    8.1585  -15.8875   24.0195 C   0  0  0  0  0  0  0  0  0  0  0  0
    7.4021  -16.8754   24.1805 O   0  0  0  0  0  0  0  0  0  0  0  0
    9.3709  -15.8456   24.7533 N   0  0  0  0  0  0  0  0  0  0  0  0
    9.8104  -17.0051   25.5538 C   0  0  1  0  0  0  0  0  0  0  0  0
   11.1664  -17.3902   25.0379 C   0  0  0  0  0  0  0  0  0  0  0  0
   12.1107  -16.2579   24.8203 C   0  0  0  0  0  0  0  0  0  0  0  0
   13.3697  -16.7317   24.1568 C   0  0  0  0  0  0  0  0  0  0  0  0
   14.0875  -17.6073   24.7249 O   0  0  0  0  0  0  0  0  0  0  0  0
    9.9286  -16.6246   26.9781 C   0  0  0  0  0  0  0  0  0  0  0  0
   10.2178  -17.5578   27.8059 O   0  0  0  0  0  0  0  0  0  0  0  0
   13.7381  -16.2085   22.9252 O   0  0  0  0  0  0  0  0  0  0  0  0
    9.7613  -15.3766   27.4980 O   0  0  0  0  0  0  0  0  0  0  0  0
  2  1  1  0
  3  2  1  0
  3  4  1  6
  5  3  1  0
  5  6  2  0
  7  5  1  0
  8  7  1  0
  8  9  1  1
 10  9  1  0
 10 15  2  0
 11 10  1  0
 12 11  2  0
 12 13  1  0
 13 14  2  0
 14 15  1  0
 16  8  1  0
 17 16  2  0
 18 16  1  0
 19 24  1  0
 19 18  1  0
 19 20  1  6
 21 20  1  0
 21 22  1  0
 22 23  2  0
 24 27  1  0
 25 24  2  0
 26 22  1  0
M  END
$$$$
