SFE.pdb
     RDKit          3D

 27 27  0  0  1  0  0  0  0  0999 V2000
    9.4461  -18.6771   20.1887 O   0  0  0  0  0  0  0  0  0  0  0  0
    8.1145  -18.3341   19.8844 C   0  0  0  0  0  0  0  0  0  0  0  0
    8.1046  -16.8369   19.6833 C   0  0  2  0  0  0  0  0  0  0  0  0
    9.0426  -16.5313   18.6184 N   0  0  0  0  0  0  0  0  0  0  0  0
    8.4867  -16.0644   20.8737 C   0  0  0  0  0  0  0  0  0  0  0  0
    9.6423  -15.5920   21.0301 O   0  0  0  0  0  0  0  0  0  0  0  0
    7.5635  -15.8026   21.9312 N   0  0  0  0  0  0  0  0  0  0  0  0
    7.9011  -15.1025   23.1491 C   0  0  1  0  0  0  0  0  0  0  0  0
    6.6172  -14.6772   23.8154 C   0  0  0  0  0  0  0  0  0  0  0  0
    6.8224  -13.8988   25.0362 C   0  0  0  0  0  0  0  0  0  0  0  0
    6.8708  -14.5430   26.2483 C   0  0  0  0  0  0  0  0  0  0  0  0
    7.0786  -13.8677   27.4469 C   0  0  0  0  0  0  0  0  0  0  0  0
    7.2407  -12.5145   27.4322 C   0  0  0  0  0  0  0  0  0  0  0  0
    7.1931  -11.8484   26.2162 C   0  0  0  0  0  0  0  0  0  0  0  0
    6.9875  -12.5299   25.0376 C   0  0  0  0  0  0  0  0  0  0  0  0
    8.7441  -15.9752   23.9867 C   0  0  0  0  0  0  0  0  0  0  0  0
    8.4451  -17.1828   24.1488 O   0  0  0  0  0  0  0  0  0  0  0  0
    9.9075  -15.4812   24.6289 N   0  0  0  0  0  0  0  0  0  0  0  0
   10.8059  -16.3891   25.3687 C   0  0  1  0  0  0  0  0  0  0  0  0
   12.2073  -15.9642   25.0393 C   0  0  0  0  0  0  0  0  0  0  0  0
   13.0317  -16.9824   24.3289 C   0  0  0  0  0  0  0  0  0  0  0  0
   14.3963  -16.4431   24.0178 C   0  0  0  0  0  0  0  0  0  0  0  0
   14.7159  -15.2809   24.4075 O   0  0  0  0  0  0  0  0  0  0  0  0
   10.5895  -16.2441   26.8245 C   0  0  0  0  0  0  0  0  0  0  0  0
   10.2024  -17.2862   27.4601 O   0  0  0  0  0  0  0  0  0  0  0  0
   15.2990  -17.2215   23.3067 O   0  0  0  0  0  0  0  0  0  0  0  0
   10.7630  -15.1097   27.5586 O   0  0  0  0  0  0  0  0  0  0  0  0
  2  1  1  0
  3  2  1  0
  3  4  1  6
  5  3  1  0
  5  6  2  0
  7  5  1  0
  8  7  1  0
  8  9  1  1
 10  9  1  0
 10 15  2  0
 11 10  1  0
 12 11  2  0
 12 13  1  0
 13 14  2  0
 14 15  1  0
 16  8  1  0
 17 16  2  0
 18 16  1  0
 19 24  1  0
 19 18  1  0
 19 20  1  1
 21 20  1  0
 21 22  1  0
 22 23  2  0
 24 27  1  0
 25 24  2  0
 26 22  1  0
M  END
$$$$
