SFE.pdb
     RDKit          3D

 27 27  0  0  1  0  0  0  0  0999 V2000
    9.2896  -18.7802   20.8468 O   0  0  0  0  0  0  0  0  0  0  0  0
    8.3693  -18.0422   20.0775 C   0  0  0  0  0  0  0  0  0  0  0  0
    8.9357  -16.6454   19.9757 C   0  0  2  0  0  0  0  0  0  0  0  0
   10.2077  -16.7374   19.2823 N   0  0  0  0  0  0  0  0  0  0  0  0
    9.1601  -15.9881   21.2708 C   0  0  0  0  0  0  0  0  0  0  0  0
   10.2966  -15.9211   21.8063 O   0  0  0  0  0  0  0  0  0  0  0  0
    8.0946  -15.3827   22.0039 N   0  0  0  0  0  0  0  0  0  0  0  0
    8.2472  -14.7756   23.3060 C   0  0  1  0  0  0  0  0  0  0  0  0
    7.0319  -13.9232   23.5701 C   0  0  0  0  0  0  0  0  0  0  0  0
    7.0604  -13.2509   24.8683 C   0  0  0  0  0  0  0  0  0  0  0  0
    6.2194  -13.6754   25.8678 C   0  0  0  0  0  0  0  0  0  0  0  0
    6.2046  -13.0925   27.1311 C   0  0  0  0  0  0  0  0  0  0  0  0
    7.0513  -12.0590   27.4004 C   0  0  0  0  0  0  0  0  0  0  0  0
    7.9063  -11.6173   26.4012 C   0  0  0  0  0  0  0  0  0  0  0  0
    7.9107  -12.2041   25.1557 C   0  0  0  0  0  0  0  0  0  0  0  0
    8.4579  -15.8360   24.3085 C   0  0  0  0  0  0  0  0  0  0  0  0
    7.6461  -16.7874   24.4079 O   0  0  0  0  0  0  0  0  0  0  0  0
    9.5737  -15.8134   25.1828 N   0  0  0  0  0  0  0  0  0  0  0  0
    9.8174  -16.9221   26.1263 C   0  0  1  0  0  0  0  0  0  0  0  0
   11.0639  -17.6146   25.6577 C   0  0  0  0  0  0  0  0  0  0  0  0
   12.1922  -16.7143   25.2867 C   0  0  0  0  0  0  0  0  0  0  0  0
   13.2348  -17.4577   24.5058 C   0  0  0  0  0  0  0  0  0  0  0  0
   13.2001  -17.4429   23.2396 O   0  0  0  0  0  0  0  0  0  0  0  0
   10.0457  -16.3908   27.4875 C   0  0  0  0  0  0  0  0  0  0  0  0
   10.2302  -17.2475   28.4212 O   0  0  0  0  0  0  0  0  0  0  0  0
   14.2305  -18.1548   25.1758 O   0  0  0  0  0  0  0  0  0  0  0  0
   10.0807  -15.0774   27.8474 O   0  0  0  0  0  0  0  0  0  0  0  0
  2  1  1  0
  3  2  1  0
  3  4  1  1
  5  3  1  0
  5  6  2  0
  7  5  1  0
  8  7  1  0
  8  9  1  1
 10  9  1  0
 10 15  2  0
 11 10  1  0
 12 11  2  0
 12 13  1  0
 13 14  2  0
 14 15  1  0
 16  8  1  0
 17 16  2  0
 18 16  1  0
 19 24  1  0
 19 18  1  0
 19 20  1  6
 21 20  1  0
 21 22  1  0
 22 23  2  0
 24 27  1  0
 25 24  2  0
 26 22  1  0
M  END
$$$$
