SFE.pdb
     RDKit          3D

 27 27  0  0  1  0  0  0  0  0999 V2000
    8.6027  -18.6649   20.1457 O   0  0  0  0  0  0  0  0  0  0  0  0
    7.4805  -17.9911   19.6260 C   0  0  0  0  0  0  0  0  0  0  0  0
    7.9111  -16.5574   19.4236 C   0  0  2  0  0  0  0  0  0  0  0  0
    9.0136  -16.5598   18.4792 N   0  0  0  0  0  0  0  0  0  0  0  0
    8.3532  -15.8798   20.6505 C   0  0  0  0  0  0  0  0  0  0  0  0
    9.5677  -15.6816   20.9125 O   0  0  0  0  0  0  0  0  0  0  0  0
    7.4247  -15.4035   21.6253 N   0  0  0  0  0  0  0  0  0  0  0  0
    7.8037  -14.7407   22.8518 C   0  0  1  0  0  0  0  0  0  0  0  0
    6.5717  -14.0964   23.4353 C   0  0  0  0  0  0  0  0  0  0  0  0
    6.8160  -13.4094   24.7028 C   0  0  0  0  0  0  0  0  0  0  0  0
    6.2344  -13.8852   25.8525 C   0  0  0  0  0  0  0  0  0  0  0  0
    6.4360  -13.2911   27.0943 C   0  0  0  0  0  0  0  0  0  0  0  0
    7.2384  -12.1934   27.1878 C   0  0  0  0  0  0  0  0  0  0  0  0
    7.8325  -11.6993   26.0356 C   0  0  0  0  0  0  0  0  0  0  0  0
    7.6247  -12.2980   24.8133 C   0  0  0  0  0  0  0  0  0  0  0  0
    8.4430  -15.7204   23.7492 C   0  0  0  0  0  0  0  0  0  0  0  0
    7.9218  -16.8462   23.9362 O   0  0  0  0  0  0  0  0  0  0  0  0
    9.6548  -15.4231   24.4224 N   0  0  0  0  0  0  0  0  0  0  0  0
   10.4515  -16.4937   25.0530 C   0  0  1  0  0  0  0  0  0  0  0  0
   11.8836  -16.2310   24.6880 C   0  0  0  0  0  0  0  0  0  0  0  0
   12.8767  -17.1634   25.2924 C   0  0  0  0  0  0  0  0  0  0  0  0
   14.2680  -16.8262   24.8448 C   0  0  0  0  0  0  0  0  0  0  0  0
   15.0911  -16.3324   25.6714 O   0  0  0  0  0  0  0  0  0  0  0  0
   10.3117  -16.4327   26.5241 C   0  0  0  0  0  0  0  0  0  0  0  0
   10.7958  -17.4108   27.1939 O   0  0  0  0  0  0  0  0  0  0  0  0
   14.6437  -17.0589   23.5291 O   0  0  0  0  0  0  0  0  0  0  0  0
    9.7190  -15.4361   27.2391 O   0  0  0  0  0  0  0  0  0  0  0  0
  2  1  1  0
  3  2  1  0
  3  4  1  6
  5  3  1  0
  5  6  2  0
  7  5  1  0
  8  7  1  0
  8  9  1  1
 10  9  1  0
 10 15  2  0
 11 10  1  0
 12 11  2  0
 12 13  1  0
 13 14  2  0
 14 15  1  0
 16  8  1  0
 17 16  2  0
 18 16  1  0
 19 24  1  0
 19 18  1  0
 19 20  1  1
 21 20  1  0
 21 22  1  0
 22 23  2  0
 24 27  1  0
 25 24  2  0
 26 22  1  0
M  END
$$$$
