SFE.pdb
     RDKit          3D

 27 27  0  0  1  0  0  0  0  0999 V2000
    8.6222  -16.1603   19.6662 O   0  0  0  0  0  0  0  0  0  0  0  0
    7.2796  -15.7924   19.8796 C   0  0  0  0  0  0  0  0  0  0  0  0
    7.3181  -14.4235   20.5173 C   0  0  2  0  0  0  0  0  0  0  0  0
    8.0014  -13.5309   19.5988 N   0  0  0  0  0  0  0  0  0  0  0  0
    8.0136  -14.3785   21.8112 C   0  0  0  0  0  0  0  0  0  0  0  0
    9.1748  -13.9112   21.9379 O   0  0  0  0  0  0  0  0  0  0  0  0
    7.4093  -14.8663   23.0095 N   0  0  0  0  0  0  0  0  0  0  0  0
    8.0742  -14.9184   24.2911 C   0  0  1  0  0  0  0  0  0  0  0  0
    7.0298  -14.7591   25.3668 C   0  0  0  0  0  0  0  0  0  0  0  0
    6.8998  -13.3874   25.8566 C   0  0  0  0  0  0  0  0  0  0  0  0
    8.0291  -12.6750   26.1787 C   0  0  0  0  0  0  0  0  0  0  0  0
    7.9804  -11.3615   26.6350 C   0  0  0  0  0  0  0  0  0  0  0  0
    6.7721  -10.7463   26.7734 C   0  0  0  0  0  0  0  0  0  0  0  0
    5.6216  -11.4525   26.4535 C   0  0  0  0  0  0  0  0  0  0  0  0
    5.6849  -12.7517   26.0023 C   0  0  0  0  0  0  0  0  0  0  0  0
    8.8367  -16.1768   24.3857 C   0  0  0  0  0  0  0  0  0  0  0  0
    8.2793  -17.2769   24.1556 O   0  0  0  0  0  0  0  0  0  0  0  0
   10.2104  -16.1823   24.7365 N   0  0  0  0  0  0  0  0  0  0  0  0
   10.9492  -17.4522   24.8785 C   0  0  1  0  0  0  0  0  0  0  0  0
   12.3940  -17.1359   24.6227 C   0  0  0  0  0  0  0  0  0  0  0  0
   12.7042  -16.6348   23.2538 C   0  0  0  0  0  0  0  0  0  0  0  0
   14.1674  -16.3373   23.1121 C   0  0  0  0  0  0  0  0  0  0  0  0
   14.6670  -15.3418   23.7153 O   0  0  0  0  0  0  0  0  0  0  0  0
   10.8077  -17.9718   26.2559 C   0  0  0  0  0  0  0  0  0  0  0  0
   10.2363  -17.2065   27.1088 O   0  0  0  0  0  0  0  0  0  0  0  0
   14.9633  -17.1555   22.3225 O   0  0  0  0  0  0  0  0  0  0  0  0
   11.2245  -19.1874   26.7082 O   0  0  0  0  0  0  0  0  0  0  0  0
  2  1  1  0
  3  2  1  0
  3  4  1  6
  5  3  1  0
  5  6  2  0
  7  5  1  0
  8  7  1  0
  8  9  1  1
 10  9  1  0
 10 15  2  0
 11 10  1  0
 12 11  2  0
 12 13  1  0
 13 14  2  0
 14 15  1  0
 16  8  1  0
 17 16  2  0
 18 16  1  0
 19 24  1  0
 19 18  1  0
 19 20  1  1
 21 20  1  0
 21 22  1  0
 22 23  2  0
 24 27  1  0
 25 24  2  0
 26 22  1  0
M  END
$$$$
