SFE.pdb
     RDKit          3D

 27 27  0  0  1  0  0  0  0  0999 V2000
    9.3734  -18.8077   20.9509 O   0  0  0  0  0  0  0  0  0  0  0  0
    8.1059  -18.3100   20.5913 C   0  0  0  0  0  0  0  0  0  0  0  0
    8.2675  -16.8140   20.4574 C   0  0  2  0  0  0  0  0  0  0  0  0
    9.1698  -16.5679   19.3472 N   0  0  0  0  0  0  0  0  0  0  0  0
    8.8128  -16.1554   21.6527 C   0  0  0  0  0  0  0  0  0  0  0  0
   10.0233  -15.8266   21.7498 O   0  0  0  0  0  0  0  0  0  0  0  0
    7.9961  -15.8478   22.7830 N   0  0  0  0  0  0  0  0  0  0  0  0
    8.4938  -15.2755   24.0127 C   0  0  1  0  0  0  0  0  0  0  0  0
    7.3104  -14.8298   24.8338 C   0  0  0  0  0  0  0  0  0  0  0  0
    7.6807  -14.2296   26.1148 C   0  0  0  0  0  0  0  0  0  0  0  0
    7.8186  -12.8662   26.2076 C   0  0  0  0  0  0  0  0  0  0  0  0
    8.1529  -12.2272   27.3974 C   0  0  0  0  0  0  0  0  0  0  0  0
    8.3553  -12.9708   28.5215 C   0  0  0  0  0  0  0  0  0  0  0  0
    8.2212  -14.3495   28.4445 C   0  0  0  0  0  0  0  0  0  0  0  0
    7.8891  -14.9683   27.2603 C   0  0  0  0  0  0  0  0  0  0  0  0
    9.3484  -16.2664   24.6921 C   0  0  0  0  0  0  0  0  0  0  0  0
    8.9865  -17.4644   24.7801 O   0  0  0  0  0  0  0  0  0  0  0  0
   10.5938  -15.8994   25.2617 N   0  0  0  0  0  0  0  0  0  0  0  0
   11.4644  -16.9112   25.8916 C   0  0  1  0  0  0  0  0  0  0  0  0
   12.8779  -16.4978   25.6012 C   0  0  0  0  0  0  0  0  0  0  0  0
   13.2293  -16.4001   24.1562 C   0  0  0  0  0  0  0  0  0  0  0  0
   14.6573  -15.9761   23.9807 C   0  0  0  0  0  0  0  0  0  0  0  0
   15.3494  -15.6661   24.9954 O   0  0  0  0  0  0  0  0  0  0  0  0
   11.2576  -16.9197   27.3560 C   0  0  0  0  0  0  0  0  0  0  0  0
   10.5616  -15.9646   27.8491 O   0  0  0  0  0  0  0  0  0  0  0  0
   15.2101  -15.9279   22.7085 O   0  0  0  0  0  0  0  0  0  0  0  0
   11.7338  -17.8457   28.2344 O   0  0  0  0  0  0  0  0  0  0  0  0
  2  1  1  0
  3  2  1  0
  3  4  1  6
  5  3  1  0
  5  6  2  0
  7  5  1  0
  8  7  1  0
  8  9  1  1
 10  9  1  0
 10 15  2  0
 11 10  1  0
 12 11  2  0
 12 13  1  0
 13 14  2  0
 14 15  1  0
 16  8  1  0
 17 16  2  0
 18 16  1  0
 19 24  1  0
 19 18  1  0
 19 20  1  1
 21 20  1  0
 21 22  1  0
 22 23  2  0
 24 27  1  0
 25 24  2  0
 26 22  1  0
M  END
$$$$
