SFE.pdb
     RDKit          3D

 27 27  0  0  1  0  0  0  0  0999 V2000
   10.6827  -18.9919   21.7272 O   0  0  0  0  0  0  0  0  0  0  0  0
    9.4629  -18.7096   21.0824 C   0  0  0  0  0  0  0  0  0  0  0  0
    9.5363  -17.2592   20.6665 C   0  0  2  0  0  0  0  0  0  0  0  0
   10.7263  -17.0965   19.8511 N   0  0  0  0  0  0  0  0  0  0  0  0
    9.6094  -16.3117   21.7875 C   0  0  0  0  0  0  0  0  0  0  0  0
   10.6854  -15.7620   22.1383 O   0  0  0  0  0  0  0  0  0  0  0  0
    8.4561  -15.9564   22.5510 N   0  0  0  0  0  0  0  0  0  0  0  0
    8.4867  -15.1120   23.7229 C   0  0  1  0  0  0  0  0  0  0  0  0
    7.1151  -14.5126   23.9036 C   0  0  0  0  0  0  0  0  0  0  0  0
    6.9994  -13.6646   25.0892 C   0  0  0  0  0  0  0  0  0  0  0  0
    6.3922  -14.1595   26.2174 C   0  0  0  0  0  0  0  0  0  0  0  0
    6.2619  -13.4144   27.3851 C   0  0  0  0  0  0  0  0  0  0  0  0
    6.7502  -12.1425   27.4244 C   0  0  0  0  0  0  0  0  0  0  0  0
    7.3651  -11.6270   26.2927 C   0  0  0  0  0  0  0  0  0  0  0  0
    7.4878  -12.3763   25.1441 C   0  0  0  0  0  0  0  0  0  0  0  0
    8.9434  -15.9083   24.8767 C   0  0  0  0  0  0  0  0  0  0  0  0
    8.4326  -17.0285   25.1183 O   0  0  0  0  0  0  0  0  0  0  0  0
    9.9639  -15.4371   25.7407 N   0  0  0  0  0  0  0  0  0  0  0  0
   10.4628  -16.2748   26.8488 C   0  0  1  0  0  0  0  0  0  0  0  0
   11.8855  -16.6190   26.5162 C   0  0  0  0  0  0  0  0  0  0  0  0
   12.7151  -15.4863   26.0163 C   0  0  0  0  0  0  0  0  0  0  0  0
   14.0377  -15.9766   25.5064 C   0  0  0  0  0  0  0  0  0  0  0  0
   14.4197  -17.1527   25.7815 O   0  0  0  0  0  0  0  0  0  0  0  0
   10.4366  -15.5115   28.1153 C   0  0  0  0  0  0  0  0  0  0  0  0
   10.8105  -16.1293   29.1728 O   0  0  0  0  0  0  0  0  0  0  0  0
   14.8323  -15.1391   24.7361 O   0  0  0  0  0  0  0  0  0  0  0  0
   10.0549  -14.2128   28.2688 O   0  0  0  0  0  0  0  0  0  0  0  0
  2  1  1  0
  3  2  1  0
  3  4  1  6
  5  3  1  0
  5  6  2  0
  7  5  1  0
  8  7  1  0
  8  9  1  1
 10  9  1  0
 10 15  2  0
 11 10  1  0
 12 11  2  0
 12 13  1  0
 13 14  2  0
 14 15  1  0
 16  8  1  0
 17 16  2  0
 18 16  1  0
 19 24  1  0
 19 18  1  0
 19 20  1  6
 21 20  1  0
 21 22  1  0
 22 23  2  0
 24 27  1  0
 25 24  2  0
 26 22  1  0
M  END
$$$$
