SFE.pdb
     RDKit          3D

 27 27  0  0  1  0  0  0  0  0999 V2000
    8.3407  -18.3071   20.0230 O   0  0  0  0  0  0  0  0  0  0  0  0
    7.1839  -17.6875   19.5118 C   0  0  0  0  0  0  0  0  0  0  0  0
    7.5285  -16.2251   19.3543 C   0  0  2  0  0  0  0  0  0  0  0  0
    8.5357  -16.1215   18.3140 N   0  0  0  0  0  0  0  0  0  0  0  0
    8.0538  -15.5931   20.5727 C   0  0  0  0  0  0  0  0  0  0  0  0
    9.2849  -15.4222   20.7680 O   0  0  0  0  0  0  0  0  0  0  0  0
    7.1927  -15.1329   21.6148 N   0  0  0  0  0  0  0  0  0  0  0  0
    7.6565  -14.5772   22.8652 C   0  0  1  0  0  0  0  0  0  0  0  0
    6.4764  -13.9526   23.5657 C   0  0  0  0  0  0  0  0  0  0  0  0
    6.8066  -13.3821   24.8710 C   0  0  0  0  0  0  0  0  0  0  0  0
    6.3892  -14.0210   26.0129 C   0  0  0  0  0  0  0  0  0  0  0  0
    6.6810  -13.5435   27.2868 C   0  0  0  0  0  0  0  0  0  0  0  0
    7.4072  -12.3980   27.4211 C   0  0  0  0  0  0  0  0  0  0  0  0
    7.8353  -11.7397   26.2775 C   0  0  0  0  0  0  0  0  0  0  0  0
    7.5398  -12.2242   25.0231 C   0  0  0  0  0  0  0  0  0  0  0  0
    8.3172  -15.6386   23.6466 C   0  0  0  0  0  0  0  0  0  0  0  0
    7.8497  -16.8028   23.6604 O   0  0  0  0  0  0  0  0  0  0  0  0
    9.4900  -15.3788   24.3996 N   0  0  0  0  0  0  0  0  0  0  0  0
   10.3251  -16.4863   24.9042 C   0  0  1  0  0  0  0  0  0  0  0  0
   11.7024  -16.2695   24.3482 C   0  0  0  0  0  0  0  0  0  0  0  0
   12.7168  -17.2873   24.7433 C   0  0  0  0  0  0  0  0  0  0  0  0
   14.0477  -16.9853   24.1211 C   0  0  0  0  0  0  0  0  0  0  0  0
   14.8540  -16.2060   24.7105 O   0  0  0  0  0  0  0  0  0  0  0  0
   10.3908  -16.4419   26.3811 C   0  0  0  0  0  0  0  0  0  0  0  0
   10.9263  -17.4459   26.9684 O   0  0  0  0  0  0  0  0  0  0  0  0
   14.3866  -17.5626   22.9053 O   0  0  0  0  0  0  0  0  0  0  0  0
    9.9385  -15.4359   27.1806 O   0  0  0  0  0  0  0  0  0  0  0  0
  2  1  1  0
  3  2  1  0
  3  4  1  6
  5  3  1  0
  5  6  2  0
  7  5  1  0
  8  7  1  0
  8  9  1  1
 10  9  1  0
 10 15  2  0
 11 10  1  0
 12 11  2  0
 12 13  1  0
 13 14  2  0
 14 15  1  0
 16  8  1  0
 17 16  2  0
 18 16  1  0
 19 24  1  0
 19 18  1  0
 19 20  1  6
 21 20  1  0
 21 22  1  0
 22 23  2  0
 24 27  1  0
 25 24  2  0
 26 22  1  0
M  END
$$$$
