SFE.pdb
     RDKit          3D

 27 27  0  0  1  0  0  0  0  0999 V2000
    8.5915  -18.6379   20.6868 O   0  0  0  0  0  0  0  0  0  0  0  0
    7.8909  -17.8332   19.7675 C   0  0  0  0  0  0  0  0  0  0  0  0
    8.6263  -16.5144   19.7219 C   0  0  2  0  0  0  0  0  0  0  0  0
    9.8836  -16.7370   19.0312 N   0  0  0  0  0  0  0  0  0  0  0  0
    8.9182  -15.9390   21.0423 C   0  0  0  0  0  0  0  0  0  0  0  0
   10.0568  -16.0094   21.5730 O   0  0  0  0  0  0  0  0  0  0  0  0
    7.9205  -15.2617   21.8071 N   0  0  0  0  0  0  0  0  0  0  0  0
    8.1473  -14.6934   23.1159 C   0  0  1  0  0  0  0  0  0  0  0  0
    6.9467  -13.8557   23.4766 C   0  0  0  0  0  0  0  0  0  0  0  0
    7.0617  -13.1996   24.7784 C   0  0  0  0  0  0  0  0  0  0  0  0
    6.1229  -13.4534   25.7484 C   0  0  0  0  0  0  0  0  0  0  0  0
    6.1793  -12.8769   27.0134 C   0  0  0  0  0  0  0  0  0  0  0  0
    7.1994  -12.0248   27.3147 C   0  0  0  0  0  0  0  0  0  0  0  0
    8.1553  -11.7567   26.3456 C   0  0  0  0  0  0  0  0  0  0  0  0
    8.0873  -12.3351   25.0981 C   0  0  0  0  0  0  0  0  0  0  0  0
    8.4202  -15.7825   24.0715 C   0  0  0  0  0  0  0  0  0  0  0  0
    7.6474  -16.7676   24.1506 O   0  0  0  0  0  0  0  0  0  0  0  0
    9.5536  -15.7502   24.9227 N   0  0  0  0  0  0  0  0  0  0  0  0
    9.8877  -16.9039   25.7806 C   0  0  1  0  0  0  0  0  0  0  0  0
   11.2954  -17.2965   25.4384 C   0  0  0  0  0  0  0  0  0  0  0  0
   11.4936  -17.8178   24.0563 C   0  0  0  0  0  0  0  0  0  0  0  0
   12.9308  -18.1766   23.8212 C   0  0  0  0  0  0  0  0  0  0  0  0
   13.7670  -18.0715   24.7670 O   0  0  0  0  0  0  0  0  0  0  0  0
    9.8313  -16.5114   27.2055 C   0  0  0  0  0  0  0  0  0  0  0  0
    9.7404  -15.2595   27.4592 O   0  0  0  0  0  0  0  0  0  0  0  0
   13.3337  -18.6223   22.5701 O   0  0  0  0  0  0  0  0  0  0  0  0
    9.8651  -17.3514   28.2774 O   0  0  0  0  0  0  0  0  0  0  0  0
  2  1  1  0
  3  2  1  0
  3  4  1  1
  5  3  1  0
  5  6  2  0
  7  5  1  0
  8  7  1  0
  8  9  1  1
 10  9  1  0
 10 15  2  0
 11 10  1  0
 12 11  2  0
 12 13  1  0
 13 14  2  0
 14 15  1  0
 16  8  1  0
 17 16  2  0
 18 16  1  0
 19 24  1  0
 19 18  1  0
 19 20  1  6
 21 20  1  0
 21 22  1  0
 22 23  2  0
 24 27  1  0
 25 24  2  0
 26 22  1  0
M  END
$$$$
