SFE.pdb
     RDKit          3D

 27 27  0  0  1  0  0  0  0  0999 V2000
    9.3067  -18.7741   20.1437 O   0  0  0  0  0  0  0  0  0  0  0  0
    8.0116  -18.3217   19.8252 C   0  0  0  0  0  0  0  0  0  0  0  0
    8.1293  -16.8297   19.6198 C   0  0  2  0  0  0  0  0  0  0  0  0
    9.0849  -16.6083   18.5497 N   0  0  0  0  0  0  0  0  0  0  0  0
    8.5822  -16.0899   20.8061 C   0  0  0  0  0  0  0  0  0  0  0  0
    9.7810  -15.7450   20.9701 O   0  0  0  0  0  0  0  0  0  0  0  0
    7.6831  -15.7165   21.8507 N   0  0  0  0  0  0  0  0  0  0  0  0
    8.0691  -14.9708   23.0264 C   0  0  1  0  0  0  0  0  0  0  0  0
    6.8247  -14.3680   23.6276 C   0  0  0  0  0  0  0  0  0  0  0  0
    7.0651  -13.6674   24.8884 C   0  0  0  0  0  0  0  0  0  0  0  0
    7.5839  -12.3958   24.8667 C   0  0  0  0  0  0  0  0  0  0  0  0
    7.8229  -11.6652   26.0264 C   0  0  0  0  0  0  0  0  0  0  0  0
    7.5367  -12.2211   27.2374 C   0  0  0  0  0  0  0  0  0  0  0  0
    7.0133  -13.5053   27.2769 C   0  0  0  0  0  0  0  0  0  0  0  0
    6.7812  -14.2164   26.1210 C   0  0  0  0  0  0  0  0  0  0  0  0
    8.7987  -15.8650   23.9441 C   0  0  0  0  0  0  0  0  0  0  0  0
    8.3590  -17.0124   24.1972 O   0  0  0  0  0  0  0  0  0  0  0  0
   10.0081  -15.4594   24.5629 N   0  0  0  0  0  0  0  0  0  0  0  0
   10.9286  -16.4541   25.1476 C   0  0  1  0  0  0  0  0  0  0  0  0
   12.3175  -16.0138   24.7866 C   0  0  0  0  0  0  0  0  0  0  0  0
   13.4172  -16.8416   25.3579 C   0  0  0  0  0  0  0  0  0  0  0  0
   14.7536  -16.3630   24.8736 C   0  0  0  0  0  0  0  0  0  0  0  0
   15.6746  -16.1215   25.7092 O   0  0  0  0  0  0  0  0  0  0  0  0
   10.7960  -16.4660   26.6205 C   0  0  0  0  0  0  0  0  0  0  0  0
   11.3051  -17.4639   27.2408 O   0  0  0  0  0  0  0  0  0  0  0  0
   14.9718  -16.1895   23.5139 O   0  0  0  0  0  0  0  0  0  0  0  0
   10.1859  -15.5177   27.3850 O   0  0  0  0  0  0  0  0  0  0  0  0
  2  1  1  0
  3  2  1  0
  3  4  1  6
  5  3  1  0
  5  6  2  0
  7  5  1  0
  8  7  1  0
  8  9  1  1
 10  9  1  0
 10 15  2  0
 11 10  1  0
 12 11  2  0
 12 13  1  0
 13 14  2  0
 14 15  1  0
 16  8  1  0
 17 16  2  0
 18 16  1  0
 19 24  1  0
 19 18  1  0
 19 20  1  1
 21 20  1  0
 21 22  1  0
 22 23  2  0
 24 27  1  0
 25 24  2  0
 26 22  1  0
M  END
$$$$
