GNM.pdb
     RDKit          3D

 21 20  0  0  1  0  0  0  0  0999 V2000
    8.3657  -19.4825   20.2673 N   0  0  0  0  0  0  0  0  0  0  0  0
    7.5392  -18.3478   20.5493 C   0  0  0  0  0  0  0  0  0  0  0  0
    8.3619  -17.1096   20.6873 C   0  0  0  0  0  0  0  0  0  0  0  0
    9.6197  -17.1633   20.6890 O   0  0  0  0  0  0  0  0  0  0  0  0
    8.4300  -12.1547   18.4859 N   0  0  0  0  0  0  0  0  0  0  0  0
    7.8458  -13.4147   18.9482 C   0  0  0  0  0  0  0  0  0  0  0  0
    7.5070  -14.1594   18.0289 O   0  0  0  0  0  0  0  0  0  0  0  0
    7.7747  -13.5519   20.3805 C   0  0  0  0  0  0  0  0  0  0  0  0
    8.5477  -14.6054   21.0881 C   0  0  2  0  0  0  0  0  0  0  0  0
    7.7421  -15.8451   20.8195 N   0  0  0  0  0  0  0  0  0  0  0  0
    8.6013  -14.4798   22.5604 C   0  0  0  0  0  0  0  0  0  0  0  0
    9.1121  -13.4198   23.0991 O   0  0  0  0  0  0  0  0  0  0  0  0
    7.6301  -11.2128   26.7860 C   0  0  0  0  0  0  0  0  0  0  0  0
    6.4011  -12.4572   27.3368 S   0  0  0  0  0  0  0  0  0  0  0  0
    6.9746  -14.1013   26.8675 C   0  0  0  0  0  0  0  0  0  0  0  0
    7.0525  -14.3386   25.4003 C   0  0  0  0  0  0  0  0  0  0  0  0
    8.2079  -15.1611   24.9355 C   0  0  2  0  0  0  0  0  0  0  0  0
    8.1296  -15.4313   23.4984 N   0  0  0  0  0  0  0  0  0  0  0  0
    8.2547  -16.4816   25.6017 C   0  0  0  0  0  0  0  0  0  0  0  0
    8.6619  -16.6255   26.9393 O   0  0  0  0  0  0  0  0  0  0  0  0
    7.9353  -17.5546   25.0127 O   0  0  0  0  0  0  0  0  0  0  0  0
  1  2  1  0
  2  3  1  0
  3  4  2  0
  5  6  1  0
  6  8  1  0
  7  6  2  0
  9  8  1  6
  9 11  1  0
 10  3  1  0
 10  9  1  0
 11 12  2  0
 13 14  1  0
 14 15  1  0
 15 16  1  0
 17 16  1  1
 17 19  1  0
 18 11  1  0
 18 17  1  0
 19 21  2  0
 19 20  1  0
M  END
$$$$
