GNM.pdb
     RDKit          3D

 21 20  0  0  1  0  0  0  0  0999 V2000
    5.5678  -20.4460   22.4577 N   0  0  0  0  0  0  0  0  0  0  0  0
    5.5647  -19.0147   22.4983 C   0  0  0  0  0  0  0  0  0  0  0  0
    6.9310  -18.4707   22.2404 C   0  0  0  0  0  0  0  0  0  0  0  0
    7.9324  -19.2318   22.1847 O   0  0  0  0  0  0  0  0  0  0  0  0
    9.3046  -16.6001   18.6791 N   0  0  0  0  0  0  0  0  0  0  0  0
    8.0931  -16.1414   19.3605 C   0  0  0  0  0  0  0  0  0  0  0  0
    7.0729  -16.2855   18.6875 O   0  0  0  0  0  0  0  0  0  0  0  0
    8.3136  -15.6101   20.6814 C   0  0  0  0  0  0  0  0  0  0  0  0
    8.5036  -16.5115   21.8473 C   0  0  2  0  0  0  0  0  0  0  0  0
    7.1290  -17.0829   22.0526 N   0  0  0  0  0  0  0  0  0  0  0  0
    8.8494  -15.8455   23.1213 C   0  0  0  0  0  0  0  0  0  0  0  0
    9.7512  -14.9175   23.1400 O   0  0  0  0  0  0  0  0  0  0  0  0
    7.2151  -10.8343   27.1527 C   0  0  0  0  0  0  0  0  0  0  0  0
    6.3670  -12.1087   26.1433 S   0  0  0  0  0  0  0  0  0  0  0  0
    7.6002  -13.2180   25.4353 C   0  0  0  0  0  0  0  0  0  0  0  0
    7.7649  -14.5088   26.1576 C   0  0  0  0  0  0  0  0  0  0  0  0
    8.7780  -15.4463   25.5902 C   0  0  2  0  0  0  0  0  0  0  0  0
    8.2753  -16.1152   24.3885 N   0  0  0  0  0  0  0  0  0  0  0  0
    9.1356  -16.5217   26.5419 C   0  0  0  0  0  0  0  0  0  0  0  0
    9.9557  -16.2839   27.6584 O   0  0  0  0  0  0  0  0  0  0  0  0
    8.7299  -17.7125   26.4096 O   0  0  0  0  0  0  0  0  0  0  0  0
  1  2  1  0
  2  3  1  0
  3  4  2  0
  5  6  1  0
  6  8  1  0
  7  6  2  0
  9  8  1  6
  9 11  1  0
 10  3  1  0
 10  9  1  0
 11 12  2  0
 13 14  1  0
 14 15  1  0
 15 16  1  0
 17 16  1  1
 17 19  1  0
 18 11  1  0
 18 17  1  0
 19 21  2  0
 19 20  1  0
M  END
$$$$
