GNM.pdb
     RDKit          3D

 21 20  0  0  1  0  0  0  0  0999 V2000
    6.0251  -19.1079   20.0031 N   0  0  0  0  0  0  0  0  0  0  0  0
    5.7106  -17.8371   20.5831 C   0  0  0  0  0  0  0  0  0  0  0  0
    6.9532  -17.0686   20.8901 C   0  0  0  0  0  0  0  0  0  0  0  0
    8.0563  -17.6547   21.0474 O   0  0  0  0  0  0  0  0  0  0  0  0
    7.0644  -12.8764   18.5686 N   0  0  0  0  0  0  0  0  0  0  0  0
    8.1861  -13.4210   19.3353 C   0  0  0  0  0  0  0  0  0  0  0  0
    9.1752  -13.6626   18.6441 O   0  0  0  0  0  0  0  0  0  0  0  0
    7.9303  -13.5733   20.7449 C   0  0  0  0  0  0  0  0  0  0  0  0
    8.1329  -14.8798   21.4231 C   0  0  2  0  0  0  0  0  0  0  0  0
    6.9163  -15.6598   21.0109 N   0  0  0  0  0  0  0  0  0  0  0  0
    8.0989  -14.8457   22.9008 C   0  0  0  0  0  0  0  0  0  0  0  0
    6.9641  -14.8905   23.5211 O   0  0  0  0  0  0  0  0  0  0  0  0
    6.0431  -11.2589   26.3417 C   0  0  0  0  0  0  0  0  0  0  0  0
    6.0428  -12.7725   27.3769 S   0  0  0  0  0  0  0  0  0  0  0  0
    7.5134  -13.7460   26.9998 C   0  0  0  0  0  0  0  0  0  0  0  0
    7.8421  -13.8424   25.5514 C   0  0  0  0  0  0  0  0  0  0  0  0
    9.0428  -14.6607   25.2106 C   0  0  2  0  0  0  0  0  0  0  0  0
    9.2222  -14.7712   23.7615 N   0  0  0  0  0  0  0  0  0  0  0  0
    8.9349  -16.0459   25.7198 C   0  0  0  0  0  0  0  0  0  0  0  0
    8.7610  -17.1431   24.8586 O   0  0  0  0  0  0  0  0  0  0  0  0
    8.9903  -16.3261   26.9521 O   0  0  0  0  0  0  0  0  0  0  0  0
  1  2  1  0
  2  3  1  0
  3  4  2  0
  5  6  1  0
  6  8  1  0
  7  6  2  0
  9  8  1  6
  9 11  1  0
 10  3  1  0
 10  9  1  0
 11 12  2  0
 13 14  1  0
 14 15  1  0
 15 16  1  0
 17 16  1  6
 17 19  1  0
 18 11  1  0
 18 17  1  0
 19 21  2  0
 19 20  1  0
M  END
$$$$
