GNM.pdb
     RDKit          3D

 21 20  0  0  1  0  0  0  0  0999 V2000
    7.5738  -12.9345   18.3831 N   0  0  0  0  0  0  0  0  0  0  0  0
    8.5038  -12.9293   19.4718 C   0  0  0  0  0  0  0  0  0  0  0  0
    8.3925  -14.1832   20.2745 C   0  0  0  0  0  0  0  0  0  0  0  0
    7.2817  -14.7532   20.4367 O   0  0  0  0  0  0  0  0  0  0  0  0
   11.5182  -17.1267   18.8507 N   0  0  0  0  0  0  0  0  0  0  0  0
   10.4945  -17.5059   19.8258 C   0  0  0  0  0  0  0  0  0  0  0  0
    9.7064  -18.3495   19.3997 O   0  0  0  0  0  0  0  0  0  0  0  0
   10.5952  -16.8292   21.0937 C   0  0  0  0  0  0  0  0  0  0  0  0
    9.4538  -16.0490   21.6380 C   0  0  2  0  0  0  0  0  0  0  0  0
    9.5381  -14.7590   20.8718 N   0  0  0  0  0  0  0  0  0  0  0  0
    9.5594  -15.6701   23.0633 C   0  0  0  0  0  0  0  0  0  0  0  0
   10.5299  -14.9109   23.4586 O   0  0  0  0  0  0  0  0  0  0  0  0
    6.4163  -10.8917   26.5149 C   0  0  0  0  0  0  0  0  0  0  0  0
    6.2438  -12.7118   26.6559 S   0  0  0  0  0  0  0  0  0  0  0  0
    7.6924  -13.5004   25.9263 C   0  0  0  0  0  0  0  0  0  0  0  0
    7.7427  -14.9794   26.0850 C   0  0  0  0  0  0  0  0  0  0  0  0
    8.9289  -15.6574   25.4845 C   0  0  2  0  0  0  0  0  0  0  0  0
    8.6733  -16.0571   24.0992 N   0  0  0  0  0  0  0  0  0  0  0  0
    9.2895  -16.8950   26.2112 C   0  0  0  0  0  0  0  0  0  0  0  0
    9.9658  -16.8636   27.4430 O   0  0  0  0  0  0  0  0  0  0  0  0
    9.0153  -18.0489   25.7714 O   0  0  0  0  0  0  0  0  0  0  0  0
  1  2  1  0
  2  3  1  0
  3  4  2  0
  5  6  1  0
  6  8  1  0
  7  6  2  0
  9  8  1  6
  9 11  1  0
 10  3  1  0
 10  9  1  0
 11 12  2  0
 13 14  1  0
 14 15  1  0
 15 16  1  0
 17 16  1  1
 17 19  1  0
 18 11  1  0
 18 17  1  0
 19 21  2  0
 19 20  1  0
M  END
$$$$
