GNM.pdb
     RDKit          3D

 21 20  0  0  1  0  0  0  0  0999 V2000
    8.3758  -19.6126   19.7759 N   0  0  0  0  0  0  0  0  0  0  0  0
    7.6401  -18.4442   20.1553 C   0  0  0  0  0  0  0  0  0  0  0  0
    8.5255  -17.2424   20.1844 C   0  0  0  0  0  0  0  0  0  0  0  0
    9.7615  -17.3418   19.9665 O   0  0  0  0  0  0  0  0  0  0  0  0
    8.7657  -12.5631   17.8352 N   0  0  0  0  0  0  0  0  0  0  0  0
    8.1222  -13.7095   18.4788 C   0  0  0  0  0  0  0  0  0  0  0  0
    7.6322  -14.5047   17.6776 O   0  0  0  0  0  0  0  0  0  0  0  0
    8.1792  -13.6980   19.9184 C   0  0  0  0  0  0  0  0  0  0  0  0
    8.8847  -14.7714   20.6654 C   0  0  2  0  0  0  0  0  0  0  0  0
    7.9912  -15.9618   20.4587 N   0  0  0  0  0  0  0  0  0  0  0  0
    8.9639  -14.5858   22.1301 C   0  0  0  0  0  0  0  0  0  0  0  0
    9.9653  -13.9490   22.6463 O   0  0  0  0  0  0  0  0  0  0  0  0
    6.9258  -11.4030   28.1636 C   0  0  0  0  0  0  0  0  0  0  0  0
    7.3261  -12.1055   26.5177 S   0  0  0  0  0  0  0  0  0  0  0  0
    6.8068  -13.8319   26.4705 C   0  0  0  0  0  0  0  0  0  0  0  0
    6.8000  -14.4434   25.1136 C   0  0  0  0  0  0  0  0  0  0  0  0
    8.1392  -14.6588   24.4911 C   0  0  2  0  0  0  0  0  0  0  0  0
    8.0201  -15.0429   23.0830 N   0  0  0  0  0  0  0  0  0  0  0  0
    8.8920  -15.7472   25.1533 C   0  0  0  0  0  0  0  0  0  0  0  0
    9.3844  -16.8526   24.4381 O   0  0  0  0  0  0  0  0  0  0  0  0
    9.1355  -15.7511   26.3946 O   0  0  0  0  0  0  0  0  0  0  0  0
  1  2  1  0
  2  3  1  0
  3  4  2  0
  5  6  1  0
  6  8  1  0
  7  6  2  0
  9  8  1  6
  9 11  1  0
 10  3  1  0
 10  9  1  0
 11 12  2  0
 13 14  1  0
 14 15  1  0
 15 16  1  0
 17 16  1  1
 17 19  1  0
 18 11  1  0
 18 17  1  0
 19 21  2  0
 19 20  1  0
M  END
$$$$
