GNM.pdb
     RDKit          3D

 21 20  0  0  1  0  0  0  0  0999 V2000
   11.7839  -19.1444   19.6156 N   0  0  0  0  0  0  0  0  0  0  0  0
   10.5770  -18.8496   20.3276 C   0  0  0  0  0  0  0  0  0  0  0  0
   10.4443  -17.3822   20.5681 C   0  0  0  0  0  0  0  0  0  0  0  0
   11.4512  -16.6268   20.5414 O   0  0  0  0  0  0  0  0  0  0  0  0
    8.6549  -13.2585   19.2433 N   0  0  0  0  0  0  0  0  0  0  0  0
    7.4490  -13.9942   19.6268 C   0  0  0  0  0  0  0  0  0  0  0  0
    6.4336  -13.5922   19.0595 O   0  0  0  0  0  0  0  0  0  0  0  0
    7.6684  -15.0441   20.5887 C   0  0  0  0  0  0  0  0  0  0  0  0
    9.0307  -15.3376   21.1044 C   0  0  2  0  0  0  0  0  0  0  0  0
    9.1789  -16.8080   20.8321 N   0  0  0  0  0  0  0  0  0  0  0  0
    9.2086  -15.1858   22.5644 C   0  0  0  0  0  0  0  0  0  0  0  0
   10.3242  -14.7279   23.0340 O   0  0  0  0  0  0  0  0  0  0  0  0
    6.6717  -10.6209   27.1343 C   0  0  0  0  0  0  0  0  0  0  0  0
    6.2003  -12.1990   26.3283 S   0  0  0  0  0  0  0  0  0  0  0  0
    7.6389  -13.2849   26.2697 C   0  0  0  0  0  0  0  0  0  0  0  0
    7.3843  -14.6247   25.6738 C   0  0  0  0  0  0  0  0  0  0  0  0
    8.5421  -15.2559   24.9749 C   0  0  2  0  0  0  0  0  0  0  0  0
    8.2489  -15.4942   23.5602 N   0  0  0  0  0  0  0  0  0  0  0  0
    8.8894  -16.5735   25.5520 C   0  0  0  0  0  0  0  0  0  0  0  0
    9.4204  -16.7013   26.8471 O   0  0  0  0  0  0  0  0  0  0  0  0
    8.7329  -17.6579   24.9197 O   0  0  0  0  0  0  0  0  0  0  0  0
  1  2  1  0
  2  3  1  0
  3  4  2  0
  5  6  1  0
  6  8  1  0
  7  6  2  0
  9  8  1  1
  9 11  1  0
 10  3  1  0
 10  9  1  0
 11 12  2  0
 13 14  1  0
 14 15  1  0
 15 16  1  0
 17 16  1  1
 17 19  1  0
 18 11  1  0
 18 17  1  0
 19 21  2  0
 19 20  1  0
M  END
$$$$
