GNM.pdb
     RDKit          3D

 21 20  0  0  1  0  0  0  0  0999 V2000
   11.2429  -18.3176   19.0713 N   0  0  0  0  0  0  0  0  0  0  0  0
   10.0617  -18.2014   19.8721 C   0  0  0  0  0  0  0  0  0  0  0  0
   10.0634  -16.9228   20.6430 C   0  0  0  0  0  0  0  0  0  0  0  0
   11.1242  -16.4723   21.1497 O   0  0  0  0  0  0  0  0  0  0  0  0
    6.7976  -13.1869   19.1391 N   0  0  0  0  0  0  0  0  0  0  0  0
    7.9754  -13.3955   19.9827 C   0  0  0  0  0  0  0  0  0  0  0  0
    8.9921  -12.8635   19.5379 O   0  0  0  0  0  0  0  0  0  0  0  0
    7.7323  -14.1777   21.1679 C   0  0  0  0  0  0  0  0  0  0  0  0
    8.8027  -15.0193   21.7628 C   0  0  2  0  0  0  0  0  0  0  0  0
    8.8677  -16.1883   20.8207 N   0  0  0  0  0  0  0  0  0  0  0  0
    8.4994  -15.5970   23.0896 C   0  0  0  0  0  0  0  0  0  0  0  0
    8.0990  -16.8241   23.1825 O   0  0  0  0  0  0  0  0  0  0  0  0
    6.0724  -11.0359   26.5850 C   0  0  0  0  0  0  0  0  0  0  0  0
    6.3127  -12.8206   26.9309 S   0  0  0  0  0  0  0  0  0  0  0  0
    7.9939  -13.2889   26.4763 C   0  0  0  0  0  0  0  0  0  0  0  0
    8.3418  -14.7090   26.7548 C   0  0  0  0  0  0  0  0  0  0  0  0
    8.2935  -15.6318   25.5828 C   0  0  2  0  0  0  0  0  0  0  0  0
    8.6065  -14.9310   24.3357 N   0  0  0  0  0  0  0  0  0  0  0  0
    6.9506  -16.2251   25.3968 C   0  0  0  0  0  0  0  0  0  0  0  0
    6.4163  -17.1548   26.3055 O   0  0  0  0  0  0  0  0  0  0  0  0
    6.2070  -15.9359   24.4152 O   0  0  0  0  0  0  0  0  0  0  0  0
  1  2  1  0
  2  3  1  0
  3  4  2  0
  5  6  1  0
  6  8  1  0
  7  6  2  0
  9  8  1  6
  9 11  1  0
 10  3  1  0
 10  9  1  0
 11 12  2  0
 13 14  1  0
 14 15  1  0
 15 16  1  0
 17 16  1  1
 17 19  1  0
 18 11  1  0
 18 17  1  0
 19 21  2  0
 19 20  1  0
M  END
$$$$
