GNM.pdb
     RDKit          3D

 21 20  0  0  1  0  0  0  0  0999 V2000
    5.2035  -18.4330   20.6466 N   0  0  0  0  0  0  0  0  0  0  0  0
    5.3072  -17.0665   21.0618 C   0  0  0  0  0  0  0  0  0  0  0  0
    6.7249  -16.6008   21.0147 C   0  0  0  0  0  0  0  0  0  0  0  0
    7.6787  -17.4224   21.0352 O   0  0  0  0  0  0  0  0  0  0  0  0
    7.3339  -12.8633   18.0799 N   0  0  0  0  0  0  0  0  0  0  0  0
    8.3143  -13.7475   18.7119 C   0  0  0  0  0  0  0  0  0  0  0  0
    8.8622  -14.5118   17.9181 O   0  0  0  0  0  0  0  0  0  0  0  0
    8.4577  -13.5637   20.1336 C   0  0  0  0  0  0  0  0  0  0  0  0
    8.4405  -14.7244   21.0613 C   0  0  2  0  0  0  0  0  0  0  0  0
    7.0268  -15.2207   20.9458 N   0  0  0  0  0  0  0  0  0  0  0  0
    8.6313  -14.4030   22.4918 C   0  0  0  0  0  0  0  0  0  0  0  0
    8.5654  -13.1739   22.8911 O   0  0  0  0  0  0  0  0  0  0  0  0
    6.0241  -11.4520   27.2563 C   0  0  0  0  0  0  0  0  0  0  0  0
    7.5090  -12.5249   27.1753 S   0  0  0  0  0  0  0  0  0  0  0  0
    7.0176  -14.1729   26.6321 C   0  0  0  0  0  0  0  0  0  0  0  0
    7.3284  -14.4781   25.2089 C   0  0  0  0  0  0  0  0  0  0  0  0
    8.7190  -14.9444   24.9330 C   0  0  2  0  0  0  0  0  0  0  0  0
    8.8857  -15.3324   23.5308 N   0  0  0  0  0  0  0  0  0  0  0  0
    9.0762  -16.1351   25.7358 C   0  0  0  0  0  0  0  0  0  0  0  0
    9.0655  -17.4303   25.1899 O   0  0  0  0  0  0  0  0  0  0  0  0
    9.4091  -16.0618   26.9539 O   0  0  0  0  0  0  0  0  0  0  0  0
  1  2  1  0
  2  3  1  0
  3  4  2  0
  5  6  1  0
  6  8  1  0
  7  6  2  0
  9  8  1  6
  9 11  1  0
 10  3  1  0
 10  9  1  0
 11 12  2  0
 13 14  1  0
 14 15  1  0
 15 16  1  0
 17 16  1  6
 17 19  1  0
 18 11  1  0
 18 17  1  0
 19 21  2  0
 19 20  1  0
M  END
$$$$
