GNM.pdb
     RDKit          3D

 21 20  0  0  1  0  0  0  0  0999 V2000
    5.6335  -18.9907   20.5001 N   0  0  0  0  0  0  0  0  0  0  0  0
    5.6224  -17.5766   20.7247 C   0  0  0  0  0  0  0  0  0  0  0  0
    7.0059  -17.0176   20.6746 C   0  0  0  0  0  0  0  0  0  0  0  0
    8.0110  -17.7753   20.6458 O   0  0  0  0  0  0  0  0  0  0  0  0
    7.0262  -13.1263   18.0300 N   0  0  0  0  0  0  0  0  0  0  0  0
    8.1222  -14.0000   18.4517 C   0  0  0  0  0  0  0  0  0  0  0  0
    8.5423  -14.7230   17.5488 O   0  0  0  0  0  0  0  0  0  0  0  0
    8.5056  -13.8557   19.8330 C   0  0  0  0  0  0  0  0  0  0  0  0
    8.6004  -15.0374   20.7288 C   0  0  2  0  0  0  0  0  0  0  0  0
    7.2166  -15.6190   20.6584 N   0  0  0  0  0  0  0  0  0  0  0  0
    8.8321  -14.7398   22.1584 C   0  0  0  0  0  0  0  0  0  0  0  0
    9.9412  -14.1864   22.5304 O   0  0  0  0  0  0  0  0  0  0  0  0
    6.4637  -11.2750   28.5979 C   0  0  0  0  0  0  0  0  0  0  0  0
    5.9455  -12.1409   27.0669 S   0  0  0  0  0  0  0  0  0  0  0  0
    7.2861  -13.2118   26.5116 C   0  0  0  0  0  0  0  0  0  0  0  0
    7.0414  -13.8930   25.2112 C   0  0  0  0  0  0  0  0  0  0  0  0
    8.2320  -14.5329   24.5785 C   0  0  2  0  0  0  0  0  0  0  0  0
    7.9331  -14.9984   23.2227 N   0  0  0  0  0  0  0  0  0  0  0  0
    8.6906  -15.7216   25.3311 C   0  0  0  0  0  0  0  0  0  0  0  0
    8.7280  -17.0007   24.7497 O   0  0  0  0  0  0  0  0  0  0  0  0
    9.0727  -15.6609   26.5355 O   0  0  0  0  0  0  0  0  0  0  0  0
  1  2  1  0
  2  3  1  0
  3  4  2  0
  5  6  1  0
  6  8  1  0
  7  6  2  0
  9  8  1  6
  9 11  1  0
 10  3  1  0
 10  9  1  0
 11 12  2  0
 13 14  1  0
 14 15  1  0
 15 16  1  0
 17 16  1  1
 17 19  1  0
 18 11  1  0
 18 17  1  0
 19 21  2  0
 19 20  1  0
M  END
$$$$
