GNM.pdb
     RDKit          3D

 21 20  0  0  1  0  0  0  0  0999 V2000
    7.9023  -13.3068   17.3629 N   0  0  0  0  0  0  0  0  0  0  0  0
    8.6879  -13.1364   18.5478 C   0  0  0  0  0  0  0  0  0  0  0  0
    8.3785  -14.1985   19.5504 C   0  0  0  0  0  0  0  0  0  0  0  0
    7.2212  -14.3193   20.0313 O   0  0  0  0  0  0  0  0  0  0  0  0
   10.9094  -18.1391   18.5250 N   0  0  0  0  0  0  0  0  0  0  0  0
    9.8344  -18.1137   19.5180 C   0  0  0  0  0  0  0  0  0  0  0  0
    8.8957  -18.8582   19.2371 O   0  0  0  0  0  0  0  0  0  0  0  0
   10.0688  -17.2306   20.6319 C   0  0  0  0  0  0  0  0  0  0  0  0
    9.0895  -16.1714   20.9886 C   0  0  2  0  0  0  0  0  0  0  0  0
    9.3838  -15.0949   19.9823 N   0  0  0  0  0  0  0  0  0  0  0  0
    9.2833  -15.5400   22.3114 C   0  0  0  0  0  0  0  0  0  0  0  0
   10.3677  -14.8780   22.5575 O   0  0  0  0  0  0  0  0  0  0  0  0
    6.3094  -11.2029   28.0447 C   0  0  0  0  0  0  0  0  0  0  0  0
    5.9213  -12.5468   26.8591 S   0  0  0  0  0  0  0  0  0  0  0  0
    7.4588  -13.3176   26.3164 C   0  0  0  0  0  0  0  0  0  0  0  0
    7.3601  -14.0708   25.0366 C   0  0  0  0  0  0  0  0  0  0  0  0
    8.6065  -14.7598   24.5903 C   0  0  2  0  0  0  0  0  0  0  0  0
    8.3709  -15.5725   23.3951 N   0  0  0  0  0  0  0  0  0  0  0  0
    9.1310  -15.6836   25.6205 C   0  0  0  0  0  0  0  0  0  0  0  0
    9.1884  -17.0727   25.4136 O   0  0  0  0  0  0  0  0  0  0  0  0
    9.5552  -15.2836   26.7431 O   0  0  0  0  0  0  0  0  0  0  0  0
  1  2  1  0
  2  3  1  0
  3  4  2  0
  5  6  1  0
  6  8  1  0
  7  6  2  0
  9  8  1  6
  9 11  1  0
 10  3  1  0
 10  9  1  0
 11 12  2  0
 13 14  1  0
 14 15  1  0
 15 16  1  0
 17 16  1  1
 17 19  1  0
 18 11  1  0
 18 17  1  0
 19 21  2  0
 19 20  1  0
M  END
$$$$
