GNM.pdb
     RDKit          3D

 21 20  0  0  1  0  0  0  0  0999 V2000
    7.7706  -13.0947   17.3678 N   0  0  0  0  0  0  0  0  0  0  0  0
    8.6115  -13.0443   18.5256 C   0  0  0  0  0  0  0  0  0  0  0  0
    8.2938  -14.1605   19.4648 C   0  0  0  0  0  0  0  0  0  0  0  0
    7.1196  -14.3445   19.8801 O   0  0  0  0  0  0  0  0  0  0  0  0
    9.3996  -19.5753   20.4863 N   0  0  0  0  0  0  0  0  0  0  0  0
   10.0191  -18.4561   21.1978 C   0  0  0  0  0  0  0  0  0  0  0  0
   10.4843  -18.7737   22.2920 O   0  0  0  0  0  0  0  0  0  0  0  0
    9.9717  -17.1995   20.4947 C   0  0  0  0  0  0  0  0  0  0  0  0
    9.0195  -16.1322   20.8973 C   0  0  2  0  0  0  0  0  0  0  0  0
    9.3102  -15.0381   19.9091 N   0  0  0  0  0  0  0  0  0  0  0  0
    9.2539  -15.5348   22.2293 C   0  0  0  0  0  0  0  0  0  0  0  0
   10.2248  -14.6960   22.3982 O   0  0  0  0  0  0  0  0  0  0  0  0
    6.4221  -11.1125   27.7402 C   0  0  0  0  0  0  0  0  0  0  0  0
    6.0262  -12.5047   26.6144 S   0  0  0  0  0  0  0  0  0  0  0  0
    7.5505  -13.3658   26.1816 C   0  0  0  0  0  0  0  0  0  0  0  0
    7.4711  -14.1888   24.9441 C   0  0  0  0  0  0  0  0  0  0  0  0
    8.6974  -14.9675   24.6018 C   0  0  2  0  0  0  0  0  0  0  0  0
    8.4972  -15.7822   23.4015 N   0  0  0  0  0  0  0  0  0  0  0  0
    9.0787  -15.9073   25.6794 C   0  0  0  0  0  0  0  0  0  0  0  0
    9.6792  -15.4672   26.8716 O   0  0  0  0  0  0  0  0  0  0  0  0
    8.8909  -17.1554   25.5943 O   0  0  0  0  0  0  0  0  0  0  0  0
  1  2  1  0
  2  3  1  0
  3  4  2  0
  5  6  1  0
  6  8  1  0
  7  6  2  0
  9  8  1  6
  9 11  1  0
 10  3  1  0
 10  9  1  0
 11 12  2  0
 13 14  1  0
 14 15  1  0
 15 16  1  0
 17 16  1  1
 17 19  1  0
 18 11  1  0
 18 17  1  0
 19 21  2  0
 19 20  1  0
M  END
$$$$
