GNM.pdb
     RDKit          3D

 21 20  0  0  1  0  0  0  0  0999 V2000
    7.6787  -13.2817   17.7285 N   0  0  0  0  0  0  0  0  0  0  0  0
    8.8014  -13.4188   18.6067 C   0  0  0  0  0  0  0  0  0  0  0  0
    8.5494  -14.4722   19.6342 C   0  0  0  0  0  0  0  0  0  0  0  0
    7.3879  -14.6903   20.0684 O   0  0  0  0  0  0  0  0  0  0  0  0
    9.6279  -19.4759   19.9263 N   0  0  0  0  0  0  0  0  0  0  0  0
   10.2839  -18.1956   19.6562 C   0  0  0  0  0  0  0  0  0  0  0  0
   10.6144  -18.0577   18.4788 O   0  0  0  0  0  0  0  0  0  0  0  0
   10.4217  -17.3388   20.8063 C   0  0  0  0  0  0  0  0  0  0  0  0
    9.3747  -16.3414   21.1480 C   0  0  2  0  0  0  0  0  0  0  0  0
    9.6154  -15.2502   20.1432 N   0  0  0  0  0  0  0  0  0  0  0  0
    9.5120  -15.6975   22.4718 C   0  0  0  0  0  0  0  0  0  0  0  0
   10.5302  -14.9373   22.7167 O   0  0  0  0  0  0  0  0  0  0  0  0
    6.5031  -10.9430   27.6773 C   0  0  0  0  0  0  0  0  0  0  0  0
    6.1368  -12.2388   26.4326 S   0  0  0  0  0  0  0  0  0  0  0  0
    7.6126  -13.2421   26.1729 C   0  0  0  0  0  0  0  0  0  0  0  0
    7.5518  -14.1456   24.9918 C   0  0  0  0  0  0  0  0  0  0  0  0
    8.7645  -14.9811   24.7496 C   0  0  2  0  0  0  0  0  0  0  0  0
    8.6096  -15.8176   23.5577 N   0  0  0  0  0  0  0  0  0  0  0  0
    9.0352  -15.9075   25.8714 C   0  0  0  0  0  0  0  0  0  0  0  0
    9.5695  -15.4605   27.0922 O   0  0  0  0  0  0  0  0  0  0  0  0
    8.8058  -17.1495   25.8011 O   0  0  0  0  0  0  0  0  0  0  0  0
  1  2  1  0
  2  3  1  0
  3  4  2  0
  5  6  1  0
  6  8  1  0
  7  6  2  0
  9  8  1  1
  9 11  1  0
 10  3  1  0
 10  9  1  0
 11 12  2  0
 13 14  1  0
 14 15  1  0
 15 16  1  0
 17 16  1  1
 17 19  1  0
 18 11  1  0
 18 17  1  0
 19 21  2  0
 19 20  1  0
M  END
$$$$
