GNM.pdb
     RDKit          3D

 21 20  0  0  1  0  0  0  0  0999 V2000
    7.9605  -12.3651   18.8985 N   0  0  0  0  0  0  0  0  0  0  0  0
    8.6493  -13.6021   19.1119 C   0  0  0  0  0  0  0  0  0  0  0  0
    7.9401  -14.4400   20.1238 C   0  0  0  0  0  0  0  0  0  0  0  0
    6.9343  -14.0001   20.7403 O   0  0  0  0  0  0  0  0  0  0  0  0
    6.6581  -18.8416   22.8076 N   0  0  0  0  0  0  0  0  0  0  0  0
    7.5720  -19.1441   21.7049 C   0  0  0  0  0  0  0  0  0  0  0  0
    7.7814  -20.3485   21.5639 O   0  0  0  0  0  0  0  0  0  0  0  0
    8.0548  -17.9884   20.9930 C   0  0  0  0  0  0  0  0  0  0  0  0
    7.6727  -16.6153   21.4134 C   0  0  2  0  0  0  0  0  0  0  0  0
    8.3856  -15.7512   20.4118 N   0  0  0  0  0  0  0  0  0  0  0  0
    8.1774  -16.1871   22.7355 C   0  0  0  0  0  0  0  0  0  0  0  0
    9.4446  -15.9906   22.9093 O   0  0  0  0  0  0  0  0  0  0  0  0
    6.9628  -10.5750   26.6840 C   0  0  0  0  0  0  0  0  0  0  0  0
    6.3674  -12.1789   27.3441 S   0  0  0  0  0  0  0  0  0  0  0  0
    7.4736  -13.4918   26.7918 C   0  0  0  0  0  0  0  0  0  0  0  0
    7.0413  -14.1895   25.5503 C   0  0  0  0  0  0  0  0  0  0  0  0
    7.9641  -15.2479   25.0447 C   0  0  2  0  0  0  0  0  0  0  0  0
    7.3945  -15.9495   23.8924 N   0  0  0  0  0  0  0  0  0  0  0  0
    8.2353  -16.2839   26.0659 C   0  0  0  0  0  0  0  0  0  0  0  0
    9.1963  -16.0996   27.0749 O   0  0  0  0  0  0  0  0  0  0  0  0
    7.6251  -17.3916   26.0927 O   0  0  0  0  0  0  0  0  0  0  0  0
  1  2  1  0
  2  3  1  0
  3  4  2  0
  5  6  1  0
  6  8  1  0
  7  6  2  0
  9  8  1  6
  9 11  1  0
 10  3  1  0
 10  9  1  0
 11 12  2  0
 13 14  1  0
 14 15  1  0
 15 16  1  0
 17 16  1  1
 17 19  1  0
 18 11  1  0
 18 17  1  0
 19 21  2  0
 19 20  1  0
M  END
$$$$
