GNM.pdb
     RDKit          3D

 21 20  0  0  1  0  0  0  0  0999 V2000
    7.9059  -12.8185   17.6653 N   0  0  0  0  0  0  0  0  0  0  0  0
    8.9717  -12.9151   18.6166 C   0  0  0  0  0  0  0  0  0  0  0  0
    8.8499  -14.1614   19.4295 C   0  0  0  0  0  0  0  0  0  0  0  0
    7.8802  -14.9483   19.2693 O   0  0  0  0  0  0  0  0  0  0  0  0
   11.8579  -14.3641   20.0589 N   0  0  0  0  0  0  0  0  0  0  0  0
   12.0680  -15.7859   20.3360 C   0  0  0  0  0  0  0  0  0  0  0  0
   13.1667  -16.1964   19.9634 O   0  0  0  0  0  0  0  0  0  0  0  0
   10.9616  -16.4389   20.9879 C   0  0  0  0  0  0  0  0  0  0  0  0
    9.6952  -15.7108   21.2602 C   0  0  2  0  0  0  0  0  0  0  0  0
    9.8259  -14.4850   20.4008 N   0  0  0  0  0  0  0  0  0  0  0  0
    9.5293  -15.2098   22.6413 C   0  0  0  0  0  0  0  0  0  0  0  0
   10.4563  -14.4852   23.1802 O   0  0  0  0  0  0  0  0  0  0  0  0
    7.0058  -11.5510   28.3804 C   0  0  0  0  0  0  0  0  0  0  0  0
    7.2175  -12.1069   26.6459 S   0  0  0  0  0  0  0  0  0  0  0  0
    6.7717  -13.8503   26.5262 C   0  0  0  0  0  0  0  0  0  0  0  0
    6.9529  -14.4483   25.1754 C   0  0  0  0  0  0  0  0  0  0  0  0
    8.3506  -14.8279   24.8149 C   0  0  2  0  0  0  0  0  0  0  0  0
    8.4141  -15.4379   23.4852 N   0  0  0  0  0  0  0  0  0  0  0  0
    8.9164  -15.8229   25.7528 C   0  0  0  0  0  0  0  0  0  0  0  0
    9.7160  -15.4443   26.8451 O   0  0  0  0  0  0  0  0  0  0  0  0
    8.7186  -17.0662   25.6295 O   0  0  0  0  0  0  0  0  0  0  0  0
  1  2  1  0
  2  3  1  0
  3  4  2  0
  5  6  1  0
  6  8  1  0
  7  6  2  0
  9  8  1  1
  9 11  1  0
 10  3  1  0
 10  9  1  0
 11 12  2  0
 13 14  1  0
 14 15  1  0
 15 16  1  0
 17 16  1  1
 17 19  1  0
 18 11  1  0
 18 17  1  0
 19 21  2  0
 19 20  1  0
M  END
$$$$
