SIM.pdb
     RDKit          3D

 23 22  0  0  1  0  0  0  0  0999 V2000
   25.1805  -23.8552  -14.4972 O   0  0  0  0  0  0  0  0  0  0  0  0
   24.5196  -22.9025  -13.7503 C   0  0  0  0  0  0  0  0  0  0  0  0
   25.4470  -21.7377  -13.4577 C   0  0  2  0  0  0  0  0  0  0  0  0
   26.0738  -21.8435  -12.1795 N   0  0  0  0  0  0  0  0  0  0  0  0
   24.6408  -20.4944  -13.6055 C   0  0  0  0  0  0  0  0  0  0  0  0
   23.9725  -20.1536  -12.5941 O   0  0  0  0  0  0  0  0  0  0  0  0
   26.6433  -16.0041  -15.5178 C   0  0  0  0  0  0  0  0  0  0  0  0
   25.8717  -17.0355  -14.6681 C   0  0  0  0  0  0  0  0  0  0  0  0
   24.6790  -17.4066  -15.5096 C   0  0  2  0  0  0  0  0  0  0  0  0
   23.8224  -16.1444  -15.6192 C   0  0  0  0  0  0  0  0  0  0  0  0
   23.8623  -18.5266  -14.9328 C   0  0  2  0  0  0  0  0  0  0  0  0
   24.6174  -19.7355  -14.7982 N   0  0  0  0  0  0  0  0  0  0  0  0
   22.5883  -18.7770  -15.6039 C   0  0  0  0  0  0  0  0  0  0  0  0
   22.5101  -19.0246  -16.8284 O   0  0  0  0  0  0  0  0  0  0  0  0
   17.2030  -21.3661  -12.5271 C   0  0  0  0  0  0  0  0  0  0  0  0
   16.5404  -20.6516  -14.0532 S   0  0  0  0  0  0  0  0  0  0  0  0
   17.7170  -19.8838  -15.1025 C   0  0  0  0  0  0  0  0  0  0  0  0
   19.0985  -19.6435  -14.7297 C   0  0  0  0  0  0  0  0  0  0  0  0
   20.0705  -18.9420  -15.5542 C   0  0  2  0  0  0  0  0  0  0  0  0
   21.3575  -18.7501  -14.8831 N   0  0  0  0  0  0  0  0  0  0  0  0
   19.6570  -17.7072  -16.2194 C   0  0  0  0  0  0  0  0  0  0  0  0
   19.7500  -16.5314  -15.8556 O   0  0  0  0  0  0  0  0  0  0  0  0
   19.0333  -17.8221  -17.5143 O   0  0  0  0  0  0  0  0  0  0  0  0
  2  1  1  0
  3  4  1  1
  3  2  1  0
  5  3  1  0
  6  5  2  0
  8  7  1  0
  9  8  1  0
  9 11  1  0
  9 10  1  1
 11 13  1  0
 11 12  1  6
 12  5  1  0
 13 20  1  0
 14 13  2  0
 15 16  1  0
 17 16  1  0
 18 17  1  0
 19 18  1  1
 19 21  1  0
 20 19  1  0
 21 22  2  0
 21 23  1  0
M  END
$$$$
