SIM.pdb
     RDKit          3D

 23 22  0  0  1  0  0  0  0  0999 V2000
   18.1812  -12.5233  -14.9979 O   0  0  0  0  0  0  0  0  0  0  0  0
   17.0961  -11.8091  -15.4614 C   0  0  0  0  0  0  0  0  0  0  0  0
   17.3444  -11.3559  -16.8880 C   0  0  2  0  0  0  0  0  0  0  0  0
   17.9754  -12.3614  -17.6809 N   0  0  0  0  0  0  0  0  0  0  0  0
   18.1371  -10.0977  -16.8111 C   0  0  0  0  0  0  0  0  0  0  0  0
   19.3254  -10.1752  -17.2207 O   0  0  0  0  0  0  0  0  0  0  0  0
   15.0637   -5.9504  -16.4490 C   0  0  0  0  0  0  0  0  0  0  0  0
   16.3500   -6.3034  -17.2247 C   0  0  0  0  0  0  0  0  0  0  0  0
   17.4044   -6.4639  -16.1613 C   0  0  2  0  0  0  0  0  0  0  0  0
   18.2248   -5.1733  -16.1730 C   0  0  0  0  0  0  0  0  0  0  0  0
   18.3076   -7.6423  -16.3840 C   0  0  2  0  0  0  0  0  0  0  0  0
   17.6035   -8.8869  -16.3129 N   0  0  0  0  0  0  0  0  0  0  0  0
   19.5085   -7.6718  -15.5516 C   0  0  0  0  0  0  0  0  0  0  0  0
   19.4720   -7.9276  -14.3267 O   0  0  0  0  0  0  0  0  0  0  0  0
   26.6067  -10.3941  -14.3756 C   0  0  0  0  0  0  0  0  0  0  0  0
   25.4328   -9.8157  -15.6269 S   0  0  0  0  0  0  0  0  0  0  0  0
   24.2685   -8.6244  -15.0791 C   0  0  0  0  0  0  0  0  0  0  0  0
   23.0030   -8.3662  -15.7403 C   0  0  0  0  0  0  0  0  0  0  0  0
   22.0041   -7.4148  -15.2780 C   0  0  2  0  0  0  0  0  0  0  0  0
   20.7961   -7.4063  -16.1052 N   0  0  0  0  0  0  0  0  0  0  0  0
   22.4285   -6.0460  -14.9871 C   0  0  0  0  0  0  0  0  0  0  0  0
   22.4099   -5.0343  -15.6939 O   0  0  0  0  0  0  0  0  0  0  0  0
   22.9639   -5.7767  -13.6758 O   0  0  0  0  0  0  0  0  0  0  0  0
  2  1  1  0
  3  4  1  6
  3  2  1  0
  5  3  1  0
  6  5  2  0
  8  7  1  0
  9  8  1  0
  9 11  1  0
  9 10  1  6
 11 13  1  0
 11 12  1  1
 12  5  1  0
 13 20  1  0
 14 13  2  0
 15 16  1  0
 17 16  1  0
 18 17  1  0
 19 18  1  6
 19 21  1  0
 20 19  1  0
 21 22  2  0
 21 23  1  0
M  END
$$$$
