SIM.pdb
     RDKit          3D

 23 22  0  0  1  0  0  0  0  0999 V2000
   20.7815  -18.2988  -12.8214 O   0  0  0  0  0  0  0  0  0  0  0  0
   21.5351  -19.4491  -12.7151 C   0  0  0  0  0  0  0  0  0  0  0  0
   22.6814  -19.4120  -13.7086 C   0  0  2  0  0  0  0  0  0  0  0  0
   22.2863  -19.8231  -15.0173 N   0  0  0  0  0  0  0  0  0  0  0  0
   23.7724  -20.2527  -13.1427 C   0  0  0  0  0  0  0  0  0  0  0  0
   23.6008  -21.4975  -13.2245 O   0  0  0  0  0  0  0  0  0  0  0  0
   28.4858  -20.7249  -14.7815 C   0  0  0  0  0  0  0  0  0  0  0  0
   27.0574  -20.7640  -14.1990 C   0  0  0  0  0  0  0  0  0  0  0  0
   27.2359  -20.4721  -12.7323 C   0  0  2  0  0  0  0  0  0  0  0  0
   28.1977  -21.5342  -12.1979 C   0  0  0  0  0  0  0  0  0  0  0  0
   25.9536  -20.5090  -11.9523 C   0  0  2  0  0  0  0  0  0  0  0  0
   24.9319  -19.7029  -12.5491 N   0  0  0  0  0  0  0  0  0  0  0  0
   26.0844  -20.2174  -10.5261 C   0  0  0  0  0  0  0  0  0  0  0  0
   27.1017  -19.6723  -10.0414 O   0  0  0  0  0  0  0  0  0  0  0  0
   29.5566  -19.3690   -6.1286 C   0  0  0  0  0  0  0  0  0  0  0  0
   27.8978  -19.2016   -5.4223 S   0  0  0  0  0  0  0  0  0  0  0  0
   26.6529  -20.1816   -6.1736 C   0  0  0  0  0  0  0  0  0  0  0  0
   26.3546  -20.1620   -7.5935 C   0  0  0  0  0  0  0  0  0  0  0  0
   25.3342  -20.9741   -8.2385 C   0  0  2  0  0  0  0  0  0  0  0  0
   25.0432  -20.5457   -9.6079 N   0  0  0  0  0  0  0  0  0  0  0  0
   24.0909  -21.2343   -7.5141 C   0  0  0  0  0  0  0  0  0  0  0  0
   22.9337  -20.8794   -7.7558 O   0  0  0  0  0  0  0  0  0  0  0  0
   24.1703  -22.0299   -6.3142 O   0  0  0  0  0  0  0  0  0  0  0  0
  2  1  1  0
  3  4  1  6
  3  2  1  0
  5  3  1  0
  6  5  2  0
  8  7  1  0
  9  8  1  0
  9 11  1  0
  9 10  1  1
 11 13  1  0
 11 12  1  6
 12  5  1  0
 13 20  1  0
 14 13  2  0
 15 16  1  0
 17 16  1  0
 18 17  1  0
 19 18  1  1
 19 21  1  0
 20 19  1  0
 21 22  2  0
 21 23  1  0
M  END
$$$$
