SIM.pdb
     RDKit          3D

 23 22  0  0  1  0  0  0  0  0999 V2000
   37.0520  -27.9684    5.0195 O   0  0  0  0  0  0  0  0  0  0  0  0
   37.0257  -26.8431    5.8166 C   0  0  0  0  0  0  0  0  0  0  0  0
   37.0975  -25.5957    4.9556 C   0  0  2  0  0  0  0  0  0  0  0  0
   38.4265  -25.3029    4.5243 N   0  0  0  0  0  0  0  0  0  0  0  0
   36.4882  -24.4894    5.7443 C   0  0  0  0  0  0  0  0  0  0  0  0
   37.2735  -23.8640    6.5045 O   0  0  0  0  0  0  0  0  0  0  0  0
   31.8003  -21.8156    4.0724 C   0  0  0  0  0  0  0  0  0  0  0  0
   33.2686  -22.1032    4.4497 C   0  0  0  0  0  0  0  0  0  0  0  0
   33.2008  -22.6613    5.8470 C   0  0  2  0  0  0  0  0  0  0  0  0
   32.5998  -21.5588    6.7201 C   0  0  0  0  0  0  0  0  0  0  0  0
   34.5367  -23.0721    6.3951 C   0  0  2  0  0  0  0  0  0  0  0  0
   35.1182  -24.1515    5.6557 N   0  0  0  0  0  0  0  0  0  0  0  0
   34.5624  -23.3470    7.8303 C   0  0  0  0  0  0  0  0  0  0  0  0
   34.0170  -24.3558    8.3321 O   0  0  0  0  0  0  0  0  0  0  0  0
   38.7429  -20.7583   13.4740 C   0  0  0  0  0  0  0  0  0  0  0  0
   38.5341  -22.4288   12.8074 S   0  0  0  0  0  0  0  0  0  0  0  0
   36.9568  -22.7804   12.1267 C   0  0  0  0  0  0  0  0  0  0  0  0
   36.6064  -22.5535   10.7371 C   0  0  0  0  0  0  0  0  0  0  0  0
   35.2785  -22.7450   10.1742 C   0  0  2  0  0  0  0  0  0  0  0  0
   35.2201  -22.4649    8.7383 N   0  0  0  0  0  0  0  0  0  0  0  0
   34.1385  -22.1341   10.8563 C   0  0  0  0  0  0  0  0  0  0  0  0
   33.4902  -21.1202   10.5820 O   0  0  0  0  0  0  0  0  0  0  0  0
   33.6497  -22.7789   12.0497 O   0  0  0  0  0  0  0  0  0  0  0  0
  2  1  1  0
  3  4  1  1
  3  2  1  0
  5  3  1  0
  6  5  2  0
  8  7  1  0
  9  8  1  0
  9 11  1  0
  9 10  1  1
 11 13  1  0
 11 12  1  6
 12  5  1  0
 13 20  1  0
 14 13  2  0
 15 16  1  0
 17 16  1  0
 18 17  1  0
 19 18  1  1
 19 21  1  0
 20 19  1  0
 21 22  2  0
 21 23  1  0
M  END
$$$$
