SIM.pdb
     RDKit          3D

 23 22  0  0  1  0  0  0  0  0999 V2000
   19.9223  -13.6995  -20.7430 O   0  0  0  0  0  0  0  0  0  0  0  0
   20.2080  -13.0936  -19.5374 C   0  0  0  0  0  0  0  0  0  0  0  0
   21.3824  -13.7880  -18.8733 C   0  0  2  0  0  0  0  0  0  0  0  0
   21.1034  -15.1506  -18.5518 N   0  0  0  0  0  0  0  0  0  0  0  0
   21.7481  -12.9752  -17.6804 C   0  0  0  0  0  0  0  0  0  0  0  0
   21.0330  -13.1522  -16.6591 O   0  0  0  0  0  0  0  0  0  0  0  0
   26.4884  -10.4451  -14.9491 C   0  0  0  0  0  0  0  0  0  0  0  0
   24.9494  -10.3770  -15.0384 C   0  0  0  0  0  0  0  0  0  0  0  0
   24.6014  -11.1981  -16.2521 C   0  0  2  0  0  0  0  0  0  0  0  0
   25.3635  -10.5763  -17.4232 C   0  0  0  0  0  0  0  0  0  0  0  0
   23.1319  -11.2239  -16.5585 C   0  0  2  0  0  0  0  0  0  0  0  0
   22.8258  -12.0601  -17.6797 N   0  0  0  0  0  0  0  0  0  0  0  0
   22.5019   -9.9123  -16.6960 C   0  0  0  0  0  0  0  0  0  0  0  0
   22.7087   -9.1664  -17.6798 O   0  0  0  0  0  0  0  0  0  0  0  0
   18.4031  -11.1497  -17.6474 C   0  0  0  0  0  0  0  0  0  0  0  0
   17.6972   -9.4827  -17.6806 S   0  0  0  0  0  0  0  0  0  0  0  0
   18.7771   -8.1933  -17.1845 C   0  0  0  0  0  0  0  0  0  0  0  0
   19.5174   -8.1932  -15.9366 C   0  0  0  0  0  0  0  0  0  0  0  0
   20.9659   -8.1065  -15.8310 C   0  0  2  0  0  0  0  0  0  0  0  0
   21.6094   -9.4150  -15.7005 N   0  0  0  0  0  0  0  0  0  0  0  0
   21.5387   -7.1624  -14.8725 C   0  0  0  0  0  0  0  0  0  0  0  0
   22.3311   -7.3451  -13.9439 O   0  0  0  0  0  0  0  0  0  0  0  0
   21.1495   -5.7785  -14.9833 O   0  0  0  0  0  0  0  0  0  0  0  0
  2  1  1  0
  3  4  1  1
  3  2  1  0
  5  3  1  0
  6  5  2  0
  8  7  1  0
  9  8  1  0
  9 11  1  0
  9 10  1  6
 11 13  1  0
 11 12  1  6
 12  5  1  0
 13 20  1  0
 14 13  2  0
 15 16  1  0
 17 16  1  0
 18 17  1  0
 19 18  1  1
 19 21  1  0
 20 19  1  0
 21 22  2  0
 21 23  1  0
M  END
$$$$
