SIM.pdb
     RDKit          3D

 23 22  0  0  1  0  0  0  0  0999 V2000
   28.2397  -19.1377  -16.7668 O   0  0  0  0  0  0  0  0  0  0  0  0
   27.1739  -19.8286  -16.2294 C   0  0  0  0  0  0  0  0  0  0  0  0
   27.6689  -20.8263  -15.1988 C   0  0  2  0  0  0  0  0  0  0  0  0
   28.3180  -21.9509  -15.7920 N   0  0  0  0  0  0  0  0  0  0  0  0
   26.4945  -21.2085  -14.3669 C   0  0  0  0  0  0  0  0  0  0  0  0
   25.9056  -22.2681  -14.7078 O   0  0  0  0  0  0  0  0  0  0  0  0
   26.4067  -20.2763   -8.9843 C   0  0  0  0  0  0  0  0  0  0  0  0
   26.3142  -20.9998  -10.3441 C   0  0  0  0  0  0  0  0  0  0  0  0
   25.1122  -20.3922  -11.0181 C   0  0  2  0  0  0  0  0  0  0  0  0
   23.8959  -20.8279  -10.1999 C   0  0  0  0  0  0  0  0  0  0  0  0
   24.9439  -20.8215  -12.4469 C   0  0  2  0  0  0  0  0  0  0  0  0
   26.0574  -20.4412  -13.2627 N   0  0  0  0  0  0  0  0  0  0  0  0
   23.6809  -20.4301  -13.0694 C   0  0  0  0  0  0  0  0  0  0  0  0
   23.3345  -19.2336  -13.1942 O   0  0  0  0  0  0  0  0  0  0  0  0
   21.0225  -22.4283  -18.8363 C   0  0  0  0  0  0  0  0  0  0  0  0
   19.6399  -22.3787  -17.6682 S   0  0  0  0  0  0  0  0  0  0  0  0
   19.9590  -21.5571  -16.1522 C   0  0  0  0  0  0  0  0  0  0  0  0
   21.1656  -21.7449  -15.3686 C   0  0  0  0  0  0  0  0  0  0  0  0
   21.4756  -21.0323  -14.1386 C   0  0  2  0  0  0  0  0  0  0  0  0
   22.7716  -21.4083  -13.5706 N   0  0  0  0  0  0  0  0  0  0  0  0
   20.4586  -20.9799  -13.0892 C   0  0  0  0  0  0  0  0  0  0  0  0
   20.3659  -21.6089  -12.0313 O   0  0  0  0  0  0  0  0  0  0  0  0
   19.3618  -20.0609  -13.2667 O   0  0  0  0  0  0  0  0  0  0  0  0
  2  1  1  0
  3  4  1  6
  3  2  1  0
  5  3  1  0
  6  5  2  0
  8  7  1  0
  9  8  1  0
  9 11  1  0
  9 10  1  1
 11 13  1  0
 11 12  1  6
 12  5  1  0
 13 20  1  0
 14 13  2  0
 15 16  1  0
 17 16  1  0
 18 17  1  0
 19 18  1  6
 19 21  1  0
 20 19  1  0
 21 22  2  0
 21 23  1  0
M  END
$$$$
