SIM.pdb
     RDKit          3D

 23 22  0  0  1  0  0  0  0  0999 V2000
   19.5234  -11.8141  -19.7394 O   0  0  0  0  0  0  0  0  0  0  0  0
   19.9053  -11.1046  -18.6200 C   0  0  0  0  0  0  0  0  0  0  0  0
   20.8663  -11.9305  -17.7853 C   0  0  2  0  0  0  0  0  0  0  0  0
   20.2625  -13.1149  -17.2652 N   0  0  0  0  0  0  0  0  0  0  0  0
   21.3947  -11.0345  -16.7197 C   0  0  0  0  0  0  0  0  0  0  0  0
   20.6780  -10.9297  -15.6896 O   0  0  0  0  0  0  0  0  0  0  0  0
   26.8784  -10.2546  -15.8785 C   0  0  0  0  0  0  0  0  0  0  0  0
   25.5376   -9.8422  -16.5213 C   0  0  0  0  0  0  0  0  0  0  0  0
   24.5366   -9.9205  -15.3987 C   0  0  2  0  0  0  0  0  0  0  0  0
   24.5318  -11.3761  -14.9295 C   0  0  0  0  0  0  0  0  0  0  0  0
   23.1493   -9.5118  -15.8015 C   0  0  2  0  0  0  0  0  0  0  0  0
   22.6201  -10.3401  -16.8426 N   0  0  0  0  0  0  0  0  0  0  0  0
   22.9873   -8.0959  -16.1256 C   0  0  0  0  0  0  0  0  0  0  0  0
   23.3231   -7.6163  -17.2321 O   0  0  0  0  0  0  0  0  0  0  0  0
   19.2922   -1.9272  -18.1700 C   0  0  0  0  0  0  0  0  0  0  0  0
   19.5144   -3.6832  -17.7882 S   0  0  0  0  0  0  0  0  0  0  0  0
   20.8892   -4.0683  -16.7702 C   0  0  0  0  0  0  0  0  0  0  0  0
   21.2153   -5.4101  -16.3245 C   0  0  0  0  0  0  0  0  0  0  0  0
   22.3383   -5.7487  -15.4637 C   0  0  2  0  0  0  0  0  0  0  0  0
   22.4310   -7.1823  -15.1818 N   0  0  0  0  0  0  0  0  0  0  0  0
   22.5321   -4.9775  -14.2366 C   0  0  0  0  0  0  0  0  0  0  0  0
   22.3872   -5.3026  -13.0548 O   0  0  0  0  0  0  0  0  0  0  0  0
   22.9624   -3.6077  -14.3690 O   0  0  0  0  0  0  0  0  0  0  0  0
  2  1  1  0
  3  4  1  1
  3  2  1  0
  5  3  1  0
  6  5  2  0
  8  7  1  0
  9  8  1  0
  9 11  1  0
  9 10  1  6
 11 13  1  0
 11 12  1  6
 12  5  1  0
 13 20  1  0
 14 13  2  0
 15 16  1  0
 17 16  1  0
 18 17  1  0
 19 18  1  1
 19 21  1  0
 20 19  1  0
 21 22  2  0
 21 23  1  0
M  END
$$$$
