SIM.pdb
     RDKit          3D

 23 22  0  0  1  0  0  0  0  0999 V2000
   29.5455  -28.8754  -21.2806 O   0  0  0  0  0  0  0  0  0  0  0  0
   29.5734  -29.4966  -20.0495 C   0  0  0  0  0  0  0  0  0  0  0  0
   30.2742  -28.6101  -19.0369 C   0  0  2  0  0  0  0  0  0  0  0  0
   31.3487  -29.2771  -18.3749 N   0  0  0  0  0  0  0  0  0  0  0  0
   29.2302  -28.1190  -18.0953 C   0  0  0  0  0  0  0  0  0  0  0  0
   29.1545  -28.7303  -16.9970 O   0  0  0  0  0  0  0  0  0  0  0  0
   26.8426  -22.9383  -16.3194 C   0  0  0  0  0  0  0  0  0  0  0  0
   26.5066  -24.4434  -16.3735 C   0  0  0  0  0  0  0  0  0  0  0  0
   27.5197  -25.0262  -17.3234 C   0  0  2  0  0  0  0  0  0  0  0  0
   27.2737  -24.3566  -18.6761 C   0  0  0  0  0  0  0  0  0  0  0  0
   27.4188  -26.5171  -17.4685 C   0  0  2  0  0  0  0  0  0  0  0  0
   28.3725  -27.0375  -18.4011 N   0  0  0  0  0  0  0  0  0  0  0  0
   26.0781  -27.0252  -17.7520 C   0  0  0  0  0  0  0  0  0  0  0  0
   25.6206  -27.1046  -18.9146 O   0  0  0  0  0  0  0  0  0  0  0  0
   22.0208  -32.8802  -16.2040 C   0  0  0  0  0  0  0  0  0  0  0  0
   22.0108  -31.3497  -15.2366 S   0  0  0  0  0  0  0  0  0  0  0  0
   22.3148  -29.8796  -16.1427 C   0  0  0  0  0  0  0  0  0  0  0  0
   23.5867  -29.1813  -16.1489 C   0  0  0  0  0  0  0  0  0  0  0  0
   23.8946  -28.0251  -16.9766 C   0  0  2  0  0  0  0  0  0  0  0  0
   25.2170  -27.4604  -16.7013 N   0  0  0  0  0  0  0  0  0  0  0  0
   22.8998  -26.9584  -17.0804 C   0  0  0  0  0  0  0  0  0  0  0  0
   22.8266  -25.8721  -16.4991 O   0  0  0  0  0  0  0  0  0  0  0  0
   21.8033  -27.1539  -17.9960 O   0  0  0  0  0  0  0  0  0  0  0  0
  2  1  1  0
  3  4  1  1
  3  2  1  0
  5  3  1  0
  6  5  2  0
  8  7  1  0
  9  8  1  0
  9 11  1  0
  9 10  1  6
 11 13  1  0
 11 12  1  6
 12  5  1  0
 13 20  1  0
 14 13  2  0
 15 16  1  0
 17 16  1  0
 18 17  1  0
 19 18  1  1
 19 21  1  0
 20 19  1  0
 21 22  2  0
 21 23  1  0
M  END
$$$$
