SIM.pdb
     RDKit          3D

 23 22  0  0  1  0  0  0  0  0999 V2000
   15.2894  -25.5184   -3.2586 O   0  0  0  0  0  0  0  0  0  0  0  0
   16.0171  -26.5181   -2.6476 C   0  0  0  0  0  0  0  0  0  0  0  0
   17.4835  -26.3919   -3.0166 C   0  0  2  0  0  0  0  0  0  0  0  0
   17.7453  -26.7821   -4.3645 N   0  0  0  0  0  0  0  0  0  0  0  0
   18.2506  -27.1928   -2.0229 C   0  0  0  0  0  0  0  0  0  0  0  0
   18.7975  -28.2362   -2.4680 O   0  0  0  0  0  0  0  0  0  0  0  0
   21.5344  -24.6396    1.4441 C   0  0  0  0  0  0  0  0  0  0  0  0
   20.9000  -25.5345    0.3589 C   0  0  0  0  0  0  0  0  0  0  0  0
   19.9903  -26.4655    1.1165 C   0  0  2  0  0  0  0  0  0  0  0  0
   20.8751  -27.2074    2.1192 C   0  0  0  0  0  0  0  0  0  0  0  0
   19.2769  -27.4535    0.2397 C   0  0  2  0  0  0  0  0  0  0  0  0
   18.3663  -26.8185   -0.6644 N   0  0  0  0  0  0  0  0  0  0  0  0
   18.6296  -28.5577    0.9453 C   0  0  0  0  0  0  0  0  0  0  0  0
   17.6640  -28.3851    1.7230 O   0  0  0  0  0  0  0  0  0  0  0  0
   14.6026  -32.0766   -2.3622 C   0  0  0  0  0  0  0  0  0  0  0  0
   15.9368  -32.7495   -1.3397 S   0  0  0  0  0  0  0  0  0  0  0  0
   16.6614  -31.6257   -0.2053 C   0  0  0  0  0  0  0  0  0  0  0  0
   17.7764  -31.9575    0.6619 C   0  0  0  0  0  0  0  0  0  0  0  0
   18.4710  -31.0098    1.5200 C   0  0  2  0  0  0  0  0  0  0  0  0
   19.0755  -29.9023    0.7775 N   0  0  0  0  0  0  0  0  0  0  0  0
   19.4124  -31.5287    2.5113 C   0  0  0  0  0  0  0  0  0  0  0  0
   20.6376  -31.4044    2.5945 O   0  0  0  0  0  0  0  0  0  0  0  0
   18.8775  -32.3218    3.5902 O   0  0  0  0  0  0  0  0  0  0  0  0
  2  1  1  0
  3  4  1  6
  3  2  1  0
  5  3  1  0
  6  5  2  0
  8  7  1  0
  9  8  1  0
  9 11  1  0
  9 10  1  1
 11 13  1  0
 11 12  1  1
 12  5  1  0
 13 20  1  0
 14 13  2  0
 15 16  1  0
 17 16  1  0
 18 17  1  0
 19 18  1  6
 19 21  1  0
 20 19  1  0
 21 22  2  0
 21 23  1  0
M  END
$$$$
