SIM.pdb
     RDKit          3D

 23 22  0  0  1  0  0  0  0  0999 V2000
   13.0380  -26.7302   -0.3014 O   0  0  0  0  0  0  0  0  0  0  0  0
   14.0752  -26.8370   -1.2041 C   0  0  0  0  0  0  0  0  0  0  0  0
   15.0122  -25.6522   -1.0602 C   0  0  2  0  0  0  0  0  0  0  0  0
   14.5550  -24.5019   -1.7713 N   0  0  0  0  0  0  0  0  0  0  0  0
   16.3588  -26.1087   -1.5029 C   0  0  0  0  0  0  0  0  0  0  0  0
   16.6048  -25.9736   -2.7305 O   0  0  0  0  0  0  0  0  0  0  0  0
   20.7494  -25.5809    1.8153 C   0  0  0  0  0  0  0  0  0  0  0  0
   19.7493  -25.4663    0.6458 C   0  0  0  0  0  0  0  0  0  0  0  0
   19.6262  -26.8688    0.1108 C   0  0  2  0  0  0  0  0  0  0  0  0
   21.0213  -27.2672   -0.3727 C   0  0  0  0  0  0  0  0  0  0  0  0
   18.6420  -26.9976   -1.0156 C   0  0  2  0  0  0  0  0  0  0  0  0
   17.3099  -26.6599   -0.6138 N   0  0  0  0  0  0  0  0  0  0  0  0
   18.6676  -28.2775   -1.7208 C   0  0  0  0  0  0  0  0  0  0  0  0
   18.1023  -29.3021   -1.2761 O   0  0  0  0  0  0  0  0  0  0  0  0
   18.3802  -33.1255   -7.4323 C   0  0  0  0  0  0  0  0  0  0  0  0
   18.2514  -31.9439   -6.0664 S   0  0  0  0  0  0  0  0  0  0  0  0
   19.4567  -30.6704   -6.0511 C   0  0  0  0  0  0  0  0  0  0  0  0
   19.4533  -29.5644   -5.1120 C   0  0  0  0  0  0  0  0  0  0  0  0
   19.4114  -29.7050   -3.6645 C   0  0  2  0  0  0  0  0  0  0  0  0
   19.3480  -28.4195   -2.9665 N   0  0  0  0  0  0  0  0  0  0  0  0
   20.3883  -30.5828   -3.0217 C   0  0  0  0  0  0  0  0  0  0  0  0
   21.4903  -30.3287   -2.5272 O   0  0  0  0  0  0  0  0  0  0  0  0
   20.0638  -31.9841   -2.9217 O   0  0  0  0  0  0  0  0  0  0  0  0
  2  1  1  0
  3  4  1  6
  3  2  1  0
  5  3  1  0
  6  5  2  0
  8  7  1  0
  9  8  1  0
  9 11  1  0
  9 10  1  6
 11 13  1  0
 11 12  1  1
 12  5  1  0
 13 20  1  0
 14 13  2  0
 15 16  1  0
 17 16  1  0
 18 17  1  0
 19 18  1  6
 19 21  1  0
 20 19  1  0
 21 22  2  0
 21 23  1  0
M  END
$$$$
