SIM.pdb
     RDKit          3D

 23 22  0  0  1  0  0  0  0  0999 V2000
   14.2870  -11.1813  -15.8075 O   0  0  0  0  0  0  0  0  0  0  0  0
   15.0019  -10.7363  -14.7153 C   0  0  0  0  0  0  0  0  0  0  0  0
   16.4761  -11.0451  -14.8993 C   0  0  2  0  0  0  0  0  0  0  0  0
   16.7522  -12.4451  -14.8594 N   0  0  0  0  0  0  0  0  0  0  0  0
   17.2126  -10.2801  -13.8554 C   0  0  0  0  0  0  0  0  0  0  0  0
   17.2680  -10.8209  -12.7195 O   0  0  0  0  0  0  0  0  0  0  0  0
   22.0533   -8.1641  -14.5316 C   0  0  0  0  0  0  0  0  0  0  0  0
   20.8042   -8.8967  -13.9986 C   0  0  0  0  0  0  0  0  0  0  0  0
   19.8559   -7.7952  -13.6039 C   0  0  2  0  0  0  0  0  0  0  0  0
   20.5568   -7.0011  -12.5007 C   0  0  0  0  0  0  0  0  0  0  0  0
   18.5298   -8.2938  -13.1070 C   0  0  2  0  0  0  0  0  0  0  0  0
   17.8157   -9.0267  -14.1085 N   0  0  0  0  0  0  0  0  0  0  0  0
   17.6755   -7.2808  -12.4906 C   0  0  0  0  0  0  0  0  0  0  0  0
   17.1297   -6.3683  -13.1514 O   0  0  0  0  0  0  0  0  0  0  0  0
   13.0054   -5.7530   -6.1334 C   0  0  0  0  0  0  0  0  0  0  0  0
   14.1597   -6.8477   -6.9982 S   0  0  0  0  0  0  0  0  0  0  0  0
   14.9449   -6.1589   -8.4067 C   0  0  0  0  0  0  0  0  0  0  0  0
   15.8501   -6.8950   -9.2693 C   0  0  0  0  0  0  0  0  0  0  0  0
   16.4615   -6.3630  -10.4775 C   0  0  2  0  0  0  0  0  0  0  0  0
   17.4211   -7.2856  -11.0870 N   0  0  0  0  0  0  0  0  0  0  0  0
   17.0136   -5.0095  -10.4404 C   0  0  0  0  0  0  0  0  0  0  0  0
   18.1738   -4.6218  -10.2754 O   0  0  0  0  0  0  0  0  0  0  0  0
   16.0990   -3.9094  -10.6202 O   0  0  0  0  0  0  0  0  0  0  0  0
  2  1  1  0
  3  4  1  1
  3  2  1  0
  5  3  1  0
  6  5  2  0
  8  7  1  0
  9  8  1  0
  9 11  1  0
  9 10  1  1
 11 13  1  0
 11 12  1  6
 12  5  1  0
 13 20  1  0
 14 13  2  0
 15 16  1  0
 17 16  1  0
 18 17  1  0
 19 18  1  1
 19 21  1  0
 20 19  1  0
 21 22  2  0
 21 23  1  0
M  END
$$$$
