SIM.pdb
     RDKit          3D

 23 22  0  0  1  0  0  0  0  0999 V2000
   16.1241  -10.3188  -17.9508 O   0  0  0  0  0  0  0  0  0  0  0  0
   16.8870   -9.7740  -16.9391 C   0  0  0  0  0  0  0  0  0  0  0  0
   17.5817  -10.8767  -16.1620 C   0  0  2  0  0  0  0  0  0  0  0  0
   16.6967  -11.5674  -15.2803 N   0  0  0  0  0  0  0  0  0  0  0  0
   18.7312  -10.2491  -15.4533 C   0  0  0  0  0  0  0  0  0  0  0  0
   18.5363   -9.9643  -14.2422 O   0  0  0  0  0  0  0  0  0  0  0  0
   24.5004  -11.1021  -14.7923 C   0  0  0  0  0  0  0  0  0  0  0  0
   23.4864   -9.9431  -14.6941 C   0  0  0  0  0  0  0  0  0  0  0  0
   22.2668  -10.4408  -15.4244 C   0  0  2  0  0  0  0  0  0  0  0  0
   22.6973  -10.6649  -16.8746 C   0  0  0  0  0  0  0  0  0  0  0  0
   21.1088   -9.4864  -15.3796 C   0  0  2  0  0  0  0  0  0  0  0  0
   19.9674   -9.9842  -16.0862 N   0  0  0  0  0  0  0  0  0  0  0  0
   21.4167   -8.1155  -15.7819 C   0  0  0  0  0  0  0  0  0  0  0  0
   21.6860   -7.8057  -16.9646 O   0  0  0  0  0  0  0  0  0  0  0  0
   18.9654   -1.1680  -17.2242 C   0  0  0  0  0  0  0  0  0  0  0  0
   18.8221   -2.8926  -16.6916 S   0  0  0  0  0  0  0  0  0  0  0  0
   20.3130   -3.6467  -16.1591 C   0  0  0  0  0  0  0  0  0  0  0  0
   20.4118   -5.0288  -15.7286 C   0  0  0  0  0  0  0  0  0  0  0  0
   21.6271   -5.6602  -15.2376 C   0  0  2  0  0  0  0  0  0  0  0  0
   21.4246   -7.0521  -14.8311 N   0  0  0  0  0  0  0  0  0  0  0  0
   22.4248   -4.9514  -14.2378 C   0  0  0  0  0  0  0  0  0  0  0  0
   22.6586   -5.2267  -13.0576 O   0  0  0  0  0  0  0  0  0  0  0  0
   23.0659   -3.7246  -14.6415 O   0  0  0  0  0  0  0  0  0  0  0  0
  2  1  1  0
  3  4  1  1
  3  2  1  0
  5  3  1  0
  6  5  2  0
  8  7  1  0
  9  8  1  0
  9 11  1  0
  9 10  1  6
 11 13  1  0
 11 12  1  6
 12  5  1  0
 13 20  1  0
 14 13  2  0
 15 16  1  0
 17 16  1  0
 18 17  1  0
 19 18  1  1
 19 21  1  0
 20 19  1  0
 21 22  2  0
 21 23  1  0
M  END
$$$$
