PIR.pdb
     RDKit          3D

 27 27  0  0  1  0  0  0  0  0999 V2000
   23.8052  -13.2748  -20.6458 N   0  0  0  0  0  0  0  0  0  0  0  0
   22.7057  -12.5014  -21.1364 C   0  0  0  0  0  0  0  0  0  0  0  0
   22.0892  -11.8300  -19.9413 C   0  0  0  0  0  0  0  0  0  0  0  0
   22.3265  -12.8639  -18.8457 C   0  0  0  0  0  0  0  0  0  0  0  0
   23.7113  -13.3438  -19.2210 C   0  0  1  0  0  0  0  0  0  0  0  0
   23.9756  -14.7086  -18.6828 C   0  0  0  0  0  0  0  0  0  0  0  0
   23.7216  -15.7535  -19.3162 O   0  0  0  0  0  0  0  0  0  0  0  0
   27.7196  -14.4417  -16.8902 C   0  0  0  0  0  0  0  0  0  0  0  0
   27.3344  -15.8530  -16.5561 C   0  0  0  0  0  0  0  0  0  0  0  0
   26.0277  -15.9292  -15.7973 C   0  0  2  0  0  0  0  0  0  0  0  0
   26.1377  -17.1616  -14.8944 C   0  0  0  0  0  0  0  0  0  0  0  0
   24.8722  -16.0779  -16.7593 C   0  0  2  0  0  0  0  0  0  0  0  0
   24.5443  -14.8364  -17.3853 N   0  0  0  0  0  0  0  0  0  0  0  0
   23.6543  -16.5887  -16.0869 C   0  0  0  0  0  0  0  0  0  0  0  0
   23.1316  -15.8866  -15.1869 O   0  0  0  0  0  0  0  0  0  0  0  0
   16.1930  -19.3132  -18.9442 N   0  0  0  0  0  0  0  0  0  0  0  0
   16.8159  -18.0905  -18.5554 C   0  0  0  0  0  0  0  0  0  0  0  0
   16.4299  -16.9999  -19.1001 N   0  0  0  0  0  0  0  0  0  0  0  0
   17.8435  -18.0554  -17.5877 N   0  0  0  0  0  0  0  0  0  0  0  0
   18.2969  -19.2635  -16.8761 C   0  0  0  0  0  0  0  0  0  0  0  0
   19.4191  -18.9211  -15.9609 C   0  0  0  0  0  0  0  0  0  0  0  0
   20.7070  -18.5476  -16.5770 C   0  0  0  0  0  0  0  0  0  0  0  0
   21.8572  -18.2630  -15.6806 C   0  0  2  0  0  0  0  0  0  0  0  0
   23.0409  -17.8279  -16.4001 N   0  0  0  0  0  0  0  0  0  0  0  0
   22.1825  -19.3305  -14.7087 C   0  0  0  0  0  0  0  0  0  0  0  0
   21.4626  -19.4427  -13.5124 O   0  0  0  0  0  0  0  0  0  0  0  0
   23.0953  -20.1730  -14.8952 O   0  0  0  0  0  0  0  0  0  0  0  0
  1  5  1  0
  2  3  1  0
  2  1  1  0
  3  4  1  0
  5  4  1  0
  5  6  1  6
  6 13  1  0
  6  7  2  0
  9 10  1  0
  9  8  1  0
 10 12  1  0
 10 11  1  1
 12 14  1  0
 12 13  1  1
 14 15  2  0
 14 24  1  0
 16 17  1  0
 17 19  1  0
 18 17  2  0
 19 20  1  0
 21 20  1  0
 22 21  1  0
 23 25  1  0
 23 22  1  6
 24 23  1  0
 25 26  1  0
 27 25  2  0
M  END
$$$$
