PIR.pdb
     RDKit          3D

 27 27  0  0  1  0  0  0  0  0999 V2000
   27.9339  -21.9672  -17.8366 N   0  0  0  0  0  0  0  0  0  0  0  0
   29.2241  -22.1427  -18.4304 C   0  0  0  0  0  0  0  0  0  0  0  0
   30.0137  -23.0072  -17.4877 C   0  0  0  0  0  0  0  0  0  0  0  0
   29.4560  -22.5822  -16.1335 C   0  0  0  0  0  0  0  0  0  0  0  0
   27.9928  -22.4191  -16.4817 C   0  0  1  0  0  0  0  0  0  0  0  0
   27.3087  -21.4999  -15.5282 C   0  0  0  0  0  0  0  0  0  0  0  0
   27.2826  -21.6907  -14.2952 O   0  0  0  0  0  0  0  0  0  0  0  0
   26.4431  -15.5668  -14.8414 C   0  0  0  0  0  0  0  0  0  0  0  0
   25.8563  -16.9380  -14.6759 C   0  0  0  0  0  0  0  0  0  0  0  0
   26.5429  -17.9673  -15.5467 C   0  0  2  0  0  0  0  0  0  0  0  0
   26.2166  -17.5795  -16.9920 C   0  0  0  0  0  0  0  0  0  0  0  0
   26.0168  -19.3493  -15.2367 C   0  0  2  0  0  0  0  0  0  0  0  0
   26.6507  -20.3468  -16.0391 N   0  0  0  0  0  0  0  0  0  0  0  0
   24.5541  -19.4464  -15.4541 C   0  0  0  0  0  0  0  0  0  0  0  0
   24.1261  -19.4497  -16.6343 O   0  0  0  0  0  0  0  0  0  0  0  0
   18.5777  -24.4378  -14.2487 N   0  0  0  0  0  0  0  0  0  0  0  0
   19.7897  -24.5222  -13.5018 C   0  0  0  0  0  0  0  0  0  0  0  0
   20.4231  -25.6327  -13.4753 N   0  0  0  0  0  0  0  0  0  0  0  0
   20.3050  -23.4141  -12.7944 N   0  0  0  0  0  0  0  0  0  0  0  0
   19.6455  -22.0964  -12.8060 C   0  0  0  0  0  0  0  0  0  0  0  0
   20.2405  -21.2416  -13.8688 C   0  0  0  0  0  0  0  0  0  0  0  0
   21.6411  -20.8128  -13.6896 C   0  0  0  0  0  0  0  0  0  0  0  0
   22.2248  -19.8851  -14.6927 C   0  0  2  0  0  0  0  0  0  0  0  0
   23.6046  -19.5364  -14.4051 N   0  0  0  0  0  0  0  0  0  0  0  0
   21.4174  -18.6804  -14.9868 C   0  0  0  0  0  0  0  0  0  0  0  0
   21.7084  -17.4621  -14.3598 O   0  0  0  0  0  0  0  0  0  0  0  0
   20.4535  -18.6804  -15.7923 O   0  0  0  0  0  0  0  0  0  0  0  0
  1  5  1  0
  2  3  1  0
  2  1  1  0
  3  4  1  0
  5  4  1  0
  5  6  1  1
  6 13  1  0
  6  7  2  0
  9 10  1  0
  9  8  1  0
 10 12  1  0
 10 11  1  6
 12 14  1  0
 12 13  1  6
 14 15  2  0
 14 24  1  0
 16 17  1  0
 17 19  1  0
 18 17  2  0
 19 20  1  0
 21 20  1  0
 22 21  1  0
 23 25  1  0
 23 22  1  1
 24 23  1  0
 25 26  1  0
 27 25  2  0
M  END
$$$$
