PIR.pdb
     RDKit          3D

 27 27  0  0  1  0  0  0  0  0999 V2000
   27.4590  -19.4380  -14.9229 N   0  0  0  0  0  0  0  0  0  0  0  0
   28.8508  -19.1083  -14.9688 C   0  0  0  0  0  0  0  0  0  0  0  0
   29.5655  -20.3398  -15.4503 C   0  0  0  0  0  0  0  0  0  0  0  0
   28.6997  -21.4512  -14.8666 C   0  0  0  0  0  0  0  0  0  0  0  0
   27.3235  -20.8542  -15.0624 C   0  0  1  0  0  0  0  0  0  0  0  0
   26.3375  -21.4438  -14.1124 C   0  0  0  0  0  0  0  0  0  0  0  0
   26.0650  -22.6612  -14.0791 O   0  0  0  0  0  0  0  0  0  0  0  0
   26.6747  -20.3630   -8.9808 C   0  0  0  0  0  0  0  0  0  0  0  0
   26.3029  -20.9837  -10.2954 C   0  0  0  0  0  0  0  0  0  0  0  0
   25.0189  -20.4148  -10.8584 C   0  0  2  0  0  0  0  0  0  0  0  0
   23.9207  -20.7862   -9.8573 C   0  0  0  0  0  0  0  0  0  0  0  0
   24.7286  -21.0189  -12.2124 C   0  0  2  0  0  0  0  0  0  0  0  0
   25.6696  -20.5852  -13.1958 N   0  0  0  0  0  0  0  0  0  0  0  0
   23.3701  -20.6732  -12.6931 C   0  0  0  0  0  0  0  0  0  0  0  0
   23.0921  -19.4623  -12.8736 O   0  0  0  0  0  0  0  0  0  0  0  0
   16.4932  -21.3653  -16.7452 N   0  0  0  0  0  0  0  0  0  0  0  0
   17.4597  -22.3035  -17.2140 C   0  0  0  0  0  0  0  0  0  0  0  0
   17.6331  -22.4346  -18.4740 N   0  0  0  0  0  0  0  0  0  0  0  0
   18.2266  -23.0871  -16.3243 N   0  0  0  0  0  0  0  0  0  0  0  0
   17.9954  -23.0803  -14.8689 C   0  0  0  0  0  0  0  0  0  0  0  0
   18.7889  -21.9928  -14.2351 C   0  0  0  0  0  0  0  0  0  0  0  0
   20.2012  -22.2802  -13.9178 C   0  0  0  0  0  0  0  0  0  0  0  0
   21.0128  -21.2044  -13.2922 C   0  0  2  0  0  0  0  0  0  0  0  0
   22.3607  -21.6316  -12.9629 N   0  0  0  0  0  0  0  0  0  0  0  0
   20.3753  -20.5128  -12.1497 C   0  0  0  0  0  0  0  0  0  0  0  0
   19.6380  -19.3395  -12.3538 O   0  0  0  0  0  0  0  0  0  0  0  0
   20.4554  -20.9262  -10.9662 O   0  0  0  0  0  0  0  0  0  0  0  0
  1  5  1  0
  2  3  1  0
  2  1  1  0
  3  4  1  0
  5  4  1  0
  5  6  1  1
  6 13  1  0
  6  7  2  0
  9 10  1  0
  9  8  1  0
 10 12  1  0
 10 11  1  1
 12 14  1  0
 12 13  1  6
 14 15  2  0
 14 24  1  0
 16 17  1  0
 17 19  1  0
 18 17  2  0
 19 20  1  0
 21 20  1  0
 22 21  1  0
 23 25  1  0
 23 22  1  1
 24 23  1  0
 25 26  1  0
 27 25  2  0
M  END
$$$$
