PIR.pdb
     RDKit          3D

 27 27  0  0  1  0  0  0  0  0999 V2000
   31.0400  -21.1417  -10.4296 N   0  0  0  0  0  0  0  0  0  0  0  0
   32.2862  -21.7161  -10.0235 C   0  0  0  0  0  0  0  0  0  0  0  0
   32.2594  -23.1518  -10.4679 C   0  0  0  0  0  0  0  0  0  0  0  0
   30.7783  -23.4909  -10.3380 C   0  0  0  0  0  0  0  0  0  0  0  0
   30.1604  -22.1978  -10.8226 C   0  0  1  0  0  0  0  0  0  0  0  0
   28.7748  -22.0304  -10.2989 C   0  0  0  0  0  0  0  0  0  0  0  0
   27.8913  -22.9044  -10.4127 O   0  0  0  0  0  0  0  0  0  0  0  0
   28.4338  -19.2127   -5.7288 C   0  0  0  0  0  0  0  0  0  0  0  0
   28.1607  -20.1769   -6.8457 C   0  0  0  0  0  0  0  0  0  0  0  0
   27.2490  -19.5916   -7.9019 C   0  0  2  0  0  0  0  0  0  0  0  0
   25.8823  -19.4243   -7.2308 C   0  0  0  0  0  0  0  0  0  0  0  0
   27.1486  -20.5280   -9.0833 C   0  0  2  0  0  0  0  0  0  0  0  0
   28.4334  -20.8190   -9.6358 N   0  0  0  0  0  0  0  0  0  0  0  0
   26.3008  -19.9688  -10.1625 C   0  0  0  0  0  0  0  0  0  0  0  0
   26.8268  -19.1795  -10.9850 O   0  0  0  0  0  0  0  0  0  0  0  0
   26.4297  -24.5801  -16.4709 N   0  0  0  0  0  0  0  0  0  0  0  0
   25.6653  -24.8469  -15.2968 C   0  0  0  0  0  0  0  0  0  0  0  0
   25.4597  -26.0621  -14.9562 N   0  0  0  0  0  0  0  0  0  0  0  0
   25.1327  -23.8063  -14.5048 N   0  0  0  0  0  0  0  0  0  0  0  0
   25.3695  -22.3842  -14.8099 C   0  0  0  0  0  0  0  0  0  0  0  0
   24.5595  -21.5293  -13.9004 C   0  0  0  0  0  0  0  0  0  0  0  0
   25.0757  -21.3122  -12.5350 C   0  0  0  0  0  0  0  0  0  0  0  0
   24.3453  -20.3678  -11.6507 C   0  0  2  0  0  0  0  0  0  0  0  0
   24.9253  -20.2726  -10.3231 N   0  0  0  0  0  0  0  0  0  0  0  0
   22.8805  -20.5672  -11.5829 C   0  0  0  0  0  0  0  0  0  0  0  0
   22.2802  -21.0115  -10.3979 O   0  0  0  0  0  0  0  0  0  0  0  0
   22.1136  -20.3553  -12.5550 O   0  0  0  0  0  0  0  0  0  0  0  0
  1  5  1  0
  2  3  1  0
  2  1  1  0
  3  4  1  0
  5  4  1  0
  5  6  1  1
  6 13  1  0
  6  7  2  0
  9 10  1  0
  9  8  1  0
 10 12  1  0
 10 11  1  1
 12 14  1  0
 12 13  1  6
 14 15  2  0
 14 24  1  0
 16 17  1  0
 17 19  1  0
 18 17  2  0
 19 20  1  0
 21 20  1  0
 22 21  1  0
 23 25  1  0
 23 22  1  1
 24 23  1  0
 25 26  1  0
 27 25  2  0
M  END
$$$$
