PIR.pdb
     RDKit          3D

 27 27  0  0  1  0  0  0  0  0999 V2000
   28.7586  -20.4163  -15.3449 N   0  0  0  0  0  0  0  0  0  0  0  0
   28.8555  -19.6329  -16.5385 C   0  0  0  0  0  0  0  0  0  0  0  0
   28.3970  -18.2475  -16.1781 C   0  0  0  0  0  0  0  0  0  0  0  0
   27.3439  -18.5347  -15.1132 C   0  0  0  0  0  0  0  0  0  0  0  0
   28.0062  -19.6792  -14.3783 C   0  0  1  0  0  0  0  0  0  0  0  0
   27.0023  -20.5135  -13.6585 C   0  0  0  0  0  0  0  0  0  0  0  0
   26.5902  -21.6098  -14.0895 O   0  0  0  0  0  0  0  0  0  0  0  0
   26.7754  -19.9314   -8.1544 C   0  0  0  0  0  0  0  0  0  0  0  0
   26.6742  -20.5921   -9.4980 C   0  0  0  0  0  0  0  0  0  0  0  0
   25.4152  -20.1995  -10.2396 C   0  0  2  0  0  0  0  0  0  0  0  0
   24.2582  -20.8535   -9.4782 C   0  0  0  0  0  0  0  0  0  0  0  0
   25.4669  -20.7054  -11.6622 C   0  0  2  0  0  0  0  0  0  0  0  0
   26.4829  -20.0458  -12.4195 N   0  0  0  0  0  0  0  0  0  0  0  0
   24.1756  -20.5164  -12.3643 C   0  0  0  0  0  0  0  0  0  0  0  0
   23.7980  -19.3451  -12.6123 O   0  0  0  0  0  0  0  0  0  0  0  0
   22.4292  -26.9684  -17.3331 N   0  0  0  0  0  0  0  0  0  0  0  0
   23.5180  -26.6087  -16.4850 C   0  0  0  0  0  0  0  0  0  0  0  0
   24.6233  -27.2418  -16.5965 N   0  0  0  0  0  0  0  0  0  0  0  0
   23.4055  -25.5749  -15.5299 N   0  0  0  0  0  0  0  0  0  0  0  0
   22.1598  -24.8112  -15.3389 C   0  0  0  0  0  0  0  0  0  0  0  0
   22.3596  -23.7685  -14.2963 C   0  0  0  0  0  0  0  0  0  0  0  0
   21.9584  -22.3885  -14.6315 C   0  0  0  0  0  0  0  0  0  0  0  0
   22.1824  -21.3266  -13.6168 C   0  0  2  0  0  0  0  0  0  0  0  0
   23.3369  -21.5834  -12.7748 N   0  0  0  0  0  0  0  0  0  0  0  0
   20.9980  -20.9642  -12.8069 C   0  0  0  0  0  0  0  0  0  0  0  0
   19.9387  -20.2500  -13.3813 O   0  0  0  0  0  0  0  0  0  0  0  0
   20.8774  -21.2676  -11.5940 O   0  0  0  0  0  0  0  0  0  0  0  0
  1  5  1  0
  2  3  1  0
  2  1  1  0
  3  4  1  0
  5  4  1  0
  5  6  1  6
  6 13  1  0
  6  7  2  0
  9 10  1  0
  9  8  1  0
 10 12  1  0
 10 11  1  1
 12 14  1  0
 12 13  1  6
 14 15  2  0
 14 24  1  0
 16 17  1  0
 17 19  1  0
 18 17  2  0
 19 20  1  0
 21 20  1  0
 22 21  1  0
 23 25  1  0
 23 22  1  1
 24 23  1  0
 25 26  1  0
 27 25  2  0
M  END
$$$$
