PIR.pdb
     RDKit          3D

 27 27  0  0  1  0  0  0  0  0999 V2000
   28.7634  -21.6069  -14.3380 N   0  0  0  0  0  0  0  0  0  0  0  0
   28.7192  -21.0476  -15.6545 C   0  0  0  0  0  0  0  0  0  0  0  0
   28.4962  -19.5710  -15.4835 C   0  0  0  0  0  0  0  0  0  0  0  0
   27.6392  -19.5288  -14.2229 C   0  0  0  0  0  0  0  0  0  0  0  0
   28.2962  -20.6237  -13.4114 C   0  0  1  0  0  0  0  0  0  0  0  0
   27.3601  -21.1784  -12.3926 C   0  0  0  0  0  0  0  0  0  0  0  0
   26.5768  -22.1214  -12.6263 O   0  0  0  0  0  0  0  0  0  0  0  0
   28.4189  -19.9998   -7.0725 C   0  0  0  0  0  0  0  0  0  0  0  0
   27.9017  -20.7323   -8.2757 C   0  0  0  0  0  0  0  0  0  0  0  0
   26.6277  -20.1223   -8.8179 C   0  0  2  0  0  0  0  0  0  0  0  0
   25.5412  -20.4305   -7.7832 C   0  0  0  0  0  0  0  0  0  0  0  0
   26.2793  -20.7388  -10.1525 C   0  0  2  0  0  0  0  0  0  0  0  0
   27.3516  -20.6117  -11.0878 N   0  0  0  0  0  0  0  0  0  0  0  0
   25.0729  -20.1197  -10.7503 C   0  0  0  0  0  0  0  0  0  0  0  0
   25.2265  -19.1517  -11.5348 O   0  0  0  0  0  0  0  0  0  0  0  0
   20.0271  -23.6731  -15.5315 N   0  0  0  0  0  0  0  0  0  0  0  0
   20.3962  -22.4211  -16.1061 C   0  0  0  0  0  0  0  0  0  0  0  0
   19.5913  -21.8545  -16.9223 N   0  0  0  0  0  0  0  0  0  0  0  0
   21.6232  -21.7947  -15.7965 N   0  0  0  0  0  0  0  0  0  0  0  0
   22.5502  -22.3344  -14.7861 C   0  0  0  0  0  0  0  0  0  0  0  0
   22.1722  -21.8379  -13.4353 C   0  0  0  0  0  0  0  0  0  0  0  0
   23.0438  -20.8191  -12.8187 C   0  0  0  0  0  0  0  0  0  0  0  0
   22.6959  -20.3270  -11.4607 C   0  0  2  0  0  0  0  0  0  0  0  0
   23.7497  -20.5565  -10.4887 N   0  0  0  0  0  0  0  0  0  0  0  0
   21.3827  -20.7713  -10.9429 C   0  0  0  0  0  0  0  0  0  0  0  0
   21.3010  -21.4947   -9.7463 O   0  0  0  0  0  0  0  0  0  0  0  0
   20.2976  -20.5318  -11.5288 O   0  0  0  0  0  0  0  0  0  0  0  0
  1  5  1  0
  2  3  1  0
  2  1  1  0
  3  4  1  0
  5  4  1  0
  5  6  1  1
  6 13  1  0
  6  7  2  0
  9 10  1  0
  9  8  1  0
 10 12  1  0
 10 11  1  1
 12 14  1  0
 12 13  1  6
 14 15  2  0
 14 24  1  0
 16 17  1  0
 17 19  1  0
 18 17  2  0
 19 20  1  0
 21 20  1  0
 22 21  1  0
 23 25  1  0
 23 22  1  6
 24 23  1  0
 25 26  1  0
 27 25  2  0
M  END
$$$$
