PIR.pdb
     RDKit          3D

 27 27  0  0  1  0  0  0  0  0999 V2000
   28.0156  -18.4234  -15.7900 N   0  0  0  0  0  0  0  0  0  0  0  0
   29.1935  -18.1612  -16.5592 C   0  0  0  0  0  0  0  0  0  0  0  0
   29.1100  -19.0354  -17.7791 C   0  0  0  0  0  0  0  0  0  0  0  0
   28.3801  -20.2594  -17.2364 C   0  0  0  0  0  0  0  0  0  0  0  0
   27.3831  -19.5937  -16.3135 C   0  0  1  0  0  0  0  0  0  0  0  0
   26.9180  -20.5315  -15.2522 C   0  0  0  0  0  0  0  0  0  0  0  0
   26.3908  -21.6353  -15.4993 O   0  0  0  0  0  0  0  0  0  0  0  0
   29.6938  -20.8861  -10.6867 C   0  0  0  0  0  0  0  0  0  0  0  0
   28.7374  -21.2516  -11.7838 C   0  0  0  0  0  0  0  0  0  0  0  0
   27.3444  -20.7155  -11.5360 C   0  0  2  0  0  0  0  0  0  0  0  0
   26.7652  -21.5616  -10.3982 C   0  0  0  0  0  0  0  0  0  0  0  0
   26.5014  -20.8541  -12.7821 C   0  0  2  0  0  0  0  0  0  0  0  0
   27.0782  -20.1589  -13.8887 N   0  0  0  0  0  0  0  0  0  0  0  0
   25.1272  -20.3370  -12.5811 C   0  0  0  0  0  0  0  0  0  0  0  0
   24.9859  -19.1368  -12.2410 O   0  0  0  0  0  0  0  0  0  0  0  0
   19.3359  -24.8776  -13.7009 N   0  0  0  0  0  0  0  0  0  0  0  0
   18.8588  -24.1416  -14.8255 C   0  0  0  0  0  0  0  0  0  0  0  0
   17.6683  -24.3524  -15.2419 N   0  0  0  0  0  0  0  0  0  0  0  0
   19.6655  -23.1900  -15.4870 N   0  0  0  0  0  0  0  0  0  0  0  0
   21.0122  -22.8306  -15.0088 C   0  0  0  0  0  0  0  0  0  0  0  0
   20.9073  -21.9149  -13.8406 C   0  0  0  0  0  0  0  0  0  0  0  0
   21.7904  -20.7327  -13.8241 C   0  0  0  0  0  0  0  0  0  0  0  0
   22.6442  -20.5113  -12.6284 C   0  0  2  0  0  0  0  0  0  0  0  0
   23.9570  -21.1193  -12.7505 N   0  0  0  0  0  0  0  0  0  0  0  0
   22.0165  -20.8463  -11.3308 C   0  0  0  0  0  0  0  0  0  0  0  0
   20.8400  -20.2030  -10.9260 O   0  0  0  0  0  0  0  0  0  0  0  0
   22.4881  -21.7020  -10.5413 O   0  0  0  0  0  0  0  0  0  0  0  0
  1  5  1  0
  2  3  1  0
  2  1  1  0
  3  4  1  0
  5  4  1  0
  5  6  1  1
  6 13  1  0
  6  7  2  0
  9 10  1  0
  9  8  1  0
 10 12  1  0
 10 11  1  1
 12 14  1  0
 12 13  1  6
 14 15  2  0
 14 24  1  0
 16 17  1  0
 17 19  1  0
 18 17  2  0
 19 20  1  0
 21 20  1  0
 22 21  1  0
 23 25  1  0
 23 22  1  6
 24 23  1  0
 25 26  1  0
 27 25  2  0
M  END
$$$$
