PIR.pdb
     RDKit          3D

 27 27  0  0  1  0  0  0  0  0999 V2000
   27.1099  -18.1993  -14.3887 N   0  0  0  0  0  0  0  0  0  0  0  0
   28.2323  -17.3115  -14.3803 C   0  0  0  0  0  0  0  0  0  0  0  0
   29.3639  -18.0478  -15.0411 C   0  0  0  0  0  0  0  0  0  0  0  0
   29.0772  -19.4895  -14.6350 C   0  0  0  0  0  0  0  0  0  0  0  0
   27.5682  -19.5065  -14.7417 C   0  0  1  0  0  0  0  0  0  0  0  0
   26.9778  -20.5818  -13.8947 C   0  0  0  0  0  0  0  0  0  0  0  0
   27.2247  -21.7940  -14.0594 O   0  0  0  0  0  0  0  0  0  0  0  0
   26.8376  -20.1620   -8.6940 C   0  0  0  0  0  0  0  0  0  0  0  0
   26.7103  -20.8749  -10.0083 C   0  0  0  0  0  0  0  0  0  0  0  0
   25.3229  -20.7506  -10.5991 C   0  0  2  0  0  0  0  0  0  0  0  0
   24.4366  -21.7056   -9.7937 C   0  0  0  0  0  0  0  0  0  0  0  0
   25.3383  -21.1443  -12.0576 C   0  0  2  0  0  0  0  0  0  0  0  0
   26.0885  -20.2185  -12.8456 N   0  0  0  0  0  0  0  0  0  0  0  0
   23.9711  -21.2263  -12.6234 C   0  0  0  0  0  0  0  0  0  0  0  0
   23.2917  -20.1730  -12.6949 O   0  0  0  0  0  0  0  0  0  0  0  0
   22.1849  -26.7134  -17.6804 N   0  0  0  0  0  0  0  0  0  0  0  0
   21.8460  -26.9936  -16.3237 C   0  0  0  0  0  0  0  0  0  0  0  0
   22.2332  -28.0964  -15.8052 N   0  0  0  0  0  0  0  0  0  0  0  0
   21.0970  -26.0865  -15.5427 N   0  0  0  0  0  0  0  0  0  0  0  0
   20.3621  -24.9558  -16.1367 C   0  0  0  0  0  0  0  0  0  0  0  0
   20.5868  -23.7258  -15.3300 C   0  0  0  0  0  0  0  0  0  0  0  0
   21.8762  -23.6048  -14.6225 C   0  0  0  0  0  0  0  0  0  0  0  0
   22.1088  -22.3967  -13.7895 C   0  0  2  0  0  0  0  0  0  0  0  0
   23.3812  -22.4278  -13.0910 N   0  0  0  0  0  0  0  0  0  0  0  0
   21.0033  -22.0356  -12.8744 C   0  0  0  0  0  0  0  0  0  0  0  0
   19.9106  -21.2941  -13.3416 O   0  0  0  0  0  0  0  0  0  0  0  0
   20.9812  -22.3639  -11.6621 O   0  0  0  0  0  0  0  0  0  0  0  0
  1  5  1  0
  2  3  1  0
  2  1  1  0
  3  4  1  0
  5  4  1  0
  5  6  1  1
  6 13  1  0
  6  7  2  0
  9 10  1  0
  9  8  1  0
 10 12  1  0
 10 11  1  1
 12 14  1  0
 12 13  1  6
 14 15  2  0
 14 24  1  0
 16 17  1  0
 17 19  1  0
 18 17  2  0
 19 20  1  0
 21 20  1  0
 22 21  1  0
 23 25  1  0
 23 22  1  1
 24 23  1  0
 25 26  1  0
 27 25  2  0
M  END
$$$$
