PIR.pdb
     RDKit          3D

 27 27  0  0  1  0  0  0  0  0999 V2000
   27.0735  -18.5256  -15.2663 N   0  0  0  0  0  0  0  0  0  0  0  0
   28.2908  -17.8005  -15.4669 C   0  0  0  0  0  0  0  0  0  0  0  0
   29.3183  -18.8050  -15.9079 C   0  0  0  0  0  0  0  0  0  0  0  0
   28.8742  -20.0557  -15.1569 C   0  0  0  0  0  0  0  0  0  0  0  0
   27.3717  -19.9237  -15.2746 C   0  0  1  0  0  0  0  0  0  0  0  0
   26.6758  -20.6766  -14.1925 C   0  0  0  0  0  0  0  0  0  0  0  0
   26.7792  -21.9115  -14.0443 O   0  0  0  0  0  0  0  0  0  0  0  0
   27.0152  -21.2901   -9.8232 C   0  0  0  0  0  0  0  0  0  0  0  0
   26.6753  -20.0153  -10.5381 C   0  0  0  0  0  0  0  0  0  0  0  0
   25.2161  -19.9473  -10.9321 C   0  0  2  0  0  0  0  0  0  0  0  0
   24.4553  -20.7374   -9.8629 C   0  0  0  0  0  0  0  0  0  0  0  0
   25.0128  -20.5675  -12.2947 C   0  0  2  0  0  0  0  0  0  0  0  0
   25.8514  -19.9617  -13.2799 N   0  0  0  0  0  0  0  0  0  0  0  0
   23.6082  -20.4499  -12.7525 C   0  0  0  0  0  0  0  0  0  0  0  0
   23.3172  -19.5262  -13.5513 O   0  0  0  0  0  0  0  0  0  0  0  0
   24.3447  -27.0500  -16.3117 N   0  0  0  0  0  0  0  0  0  0  0  0
   23.5373  -26.2260  -17.1502 C   0  0  0  0  0  0  0  0  0  0  0  0
   23.2204  -26.6511  -18.3138 N   0  0  0  0  0  0  0  0  0  0  0  0
   23.0812  -24.9580  -16.7283 N   0  0  0  0  0  0  0  0  0  0  0  0
   22.0297  -24.7985  -15.7083 C   0  0  0  0  0  0  0  0  0  0  0  0
   21.7764  -23.3528  -15.4637 C   0  0  0  0  0  0  0  0  0  0  0  0
   22.5109  -22.7136  -14.3548 C   0  0  0  0  0  0  0  0  0  0  0  0
   21.7293  -21.9789  -13.3268 C   0  0  2  0  0  0  0  0  0  0  0  0
   22.5685  -21.3216  -12.3410 N   0  0  0  0  0  0  0  0  0  0  0  0
   20.6480  -22.7543  -12.6790 C   0  0  0  0  0  0  0  0  0  0  0  0
   19.3060  -22.4202  -12.9010 O   0  0  0  0  0  0  0  0  0  0  0  0
   20.8647  -23.7284  -11.9160 O   0  0  0  0  0  0  0  0  0  0  0  0
  1  5  1  0
  2  3  1  0
  2  1  1  0
  3  4  1  0
  5  4  1  0
  5  6  1  1
  6 13  1  0
  6  7  2  0
  9 10  1  0
  9  8  1  0
 10 12  1  0
 10 11  1  1
 12 14  1  0
 12 13  1  6
 14 15  2  0
 14 24  1  0
 16 17  1  0
 17 19  1  0
 18 17  2  0
 19 20  1  0
 21 20  1  0
 22 21  1  0
 23 25  1  0
 23 22  1  1
 24 23  1  0
 25 26  1  0
 27 25  2  0
M  END
$$$$
