PIR.pdb
     RDKit          3D

 27 27  0  0  1  0  0  0  0  0999 V2000
   22.3818  -22.9242   -6.6361 N   0  0  0  0  0  0  0  0  0  0  0  0
   21.4807  -23.2395   -5.5700 C   0  0  0  0  0  0  0  0  0  0  0  0
   20.1777  -22.5666   -5.8995 C   0  0  0  0  0  0  0  0  0  0  0  0
   20.6495  -21.3134   -6.6292 C   0  0  0  0  0  0  0  0  0  0  0  0
   21.8042  -21.8813   -7.4249 C   0  0  1  0  0  0  0  0  0  0  0  0
   22.7814  -20.8182   -7.7948 C   0  0  0  0  0  0  0  0  0  0  0  0
   22.4505  -19.7475   -8.3441 O   0  0  0  0  0  0  0  0  0  0  0  0
   27.2930  -20.2083   -4.6761 C   0  0  0  0  0  0  0  0  0  0  0  0
   26.1339  -19.9467   -5.5924 C   0  0  0  0  0  0  0  0  0  0  0  0
   26.4373  -20.3217   -7.0265 C   0  0  2  0  0  0  0  0  0  0  0  0
   27.5606  -19.3831   -7.4772 C   0  0  0  0  0  0  0  0  0  0  0  0
   25.2103  -20.1320   -7.8875 C   0  0  2  0  0  0  0  0  0  0  0  0
   24.1601  -21.0249   -7.5124 N   0  0  0  0  0  0  0  0  0  0  0  0
   25.5037  -20.3462   -9.3242 C   0  0  0  0  0  0  0  0  0  0  0  0
   26.0156  -21.4387   -9.6715 O   0  0  0  0  0  0  0  0  0  0  0  0
   28.0123  -22.4555  -15.8887 N   0  0  0  0  0  0  0  0  0  0  0  0
   28.7790  -21.2553  -15.9650 C   0  0  0  0  0  0  0  0  0  0  0  0
   29.1051  -20.8026  -17.1155 N   0  0  0  0  0  0  0  0  0  0  0  0
   29.1843  -20.5579  -14.8061 N   0  0  0  0  0  0  0  0  0  0  0  0
   28.7815  -20.9786  -13.4524 C   0  0  0  0  0  0  0  0  0  0  0  0
   27.3408  -20.6759  -13.2357 C   0  0  0  0  0  0  0  0  0  0  0  0
   26.9414  -20.2016  -11.8965 C   0  0  0  0  0  0  0  0  0  0  0  0
   25.5632  -19.6751  -11.7209 C   0  0  2  0  0  0  0  0  0  0  0  0
   25.2399  -19.3876  -10.3350 N   0  0  0  0  0  0  0  0  0  0  0  0
   24.4945  -20.4690  -12.3672 C   0  0  0  0  0  0  0  0  0  0  0  0
   23.3497  -20.8341  -11.6476 O   0  0  0  0  0  0  0  0  0  0  0  0
   24.5503  -20.8492  -13.5631 O   0  0  0  0  0  0  0  0  0  0  0  0
  1  5  1  0
  2  3  1  0
  2  1  1  0
  3  4  1  0
  5  4  1  0
  5  6  1  1
  6 13  1  0
  6  7  2  0
  9 10  1  0
  9  8  1  0
 10 12  1  0
 10 11  1  6
 12 14  1  0
 12 13  1  1
 14 15  2  0
 14 24  1  0
 16 17  1  0
 17 19  1  0
 18 17  2  0
 19 20  1  0
 21 20  1  0
 22 21  1  0
 23 25  1  0
 23 22  1  1
 24 23  1  0
 25 26  1  0
 27 25  2  0
M  END
$$$$
