PIR.pdb
     RDKit          3D

 27 27  0  0  1  0  0  0  0  0999 V2000
   31.5506  -20.8899   -9.7021 N   0  0  0  0  0  0  0  0  0  0  0  0
   32.9034  -21.3282   -9.5414 C   0  0  0  0  0  0  0  0  0  0  0  0
   32.9174  -22.7963   -9.8635 C   0  0  0  0  0  0  0  0  0  0  0  0
   31.5373  -23.2340   -9.3847 C   0  0  0  0  0  0  0  0  0  0  0  0
   30.7108  -22.0414   -9.8129 C   0  0  1  0  0  0  0  0  0  0  0  0
   29.4602  -21.9328   -9.0090 C   0  0  0  0  0  0  0  0  0  0  0  0
   28.5789  -22.8163   -8.9941 O   0  0  0  0  0  0  0  0  0  0  0  0
   29.9002  -19.1978   -4.2891 C   0  0  0  0  0  0  0  0  0  0  0  0
   29.5051  -20.1450   -5.3839 C   0  0  0  0  0  0  0  0  0  0  0  0
   28.4141  -19.5811   -6.2676 C   0  0  2  0  0  0  0  0  0  0  0  0
   27.1904  -19.4051   -5.3634 C   0  0  0  0  0  0  0  0  0  0  0  0
   28.1070  -20.5389   -7.3950 C   0  0  2  0  0  0  0  0  0  0  0  0
   29.2520  -20.7693   -8.2176 N   0  0  0  0  0  0  0  0  0  0  0  0
   27.0121  -20.0416   -8.2611 C   0  0  0  0  0  0  0  0  0  0  0  0
   27.0816  -18.8648   -8.6929 O   0  0  0  0  0  0  0  0  0  0  0  0
   21.0447  -19.9415  -12.8387 N   0  0  0  0  0  0  0  0  0  0  0  0
   21.8839  -20.1597  -13.9711 C   0  0  0  0  0  0  0  0  0  0  0  0
   21.6207  -19.5474  -15.0623 N   0  0  0  0  0  0  0  0  0  0  0  0
   22.9935  -21.0312  -13.9164 N   0  0  0  0  0  0  0  0  0  0  0  0
   23.5842  -21.4752  -12.6415 C   0  0  0  0  0  0  0  0  0  0  0  0
   24.6666  -20.5399  -12.2318 C   0  0  0  0  0  0  0  0  0  0  0  0
   25.4634  -20.9031  -11.0439 C   0  0  0  0  0  0  0  0  0  0  0  0
   25.0254  -20.3879   -9.7210 C   0  0  2  0  0  0  0  0  0  0  0  0
   25.8858  -20.8181   -8.6334 N   0  0  0  0  0  0  0  0  0  0  0  0
   23.5988  -20.6087   -9.3956 C   0  0  0  0  0  0  0  0  0  0  0  0
   23.2345  -21.4864   -8.3666 O   0  0  0  0  0  0  0  0  0  0  0  0
   22.6599  -20.0383  -10.0049 O   0  0  0  0  0  0  0  0  0  0  0  0
  1  5  1  0
  2  3  1  0
  2  1  1  0
  3  4  1  0
  5  4  1  0
  5  6  1  1
  6 13  1  0
  6  7  2  0
  9 10  1  0
  9  8  1  0
 10 12  1  0
 10 11  1  1
 12 14  1  0
 12 13  1  6
 14 15  2  0
 14 24  1  0
 16 17  1  0
 17 19  1  0
 18 17  2  0
 19 20  1  0
 21 20  1  0
 22 21  1  0
 23 25  1  0
 23 22  1  6
 24 23  1  0
 25 26  1  0
 27 25  2  0
M  END
$$$$
