PIR.pdb
     RDKit          3D

 27 27  0  0  1  0  0  0  0  0999 V2000
   26.5555  -19.2208  -14.1042 N   0  0  0  0  0  0  0  0  0  0  0  0
   27.7977  -18.6121  -14.4707 C   0  0  0  0  0  0  0  0  0  0  0  0
   28.6633  -19.7088  -15.0249 C   0  0  0  0  0  0  0  0  0  0  0  0
   28.2079  -20.9106  -14.2041 C   0  0  0  0  0  0  0  0  0  0  0  0
   26.7212  -20.6405  -14.1295 C   0  0  1  0  0  0  0  0  0  0  0  0
   26.1053  -21.3222  -12.9556 C   0  0  0  0  0  0  0  0  0  0  0  0
   26.1437  -22.5580  -12.7857 O   0  0  0  0  0  0  0  0  0  0  0  0
   26.9731  -19.0581   -8.3174 C   0  0  0  0  0  0  0  0  0  0  0  0
   26.5901  -20.1742   -9.2445 C   0  0  0  0  0  0  0  0  0  0  0  0
   25.1185  -20.1519   -9.5956 C   0  0  2  0  0  0  0  0  0  0  0  0
   24.3829  -20.6661   -8.3544 C   0  0  0  0  0  0  0  0  0  0  0  0
   24.8500  -21.0494  -10.7809 C   0  0  2  0  0  0  0  0  0  0  0  0
   25.4392  -20.5345  -11.9761 N   0  0  0  0  0  0  0  0  0  0  0  0
   23.3989  -21.2264  -11.0239 C   0  0  0  0  0  0  0  0  0  0  0  0
   22.7598  -20.2742  -11.5350 O   0  0  0  0  0  0  0  0  0  0  0  0
   16.1083  -24.7978   -8.4786 N   0  0  0  0  0  0  0  0  0  0  0  0
   17.2321  -25.6718   -8.5646 C   0  0  0  0  0  0  0  0  0  0  0  0
   17.0461  -26.8833   -8.9287 N   0  0  0  0  0  0  0  0  0  0  0  0
   18.5391  -25.2335   -8.2590 N   0  0  0  0  0  0  0  0  0  0  0  0
   18.8366  -23.8366   -7.8961 C   0  0  0  0  0  0  0  0  0  0  0  0
   19.3036  -23.0901   -9.0956 C   0  0  0  0  0  0  0  0  0  0  0  0
   20.7586  -23.0346   -9.3360 C   0  0  0  0  0  0  0  0  0  0  0  0
   21.2396  -22.3840  -10.5822 C   0  0  2  0  0  0  0  0  0  0  0  0
   22.6853  -22.4113  -10.7128 N   0  0  0  0  0  0  0  0  0  0  0  0
   20.7036  -21.0283  -10.8367 C   0  0  0  0  0  0  0  0  0  0  0  0
   19.7944  -20.8104  -11.8797 O   0  0  0  0  0  0  0  0  0  0  0  0
   21.0230  -20.0247  -10.1520 O   0  0  0  0  0  0  0  0  0  0  0  0
  1  5  1  0
  2  3  1  0
  2  1  1  0
  3  4  1  0
  5  4  1  0
  5  6  1  1
  6 13  1  0
  6  7  2  0
  9 10  1  0
  9  8  1  0
 10 12  1  0
 10 11  1  1
 12 14  1  0
 12 13  1  6
 14 15  2  0
 14 24  1  0
 16 17  1  0
 17 19  1  0
 18 17  2  0
 19 20  1  0
 21 20  1  0
 22 21  1  0
 23 25  1  0
 23 22  1  1
 24 23  1  0
 25 26  1  0
 27 25  2  0
M  END
$$$$
