PIR.pdb
     RDKit          3D

 27 27  0  0  1  0  0  0  0  0999 V2000
   28.5206  -21.6527  -14.8897 N   0  0  0  0  0  0  0  0  0  0  0  0
   28.5577  -20.9841  -16.1544 C   0  0  0  0  0  0  0  0  0  0  0  0
   28.5221  -19.5106  -15.8594 C   0  0  0  0  0  0  0  0  0  0  0  0
   27.6676  -19.4658  -14.5971 C   0  0  0  0  0  0  0  0  0  0  0  0
   28.1744  -20.6991  -13.8824 C   0  0  1  0  0  0  0  0  0  0  0  0
   27.1677  -21.2139  -12.9110 C   0  0  0  0  0  0  0  0  0  0  0  0
   26.3610  -22.1266  -13.1825 O   0  0  0  0  0  0  0  0  0  0  0  0
   28.1637  -20.3550   -7.5557 C   0  0  0  0  0  0  0  0  0  0  0  0
   27.6449  -20.9700   -8.8224 C   0  0  0  0  0  0  0  0  0  0  0  0
   26.3838  -20.2952   -9.3158 C   0  0  2  0  0  0  0  0  0  0  0  0
   25.2888  -20.6653   -8.3107 C   0  0  0  0  0  0  0  0  0  0  0  0
   26.0281  -20.7965  -10.6960 C   0  0  2  0  0  0  0  0  0  0  0  0
   27.1161  -20.6432  -11.6090 N   0  0  0  0  0  0  0  0  0  0  0  0
   24.8544  -20.0870  -11.2573 C   0  0  0  0  0  0  0  0  0  0  0  0
   25.0559  -19.0756  -11.9734 O   0  0  0  0  0  0  0  0  0  0  0  0
   20.4041  -21.6692  -18.0372 N   0  0  0  0  0  0  0  0  0  0  0  0
   20.8427  -20.3250  -17.8508 C   0  0  0  0  0  0  0  0  0  0  0  0
   20.4543  -19.4283  -18.6754 N   0  0  0  0  0  0  0  0  0  0  0  0
   21.6915  -19.9621  -16.7822 N   0  0  0  0  0  0  0  0  0  0  0  0
   22.2078  -20.9482  -15.8166 C   0  0  0  0  0  0  0  0  0  0  0  0
   21.8047  -20.5647  -14.4365 C   0  0  0  0  0  0  0  0  0  0  0  0
   22.8156  -20.7058  -13.3707 C   0  0  0  0  0  0  0  0  0  0  0  0
   22.4860  -20.1875  -12.0179 C   0  0  2  0  0  0  0  0  0  0  0  0
   23.5115  -20.4830  -11.0336 N   0  0  0  0  0  0  0  0  0  0  0  0
   21.1407  -20.5424  -11.5138 C   0  0  0  0  0  0  0  0  0  0  0  0
   20.0228  -19.7839  -11.8838 O   0  0  0  0  0  0  0  0  0  0  0  0
   20.9297  -21.5158  -10.7484 O   0  0  0  0  0  0  0  0  0  0  0  0
  1  5  1  0
  2  3  1  0
  2  1  1  0
  3  4  1  0
  5  4  1  0
  5  6  1  1
  6 13  1  0
  6  7  2  0
  9 10  1  0
  9  8  1  0
 10 12  1  0
 10 11  1  1
 12 14  1  0
 12 13  1  6
 14 15  2  0
 14 24  1  0
 16 17  1  0
 17 19  1  0
 18 17  2  0
 19 20  1  0
 21 20  1  0
 22 21  1  0
 23 25  1  0
 23 22  1  6
 24 23  1  0
 25 26  1  0
 27 25  2  0
M  END
$$$$
