PIR.pdb
     RDKit          3D

 27 27  0  0  1  0  0  0  0  0999 V2000
   22.1190   -8.4627  -14.7673 N   0  0  0  0  0  0  0  0  0  0  0  0
   22.3331   -7.3695  -13.8689 C   0  0  0  0  0  0  0  0  0  0  0  0
   22.1183   -6.1135  -14.6661 C   0  0  0  0  0  0  0  0  0  0  0  0
   22.6049   -6.5346  -16.0487 C   0  0  0  0  0  0  0  0  0  0  0  0
   22.0780   -7.9517  -16.1018 C   0  0  1  0  0  0  0  0  0  0  0  0
   22.8514   -8.7809  -17.0695 C   0  0  0  0  0  0  0  0  0  0  0  0
   22.9653   -8.4919  -18.2782 O   0  0  0  0  0  0  0  0  0  0  0  0
   27.0368  -10.4284  -14.8641 C   0  0  0  0  0  0  0  0  0  0  0  0
   26.5271  -10.3507  -16.2733 C   0  0  0  0  0  0  0  0  0  0  0  0
   25.4632  -11.3879  -16.5589 C   0  0  2  0  0  0  0  0  0  0  0  0
   26.1658  -12.5083  -17.3316 C   0  0  0  0  0  0  0  0  0  0  0  0
   24.3547  -10.7850  -17.3899 C   0  0  2  0  0  0  0  0  0  0  0  0
   23.4941   -9.9608  -16.6021 N   0  0  0  0  0  0  0  0  0  0  0  0
   23.5239  -11.8244  -18.0424 C   0  0  0  0  0  0  0  0  0  0  0  0
   22.7681  -12.5219  -17.3224 O   0  0  0  0  0  0  0  0  0  0  0  0
   22.0185  -16.6292  -23.1578 N   0  0  0  0  0  0  0  0  0  0  0  0
   20.8612  -16.2341  -23.8916 C   0  0  0  0  0  0  0  0  0  0  0  0
   20.0845  -17.1384  -24.3543 N   0  0  0  0  0  0  0  0  0  0  0  0
   20.5535  -14.8748  -24.1182 N   0  0  0  0  0  0  0  0  0  0  0  0
   21.3929  -13.7802  -23.5998 C   0  0  0  0  0  0  0  0  0  0  0  0
   21.6439  -13.9790  -22.1467 C   0  0  0  0  0  0  0  0  0  0  0  0
   22.4509  -12.9573  -21.4517 C   0  0  0  0  0  0  0  0  0  0  0  0
   22.6926  -13.1253  -19.9954 C   0  0  2  0  0  0  0  0  0  0  0  0
   23.5310  -12.0798  -19.4370 N   0  0  0  0  0  0  0  0  0  0  0  0
   23.1609  -14.4667  -19.5814 C   0  0  0  0  0  0  0  0  0  0  0  0
   24.5289  -14.7673  -19.5708 O   0  0  0  0  0  0  0  0  0  0  0  0
   22.3819  -15.3856  -19.2255 O   0  0  0  0  0  0  0  0  0  0  0  0
  1  5  1  0
  2  3  1  0
  2  1  1  0
  3  4  1  0
  5  4  1  0
  5  6  1  6
  6 13  1  0
  6  7  2  0
  9 10  1  0
  9  8  1  0
 10 12  1  0
 10 11  1  6
 12 14  1  0
 12 13  1  1
 14 15  2  0
 14 24  1  0
 16 17  1  0
 17 19  1  0
 18 17  2  0
 19 20  1  0
 21 20  1  0
 22 21  1  0
 23 25  1  0
 23 22  1  6
 24 23  1  0
 25 26  1  0
 27 25  2  0
M  END
$$$$
