PIR.pdb
     RDKit          3D

 27 27  0  0  1  0  0  0  0  0999 V2000
   28.6470  -21.4208  -12.1907 N   0  0  0  0  0  0  0  0  0  0  0  0
   30.0020  -21.2972  -11.7474 C   0  0  0  0  0  0  0  0  0  0  0  0
   29.9436  -20.9834  -10.2786 C   0  0  0  0  0  0  0  0  0  0  0  0
   28.6590  -20.1669  -10.1849 C   0  0  0  0  0  0  0  0  0  0  0  0
   27.7866  -20.9204  -11.1646 C   0  0  1  0  0  0  0  0  0  0  0  0
   26.6912  -20.0564  -11.6897 C   0  0  0  0  0  0  0  0  0  0  0  0
   25.9362  -19.3882  -10.9541 O   0  0  0  0  0  0  0  0  0  0  0  0
   28.0418  -16.8408  -15.5008 C   0  0  0  0  0  0  0  0  0  0  0  0
   27.3323  -17.5534  -14.3869 C   0  0  0  0  0  0  0  0  0  0  0  0
   26.1544  -18.3648  -14.8802 C   0  0  2  0  0  0  0  0  0  0  0  0
   25.1560  -17.3524  -15.4495 C   0  0  0  0  0  0  0  0  0  0  0  0
   25.5351  -19.1354  -13.7377 C   0  0  2  0  0  0  0  0  0  0  0  0
   26.4886  -19.9836  -13.0958 N   0  0  0  0  0  0  0  0  0  0  0  0
   24.4016  -19.9774  -14.1879 C   0  0  0  0  0  0  0  0  0  0  0  0
   24.5041  -21.2237  -14.0765 O   0  0  0  0  0  0  0  0  0  0  0  0
   19.9455  -23.9648   -9.9995 N   0  0  0  0  0  0  0  0  0  0  0  0
   18.8186  -23.2560  -10.5109 C   0  0  0  0  0  0  0  0  0  0  0  0
   17.6844  -23.8451  -10.5514 N   0  0  0  0  0  0  0  0  0  0  0  0
   18.9244  -21.9253  -10.9712 N   0  0  0  0  0  0  0  0  0  0  0  0
   20.2253  -21.2658  -11.1817 C   0  0  0  0  0  0  0  0  0  0  0  0
   20.4476  -21.0364  -12.6349 C   0  0  0  0  0  0  0  0  0  0  0  0
   21.7013  -20.3666  -13.0319 C   0  0  0  0  0  0  0  0  0  0  0  0
   21.9325  -20.1097  -14.4769 C   0  0  2  0  0  0  0  0  0  0  0  0
   23.2031  -19.4582  -14.7393 N   0  0  0  0  0  0  0  0  0  0  0  0
   20.8249  -19.4299  -15.1847 C   0  0  0  0  0  0  0  0  0  0  0  0
   19.7860  -20.1756  -15.7562 O   0  0  0  0  0  0  0  0  0  0  0  0
   20.7541  -18.1820  -15.3097 O   0  0  0  0  0  0  0  0  0  0  0  0
  1  5  1  0
  2  3  1  0
  2  1  1  0
  3  4  1  0
  5  4  1  0
  5  6  1  6
  6 13  1  0
  6  7  2  0
  9 10  1  0
  9  8  1  0
 10 12  1  0
 10 11  1  1
 12 14  1  0
 12 13  1  6
 14 15  2  0
 14 24  1  0
 16 17  1  0
 17 19  1  0
 18 17  2  0
 19 20  1  0
 21 20  1  0
 22 21  1  0
 23 25  1  0
 23 22  1  1
 24 23  1  0
 25 26  1  0
 27 25  2  0
M  END
$$$$
