GAR.pdb
     RDKit          3D

 21 20  0  0  1  0  0  0  0  0999 V2000
    5.8272  -22.3721   25.7037 N   0  0  0  0  0  0  0  0  0  0  0  0
    7.0773  -21.8791   26.2178 C   0  0  0  0  0  0  0  0  0  0  0  0
    7.1716  -20.3907   26.1653 C   0  0  0  0  0  0  0  0  0  0  0  0
    6.3732  -19.7847   25.4285 O   0  0  0  0  0  0  0  0  0  0  0  0
    9.0911  -17.6088   27.8384 C   0  0  0  0  0  0  0  0  0  0  0  0
    8.2982  -18.2245   26.6942 C   0  0  2  0  0  0  0  0  0  0  0  0
    8.1142  -19.6476   26.9048 N   0  0  0  0  0  0  0  0  0  0  0  0
    8.9723  -17.9777   25.3869 C   0  0  0  0  0  0  0  0  0  0  0  0
    9.8056  -18.8361   24.9507 O   0  0  0  0  0  0  0  0  0  0  0  0
    8.1096  -13.6908   16.7302 N   0  0  0  0  0  0  0  0  0  0  0  0
    8.0746  -13.3132   18.0998 C   0  0  0  0  0  0  0  0  0  0  0  0
    7.2643  -12.3447   18.4481 N   0  0  0  0  0  0  0  0  0  0  0  0
    8.8878  -13.9574   19.0721 N   0  0  0  0  0  0  0  0  0  0  0  0
    8.3040  -14.2965   20.3610 C   0  0  0  0  0  0  0  0  0  0  0  0
    9.1820  -14.9978   21.2920 C   0  0  0  0  0  0  0  0  0  0  0  0
    8.7896  -15.4867   22.5951 C   0  0  0  0  0  0  0  0  0  0  0  0
    9.4271  -16.5933   23.3187 C   0  0  2  0  0  0  0  0  0  0  0  0
    8.7433  -16.8449   24.5974 N   0  0  0  0  0  0  0  0  0  0  0  0
   10.8318  -16.4161   23.5964 C   0  0  0  0  0  0  0  0  0  0  0  0
   11.7529  -16.6057   22.8111 O   0  0  0  0  0  0  0  0  0  0  0  0
   11.2228  -15.9827   24.8876 O   0  0  0  0  0  0  0  0  0  0  0  0
  2  3  1  0
  2  1  1  0
  3  4  2  0
  6  5  1  1
  6  8  1  0
  7  6  1  0
  7  3  1  0
  8  9  2  0
  8 18  1  0
 10 11  1  0
 11 12  2  0
 13 14  1  0
 13 11  1  0
 14 15  1  0
 17 16  1  1
 16 15  1  0
 17 19  1  0
 18 17  1  0
 19 20  2  0
 19 21  1  0
M  END
$$$$
