GAR.pdb
     RDKit          3D

 21 20  0  0  1  0  0  0  0  0999 V2000
    8.0448  -15.2584   13.9568 N   0  0  0  0  0  0  0  0  0  0  0  0
    7.3278  -15.2294   15.2039 C   0  0  0  0  0  0  0  0  0  0  0  0
    8.1028  -14.5697   16.2953 C   0  0  0  0  0  0  0  0  0  0  0  0
    9.3190  -14.3835   16.1120 O   0  0  0  0  0  0  0  0  0  0  0  0
    7.4112  -12.9830   19.6573 C   0  0  0  0  0  0  0  0  0  0  0  0
    8.3106  -13.5058   18.5461 C   0  0  2  0  0  0  0  0  0  0  0  0
    7.5257  -14.1523   17.5120 N   0  0  0  0  0  0  0  0  0  0  0  0
    9.3309  -14.4493   19.0875 C   0  0  0  0  0  0  0  0  0  0  0  0
    9.0972  -15.7004   19.0471 O   0  0  0  0  0  0  0  0  0  0  0  0
   17.8606  -13.3829   21.1203 N   0  0  0  0  0  0  0  0  0  0  0  0
   17.7754  -14.7794   20.8713 C   0  0  0  0  0  0  0  0  0  0  0  0
   18.7905  -15.5281   21.2249 N   0  0  0  0  0  0  0  0  0  0  0  0
   16.6309  -15.3593   20.2586 N   0  0  0  0  0  0  0  0  0  0  0  0
   15.5040  -14.5016   19.9246 C   0  0  0  0  0  0  0  0  0  0  0  0
   14.1810  -15.0623   20.1787 C   0  0  0  0  0  0  0  0  0  0  0  0
   12.9289  -14.4121   19.8613 C   0  0  0  0  0  0  0  0  0  0  0  0
   11.5929  -14.9752   20.0912 C   0  0  2  0  0  0  0  0  0  0  0  0
   10.5475  -14.0401   19.6456 N   0  0  0  0  0  0  0  0  0  0  0  0
   11.3072  -15.3383   21.4581 C   0  0  0  0  0  0  0  0  0  0  0  0
   10.5082  -14.7815   22.2014 O   0  0  0  0  0  0  0  0  0  0  0  0
   11.9951  -16.4370   22.0304 O   0  0  0  0  0  0  0  0  0  0  0  0
  2  3  1  0
  2  1  1  0
  3  4  2  0
  6  5  1  1
  6  8  1  0
  7  6  1  0
  7  3  1  0
  8  9  2  0
  8 18  1  0
 10 11  1  0
 11 12  2  0
 13 14  1  0
 13 11  1  0
 14 15  1  0
 17 16  1  1
 16 15  1  0
 17 19  1  0
 18 17  1  0
 19 20  2  0
 19 21  1  0
M  END
$$$$
