GAR.pdb
     RDKit          3D

 21 20  0  0  1  0  0  0  0  0999 V2000
    5.8411  -22.2261   23.1887 N   0  0  0  0  0  0  0  0  0  0  0  0
    6.2982  -22.0550   24.5422 C   0  0  0  0  0  0  0  0  0  0  0  0
    6.5137  -20.6217   24.8975 C   0  0  0  0  0  0  0  0  0  0  0  0
    6.1105  -19.7590   24.0971 O   0  0  0  0  0  0  0  0  0  0  0  0
    7.6996  -18.6053   27.8521 C   0  0  0  0  0  0  0  0  0  0  0  0
    7.3731  -18.8026   26.3785 C   0  0  2  0  0  0  0  0  0  0  0  0
    7.1467  -20.2050   26.0863 N   0  0  0  0  0  0  0  0  0  0  0  0
    8.4635  -18.2635   25.5155 C   0  0  0  0  0  0  0  0  0  0  0  0
    9.4746  -18.9972   25.2685 O   0  0  0  0  0  0  0  0  0  0  0  0
    6.5548  -12.7320   19.4810 N   0  0  0  0  0  0  0  0  0  0  0  0
    7.5210  -13.6114   18.9217 C   0  0  0  0  0  0  0  0  0  0  0  0
    7.6452  -13.6361   17.6179 N   0  0  0  0  0  0  0  0  0  0  0  0
    8.3339  -14.4436   19.7392 N   0  0  0  0  0  0  0  0  0  0  0  0
    8.1883  -14.3639   21.1847 C   0  0  0  0  0  0  0  0  0  0  0  0
    9.0751  -15.2238   21.9615 C   0  0  0  0  0  0  0  0  0  0  0  0
    9.1441  -15.2570   23.4056 C   0  0  0  0  0  0  0  0  0  0  0  0
    9.5788  -16.4034   24.2127 C   0  0  2  0  0  0  0  0  0  0  0  0
    8.4453  -16.9827   24.9515 N   0  0  0  0  0  0  0  0  0  0  0  0
   10.6277  -16.1222   25.1627 C   0  0  0  0  0  0  0  0  0  0  0  0
   10.4939  -16.0159   26.3759 O   0  0  0  0  0  0  0  0  0  0  0  0
   11.9506  -15.9462   24.6864 O   0  0  0  0  0  0  0  0  0  0  0  0
  2  3  1  0
  2  1  1  0
  3  4  2  0
  6  5  1  1
  6  8  1  0
  7  6  1  0
  7  3  1  0
  8  9  2  0
  8 18  1  0
 10 11  1  0
 11 12  2  0
 13 14  1  0
 13 11  1  0
 14 15  1  0
 17 16  1  1
 16 15  1  0
 17 19  1  0
 18 17  1  0
 19 20  2  0
 19 21  1  0
M  END
$$$$
