GAR.pdb
     RDKit          3D

 21 20  0  0  1  0  0  0  0  0999 V2000
    7.7053  -17.1160   16.6544 N   0  0  0  0  0  0  0  0  0  0  0  0
    6.9779  -16.1544   17.4395 C   0  0  0  0  0  0  0  0  0  0  0  0
    7.8146  -15.5387   18.5109 C   0  0  0  0  0  0  0  0  0  0  0  0
    8.9590  -15.9937   18.6863 O   0  0  0  0  0  0  0  0  0  0  0  0
    7.5975  -12.6217   20.9039 C   0  0  0  0  0  0  0  0  0  0  0  0
    8.2198  -13.8949   20.3480 C   0  0  2  0  0  0  0  0  0  0  0  0
    7.3720  -14.4760   19.3248 N   0  0  0  0  0  0  0  0  0  0  0  0
    8.4697  -14.8836   21.4361 C   0  0  0  0  0  0  0  0  0  0  0  0
    7.4811  -15.5048   21.9444 O   0  0  0  0  0  0  0  0  0  0  0  0
   10.1943  -18.4918   18.1649 N   0  0  0  0  0  0  0  0  0  0  0  0
   10.6701  -19.6906   18.7617 C   0  0  0  0  0  0  0  0  0  0  0  0
   10.2424  -20.8291   18.2752 N   0  0  0  0  0  0  0  0  0  0  0  0
   11.5817  -19.6699   19.8526 N   0  0  0  0  0  0  0  0  0  0  0  0
   11.8231  -18.4109   20.5409 C   0  0  0  0  0  0  0  0  0  0  0  0
   11.1028  -18.2242   21.7962 C   0  0  0  0  0  0  0  0  0  0  0  0
   11.1477  -17.0292   22.6093 C   0  0  0  0  0  0  0  0  0  0  0  0
    9.9923  -16.1988   22.9701 C   0  0  2  0  0  0  0  0  0  0  0  0
    9.7417  -15.1764   21.9416 N   0  0  0  0  0  0  0  0  0  0  0  0
   10.0924  -15.5287   24.2439 C   0  0  0  0  0  0  0  0  0  0  0  0
   10.2030  -16.0693   25.3377 O   0  0  0  0  0  0  0  0  0  0  0  0
   10.0642  -14.1122   24.2740 O   0  0  0  0  0  0  0  0  0  0  0  0
  2  3  1  0
  2  1  1  0
  3  4  2  0
  6  5  1  1
  6  8  1  0
  7  6  1  0
  7  3  1  0
  8  9  2  0
  8 18  1  0
 10 11  1  0
 11 12  2  0
 13 14  1  0
 13 11  1  0
 14 15  1  0
 17 16  1  6
 16 15  1  0
 17 19  1  0
 18 17  1  0
 19 20  2  0
 19 21  1  0
M  END
$$$$
