GAR.pdb
     RDKit          3D

 21 20  0  0  1  0  0  0  0  0999 V2000
    8.1197  -12.2985   17.8037 N   0  0  0  0  0  0  0  0  0  0  0  0
    8.6666  -13.6199   17.6457 C   0  0  0  0  0  0  0  0  0  0  0  0
    8.3467  -14.5140   18.7968 C   0  0  0  0  0  0  0  0  0  0  0  0
    7.9512  -13.9838   19.8504 O   0  0  0  0  0  0  0  0  0  0  0  0
    8.1494  -18.2261   19.4868 C   0  0  0  0  0  0  0  0  0  0  0  0
    8.1274  -16.7553   19.8784 C   0  0  2  0  0  0  0  0  0  0  0  0
    8.4707  -15.9174   18.7455 N   0  0  0  0  0  0  0  0  0  0  0  0
    9.0561  -16.4940   21.0157 C   0  0  0  0  0  0  0  0  0  0  0  0
   10.2977  -16.3435   20.7763 O   0  0  0  0  0  0  0  0  0  0  0  0
    7.2482  -11.3808   26.7873 N   0  0  0  0  0  0  0  0  0  0  0  0
    6.6183  -12.6544   26.7616 C   0  0  0  0  0  0  0  0  0  0  0  0
    5.3090  -12.6910   26.7760 N   0  0  0  0  0  0  0  0  0  0  0  0
    7.3727  -13.8590   26.7213 N   0  0  0  0  0  0  0  0  0  0  0  0
    8.8189  -13.7764   26.5844 C   0  0  0  0  0  0  0  0  0  0  0  0
    9.4309  -14.7606   25.6979 C   0  0  0  0  0  0  0  0  0  0  0  0
    8.8622  -15.2221   24.4510 C   0  0  0  0  0  0  0  0  0  0  0  0
    9.5470  -16.0604   23.4595 C   0  0  2  0  0  0  0  0  0  0  0  0
    8.6427  -16.4022   22.3498 N   0  0  0  0  0  0  0  0  0  0  0  0
   10.1002  -17.2899   23.9732 C   0  0  0  0  0  0  0  0  0  0  0  0
    9.6120  -18.4072   23.8535 O   0  0  0  0  0  0  0  0  0  0  0  0
   11.3223  -17.2419   24.6889 O   0  0  0  0  0  0  0  0  0  0  0  0
  2  3  1  0
  2  1  1  0
  3  4  2  0
  6  5  1  6
  6  8  1  0
  7  6  1  0
  7  3  1  0
  8  9  2  0
  8 18  1  0
 10 11  1  0
 11 12  2  0
 13 14  1  0
 13 11  1  0
 14 15  1  0
 17 16  1  1
 16 15  1  0
 17 19  1  0
 18 17  1  0
 19 20  2  0
 19 21  1  0
M  END
$$$$
