GAR.pdb
     RDKit          3D

 21 20  0  0  1  0  0  0  0  0999 V2000
    8.1149  -12.0530   18.1377 N   0  0  0  0  0  0  0  0  0  0  0  0
    8.4833  -13.4438   18.1542 C   0  0  0  0  0  0  0  0  0  0  0  0
    8.0438  -14.1383   19.3998 C   0  0  0  0  0  0  0  0  0  0  0  0
    7.8053  -13.4387   20.4005 O   0  0  0  0  0  0  0  0  0  0  0  0
    7.1616  -17.6408   20.5064 C   0  0  0  0  0  0  0  0  0  0  0  0
    7.5255  -16.1814   20.7408 C   0  0  2  0  0  0  0  0  0  0  0  0
    7.8882  -15.5364   19.4935 N   0  0  0  0  0  0  0  0  0  0  0  0
    8.6374  -16.0625   21.7275 C   0  0  0  0  0  0  0  0  0  0  0  0
    9.8316  -15.9480   21.3005 O   0  0  0  0  0  0  0  0  0  0  0  0
   10.2221  -16.5415   30.3626 N   0  0  0  0  0  0  0  0  0  0  0  0
   10.3858  -15.1532   30.1069 C   0  0  0  0  0  0  0  0  0  0  0  0
   10.4846  -14.3481   31.1355 N   0  0  0  0  0  0  0  0  0  0  0  0
   10.4423  -14.6403   28.7821 N   0  0  0  0  0  0  0  0  0  0  0  0
    9.6685  -15.2999   27.7413 C   0  0  0  0  0  0  0  0  0  0  0  0
    9.6861  -14.6566   26.4316 C   0  0  0  0  0  0  0  0  0  0  0  0
    8.9358  -15.1013   25.2781 C   0  0  0  0  0  0  0  0  0  0  0  0
    9.5055  -15.7308   24.0807 C   0  0  2  0  0  0  0  0  0  0  0  0
    8.4483  -16.0690   23.1143 N   0  0  0  0  0  0  0  0  0  0  0  0
   10.2793  -16.9239   24.3242 C   0  0  0  0  0  0  0  0  0  0  0  0
   11.4449  -16.9648   24.6994 O   0  0  0  0  0  0  0  0  0  0  0  0
    9.6687  -18.1866   24.1219 O   0  0  0  0  0  0  0  0  0  0  0  0
  2  3  1  0
  2  1  1  0
  3  4  2  0
  6  5  1  6
  6  8  1  0
  7  6  1  0
  7  3  1  0
  8  9  2  0
  8 18  1  0
 10 11  1  0
 11 12  2  0
 13 14  1  0
 13 11  1  0
 14 15  1  0
 17 16  1  1
 16 15  1  0
 17 19  1  0
 18 17  1  0
 19 20  2  0
 19 21  1  0
M  END
$$$$
