GAR.pdb
     RDKit          3D

 21 20  0  0  1  0  0  0  0  0999 V2000
    7.7442  -16.2939   15.8412 N   0  0  0  0  0  0  0  0  0  0  0  0
    7.0237  -15.6047   16.8786 C   0  0  0  0  0  0  0  0  0  0  0  0
    7.9263  -15.0327   17.9203 C   0  0  0  0  0  0  0  0  0  0  0  0
    9.1231  -15.3715   17.9001 O   0  0  0  0  0  0  0  0  0  0  0  0
    7.7497  -12.5148   20.7295 C   0  0  0  0  0  0  0  0  0  0  0  0
    8.3720  -13.6797   19.9726 C   0  0  2  0  0  0  0  0  0  0  0  0
    7.4892  -14.1353   18.9160 N   0  0  0  0  0  0  0  0  0  0  0  0
    8.6946  -14.8037   20.8983 C   0  0  0  0  0  0  0  0  0  0  0  0
    7.7605  -15.5865   21.2671 O   0  0  0  0  0  0  0  0  0  0  0  0
   12.2349  -22.2558   22.4274 N   0  0  0  0  0  0  0  0  0  0  0  0
   11.5193  -22.0909   21.2108 C   0  0  0  0  0  0  0  0  0  0  0  0
   11.1281  -23.1695   20.5788 N   0  0  0  0  0  0  0  0  0  0  0  0
   11.2300  -20.8022   20.6843 N   0  0  0  0  0  0  0  0  0  0  0  0
   11.5032  -19.6321   21.5049 C   0  0  0  0  0  0  0  0  0  0  0  0
   11.0808  -18.3515   20.9471 C   0  0  0  0  0  0  0  0  0  0  0  0
   11.3241  -17.0612   21.5529 C   0  0  0  0  0  0  0  0  0  0  0  0
   10.3160  -16.2277   22.2189 C   0  0  2  0  0  0  0  0  0  0  0  0
    9.9787  -15.0561   21.3947 N   0  0  0  0  0  0  0  0  0  0  0  0
   10.6820  -15.7537   23.5316 C   0  0  0  0  0  0  0  0  0  0  0  0
   11.0798  -14.6284   23.8082 O   0  0  0  0  0  0  0  0  0  0  0  0
   10.5855  -16.6437   24.6301 O   0  0  0  0  0  0  0  0  0  0  0  0
  2  3  1  0
  2  1  1  0
  3  4  2  0
  6  5  1  1
  6  8  1  0
  7  6  1  0
  7  3  1  0
  8  9  2  0
  8 18  1  0
 10 11  1  0
 11 12  2  0
 13 14  1  0
 13 11  1  0
 14 15  1  0
 17 16  1  6
 16 15  1  0
 17 19  1  0
 18 17  1  0
 19 20  2  0
 19 21  1  0
M  END
$$$$
