PVY.pdb
     RDKit          3D

 27 28  0  0  1  0  0  0  0  0999 V2000
    8.7715  -15.1267   18.0762 N   0  0  0  0  0  0  0  0  0  0  0  0
    9.0137  -14.3688   16.8591 C   0  0  0  0  0  0  0  0  0  0  0  0
    8.1393  -13.1382   17.0306 C   0  0  0  0  0  0  0  0  0  0  0  0
    7.8149  -13.0861   18.5191 C   0  0  0  0  0  0  0  0  0  0  0  0
    8.7781  -14.0926   19.0763 C   0  0  1  0  0  0  0  0  0  0  0  0
    8.3948  -14.6467   20.3707 C   0  0  0  0  0  0  0  0  0  0  0  0
    8.1872  -13.9603   21.4059 O   0  0  0  0  0  0  0  0  0  0  0  0
    8.6582  -18.9532   21.0934 C   0  0  0  0  0  0  0  0  0  0  0  0
    7.5302  -18.0985   21.5754 C   0  0  2  0  0  0  0  0  0  0  0  0
    6.3785  -18.2889   20.6070 C   0  0  0  0  0  0  0  0  0  0  0  0
    7.8652  -16.6632   21.8014 C   0  0  2  0  0  0  0  0  0  0  0  0
    8.2369  -16.0466   20.5074 N   0  0  0  0  0  0  0  0  0  0  0  0
    8.9404  -16.3853   22.7618 C   0  0  0  0  0  0  0  0  0  0  0  0
   10.1294  -16.4126   22.3651 O   0  0  0  0  0  0  0  0  0  0  0  0
    5.1061  -12.3896   27.4179 O   0  0  0  0  0  0  0  0  0  0  0  0
    6.3024  -12.8761   26.9079 C   0  0  0  0  0  0  0  0  0  0  0  0
    6.4285  -13.0783   25.5482 C   0  0  0  0  0  0  0  0  0  0  0  0
    7.6096  -13.5593   25.0380 C   0  0  0  0  0  0  0  0  0  0  0  0
    8.6833  -13.8455   25.8805 C   0  0  0  0  0  0  0  0  0  0  0  0
    9.9115  -14.3645   25.2758 C   0  0  0  0  0  0  0  0  0  0  0  0
    9.8482  -15.8588   24.9869 C   0  0  2  0  0  0  0  0  0  0  0  0
    8.6839  -16.0851   24.1075 N   0  0  0  0  0  0  0  0  0  0  0  0
    9.6156  -16.5948   26.2360 C   0  0  0  0  0  0  0  0  0  0  0  0
   10.5833  -16.6266   27.2169 O   0  0  0  0  0  0  0  0  0  0  0  0
    8.5449  -13.6393   27.2389 C   0  0  0  0  0  0  0  0  0  0  0  0
    7.3613  -13.1586   27.7380 C   0  0  0  0  0  0  0  0  0  0  0  0
    8.5461  -17.2159   26.4616 O   0  0  0  0  0  0  0  0  0  0  0  0
  1  2  1  0
  2  3  1  0
  4  3  1  0
  5  1  1  0
  5  4  1  0
  5  6  1  1
  7  6  2  0
  9 11  1  0
  9  8  1  6
 10  9  1  0
 11 12  1  6
 12  6  1  0
 13 11  1  0
 14 13  2  0
 16 15  1  0
 17 16  2  0
 18 17  1  0
 19 25  1  0
 19 18  2  0
 21 20  1  1
 20 19  1  0
 21 23  1  0
 21 22  1  0
 22 13  1  0
 23 24  1  0
 25 26  2  0
 26 16  1  0
 27 23  2  0
M  END
$$$$
