PVY.pdb
     RDKit          3D

 27 28  0  0  1  0  0  0  0  0999 V2000
    7.7497  -18.7306   20.7645 N   0  0  0  0  0  0  0  0  0  0  0  0
    7.2335  -19.9410   20.1456 C   0  0  0  0  0  0  0  0  0  0  0  0
    7.0466  -19.5411   18.6919 C   0  0  0  0  0  0  0  0  0  0  0  0
    7.8838  -18.2793   18.5165 C   0  0  0  0  0  0  0  0  0  0  0  0
    8.6932  -18.2726   19.7799 C   0  0  1  0  0  0  0  0  0  0  0  0
    9.2152  -16.9637   20.1586 C   0  0  0  0  0  0  0  0  0  0  0  0
   10.3635  -16.5414   19.8605 O   0  0  0  0  0  0  0  0  0  0  0  0
    8.1347  -12.3000   21.0202 C   0  0  0  0  0  0  0  0  0  0  0  0
    7.8187  -13.7404   20.7748 C   0  0  2  0  0  0  0  0  0  0  0  0
    6.4454  -14.0041   21.3622 C   0  0  0  0  0  0  0  0  0  0  0  0
    8.8468  -14.7115   21.2476 C   0  0  2  0  0  0  0  0  0  0  0  0
    8.4023  -16.0837   20.9124 N   0  0  0  0  0  0  0  0  0  0  0  0
    9.1709  -14.6765   22.6791 C   0  0  0  0  0  0  0  0  0  0  0  0
    8.9118  -13.6393   23.3339 O   0  0  0  0  0  0  0  0  0  0  0  0
    6.2669  -10.9945   27.1131 O   0  0  0  0  0  0  0  0  0  0  0  0
    6.7667  -12.2100   26.6651 C   0  0  0  0  0  0  0  0  0  0  0  0
    8.1176  -12.4711   26.7766 C   0  0  0  0  0  0  0  0  0  0  0  0
    8.6177  -13.6718   26.3353 C   0  0  0  0  0  0  0  0  0  0  0  0
    7.7737  -14.6304   25.7753 C   0  0  0  0  0  0  0  0  0  0  0  0
    8.3700  -15.8860   25.3155 C   0  0  0  0  0  0  0  0  0  0  0  0
    9.7996  -15.7193   24.8167 C   0  0  2  0  0  0  0  0  0  0  0  0
    9.7562  -15.7653   23.3416 N   0  0  0  0  0  0  0  0  0  0  0  0
   10.6186  -16.8482   25.2759 C   0  0  0  0  0  0  0  0  0  0  0  0
   11.0276  -16.9236   26.5900 O   0  0  0  0  0  0  0  0  0  0  0  0
    6.4243  -14.3574   25.6691 C   0  0  0  0  0  0  0  0  0  0  0  0
    5.9352  -13.1554   26.1129 C   0  0  0  0  0  0  0  0  0  0  0  0
   10.9759  -17.7765   24.5071 O   0  0  0  0  0  0  0  0  0  0  0  0
  1  2  1  0
  2  3  1  0
  4  3  1  0
  5  1  1  0
  5  4  1  0
  5  6  1  1
  7  6  2  0
  9 11  1  0
  9  8  1  1
 10  9  1  0
 11 12  1  1
 12  6  1  0
 13 11  1  0
 14 13  2  0
 16 15  1  0
 17 16  2  0
 18 17  1  0
 19 25  1  0
 19 18  2  0
 21 20  1  1
 20 19  1  0
 21 23  1  0
 21 22  1  0
 22 13  1  0
 23 24  1  0
 25 26  2  0
 26 16  1  0
 27 23  2  0
M  END
$$$$
