PVY.pdb
     RDKit          3D

 27 28  0  0  1  0  0  0  0  0999 V2000
    8.7765  -14.6607   19.2097 N   0  0  0  0  0  0  0  0  0  0  0  0
    9.1296  -13.7306   18.1493 C   0  0  0  0  0  0  0  0  0  0  0  0
    8.0057  -12.7091   18.1879 C   0  0  0  0  0  0  0  0  0  0  0  0
    7.3459  -12.8962   19.5493 C   0  0  0  0  0  0  0  0  0  0  0  0
    8.3418  -13.7707   20.2530 C   0  0  1  0  0  0  0  0  0  0  0  0
    7.7948  -14.5368   21.3679 C   0  0  0  0  0  0  0  0  0  0  0  0
    7.1754  -14.0335   22.3420 O   0  0  0  0  0  0  0  0  0  0  0  0
    8.3470  -18.8698   21.4530 C   0  0  0  0  0  0  0  0  0  0  0  0
    7.1137  -18.1529   21.9002 C   0  0  2  0  0  0  0  0  0  0  0  0
    6.1336  -18.1832   20.7430 C   0  0  0  0  0  0  0  0  0  0  0  0
    7.3307  -16.7798   22.4393 C   0  0  2  0  0  0  0  0  0  0  0  0
    7.9532  -15.9432   21.3879 N   0  0  0  0  0  0  0  0  0  0  0  0
    8.1545  -16.6743   23.6499 C   0  0  0  0  0  0  0  0  0  0  0  0
    9.3827  -16.4529   23.5298 O   0  0  0  0  0  0  0  0  0  0  0  0
    6.2944  -10.5701   25.6432 O   0  0  0  0  0  0  0  0  0  0  0  0
    6.6645  -11.8582   26.0062 C   0  0  0  0  0  0  0  0  0  0  0  0
    5.6881  -12.7822   26.3198 C   0  0  0  0  0  0  0  0  0  0  0  0
    6.0482  -14.0580   26.6794 C   0  0  0  0  0  0  0  0  0  0  0  0
    7.3914  -14.4292   26.7309 C   0  0  0  0  0  0  0  0  0  0  0  0
    7.7099  -15.8012   27.1307 C   0  0  0  0  0  0  0  0  0  0  0  0
    8.5148  -16.5562   26.0807 C   0  0  2  0  0  0  0  0  0  0  0  0
    7.6148  -16.8077   24.9375 N   0  0  0  0  0  0  0  0  0  0  0  0
    8.9307  -17.8580   26.6178 C   0  0  0  0  0  0  0  0  0  0  0  0
    9.9421  -17.9360   27.5510 O   0  0  0  0  0  0  0  0  0  0  0  0
    8.3590  -13.4959   26.4152 C   0  0  0  0  0  0  0  0  0  0  0  0
    7.9885  -12.2248   26.0572 C   0  0  0  0  0  0  0  0  0  0  0  0
    8.3945  -18.9366   26.2579 O   0  0  0  0  0  0  0  0  0  0  0  0
  1  2  1  0
  2  3  1  0
  4  3  1  0
  5  1  1  0
  5  4  1  0
  5  6  1  1
  7  6  2  0
  9 11  1  0
  9  8  1  6
 10  9  1  0
 11 12  1  6
 12  6  1  0
 13 11  1  0
 14 13  2  0
 16 15  1  0
 17 16  2  0
 18 17  1  0
 19 25  1  0
 19 18  2  0
 21 20  1  1
 20 19  1  0
 21 23  1  0
 21 22  1  0
 22 13  1  0
 23 24  1  0
 25 26  2  0
 26 16  1  0
 27 23  2  0
M  END
$$$$
