PVY.pdb
     RDKit          3D

 27 28  0  0  1  0  0  0  0  0999 V2000
    7.1736  -18.6262   20.8693 N   0  0  0  0  0  0  0  0  0  0  0  0
    6.2109  -19.5140   20.2374 C   0  0  0  0  0  0  0  0  0  0  0  0
    5.6015  -18.6522   19.1446 C   0  0  0  0  0  0  0  0  0  0  0  0
    6.5766  -17.4948   18.9618 C   0  0  0  0  0  0  0  0  0  0  0  0
    7.7702  -17.9773   19.7325 C   0  0  1  0  0  0  0  0  0  0  0  0
    8.6727  -16.9203   20.1769 C   0  0  0  0  0  0  0  0  0  0  0  0
    9.8761  -16.8150   19.8209 O   0  0  0  0  0  0  0  0  0  0  0  0
    7.0300  -13.3071   22.1236 C   0  0  0  0  0  0  0  0  0  0  0  0
    8.1375  -13.5129   21.1406 C   0  0  2  0  0  0  0  0  0  0  0  0
    7.5177  -13.4902   19.7564 C   0  0  0  0  0  0  0  0  0  0  0  0
    8.9868  -14.7158   21.3749 C   0  0  2  0  0  0  0  0  0  0  0  0
    8.1962  -15.9299   21.0686 N   0  0  0  0  0  0  0  0  0  0  0  0
    9.5484  -14.8682   22.7229 C   0  0  0  0  0  0  0  0  0  0  0  0
   10.3493  -14.0020   23.1472 O   0  0  0  0  0  0  0  0  0  0  0  0
    5.8223  -11.1626   26.5483 O   0  0  0  0  0  0  0  0  0  0  0  0
    6.4638  -12.3819   26.3759 C   0  0  0  0  0  0  0  0  0  0  0  0
    7.8356  -12.4527   26.5132 C   0  0  0  0  0  0  0  0  0  0  0  0
    8.4756  -13.6562   26.3439 C   0  0  0  0  0  0  0  0  0  0  0  0
    7.7529  -14.8079   26.0345 C   0  0  0  0  0  0  0  0  0  0  0  0
    8.4950  -16.0575   25.8574 C   0  0  0  0  0  0  0  0  0  0  0  0
    9.7071  -15.9069   24.9473 C   0  0  2  0  0  0  0  0  0  0  0  0
    9.2164  -15.9469   23.5553 N   0  0  0  0  0  0  0  0  0  0  0  0
   10.6122  -17.0477   25.1359 C   0  0  0  0  0  0  0  0  0  0  0  0
   10.8779  -17.9068   24.0913 O   0  0  0  0  0  0  0  0  0  0  0  0
    6.3812  -14.7243   25.8996 C   0  0  0  0  0  0  0  0  0  0  0  0
    5.7520  -13.5177   26.0708 C   0  0  0  0  0  0  0  0  0  0  0  0
   11.1730  -17.2868   26.2354 O   0  0  0  0  0  0  0  0  0  0  0  0
  1  2  1  0
  2  3  1  0
  4  3  1  0
  5  1  1  0
  5  4  1  0
  5  6  1  1
  7  6  2  0
  9 11  1  0
  9  8  1  1
 10  9  1  0
 11 12  1  1
 12  6  1  0
 13 11  1  0
 14 13  2  0
 16 15  1  0
 17 16  2  0
 18 17  1  0
 19 25  1  0
 19 18  2  0
 21 20  1  1
 20 19  1  0
 21 23  1  0
 21 22  1  0
 22 13  1  0
 23 24  1  0
 25 26  2  0
 26 16  1  0
 27 23  2  0
M  END
$$$$
