PVY.pdb
     RDKit          3D

 27 28  0  0  1  0  0  0  0  0999 V2000
    7.8825  -14.7656   18.6990 N   0  0  0  0  0  0  0  0  0  0  0  0
    7.6822  -14.0454   17.4518 C   0  0  0  0  0  0  0  0  0  0  0  0
    7.2286  -12.6692   17.9085 C   0  0  0  0  0  0  0  0  0  0  0  0
    7.6322  -12.5852   19.3761 C   0  0  0  0  0  0  0  0  0  0  0  0
    8.5361  -13.7751   19.5123 C   0  0  1  0  0  0  0  0  0  0  0  0
    8.6868  -14.2691   20.8770 C   0  0  0  0  0  0  0  0  0  0  0  0
    9.1081  -13.5783   21.8420 O   0  0  0  0  0  0  0  0  0  0  0  0
    7.7984  -18.4850   21.8577 C   0  0  0  0  0  0  0  0  0  0  0  0
    7.3780  -17.2777   22.6328 C   0  0  2  0  0  0  0  0  0  0  0  0
    5.9689  -16.9306   22.1918 C   0  0  0  0  0  0  0  0  0  0  0  0
    8.3093  -16.1153   22.5632 C   0  0  2  0  0  0  0  0  0  0  0  0
    8.3455  -15.6108   21.1714 N   0  0  0  0  0  0  0  0  0  0  0  0
    9.6918  -16.3572   22.9941 C   0  0  0  0  0  0  0  0  0  0  0  0
   10.5560  -16.6361   22.1297 O   0  0  0  0  0  0  0  0  0  0  0  0
    9.3903  -14.5534   30.3385 O   0  0  0  0  0  0  0  0  0  0  0  0
   10.0464  -14.7432   29.1296 C   0  0  0  0  0  0  0  0  0  0  0  0
    9.7167  -13.9529   28.0469 C   0  0  0  0  0  0  0  0  0  0  0  0
   10.3624  -14.1360   26.8485 C   0  0  0  0  0  0  0  0  0  0  0  0
   11.3484  -15.1129   26.7146 C   0  0  0  0  0  0  0  0  0  0  0  0
   11.9924  -15.2644   25.4086 C   0  0  0  0  0  0  0  0  0  0  0  0
   11.5105  -16.4914   24.6453 C   0  0  2  0  0  0  0  0  0  0  0  0
   10.0813  -16.2825   24.3393 N   0  0  0  0  0  0  0  0  0  0  0  0
   11.6161  -17.6797   25.5014 C   0  0  0  0  0  0  0  0  0  0  0  0
   12.8505  -18.2109   25.8074 O   0  0  0  0  0  0  0  0  0  0  0  0
   11.6693  -15.8973   27.8049 C   0  0  0  0  0  0  0  0  0  0  0  0
   11.0185  -15.7062   28.9970 C   0  0  0  0  0  0  0  0  0  0  0  0
   10.6065  -18.2536   25.9830 O   0  0  0  0  0  0  0  0  0  0  0  0
  1  2  1  0
  2  3  1  0
  4  3  1  0
  5  1  1  0
  5  4  1  0
  5  6  1  1
  7  6  2  0
  9 11  1  0
  9  8  1  6
 10  9  1  0
 11 12  1  6
 12  6  1  0
 13 11  1  0
 14 13  2  0
 16 15  1  0
 17 16  2  0
 18 17  1  0
 19 25  1  0
 19 18  2  0
 21 20  1  1
 20 19  1  0
 21 23  1  0
 21 22  1  0
 22 13  1  0
 23 24  1  0
 25 26  2  0
 26 16  1  0
 27 23  2  0
M  END
$$$$
