PVY.pdb
     RDKit          3D

 27 28  0  0  1  0  0  0  0  0999 V2000
   11.2003  -17.6294   19.6450 N   0  0  0  0  0  0  0  0  0  0  0  0
   12.2172  -17.9532   18.6574 C   0  0  0  0  0  0  0  0  0  0  0  0
   12.9370  -16.6319   18.4466 C   0  0  0  0  0  0  0  0  0  0  0  0
   12.5588  -15.7774   19.6510 C   0  0  0  0  0  0  0  0  0  0  0  0
   11.9302  -16.7927   20.5597 C   0  0  1  0  0  0  0  0  0  0  0  0
   11.0243  -16.2343   21.5581 C   0  0  0  0  0  0  0  0  0  0  0  0
   11.3756  -15.8585   22.7075 O   0  0  0  0  0  0  0  0  0  0  0  0
    6.5580  -14.0937   22.1649 C   0  0  0  0  0  0  0  0  0  0  0  0
    7.5929  -14.8271   21.3736 C   0  0  2  0  0  0  0  0  0  0  0  0
    6.8660  -15.8613   20.5353 C   0  0  0  0  0  0  0  0  0  0  0  0
    8.7132  -15.4088   22.1673 C   0  0  2  0  0  0  0  0  0  0  0  0
    9.6510  -16.0914   21.2467 N   0  0  0  0  0  0  0  0  0  0  0  0
    8.3428  -16.3584   23.2239 C   0  0  0  0  0  0  0  0  0  0  0  0
    8.5533  -17.5808   23.0411 O   0  0  0  0  0  0  0  0  0  0  0  0
   11.5660  -13.5918   29.0236 O   0  0  0  0  0  0  0  0  0  0  0  0
   10.4919  -14.2720   28.4652 C   0  0  0  0  0  0  0  0  0  0  0  0
    9.4406  -13.5567   27.9280 C   0  0  0  0  0  0  0  0  0  0  0  0
    8.3754  -14.2241   27.3742 C   0  0  0  0  0  0  0  0  0  0  0  0
    8.3455  -15.6181   27.3494 C   0  0  0  0  0  0  0  0  0  0  0  0
    7.1776  -16.2695   26.7535 C   0  0  0  0  0  0  0  0  0  0  0  0
    7.4962  -16.9852   25.4471 C   0  0  2  0  0  0  0  0  0  0  0  0
    7.7660  -15.9457   24.4338 N   0  0  0  0  0  0  0  0  0  0  0  0
    6.3238  -17.7497   25.0031 C   0  0  0  0  0  0  0  0  0  0  0  0
    6.0209  -18.9620   25.5848 O   0  0  0  0  0  0  0  0  0  0  0  0
    9.4031  -16.3224   27.8901 C   0  0  0  0  0  0  0  0  0  0  0  0
   10.4618  -15.6462   28.4405 C   0  0  0  0  0  0  0  0  0  0  0  0
    5.5603  -17.3413   24.0916 O   0  0  0  0  0  0  0  0  0  0  0  0
  1  2  1  0
  2  3  1  0
  4  3  1  0
  5  1  1  0
  5  4  1  0
  5  6  1  1
  7  6  2  0
  9 11  1  0
  9  8  1  1
 10  9  1  0
 11 12  1  6
 12  6  1  0
 13 11  1  0
 14 13  2  0
 16 15  1  0
 17 16  2  0
 18 17  1  0
 19 25  1  0
 19 18  2  0
 21 20  1  1
 20 19  1  0
 21 23  1  0
 21 22  1  0
 22 13  1  0
 23 24  1  0
 25 26  2  0
 26 16  1  0
 27 23  2  0
M  END
$$$$
