PVY.pdb
     RDKit          3D

 27 28  0  0  1  0  0  0  0  0999 V2000
    6.2492  -18.5028   22.0261 N   0  0  0  0  0  0  0  0  0  0  0  0
    5.1433  -19.4264   21.8307 C   0  0  0  0  0  0  0  0  0  0  0  0
    4.2489  -18.7004   20.8401 C   0  0  0  0  0  0  0  0  0  0  0  0
    5.1340  -17.6253   20.2201 C   0  0  0  0  0  0  0  0  0  0  0  0
    6.4970  -18.0478   20.6841 C   0  0  1  0  0  0  0  0  0  0  0  0
    7.4921  -16.9805   20.6938 C   0  0  0  0  0  0  0  0  0  0  0  0
    8.5250  -16.9633   19.9738 O   0  0  0  0  0  0  0  0  0  0  0  0
    6.8648  -13.6119   19.7219 C   0  0  0  0  0  0  0  0  0  0  0  0
    7.4821  -13.5096   21.0796 C   0  0  2  0  0  0  0  0  0  0  0  0
    8.3245  -12.2484   21.0948 C   0  0  0  0  0  0  0  0  0  0  0  0
    8.2349  -14.7140   21.5335 C   0  0  2  0  0  0  0  0  0  0  0  0
    7.3154  -15.8745   21.5592 N   0  0  0  0  0  0  0  0  0  0  0  0
    8.8867  -14.6226   22.8459 C   0  0  0  0  0  0  0  0  0  0  0  0
    8.8003  -13.5517   23.4921 O   0  0  0  0  0  0  0  0  0  0  0  0
    5.4160  -11.5616   26.6761 O   0  0  0  0  0  0  0  0  0  0  0  0
    6.2899  -12.6143   26.4395 C   0  0  0  0  0  0  0  0  0  0  0  0
    5.7910  -13.8273   26.0092 C   0  0  0  0  0  0  0  0  0  0  0  0
    6.6507  -14.8722   25.7735 C   0  0  0  0  0  0  0  0  0  0  0  0
    8.0236  -14.7197   25.9647 C   0  0  0  0  0  0  0  0  0  0  0  0
    8.8856  -15.8743   25.7052 C   0  0  0  0  0  0  0  0  0  0  0  0
   10.0647  -15.5458   24.7984 C   0  0  2  0  0  0  0  0  0  0  0  0
    9.5991  -15.6934   23.4050 N   0  0  0  0  0  0  0  0  0  0  0  0
   11.1423  -16.5193   25.0158 C   0  0  0  0  0  0  0  0  0  0  0  0
   11.8829  -16.4913   26.1779 O   0  0  0  0  0  0  0  0  0  0  0  0
    8.5106  -13.5015   26.3956 C   0  0  0  0  0  0  0  0  0  0  0  0
    7.6435  -12.4647   26.6279 C   0  0  0  0  0  0  0  0  0  0  0  0
   11.4316  -17.4027   24.1694 O   0  0  0  0  0  0  0  0  0  0  0  0
  1  2  1  0
  2  3  1  0
  4  3  1  0
  5  1  1  0
  5  4  1  0
  5  6  1  1
  7  6  2  0
  9 11  1  0
  9  8  1  6
 10  9  1  0
 11 12  1  1
 12  6  1  0
 13 11  1  0
 14 13  2  0
 16 15  1  0
 17 16  2  0
 18 17  1  0
 19 25  1  0
 19 18  2  0
 21 20  1  1
 20 19  1  0
 21 23  1  0
 21 22  1  0
 22 13  1  0
 23 24  1  0
 25 26  2  0
 26 16  1  0
 27 23  2  0
M  END
$$$$
