PVY.pdb
     RDKit          3D

 27 28  0  0  1  0  0  0  0  0999 V2000
    9.8082  -17.9682   16.7774 N   0  0  0  0  0  0  0  0  0  0  0  0
    9.8300  -17.7730   15.3367 C   0  0  0  0  0  0  0  0  0  0  0  0
    8.3607  -17.8188   14.9527 C   0  0  0  0  0  0  0  0  0  0  0  0
    7.6027  -17.5948   16.2562 C   0  0  0  0  0  0  0  0  0  0  0  0
    8.7002  -17.1401   17.1727 C   0  0  1  0  0  0  0  0  0  0  0  0
    8.4198  -17.3246   18.5928 C   0  0  0  0  0  0  0  0  0  0  0  0
    7.4996  -16.7361   19.2194 O   0  0  0  0  0  0  0  0  0  0  0  0
    9.0068  -20.4949   22.3759 C   0  0  0  0  0  0  0  0  0  0  0  0
    9.2537  -19.9943   20.9890 C   0  0  2  0  0  0  0  0  0  0  0  0
   10.7064  -20.2820   20.6610 C   0  0  0  0  0  0  0  0  0  0  0  0
    8.8755  -18.5730   20.7440 C   0  0  2  0  0  0  0  0  0  0  0  0
    9.2167  -18.2184   19.3474 N   0  0  0  0  0  0  0  0  0  0  0  0
    9.4848  -17.5717   21.6281 C   0  0  0  0  0  0  0  0  0  0  0  0
   10.6595  -17.1972   21.4007 O   0  0  0  0  0  0  0  0  0  0  0  0
    7.7896  -12.7702   18.1871 O   0  0  0  0  0  0  0  0  0  0  0  0
    7.9476  -13.2560   19.4782 C   0  0  0  0  0  0  0  0  0  0  0  0
    9.1724  -13.1362   20.1035 C   0  0  0  0  0  0  0  0  0  0  0  0
    9.3346  -13.6148   21.3807 C   0  0  0  0  0  0  0  0  0  0  0  0
    8.2734  -14.2208   22.0524 C   0  0  0  0  0  0  0  0  0  0  0  0
    8.5134  -14.7187   23.4082 C   0  0  0  0  0  0  0  0  0  0  0  0
    9.4569  -15.9140   23.4458 C   0  0  2  0  0  0  0  0  0  0  0  0
    8.7969  -17.0150   22.7161 N   0  0  0  0  0  0  0  0  0  0  0  0
    9.6488  -16.3494   24.8349 C   0  0  0  0  0  0  0  0  0  0  0  0
    9.0505  -17.5036   25.2927 O   0  0  0  0  0  0  0  0  0  0  0  0
    7.0531  -14.3350   21.4163 C   0  0  0  0  0  0  0  0  0  0  0  0
    6.9019  -13.8537   20.1410 C   0  0  0  0  0  0  0  0  0  0  0  0
   10.3524  -15.7022   25.6515 O   0  0  0  0  0  0  0  0  0  0  0  0
  1  2  1  0
  2  3  1  0
  4  3  1  0
  5  1  1  0
  5  4  1  0
  5  6  1  1
  7  6  2  0
  9 11  1  0
  9  8  1  1
 10  9  1  0
 11 12  1  6
 12  6  1  0
 13 11  1  0
 14 13  2  0
 16 15  1  0
 17 16  2  0
 18 17  1  0
 19 25  1  0
 19 18  2  0
 21 20  1  1
 20 19  1  0
 21 23  1  0
 21 22  1  0
 22 13  1  0
 23 24  1  0
 25 26  2  0
 26 16  1  0
 27 23  2  0
M  END
$$$$
