PVY.pdb
     RDKit          3D

 27 28  0  0  1  0  0  0  0  0999 V2000
    7.8444  -19.0005   20.9365 N   0  0  0  0  0  0  0  0  0  0  0  0
    7.1246  -20.1144   20.3403 C   0  0  0  0  0  0  0  0  0  0  0  0
    6.1732  -19.4386   19.3674 C   0  0  0  0  0  0  0  0  0  0  0  0
    6.7369  -18.0360   19.1707 C   0  0  0  0  0  0  0  0  0  0  0  0
    8.0958  -18.1635   19.7939 C   0  0  1  0  0  0  0  0  0  0  0  0
    8.6882  -16.9000   20.2205 C   0  0  0  0  0  0  0  0  0  0  0  0
    9.8656  -16.5401   19.9557 O   0  0  0  0  0  0  0  0  0  0  0  0
    6.8951  -13.6014   19.5511 C   0  0  0  0  0  0  0  0  0  0  0  0
    7.3232  -13.6487   20.9827 C   0  0  2  0  0  0  0  0  0  0  0  0
    7.6797  -12.2320   21.3907 C   0  0  0  0  0  0  0  0  0  0  0  0
    8.4008  -14.6302   21.2971 C   0  0  2  0  0  0  0  0  0  0  0  0
    7.9152  -15.9939   20.9851 N   0  0  0  0  0  0  0  0  0  0  0  0
    8.9025  -14.6319   22.6769 C   0  0  0  0  0  0  0  0  0  0  0  0
    8.8566  -13.5687   23.3398 O   0  0  0  0  0  0  0  0  0  0  0  0
    6.2233  -10.8965   26.9156 O   0  0  0  0  0  0  0  0  0  0  0  0
    6.7291  -12.1362   26.5478 C   0  0  0  0  0  0  0  0  0  0  0  0
    8.0797  -12.3862   26.6849 C   0  0  0  0  0  0  0  0  0  0  0  0
    8.5857  -13.6108   26.3228 C   0  0  0  0  0  0  0  0  0  0  0  0
    7.7480  -14.6046   25.8178 C   0  0  0  0  0  0  0  0  0  0  0  0
    8.3504  -15.8848   25.4413 C   0  0  0  0  0  0  0  0  0  0  0  0
    9.6902  -15.7278   24.7338 C   0  0  2  0  0  0  0  0  0  0  0  0
    9.4272  -15.7832   23.2820 N   0  0  0  0  0  0  0  0  0  0  0  0
   10.5646  -16.8573   25.0739 C   0  0  0  0  0  0  0  0  0  0  0  0
   10.9121  -17.7834   24.1140 O   0  0  0  0  0  0  0  0  0  0  0  0
    6.3987  -14.3424   25.6851 C   0  0  0  0  0  0  0  0  0  0  0  0
    5.9037  -13.1164   26.0497 C   0  0  0  0  0  0  0  0  0  0  0  0
   11.0252  -17.0267   26.2313 O   0  0  0  0  0  0  0  0  0  0  0  0
  1  2  1  0
  2  3  1  0
  4  3  1  0
  5  1  1  0
  5  4  1  0
  5  6  1  1
  7  6  2  0
  9 11  1  0
  9  8  1  6
 10  9  1  0
 11 12  1  1
 12  6  1  0
 13 11  1  0
 14 13  2  0
 16 15  1  0
 17 16  2  0
 18 17  1  0
 19 25  1  0
 19 18  2  0
 21 20  1  1
 20 19  1  0
 21 23  1  0
 21 22  1  0
 22 13  1  0
 23 24  1  0
 25 26  2  0
 26 16  1  0
 27 23  2  0
M  END
$$$$
