PVY.pdb
     RDKit          3D

 27 28  0  0  1  0  0  0  0  0999 V2000
    9.3709  -15.2987   14.8872 N   0  0  0  0  0  0  0  0  0  0  0  0
    8.8543  -16.2249   13.8924 C   0  0  0  0  0  0  0  0  0  0  0  0
    8.9954  -17.5796   14.5654 C   0  0  0  0  0  0  0  0  0  0  0  0
    9.1680  -17.2702   16.0481 C   0  0  0  0  0  0  0  0  0  0  0  0
    8.7986  -15.8169   16.1011 C   0  0  1  0  0  0  0  0  0  0  0  0
    9.3326  -15.0971   17.2526 C   0  0  0  0  0  0  0  0  0  0  0  0
   10.4973  -14.6228   17.3184 O   0  0  0  0  0  0  0  0  0  0  0  0
    6.7923  -14.3559   20.7724 C   0  0  0  0  0  0  0  0  0  0  0  0
    7.9733  -13.5552   20.3259 C   0  0  2  0  0  0  0  0  0  0  0  0
    7.4454  -12.4116   19.4809 C   0  0  0  0  0  0  0  0  0  0  0  0
    9.0512  -14.3285   19.6451 C   0  0  2  0  0  0  0  0  0  0  0  0
    8.5131  -14.9007   18.3897 N   0  0  0  0  0  0  0  0  0  0  0  0
    9.6613  -15.4191   20.4158 C   0  0  0  0  0  0  0  0  0  0  0  0
    9.2549  -16.5910   20.2335 O   0  0  0  0  0  0  0  0  0  0  0  0
   15.6000  -20.4472   24.3501 O   0  0  0  0  0  0  0  0  0  0  0  0
   14.9028  -19.4128   23.7403 C   0  0  0  0  0  0  0  0  0  0  0  0
   14.8795  -18.1670   24.3344 C   0  0  0  0  0  0  0  0  0  0  0  0
   14.1916  -17.1398   23.7357 C   0  0  0  0  0  0  0  0  0  0  0  0
   13.5161  -17.3432   22.5328 C   0  0  0  0  0  0  0  0  0  0  0  0
   12.7937  -16.2106   21.9507 C   0  0  0  0  0  0  0  0  0  0  0  0
   11.2808  -16.3806   21.9985 C   0  0  2  0  0  0  0  0  0  0  0  0
   10.6870  -15.1966   21.3460 N   0  0  0  0  0  0  0  0  0  0  0  0
   10.8285  -16.3958   23.3954 C   0  0  0  0  0  0  0  0  0  0  0  0
   10.8859  -17.5581   24.1340 O   0  0  0  0  0  0  0  0  0  0  0  0
   13.5466  -18.5940   21.9484 C   0  0  0  0  0  0  0  0  0  0  0  0
   14.2365  -19.6127   22.5545 C   0  0  0  0  0  0  0  0  0  0  0  0
   10.3779  -15.3712   23.9677 O   0  0  0  0  0  0  0  0  0  0  0  0
  1  2  1  0
  2  3  1  0
  4  3  1  0
  5  1  1  0
  5  4  1  0
  5  6  1  1
  7  6  2  0
  9 11  1  0
  9  8  1  6
 10  9  1  0
 11 12  1  6
 12  6  1  0
 13 11  1  0
 14 13  2  0
 16 15  1  0
 17 16  2  0
 18 17  1  0
 19 25  1  0
 19 18  2  0
 21 20  1  1
 20 19  1  0
 21 23  1  0
 21 22  1  0
 22 13  1  0
 23 24  1  0
 25 26  2  0
 26 16  1  0
 27 23  2  0
M  END
$$$$
