PVY.pdb
     RDKit          3D

 27 28  0  0  1  0  0  0  0  0999 V2000
    8.2883  -15.1128   18.6667 N   0  0  0  0  0  0  0  0  0  0  0  0
    8.3261  -14.4342   17.3813 C   0  0  0  0  0  0  0  0  0  0  0  0
    7.5751  -13.1399   17.6441 C   0  0  0  0  0  0  0  0  0  0  0  0
    7.5571  -12.9924   19.1612 C   0  0  0  0  0  0  0  0  0  0  0  0
    8.5529  -14.0336   19.5803 C   0  0  1  0  0  0  0  0  0  0  0  0
    8.4041  -14.4958   20.9564 C   0  0  0  0  0  0  0  0  0  0  0  0
    8.5348  -13.7628   21.9720 O   0  0  0  0  0  0  0  0  0  0  0  0
    6.6512  -18.0918   23.9076 C   0  0  0  0  0  0  0  0  0  0  0  0
    6.9327  -17.4728   22.5762 C   0  0  2  0  0  0  0  0  0  0  0  0
    7.2832  -18.5997   21.6235 C   0  0  0  0  0  0  0  0  0  0  0  0
    7.9477  -16.3805   22.5792 C   0  0  2  0  0  0  0  0  0  0  0  0
    8.0918  -15.8542   21.2026 N   0  0  0  0  0  0  0  0  0  0  0  0
    9.2851  -16.7309   23.0733 C   0  0  0  0  0  0  0  0  0  0  0  0
   10.1308  -17.1817   22.2650 O   0  0  0  0  0  0  0  0  0  0  0  0
    8.8513  -13.8825   29.9945 O   0  0  0  0  0  0  0  0  0  0  0  0
    9.5105  -14.2592   28.8320 C   0  0  0  0  0  0  0  0  0  0  0  0
   10.6019  -15.1006   28.9126 C   0  0  0  0  0  0  0  0  0  0  0  0
   11.2579  -15.4768   27.7660 C   0  0  0  0  0  0  0  0  0  0  0  0
   10.8320  -15.0168   26.5203 C   0  0  0  0  0  0  0  0  0  0  0  0
   11.5795  -15.4467   25.3371 C   0  0  0  0  0  0  0  0  0  0  0  0
   11.0758  -16.7633   24.7598 C   0  0  2  0  0  0  0  0  0  0  0  0
    9.6520  -16.5744   24.4178 N   0  0  0  0  0  0  0  0  0  0  0  0
   11.1551  -17.8143   25.7822 C   0  0  0  0  0  0  0  0  0  0  0  0
   10.0056  -18.3736   26.2974 O   0  0  0  0  0  0  0  0  0  0  0  0
    9.7391  -14.1754   26.4526 C   0  0  0  0  0  0  0  0  0  0  0  0
    9.0912  -13.8061   27.6036 C   0  0  0  0  0  0  0  0  0  0  0  0
   12.2519  -18.2416   26.2239 O   0  0  0  0  0  0  0  0  0  0  0  0
  1  2  1  0
  2  3  1  0
  4  3  1  0
  5  1  1  0
  5  4  1  0
  5  6  1  1
  7  6  2  0
  9 11  1  0
  9  8  1  1
 10  9  1  0
 11 12  1  6
 12  6  1  0
 13 11  1  0
 14 13  2  0
 16 15  1  0
 17 16  2  0
 18 17  1  0
 19 25  1  0
 19 18  2  0
 21 20  1  1
 20 19  1  0
 21 23  1  0
 21 22  1  0
 22 13  1  0
 23 24  1  0
 25 26  2  0
 26 16  1  0
 27 23  2  0
M  END
$$$$
