PVY.pdb
     RDKit          3D

 27 28  0  0  1  0  0  0  0  0999 V2000
    8.5395  -14.6711   19.2591 N   0  0  0  0  0  0  0  0  0  0  0  0
    8.8407  -13.7817   18.1490 C   0  0  0  0  0  0  0  0  0  0  0  0
    7.8157  -12.6705   18.2996 C   0  0  0  0  0  0  0  0  0  0  0  0
    7.3063  -12.7919   19.7313 C   0  0  0  0  0  0  0  0  0  0  0  0
    8.3031  -13.7401   20.3301 C   0  0  1  0  0  0  0  0  0  0  0  0
    7.8297  -14.4497   21.5140 C   0  0  0  0  0  0  0  0  0  0  0  0
    7.3984  -13.8885   22.5556 O   0  0  0  0  0  0  0  0  0  0  0  0
    8.1913  -18.8067   21.7423 C   0  0  0  0  0  0  0  0  0  0  0  0
    7.0037  -18.0283   22.2099 C   0  0  2  0  0  0  0  0  0  0  0  0
    5.9659  -18.0881   21.1055 C   0  0  0  0  0  0  0  0  0  0  0  0
    7.2879  -16.6362   22.6625 C   0  0  2  0  0  0  0  0  0  0  0  0
    7.8422  -15.8649   21.5265 N   0  0  0  0  0  0  0  0  0  0  0  0
    8.2053  -16.4919   23.7996 C   0  0  0  0  0  0  0  0  0  0  0  0
    9.4143  -16.2470   23.5754 O   0  0  0  0  0  0  0  0  0  0  0  0
    6.1477  -10.6268   26.0068 O   0  0  0  0  0  0  0  0  0  0  0  0
    6.6534  -11.8774   26.3352 C   0  0  0  0  0  0  0  0  0  0  0  0
    5.7849  -12.9356   26.5133 C   0  0  0  0  0  0  0  0  0  0  0  0
    6.2795  -14.1751   26.8382 C   0  0  0  0  0  0  0  0  0  0  0  0
    7.6511  -14.3754   26.9900 C   0  0  0  0  0  0  0  0  0  0  0  0
    8.1139  -15.7180   27.3462 C   0  0  0  0  0  0  0  0  0  0  0  0
    8.7895  -16.4420   26.1888 C   0  0  2  0  0  0  0  0  0  0  0  0
    7.7758  -16.6136   25.1290 N   0  0  0  0  0  0  0  0  0  0  0  0
    9.2148  -17.7790   26.6222 C   0  0  0  0  0  0  0  0  0  0  0  0
    8.5783  -18.9029   26.1412 O   0  0  0  0  0  0  0  0  0  0  0  0
    8.5098  -13.3091   26.8095 C   0  0  0  0  0  0  0  0  0  0  0  0
    8.0056  -12.0756   26.4852 C   0  0  0  0  0  0  0  0  0  0  0  0
   10.1582  -17.9543   27.4345 O   0  0  0  0  0  0  0  0  0  0  0  0
  1  2  1  0
  2  3  1  0
  4  3  1  0
  5  1  1  0
  5  4  1  0
  5  6  1  1
  7  6  2  0
  9 11  1  0
  9  8  1  6
 10  9  1  0
 11 12  1  6
 12  6  1  0
 13 11  1  0
 14 13  2  0
 16 15  1  0
 17 16  2  0
 18 17  1  0
 19 25  1  0
 19 18  2  0
 21 20  1  1
 20 19  1  0
 21 23  1  0
 21 22  1  0
 22 13  1  0
 23 24  1  0
 25 26  2  0
 26 16  1  0
 27 23  2  0
M  END
$$$$
