PVY.pdb
     RDKit          3D

 27 28  0  0  1  0  0  0  0  0999 V2000
    8.1175  -15.1408   16.8627 N   0  0  0  0  0  0  0  0  0  0  0  0
    7.6995  -14.8738   15.4958 C   0  0  0  0  0  0  0  0  0  0  0  0
    7.6799  -13.3564   15.4234 C   0  0  0  0  0  0  0  0  0  0  0  0
    8.5101  -12.8915   16.6143 C   0  0  0  0  0  0  0  0  0  0  0  0
    9.1633  -14.1706   17.0484 C   0  0  1  0  0  0  0  0  0  0  0  0
    9.6140  -14.1808   18.4362 C   0  0  0  0  0  0  0  0  0  0  0  0
   10.7958  -13.9475   18.8030 O   0  0  0  0  0  0  0  0  0  0  0  0
    8.0395  -14.1476   23.1905 C   0  0  0  0  0  0  0  0  0  0  0  0
    7.8302  -14.1938   21.7109 C   0  0  2  0  0  0  0  0  0  0  0  0
    6.7722  -15.2465   21.4409 C   0  0  0  0  0  0  0  0  0  0  0  0
    9.0629  -14.3894   20.8952 C   0  0  2  0  0  0  0  0  0  0  0  0
    8.6859  -14.4686   19.4654 N   0  0  0  0  0  0  0  0  0  0  0  0
    9.8795  -15.5669   21.2150 C   0  0  0  0  0  0  0  0  0  0  0  0
    9.5447  -16.6814   20.7483 O   0  0  0  0  0  0  0  0  0  0  0  0
   15.4606  -13.5422   18.3248 O   0  0  0  0  0  0  0  0  0  0  0  0
   14.6977  -14.4756   19.0137 C   0  0  0  0  0  0  0  0  0  0  0  0
   13.4081  -14.7388   18.5973 C   0  0  0  0  0  0  0  0  0  0  0  0
   12.6487  -15.6613   19.2747 C   0  0  0  0  0  0  0  0  0  0  0  0
   13.1679  -16.3351   20.3797 C   0  0  0  0  0  0  0  0  0  0  0  0
   12.3045  -17.2992   21.0642 C   0  0  0  0  0  0  0  0  0  0  0  0
   11.7081  -16.7536   22.3553 C   0  0  2  0  0  0  0  0  0  0  0  0
   11.0247  -15.4882   22.0206 N   0  0  0  0  0  0  0  0  0  0  0  0
   12.7842  -16.4436   23.3051 C   0  0  0  0  0  0  0  0  0  0  0  0
   12.9258  -15.1673   23.8057 O   0  0  0  0  0  0  0  0  0  0  0  0
   14.4591  -16.0631   20.7867 C   0  0  0  0  0  0  0  0  0  0  0  0
   15.2089  -15.1402   20.1032 C   0  0  0  0  0  0  0  0  0  0  0  0
   13.6070  -17.3102   23.6955 O   0  0  0  0  0  0  0  0  0  0  0  0
  1  2  1  0
  2  3  1  0
  4  3  1  0
  5  1  1  0
  5  4  1  0
  5  6  1  1
  7  6  2  0
  9 11  1  0
  9  8  1  1
 10  9  1  0
 11 12  1  6
 12  6  1  0
 13 11  1  0
 14 13  2  0
 16 15  1  0
 17 16  2  0
 18 17  1  0
 19 25  1  0
 19 18  2  0
 21 20  1  6
 20 19  1  0
 21 23  1  0
 21 22  1  0
 22 13  1  0
 23 24  1  0
 25 26  2  0
 26 16  1  0
 27 23  2  0
M  END
$$$$
