PVY.pdb
     RDKit          3D

 27 28  0  0  1  0  0  0  0  0999 V2000
    8.9356  -14.3569   18.0958 N   0  0  0  0  0  0  0  0  0  0  0  0
    9.0988  -13.4019   17.0115 C   0  0  0  0  0  0  0  0  0  0  0  0
    7.8798  -12.5051   17.1455 C   0  0  0  0  0  0  0  0  0  0  0  0
    7.3588  -12.7518   18.5567 C   0  0  0  0  0  0  0  0  0  0  0  0
    8.4968  -13.5109   19.1733 C   0  0  1  0  0  0  0  0  0  0  0  0
    8.1287  -14.3230   20.3284 C   0  0  0  0  0  0  0  0  0  0  0  0
    7.5933  -13.8715   21.3750 O   0  0  0  0  0  0  0  0  0  0  0  0
    9.1540  -18.5808   20.4373 C   0  0  0  0  0  0  0  0  0  0  0  0
    7.8410  -18.0078   20.8646 C   0  0  2  0  0  0  0  0  0  0  0  0
    6.8806  -18.1732   19.7024 C   0  0  0  0  0  0  0  0  0  0  0  0
    7.8897  -16.6097   21.3808 C   0  0  2  0  0  0  0  0  0  0  0  0
    8.3760  -15.7164   20.3046 N   0  0  0  0  0  0  0  0  0  0  0  0
    8.7185  -16.3797   22.5706 C   0  0  0  0  0  0  0  0  0  0  0  0
    9.9342  -16.1130   22.4199 O   0  0  0  0  0  0  0  0  0  0  0  0
   11.2236  -14.5550   30.7786 O   0  0  0  0  0  0  0  0  0  0  0  0
   10.4922  -14.7738   29.6188 C   0  0  0  0  0  0  0  0  0  0  0  0
    9.9671  -16.0267   29.3735 C   0  0  0  0  0  0  0  0  0  0  0  0
    9.2427  -16.2490   28.2280 C   0  0  0  0  0  0  0  0  0  0  0  0
    9.0321  -15.2209   27.3097 C   0  0  0  0  0  0  0  0  0  0  0  0
    8.2596  -15.5247   26.1037 C   0  0  0  0  0  0  0  0  0  0  0  0
    9.1084  -16.1154   24.9852 C   0  0  2  0  0  0  0  0  0  0  0  0
    8.1968  -16.4428   23.8709 N   0  0  0  0  0  0  0  0  0  0  0  0
    9.7259  -17.3672   25.4411 C   0  0  0  0  0  0  0  0  0  0  0  0
   11.0288  -17.3785   25.8905 O   0  0  0  0  0  0  0  0  0  0  0  0
    9.5626  -13.9720   27.5661 C   0  0  0  0  0  0  0  0  0  0  0  0
   10.2843  -13.7607   28.7130 C   0  0  0  0  0  0  0  0  0  0  0  0
    9.1068  -18.4614   25.4414 O   0  0  0  0  0  0  0  0  0  0  0  0
  1  2  1  0
  2  3  1  0
  4  3  1  0
  5  1  1  0
  5  4  1  0
  5  6  1  1
  7  6  2  0
  9 11  1  0
  9  8  1  6
 10  9  1  0
 11 12  1  6
 12  6  1  0
 13 11  1  0
 14 13  2  0
 16 15  1  0
 17 16  2  0
 18 17  1  0
 19 25  1  0
 19 18  2  0
 21 20  1  1
 20 19  1  0
 21 23  1  0
 21 22  1  0
 22 13  1  0
 23 24  1  0
 25 26  2  0
 26 16  1  0
 27 23  2  0
M  END
$$$$
