PVY.pdb
     RDKit          3D

 27 28  0  0  1  0  0  0  0  0999 V2000
    7.8962  -15.0756   17.1831 N   0  0  0  0  0  0  0  0  0  0  0  0
    8.0384  -13.9149   16.3190 C   0  0  0  0  0  0  0  0  0  0  0  0
    8.1991  -12.7643   17.2981 C   0  0  0  0  0  0  0  0  0  0  0  0
    8.5762  -13.4195   18.6219 C   0  0  0  0  0  0  0  0  0  0  0  0
    8.8925  -14.8209   18.1891 C   0  0  1  0  0  0  0  0  0  0  0  0
    8.7986  -15.8188   19.2497 C   0  0  0  0  0  0  0  0  0  0  0  0
    7.7496  -16.4515   19.5413 O   0  0  0  0  0  0  0  0  0  0  0  0
   11.0488  -18.9112   19.8150 C   0  0  0  0  0  0  0  0  0  0  0  0
   11.0563  -18.0242   21.0184 C   0  0  2  0  0  0  0  0  0  0  0  0
   11.2208  -18.9181   22.2327 C   0  0  0  0  0  0  0  0  0  0  0  0
    9.8963  -17.0949   21.1366 C   0  0  2  0  0  0  0  0  0  0  0  0
    9.9452  -16.1205   20.0226 N   0  0  0  0  0  0  0  0  0  0  0  0
    9.7852  -16.3428   22.3926 C   0  0  0  0  0  0  0  0  0  0  0  0
   10.6481  -15.4721   22.6559 O   0  0  0  0  0  0  0  0  0  0  0  0
    6.4117  -10.9425   28.1638 O   0  0  0  0  0  0  0  0  0  0  0  0
    6.6295  -11.9088   27.1908 C   0  0  0  0  0  0  0  0  0  0  0  0
    7.5546  -11.6721   26.1939 C   0  0  0  0  0  0  0  0  0  0  0  0
    7.7743  -12.6244   25.2288 C   0  0  0  0  0  0  0  0  0  0  0  0
    7.0716  -13.8288   25.2460 C   0  0  0  0  0  0  0  0  0  0  0  0
    7.3448  -14.7985   24.1837 C   0  0  0  0  0  0  0  0  0  0  0  0
    8.6129  -15.6068   24.4263 C   0  0  2  0  0  0  0  0  0  0  0  0
    8.7443  -16.5605   23.3068 N   0  0  0  0  0  0  0  0  0  0  0  0
    8.4743  -16.3852   25.6637 C   0  0  0  0  0  0  0  0  0  0  0  0
    8.9605  -15.8922   26.8554 O   0  0  0  0  0  0  0  0  0  0  0  0
    6.1486  -14.0538   26.2481 C   0  0  0  0  0  0  0  0  0  0  0  0
    5.9369  -13.0963   27.2071 C   0  0  0  0  0  0  0  0  0  0  0  0
    7.9180  -17.5123   25.6905 O   0  0  0  0  0  0  0  0  0  0  0  0
  1  2  1  0
  2  3  1  0
  4  3  1  0
  5  1  1  0
  5  4  1  0
  5  6  1  1
  7  6  2  0
  9 11  1  0
  9  8  1  6
 10  9  1  0
 11 12  1  6
 12  6  1  0
 13 11  1  0
 14 13  2  0
 16 15  1  0
 17 16  2  0
 18 17  1  0
 19 25  1  0
 19 18  2  0
 21 20  1  6
 20 19  1  0
 21 23  1  0
 21 22  1  0
 22 13  1  0
 23 24  1  0
 25 26  2  0
 26 16  1  0
 27 23  2  0
M  END
$$$$
