HKH.pdb
     RDKit          3D

 30 31  0  0  1  0  0  0  0  0999 V2000
   13.9687  -13.3130   18.3422 N   0  0  0  0  0  0  0  0  0  0  0  0
   13.7861  -14.7070   18.5610 C   0  0  1  0  0  0  0  0  0  0  0  0
   15.0390  -15.5156   18.3606 C   0  0  0  0  0  0  0  0  0  0  0  0
   15.5786  -15.3525   17.0136 C   0  0  0  0  0  0  0  0  0  0  0  0
   15.0498  -16.0360   15.9112 C   0  0  0  0  0  0  0  0  0  0  0  0
   15.7788  -15.6492   14.8617 N   0  0  0  0  0  0  0  0  0  0  0  0
   16.7162  -14.7732   15.2634 C   0  0  0  0  0  0  0  0  0  0  0  0
   16.5950  -14.5889   16.5878 N   0  0  0  0  0  0  0  0  0  0  0  0
   13.0954  -15.1006   19.7862 C   0  0  0  0  0  0  0  0  0  0  0  0
   13.3135  -14.4019   20.8127 O   0  0  0  0  0  0  0  0  0  0  0  0
   12.2305  -16.2215   19.7913 N   0  0  0  0  0  0  0  0  0  0  0  0
   11.5204  -16.6403   20.9371 C   0  0  1  0  0  0  0  0  0  0  0  0
   10.2927  -17.4443   20.7400 C   0  0  0  0  0  0  0  0  0  0  0  0
    9.5381  -17.8620   21.9482 C   0  0  0  0  0  0  0  0  0  0  0  0
    8.2846  -18.6291   21.7322 C   0  0  0  0  0  0  0  0  0  0  0  0
    7.6825  -18.8674   23.1304 C   0  0  0  0  0  0  0  0  0  0  0  0
    6.4061  -19.5189   23.0026 N   0  0  0  0  0  0  0  0  0  0  0  0
   12.4784  -17.3414   21.8775 C   0  0  0  0  0  0  0  0  0  0  0  0
   13.0276  -18.4135   21.5568 O   0  0  0  0  0  0  0  0  0  0  0  0
   12.7923  -16.8131   23.1570 N   0  0  0  0  0  0  0  0  0  0  0  0
   13.7200  -17.5189   24.0420 C   0  0  1  0  0  0  0  0  0  0  0  0
   14.7349  -16.5929   24.6265 C   0  0  0  0  0  0  0  0  0  0  0  0
   15.6877  -16.1725   23.5786 C   0  0  0  0  0  0  0  0  0  0  0  0
   15.6873  -16.5171   22.2411 C   0  0  0  0  0  0  0  0  0  0  0  0
   16.7433  -15.9021   21.6588 N   0  0  0  0  0  0  0  0  0  0  0  0
   17.3942  -15.1924   22.5843 C   0  0  0  0  0  0  0  0  0  0  0  0
   16.7449  -15.3653   23.7394 N   0  0  0  0  0  0  0  0  0  0  0  0
   12.9528  -18.3012   25.0104 C   0  0  0  0  0  0  0  0  0  0  0  0
   13.5079  -19.1460   25.9671 O   0  0  0  0  0  0  0  0  0  0  0  0
   11.6901  -18.2222   24.9979 O   0  0  0  0  0  0  0  0  0  0  0  0
  2  1  1  1
  2  3  1  0
  3  4  1  0
  4  5  2  0
  5  6  1  0
  7  6  1  0
  8  4  1  0
  8  7  2  0
  9 10  2  0
  9  2  1  0
 11  9  1  0
 12 11  1  0
 12 13  1  6
 14 13  1  0
 15 14  1  0
 16 15  1  0
 17 16  1  0
 18 12  1  0
 19 18  2  0
 20 18  1  0
 21 28  1  0
 21 20  1  0
 21 22  1  1
 23 22  1  0
 24 23  2  0
 25 24  1  0
 26 25  1  0
 26 27  2  0
 27 23  1  0
 28 29  1  0
 30 28  2  0
M  END
$$$$
