HKH.pdb
     RDKit          3D

 30 31  0  0  1  0  0  0  0  0999 V2000
    6.7850  -16.5692   19.5707 N   0  0  0  0  0  0  0  0  0  0  0  0
    7.4091  -15.8332   20.6163 C   0  0  1  0  0  0  0  0  0  0  0  0
    7.4066  -14.3459   20.3884 C   0  0  0  0  0  0  0  0  0  0  0  0
    7.9611  -13.9977   19.0832 C   0  0  0  0  0  0  0  0  0  0  0  0
    7.3832  -13.0184   18.2652 C   0  0  0  0  0  0  0  0  0  0  0  0
    8.1433  -12.9677   17.1688 N   0  0  0  0  0  0  0  0  0  0  0  0
    9.1457  -13.8573   17.2750 C   0  0  0  0  0  0  0  0  0  0  0  0
    9.0357  -14.4926   18.4526 N   0  0  0  0  0  0  0  0  0  0  0  0
    7.0111  -16.1572   21.9837 C   0  0  0  0  0  0  0  0  0  0  0  0
    6.0892  -15.4612   22.4887 O   0  0  0  0  0  0  0  0  0  0  0  0
    7.6517  -17.2067   22.6856 N   0  0  0  0  0  0  0  0  0  0  0  0
    7.2782  -17.6014   23.9884 C   0  0  1  0  0  0  0  0  0  0  0  0
    7.1039  -19.0476   24.2545 C   0  0  0  0  0  0  0  0  0  0  0  0
    6.1421  -19.7958   23.4067 C   0  0  0  0  0  0  0  0  0  0  0  0
    6.1047  -21.2722   23.5663 C   0  0  0  0  0  0  0  0  0  0  0  0
    5.0465  -21.7835   22.5698 C   0  0  0  0  0  0  0  0  0  0  0  0
    5.0533  -23.2221   22.5532 N   0  0  0  0  0  0  0  0  0  0  0  0
    8.2394  -16.9829   24.9818 C   0  0  0  0  0  0  0  0  0  0  0  0
    9.4561  -16.8876   24.7278 O   0  0  0  0  0  0  0  0  0  0  0  0
    7.8016  -16.4868   26.2376 N   0  0  0  0  0  0  0  0  0  0  0  0
    8.7428  -15.8215   27.1396 C   0  0  1  0  0  0  0  0  0  0  0  0
    8.0567  -14.8222   28.0112 C   0  0  0  0  0  0  0  0  0  0  0  0
    7.3862  -13.8070   27.1730 C   0  0  0  0  0  0  0  0  0  0  0  0
    7.4700  -13.6446   25.8040 C   0  0  0  0  0  0  0  0  0  0  0  0
    6.6909  -12.5899   25.4677 N   0  0  0  0  0  0  0  0  0  0  0  0
    6.1306  -12.0962   26.5749 C   0  0  0  0  0  0  0  0  0  0  0  0
    6.5599  -12.8416   27.5976 N   0  0  0  0  0  0  0  0  0  0  0  0
    9.5260  -16.8359   27.8440 C   0  0  0  0  0  0  0  0  0  0  0  0
   10.6375  -16.5709   28.6386 O   0  0  0  0  0  0  0  0  0  0  0  0
    9.1892  -18.0508   27.7389 O   0  0  0  0  0  0  0  0  0  0  0  0
  2  1  1  6
  2  3  1  0
  3  4  1  0
  4  5  2  0
  5  6  1  0
  7  6  1  0
  8  4  1  0
  8  7  2  0
  9 10  2  0
  9  2  1  0
 11  9  1  0
 12 11  1  0
 12 13  1  6
 14 13  1  0
 15 14  1  0
 16 15  1  0
 17 16  1  0
 18 12  1  0
 19 18  2  0
 20 18  1  0
 21 28  1  0
 21 20  1  0
 21 22  1  1
 23 22  1  0
 24 23  2  0
 25 24  1  0
 26 25  1  0
 26 27  2  0
 27 23  1  0
 28 29  1  0
 30 28  2  0
M  END
$$$$
