HKH.pdb
     RDKit          3D

 30 31  0  0  1  0  0  0  0  0999 V2000
    7.7128  -17.7654   15.1652 N   0  0  0  0  0  0  0  0  0  0  0  0
    8.5702  -17.8785   16.2949 C   0  0  1  0  0  0  0  0  0  0  0  0
    9.8854  -17.1678   16.1244 C   0  0  0  0  0  0  0  0  0  0  0  0
   10.7267  -17.8191   15.1243 C   0  0  0  0  0  0  0  0  0  0  0  0
   10.2912  -18.9332   14.3955 C   0  0  0  0  0  0  0  0  0  0  0  0
   11.3041  -19.2560   13.5878 N   0  0  0  0  0  0  0  0  0  0  0  0
   12.3254  -18.4041   13.7847 C   0  0  0  0  0  0  0  0  0  0  0  0
   11.9724  -17.5186   14.7301 N   0  0  0  0  0  0  0  0  0  0  0  0
    7.9843  -17.5957   17.6025 C   0  0  0  0  0  0  0  0  0  0  0  0
    7.2622  -16.5662   17.6925 O   0  0  0  0  0  0  0  0  0  0  0  0
    8.2366  -18.4535   18.7002 N   0  0  0  0  0  0  0  0  0  0  0  0
    7.6115  -18.2999   19.9565 C   0  0  1  0  0  0  0  0  0  0  0  0
    7.0368  -19.5033   20.5998 C   0  0  0  0  0  0  0  0  0  0  0  0
    5.8676  -20.1446   19.9476 C   0  0  0  0  0  0  0  0  0  0  0  0
    5.4648  -21.4847   20.4459 C   0  0  0  0  0  0  0  0  0  0  0  0
    4.3165  -21.9537   19.5317 C   0  0  0  0  0  0  0  0  0  0  0  0
    3.9123  -23.2827   19.9063 N   0  0  0  0  0  0  0  0  0  0  0  0
    8.5659  -17.5911   20.8947 C   0  0  0  0  0  0  0  0  0  0  0  0
    9.7536  -17.9541   21.0011 O   0  0  0  0  0  0  0  0  0  0  0  0
    8.1543  -16.4892   21.6892 N   0  0  0  0  0  0  0  0  0  0  0  0
    9.0897  -15.8586   22.6216 C   0  0  1  0  0  0  0  0  0  0  0  0
    8.8381  -14.3921   22.7458 C   0  0  0  0  0  0  0  0  0  0  0  0
    8.8390  -13.7712   21.4052 C   0  0  0  0  0  0  0  0  0  0  0  0
    9.0838  -14.3763   20.1880 C   0  0  0  0  0  0  0  0  0  0  0  0
    8.9790  -13.4264   19.2293 N   0  0  0  0  0  0  0  0  0  0  0  0
    8.6794  -12.2603   19.8074 C   0  0  0  0  0  0  0  0  0  0  0  0
    8.5980  -12.4839   21.1224 N   0  0  0  0  0  0  0  0  0  0  0  0
    9.0850  -16.6048   23.8792 C   0  0  0  0  0  0  0  0  0  0  0  0
    9.9682  -16.3904   24.9333 O   0  0  0  0  0  0  0  0  0  0  0  0
    8.2252  -17.5180   24.0456 O   0  0  0  0  0  0  0  0  0  0  0  0
  2  1  1  6
  2  3  1  0
  3  4  1  0
  4  5  2  0
  5  6  1  0
  7  6  1  0
  8  4  1  0
  8  7  2  0
  9 10  2  0
  9  2  1  0
 11  9  1  0
 12 11  1  0
 12 13  1  1
 14 13  1  0
 15 14  1  0
 16 15  1  0
 17 16  1  0
 18 12  1  0
 19 18  2  0
 20 18  1  0
 21 28  1  0
 21 20  1  0
 21 22  1  1
 23 22  1  0
 24 23  2  0
 25 24  1  0
 26 25  1  0
 26 27  2  0
 27 23  1  0
 28 29  1  0
 30 28  2  0
M  END
$$$$
