HKH.pdb
     RDKit          3D

 30 31  0  0  1  0  0  0  0  0999 V2000
   11.7942  -16.6034   19.3052 N   0  0  0  0  0  0  0  0  0  0  0  0
   10.4850  -16.6473   19.8606 C   0  0  1  0  0  0  0  0  0  0  0  0
    9.8201  -17.9903   19.7258 C   0  0  0  0  0  0  0  0  0  0  0  0
    8.8879  -18.0222   18.6023 C   0  0  0  0  0  0  0  0  0  0  0  0
    9.2853  -17.7133   17.2952 C   0  0  0  0  0  0  0  0  0  0  0  0
    8.1901  -17.8446   16.5431 N   0  0  0  0  0  0  0  0  0  0  0  0
    7.1547  -18.2142   17.3170 C   0  0  0  0  0  0  0  0  0  0  0  0
    7.5817  -18.3242   18.5851 N   0  0  0  0  0  0  0  0  0  0  0  0
   10.3186  -16.1101   21.2085 C   0  0  0  0  0  0  0  0  0  0  0  0
   11.3367  -16.1117   21.9521 O   0  0  0  0  0  0  0  0  0  0  0  0
    9.0597  -15.6212   21.6334 N   0  0  0  0  0  0  0  0  0  0  0  0
    8.8105  -15.1793   22.9507 C   0  0  1  0  0  0  0  0  0  0  0  0
    7.6010  -14.3604   23.1931 C   0  0  0  0  0  0  0  0  0  0  0  0
    7.3746  -13.8515   24.5691 C   0  0  0  0  0  0  0  0  0  0  0  0
    6.2279  -12.9288   24.7700 C   0  0  0  0  0  0  0  0  0  0  0  0
    6.2700  -12.5105   26.2524 C   0  0  0  0  0  0  0  0  0  0  0  0
    5.1170  -11.7072   26.5609 N   0  0  0  0  0  0  0  0  0  0  0  0
    8.8493  -16.3722   23.8827 C   0  0  0  0  0  0  0  0  0  0  0  0
    9.2363  -17.4885   23.4852 O   0  0  0  0  0  0  0  0  0  0  0  0
    8.4501  -16.2739   25.2413 N   0  0  0  0  0  0  0  0  0  0  0  0
    9.4535  -16.1823   26.3029 C   0  0  1  0  0  0  0  0  0  0  0  0
    9.2231  -14.9938   27.1767 C   0  0  0  0  0  0  0  0  0  0  0  0
   10.1666  -15.0207   28.3133 C   0  0  0  0  0  0  0  0  0  0  0  0
   11.1302  -15.9689   28.5963 C   0  0  0  0  0  0  0  0  0  0  0  0
   11.7586  -15.5883   29.7333 N   0  0  0  0  0  0  0  0  0  0  0  0
   11.2204  -14.4436   30.1619 C   0  0  0  0  0  0  0  0  0  0  0  0
   10.2598  -14.1126   29.2940 N   0  0  0  0  0  0  0  0  0  0  0  0
    9.5305  -17.4667   26.9979 C   0  0  0  0  0  0  0  0  0  0  0  0
    8.8489  -18.6185   26.6160 O   0  0  0  0  0  0  0  0  0  0  0  0
   10.2631  -17.5638   28.0248 O   0  0  0  0  0  0  0  0  0  0  0  0
  2  1  1  1
  2  3  1  0
  3  4  1  0
  4  5  2  0
  5  6  1  0
  7  6  1  0
  8  4  1  0
  8  7  2  0
  9 10  2  0
  9  2  1  0
 11  9  1  0
 12 11  1  0
 12 13  1  6
 14 13  1  0
 15 14  1  0
 16 15  1  0
 17 16  1  0
 18 12  1  0
 19 18  2  0
 20 18  1  0
 21 28  1  0
 21 20  1  0
 21 22  1  1
 23 22  1  0
 24 23  2  0
 25 24  1  0
 26 25  1  0
 26 27  2  0
 27 23  1  0
 28 29  1  0
 30 28  2  0
M  END
$$$$
