HKH.pdb
     RDKit          3D

 30 31  0  0  1  0  0  0  0  0999 V2000
    6.6144  -19.3880   16.9472 N   0  0  0  0  0  0  0  0  0  0  0  0
    6.3072  -20.4052   17.8934 C   0  0  1  0  0  0  0  0  0  0  0  0
    7.0938  -21.6717   17.6906 C   0  0  0  0  0  0  0  0  0  0  0  0
    6.9951  -22.1557   16.3164 C   0  0  0  0  0  0  0  0  0  0  0  0
    5.8131  -22.7043   15.8026 C   0  0  0  0  0  0  0  0  0  0  0  0
    6.0865  -23.0328   14.5377 N   0  0  0  0  0  0  0  0  0  0  0  0
    7.3623  -22.7158   14.2563 C   0  0  0  0  0  0  0  0  0  0  0  0
    7.9238  -22.1757   15.3497 N   0  0  0  0  0  0  0  0  0  0  0  0
    6.2880  -20.0167   19.3012 C   0  0  0  0  0  0  0  0  0  0  0  0
    7.3292  -19.4700   19.7555 O   0  0  0  0  0  0  0  0  0  0  0  0
    5.1409  -20.2594   20.0947 N   0  0  0  0  0  0  0  0  0  0  0  0
    5.0739  -19.9408   21.4683 C   0  0  1  0  0  0  0  0  0  0  0  0
    3.7426  -19.9295   22.1161 C   0  0  0  0  0  0  0  0  0  0  0  0
    2.5784  -19.5081   21.2971 C   0  0  0  0  0  0  0  0  0  0  0  0
    1.5146  -20.5178   21.0620 C   0  0  0  0  0  0  0  0  0  0  0  0
    0.3838  -19.7823   20.3173 C   0  0  0  0  0  0  0  0  0  0  0  0
   -0.7322  -20.6716   20.1333 N   0  0  0  0  0  0  0  0  0  0  0  0
    6.0339  -20.8344   22.2254 C   0  0  0  0  0  0  0  0  0  0  0  0
    6.5829  -21.8067   21.6711 O   0  0  0  0  0  0  0  0  0  0  0  0
    6.3501  -20.6068   23.5903 N   0  0  0  0  0  0  0  0  0  0  0  0
    7.7156  -20.8078   24.0774 C   0  0  1  0  0  0  0  0  0  0  0  0
    8.7008  -19.9955   23.3037 C   0  0  0  0  0  0  0  0  0  0  0  0
    9.5671  -20.8888   22.5073 C   0  0  0  0  0  0  0  0  0  0  0  0
    9.5857  -22.2698   22.4992 C   0  0  0  0  0  0  0  0  0  0  0  0
   10.5375  -22.6621   21.6202 N   0  0  0  0  0  0  0  0  0  0  0  0
   11.1059  -21.5777   21.0865 C   0  0  0  0  0  0  0  0  0  0  0  0
   10.5094  -20.5135   21.6319 N   0  0  0  0  0  0  0  0  0  0  0  0
    7.7388  -20.6098   25.5261 C   0  0  0  0  0  0  0  0  0  0  0  0
    6.6781  -20.1111   26.2766 O   0  0  0  0  0  0  0  0  0  0  0  0
    8.7887  -20.9053   26.1672 O   0  0  0  0  0  0  0  0  0  0  0  0
  2  1  1  6
  2  3  1  0
  3  4  1  0
  4  5  2  0
  5  6  1  0
  7  6  1  0
  8  4  1  0
  8  7  2  0
  9 10  2  0
  9  2  1  0
 11  9  1  0
 12 11  1  0
 12 13  1  1
 14 13  1  0
 15 14  1  0
 16 15  1  0
 17 16  1  0
 18 12  1  0
 19 18  2  0
 20 18  1  0
 21 28  1  0
 21 20  1  0
 21 22  1  6
 23 22  1  0
 24 23  2  0
 25 24  1  0
 26 25  1  0
 26 27  2  0
 27 23  1  0
 28 29  1  0
 30 28  2  0
M  END
$$$$
