HKH.pdb
     RDKit          3D

 30 31  0  0  1  0  0  0  0  0999 V2000
    8.9217  -17.4878   20.5009 N   0  0  0  0  0  0  0  0  0  0  0  0
   10.1666  -16.9474   20.9279 C   0  0  1  0  0  0  0  0  0  0  0  0
   10.8946  -16.1912   19.8499 C   0  0  0  0  0  0  0  0  0  0  0  0
   10.8857  -16.9144   18.5814 C   0  0  0  0  0  0  0  0  0  0  0  0
   10.8728  -18.3138   18.5215 C   0  0  0  0  0  0  0  0  0  0  0  0
   10.8675  -18.6205   17.2221 N   0  0  0  0  0  0  0  0  0  0  0  0
   10.8765  -17.4908   16.4933 C   0  0  0  0  0  0  0  0  0  0  0  0
   10.8876  -16.4391   17.3278 N   0  0  0  0  0  0  0  0  0  0  0  0
   10.1704  -16.2055   22.1860 C   0  0  0  0  0  0  0  0  0  0  0  0
   11.2338  -15.5986   22.4863 O   0  0  0  0  0  0  0  0  0  0  0  0
    9.0198  -16.1903   23.0109 N   0  0  0  0  0  0  0  0  0  0  0  0
    9.0599  -15.8539   24.3813 C   0  0  1  0  0  0  0  0  0  0  0  0
    7.8540  -15.2406   24.9830 C   0  0  0  0  0  0  0  0  0  0  0  0
    7.8674  -13.7749   25.2180 C   0  0  0  0  0  0  0  0  0  0  0  0
    6.6748  -13.1836   25.8772 C   0  0  0  0  0  0  0  0  0  0  0  0
    6.9939  -11.6896   26.0784 C   0  0  0  0  0  0  0  0  0  0  0  0
    5.8378  -11.0152   26.6063 N   0  0  0  0  0  0  0  0  0  0  0  0
    9.4973  -17.0697   25.1712 C   0  0  0  0  0  0  0  0  0  0  0  0
    9.0804  -18.2089   24.8844 O   0  0  0  0  0  0  0  0  0  0  0  0
   10.3954  -16.9678   26.2656 N   0  0  0  0  0  0  0  0  0  0  0  0
   10.8708  -18.1725   26.9476 C   0  0  1  0  0  0  0  0  0  0  0  0
   12.3357  -18.3775   26.7450 C   0  0  0  0  0  0  0  0  0  0  0  0
   12.5699  -19.0565   25.4539 C   0  0  0  0  0  0  0  0  0  0  0  0
   11.6365  -19.4212   24.5034 C   0  0  0  0  0  0  0  0  0  0  0  0
   12.2999  -20.0157   23.4841 N   0  0  0  0  0  0  0  0  0  0  0  0
   13.6047  -20.0318   23.7689 C   0  0  0  0  0  0  0  0  0  0  0  0
   13.7528  -19.4489   24.9622 N   0  0  0  0  0  0  0  0  0  0  0  0
   10.4289  -18.1369   28.3411 C   0  0  0  0  0  0  0  0  0  0  0  0
   10.5233  -19.2024   29.2316 O   0  0  0  0  0  0  0  0  0  0  0  0
    9.9194  -17.0713   28.7945 O   0  0  0  0  0  0  0  0  0  0  0  0
  2  1  1  6
  2  3  1  0
  3  4  1  0
  4  5  2  0
  5  6  1  0
  7  6  1  0
  8  4  1  0
  8  7  2  0
  9 10  2  0
  9  2  1  0
 11  9  1  0
 12 11  1  0
 12 13  1  1
 14 13  1  0
 15 14  1  0
 16 15  1  0
 17 16  1  0
 18 12  1  0
 19 18  2  0
 20 18  1  0
 21 28  1  0
 21 20  1  0
 21 22  1  1
 23 22  1  0
 24 23  2  0
 25 24  1  0
 26 25  1  0
 26 27  2  0
 27 23  1  0
 28 29  1  0
 30 28  2  0
M  END
$$$$
