HKH.pdb
     RDKit          3D

 30 31  0  0  1  0  0  0  0  0999 V2000
    8.6116  -16.3961   19.8452 N   0  0  0  0  0  0  0  0  0  0  0  0
    8.0184  -15.5972   20.8622 C   0  0  1  0  0  0  0  0  0  0  0  0
    6.9469  -14.6725   20.3513 C   0  0  0  0  0  0  0  0  0  0  0  0
    7.3489  -14.0100   19.1137 C   0  0  0  0  0  0  0  0  0  0  0  0
    7.9421  -12.7411   19.1065 C   0  0  0  0  0  0  0  0  0  0  0  0
    8.1713  -12.4559   17.8225 N   0  0  0  0  0  0  0  0  0  0  0  0
    7.7524  -13.4761   17.0535 C   0  0  0  0  0  0  0  0  0  0  0  0
    7.2457  -14.4340   17.8461 N   0  0  0  0  0  0  0  0  0  0  0  0
    7.5865  -16.2839   22.0767 C   0  0  0  0  0  0  0  0  0  0  0  0
    6.8924  -15.6178   22.8915 O   0  0  0  0  0  0  0  0  0  0  0  0
    7.9493  -17.6336   22.3029 N   0  0  0  0  0  0  0  0  0  0  0  0
    7.6857  -18.3086   23.5143 C   0  0  1  0  0  0  0  0  0  0  0  0
    7.6333  -19.7881   23.4896 C   0  0  0  0  0  0  0  0  0  0  0  0
    7.4383  -20.4950   24.7803 C   0  0  0  0  0  0  0  0  0  0  0  0
    7.3330  -21.9759   24.7324 C   0  0  0  0  0  0  0  0  0  0  0  0
    7.0989  -22.4353   26.1844 C   0  0  0  0  0  0  0  0  0  0  0  0
    6.9587  -23.8667   26.2220 N   0  0  0  0  0  0  0  0  0  0  0  0
    8.6583  -17.8213   24.5678 C   0  0  0  0  0  0  0  0  0  0  0  0
    9.8792  -17.7396   24.3295 O   0  0  0  0  0  0  0  0  0  0  0  0
    8.2270  -17.4381   25.8647 N   0  0  0  0  0  0  0  0  0  0  0  0
    9.1673  -16.8319   26.8084 C   0  0  1  0  0  0  0  0  0  0  0  0
    8.6541  -15.5342   27.3393 C   0  0  0  0  0  0  0  0  0  0  0  0
    9.5689  -15.0259   28.3823 C   0  0  0  0  0  0  0  0  0  0  0  0
   10.6682  -15.6573   28.9303 C   0  0  0  0  0  0  0  0  0  0  0  0
   11.2061  -14.8208   29.8487 N   0  0  0  0  0  0  0  0  0  0  0  0
   10.4818  -13.6994   29.8882 C   0  0  0  0  0  0  0  0  0  0  0  0
    9.4959  -13.8376   28.9968 N   0  0  0  0  0  0  0  0  0  0  0  0
    9.5333  -17.8229   27.8195 C   0  0  0  0  0  0  0  0  0  0  0  0
    8.7465  -18.9107   28.1867 O   0  0  0  0  0  0  0  0  0  0  0  0
   10.6409  -17.7048   28.4193 O   0  0  0  0  0  0  0  0  0  0  0  0
  2  1  1  6
  2  3  1  0
  3  4  1  0
  4  5  2  0
  5  6  1  0
  7  6  1  0
  8  4  1  0
  8  7  2  0
  9 10  2  0
  9  2  1  0
 11  9  1  0
 12 11  1  0
 12 13  1  6
 14 13  1  0
 15 14  1  0
 16 15  1  0
 17 16  1  0
 18 12  1  0
 19 18  2  0
 20 18  1  0
 21 28  1  0
 21 20  1  0
 21 22  1  1
 23 22  1  0
 24 23  2  0
 25 24  1  0
 26 25  1  0
 26 27  2  0
 27 23  1  0
 28 29  1  0
 30 28  2  0
M  END
$$$$
