HKH.pdb
     RDKit          3D

 30 31  0  0  1  0  0  0  0  0999 V2000
    6.9200  -16.7120   19.7533 N   0  0  0  0  0  0  0  0  0  0  0  0
    7.3020  -15.8734   20.8373 C   0  0  1  0  0  0  0  0  0  0  0  0
    6.8401  -14.4493   20.6868 C   0  0  0  0  0  0  0  0  0  0  0  0
    7.4161  -13.8160   19.5039 C   0  0  0  0  0  0  0  0  0  0  0  0
    8.4025  -12.8256   19.5945 C   0  0  0  0  0  0  0  0  0  0  0  0
    8.6875  -12.4822   18.3362 N   0  0  0  0  0  0  0  0  0  0  0  0
    7.9328  -13.2053   17.4907 C   0  0  0  0  0  0  0  0  0  0  0  0
    7.1493  -14.0272   18.2071 N   0  0  0  0  0  0  0  0  0  0  0  0
    7.0407  -16.3722   22.1850 C   0  0  0  0  0  0  0  0  0  0  0  0
    5.8364  -16.4062   22.5563 O   0  0  0  0  0  0  0  0  0  0  0  0
    8.1107  -16.7871   23.0141 N   0  0  0  0  0  0  0  0  0  0  0  0
    7.9173  -17.4352   24.2532 C   0  0  1  0  0  0  0  0  0  0  0  0
    8.1103  -18.9022   24.3090 C   0  0  0  0  0  0  0  0  0  0  0  0
    7.9307  -19.5741   25.6204 C   0  0  0  0  0  0  0  0  0  0  0  0
    8.2942  -21.0122   25.7002 C   0  0  0  0  0  0  0  0  0  0  0  0
    7.9820  -21.4530   27.1432 C   0  0  0  0  0  0  0  0  0  0  0  0
    8.3158  -22.8428   27.3071 N   0  0  0  0  0  0  0  0  0  0  0  0
    8.7569  -16.7410   25.3050 C   0  0  0  0  0  0  0  0  0  0  0  0
    9.9614  -16.4891   25.1054 O   0  0  0  0  0  0  0  0  0  0  0  0
    8.2144  -16.3481   26.5564 N   0  0  0  0  0  0  0  0  0  0  0  0
    9.0524  -15.6702   27.5466 C   0  0  1  0  0  0  0  0  0  0  0  0
    8.2695  -14.6815   28.3457 C   0  0  0  0  0  0  0  0  0  0  0  0
    7.7008  -13.6545   27.4486 C   0  0  0  0  0  0  0  0  0  0  0  0
    8.3036  -12.5008   26.9868 C   0  0  0  0  0  0  0  0  0  0  0  0
    7.4125  -11.8621   26.1927 N   0  0  0  0  0  0  0  0  0  0  0  0
    6.2849  -12.5764   26.1470 C   0  0  0  0  0  0  0  0  0  0  0  0
    6.4738  -13.6567   26.9106 N   0  0  0  0  0  0  0  0  0  0  0  0
    9.7764  -16.6741   28.3255 C   0  0  0  0  0  0  0  0  0  0  0  0
   10.8019  -16.3943   29.2240 O   0  0  0  0  0  0  0  0  0  0  0  0
    9.4673  -17.8934   28.1901 O   0  0  0  0  0  0  0  0  0  0  0  0
  2  1  1  6
  2  3  1  0
  3  4  1  0
  4  5  2  0
  5  6  1  0
  7  6  1  0
  8  4  1  0
  8  7  2  0
  9 10  2  0
  9  2  1  0
 11  9  1  0
 12 11  1  0
 12 13  1  6
 14 13  1  0
 15 14  1  0
 16 15  1  0
 17 16  1  0
 18 12  1  0
 19 18  2  0
 20 18  1  0
 21 28  1  0
 21 20  1  0
 21 22  1  1
 23 22  1  0
 24 23  2  0
 25 24  1  0
 26 25  1  0
 26 27  2  0
 27 23  1  0
 28 29  1  0
 30 28  2  0
M  END
$$$$
