HKH.pdb
     RDKit          3D

 30 31  0  0  1  0  0  0  0  0999 V2000
    7.8182  -15.8831   19.6306 N   0  0  0  0  0  0  0  0  0  0  0  0
    9.1581  -15.6243   20.0331 C   0  0  1  0  0  0  0  0  0  0  0  0
    9.9258  -14.7763   19.0556 C   0  0  0  0  0  0  0  0  0  0  0  0
    9.1616  -14.5305   17.8359 C   0  0  0  0  0  0  0  0  0  0  0  0
    7.9440  -13.8380   17.8462 C   0  0  0  0  0  0  0  0  0  0  0  0
    7.5368  -13.8026   16.5753 N   0  0  0  0  0  0  0  0  0  0  0  0
    8.4349  -14.4320   15.7975 C   0  0  0  0  0  0  0  0  0  0  0  0
    9.4360  -14.8809   16.5713 N   0  0  0  0  0  0  0  0  0  0  0  0
    9.3608  -15.1623   21.4038 C   0  0  0  0  0  0  0  0  0  0  0  0
   10.5452  -14.9007   21.7475 O   0  0  0  0  0  0  0  0  0  0  0  0
    8.2597  -15.0282   22.2837 N   0  0  0  0  0  0  0  0  0  0  0  0
    8.3888  -14.5743   23.6141 C   0  0  1  0  0  0  0  0  0  0  0  0
    7.2611  -13.8173   24.2037 C   0  0  0  0  0  0  0  0  0  0  0  0
    7.4344  -13.2736   25.5741 C   0  0  0  0  0  0  0  0  0  0  0  0
    6.3086  -12.4852   26.1374 C   0  0  0  0  0  0  0  0  0  0  0  0
    6.7699  -12.0160   27.5308 C   0  0  0  0  0  0  0  0  0  0  0  0
    5.7808  -11.1381   28.0973 N   0  0  0  0  0  0  0  0  0  0  0  0
    8.7715  -15.7447   24.4956 C   0  0  0  0  0  0  0  0  0  0  0  0
    7.9575  -16.6541   24.7489 O   0  0  0  0  0  0  0  0  0  0  0  0
   10.0651  -15.8584   25.0687 N   0  0  0  0  0  0  0  0  0  0  0  0
   10.3948  -16.9930   25.9326 C   0  0  1  0  0  0  0  0  0  0  0  0
   11.8343  -17.3720   25.8176 C   0  0  0  0  0  0  0  0  0  0  0  0
   12.1220  -17.8244   24.4409 C   0  0  0  0  0  0  0  0  0  0  0  0
   11.2263  -18.0375   23.4113 C   0  0  0  0  0  0  0  0  0  0  0  0
   11.9326  -18.4467   22.3314 N   0  0  0  0  0  0  0  0  0  0  0  0
   13.2276  -18.4941   22.6548 C   0  0  0  0  0  0  0  0  0  0  0  0
   13.3269  -18.1155   23.9325 N   0  0  0  0  0  0  0  0  0  0  0  0
    9.9264  -16.7110   27.2890 C   0  0  0  0  0  0  0  0  0  0  0  0
    9.2908  -15.5368   27.6817 O   0  0  0  0  0  0  0  0  0  0  0  0
   10.1004  -17.5821   28.1898 O   0  0  0  0  0  0  0  0  0  0  0  0
  2  1  1  6
  2  3  1  0
  3  4  1  0
  4  5  2  0
  5  6  1  0
  7  6  1  0
  8  4  1  0
  8  7  2  0
  9 10  2  0
  9  2  1  0
 11  9  1  0
 12 11  1  0
 12 13  1  1
 14 13  1  0
 15 14  1  0
 16 15  1  0
 17 16  1  0
 18 12  1  0
 19 18  2  0
 20 18  1  0
 21 28  1  0
 21 20  1  0
 21 22  1  1
 23 22  1  0
 24 23  2  0
 25 24  1  0
 26 25  1  0
 26 27  2  0
 27 23  1  0
 28 29  1  0
 30 28  2  0
M  END
$$$$
