HKH.pdb
     RDKit          3D

 30 31  0  0  1  0  0  0  0  0999 V2000
    9.3025  -19.4549   15.1641 N   0  0  0  0  0  0  0  0  0  0  0  0
   10.0147  -18.4766   15.9125 C   0  0  1  0  0  0  0  0  0  0  0  0
   10.2116  -17.1808   15.1735 C   0  0  0  0  0  0  0  0  0  0  0  0
   11.0268  -17.3598   13.9754 C   0  0  0  0  0  0  0  0  0  0  0  0
   10.4590  -17.5249   12.7055 C   0  0  0  0  0  0  0  0  0  0  0  0
   11.4868  -17.6584   11.8640 N   0  0  0  0  0  0  0  0  0  0  0  0
   12.6414  -17.5839   12.5487 C   0  0  0  0  0  0  0  0  0  0  0  0
   12.3609  -17.4000   13.8487 N   0  0  0  0  0  0  0  0  0  0  0  0
    9.5711  -18.2389   17.2837 C   0  0  0  0  0  0  0  0  0  0  0  0
    8.3318  -18.3134   17.5024 O   0  0  0  0  0  0  0  0  0  0  0  0
   10.5119  -17.9370   18.2977 N   0  0  0  0  0  0  0  0  0  0  0  0
   10.2335  -18.0832   19.6738 C   0  0  1  0  0  0  0  0  0  0  0  0
    9.7926  -19.4114   20.1576 C   0  0  0  0  0  0  0  0  0  0  0  0
    9.4881  -19.5548   21.6034 C   0  0  0  0  0  0  0  0  0  0  0  0
    9.0665  -20.8982   22.0767 C   0  0  0  0  0  0  0  0  0  0  0  0
    8.9249  -20.7876   23.6070 C   0  0  0  0  0  0  0  0  0  0  0  0
    8.5735  -22.0710   24.1541 N   0  0  0  0  0  0  0  0  0  0  0  0
   11.4230  -17.5877   20.4692 C   0  0  0  0  0  0  0  0  0  0  0  0
   12.2046  -18.3847   21.0241 O   0  0  0  0  0  0  0  0  0  0  0  0
   11.7001  -16.2035   20.6176 N   0  0  0  0  0  0  0  0  0  0  0  0
   11.3022  -15.4952   21.8350 C   0  0  1  0  0  0  0  0  0  0  0  0
    9.8173  -15.3925   21.9513 C   0  0  0  0  0  0  0  0  0  0  0  0
    9.3036  -14.4389   20.9465 C   0  0  0  0  0  0  0  0  0  0  0  0
   10.0197  -13.7349   19.9982 C   0  0  0  0  0  0  0  0  0  0  0  0
    9.1406  -12.9829   19.2952 N   0  0  0  0  0  0  0  0  0  0  0  0
    7.9115  -13.1957   19.7727 C   0  0  0  0  0  0  0  0  0  0  0  0
    8.0255  -14.0777   20.7701 N   0  0  0  0  0  0  0  0  0  0  0  0
   11.9812  -16.0986   22.9810 C   0  0  0  0  0  0  0  0  0  0  0  0
   12.5109  -15.3886   24.0545 O   0  0  0  0  0  0  0  0  0  0  0  0
   12.1100  -17.3565   23.0231 O   0  0  0  0  0  0  0  0  0  0  0  0
  2  1  1  6
  2  3  1  0
  3  4  1  0
  4  5  2  0
  5  6  1  0
  7  6  1  0
  8  4  1  0
  8  7  2  0
  9 10  2  0
  9  2  1  0
 11  9  1  0
 12 11  1  0
 12 13  1  6
 14 13  1  0
 15 14  1  0
 16 15  1  0
 17 16  1  0
 18 12  1  0
 19 18  2  0
 20 18  1  0
 21 28  1  0
 21 20  1  0
 21 22  1  1
 23 22  1  0
 24 23  2  0
 25 24  1  0
 26 25  1  0
 26 27  2  0
 27 23  1  0
 28 29  1  0
 30 28  2  0
M  END
$$$$
