HKH.pdb
     RDKit          3D

 30 31  0  0  1  0  0  0  0  0999 V2000
    9.1720  -16.0439   19.8560 N   0  0  0  0  0  0  0  0  0  0  0  0
    8.2042  -15.2375   20.5174 C   0  0  1  0  0  0  0  0  0  0  0  0
    7.0609  -14.8231   19.6313 C   0  0  0  0  0  0  0  0  0  0  0  0
    7.5187  -14.4528   18.2951 C   0  0  0  0  0  0  0  0  0  0  0  0
    8.2161  -13.2631   18.0493 C   0  0  0  0  0  0  0  0  0  0  0  0
    8.4702  -13.2566   16.7386 N   0  0  0  0  0  0  0  0  0  0  0  0
    7.9684  -14.3706   16.1776 C   0  0  0  0  0  0  0  0  0  0  0  0
    7.3822  -15.1086   17.1337 N   0  0  0  0  0  0  0  0  0  0  0  0
    7.7223  -15.7091   21.8130 C   0  0  0  0  0  0  0  0  0  0  0  0
    6.7908  -15.0499   22.3487 O   0  0  0  0  0  0  0  0  0  0  0  0
    8.2967  -16.8540   22.4163 N   0  0  0  0  0  0  0  0  0  0  0  0
    7.9219  -17.3197   23.6950 C   0  0  1  0  0  0  0  0  0  0  0  0
    7.3170  -18.6675   23.7952 C   0  0  0  0  0  0  0  0  0  0  0  0
    6.8350  -19.1121   25.1269 C   0  0  0  0  0  0  0  0  0  0  0  0
    7.2404  -20.4688   25.5757 C   0  0  0  0  0  0  0  0  0  0  0  0
    6.7386  -20.6074   27.0260 C   0  0  0  0  0  0  0  0  0  0  0  0
    7.1204  -21.8922   27.5490 N   0  0  0  0  0  0  0  0  0  0  0  0
    9.1062  -17.1898   24.6298 C   0  0  0  0  0  0  0  0  0  0  0  0
    9.5273  -18.1687   25.2767 O   0  0  0  0  0  0  0  0  0  0  0  0
    9.7857  -15.9567   24.8101 N   0  0  0  0  0  0  0  0  0  0  0  0
    9.1908  -14.8959   25.6244 C   0  0  1  0  0  0  0  0  0  0  0  0
    7.8741  -14.4546   25.0764 C   0  0  0  0  0  0  0  0  0  0  0  0
    7.3746  -13.2990   25.8497 C   0  0  0  0  0  0  0  0  0  0  0  0
    8.0236  -12.5997   26.8485 C   0  0  0  0  0  0  0  0  0  0  0  0
    7.1894  -11.6219   27.2731 N   0  0  0  0  0  0  0  0  0  0  0  0
    6.0524  -11.6910   26.5758 C   0  0  0  0  0  0  0  0  0  0  0  0
    6.1788  -12.7090   25.7194 N   0  0  0  0  0  0  0  0  0  0  0  0
    9.1779  -15.3199   27.0239 C   0  0  0  0  0  0  0  0  0  0  0  0
    8.5499  -16.4670   27.5004 O   0  0  0  0  0  0  0  0  0  0  0  0
    9.7735  -14.6088   27.8842 O   0  0  0  0  0  0  0  0  0  0  0  0
  2  1  1  6
  2  3  1  0
  3  4  1  0
  4  5  2  0
  5  6  1  0
  7  6  1  0
  8  4  1  0
  8  7  2  0
  9 10  2  0
  9  2  1  0
 11  9  1  0
 12 11  1  0
 12 13  1  6
 14 13  1  0
 15 14  1  0
 16 15  1  0
 17 16  1  0
 18 12  1  0
 19 18  2  0
 20 18  1  0
 21 28  1  0
 21 20  1  0
 21 22  1  6
 23 22  1  0
 24 23  2  0
 25 24  1  0
 26 25  1  0
 26 27  2  0
 27 23  1  0
 28 29  1  0
 30 28  2  0
M  END
$$$$
