HKH.pdb
     RDKit          3D

 30 31  0  0  1  0  0  0  0  0999 V2000
    7.6046  -16.7565   19.4409 N   0  0  0  0  0  0  0  0  0  0  0  0
    8.8169  -16.3291   20.0509 C   0  0  1  0  0  0  0  0  0  0  0  0
    8.9104  -14.8370   20.2205 C   0  0  0  0  0  0  0  0  0  0  0  0
    8.5853  -14.1305   18.9847 C   0  0  0  0  0  0  0  0  0  0  0  0
    7.5799  -13.1570   18.9252 C   0  0  0  0  0  0  0  0  0  0  0  0
    7.5616  -12.7322   17.6597 N   0  0  0  0  0  0  0  0  0  0  0  0
    8.4954  -13.3903   16.9508 C   0  0  0  0  0  0  0  0  0  0  0  0
    9.1269  -14.2517   17.7643 N   0  0  0  0  0  0  0  0  0  0  0  0
    9.2275  -17.0244   21.2679 C   0  0  0  0  0  0  0  0  0  0  0  0
    8.3734  -17.1091   22.1913 O   0  0  0  0  0  0  0  0  0  0  0  0
   10.5317  -17.5642   21.3780 N   0  0  0  0  0  0  0  0  0  0  0  0
   10.9639  -18.3102   22.4958 C   0  0  1  0  0  0  0  0  0  0  0  0
   12.1409  -19.1933   22.3304 C   0  0  0  0  0  0  0  0  0  0  0  0
   12.6107  -19.9493   23.5183 C   0  0  0  0  0  0  0  0  0  0  0  0
   13.8496  -20.7539   23.3627 C   0  0  0  0  0  0  0  0  0  0  0  0
   14.1035  -21.4173   24.7301 C   0  0  0  0  0  0  0  0  0  0  0  0
   15.3169  -22.1884   24.6754 N   0  0  0  0  0  0  0  0  0  0  0  0
   11.1562  -17.3699   23.6671 C   0  0  0  0  0  0  0  0  0  0  0  0
   11.7862  -16.3017   23.5397 O   0  0  0  0  0  0  0  0  0  0  0  0
   10.6314  -17.6598   24.9537 N   0  0  0  0  0  0  0  0  0  0  0  0
   10.9537  -16.8023   26.0952 C   0  0  1  0  0  0  0  0  0  0  0  0
    9.7364  -16.1321   26.6409 C   0  0  0  0  0  0  0  0  0  0  0  0
   10.0893  -15.3718   27.8576 C   0  0  0  0  0  0  0  0  0  0  0  0
   11.3311  -15.2404   28.4478 C   0  0  0  0  0  0  0  0  0  0  0  0
   11.1847  -14.4549   29.5405 N   0  0  0  0  0  0  0  0  0  0  0  0
    9.9023  -14.0973   29.6469 C   0  0  0  0  0  0  0  0  0  0  0  0
    9.2524  -14.6587   28.6232 N   0  0  0  0  0  0  0  0  0  0  0  0
   11.7342  -17.5714   27.0636 C   0  0  0  0  0  0  0  0  0  0  0  0
   11.2928  -18.7277   27.7003 O   0  0  0  0  0  0  0  0  0  0  0  0
   12.8987  -17.1773   27.3621 O   0  0  0  0  0  0  0  0  0  0  0  0
  2  1  1  1
  2  3  1  0
  3  4  1  0
  4  5  2  0
  5  6  1  0
  7  6  1  0
  8  4  1  0
  8  7  2  0
  9 10  2  0
  9  2  1  0
 11  9  1  0
 12 11  1  0
 12 13  1  6
 14 13  1  0
 15 14  1  0
 16 15  1  0
 17 16  1  0
 18 12  1  0
 19 18  2  0
 20 18  1  0
 21 28  1  0
 21 20  1  0
 21 22  1  1
 23 22  1  0
 24 23  2  0
 25 24  1  0
 26 25  1  0
 26 27  2  0
 27 23  1  0
 28 29  1  0
 30 28  2  0
M  END
$$$$
