HKH.pdb
     RDKit          3D

 30 31  0  0  1  0  0  0  0  0999 V2000
    9.8573  -17.4438   15.6242 N   0  0  0  0  0  0  0  0  0  0  0  0
    8.9072  -16.7126   16.3903 C   0  0  1  0  0  0  0  0  0  0  0  0
    7.6219  -16.4439   15.6554 C   0  0  0  0  0  0  0  0  0  0  0  0
    7.8588  -15.7840   14.3746 C   0  0  0  0  0  0  0  0  0  0  0  0
    7.8215  -14.3906   14.2361 C   0  0  0  0  0  0  0  0  0  0  0  0
    8.0795  -14.1477   12.9489 N   0  0  0  0  0  0  0  0  0  0  0  0
    8.2705  -15.3103   12.3012 C   0  0  0  0  0  0  0  0  0  0  0  0
    8.1351  -16.3191   13.1768 N   0  0  0  0  0  0  0  0  0  0  0  0
    8.6488  -17.1822   17.7489 C   0  0  0  0  0  0  0  0  0  0  0  0
    7.5928  -16.7723   18.3022 O   0  0  0  0  0  0  0  0  0  0  0  0
    9.5620  -18.0535   18.3904 N   0  0  0  0  0  0  0  0  0  0  0  0
    9.3888  -18.5105   19.7147 C   0  0  1  0  0  0  0  0  0  0  0  0
    9.8557  -19.8759   20.0466 C   0  0  0  0  0  0  0  0  0  0  0  0
    9.5998  -20.3798   21.4192 C   0  0  0  0  0  0  0  0  0  0  0  0
    9.9651  -21.7916   21.7015 C   0  0  0  0  0  0  0  0  0  0  0  0
    9.5123  -22.0697   23.1479 C   0  0  0  0  0  0  0  0  0  0  0  0
    9.6979  -23.4634   23.4531 N   0  0  0  0  0  0  0  0  0  0  0  0
    9.9822  -17.4921   20.6655 C   0  0  0  0  0  0  0  0  0  0  0  0
   11.1565  -17.0950   20.5340 O   0  0  0  0  0  0  0  0  0  0  0  0
    9.2336  -16.9473   21.7414 N   0  0  0  0  0  0  0  0  0  0  0  0
    9.8308  -15.9465   22.6268 C   0  0  1  0  0  0  0  0  0  0  0  0
    8.8732  -14.8433   22.9352 C   0  0  0  0  0  0  0  0  0  0  0  0
    8.6535  -14.0220   21.7270 C   0  0  0  0  0  0  0  0  0  0  0  0
    9.2654  -14.1417   20.4946 C   0  0  0  0  0  0  0  0  0  0  0  0
    8.7571  -13.1798   19.6891 N   0  0  0  0  0  0  0  0  0  0  0  0
    7.8565  -12.4723   20.3762 C   0  0  0  0  0  0  0  0  0  0  0  0
    7.8045  -12.9926   21.6060 N   0  0  0  0  0  0  0  0  0  0  0  0
   10.4062  -16.6215   23.7895 C   0  0  0  0  0  0  0  0  0  0  0  0
   11.2283  -16.0142   24.7341 O   0  0  0  0  0  0  0  0  0  0  0  0
   10.1537  -17.8477   23.9721 O   0  0  0  0  0  0  0  0  0  0  0  0
  2  1  1  6
  2  3  1  0
  3  4  1  0
  4  5  2  0
  5  6  1  0
  7  6  1  0
  8  4  1  0
  8  7  2  0
  9 10  2  0
  9  2  1  0
 11  9  1  0
 12 11  1  0
 12 13  1  6
 14 13  1  0
 15 14  1  0
 16 15  1  0
 17 16  1  0
 18 12  1  0
 19 18  2  0
 20 18  1  0
 21 28  1  0
 21 20  1  0
 21 22  1  1
 23 22  1  0
 24 23  2  0
 25 24  1  0
 26 25  1  0
 26 27  2  0
 27 23  1  0
 28 29  1  0
 30 28  2  0
M  END
$$$$
