HKH.pdb
     RDKit          3D

 30 31  0  0  1  0  0  0  0  0999 V2000
   10.7242  -15.8143   19.0787 N   0  0  0  0  0  0  0  0  0  0  0  0
    9.6733  -16.2063   19.9540 C   0  0  1  0  0  0  0  0  0  0  0  0
    9.3801  -17.6816   19.9178 C   0  0  0  0  0  0  0  0  0  0  0  0
    9.1457  -18.1534   18.5559 C   0  0  0  0  0  0  0  0  0  0  0  0
    8.1269  -17.6286   17.7505 C   0  0  0  0  0  0  0  0  0  0  0  0
    8.2071  -18.2857   16.5911 N   0  0  0  0  0  0  0  0  0  0  0  0
    9.2130  -19.1759   16.6474 C   0  0  0  0  0  0  0  0  0  0  0  0
    9.7923  -19.0964   17.8559 N   0  0  0  0  0  0  0  0  0  0  0  0
    9.7377  -15.7156   21.3282 C   0  0  0  0  0  0  0  0  0  0  0  0
   10.7560  -16.0344   21.9997 O   0  0  0  0  0  0  0  0  0  0  0  0
    8.6886  -14.9245   21.8553 N   0  0  0  0  0  0  0  0  0  0  0  0
    8.4984  -14.7217   23.2392 C   0  0  1  0  0  0  0  0  0  0  0  0
    7.1892  -14.1993   23.6928 C   0  0  0  0  0  0  0  0  0  0  0  0
    7.0353  -13.8751   25.1332 C   0  0  0  0  0  0  0  0  0  0  0  0
    6.9977  -12.4370   25.5035 C   0  0  0  0  0  0  0  0  0  0  0  0
    6.8428  -12.3938   27.0359 C   0  0  0  0  0  0  0  0  0  0  0  0
    5.7189  -11.5662   27.3851 N   0  0  0  0  0  0  0  0  0  0  0  0
    8.8533  -15.9974   23.9741 C   0  0  0  0  0  0  0  0  0  0  0  0
    9.0021  -17.0735   23.3627 O   0  0  0  0  0  0  0  0  0  0  0  0
    9.0318  -16.0252   25.3820 N   0  0  0  0  0  0  0  0  0  0  0  0
   10.0999  -16.8297   25.9771 C   0  0  1  0  0  0  0  0  0  0  0  0
   11.4219  -16.5425   25.3455 C   0  0  0  0  0  0  0  0  0  0  0  0
   11.8153  -17.6716   24.4776 C   0  0  0  0  0  0  0  0  0  0  0  0
   11.0949  -18.8145   24.1905 C   0  0  0  0  0  0  0  0  0  0  0  0
   11.8425  -19.5710   23.3531 N   0  0  0  0  0  0  0  0  0  0  0  0
   12.9947  -18.9397   23.1131 C   0  0  0  0  0  0  0  0  0  0  0  0
   12.9642  -17.7934   23.7992 N   0  0  0  0  0  0  0  0  0  0  0  0
   10.0538  -16.6824   27.4313 C   0  0  0  0  0  0  0  0  0  0  0  0
   10.0820  -15.4663   28.1076 O   0  0  0  0  0  0  0  0  0  0  0  0
    9.9835  -17.7215   28.1496 O   0  0  0  0  0  0  0  0  0  0  0  0
  2  1  1  1
  2  3  1  0
  3  4  1  0
  4  5  2  0
  5  6  1  0
  7  6  1  0
  8  4  1  0
  8  7  2  0
  9 10  2  0
  9  2  1  0
 11  9  1  0
 12 11  1  0
 12 13  1  6
 14 13  1  0
 15 14  1  0
 16 15  1  0
 17 16  1  0
 18 12  1  0
 19 18  2  0
 20 18  1  0
 21 28  1  0
 21 20  1  0
 21 22  1  6
 23 22  1  0
 24 23  2  0
 25 24  1  0
 26 25  1  0
 26 27  2  0
 27 23  1  0
 28 29  1  0
 30 28  2  0
M  END
$$$$
