RKE.pdb
     RDKit          3D

 30 29  0  0  1  0  0  0  0  0999 V2000
    7.4897  -13.8697   14.1068 N   0  0  0  0  0  0  0  0  0  0  0  0
    7.7617  -15.2640   14.3129 C   0  0  0  0  0  0  0  0  0  0  0  0
    6.8370  -16.1150   14.1003 N   0  0  0  0  0  0  0  0  0  0  0  0
    9.0276  -15.7059   14.7444 N   0  0  0  0  0  0  0  0  0  0  0  0
    9.3259  -15.7624   16.1884 C   0  0  0  0  0  0  0  0  0  0  0  0
    8.0449  -15.4827   16.8977 C   0  0  0  0  0  0  0  0  0  0  0  0
    8.1302  -15.5384   18.3674 C   0  0  0  0  0  0  0  0  0  0  0  0
    7.7034  -14.3027   19.0564 C   0  0  2  0  0  0  0  0  0  0  0  0
    8.0651  -13.1311   18.3236 N   0  0  0  0  0  0  0  0  0  0  0  0
    8.2803  -14.2363   20.4538 C   0  0  0  0  0  0  0  0  0  0  0  0
    9.5428  -14.1785   20.5999 O   0  0  0  0  0  0  0  0  0  0  0  0
    6.9403  -17.1350   14.2078 N   0  0  0  0  0  0  0  0  0  0  0  0
    7.3744  -14.2425   21.5243 C   0  0  2  0  0  0  0  0  0  0  0  0
    7.8645  -14.0921   22.8933 C   0  0  0  0  0  0  0  0  0  0  0  0
    6.7712  -13.5756   23.7625 C   0  0  0  0  0  0  0  0  0  0  0  0
    7.1815  -13.3313   25.1654 C   0  0  0  0  0  0  0  0  0  0  0  0
    6.1033  -12.5824   25.9379 C   0  0  0  0  0  0  0  0  0  0  0  0
    6.4967  -12.2662   27.3543 N   0  0  0  0  0  0  0  0  0  0  0  0
    5.3687  -11.5474   27.9791 C   0  0  0  0  0  0  0  0  0  0  0  0
    8.4182  -15.3463   23.3967 O   0  0  0  0  0  0  0  0  0  0  0  0
    7.7934  -16.4142   23.3167 N   0  0  0  0  0  0  0  0  0  0  0  0
    9.7103  -15.4396   24.0148 C   0  0  1  0  0  0  0  0  0  0  0  0
   10.2396  -16.7010   24.5177 C   0  0  0  0  0  0  0  0  0  0  0  0
   11.7428  -16.5850   24.3784 C   0  0  0  0  0  0  0  0  0  0  0  0
   12.2898  -17.0639   23.0810 C   0  0  0  0  0  0  0  0  0  0  0  0
   13.7334  -16.9324   22.9088 O   0  0  0  0  0  0  0  0  0  0  0  0
   14.2127  -16.5278   21.8316 C   0  0  0  0  0  0  0  0  0  0  0  0
    9.8602  -16.8883   25.9384 O   0  0  0  0  0  0  0  0  0  0  0  0
    9.3110  -17.9670   26.2745 O   0  0  0  0  0  0  0  0  0  0  0  0
   14.5919  -17.2545   23.9379 O   0  0  0  0  0  0  0  0  0  0  0  0
  2  1  1  0
  2  4  1  0
  3  2  2  0
  5  4  1  0
  6  5  1  0
  7  6  1  0
  8  7  1  0
  8  9  1  6
 10  8  1  0
 10 11  2  0
 12 10  1  0
 13 12  1  0
 13 14  1  6
 15 14  1  0
 16 15  1  0
 17 16  1  0
 18 17  1  0
 19 13  1  0
 20 19  2  0
 21 19  1  0
 22 23  1  1
 22 21  1  0
 23 24  1  0
 24 25  1  0
 25 26  2  0
 25 29  1  0
 27 22  1  0
 28 27  2  0
 30 27  1  0
M  END
$$$$
