RKE.pdb
     RDKit          3D

 30 29  0  0  1  0  0  0  0  0999 V2000
    8.5725  -14.7866   18.0344 N   0  0  0  0  0  0  0  0  0  0  0  0
    8.0890  -13.4679   17.7377 C   0  0  0  0  0  0  0  0  0  0  0  0
    8.0668  -13.0728   16.5261 N   0  0  0  0  0  0  0  0  0  0  0  0
    7.6408  -12.6069   18.7583 N   0  0  0  0  0  0  0  0  0  0  0  0
    7.9395  -12.9298   20.1668 C   0  0  0  0  0  0  0  0  0  0  0  0
    7.1127  -14.1207   20.5138 C   0  0  0  0  0  0  0  0  0  0  0  0
    7.3171  -14.6353   21.8791 C   0  0  0  0  0  0  0  0  0  0  0  0
    8.1597  -15.8466   21.9611 C   0  0  2  0  0  0  0  0  0  0  0  0
    7.8624  -16.7750   20.9168 N   0  0  0  0  0  0  0  0  0  0  0  0
    8.0094  -16.5193   23.3081 C   0  0  0  0  0  0  0  0  0  0  0  0
    8.0717  -15.8118   24.3636 O   0  0  0  0  0  0  0  0  0  0  0  0
    7.7517  -12.1412   16.2170 N   0  0  0  0  0  0  0  0  0  0  0  0
    7.8070  -17.9070   23.3147 C   0  0  1  0  0  0  0  0  0  0  0  0
    7.7744  -18.6318   24.5838 C   0  0  0  0  0  0  0  0  0  0  0  0
    7.0796  -19.9357   24.3980 C   0  0  0  0  0  0  0  0  0  0  0  0
    6.9746  -20.7441   25.6355 C   0  0  0  0  0  0  0  0  0  0  0  0
    6.2535  -22.0612   25.3802 C   0  0  0  0  0  0  0  0  0  0  0  0
    6.0812  -22.8957   26.6191 N   0  0  0  0  0  0  0  0  0  0  0  0
    5.4664  -24.1746   26.2119 C   0  0  0  0  0  0  0  0  0  0  0  0
    9.1182  -18.8003   25.1304 O   0  0  0  0  0  0  0  0  0  0  0  0
    9.3280  -19.4719   26.1513 N   0  0  0  0  0  0  0  0  0  0  0  0
   10.2846  -18.2103   24.5373 C   0  0  2  0  0  0  0  0  0  0  0  0
   11.6060  -18.3313   25.1399 C   0  0  0  0  0  0  0  0  0  0  0  0
   12.5024  -17.4310   24.3163 C   0  0  0  0  0  0  0  0  0  0  0  0
   12.6023  -17.7942   22.8776 C   0  0  0  0  0  0  0  0  0  0  0  0
   13.5450  -17.0107   22.0849 O   0  0  0  0  0  0  0  0  0  0  0  0
   14.2235  -16.1071   22.6112 C   0  0  0  0  0  0  0  0  0  0  0  0
   11.5707  -17.8818   26.5521 O   0  0  0  0  0  0  0  0  0  0  0  0
   10.5784  -17.2194   26.9452 O   0  0  0  0  0  0  0  0  0  0  0  0
   13.7000  -17.2583   20.7378 O   0  0  0  0  0  0  0  0  0  0  0  0
  2  1  1  0
  2  4  1  0
  3  2  2  0
  5  4  1  0
  6  5  1  0
  7  6  1  0
  8  7  1  0
  8  9  1  6
 10  8  1  0
 10 11  2  0
 12 10  1  0
 13 12  1  0
 13 14  1  1
 15 14  1  0
 16 15  1  0
 17 16  1  0
 18 17  1  0
 19 13  1  0
 20 19  2  0
 21 19  1  0
 22 23  1  1
 22 21  1  0
 23 24  1  0
 24 25  1  0
 25 26  2  0
 25 29  1  0
 27 22  1  0
 28 27  2  0
 30 27  1  0
M  END
$$$$
