RKE.pdb
     RDKit          3D

 30 29  0  0  1  0  0  0  0  0999 V2000
    8.4752  -12.2693   18.9424 N   0  0  0  0  0  0  0  0  0  0  0  0
    7.4288  -13.2002   18.6276 C   0  0  0  0  0  0  0  0  0  0  0  0
    6.4825  -13.3764   19.4631 N   0  0  0  0  0  0  0  0  0  0  0  0
    7.4300  -13.9192   17.4165 N   0  0  0  0  0  0  0  0  0  0  0  0
    8.6984  -14.1189   16.6894 C   0  0  0  0  0  0  0  0  0  0  0  0
    9.6232  -14.8112   17.6316 C   0  0  0  0  0  0  0  0  0  0  0  0
   10.1580  -16.0926   17.1390 C   0  0  0  0  0  0  0  0  0  0  0  0
    9.5178  -17.2912   17.7197 C   0  0  2  0  0  0  0  0  0  0  0  0
    8.1027  -17.2878   17.5243 N   0  0  0  0  0  0  0  0  0  0  0  0
    9.8350  -17.4126   19.1943 C   0  0  0  0  0  0  0  0  0  0  0  0
   10.0839  -16.3590   19.8625 O   0  0  0  0  0  0  0  0  0  0  0  0
    5.7082  -14.0461   19.3421 N   0  0  0  0  0  0  0  0  0  0  0  0
    9.8363  -18.7012   19.7476 C   0  0  1  0  0  0  0  0  0  0  0  0
   10.2810  -18.9011   21.1257 C   0  0  0  0  0  0  0  0  0  0  0  0
   10.1039  -20.3297   21.5068 C   0  0  0  0  0  0  0  0  0  0  0  0
    8.6879  -20.7530   21.6156 C   0  0  0  0  0  0  0  0  0  0  0  0
    8.5746  -22.2228   21.9990 C   0  0  0  0  0  0  0  0  0  0  0  0
    7.1538  -22.6898   22.1544 N   0  0  0  0  0  0  0  0  0  0  0  0
    7.1910  -24.1342   22.4572 C   0  0  0  0  0  0  0  0  0  0  0  0
   11.6593  -18.4530   21.3061 O   0  0  0  0  0  0  0  0  0  0  0  0
   12.5519  -18.7457   20.4969 N   0  0  0  0  0  0  0  0  0  0  0  0
   12.0826  -17.6504   22.4183 C   0  0  1  0  0  0  0  0  0  0  0  0
   13.3920  -17.0118   22.4594 C   0  0  0  0  0  0  0  0  0  0  0  0
   13.4234  -16.0917   21.2573 C   0  0  0  0  0  0  0  0  0  0  0  0
   14.5849  -15.1640   21.2097 C   0  0  0  0  0  0  0  0  0  0  0  0
   14.6400  -14.2680   20.0585 O   0  0  0  0  0  0  0  0  0  0  0  0
   15.1015  -13.1154   20.1694 C   0  0  0  0  0  0  0  0  0  0  0  0
   13.5476  -16.2371   23.7137 O   0  0  0  0  0  0  0  0  0  0  0  0
   14.6535  -15.6884   23.9455 O   0  0  0  0  0  0  0  0  0  0  0  0
   14.1810  -14.6837   18.8271 O   0  0  0  0  0  0  0  0  0  0  0  0
  2  1  1  0
  2  4  1  0
  3  2  2  0
  5  4  1  0
  6  5  1  0
  7  6  1  0
  8  7  1  0
  8  9  1  1
 10  8  1  0
 10 11  2  0
 12 10  1  0
 13 12  1  0
 13 14  1  1
 15 14  1  0
 16 15  1  0
 17 16  1  0
 18 17  1  0
 19 13  1  0
 20 19  2  0
 21 19  1  0
 22 23  1  1
 22 21  1  0
 23 24  1  0
 24 25  1  0
 25 26  2  0
 25 29  1  0
 27 22  1  0
 28 27  2  0
 30 27  1  0
M  END
$$$$
