RKE.pdb
     RDKit          3D

 30 29  0  0  1  0  0  0  0  0999 V2000
    7.4224  -12.6665   17.8759 N   0  0  0  0  0  0  0  0  0  0  0  0
    7.7457  -12.8635   19.2607 C   0  0  0  0  0  0  0  0  0  0  0  0
    7.4903  -11.9352   20.0959 N   0  0  0  0  0  0  0  0  0  0  0  0
    8.3379  -14.0598   19.7101 N   0  0  0  0  0  0  0  0  0  0  0  0
    9.2176  -14.8223   18.8033 C   0  0  0  0  0  0  0  0  0  0  0  0
    8.7285  -16.2303   18.8219 C   0  0  0  0  0  0  0  0  0  0  0  0
    9.6857  -17.2073   19.3694 C   0  0  0  0  0  0  0  0  0  0  0  0
    9.3508  -17.7081   20.7188 C   0  0  2  0  0  0  0  0  0  0  0  0
    7.9734  -18.0713   20.8264 N   0  0  0  0  0  0  0  0  0  0  0  0
    9.6987  -16.6840   21.7771 C   0  0  0  0  0  0  0  0  0  0  0  0
   10.8879  -16.2358   21.8373 O   0  0  0  0  0  0  0  0  0  0  0  0
    7.6852  -11.9838   21.1070 N   0  0  0  0  0  0  0  0  0  0  0  0
    8.6728  -16.2819   22.6446 C   0  0  1  0  0  0  0  0  0  0  0  0
    8.9905  -15.4819   23.8261 C   0  0  0  0  0  0  0  0  0  0  0  0
    7.7969  -14.6877   24.2287 C   0  0  0  0  0  0  0  0  0  0  0  0
    8.0356  -13.7812   25.3765 C   0  0  0  0  0  0  0  0  0  0  0  0
    6.7848  -12.9856   25.7265 C   0  0  0  0  0  0  0  0  0  0  0  0
    6.9980  -12.0021   26.8437 N   0  0  0  0  0  0  0  0  0  0  0  0
    5.7251  -11.2843   27.0532 C   0  0  0  0  0  0  0  0  0  0  0  0
    9.4829  -16.3210   24.9154 O   0  0  0  0  0  0  0  0  0  0  0  0
    8.7518  -17.1425   25.4879 N   0  0  0  0  0  0  0  0  0  0  0  0
   10.8320  -16.2611   25.4016 C   0  0  1  0  0  0  0  0  0  0  0  0
   11.3293  -17.1751   26.4221 C   0  0  0  0  0  0  0  0  0  0  0  0
   12.8379  -17.1153   26.3083 C   0  0  0  0  0  0  0  0  0  0  0  0
   13.3714  -17.3404   24.9384 C   0  0  0  0  0  0  0  0  0  0  0  0
   14.8147  -17.1871   24.7818 O   0  0  0  0  0  0  0  0  0  0  0  0
   15.5329  -16.8853   25.7549 C   0  0  0  0  0  0  0  0  0  0  0  0
   10.8896  -16.7330   27.7671 O   0  0  0  0  0  0  0  0  0  0  0  0
   11.1724  -17.4534   28.7565 O   0  0  0  0  0  0  0  0  0  0  0  0
   15.4078  -17.3744   23.5518 O   0  0  0  0  0  0  0  0  0  0  0  0
  2  1  1  0
  2  4  1  0
  3  2  2  0
  5  4  1  0
  6  5  1  0
  7  6  1  0
  8  7  1  0
  8  9  1  6
 10  8  1  0
 10 11  2  0
 12 10  1  0
 13 12  1  0
 13 14  1  1
 15 14  1  0
 16 15  1  0
 17 16  1  0
 18 17  1  0
 19 13  1  0
 20 19  2  0
 21 19  1  0
 22 23  1  1
 22 21  1  0
 23 24  1  0
 24 25  1  0
 25 26  2  0
 25 29  1  0
 27 22  1  0
 28 27  2  0
 30 27  1  0
M  END
$$$$
