RKE.pdb
     RDKit          3D

 30 29  0  0  1  0  0  0  0  0999 V2000
    7.7989  -14.9849   16.1350 N   0  0  0  0  0  0  0  0  0  0  0  0
    8.1010  -13.7260   16.7552 C   0  0  0  0  0  0  0  0  0  0  0  0
    8.2563  -12.6945   16.0227 N   0  0  0  0  0  0  0  0  0  0  0  0
    8.2283  -13.6117   18.1533 N   0  0  0  0  0  0  0  0  0  0  0  0
    8.1526  -14.8228   18.9928 C   0  0  0  0  0  0  0  0  0  0  0  0
    9.2640  -15.7139   18.5536 C   0  0  0  0  0  0  0  0  0  0  0  0
   10.3365  -15.8956   19.5472 C   0  0  0  0  0  0  0  0  0  0  0  0
   10.0126  -16.8388   20.6377 C   0  0  2  0  0  0  0  0  0  0  0  0
    8.7319  -17.4450   20.4560 N   0  0  0  0  0  0  0  0  0  0  0  0
   10.0712  -16.1495   21.9836 C   0  0  0  0  0  0  0  0  0  0  0  0
   11.1653  -15.6217   22.3614 O   0  0  0  0  0  0  0  0  0  0  0  0
    8.4376  -11.7436   16.3769 N   0  0  0  0  0  0  0  0  0  0  0  0
    8.8961  -16.1326   22.7489 C   0  0  1  0  0  0  0  0  0  0  0  0
    8.9193  -15.5905   24.1063 C   0  0  0  0  0  0  0  0  0  0  0  0
    7.6983  -14.7704   24.3388 C   0  0  0  0  0  0  0  0  0  0  0  0
    7.7065  -14.0280   25.6213 C   0  0  0  0  0  0  0  0  0  0  0  0
    6.4246  -13.2269   25.8085 C   0  0  0  0  0  0  0  0  0  0  0  0
    6.4021  -12.4284   27.0825 N   0  0  0  0  0  0  0  0  0  0  0  0
    5.1079  -11.7206   27.1409 C   0  0  0  0  0  0  0  0  0  0  0  0
    9.0618  -16.6538   25.0973 O   0  0  0  0  0  0  0  0  0  0  0  0
    8.6905  -17.8142   24.8674 N   0  0  0  0  0  0  0  0  0  0  0  0
    9.6345  -16.4419   26.3963 C   0  0  1  0  0  0  0  0  0  0  0  0
   10.2199  -17.5282   27.1718 C   0  0  0  0  0  0  0  0  0  0  0  0
   11.2984  -18.1135   26.2848 C   0  0  0  0  0  0  0  0  0  0  0  0
   12.1394  -19.1577   26.9283 C   0  0  0  0  0  0  0  0  0  0  0  0
   13.3235  -19.5734   26.1826 O   0  0  0  0  0  0  0  0  0  0  0  0
   13.2391  -20.4232   25.2746 C   0  0  0  0  0  0  0  0  0  0  0  0
   10.8053  -17.0053   28.4293 O   0  0  0  0  0  0  0  0  0  0  0  0
   11.3063  -17.8220   29.2418 O   0  0  0  0  0  0  0  0  0  0  0  0
   14.5573  -19.0311   26.4717 O   0  0  0  0  0  0  0  0  0  0  0  0
  2  1  1  0
  2  4  1  0
  3  2  2  0
  5  4  1  0
  6  5  1  0
  7  6  1  0
  8  7  1  0
  8  9  1  6
 10  8  1  0
 10 11  2  0
 12 10  1  0
 13 12  1  0
 13 14  1  1
 15 14  1  0
 16 15  1  0
 17 16  1  0
 18 17  1  0
 19 13  1  0
 20 19  2  0
 21 19  1  0
 22 23  1  1
 22 21  1  0
 23 24  1  0
 24 25  1  0
 25 26  2  0
 25 29  1  0
 27 22  1  0
 28 27  2  0
 30 27  1  0
M  END
$$$$
