RKE.pdb
     RDKit          3D

 30 29  0  0  1  0  0  0  0  0999 V2000
    7.5535  -15.2073   14.0009 N   0  0  0  0  0  0  0  0  0  0  0  0
    7.4980  -14.2661   15.0834 C   0  0  0  0  0  0  0  0  0  0  0  0
    7.8712  -13.0643   14.8810 N   0  0  0  0  0  0  0  0  0  0  0  0
    7.0402  -14.6465   16.3600 N   0  0  0  0  0  0  0  0  0  0  0  0
    7.8105  -15.6287   17.1469 C   0  0  0  0  0  0  0  0  0  0  0  0
    9.2178  -15.1379   17.1780 C   0  0  0  0  0  0  0  0  0  0  0  0
    9.7929  -15.0027   18.5276 C   0  0  0  0  0  0  0  0  0  0  0  0
    9.1232  -15.8126   19.5665 C   0  0  2  0  0  0  0  0  0  0  0  0
    7.7088  -15.8649   19.3730 N   0  0  0  0  0  0  0  0  0  0  0  0
    9.4358  -15.2834   20.9493 C   0  0  0  0  0  0  0  0  0  0  0  0
   10.6510  -15.1304   21.2932 O   0  0  0  0  0  0  0  0  0  0  0  0
    7.8023  -12.3028   15.5722 N   0  0  0  0  0  0  0  0  0  0  0  0
    8.3493  -14.9875   21.7852 C   0  0  1  0  0  0  0  0  0  0  0  0
    8.5868  -14.5380   23.1558 C   0  0  0  0  0  0  0  0  0  0  0  0
    7.3381  -13.9478   23.7125 C   0  0  0  0  0  0  0  0  0  0  0  0
    7.4917  -13.3897   25.0767 C   0  0  0  0  0  0  0  0  0  0  0  0
    6.2112  -12.7130   25.5483 C   0  0  0  0  0  0  0  0  0  0  0  0
    6.3385  -12.0776   26.9052 N   0  0  0  0  0  0  0  0  0  0  0  0
    5.0275  -11.4906   27.2461 C   0  0  0  0  0  0  0  0  0  0  0  0
    9.0968  -15.6250   23.9872 O   0  0  0  0  0  0  0  0  0  0  0  0
    8.4160  -16.6311   24.2358 N   0  0  0  0  0  0  0  0  0  0  0  0
   10.4069  -15.6141   24.5734 C   0  0  1  0  0  0  0  0  0  0  0  0
   10.8984  -16.7143   25.3932 C   0  0  0  0  0  0  0  0  0  0  0  0
   12.3879  -16.7729   25.1282 C   0  0  0  0  0  0  0  0  0  0  0  0
   12.7696  -16.7398   23.6911 C   0  0  0  0  0  0  0  0  0  0  0  0
   14.2022  -16.7285   23.4108 O   0  0  0  0  0  0  0  0  0  0  0  0
   15.0334  -16.7323   24.3397 C   0  0  0  0  0  0  0  0  0  0  0  0
   10.6337  -16.4459   26.8269 O   0  0  0  0  0  0  0  0  0  0  0  0
   10.9641  -17.3163   27.6702 O   0  0  0  0  0  0  0  0  0  0  0  0
   14.6595  -16.7132   22.1106 O   0  0  0  0  0  0  0  0  0  0  0  0
  2  1  1  0
  2  4  1  0
  3  2  2  0
  5  4  1  0
  6  5  1  0
  7  6  1  0
  8  7  1  0
  8  9  1  6
 10  8  1  0
 10 11  2  0
 12 10  1  0
 13 12  1  0
 13 14  1  1
 15 14  1  0
 16 15  1  0
 17 16  1  0
 18 17  1  0
 19 13  1  0
 20 19  2  0
 21 19  1  0
 22 23  1  1
 22 21  1  0
 23 24  1  0
 24 25  1  0
 25 26  2  0
 25 29  1  0
 27 22  1  0
 28 27  2  0
 30 27  1  0
M  END
$$$$
