YKE.pdb
     RDKit          3D

 31 31  0  0  1  0  0  0  0  0999 V2000
    9.7069  -14.5760   31.1564 O   0  0  0  0  0  0  0  0  0  0  0  0
    9.6667  -14.7643   29.7771 C   0  0  0  0  0  0  0  0  0  0  0  0
   10.1724  -15.9382   29.2592 C   0  0  0  0  0  0  0  0  0  0  0  0
   10.1504  -16.1636   27.8880 C   0  0  0  0  0  0  0  0  0  0  0  0
    9.6300  -15.2349   27.0130 C   0  0  0  0  0  0  0  0  0  0  0  0
    9.6199  -15.5017   25.5558 C   0  0  0  0  0  0  0  0  0  0  0  0
    8.2495  -16.0347   25.2082 C   0  0  2  0  0  0  0  0  0  0  0  0
    8.1065  -17.3109   25.8707 N   0  0  0  0  0  0  0  0  0  0  0  0
    8.0519  -16.2072   23.7653 C   0  0  0  0  0  0  0  0  0  0  0  0
    8.3633  -17.2319   23.1118 O   0  0  0  0  0  0  0  0  0  0  0  0
    9.1261  -14.0641   27.5334 C   0  0  0  0  0  0  0  0  0  0  0  0
    9.1494  -13.8394   28.9150 C   0  0  0  0  0  0  0  0  0  0  0  0
    7.4571  -15.1295   23.0268 N   0  0  0  0  0  0  0  0  0  0  0  0
    7.8607  -14.8581   21.6891 C   0  0  1  0  0  0  0  0  0  0  0  0
    7.4652  -13.5552   21.1023 C   0  0  0  0  0  0  0  0  0  0  0  0
    7.9356  -13.2096   19.7493 C   0  0  0  0  0  0  0  0  0  0  0  0
    7.2686  -14.0281   18.6933 C   0  0  0  0  0  0  0  0  0  0  0  0
    7.9147  -13.6848   17.3467 C   0  0  0  0  0  0  0  0  0  0  0  0
    7.1678  -14.4223   16.3404 N   0  0  0  0  0  0  0  0  0  0  0  0
    9.3646  -15.0197   21.5471 C   0  0  0  0  0  0  0  0  0  0  0  0
   10.1367  -14.6122   22.4478 O   0  0  0  0  0  0  0  0  0  0  0  0
    9.9533  -15.6284   20.4086 N   0  0  0  0  0  0  0  0  0  0  0  0
   11.3002  -16.1019   20.3319 C   0  0  1  0  0  0  0  0  0  0  0  0
   11.6396  -17.1066   21.4057 C   0  0  0  0  0  0  0  0  0  0  0  0
   13.0071  -17.6843   21.2627 C   0  0  0  0  0  0  0  0  0  0  0  0
   13.2486  -18.6424   22.3516 C   0  0  0  0  0  0  0  0  0  0  0  0
   12.2971  -19.2035   22.9192 O   0  0  0  0  0  0  0  0  0  0  0  0
   11.6304  -16.6826   19.0039 C   0  0  0  0  0  0  0  0  0  0  0  0
   12.7528  -16.3789   18.5079 O   0  0  0  0  0  0  0  0  0  0  0  0
   14.5363  -18.9199   22.7450 O   0  0  0  0  0  0  0  0  0  0  0  0
   10.8005  -17.5115   18.3044 O   0  0  0  0  0  0  0  0  0  0  0  0
  2  1  1  0
  3  2  2  0
  4  3  1  0
  5  4  2  0
  5 11  1  0
  6  5  1  0
  7  6  1  0
  7  8  1  1
  9  7  1  0
  9 10  2  0
 11 12  2  0
 12  2  1  0
 13  9  1  0
 14 13  1  0
 14 15  1  1
 16 15  1  0
 17 16  1  0
 18 17  1  0
 19 18  1  0
 20 14  1  0
 20 21  2  0
 22 20  1  0
 23 22  1  0
 23 28  1  0
 23 24  1  1
 25 26  1  0
 25 24  1  0
 26 27  2  0
 28 29  2  0
 28 31  1  0
 30 26  1  0
M  END
$$$$
