YKE.pdb
     RDKit          3D

 31 31  0  0  1  0  0  0  0  0999 V2000
    5.7202  -10.6483   28.1748 O   0  0  0  0  0  0  0  0  0  0  0  0
    6.2567  -11.6954   27.4298 C   0  0  0  0  0  0  0  0  0  0  0  0
    7.0324  -12.6333   28.0783 C   0  0  0  0  0  0  0  0  0  0  0  0
    7.5856  -13.6932   27.3698 C   0  0  0  0  0  0  0  0  0  0  0  0
    7.3803  -13.8400   26.0151 C   0  0  0  0  0  0  0  0  0  0  0  0
    7.9827  -14.9797   25.2852 C   0  0  0  0  0  0  0  0  0  0  0  0
    6.9047  -15.5669   24.4043 C   0  0  2  0  0  0  0  0  0  0  0  0
    6.5088  -16.8252   24.9943 N   0  0  0  0  0  0  0  0  0  0  0  0
    7.3517  -15.7915   23.0257 C   0  0  0  0  0  0  0  0  0  0  0  0
    7.7747  -16.8825   22.5731 O   0  0  0  0  0  0  0  0  0  0  0  0
    6.6054  -12.9020   25.3708 C   0  0  0  0  0  0  0  0  0  0  0  0
    6.0493  -11.8352   26.0868 C   0  0  0  0  0  0  0  0  0  0  0  0
    7.3088  -14.6881   22.1086 N   0  0  0  0  0  0  0  0  0  0  0  0
    7.9126  -14.7899   20.8237 C   0  0  1  0  0  0  0  0  0  0  0  0
    7.9017  -13.5838   19.9612 C   0  0  0  0  0  0  0  0  0  0  0  0
    8.6780  -13.5952   18.7086 C   0  0  0  0  0  0  0  0  0  0  0  0
    7.9608  -14.3027   17.6064 C   0  0  0  0  0  0  0  0  0  0  0  0
    8.8543  -14.2728   16.3616 C   0  0  0  0  0  0  0  0  0  0  0  0
    8.1237  -14.9804   15.3226 N   0  0  0  0  0  0  0  0  0  0  0  0
    9.3429  -15.2861   20.9489 C   0  0  0  0  0  0  0  0  0  0  0  0
   10.1629  -14.6864   21.6847 O   0  0  0  0  0  0  0  0  0  0  0  0
    9.8076  -16.4308   20.2509 N   0  0  0  0  0  0  0  0  0  0  0  0
   11.1709  -16.8562   20.1822 C   0  0  1  0  0  0  0  0  0  0  0  0
   11.4307  -18.1431   20.9265 C   0  0  0  0  0  0  0  0  0  0  0  0
   10.8600  -18.1537   22.3044 C   0  0  0  0  0  0  0  0  0  0  0  0
   11.8001  -18.8209   23.2170 C   0  0  0  0  0  0  0  0  0  0  0  0
   11.6863  -18.6872   24.4465 O   0  0  0  0  0  0  0  0  0  0  0  0
   11.6589  -16.9980   18.7852 C   0  0  0  0  0  0  0  0  0  0  0  0
   12.8982  -17.1907   18.6271 O   0  0  0  0  0  0  0  0  0  0  0  0
   12.8126  -19.5985   22.7070 O   0  0  0  0  0  0  0  0  0  0  0  0
   10.8538  -16.9321   17.6840 O   0  0  0  0  0  0  0  0  0  0  0  0
  2  1  1  0
  3  2  2  0
  4  3  1  0
  5  4  2  0
  5 11  1  0
  6  5  1  0
  7  6  1  0
  7  8  1  1
  9  7  1  0
  9 10  2  0
 11 12  2  0
 12  2  1  0
 13  9  1  0
 14 13  1  0
 14 15  1  1
 16 15  1  0
 17 16  1  0
 18 17  1  0
 19 18  1  0
 20 14  1  0
 20 21  2  0
 22 20  1  0
 23 22  1  0
 23 28  1  0
 23 24  1  6
 25 26  1  0
 25 24  1  0
 26 27  2  0
 28 29  2  0
 28 31  1  0
 30 26  1  0
M  END
$$$$
