YKE.pdb
     RDKit          3D

 31 31  0  0  1  0  0  0  0  0999 V2000
    5.8722  -10.3234   27.7741 O   0  0  0  0  0  0  0  0  0  0  0  0
    6.4230  -11.5223   27.3284 C   0  0  0  0  0  0  0  0  0  0  0  0
    6.2629  -11.8663   26.0025 C   0  0  0  0  0  0  0  0  0  0  0  0
    6.7978  -13.0544   25.5193 C   0  0  0  0  0  0  0  0  0  0  0  0
    7.4959  -13.9161   26.3374 C   0  0  0  0  0  0  0  0  0  0  0  0
    8.0550  -15.1762   25.7951 C   0  0  0  0  0  0  0  0  0  0  0  0
    6.9851  -15.8063   24.9341 C   0  0  2  0  0  0  0  0  0  0  0  0
    6.6589  -17.0842   25.5244 N   0  0  0  0  0  0  0  0  0  0  0  0
    7.4113  -16.0031   23.5447 C   0  0  0  0  0  0  0  0  0  0  0  0
    7.9391  -17.0479   23.0931 O   0  0  0  0  0  0  0  0  0  0  0  0
    7.6539  -13.5696   27.6604 C   0  0  0  0  0  0  0  0  0  0  0  0
    7.1141  -12.3721   28.1448 C   0  0  0  0  0  0  0  0  0  0  0  0
    7.2171  -14.9270   22.6149 N   0  0  0  0  0  0  0  0  0  0  0  0
    7.9177  -14.9044   21.3761 C   0  0  1  0  0  0  0  0  0  0  0  0
    7.8547  -13.6596   20.5729 C   0  0  0  0  0  0  0  0  0  0  0  0
    8.5610  -13.6075   19.2806 C   0  0  0  0  0  0  0  0  0  0  0  0
    7.6943  -14.0439   18.1455 C   0  0  0  0  0  0  0  0  0  0  0  0
    8.5179  -13.9534   16.8563 C   0  0  0  0  0  0  0  0  0  0  0  0
    8.5088  -15.2867   16.2765 N   0  0  0  0  0  0  0  0  0  0  0  0
    9.3759  -15.2752   21.5859 C   0  0  0  0  0  0  0  0  0  0  0  0
   10.0768  -14.6551   22.4211 O   0  0  0  0  0  0  0  0  0  0  0  0
    9.9998  -16.3218   20.8588 N   0  0  0  0  0  0  0  0  0  0  0  0
   11.3876  -16.6587   20.9276 C   0  0  1  0  0  0  0  0  0  0  0  0
   11.6356  -18.0582   21.4350 C   0  0  0  0  0  0  0  0  0  0  0  0
   11.3021  -18.2306   22.8784 C   0  0  0  0  0  0  0  0  0  0  0  0
   11.6094  -19.6085   23.2893 C   0  0  0  0  0  0  0  0  0  0  0  0
   12.5738  -19.8426   24.0360 O   0  0  0  0  0  0  0  0  0  0  0  0
   12.0865  -16.4843   19.6272 C   0  0  0  0  0  0  0  0  0  0  0  0
   11.4359  -16.7741   18.5828 O   0  0  0  0  0  0  0  0  0  0  0  0
   10.8245  -20.6458   22.8444 O   0  0  0  0  0  0  0  0  0  0  0  0
   13.3705  -16.0358   19.5037 O   0  0  0  0  0  0  0  0  0  0  0  0
  2  1  1  0
  3  2  2  0
  4  3  1  0
  5  4  2  0
  5 11  1  0
  6  5  1  0
  7  6  1  0
  7  8  1  1
  9  7  1  0
  9 10  2  0
 11 12  2  0
 12  2  1  0
 13  9  1  0
 14 13  1  0
 14 15  1  1
 16 15  1  0
 17 16  1  0
 18 17  1  0
 19 18  1  0
 20 14  1  0
 20 21  2  0
 22 20  1  0
 23 22  1  0
 23 28  1  0
 23 24  1  6
 25 26  1  0
 25 24  1  0
 26 27  2  0
 28 29  2  0
 28 31  1  0
 30 26  1  0
M  END
$$$$
