YKE.pdb
     RDKit          3D

 31 31  0  0  1  0  0  0  0  0999 V2000
    5.1239  -10.5474   28.0985 O   0  0  0  0  0  0  0  0  0  0  0  0
    5.8752  -11.6160   27.6159 C   0  0  0  0  0  0  0  0  0  0  0  0
    5.6684  -12.0312   26.3171 C   0  0  0  0  0  0  0  0  0  0  0  0
    6.3984  -13.0940   25.7986 C   0  0  0  0  0  0  0  0  0  0  0  0
    7.3397  -13.7589   26.5543 C   0  0  0  0  0  0  0  0  0  0  0  0
    8.1031  -14.8888   25.9757 C   0  0  0  0  0  0  0  0  0  0  0  0
    7.1418  -15.6925   25.1314 C   0  0  2  0  0  0  0  0  0  0  0  0
    6.7887  -16.8707   25.8899 N   0  0  0  0  0  0  0  0  0  0  0  0
    7.7112  -16.0934   23.8408 C   0  0  0  0  0  0  0  0  0  0  0  0
    8.0929  -17.2525   23.5494 O   0  0  0  0  0  0  0  0  0  0  0  0
    7.5436  -13.3418   27.8505 C   0  0  0  0  0  0  0  0  0  0  0  0
    6.8070  -12.2708   28.3704 C   0  0  0  0  0  0  0  0  0  0  0  0
    7.8502  -15.0946   22.8191 N   0  0  0  0  0  0  0  0  0  0  0  0
    8.3599  -15.4374   21.5352 C   0  0  1  0  0  0  0  0  0  0  0  0
    8.1556  -14.4673   20.4326 C   0  0  0  0  0  0  0  0  0  0  0  0
    8.6347  -14.8106   19.0820 C   0  0  0  0  0  0  0  0  0  0  0  0
    8.2880  -13.7624   18.0765 C   0  0  0  0  0  0  0  0  0  0  0  0
    8.6994  -14.2763   16.6926 C   0  0  0  0  0  0  0  0  0  0  0  0
    8.4392  -13.1884   15.7637 N   0  0  0  0  0  0  0  0  0  0  0  0
    9.8399  -15.7685   21.6245 C   0  0  0  0  0  0  0  0  0  0  0  0
   10.6226  -15.0205   22.2578 O   0  0  0  0  0  0  0  0  0  0  0  0
   10.3937  -16.9191   21.0059 N   0  0  0  0  0  0  0  0  0  0  0  0
   11.7450  -17.3628   21.1522 C   0  0  1  0  0  0  0  0  0  0  0  0
   11.9030  -18.8542   20.9835 C   0  0  0  0  0  0  0  0  0  0  0  0
   13.3212  -19.3098   21.0579 C   0  0  0  0  0  0  0  0  0  0  0  0
   13.3688  -20.7759   20.9576 C   0  0  0  0  0  0  0  0  0  0  0  0
   12.8668  -21.4845   21.8454 O   0  0  0  0  0  0  0  0  0  0  0  0
   12.6807  -16.6694   20.2283 C   0  0  0  0  0  0  0  0  0  0  0  0
   13.7914  -16.3011   20.7065 O   0  0  0  0  0  0  0  0  0  0  0  0
   13.9729  -21.3678   19.8737 O   0  0  0  0  0  0  0  0  0  0  0  0
   12.4085  -16.4138   18.9146 O   0  0  0  0  0  0  0  0  0  0  0  0
  2  1  1  0
  3  2  2  0
  4  3  1  0
  5  4  2  0
  5 11  1  0
  6  5  1  0
  7  6  1  0
  7  8  1  1
  9  7  1  0
  9 10  2  0
 11 12  2  0
 12  2  1  0
 13  9  1  0
 14 13  1  0
 14 15  1  6
 16 15  1  0
 17 16  1  0
 18 17  1  0
 19 18  1  0
 20 14  1  0
 20 21  2  0
 22 20  1  0
 23 22  1  0
 23 28  1  0
 23 24  1  6
 25 26  1  0
 25 24  1  0
 26 27  2  0
 28 29  2  0
 28 31  1  0
 30 26  1  0
M  END
$$$$
