YKE.pdb
     RDKit          3D

 31 31  0  0  1  0  0  0  0  0999 V2000
    6.7272  -11.0950   27.9069 O   0  0  0  0  0  0  0  0  0  0  0  0
    6.6020  -12.1586   27.0167 C   0  0  0  0  0  0  0  0  0  0  0  0
    7.3482  -13.2961   27.2428 C   0  0  0  0  0  0  0  0  0  0  0  0
    7.2511  -14.3790   26.3773 C   0  0  0  0  0  0  0  0  0  0  0  0
    6.4179  -14.3525   25.2800 C   0  0  0  0  0  0  0  0  0  0  0  0
    6.3347  -15.5215   24.3739 C   0  0  0  0  0  0  0  0  0  0  0  0
    7.7412  -16.0381   24.1797 C   0  0  2  0  0  0  0  0  0  0  0  0
    8.6118  -15.2259   24.9987 N   0  0  0  0  0  0  0  0  0  0  0  0
    8.1853  -15.9773   22.7834 C   0  0  0  0  0  0  0  0  0  0  0  0
    7.9028  -16.8213   21.8991 O   0  0  0  0  0  0  0  0  0  0  0  0
    5.6744  -13.2153   25.0572 C   0  0  0  0  0  0  0  0  0  0  0  0
    5.7740  -12.1258   25.9306 C   0  0  0  0  0  0  0  0  0  0  0  0
    9.0083  -14.8730   22.3790 N   0  0  0  0  0  0  0  0  0  0  0  0
    9.5777  -14.8329   21.0751 C   0  0  1  0  0  0  0  0  0  0  0  0
    9.4917  -13.5562   20.3260 C   0  0  0  0  0  0  0  0  0  0  0  0
    8.3293  -13.3185   19.4519 C   0  0  0  0  0  0  0  0  0  0  0  0
    8.5384  -13.8577   18.0752 C   0  0  0  0  0  0  0  0  0  0  0  0
    7.2522  -13.6282   17.2741 C   0  0  0  0  0  0  0  0  0  0  0  0
    7.4466  -14.2966   15.9975 N   0  0  0  0  0  0  0  0  0  0  0  0
   11.0304  -15.2752   21.1182 C   0  0  0  0  0  0  0  0  0  0  0  0
   11.9095  -14.5272   21.6091 O   0  0  0  0  0  0  0  0  0  0  0  0
   11.4509  -16.5329   20.6136 N   0  0  0  0  0  0  0  0  0  0  0  0
   12.6918  -17.1717   20.9240 C   0  0  1  0  0  0  0  0  0  0  0  0
   12.5720  -18.2039   22.0185 C   0  0  0  0  0  0  0  0  0  0  0  0
   13.8731  -18.8395   22.3755 C   0  0  0  0  0  0  0  0  0  0  0  0
   13.6694  -19.7756   23.4909 C   0  0  0  0  0  0  0  0  0  0  0  0
   12.8925  -20.7372   23.3721 O   0  0  0  0  0  0  0  0  0  0  0  0
   13.3290  -17.7977   19.7358 C   0  0  0  0  0  0  0  0  0  0  0  0
   12.5579  -18.2304   18.8324 O   0  0  0  0  0  0  0  0  0  0  0  0
   14.3431  -19.5861   24.6742 O   0  0  0  0  0  0  0  0  0  0  0  0
   14.6786  -17.9275   19.5717 O   0  0  0  0  0  0  0  0  0  0  0  0
  2  1  1  0
  3  2  2  0
  4  3  1  0
  5  4  2  0
  5 11  1  0
  6  5  1  0
  7  6  1  0
  7  8  1  1
  9  7  1  0
  9 10  2  0
 11 12  2  0
 12  2  1  0
 13  9  1  0
 14 13  1  0
 14 15  1  1
 16 15  1  0
 17 16  1  0
 18 17  1  0
 19 18  1  0
 20 14  1  0
 20 21  2  0
 22 20  1  0
 23 22  1  0
 23 28  1  0
 23 24  1  1
 25 26  1  0
 25 24  1  0
 26 27  2  0
 28 29  2  0
 28 31  1  0
 30 26  1  0
M  END
$$$$
