YKE.pdb
     RDKit          3D

 31 31  0  0  1  0  0  0  0  0999 V2000
    8.3997  -12.5127   17.6501 O   0  0  0  0  0  0  0  0  0  0  0  0
    8.1525  -13.0622   18.9056 C   0  0  0  0  0  0  0  0  0  0  0  0
    6.9169  -12.8548   19.4820 C   0  0  0  0  0  0  0  0  0  0  0  0
    6.6316  -13.3867   20.7337 C   0  0  0  0  0  0  0  0  0  0  0  0
    7.5606  -14.1284   21.4307 C   0  0  0  0  0  0  0  0  0  0  0  0
    7.2291  -14.6832   22.7637 C   0  0  0  0  0  0  0  0  0  0  0  0
    7.5129  -16.1664   22.7142 C   0  0  2  0  0  0  0  0  0  0  0  0
    6.6068  -16.7429   21.7473 N   0  0  0  0  0  0  0  0  0  0  0  0
    7.3309  -16.8273   24.0107 C   0  0  0  0  0  0  0  0  0  0  0  0
    7.0824  -16.2401   25.0912 O   0  0  0  0  0  0  0  0  0  0  0  0
    8.7931  -14.3335   20.8524 C   0  0  0  0  0  0  0  0  0  0  0  0
    9.0781  -13.7966   19.5913 C   0  0  0  0  0  0  0  0  0  0  0  0
    7.4425  -18.2573   24.0666 N   0  0  0  0  0  0  0  0  0  0  0  0
    7.5777  -18.9253   25.3162 C   0  0  1  0  0  0  0  0  0  0  0  0
    7.3649  -20.3925   25.3382 C   0  0  0  0  0  0  0  0  0  0  0  0
    7.5074  -21.1152   26.6146 C   0  0  0  0  0  0  0  0  0  0  0  0
    7.1928  -22.5687   26.4786 C   0  0  0  0  0  0  0  0  0  0  0  0
    7.3379  -23.2177   27.8593 C   0  0  0  0  0  0  0  0  0  0  0  0
    6.0610  -23.0316   28.5295 N   0  0  0  0  0  0  0  0  0  0  0  0
    8.9309  -18.6202   25.9356 C   0  0  0  0  0  0  0  0  0  0  0  0
    9.9840  -18.7715   25.2713 O   0  0  0  0  0  0  0  0  0  0  0  0
    9.0619  -18.1582   27.2708 N   0  0  0  0  0  0  0  0  0  0  0  0
   10.2984  -17.8410   27.9149 C   0  0  1  0  0  0  0  0  0  0  0  0
   10.3209  -16.4539   28.5091 C   0  0  0  0  0  0  0  0  0  0  0  0
    9.9557  -15.3874   27.5326 C   0  0  0  0  0  0  0  0  0  0  0  0
    9.9963  -14.0786   28.2014 C   0  0  0  0  0  0  0  0  0  0  0  0
    9.7538  -13.0391   27.5665 O   0  0  0  0  0  0  0  0  0  0  0  0
   10.6672  -18.8244   28.9669 C   0  0  0  0  0  0  0  0  0  0  0  0
    9.8263  -19.7327   29.2234 O   0  0  0  0  0  0  0  0  0  0  0  0
   10.3046  -14.0036   29.5391 O   0  0  0  0  0  0  0  0  0  0  0  0
   11.8449  -18.7987   29.6580 O   0  0  0  0  0  0  0  0  0  0  0  0
  2  1  1  0
  3  2  2  0
  4  3  1  0
  5  4  2  0
  5 11  1  0
  6  5  1  0
  7  6  1  0
  7  8  1  6
  9  7  1  0
  9 10  2  0
 11 12  2  0
 12  2  1  0
 13  9  1  0
 14 13  1  0
 14 15  1  6
 16 15  1  0
 17 16  1  0
 18 17  1  0
 19 18  1  0
 20 14  1  0
 20 21  2  0
 22 20  1  0
 23 22  1  0
 23 28  1  0
 23 24  1  1
 25 26  1  0
 25 24  1  0
 26 27  2  0
 28 29  2  0
 28 31  1  0
 30 26  1  0
M  END
$$$$
