YKE.pdb
     RDKit          3D

 31 31  0  0  1  0  0  0  0  0999 V2000
   10.2491  -14.2789   31.3295 O   0  0  0  0  0  0  0  0  0  0  0  0
   10.2699  -14.6068   29.9763 C   0  0  0  0  0  0  0  0  0  0  0  0
   10.7800  -15.8332   29.6051 C   0  0  0  0  0  0  0  0  0  0  0  0
   10.8181  -16.1975   28.2645 C   0  0  0  0  0  0  0  0  0  0  0  0
   10.3540  -15.3573   27.2757 C   0  0  0  0  0  0  0  0  0  0  0  0
   10.4072  -15.7717   25.8544 C   0  0  0  0  0  0  0  0  0  0  0  0
    8.9929  -16.0887   25.4276 C   0  0  2  0  0  0  0  0  0  0  0  0
    8.5685  -17.2466   26.1807 N   0  0  0  0  0  0  0  0  0  0  0  0
    8.8775  -16.3685   23.9926 C   0  0  0  0  0  0  0  0  0  0  0  0
    9.1051  -17.4782   23.4533 O   0  0  0  0  0  0  0  0  0  0  0  0
    9.8455  -14.1338   27.6497 C   0  0  0  0  0  0  0  0  0  0  0  0
    9.8083  -13.7692   29.0008 C   0  0  0  0  0  0  0  0  0  0  0  0
    8.4737  -15.3010   23.1220 N   0  0  0  0  0  0  0  0  0  0  0  0
    8.7611  -15.3540   21.7290 C   0  0  1  0  0  0  0  0  0  0  0  0
    8.2673  -14.2416   20.8821 C   0  0  0  0  0  0  0  0  0  0  0  0
    8.4197  -14.3363   19.4194 C   0  0  0  0  0  0  0  0  0  0  0  0
    7.8109  -13.1707   18.7117 C   0  0  0  0  0  0  0  0  0  0  0  0
    7.8726  -13.4441   17.2050 C   0  0  0  0  0  0  0  0  0  0  0  0
    7.1546  -12.3528   16.5665 N   0  0  0  0  0  0  0  0  0  0  0  0
   10.2549  -15.5124   21.5024 C   0  0  0  0  0  0  0  0  0  0  0  0
   11.0769  -14.8926   22.2190 O   0  0  0  0  0  0  0  0  0  0  0  0
   10.7784  -16.3544   20.4873 N   0  0  0  0  0  0  0  0  0  0  0  0
   12.1673  -16.6117   20.2660 C   0  0  1  0  0  0  0  0  0  0  0  0
   12.4812  -18.0784   20.0986 C   0  0  0  0  0  0  0  0  0  0  0  0
   13.9287  -18.3491   19.8626 C   0  0  0  0  0  0  0  0  0  0  0  0
   14.2432  -19.7226   20.2826 C   0  0  0  0  0  0  0  0  0  0  0  0
   13.4229  -20.3835   20.9405 O   0  0  0  0  0  0  0  0  0  0  0  0
   12.7119  -15.8642   19.1022 C   0  0  0  0  0  0  0  0  0  0  0  0
   13.8526  -15.3374   19.2415 O   0  0  0  0  0  0  0  0  0  0  0  0
   15.4535  -20.2806   19.9451 O   0  0  0  0  0  0  0  0  0  0  0  0
   12.0570  -15.7192   17.9126 O   0  0  0  0  0  0  0  0  0  0  0  0
  2  1  1  0
  3  2  2  0
  4  3  1  0
  5  4  2  0
  5 11  1  0
  6  5  1  0
  7  6  1  0
  7  8  1  1
  9  7  1  0
  9 10  2  0
 11 12  2  0
 12  2  1  0
 13  9  1  0
 14 13  1  0
 14 15  1  6
 16 15  1  0
 17 16  1  0
 18 17  1  0
 19 18  1  0
 20 14  1  0
 20 21  2  0
 22 20  1  0
 23 22  1  0
 23 28  1  0
 23 24  1  6
 25 26  1  0
 25 24  1  0
 26 27  2  0
 28 29  2  0
 28 31  1  0
 30 26  1  0
M  END
$$$$
