YKE.pdb
     RDKit          3D

 31 31  0  0  1  0  0  0  0  0999 V2000
    5.1173  -10.9585   28.8889 O   0  0  0  0  0  0  0  0  0  0  0  0
    5.7730  -11.7245   27.9284 C   0  0  0  0  0  0  0  0  0  0  0  0
    6.9173  -12.4008   28.2962 C   0  0  0  0  0  0  0  0  0  0  0  0
    7.6003  -13.1758   27.3666 C   0  0  0  0  0  0  0  0  0  0  0  0
    7.1631  -13.2925   26.0649 C   0  0  0  0  0  0  0  0  0  0  0  0
    7.9114  -14.1255   25.0950 C   0  0  0  0  0  0  0  0  0  0  0  0
    6.9292  -15.1037   24.4940 C   0  0  2  0  0  0  0  0  0  0  0  0
    6.6997  -16.1376   25.4771 N   0  0  0  0  0  0  0  0  0  0  0  0
    7.4141  -15.7099   23.2498 C   0  0  0  0  0  0  0  0  0  0  0  0
    8.1679  -16.7105   23.1807 O   0  0  0  0  0  0  0  0  0  0  0  0
    6.0205  -12.6160   25.7011 C   0  0  0  0  0  0  0  0  0  0  0  0
    5.3343  -11.8360   26.6394 C   0  0  0  0  0  0  0  0  0  0  0  0
    7.0046  -15.1260   22.0041 N   0  0  0  0  0  0  0  0  0  0  0  0
    7.8873  -15.1073   20.8876 C   0  0  1  0  0  0  0  0  0  0  0  0
    7.7501  -13.9914   19.9211 C   0  0  0  0  0  0  0  0  0  0  0  0
    8.6215  -13.9650   18.7330 C   0  0  0  0  0  0  0  0  0  0  0  0
    7.9007  -14.3848   17.4945 C   0  0  0  0  0  0  0  0  0  0  0  0
    8.9238  -14.4786   16.3574 C   0  0  0  0  0  0  0  0  0  0  0  0
    8.1825  -14.9031   15.1807 N   0  0  0  0  0  0  0  0  0  0  0  0
    9.3316  -15.1730   21.3538 C   0  0  0  0  0  0  0  0  0  0  0  0
    9.6557  -14.7406   22.4858 O   0  0  0  0  0  0  0  0  0  0  0  0
   10.3614  -15.7170   20.5433 N   0  0  0  0  0  0  0  0  0  0  0  0
   11.5689  -16.3068   21.0317 C   0  0  1  0  0  0  0  0  0  0  0  0
   11.3286  -17.4730   21.9590 C   0  0  0  0  0  0  0  0  0  0  0  0
   12.5866  -18.1065   22.4492 C   0  0  0  0  0  0  0  0  0  0  0  0
   12.2536  -19.2338   23.3324 C   0  0  0  0  0  0  0  0  0  0  0  0
   11.1423  -19.7835   23.2600 O   0  0  0  0  0  0  0  0  0  0  0  0
   12.4812  -16.7366   19.9396 C   0  0  0  0  0  0  0  0  0  0  0  0
   11.9440  -17.1578   18.8756 O   0  0  0  0  0  0  0  0  0  0  0  0
   13.1781  -19.6835   24.2451 O   0  0  0  0  0  0  0  0  0  0  0  0
   13.8439  -16.7012   20.0236 O   0  0  0  0  0  0  0  0  0  0  0  0
  2  1  1  0
  3  2  2  0
  4  3  1  0
  5  4  2  0
  5 11  1  0
  6  5  1  0
  7  6  1  0
  7  8  1  1
  9  7  1  0
  9 10  2  0
 11 12  2  0
 12  2  1  0
 13  9  1  0
 14 13  1  0
 14 15  1  1
 16 15  1  0
 17 16  1  0
 18 17  1  0
 19 18  1  0
 20 14  1  0
 20 21  2  0
 22 20  1  0
 23 22  1  0
 23 28  1  0
 23 24  1  6
 25 26  1  0
 25 24  1  0
 26 27  2  0
 28 29  2  0
 28 31  1  0
 30 26  1  0
M  END
$$$$
