YKE.pdb
     RDKit          3D

 31 31  0  0  1  0  0  0  0  0999 V2000
    6.4941  -13.3501   16.7612 O   0  0  0  0  0  0  0  0  0  0  0  0
    7.2021  -13.5591   17.9421 C   0  0  0  0  0  0  0  0  0  0  0  0
    6.5471  -13.3770   19.1420 C   0  0  0  0  0  0  0  0  0  0  0  0
    7.2190  -13.5757   20.3421 C   0  0  0  0  0  0  0  0  0  0  0  0
    8.5433  -13.9558   20.3726 C   0  0  0  0  0  0  0  0  0  0  0  0
    9.2345  -14.1603   21.6668 C   0  0  0  0  0  0  0  0  0  0  0  0
    9.6863  -15.6014   21.7099 C   0  0  2  0  0  0  0  0  0  0  0  0
    8.4973  -16.4226   21.7016 N   0  0  0  0  0  0  0  0  0  0  0  0
   10.4891  -15.9140   22.8967 C   0  0  0  0  0  0  0  0  0  0  0  0
   11.5816  -15.3724   23.1920 O   0  0  0  0  0  0  0  0  0  0  0  0
    9.1942  -14.1367   19.1729 C   0  0  0  0  0  0  0  0  0  0  0  0
    8.5151  -13.9359   17.9653 C   0  0  0  0  0  0  0  0  0  0  0  0
   10.0022  -16.9155   23.8025 N   0  0  0  0  0  0  0  0  0  0  0  0
   10.8007  -17.3527   24.8967 C   0  0  1  0  0  0  0  0  0  0  0  0
   10.1852  -18.2914   25.8655 C   0  0  0  0  0  0  0  0  0  0  0  0
   10.9799  -18.7495   27.0188 C   0  0  0  0  0  0  0  0  0  0  0  0
   10.2367  -19.7330   27.8617 C   0  0  0  0  0  0  0  0  0  0  0  0
   11.0635  -19.9975   29.1246 C   0  0  0  0  0  0  0  0  0  0  0  0
   10.2585  -20.8758   29.9581 N   0  0  0  0  0  0  0  0  0  0  0  0
   12.1021  -17.9547   24.3950 C   0  0  0  0  0  0  0  0  0  0  0  0
   12.1127  -18.6939   23.3816 O   0  0  0  0  0  0  0  0  0  0  0  0
   13.3428  -17.7120   25.0391 N   0  0  0  0  0  0  0  0  0  0  0  0
   14.6296  -17.9708   24.4721 C   0  0  1  0  0  0  0  0  0  0  0  0
   14.9850  -17.0282   23.3484 C   0  0  0  0  0  0  0  0  0  0  0  0
   16.3806  -17.2011   22.8518 C   0  0  0  0  0  0  0  0  0  0  0  0
   16.6116  -16.2934   21.7185 C   0  0  0  0  0  0  0  0  0  0  0  0
   17.5269  -15.4550   21.7595 O   0  0  0  0  0  0  0  0  0  0  0  0
   15.7182  -17.9500   25.4841 C   0  0  0  0  0  0  0  0  0  0  0  0
   16.8429  -18.4030   25.1264 O   0  0  0  0  0  0  0  0  0  0  0  0
   15.8093  -16.3723   20.6049 O   0  0  0  0  0  0  0  0  0  0  0  0
   15.5701  -17.4761   26.7564 O   0  0  0  0  0  0  0  0  0  0  0  0
  2  1  1  0
  3  2  2  0
  4  3  1  0
  5  4  2  0
  5 11  1  0
  6  5  1  0
  7  6  1  0
  7  8  1  1
  9  7  1  0
  9 10  2  0
 11 12  2  0
 12  2  1  0
 13  9  1  0
 14 13  1  0
 14 15  1  6
 16 15  1  0
 17 16  1  0
 18 17  1  0
 19 18  1  0
 20 14  1  0
 20 21  2  0
 22 20  1  0
 23 22  1  0
 23 28  1  0
 23 24  1  6
 25 26  1  0
 25 24  1  0
 26 27  2  0
 28 29  2  0
 28 31  1  0
 30 26  1  0
M  END
$$$$
