YKE.pdb
     RDKit          3D

 31 31  0  0  1  0  0  0  0  0999 V2000
    6.1758  -10.6219   27.1616 O   0  0  0  0  0  0  0  0  0  0  0  0
    6.4473  -11.9768   26.9888 C   0  0  0  0  0  0  0  0  0  0  0  0
    7.7647  -12.3833   26.9506 C   0  0  0  0  0  0  0  0  0  0  0  0
    8.0767  -13.7267   26.7798 C   0  0  0  0  0  0  0  0  0  0  0  0
    7.0942  -14.6836   26.6448 C   0  0  0  0  0  0  0  0  0  0  0  0
    7.4561  -16.1086   26.4637 C   0  0  0  0  0  0  0  0  0  0  0  0
    6.6880  -16.6165   25.2658 C   0  0  2  0  0  0  0  0  0  0  0  0
    6.3347  -17.9914   25.5360 N   0  0  0  0  0  0  0  0  0  0  0  0
    7.4582  -16.5445   24.0199 C   0  0  0  0  0  0  0  0  0  0  0  0
    8.3522  -17.3551   23.6765 O   0  0  0  0  0  0  0  0  0  0  0  0
    5.7802  -14.2743   26.6834 C   0  0  0  0  0  0  0  0  0  0  0  0
    5.4685  -12.9204   26.8556 C   0  0  0  0  0  0  0  0  0  0  0  0
    7.1811  -15.4693   23.1102 N   0  0  0  0  0  0  0  0  0  0  0  0
    8.0134  -15.2458   21.9773 C   0  0  1  0  0  0  0  0  0  0  0  0
    7.8325  -13.9778   21.2305 C   0  0  0  0  0  0  0  0  0  0  0  0
    8.7168  -13.6905   20.0872 C   0  0  0  0  0  0  0  0  0  0  0  0
    7.9926  -13.7558   18.7829 C   0  0  0  0  0  0  0  0  0  0  0  0
    8.9986  -13.4603   17.6651 C   0  0  0  0  0  0  0  0  0  0  0  0
    8.2527  -13.5378   16.4194 N   0  0  0  0  0  0  0  0  0  0  0  0
    9.4771  -15.3804   22.3612 C   0  0  0  0  0  0  0  0  0  0  0  0
    9.9868  -14.6083   23.2081 O   0  0  0  0  0  0  0  0  0  0  0  0
   10.3189  -16.3687   21.7885 N   0  0  0  0  0  0  0  0  0  0  0  0
   11.7323  -16.4602   21.9838 C   0  0  1  0  0  0  0  0  0  0  0  0
   12.2406  -17.8812   21.9938 C   0  0  0  0  0  0  0  0  0  0  0  0
   11.6972  -18.6947   23.1194 C   0  0  0  0  0  0  0  0  0  0  0  0
   12.2337  -20.0612   23.0376 C   0  0  0  0  0  0  0  0  0  0  0  0
   12.0216  -20.7620   22.0344 O   0  0  0  0  0  0  0  0  0  0  0  0
   12.5028  -15.6774   20.9822 C   0  0  0  0  0  0  0  0  0  0  0  0
   13.5729  -15.1337   21.3786 O   0  0  0  0  0  0  0  0  0  0  0  0
   12.9756  -20.5679   24.0782 O   0  0  0  0  0  0  0  0  0  0  0  0
   12.1224  -15.5176   19.6802 O   0  0  0  0  0  0  0  0  0  0  0  0
  2  1  1  0
  3  2  2  0
  4  3  1  0
  5  4  2  0
  5 11  1  0
  6  5  1  0
  7  6  1  0
  7  8  1  1
  9  7  1  0
  9 10  2  0
 11 12  2  0
 12  2  1  0
 13  9  1  0
 14 13  1  0
 14 15  1  1
 16 15  1  0
 17 16  1  0
 18 17  1  0
 19 18  1  0
 20 14  1  0
 20 21  2  0
 22 20  1  0
 23 22  1  0
 23 28  1  0
 23 24  1  6
 25 26  1  0
 25 24  1  0
 26 27  2  0
 28 29  2  0
 28 31  1  0
 30 26  1  0
M  END
$$$$
