YKE.pdb
     RDKit          3D

 31 31  0  0  1  0  0  0  0  0999 V2000
    5.2861  -10.6047   27.8152 O   0  0  0  0  0  0  0  0  0  0  0  0
    5.8945  -11.7879   27.4039 C   0  0  0  0  0  0  0  0  0  0  0  0
    6.6879  -12.4665   28.3049 C   0  0  0  0  0  0  0  0  0  0  0  0
    7.3124  -13.6509   27.9326 C   0  0  0  0  0  0  0  0  0  0  0  0
    7.1616  -14.1790   26.6686 C   0  0  0  0  0  0  0  0  0  0  0  0
    7.8395  -15.4433   26.2991 C   0  0  0  0  0  0  0  0  0  0  0  0
    6.9101  -16.1958   25.3756 C   0  0  2  0  0  0  0  0  0  0  0  0
    6.6178  -17.4639   26.0037 N   0  0  0  0  0  0  0  0  0  0  0  0
    7.4878  -16.4286   24.0479 C   0  0  0  0  0  0  0  0  0  0  0  0
    8.1329  -17.4505   23.7108 O   0  0  0  0  0  0  0  0  0  0  0  0
    6.3689  -13.4989   25.7716 C   0  0  0  0  0  0  0  0  0  0  0  0
    5.7410  -12.3060   26.1491 C   0  0  0  0  0  0  0  0  0  0  0  0
    7.3113  -15.4188   23.0429 N   0  0  0  0  0  0  0  0  0  0  0  0
    8.1047  -15.4261   21.8612 C   0  0  1  0  0  0  0  0  0  0  0  0
    7.7710  -14.4428   20.8028 C   0  0  0  0  0  0  0  0  0  0  0  0
    8.4788  -14.5155   19.5123 C   0  0  0  0  0  0  0  0  0  0  0  0
    7.9417  -13.5393   18.5180 C   0  0  0  0  0  0  0  0  0  0  0  0
    8.5302  -13.8857   17.1460 C   0  0  0  0  0  0  0  0  0  0  0  0
    7.9350  -12.9519   16.2036 N   0  0  0  0  0  0  0  0  0  0  0  0
    9.5762  -15.2845   22.2109 C   0  0  0  0  0  0  0  0  0  0  0  0
    9.9386  -14.5347   23.1488 O   0  0  0  0  0  0  0  0  0  0  0  0
   10.5896  -15.9824   21.5042 N   0  0  0  0  0  0  0  0  0  0  0  0
   11.9762  -15.9965   21.8528 C   0  0  1  0  0  0  0  0  0  0  0  0
   12.2340  -16.5163   23.2460 C   0  0  0  0  0  0  0  0  0  0  0  0
   11.9744  -17.9780   23.3882 C   0  0  0  0  0  0  0  0  0  0  0  0
   12.3112  -18.4030   24.7548 C   0  0  0  0  0  0  0  0  0  0  0  0
   13.3157  -17.9482   25.3262 O   0  0  0  0  0  0  0  0  0  0  0  0
   12.8036  -16.7670   20.8878 C   0  0  0  0  0  0  0  0  0  0  0  0
   14.0573  -16.6246   20.9651 O   0  0  0  0  0  0  0  0  0  0  0  0
   11.5093  -19.3103   25.4059 O   0  0  0  0  0  0  0  0  0  0  0  0
   12.2902  -17.6052   19.9395 O   0  0  0  0  0  0  0  0  0  0  0  0
  2  1  1  0
  3  2  2  0
  4  3  1  0
  5  4  2  0
  5 11  1  0
  6  5  1  0
  7  6  1  0
  7  8  1  1
  9  7  1  0
  9 10  2  0
 11 12  2  0
 12  2  1  0
 13  9  1  0
 14 13  1  0
 14 15  1  6
 16 15  1  0
 17 16  1  0
 18 17  1  0
 19 18  1  0
 20 14  1  0
 20 21  2  0
 22 20  1  0
 23 22  1  0
 23 28  1  0
 23 24  1  1
 25 26  1  0
 25 24  1  0
 26 27  2  0
 28 29  2  0
 28 31  1  0
 30 26  1  0
M  END
$$$$
