YKE.pdb
     RDKit          3D

 31 31  0  0  1  0  0  0  0  0999 V2000
    7.9288  -11.9938   17.3745 O   0  0  0  0  0  0  0  0  0  0  0  0
    8.0567  -12.8304   18.4804 C   0  0  0  0  0  0  0  0  0  0  0  0
    7.0833  -12.7831   19.4563 C   0  0  0  0  0  0  0  0  0  0  0  0
    7.1751  -13.6022   20.5752 C   0  0  0  0  0  0  0  0  0  0  0  0
    8.2268  -14.4766   20.7442 C   0  0  0  0  0  0  0  0  0  0  0  0
    8.2990  -15.3379   21.9473 C   0  0  0  0  0  0  0  0  0  0  0  0
    7.9625  -16.7448   21.5111 C   0  0  2  0  0  0  0  0  0  0  0  0
    6.5375  -16.7899   21.2753 N   0  0  0  0  0  0  0  0  0  0  0  0
    8.3258  -17.7557   22.5095 C   0  0  0  0  0  0  0  0  0  0  0  0
    7.7617  -17.9087   23.6197 O   0  0  0  0  0  0  0  0  0  0  0  0
    9.1967  -14.5213   19.7681 C   0  0  0  0  0  0  0  0  0  0  0  0
    9.1020  -13.6951   18.6420 C   0  0  0  0  0  0  0  0  0  0  0  0
    9.4093  -18.6484   22.2102 N   0  0  0  0  0  0  0  0  0  0  0  0
    9.8017  -19.6499   23.1424 C   0  0  1  0  0  0  0  0  0  0  0  0
   10.0436  -21.0170   22.6219 C   0  0  0  0  0  0  0  0  0  0  0  0
    8.9144  -21.7747   22.0541 C   0  0  0  0  0  0  0  0  0  0  0  0
    9.3530  -23.0572   21.4275 C   0  0  0  0  0  0  0  0  0  0  0  0
    8.1164  -23.7483   20.8431 C   0  0  0  0  0  0  0  0  0  0  0  0
    8.5748  -25.0278   20.3262 N   0  0  0  0  0  0  0  0  0  0  0  0
   11.0283  -19.1999   23.9174 C   0  0  0  0  0  0  0  0  0  0  0  0
   11.9814  -18.6351   23.3293 O   0  0  0  0  0  0  0  0  0  0  0  0
   11.1488  -19.3949   25.3177 N   0  0  0  0  0  0  0  0  0  0  0  0
   12.3161  -19.1075   26.0918 C   0  0  1  0  0  0  0  0  0  0  0  0
   12.0461  -19.0478   27.5754 C   0  0  0  0  0  0  0  0  0  0  0  0
   11.7969  -20.3862   28.1845 C   0  0  0  0  0  0  0  0  0  0  0  0
   11.6255  -20.2372   29.6372 C   0  0  0  0  0  0  0  0  0  0  0  0
   11.8098  -19.1372   30.1835 O   0  0  0  0  0  0  0  0  0  0  0  0
   13.4234  -20.0666   25.8394 C   0  0  0  0  0  0  0  0  0  0  0  0
   14.5772  -19.7261   26.2278 O   0  0  0  0  0  0  0  0  0  0  0  0
   11.2586  -21.3224   30.3972 O   0  0  0  0  0  0  0  0  0  0  0  0
   13.2630  -21.2740   25.2215 O   0  0  0  0  0  0  0  0  0  0  0  0
  2  1  1  0
  3  2  2  0
  4  3  1  0
  5  4  2  0
  5 11  1  0
  6  5  1  0
  7  6  1  0
  7  8  1  1
  9  7  1  0
  9 10  2  0
 11 12  2  0
 12  2  1  0
 13  9  1  0
 14 13  1  0
 14 15  1  6
 16 15  1  0
 17 16  1  0
 18 17  1  0
 19 18  1  0
 20 14  1  0
 20 21  2  0
 22 20  1  0
 23 22  1  0
 23 28  1  0
 23 24  1  1
 25 26  1  0
 25 24  1  0
 26 27  2  0
 28 29  2  0
 28 31  1  0
 30 26  1  0
M  END
$$$$
