YKE.pdb
     RDKit          3D

 31 31  0  0  1  0  0  0  0  0999 V2000
    5.4967  -10.3297   27.7272 O   0  0  0  0  0  0  0  0  0  0  0  0
    6.0866  -11.5196   27.3081 C   0  0  0  0  0  0  0  0  0  0  0  0
    6.9286  -12.1782   28.1795 C   0  0  0  0  0  0  0  0  0  0  0  0
    7.5365  -13.3684   27.7985 C   0  0  0  0  0  0  0  0  0  0  0  0
    7.3212  -13.9221   26.5551 C   0  0  0  0  0  0  0  0  0  0  0  0
    7.9829  -15.1920   26.1757 C   0  0  0  0  0  0  0  0  0  0  0  0
    7.0203  -15.9518   25.2930 C   0  0  2  0  0  0  0  0  0  0  0  0
    6.6927  -17.1818   25.9771 N   0  0  0  0  0  0  0  0  0  0  0  0
    7.5769  -16.2596   23.9716 C   0  0  0  0  0  0  0  0  0  0  0  0
    8.1606  -17.3271   23.6654 O   0  0  0  0  0  0  0  0  0  0  0  0
    6.4801  -13.2621   25.6877 C   0  0  0  0  0  0  0  0  0  0  0  0
    5.8689  -12.0632   26.0739 C   0  0  0  0  0  0  0  0  0  0  0  0
    7.4534  -15.2740   22.9353 N   0  0  0  0  0  0  0  0  0  0  0  0
    8.0951  -15.4596   21.6785 C   0  0  1  0  0  0  0  0  0  0  0  0
    7.7877  -14.4903   20.5995 C   0  0  0  0  0  0  0  0  0  0  0  0
    8.2464  -14.7786   19.2290 C   0  0  0  0  0  0  0  0  0  0  0  0
    7.7430  -13.7769   18.2426 C   0  0  0  0  0  0  0  0  0  0  0  0
    8.1055  -14.2695   16.8374 C   0  0  0  0  0  0  0  0  0  0  0  0
    7.7374  -13.1980   15.9261 N   0  0  0  0  0  0  0  0  0  0  0  0
    9.6021  -15.5261   21.8585 C   0  0  0  0  0  0  0  0  0  0  0  0
   10.1398  -15.0743   22.8978 O   0  0  0  0  0  0  0  0  0  0  0  0
   10.4545  -16.0926   20.8758 N   0  0  0  0  0  0  0  0  0  0  0  0
   11.7359  -16.6728   21.1326 C   0  0  1  0  0  0  0  0  0  0  0  0
   11.6712  -17.8842   22.0303 C   0  0  0  0  0  0  0  0  0  0  0  0
   12.2705  -17.6542   23.3765 C   0  0  0  0  0  0  0  0  0  0  0  0
   12.3364  -18.9291   24.1059 C   0  0  0  0  0  0  0  0  0  0  0  0
   12.8593  -18.9847   25.2310 O   0  0  0  0  0  0  0  0  0  0  0  0
   12.4644  -17.0312   19.8875 C   0  0  0  0  0  0  0  0  0  0  0  0
   13.4056  -16.2655   19.5327 O   0  0  0  0  0  0  0  0  0  0  0  0
   11.8158  -20.0685   23.5395 O   0  0  0  0  0  0  0  0  0  0  0  0
   12.1758  -18.1240   19.1207 O   0  0  0  0  0  0  0  0  0  0  0  0
  2  1  1  0
  3  2  2  0
  4  3  1  0
  5  4  2  0
  5 11  1  0
  6  5  1  0
  7  6  1  0
  7  8  1  1
  9  7  1  0
  9 10  2  0
 11 12  2  0
 12  2  1  0
 13  9  1  0
 14 13  1  0
 14 15  1  6
 16 15  1  0
 17 16  1  0
 18 17  1  0
 19 18  1  0
 20 14  1  0
 20 21  2  0
 22 20  1  0
 23 22  1  0
 23 28  1  0
 23 24  1  1
 25 26  1  0
 25 24  1  0
 26 27  2  0
 28 29  2  0
 28 31  1  0
 30 26  1  0
M  END
$$$$
