YKE.pdb
     RDKit          3D

 31 31  0  0  1  0  0  0  0  0999 V2000
    6.2532  -10.3494   26.9888 O   0  0  0  0  0  0  0  0  0  0  0  0
    6.5173  -11.7129   26.8861 C   0  0  0  0  0  0  0  0  0  0  0  0
    7.8011  -12.1123   26.5791 C   0  0  0  0  0  0  0  0  0  0  0  0
    8.1047  -13.4638   26.4678 C   0  0  0  0  0  0  0  0  0  0  0  0
    7.1465  -14.4360   26.6576 C   0  0  0  0  0  0  0  0  0  0  0  0
    7.4985  -15.8695   26.5323 C   0  0  0  0  0  0  0  0  0  0  0  0
    6.6642  -16.4384   25.4085 C   0  0  2  0  0  0  0  0  0  0  0  0
    6.1840  -17.7299   25.8440 N   0  0  0  0  0  0  0  0  0  0  0  0
    7.4161  -16.5915   24.1587 C   0  0  0  0  0  0  0  0  0  0  0  0
    8.3020  -17.4552   23.9509 O   0  0  0  0  0  0  0  0  0  0  0  0
    5.8659  -14.0337   26.9639 C   0  0  0  0  0  0  0  0  0  0  0  0
    5.5627  -12.6716   27.0755 C   0  0  0  0  0  0  0  0  0  0  0  0
    7.1292  -15.6914   23.0779 N   0  0  0  0  0  0  0  0  0  0  0  0
    7.9784  -15.6351   21.9370 C   0  0  1  0  0  0  0  0  0  0  0  0
    7.7344  -14.5552   20.9507 C   0  0  0  0  0  0  0  0  0  0  0  0
    8.4954  -14.5559   19.6887 C   0  0  0  0  0  0  0  0  0  0  0  0
    7.9568  -13.5709   18.7040 C   0  0  0  0  0  0  0  0  0  0  0  0
    8.7294  -13.7398   17.3914 C   0  0  0  0  0  0  0  0  0  0  0  0
    8.2067  -12.7324   16.4823 N   0  0  0  0  0  0  0  0  0  0  0  0
    9.4355  -15.5847   22.3637 C   0  0  0  0  0  0  0  0  0  0  0  0
    9.8411  -14.6861   23.1392 O   0  0  0  0  0  0  0  0  0  0  0  0
   10.3867  -16.5357   21.9120 N   0  0  0  0  0  0  0  0  0  0  0  0
   11.7818  -16.5176   22.2250 C   0  0  1  0  0  0  0  0  0  0  0  0
   12.2529  -17.7745   22.9147 C   0  0  0  0  0  0  0  0  0  0  0  0
   11.9208  -17.8102   24.3683 C   0  0  0  0  0  0  0  0  0  0  0  0
   12.4481  -19.0490   24.9592 C   0  0  0  0  0  0  0  0  0  0  0  0
   12.7567  -20.0102   24.2358 O   0  0  0  0  0  0  0  0  0  0  0  0
   12.6350  -16.2706   21.0330 C   0  0  0  0  0  0  0  0  0  0  0  0
   12.0646  -16.2904   19.9050 O   0  0  0  0  0  0  0  0  0  0  0  0
   12.6011  -19.1452   26.3221 O   0  0  0  0  0  0  0  0  0  0  0  0
   13.9777  -16.0280   21.0912 O   0  0  0  0  0  0  0  0  0  0  0  0
  2  1  1  0
  3  2  2  0
  4  3  1  0
  5  4  2  0
  5 11  1  0
  6  5  1  0
  7  6  1  0
  7  8  1  1
  9  7  1  0
  9 10  2  0
 11 12  2  0
 12  2  1  0
 13  9  1  0
 14 13  1  0
 14 15  1  1
 16 15  1  0
 17 16  1  0
 18 17  1  0
 19 18  1  0
 20 14  1  0
 20 21  2  0
 22 20  1  0
 23 22  1  0
 23 28  1  0
 23 24  1  6
 25 26  1  0
 25 24  1  0
 26 27  2  0
 28 29  2  0
 28 31  1  0
 30 26  1  0
M  END
$$$$
