YKE.pdb
     RDKit          3D

 31 31  0  0  1  0  0  0  0  0999 V2000
    5.2805  -10.8197   27.9680 O   0  0  0  0  0  0  0  0  0  0  0  0
    6.1630  -11.7403   27.4086 C   0  0  0  0  0  0  0  0  0  0  0  0
    5.6974  -12.5780   26.4169 C   0  0  0  0  0  0  0  0  0  0  0  0
    6.5471  -13.5103   25.8336 C   0  0  0  0  0  0  0  0  0  0  0  0
    7.8644  -13.6270   26.2214 C   0  0  0  0  0  0  0  0  0  0  0  0
    8.7475  -14.6301   25.5824 C   0  0  0  0  0  0  0  0  0  0  0  0
    7.8562  -15.6860   24.9711 C   0  0  2  0  0  0  0  0  0  0  0  0
    7.5271  -16.6261   26.0180 N   0  0  0  0  0  0  0  0  0  0  0  0
    8.4923  -16.3966   23.8570 C   0  0  0  0  0  0  0  0  0  0  0  0
    9.2198  -17.4124   23.9705 O   0  0  0  0  0  0  0  0  0  0  0  0
    8.3259  -12.7892   27.2117 C   0  0  0  0  0  0  0  0  0  0  0  0
    7.4679  -11.8509   27.7977 C   0  0  0  0  0  0  0  0  0  0  0  0
    8.2766  -15.9055   22.5255 N   0  0  0  0  0  0  0  0  0  0  0  0
    8.9165  -16.5217   21.4134 C   0  0  1  0  0  0  0  0  0  0  0  0
    8.3643  -16.2493   20.0645 C   0  0  0  0  0  0  0  0  0  0  0  0
    8.9271  -16.9642   18.9053 C   0  0  0  0  0  0  0  0  0  0  0  0
    8.2931  -16.5435   17.6203 C   0  0  0  0  0  0  0  0  0  0  0  0
    8.8315  -17.4475   16.5061 C   0  0  0  0  0  0  0  0  0  0  0  0
    8.2479  -16.9551   15.2687 N   0  0  0  0  0  0  0  0  0  0  0  0
   10.3997  -16.1934   21.4077 C   0  0  0  0  0  0  0  0  0  0  0  0
   10.8290  -15.1758   22.0025 O   0  0  0  0  0  0  0  0  0  0  0  0
   11.3500  -17.0092   20.7407 N   0  0  0  0  0  0  0  0  0  0  0  0
   12.7537  -17.0281   21.0117 C   0  0  1  0  0  0  0  0  0  0  0  0
   13.0743  -17.1671   22.4799 C   0  0  0  0  0  0  0  0  0  0  0  0
   13.8587  -16.0212   23.0240 C   0  0  0  0  0  0  0  0  0  0  0  0
   14.3998  -16.3824   24.3425 C   0  0  0  0  0  0  0  0  0  0  0  0
   15.4716  -15.8954   24.7383 O   0  0  0  0  0  0  0  0  0  0  0  0
   13.4704  -18.0895   20.2571 C   0  0  0  0  0  0  0  0  0  0  0  0
   12.9307  -19.2320   20.2212 O   0  0  0  0  0  0  0  0  0  0  0  0
   13.7154  -17.2651   25.1440 O   0  0  0  0  0  0  0  0  0  0  0  0
   14.6593  -17.8989   19.6125 O   0  0  0  0  0  0  0  0  0  0  0  0
  2  1  1  0
  3  2  2  0
  4  3  1  0
  5  4  2  0
  5 11  1  0
  6  5  1  0
  7  6  1  0
  7  8  1  1
  9  7  1  0
  9 10  2  0
 11 12  2  0
 12  2  1  0
 13  9  1  0
 14 13  1  0
 14 15  1  6
 16 15  1  0
 17 16  1  0
 18 17  1  0
 19 18  1  0
 20 14  1  0
 20 21  2  0
 22 20  1  0
 23 22  1  0
 23 28  1  0
 23 24  1  1
 25 26  1  0
 25 24  1  0
 26 27  2  0
 28 29  2  0
 28 31  1  0
 30 26  1  0
M  END
$$$$
