TEW.pdb
     RDKit          3D

 31 32  0  0  1  0  0  0  0  0999 V2000
   24.1708  -12.4313  -14.9297 C   0  0  0  0  0  0  0  0  0  0  0  0
   23.9245  -13.0730  -16.2551 C   0  0  1  0  0  0  0  0  0  0  0  0
   24.4359  -14.3602  -16.2819 O   0  0  0  0  0  0  0  0  0  0  0  0
   22.4807  -13.1148  -16.6666 C   0  0  2  0  0  0  0  0  0  0  0  0
   22.2647  -13.8419  -17.8900 N   0  0  0  0  0  0  0  0  0  0  0  0
   21.9337  -11.7274  -16.8021 C   0  0  0  0  0  0  0  0  0  0  0  0
   22.3913  -10.9315  -17.6660 O   0  0  0  0  0  0  0  0  0  0  0  0
   20.8856  -11.2324  -15.9810 N   0  0  0  0  0  0  0  0  0  0  0  0
   20.3361   -9.9120  -16.1779 C   0  0  1  0  0  0  0  0  0  0  0  0
   19.0435   -9.7527  -15.4471 C   0  0  0  0  0  0  0  0  0  0  0  0
   18.4426   -8.3832  -15.5958 C   0  0  0  0  0  0  0  0  0  0  0  0
   17.1335   -8.3796  -14.8888 C   0  0  0  0  0  0  0  0  0  0  0  0
   17.0276   -8.5036  -13.6478 O   0  0  0  0  0  0  0  0  0  0  0  0
   21.2835   -8.8504  -15.7535 C   0  0  0  0  0  0  0  0  0  0  0  0
   21.9107   -9.0166  -14.6792 O   0  0  0  0  0  0  0  0  0  0  0  0
   15.9548   -8.2330  -15.6203 O   0  0  0  0  0  0  0  0  0  0  0  0
   21.5094   -7.6675  -16.5014 N   0  0  0  0  0  0  0  0  0  0  0  0
   22.4332   -6.6247  -15.9862 C   0  0  1  0  0  0  0  0  0  0  0  0
   23.0811   -5.9649  -17.1707 C   0  0  0  0  0  0  0  0  0  0  0  0
   23.9317   -4.8110  -16.9026 C   0  0  0  0  0  0  0  0  0  0  0  0
   24.6259   -4.5731  -15.7169 C   0  0  0  0  0  0  0  0  0  0  0  0
   25.2716   -3.3981  -15.8333 N   0  0  0  0  0  0  0  0  0  0  0  0
   25.0511   -2.8431  -17.0177 C   0  0  0  0  0  0  0  0  0  0  0  0
   25.4798   -1.6790  -17.6263 C   0  0  0  0  0  0  0  0  0  0  0  0
   25.1088   -1.3390  -18.9027 C   0  0  0  0  0  0  0  0  0  0  0  0
   24.2852   -2.1900  -19.5878 C   0  0  0  0  0  0  0  0  0  0  0  0
   23.8564   -3.3476  -18.9861 C   0  0  0  0  0  0  0  0  0  0  0  0
   24.2082   -3.7264  -17.6982 C   0  0  0  0  0  0  0  0  0  0  0  0
   21.6253   -5.7376  -15.1474 C   0  0  0  0  0  0  0  0  0  0  0  0
   20.4239   -5.4151  -15.3801 O   0  0  0  0  0  0  0  0  0  0  0  0
   22.1422   -5.1528  -13.9726 O   0  0  0  0  0  0  0  0  0  0  0  0
  2  1  1  1
  3  2  1  0
  4  2  1  0
  4  5  1  6
  6  4  1  0
  6  7  2  0
  8  6  1  0
  9  8  1  0
  9 10  1  1
 11 10  1  0
 12 11  1  0
 13 12  2  0
 14  9  1  0
 15 14  2  0
 16 12  1  0
 17 14  1  0
 18 17  1  0
 18 19  1  6
 20 28  1  0
 20 19  1  0
 21 20  2  0
 22 21  1  0
 22 23  1  0
 23 28  2  0
 24 23  1  0
 24 25  2  0
 25 26  1  0
 26 27  2  0
 28 27  1  0
 29 18  1  0
 30 29  2  0
 31 29  1  0
M  END
$$$$
