TEW.pdb
     RDKit          3D

 31 32  0  0  1  0  0  0  0  0999 V2000
   27.8403  -22.7741  -14.8998 C   0  0  0  0  0  0  0  0  0  0  0  0
   28.3662  -21.6999  -15.7935 C   0  0  1  0  0  0  0  0  0  0  0  0
   29.0654  -22.2436  -16.8587 O   0  0  0  0  0  0  0  0  0  0  0  0
   27.3175  -20.7660  -16.3262 C   0  0  2  0  0  0  0  0  0  0  0  0
   27.8429  -19.8006  -17.2558 N   0  0  0  0  0  0  0  0  0  0  0  0
   26.6259  -20.0582  -15.2024 C   0  0  0  0  0  0  0  0  0  0  0  0
   27.1769  -19.0933  -14.6070 O   0  0  0  0  0  0  0  0  0  0  0  0
   25.3311  -20.4239  -14.7466 N   0  0  0  0  0  0  0  0  0  0  0  0
   24.7035  -19.7422  -13.6396 C   0  0  1  0  0  0  0  0  0  0  0  0
   23.2378  -19.5748  -13.8719 C   0  0  0  0  0  0  0  0  0  0  0  0
   22.9191  -18.6222  -14.9899 C   0  0  0  0  0  0  0  0  0  0  0  0
   21.5505  -18.9364  -15.4814 C   0  0  0  0  0  0  0  0  0  0  0  0
   21.3046  -19.2358  -16.6716 O   0  0  0  0  0  0  0  0  0  0  0  0
   24.9272  -20.4525  -12.3550 C   0  0  0  0  0  0  0  0  0  0  0  0
   24.8424  -21.7047  -12.3524 O   0  0  0  0  0  0  0  0  0  0  0  0
   20.4742  -18.9024  -14.5946 O   0  0  0  0  0  0  0  0  0  0  0  0
   25.2300  -19.7850  -11.1416 N   0  0  0  0  0  0  0  0  0  0  0  0
   25.4592  -20.5653   -9.8986 C   0  0  1  0  0  0  0  0  0  0  0  0
   26.6088  -19.9304   -9.1680 C   0  0  0  0  0  0  0  0  0  0  0  0
   26.8534  -20.3785   -7.8019 C   0  0  0  0  0  0  0  0  0  0  0  0
   26.2001  -21.4328   -7.1647 C   0  0  0  0  0  0  0  0  0  0  0  0
   26.6703  -21.5236   -5.9071 N   0  0  0  0  0  0  0  0  0  0  0  0
   27.5920  -20.5996   -5.6702 C   0  0  0  0  0  0  0  0  0  0  0  0
   28.3729  -20.2824   -4.5752 C   0  0  0  0  0  0  0  0  0  0  0  0
   29.2892  -19.2614   -4.5988 C   0  0  0  0  0  0  0  0  0  0  0  0
   29.4262  -18.5387   -5.7523 C   0  0  0  0  0  0  0  0  0  0  0  0
   28.6514  -18.8505   -6.8425 C   0  0  0  0  0  0  0  0  0  0  0  0
   27.7142  -19.8738   -6.8584 C   0  0  0  0  0  0  0  0  0  0  0  0
   24.1879  -20.5659   -9.1729 C   0  0  0  0  0  0  0  0  0  0  0  0
   23.3303  -19.6359   -9.2119 O   0  0  0  0  0  0  0  0  0  0  0  0
   23.8066  -21.6417   -8.3443 O   0  0  0  0  0  0  0  0  0  0  0  0
  2  1  1  6
  3  2  1  0
  4  2  1  0
  4  5  1  6
  6  4  1  0
  6  7  2  0
  8  6  1  0
  9  8  1  0
  9 10  1  6
 11 10  1  0
 12 11  1  0
 13 12  2  0
 14  9  1  0
 15 14  2  0
 16 12  1  0
 17 14  1  0
 18 17  1  0
 18 19  1  1
 20 28  1  0
 20 19  1  0
 21 20  2  0
 22 21  1  0
 22 23  1  0
 23 28  2  0
 24 23  1  0
 24 25  2  0
 25 26  1  0
 26 27  2  0
 28 27  1  0
 29 18  1  0
 30 29  2  0
 31 29  1  0
M  END
$$$$
