TEW.pdb
     RDKit          3D

 31 32  0  0  1  0  0  0  0  0999 V2000
   16.7179  -11.3435   -9.8615 C   0  0  0  0  0  0  0  0  0  0  0  0
   16.7465  -10.0672  -10.6357 C   0  0  1  0  0  0  0  0  0  0  0  0
   16.7106  -10.3164  -11.9980 O   0  0  0  0  0  0  0  0  0  0  0  0
   15.6470   -9.1049  -10.2884 C   0  0  2  0  0  0  0  0  0  0  0  0
   14.3370   -9.6055  -10.6130 N   0  0  0  0  0  0  0  0  0  0  0  0
   15.8665   -7.7896  -10.9697 C   0  0  0  0  0  0  0  0  0  0  0  0
   15.2926   -7.5201  -12.0593 O   0  0  0  0  0  0  0  0  0  0  0  0
   16.7189   -6.7841  -10.4403 N   0  0  0  0  0  0  0  0  0  0  0  0
   16.9322   -5.5370  -11.1353 C   0  0  1  0  0  0  0  0  0  0  0  0
   16.4120   -4.3833  -10.3424 C   0  0  0  0  0  0  0  0  0  0  0  0
   14.9112   -4.3092  -10.3171 C   0  0  0  0  0  0  0  0  0  0  0  0
   14.4463   -4.9003   -9.0333 C   0  0  0  0  0  0  0  0  0  0  0  0
   15.1278   -4.8749   -7.9837 O   0  0  0  0  0  0  0  0  0  0  0  0
   18.3666   -5.3190  -11.4514 C   0  0  0  0  0  0  0  0  0  0  0  0
   19.1869   -5.3314  -10.5016 O   0  0  0  0  0  0  0  0  0  0  0  0
   13.1968   -5.5174   -8.9703 O   0  0  0  0  0  0  0  0  0  0  0  0
   18.8468   -5.0995  -12.7670 N   0  0  0  0  0  0  0  0  0  0  0  0
   20.2850   -4.8077  -12.9967 C   0  0  1  0  0  0  0  0  0  0  0  0
   20.7922   -5.7907  -14.0138 C   0  0  0  0  0  0  0  0  0  0  0  0
   21.0519   -7.1487  -13.5498 C   0  0  0  0  0  0  0  0  0  0  0  0
   20.4272   -7.7701  -12.4690 C   0  0  0  0  0  0  0  0  0  0  0  0
   20.9498   -9.0023  -12.3295 N   0  0  0  0  0  0  0  0  0  0  0  0
   21.8786   -9.2377  -13.2469 C   0  0  0  0  0  0  0  0  0  0  0  0
   22.6833  -10.3218  -13.5409 C   0  0  0  0  0  0  0  0  0  0  0  0
   23.5728  -10.3130  -14.5856 C   0  0  0  0  0  0  0  0  0  0  0  0
   23.6576   -9.1861  -15.3566 C   0  0  0  0  0  0  0  0  0  0  0  0
   22.8599   -8.1063  -15.0671 C   0  0  0  0  0  0  0  0  0  0  0  0
   21.9494   -8.0755  -14.0203 C   0  0  0  0  0  0  0  0  0  0  0  0
   20.3601   -3.4027  -13.4011 C   0  0  0  0  0  0  0  0  0  0  0  0
   19.3689   -2.6906  -13.7361 O   0  0  0  0  0  0  0  0  0  0  0  0
   21.5872   -2.7091  -13.4504 O   0  0  0  0  0  0  0  0  0  0  0  0
  2  1  1  1
  3  2  1  0
  4  2  1  0
  4  5  1  6
  6  4  1  0
  6  7  2  0
  8  6  1  0
  9  8  1  0
  9 10  1  1
 11 10  1  0
 12 11  1  0
 13 12  2  0
 14  9  1  0
 15 14  2  0
 16 12  1  0
 17 14  1  0
 18 17  1  0
 18 19  1  6
 20 28  1  0
 20 19  1  0
 21 20  2  0
 22 21  1  0
 22 23  1  0
 23 28  2  0
 24 23  1  0
 24 25  2  0
 25 26  1  0
 26 27  2  0
 28 27  1  0
 29 18  1  0
 30 29  2  0
 31 29  1  0
M  END
$$$$
