TEW.pdb
     RDKit          3D

 31 32  0  0  1  0  0  0  0  0999 V2000
   29.3381  -24.9595  -17.0017 C   0  0  0  0  0  0  0  0  0  0  0  0
   28.7955  -23.8635  -16.1453 C   0  0  1  0  0  0  0  0  0  0  0  0
   28.3115  -24.3668  -14.9488 O   0  0  0  0  0  0  0  0  0  0  0  0
   29.7742  -22.7634  -15.8495 C   0  0  2  0  0  0  0  0  0  0  0  0
   30.9865  -23.2382  -15.2353 N   0  0  0  0  0  0  0  0  0  0  0  0
   29.1439  -21.7206  -14.9792 C   0  0  0  0  0  0  0  0  0  0  0  0
   29.5984  -21.4743  -13.8295 O   0  0  0  0  0  0  0  0  0  0  0  0
   28.0162  -20.9594  -15.3879 N   0  0  0  0  0  0  0  0  0  0  0  0
   27.4571  -19.9311  -14.5429 C   0  0  1  0  0  0  0  0  0  0  0  0
   26.3847  -19.1739  -15.2548 C   0  0  0  0  0  0  0  0  0  0  0  0
   25.7947  -18.0642  -14.4307 C   0  0  0  0  0  0  0  0  0  0  0  0
   26.1159  -16.7761  -15.1023 C   0  0  0  0  0  0  0  0  0  0  0  0
   26.5139  -16.7045  -16.2869 O   0  0  0  0  0  0  0  0  0  0  0  0
   26.9178  -20.4890  -13.2769 C   0  0  0  0  0  0  0  0  0  0  0  0
   26.2835  -21.5705  -13.3336 O   0  0  0  0  0  0  0  0  0  0  0  0
   25.9753  -15.5784  -14.4009 O   0  0  0  0  0  0  0  0  0  0  0  0
   27.0861  -19.8600  -12.0178 N   0  0  0  0  0  0  0  0  0  0  0  0
   26.5997  -20.5244  -10.7815 C   0  0  1  0  0  0  0  0  0  0  0  0
   27.5233  -20.1351   -9.6619 C   0  0  0  0  0  0  0  0  0  0  0  0
   27.1244  -20.5160   -8.3118 C   0  0  0  0  0  0  0  0  0  0  0  0
   25.9592  -21.2034   -7.9738 C   0  0  0  0  0  0  0  0  0  0  0  0
   25.9236  -21.3432   -6.6358 N   0  0  0  0  0  0  0  0  0  0  0  0
   26.9884  -20.7942   -6.0662 C   0  0  0  0  0  0  0  0  0  0  0  0
   27.4265  -20.6812   -4.7606 C   0  0  0  0  0  0  0  0  0  0  0  0
   28.6075  -20.0637   -4.4341 C   0  0  0  0  0  0  0  0  0  0  0  0
   29.3701  -19.5455   -5.4448 C   0  0  0  0  0  0  0  0  0  0  0  0
   28.9377  -19.6553   -6.7436 C   0  0  0  0  0  0  0  0  0  0  0  0
   27.7506  -20.2709   -7.1145 C   0  0  0  0  0  0  0  0  0  0  0  0
   25.2073  -20.1064  -10.6104 C   0  0  0  0  0  0  0  0  0  0  0  0
   24.3690  -20.6713   -9.8489 O   0  0  0  0  0  0  0  0  0  0  0  0
   24.6730  -19.0018  -11.3060 O   0  0  0  0  0  0  0  0  0  0  0  0
  2  1  1  1
  3  2  1  0
  4  2  1  0
  4  5  1  1
  6  4  1  0
  6  7  2  0
  8  6  1  0
  9  8  1  0
  9 10  1  6
 11 10  1  0
 12 11  1  0
 13 12  2  0
 14  9  1  0
 15 14  2  0
 16 12  1  0
 17 14  1  0
 18 17  1  0
 18 19  1  1
 20 28  1  0
 20 19  1  0
 21 20  2  0
 22 21  1  0
 22 23  1  0
 23 28  2  0
 24 23  1  0
 24 25  2  0
 25 26  1  0
 26 27  2  0
 28 27  1  0
 29 18  1  0
 30 29  2  0
 31 29  1  0
M  END
$$$$
