TEW.pdb
     RDKit          3D

 31 32  0  0  1  0  0  0  0  0999 V2000
   19.2145  -10.4218  -14.2589 C   0  0  0  0  0  0  0  0  0  0  0  0
   19.2103  -11.0462  -15.6150 C   0  0  1  0  0  0  0  0  0  0  0  0
   18.9386  -12.4020  -15.5324 O   0  0  0  0  0  0  0  0  0  0  0  0
   18.2528  -10.4168  -16.5860 C   0  0  2  0  0  0  0  0  0  0  0  0
   18.1902  -11.1110  -17.8454 N   0  0  0  0  0  0  0  0  0  0  0  0
   18.6104   -8.9815  -16.8194 C   0  0  0  0  0  0  0  0  0  0  0  0
   19.4854   -8.6611  -17.6685 O   0  0  0  0  0  0  0  0  0  0  0  0
   17.9974   -7.9132  -16.1117 N   0  0  0  0  0  0  0  0  0  0  0  0
   18.3023   -6.5358  -16.4179 C   0  0  1  0  0  0  0  0  0  0  0  0
   17.0562   -5.7198  -16.5254 C   0  0  0  0  0  0  0  0  0  0  0  0
   17.3213   -4.2614  -16.7733 C   0  0  0  0  0  0  0  0  0  0  0  0
   17.0302   -3.9812  -18.2051 C   0  0  0  0  0  0  0  0  0  0  0  0
   15.9928   -4.3790  -18.7814 O   0  0  0  0  0  0  0  0  0  0  0  0
   19.2081   -5.9327  -15.4076 C   0  0  0  0  0  0  0  0  0  0  0  0
   18.9286   -6.0957  -14.1949 O   0  0  0  0  0  0  0  0  0  0  0  0
   17.9400   -3.2431  -18.9625 O   0  0  0  0  0  0  0  0  0  0  0  0
   20.3648   -5.1875  -15.7487 N   0  0  0  0  0  0  0  0  0  0  0  0
   21.1891   -4.5613  -14.6835 C   0  0  1  0  0  0  0  0  0  0  0  0
   22.6279   -4.8860  -14.9712 C   0  0  0  0  0  0  0  0  0  0  0  0
   23.0403   -6.2743  -14.7995 C   0  0  0  0  0  0  0  0  0  0  0  0
   23.8792   -6.9834  -15.6584 C   0  0  0  0  0  0  0  0  0  0  0  0
   24.0021   -8.2386  -15.1889 N   0  0  0  0  0  0  0  0  0  0  0  0
   23.3004   -8.4068  -14.0758 C   0  0  0  0  0  0  0  0  0  0  0  0
   23.1070   -9.4705  -13.2154 C   0  0  0  0  0  0  0  0  0  0  0  0
   22.3249   -9.3727  -12.0923 C   0  0  0  0  0  0  0  0  0  0  0  0
   21.7203   -8.1750  -11.8246 C   0  0  0  0  0  0  0  0  0  0  0  0
   21.9097   -7.1156  -12.6777 C   0  0  0  0  0  0  0  0  0  0  0  0
   22.6914   -7.1744  -13.8228 C   0  0  0  0  0  0  0  0  0  0  0  0
   20.8613   -3.1346  -14.6950 C   0  0  0  0  0  0  0  0  0  0  0  0
   20.1309   -2.5653  -15.5577 O   0  0  0  0  0  0  0  0  0  0  0  0
   21.3517   -2.2523  -13.7099 O   0  0  0  0  0  0  0  0  0  0  0  0
  2  1  1  1
  3  2  1  0
  4  2  1  0
  4  5  1  6
  6  4  1  0
  6  7  2  0
  8  6  1  0
  9  8  1  0
  9 10  1  1
 11 10  1  0
 12 11  1  0
 13 12  2  0
 14  9  1  0
 15 14  2  0
 16 12  1  0
 17 14  1  0
 18 17  1  0
 18 19  1  6
 20 28  1  0
 20 19  1  0
 21 20  2  0
 22 21  1  0
 22 23  1  0
 23 28  2  0
 24 23  1  0
 24 25  2  0
 25 26  1  0
 26 27  2  0
 28 27  1  0
 29 18  1  0
 30 29  2  0
 31 29  1  0
M  END
$$$$
