TEW.pdb
     RDKit          3D

 31 32  0  0  1  0  0  0  0  0999 V2000
   28.8640  -17.1182  -17.5179 C   0  0  0  0  0  0  0  0  0  0  0  0
   27.8784  -17.8666  -16.6828 C   0  0  1  0  0  0  0  0  0  0  0  0
   26.6680  -17.9940  -17.3445 O   0  0  0  0  0  0  0  0  0  0  0  0
   28.3398  -19.2277  -16.2469 C   0  0  2  0  0  0  0  0  0  0  0  0
   28.5804  -20.1208  -17.3500 N   0  0  0  0  0  0  0  0  0  0  0  0
   27.3477  -19.8423  -15.3087 C   0  0  0  0  0  0  0  0  0  0  0  0
   26.5148  -20.6972  -15.7145 O   0  0  0  0  0  0  0  0  0  0  0  0
   27.2853  -19.5061  -13.9299 N   0  0  0  0  0  0  0  0  0  0  0  0
   26.2521  -20.0368  -13.0727 C   0  0  1  0  0  0  0  0  0  0  0  0
   26.5323  -19.7294  -11.6384 C   0  0  0  0  0  0  0  0  0  0  0  0
   25.4566  -20.2126  -10.7067 C   0  0  0  0  0  0  0  0  0  0  0  0
   25.5476  -21.6959  -10.6343 C   0  0  0  0  0  0  0  0  0  0  0  0
   24.6174  -22.4169  -10.2082 O   0  0  0  0  0  0  0  0  0  0  0  0
   24.9095  -19.5203  -13.4407 C   0  0  0  0  0  0  0  0  0  0  0  0
   24.7898  -18.2884  -13.6491 O   0  0  0  0  0  0  0  0  0  0  0  0
   26.7131  -22.3369  -11.0546 O   0  0  0  0  0  0  0  0  0  0  0  0
   23.7666  -20.3495  -13.5665 N   0  0  0  0  0  0  0  0  0  0  0  0
   22.4657  -19.7674  -13.9849 C   0  0  1  0  0  0  0  0  0  0  0  0
   22.5570  -19.4563  -15.4522 C   0  0  0  0  0  0  0  0  0  0  0  0
   21.3355  -19.0087  -16.1113 C   0  0  0  0  0  0  0  0  0  0  0  0
   20.3729  -18.1689  -15.5521 C   0  0  0  0  0  0  0  0  0  0  0  0
   19.3803  -18.0086  -16.4466 N   0  0  0  0  0  0  0  0  0  0  0  0
   19.6226  -18.6863  -17.5608 C   0  0  0  0  0  0  0  0  0  0  0  0
   18.9469  -18.8397  -18.7563 C   0  0  0  0  0  0  0  0  0  0  0  0
   19.4390  -19.6038  -19.7842 C   0  0  0  0  0  0  0  0  0  0  0  0
   20.6419  -20.2312  -19.6084 C   0  0  0  0  0  0  0  0  0  0  0  0
   21.3162  -20.0817  -18.4214 C   0  0  0  0  0  0  0  0  0  0  0  0
   20.8524  -19.3192  -17.3588 C   0  0  0  0  0  0  0  0  0  0  0  0
   21.4407  -20.7474  -13.6215 C   0  0  0  0  0  0  0  0  0  0  0  0
   21.6594  -21.9709  -13.3831 O   0  0  0  0  0  0  0  0  0  0  0  0
   20.0810  -20.3909  -13.5049 O   0  0  0  0  0  0  0  0  0  0  0  0
  2  1  1  6
  3  2  1  0
  4  2  1  0
  4  5  1  6
  6  4  1  0
  6  7  2  0
  8  6  1  0
  9  8  1  0
  9 10  1  1
 11 10  1  0
 12 11  1  0
 13 12  2  0
 14  9  1  0
 15 14  2  0
 16 12  1  0
 17 14  1  0
 18 17  1  0
 18 19  1  6
 20 28  1  0
 20 19  1  0
 21 20  2  0
 22 21  1  0
 22 23  1  0
 23 28  2  0
 24 23  1  0
 24 25  2  0
 25 26  1  0
 26 27  2  0
 28 27  1  0
 29 18  1  0
 30 29  2  0
 31 29  1  0
M  END
$$$$
