TEW.pdb
     RDKit          3D

 31 32  0  0  1  0  0  0  0  0999 V2000
   26.5514  -18.4195  -20.6148 C   0  0  0  0  0  0  0  0  0  0  0  0
   25.8157  -17.1418  -20.8497 C   0  0  1  0  0  0  0  0  0  0  0  0
   26.0185  -16.6870  -22.1424 O   0  0  0  0  0  0  0  0  0  0  0  0
   24.3388  -17.2177  -20.5871 C   0  0  2  0  0  0  0  0  0  0  0  0
   23.6539  -15.9816  -20.8611 N   0  0  0  0  0  0  0  0  0  0  0  0
   24.0785  -17.6349  -19.1727 C   0  0  0  0  0  0  0  0  0  0  0  0
   24.3667  -16.8750  -18.2090 O   0  0  0  0  0  0  0  0  0  0  0  0
   23.5018  -18.8888  -18.8364 N   0  0  0  0  0  0  0  0  0  0  0  0
   23.3780  -19.3151  -17.4628 C   0  0  1  0  0  0  0  0  0  0  0  0
   22.3387  -20.3780  -17.3208 C   0  0  0  0  0  0  0  0  0  0  0  0
   22.2070  -20.8955  -15.9160 C   0  0  0  0  0  0  0  0  0  0  0  0
   21.1773  -20.0759  -15.2220 C   0  0  0  0  0  0  0  0  0  0  0  0
   19.9536  -20.1646  -15.4694 O   0  0  0  0  0  0  0  0  0  0  0  0
   24.6697  -19.8041  -16.9175 C   0  0  0  0  0  0  0  0  0  0  0  0
   25.3846  -20.5250  -17.6553 O   0  0  0  0  0  0  0  0  0  0  0  0
   21.5681  -19.1586  -14.2464 O   0  0  0  0  0  0  0  0  0  0  0  0
   25.1276  -19.4954  -15.6119 N   0  0  0  0  0  0  0  0  0  0  0  0
   26.4527  -19.9840  -15.1517 C   0  0  1  0  0  0  0  0  0  0  0  0
   26.8722  -19.1328  -13.9865 C   0  0  0  0  0  0  0  0  0  0  0  0
   26.9788  -19.7917  -12.6898 C   0  0  0  0  0  0  0  0  0  0  0  0
   28.1195  -20.4190  -12.1900 C   0  0  0  0  0  0  0  0  0  0  0  0
   27.8236  -20.9361  -10.9833 N   0  0  0  0  0  0  0  0  0  0  0  0
   26.5627  -20.6919  -10.6514 C   0  0  0  0  0  0  0  0  0  0  0  0
   25.7885  -20.9840   -9.5448 C   0  0  0  0  0  0  0  0  0  0  0  0
   24.4787  -20.5887   -9.4410 C   0  0  0  0  0  0  0  0  0  0  0  0
   23.9303  -19.8808  -10.4754 C   0  0  0  0  0  0  0  0  0  0  0  0
   24.6965  -19.5890  -11.5771 C   0  0  0  0  0  0  0  0  0  0  0  0
   26.0229  -19.9711  -11.7204 C   0  0  0  0  0  0  0  0  0  0  0  0
   26.2849  -21.4069  -14.8514 C   0  0  0  0  0  0  0  0  0  0  0  0
   25.1793  -21.9696  -14.6006 O   0  0  0  0  0  0  0  0  0  0  0  0
   27.3819  -22.2927  -14.8172 O   0  0  0  0  0  0  0  0  0  0  0  0
  2  1  1  6
  3  2  1  0
  4  2  1  0
  4  5  1  1
  6  4  1  0
  6  7  2  0
  8  6  1  0
  9  8  1  0
  9 10  1  6
 11 10  1  0
 12 11  1  0
 13 12  2  0
 14  9  1  0
 15 14  2  0
 16 12  1  0
 17 14  1  0
 18 17  1  0
 18 19  1  1
 20 28  1  0
 20 19  1  0
 21 20  2  0
 22 21  1  0
 22 23  1  0
 23 28  2  0
 24 23  1  0
 24 25  2  0
 25 26  1  0
 26 27  2  0
 28 27  1  0
 29 18  1  0
 30 29  2  0
 31 29  1  0
M  END
$$$$
