TEW.pdb
     RDKit          3D

 31 32  0  0  1  0  0  0  0  0999 V2000
   26.4839  -18.3278  -13.7262 C   0  0  0  0  0  0  0  0  0  0  0  0
   27.1492  -18.5373  -15.0463 C   0  0  1  0  0  0  0  0  0  0  0  0
   28.3722  -17.8880  -15.0902 O   0  0  0  0  0  0  0  0  0  0  0  0
   27.3501  -19.9782  -15.4192 C   0  0  2  0  0  0  0  0  0  0  0  0
   28.0247  -20.1449  -16.6799 N   0  0  0  0  0  0  0  0  0  0  0  0
   26.0381  -20.6994  -15.4510 C   0  0  0  0  0  0  0  0  0  0  0  0
   25.2350  -20.5426  -16.4100 O   0  0  0  0  0  0  0  0  0  0  0  0
   25.6257  -21.5876  -14.4219 N   0  0  0  0  0  0  0  0  0  0  0  0
   24.3076  -22.1762  -14.4204 C   0  0  1  0  0  0  0  0  0  0  0  0
   24.2286  -23.3166  -13.4594 C   0  0  0  0  0  0  0  0  0  0  0  0
   22.8754  -23.9696  -13.4233 C   0  0  0  0  0  0  0  0  0  0  0  0
   22.9326  -25.1865  -14.2773 C   0  0  0  0  0  0  0  0  0  0  0  0
   23.8877  -25.9951  -14.2503 O   0  0  0  0  0  0  0  0  0  0  0  0
   23.2570  -21.1777  -14.0975 C   0  0  0  0  0  0  0  0  0  0  0  0
   23.4443  -20.4246  -13.1111 O   0  0  0  0  0  0  0  0  0  0  0  0
   21.8859  -25.4615  -15.1575 O   0  0  0  0  0  0  0  0  0  0  0  0
   22.0622  -21.0382  -14.8474 N   0  0  0  0  0  0  0  0  0  0  0  0
   21.0378  -20.0430  -14.4393 C   0  0  1  0  0  0  0  0  0  0  0  0
   21.4827  -18.6989  -14.9430 C   0  0  0  0  0  0  0  0  0  0  0  0
   20.5407  -17.5944  -14.8029 C   0  0  0  0  0  0  0  0  0  0  0  0
   20.0544  -17.0910  -13.5968 C   0  0  0  0  0  0  0  0  0  0  0  0
   19.1862  -16.1002  -13.8714 N   0  0  0  0  0  0  0  0  0  0  0  0
   19.0663  -15.9142  -15.1793 C   0  0  0  0  0  0  0  0  0  0  0  0
   18.3370  -15.0384  -15.9607 C   0  0  0  0  0  0  0  0  0  0  0  0
   18.4098  -15.0430  -17.3308 C   0  0  0  0  0  0  0  0  0  0  0  0
   19.2367  -15.9509  -17.9339 C   0  0  0  0  0  0  0  0  0  0  0  0
   19.9626  -16.8234  -17.1607 C   0  0  0  0  0  0  0  0  0  0  0  0
   19.9162  -16.8510  -15.7740 C   0  0  0  0  0  0  0  0  0  0  0  0
   19.7638  -20.5178  -14.9819 C   0  0  0  0  0  0  0  0  0  0  0  0
   19.6354  -21.1976  -16.0417 O   0  0  0  0  0  0  0  0  0  0  0  0
   18.5367  -20.2445  -14.3425 O   0  0  0  0  0  0  0  0  0  0  0  0
  2  1  1  1
  3  2  1  0
  4  2  1  0
  4  5  1  6
  6  4  1  0
  6  7  2  0
  8  6  1  0
  9  8  1  0
  9 10  1  1
 11 10  1  0
 12 11  1  0
 13 12  2  0
 14  9  1  0
 15 14  2  0
 16 12  1  0
 17 14  1  0
 18 17  1  0
 18 19  1  6
 20 28  1  0
 20 19  1  0
 21 20  2  0
 22 21  1  0
 22 23  1  0
 23 28  2  0
 24 23  1  0
 24 25  2  0
 25 26  1  0
 26 27  2  0
 28 27  1  0
 29 18  1  0
 30 29  2  0
 31 29  1  0
M  END
$$$$
