TEW.pdb
     RDKit          3D

 31 32  0  0  1  0  0  0  0  0999 V2000
   21.7610   -9.6093  -21.6937 C   0  0  0  0  0  0  0  0  0  0  0  0
   21.3564   -8.8188  -20.4935 C   0  0  1  0  0  0  0  0  0  0  0  0
   22.2976   -8.9388  -19.4842 O   0  0  0  0  0  0  0  0  0  0  0  0
   21.1146   -7.3610  -20.7620 C   0  0  2  0  0  0  0  0  0  0  0  0
   22.2923   -6.6692  -21.2166 N   0  0  0  0  0  0  0  0  0  0  0  0
   20.5739   -6.6853  -19.5400 C   0  0  0  0  0  0  0  0  0  0  0  0
   21.3407   -6.0917  -18.7344 O   0  0  0  0  0  0  0  0  0  0  0  0
   19.1901   -6.6721  -19.2194 N   0  0  0  0  0  0  0  0  0  0  0  0
   18.6927   -5.9628  -18.0646 C   0  0  1  0  0  0  0  0  0  0  0  0
   17.2667   -5.5611  -18.2529 C   0  0  0  0  0  0  0  0  0  0  0  0
   16.7066   -4.7964  -17.0866 C   0  0  0  0  0  0  0  0  0  0  0  0
   15.2836   -4.4827  -17.3871 C   0  0  0  0  0  0  0  0  0  0  0  0
   14.7026   -4.8745  -18.4242 O   0  0  0  0  0  0  0  0  0  0  0  0
   18.8250   -6.7666  -16.8232 C   0  0  0  0  0  0  0  0  0  0  0  0
   18.6436   -8.0060  -16.9026 O   0  0  0  0  0  0  0  0  0  0  0  0
   14.5408   -3.7179  -16.4875 O   0  0  0  0  0  0  0  0  0  0  0  0
   19.1445   -6.2015  -15.5630 N   0  0  0  0  0  0  0  0  0  0  0  0
   19.1500   -7.0513  -14.3447 C   0  0  1  0  0  0  0  0  0  0  0  0
   20.5809   -7.3832  -14.0276 C   0  0  0  0  0  0  0  0  0  0  0  0
   20.8977   -7.6854  -12.6365 C   0  0  0  0  0  0  0  0  0  0  0  0
   20.6063   -8.8802  -11.9792 C   0  0  0  0  0  0  0  0  0  0  0  0
   21.0208   -8.7732  -10.7034 N   0  0  0  0  0  0  0  0  0  0  0  0
   21.5678   -7.5868  -10.4731 C   0  0  0  0  0  0  0  0  0  0  0  0
   22.1455   -6.9957   -9.3658 C   0  0  0  0  0  0  0  0  0  0  0  0
   22.6670   -5.7270   -9.3999 C   0  0  0  0  0  0  0  0  0  0  0  0
   22.6075   -5.0321  -10.5768 C   0  0  0  0  0  0  0  0  0  0  0  0
   22.0334   -5.6160  -11.6794 C   0  0  0  0  0  0  0  0  0  0  0  0
   21.4948   -6.8950  -11.6854 C   0  0  0  0  0  0  0  0  0  0  0  0
   18.4458   -6.2917  -13.3102 C   0  0  0  0  0  0  0  0  0  0  0  0
   17.8674   -6.7991  -12.3053 O   0  0  0  0  0  0  0  0  0  0  0  0
   18.3543   -4.8849  -13.3550 O   0  0  0  0  0  0  0  0  0  0  0  0
  2  1  1  6
  3  2  1  0
  4  2  1  0
  4  5  1  1
  6  4  1  0
  6  7  2  0
  8  6  1  0
  9  8  1  0
  9 10  1  6
 11 10  1  0
 12 11  1  0
 13 12  2  0
 14  9  1  0
 15 14  2  0
 16 12  1  0
 17 14  1  0
 18 17  1  0
 18 19  1  1
 20 28  1  0
 20 19  1  0
 21 20  2  0
 22 21  1  0
 22 23  1  0
 23 28  2  0
 24 23  1  0
 24 25  2  0
 25 26  1  0
 26 27  2  0
 28 27  1  0
 29 18  1  0
 30 29  2  0
 31 29  1  0
M  END
$$$$
