TEW.pdb
     RDKit          3D

 31 32  0  0  1  0  0  0  0  0999 V2000
   25.7681  -15.4510  -14.6303 C   0  0  0  0  0  0  0  0  0  0  0  0
   24.7777  -15.5722  -15.7409 C   0  0  1  0  0  0  0  0  0  0  0  0
   24.3910  -14.3219  -16.1949 O   0  0  0  0  0  0  0  0  0  0  0  0
   25.2509  -16.3887  -16.9092 C   0  0  2  0  0  0  0  0  0  0  0  0
   24.2929  -16.4446  -17.9822 N   0  0  0  0  0  0  0  0  0  0  0  0
   25.5984  -17.7780  -16.4716 C   0  0  0  0  0  0  0  0  0  0  0  0
   24.7119  -18.6695  -16.3790 O   0  0  0  0  0  0  0  0  0  0  0  0
   26.9232  -18.1692  -16.1401 N   0  0  0  0  0  0  0  0  0  0  0  0
   27.2095  -19.4818  -15.6118 C   0  0  1  0  0  0  0  0  0  0  0  0
   28.5689  -19.9429  -16.0236 C   0  0  0  0  0  0  0  0  0  0  0  0
   28.9347  -21.2881  -15.4621 C   0  0  0  0  0  0  0  0  0  0  0  0
   28.4441  -22.3265  -16.4079 C   0  0  0  0  0  0  0  0  0  0  0  0
   28.4167  -23.5462  -16.1283 O   0  0  0  0  0  0  0  0  0  0  0  0
   27.0973  -19.5181  -14.1316 C   0  0  0  0  0  0  0  0  0  0  0  0
   27.8177  -18.7338  -13.4675 O   0  0  0  0  0  0  0  0  0  0  0  0
   27.9884  -21.9491  -17.6712 O   0  0  0  0  0  0  0  0  0  0  0  0
   26.2202  -20.3916  -13.4409 N   0  0  0  0  0  0  0  0  0  0  0  0
   26.1276  -20.3371  -11.9594 C   0  0  1  0  0  0  0  0  0  0  0  0
   24.9098  -19.5295  -11.6088 C   0  0  0  0  0  0  0  0  0  0  0  0
   23.6132  -20.1091  -11.9400 C   0  0  0  0  0  0  0  0  0  0  0  0
   23.0046  -21.1709  -11.2717 C   0  0  0  0  0  0  0  0  0  0  0  0
   21.8373  -21.4427  -11.8838 N   0  0  0  0  0  0  0  0  0  0  0  0
   21.6330  -20.6306  -12.9125 C   0  0  0  0  0  0  0  0  0  0  0  0
   20.6123  -20.4864  -13.8327 C   0  0  0  0  0  0  0  0  0  0  0  0
   20.6389  -19.5272  -14.8134 C   0  0  0  0  0  0  0  0  0  0  0  0
   21.7189  -18.6895  -14.8729 C   0  0  0  0  0  0  0  0  0  0  0  0
   22.7357  -18.8301  -13.9605 C   0  0  0  0  0  0  0  0  0  0  0  0
   22.7465  -19.7868  -12.9554 C   0  0  0  0  0  0  0  0  0  0  0  0
   26.1047  -21.7259  -11.4973 C   0  0  0  0  0  0  0  0  0  0  0  0
   26.0503  -22.7405  -12.2520 O   0  0  0  0  0  0  0  0  0  0  0  0
   26.1428  -22.0526  -10.1257 O   0  0  0  0  0  0  0  0  0  0  0  0
  2  1  1  1
  3  2  1  0
  4  2  1  0
  4  5  1  6
  6  4  1  0
  6  7  2  0
  8  6  1  0
  9  8  1  0
  9 10  1  1
 11 10  1  0
 12 11  1  0
 13 12  2  0
 14  9  1  0
 15 14  2  0
 16 12  1  0
 17 14  1  0
 18 17  1  0
 18 19  1  6
 20 28  1  0
 20 19  1  0
 21 20  2  0
 22 21  1  0
 22 23  1  0
 23 28  2  0
 24 23  1  0
 24 25  2  0
 25 26  1  0
 26 27  2  0
 28 27  1  0
 29 18  1  0
 30 29  2  0
 31 29  1  0
M  END
$$$$
