TEW.pdb
     RDKit          3D

 31 32  0  0  1  0  0  0  0  0999 V2000
   15.0793  -11.1567  -15.8730 C   0  0  0  0  0  0  0  0  0  0  0  0
   16.3619  -10.4246  -16.0922 C   0  0  1  0  0  0  0  0  0  0  0  0
   17.4478  -11.2546  -15.8670 O   0  0  0  0  0  0  0  0  0  0  0  0
   16.4984   -9.8039  -17.4531 C   0  0  2  0  0  0  0  0  0  0  0  0
   16.4887  -10.7729  -18.5175 N   0  0  0  0  0  0  0  0  0  0  0  0
   17.7476   -8.9820  -17.5317 C   0  0  0  0  0  0  0  0  0  0  0  0
   18.7187   -9.3452  -18.2488 O   0  0  0  0  0  0  0  0  0  0  0  0
   17.9121   -7.7657  -16.8164 N   0  0  0  0  0  0  0  0  0  0  0  0
   19.0508   -6.9079  -17.0438 C   0  0  1  0  0  0  0  0  0  0  0  0
   18.7218   -5.4841  -16.7363 C   0  0  0  0  0  0  0  0  0  0  0  0
   19.8401   -4.5335  -17.0593 C   0  0  0  0  0  0  0  0  0  0  0  0
   19.3716   -3.1555  -16.7509 C   0  0  0  0  0  0  0  0  0  0  0  0
   18.2514   -2.9117  -16.2486 O   0  0  0  0  0  0  0  0  0  0  0  0
   20.2294   -7.3313  -16.2461 C   0  0  0  0  0  0  0  0  0  0  0  0
   20.0579   -7.5752  -15.0269 O   0  0  0  0  0  0  0  0  0  0  0  0
   20.2006   -2.0674  -17.0249 O   0  0  0  0  0  0  0  0  0  0  0  0
   21.5286   -7.4714  -16.7954 N   0  0  0  0  0  0  0  0  0  0  0  0
   22.6445   -7.9721  -15.9525 C   0  0  1  0  0  0  0  0  0  0  0  0
   23.6251   -8.6623  -16.8583 C   0  0  0  0  0  0  0  0  0  0  0  0
   24.8049   -9.2483  -16.2327 C   0  0  0  0  0  0  0  0  0  0  0  0
   24.8120   -9.9974  -15.0566 C   0  0  0  0  0  0  0  0  0  0  0  0
   26.0842  -10.3374  -14.7793 N   0  0  0  0  0  0  0  0  0  0  0  0
   26.9194   -9.8633  -15.6943 C   0  0  0  0  0  0  0  0  0  0  0  0
   28.2868   -9.9409  -15.8769 C   0  0  0  0  0  0  0  0  0  0  0  0
   28.9179   -9.3606  -16.9482 C   0  0  0  0  0  0  0  0  0  0  0  0
   28.1566   -8.6841  -17.8616 C   0  0  0  0  0  0  0  0  0  0  0  0
   26.7972   -8.6043  -17.6833 C   0  0  0  0  0  0  0  0  0  0  0  0
   26.1222   -9.1761  -16.6141 C   0  0  0  0  0  0  0  0  0  0  0  0
   23.1734   -6.8095  -15.2372 C   0  0  0  0  0  0  0  0  0  0  0  0
   23.5041   -6.7986  -14.0156 O   0  0  0  0  0  0  0  0  0  0  0  0
   23.3621   -5.5669  -15.8772 O   0  0  0  0  0  0  0  0  0  0  0  0
  2  1  1  6
  3  2  1  0
  4  2  1  0
  4  5  1  6
  6  4  1  0
  6  7  2  0
  8  6  1  0
  9  8  1  0
  9 10  1  1
 11 10  1  0
 12 11  1  0
 13 12  2  0
 14  9  1  0
 15 14  2  0
 16 12  1  0
 17 14  1  0
 18 17  1  0
 18 19  1  6
 20 28  1  0
 20 19  1  0
 21 20  2  0
 22 21  1  0
 22 23  1  0
 23 28  2  0
 24 23  1  0
 24 25  2  0
 25 26  1  0
 26 27  2  0
 28 27  1  0
 29 18  1  0
 30 29  2  0
 31 29  1  0
M  END
$$$$
