TEW.pdb
     RDKit          3D

 31 32  0  0  1  0  0  0  0  0999 V2000
   19.6533  -11.0023  -15.5608 C   0  0  0  0  0  0  0  0  0  0  0  0
   20.9541  -11.4593  -14.9878 C   0  0  1  0  0  0  0  0  0  0  0  0
   21.3821  -12.6237  -15.6042 O   0  0  0  0  0  0  0  0  0  0  0  0
   22.0553  -10.4403  -15.0556 C   0  0  2  0  0  0  0  0  0  0  0  0
   23.3097  -10.9320  -14.5487 N   0  0  0  0  0  0  0  0  0  0  0  0
   21.6660   -9.1975  -14.3165 C   0  0  0  0  0  0  0  0  0  0  0  0
   21.7678   -9.1305  -13.0618 O   0  0  0  0  0  0  0  0  0  0  0  0
   21.1673   -8.0397  -14.9715 N   0  0  0  0  0  0  0  0  0  0  0  0
   20.8508   -6.8380  -14.2368 C   0  0  1  0  0  0  0  0  0  0  0  0
   20.9413   -5.6321  -15.1130 C   0  0  0  0  0  0  0  0  0  0  0  0
   20.6195   -4.3515  -14.3952 C   0  0  0  0  0  0  0  0  0  0  0  0
   20.6632   -3.2466  -15.3906 C   0  0  0  0  0  0  0  0  0  0  0  0
   20.9823   -3.4192  -16.5885 O   0  0  0  0  0  0  0  0  0  0  0  0
   19.5019   -6.9067  -13.6200 C   0  0  0  0  0  0  0  0  0  0  0  0
   18.6079   -7.5427  -14.2295 O   0  0  0  0  0  0  0  0  0  0  0  0
   20.3380   -1.9488  -14.9956 O   0  0  0  0  0  0  0  0  0  0  0  0
   19.1814   -6.2913  -12.3838 N   0  0  0  0  0  0  0  0  0  0  0  0
   17.8205   -6.4402  -11.8076 C   0  0  1  0  0  0  0  0  0  0  0  0
   17.9261   -7.3568  -10.6214 C   0  0  0  0  0  0  0  0  0  0  0  0
   16.7435   -7.4868   -9.7780 C   0  0  0  0  0  0  0  0  0  0  0  0
   16.4018   -6.6403   -8.7239 C   0  0  0  0  0  0  0  0  0  0  0  0
   15.2657   -7.0971   -8.1657 N   0  0  0  0  0  0  0  0  0  0  0  0
   14.8327   -8.1895   -8.7811 C   0  0  0  0  0  0  0  0  0  0  0  0
   13.7370   -9.0145   -8.6130 C   0  0  0  0  0  0  0  0  0  0  0  0
   13.5055  -10.0999   -9.4199 C   0  0  0  0  0  0  0  0  0  0  0  0
   14.3972  -10.3650  -10.4230 C   0  0  0  0  0  0  0  0  0  0  0  0
   15.4877   -9.5477  -10.5928 C   0  0  0  0  0  0  0  0  0  0  0  0
   15.7573   -8.4423   -9.7983 C   0  0  0  0  0  0  0  0  0  0  0  0
   17.3514   -5.0868  -11.5055 C   0  0  0  0  0  0  0  0  0  0  0  0
   18.1014   -4.0874  -11.3045 O   0  0  0  0  0  0  0  0  0  0  0  0
   15.9777   -4.7810  -11.4117 O   0  0  0  0  0  0  0  0  0  0  0  0
  2  1  1  6
  3  2  1  0
  4  2  1  0
  4  5  1  1
  6  4  1  0
  6  7  2  0
  8  6  1  0
  9  8  1  0
  9 10  1  6
 11 10  1  0
 12 11  1  0
 13 12  2  0
 14  9  1  0
 15 14  2  0
 16 12  1  0
 17 14  1  0
 18 17  1  0
 18 19  1  1
 20 28  1  0
 20 19  1  0
 21 20  2  0
 22 21  1  0
 22 23  1  0
 23 28  2  0
 24 23  1  0
 24 25  2  0
 25 26  1  0
 26 27  2  0
 28 27  1  0
 29 18  1  0
 30 29  2  0
 31 29  1  0
M  END
$$$$
