TEW.pdb
     RDKit          3D

 31 32  0  0  1  0  0  0  0  0999 V2000
   24.8271  -27.0676  -17.0093 C   0  0  0  0  0  0  0  0  0  0  0  0
   25.2213  -25.8369  -16.2615 C   0  0  1  0  0  0  0  0  0  0  0  0
   25.6612  -26.1546  -14.9869 O   0  0  0  0  0  0  0  0  0  0  0  0
   26.2684  -25.0039  -16.9437 C   0  0  2  0  0  0  0  0  0  0  0  0
   27.5052  -25.7112  -17.1490 N   0  0  0  0  0  0  0  0  0  0  0  0
   26.5283  -23.7498  -16.1678 C   0  0  0  0  0  0  0  0  0  0  0  0
   27.6437  -23.5481  -15.6161 O   0  0  0  0  0  0  0  0  0  0  0  0
   25.5524  -22.7298  -16.0087 N   0  0  0  0  0  0  0  0  0  0  0  0
   25.8427  -21.5191  -15.2780 C   0  0  1  0  0  0  0  0  0  0  0  0
   25.1653  -20.3412  -15.8976 C   0  0  0  0  0  0  0  0  0  0  0  0
   25.7260  -19.9738  -17.2427 C   0  0  0  0  0  0  0  0  0  0  0  0
   27.0382  -19.3076  -17.0241 C   0  0  0  0  0  0  0  0  0  0  0  0
   28.1309  -19.8341  -17.3329 O   0  0  0  0  0  0  0  0  0  0  0  0
   25.4488  -21.6274  -13.8505 C   0  0  0  0  0  0  0  0  0  0  0  0
   24.3022  -22.0653  -13.5881 O   0  0  0  0  0  0  0  0  0  0  0  0
   27.0796  -18.0370  -16.4497 O   0  0  0  0  0  0  0  0  0  0  0  0
   26.3028  -21.2618  -12.7798 N   0  0  0  0  0  0  0  0  0  0  0  0
   25.7875  -21.2468  -11.3868 C   0  0  1  0  0  0  0  0  0  0  0  0
   26.9541  -20.9996  -10.4724 C   0  0  0  0  0  0  0  0  0  0  0  0
   26.6490  -20.6198   -9.0978 C   0  0  0  0  0  0  0  0  0  0  0  0
   25.3706  -20.4407   -8.5704 C   0  0  0  0  0  0  0  0  0  0  0  0
   25.4926  -20.0631   -7.2845 N   0  0  0  0  0  0  0  0  0  0  0  0
   26.7670  -19.9811   -6.9259 C   0  0  0  0  0  0  0  0  0  0  0  0
   27.4131  -19.6605   -5.7473 C   0  0  0  0  0  0  0  0  0  0  0  0
   28.7805  -19.6697   -5.6344 C   0  0  0  0  0  0  0  0  0  0  0  0
   29.5203  -20.0101   -6.7337 C   0  0  0  0  0  0  0  0  0  0  0  0
   28.8819  -20.3288   -7.9071 C   0  0  0  0  0  0  0  0  0  0  0  0
   27.5028  -20.3304   -8.0619 C   0  0  0  0  0  0  0  0  0  0  0  0
   24.7406  -20.2243  -11.3464 C   0  0  0  0  0  0  0  0  0  0  0  0
   24.8029  -19.0996  -11.9235 O   0  0  0  0  0  0  0  0  0  0  0  0
   23.5383  -20.4206  -10.6357 O   0  0  0  0  0  0  0  0  0  0  0  0
  2  1  1  6
  3  2  1  0
  4  2  1  0
  4  5  1  1
  6  4  1  0
  6  7  2  0
  8  6  1  0
  9  8  1  0
  9 10  1  6
 11 10  1  0
 12 11  1  0
 13 12  2  0
 14  9  1  0
 15 14  2  0
 16 12  1  0
 17 14  1  0
 18 17  1  0
 18 19  1  1
 20 28  1  0
 20 19  1  0
 21 20  2  0
 22 21  1  0
 22 23  1  0
 23 28  2  0
 24 23  1  0
 24 25  2  0
 25 26  1  0
 26 27  2  0
 28 27  1  0
 29 18  1  0
 30 29  2  0
 31 29  1  0
M  END
$$$$
