TEW.pdb
     RDKit          3D

 31 32  0  0  1  0  0  0  0  0999 V2000
   30.3191  -19.0476  -14.8679 C   0  0  0  0  0  0  0  0  0  0  0  0
   29.1182  -19.4335  -14.0692 C   0  0  1  0  0  0  0  0  0  0  0  0
   29.1681  -18.8742  -12.8028 O   0  0  0  0  0  0  0  0  0  0  0  0
   27.8064  -19.0762  -14.7072 C   0  0  2  0  0  0  0  0  0  0  0  0
   27.7449  -17.7041  -15.1381 N   0  0  0  0  0  0  0  0  0  0  0  0
   26.6730  -19.3611  -13.7708 C   0  0  0  0  0  0  0  0  0  0  0  0
   26.1331  -18.4361  -13.1059 O   0  0  0  0  0  0  0  0  0  0  0  0
   26.1468  -20.6664  -13.5779 N   0  0  0  0  0  0  0  0  0  0  0  0
   25.0321  -20.9042  -12.6920 C   0  0  1  0  0  0  0  0  0  0  0  0
   24.2453  -22.0972  -13.1254 C   0  0  0  0  0  0  0  0  0  0  0  0
   23.0004  -22.3146  -12.3120 C   0  0  0  0  0  0  0  0  0  0  0  0
   22.3268  -23.5375  -12.8259 C   0  0  0  0  0  0  0  0  0  0  0  0
   22.8142  -24.2584  -13.7256 O   0  0  0  0  0  0  0  0  0  0  0  0
   25.4725  -21.0810  -11.2850 C   0  0  0  0  0  0  0  0  0  0  0  0
   26.4330  -21.8576  -11.0623 O   0  0  0  0  0  0  0  0  0  0  0  0
   21.0938  -23.9200  -12.2971 O   0  0  0  0  0  0  0  0  0  0  0  0
   24.8618  -20.4173  -10.1913 N   0  0  0  0  0  0  0  0  0  0  0  0
   25.2323  -20.7785   -8.7990 C   0  0  1  0  0  0  0  0  0  0  0  0
   25.7230  -19.5308   -8.1202 C   0  0  0  0  0  0  0  0  0  0  0  0
   27.1282  -19.4977   -7.7315 C   0  0  0  0  0  0  0  0  0  0  0  0
   28.2103  -19.4135   -8.6070 C   0  0  0  0  0  0  0  0  0  0  0  0
   29.3439  -19.4402   -7.8822 N   0  0  0  0  0  0  0  0  0  0  0  0
   29.0835  -19.5358   -6.5851 C   0  0  0  0  0  0  0  0  0  0  0  0
   29.8699  -19.5835   -5.4499 C   0  0  0  0  0  0  0  0  0  0  0  0
   29.3341  -19.6661   -4.1894 C   0  0  0  0  0  0  0  0  0  0  0  0
   27.9723  -19.7017   -4.0639 C   0  0  0  0  0  0  0  0  0  0  0  0
   27.1873  -19.6551   -5.1899 C   0  0  0  0  0  0  0  0  0  0  0  0
   27.6901  -19.5723   -6.4807 C   0  0  0  0  0  0  0  0  0  0  0  0
   24.0410  -21.3826   -8.1999 C   0  0  0  0  0  0  0  0  0  0  0  0
   24.0094  -21.9618   -7.0750 O   0  0  0  0  0  0  0  0  0  0  0  0
   22.7913  -21.3652   -8.8535 O   0  0  0  0  0  0  0  0  0  0  0  0
  2  1  1  6
  3  2  1  0
  4  2  1  0
  4  5  1  1
  6  4  1  0
  6  7  2  0
  8  6  1  0
  9  8  1  0
  9 10  1  6
 11 10  1  0
 12 11  1  0
 13 12  2  0
 14  9  1  0
 15 14  2  0
 16 12  1  0
 17 14  1  0
 18 17  1  0
 18 19  1  1
 20 28  1  0
 20 19  1  0
 21 20  2  0
 22 21  1  0
 22 23  1  0
 23 28  2  0
 24 23  1  0
 24 25  2  0
 25 26  1  0
 26 27  2  0
 28 27  1  0
 29 18  1  0
 30 29  2  0
 31 29  1  0
M  END
$$$$
