TVF.pdb
     RDKit          3D

 26 26  0  0  1  0  0  0  0  0999 V2000
   29.2568  -20.2866  -16.3297 C   0  0  0  0  0  0  0  0  0  0  0  0
   28.6151  -20.2282  -14.9507 C   0  0  1  0  0  0  0  0  0  0  0  0
   29.5461  -19.6600  -14.1050 O   0  0  0  0  0  0  0  0  0  0  0  0
   27.3550  -19.4302  -15.0905 C   0  0  2  0  0  0  0  0  0  0  0  0
   27.6369  -18.2221  -15.8325 N   0  0  0  0  0  0  0  0  0  0  0  0
   26.6566  -19.1661  -13.8245 C   0  0  0  0  0  0  0  0  0  0  0  0
   26.5355  -17.9793  -13.4213 O   0  0  0  0  0  0  0  0  0  0  0  0
   23.0772  -20.1625  -12.8217 C   0  0  0  0  0  0  0  0  0  0  0  0
   24.0321  -20.7053  -11.8116 C   0  0  1  0  0  0  0  0  0  0  0  0
   24.2192  -22.1857  -12.0536 C   0  0  0  0  0  0  0  0  0  0  0  0
   25.3605  -19.9732  -11.8114 C   0  0  2  0  0  0  0  0  0  0  0  0
   26.1030  -20.1847  -13.0188 N   0  0  0  0  0  0  0  0  0  0  0  0
   26.1392  -20.5061  -10.6644 C   0  0  0  0  0  0  0  0  0  0  0  0
   26.9001  -21.4902  -10.8240 O   0  0  0  0  0  0  0  0  0  0  0  0
   26.0699  -19.9496   -9.3596 N   0  0  0  0  0  0  0  0  0  0  0  0
   26.8181  -20.4626   -8.2297 C   0  0  1  0  0  0  0  0  0  0  0  0
   27.5851  -19.2831   -7.6649 C   0  0  0  0  0  0  0  0  0  0  0  0
   28.2952  -19.5780   -6.4133 C   0  0  0  0  0  0  0  0  0  0  0  0
   27.7906  -19.1571   -5.2079 C   0  0  0  0  0  0  0  0  0  0  0  0
   28.4301  -19.4202   -4.0021 C   0  0  0  0  0  0  0  0  0  0  0  0
   29.6106  -20.1316   -4.0619 C   0  0  0  0  0  0  0  0  0  0  0  0
   30.1465  -20.5709   -5.2675 C   0  0  0  0  0  0  0  0  0  0  0  0
   29.4750  -20.2862   -6.4467 C   0  0  0  0  0  0  0  0  0  0  0  0
   25.8949  -21.0519   -7.2615 C   0  0  0  0  0  0  0  0  0  0  0  0
   26.3799  -21.9511   -6.3161 O   0  0  0  0  0  0  0  0  0  0  0  0
   24.6459  -20.7768   -7.2414 O   0  0  0  0  0  0  0  0  0  0  0  0
  2  1  1  6
  3  2  1  0
  4  2  1  0
  4  6  1  0
  4  5  1  1
  6  7  2  0
  9  8  1  6
  9 11  1  0
 10  9  1  0
 12  6  1  0
 11 12  1  6
 13 11  1  0
 13 14  2  0
 15 13  1  0
 16 15  1  0
 16 24  1  0
 16 17  1  1
 18 23  2  0
 18 17  1  0
 19 18  1  0
 20 21  1  0
 20 19  2  0
 21 22  2  0
 22 23  1  0
 24 26  2  0
 24 25  1  0
M  END
$$$$
