TVF.pdb
     RDKit          3D

 26 26  0  0  1  0  0  0  0  0999 V2000
   25.6414  -14.0021  -15.3393 C   0  0  0  0  0  0  0  0  0  0  0  0
   25.1922  -15.4465  -15.1693 C   0  0  1  0  0  0  0  0  0  0  0  0
   23.8817  -15.5062  -15.5978 O   0  0  0  0  0  0  0  0  0  0  0  0
   26.1326  -16.2920  -15.9724 C   0  0  2  0  0  0  0  0  0  0  0  0
   26.0339  -15.9209  -17.3659 N   0  0  0  0  0  0  0  0  0  0  0  0
   25.9843  -17.7389  -15.7607 C   0  0  0  0  0  0  0  0  0  0  0  0
   25.3164  -18.4187  -16.5838 O   0  0  0  0  0  0  0  0  0  0  0  0
   28.0282  -19.6838  -12.4906 C   0  0  0  0  0  0  0  0  0  0  0  0
   27.6532  -20.4121  -13.7378 C   0  0  1  0  0  0  0  0  0  0  0  0
   27.4604  -21.8765  -13.4162 C   0  0  0  0  0  0  0  0  0  0  0  0
   26.4249  -19.8273  -14.4086 C   0  0  2  0  0  0  0  0  0  0  0  0
   26.5577  -18.4241  -14.6676 N   0  0  0  0  0  0  0  0  0  0  0  0
   25.2887  -20.0424  -13.4765 C   0  0  0  0  0  0  0  0  0  0  0  0
   25.3620  -19.6372  -12.2919 O   0  0  0  0  0  0  0  0  0  0  0  0
   24.0896  -20.6993  -13.8603 N   0  0  0  0  0  0  0  0  0  0  0  0
   22.9576  -20.8812  -12.9742 C   0  0  1  0  0  0  0  0  0  0  0  0
   22.4917  -19.4883  -12.5984 C   0  0  0  0  0  0  0  0  0  0  0  0
   21.2193  -19.4628  -11.8648 C   0  0  0  0  0  0  0  0  0  0  0  0
   20.0343  -19.2611  -12.5282 C   0  0  0  0  0  0  0  0  0  0  0  0
   18.8099  -19.2350  -11.8707 C   0  0  0  0  0  0  0  0  0  0  0  0
   18.8292  -19.4222  -10.5040 C   0  0  0  0  0  0  0  0  0  0  0  0
   20.0133  -19.6286   -9.8047 C   0  0  0  0  0  0  0  0  0  0  0  0
   21.2124  -19.6471  -10.5008 C   0  0  0  0  0  0  0  0  0  0  0  0
   21.9241  -21.6572  -13.6575 C   0  0  0  0  0  0  0  0  0  0  0  0
   21.0754  -22.4696  -12.9110 O   0  0  0  0  0  0  0  0  0  0  0  0
   21.7603  -21.6246  -14.9257 O   0  0  0  0  0  0  0  0  0  0  0  0
  2  1  1  6
  3  2  1  0
  4  2  1  0
  4  6  1  0
  4  5  1  6
  6  7  2  0
  9  8  1  1
  9 11  1  0
 10  9  1  0
 12  6  1  0
 11 12  1  1
 13 11  1  0
 13 14  2  0
 15 13  1  0
 16 15  1  0
 16 24  1  0
 16 17  1  6
 18 23  2  0
 18 17  1  0
 19 18  1  0
 20 21  1  0
 20 19  2  0
 21 22  2  0
 22 23  1  0
 24 26  2  0
 24 25  1  0
M  END
$$$$
