TVF.pdb
     RDKit          3D

 26 26  0  0  1  0  0  0  0  0999 V2000
   29.3814  -18.9721  -15.7873 C   0  0  0  0  0  0  0  0  0  0  0  0
   28.7226  -19.1082  -14.4219 C   0  0  1  0  0  0  0  0  0  0  0  0
   29.3917  -18.2504  -13.5726 O   0  0  0  0  0  0  0  0  0  0  0  0
   27.2733  -18.7750  -14.6029 C   0  0  2  0  0  0  0  0  0  0  0  0
   27.1585  -17.5187  -15.3086 N   0  0  0  0  0  0  0  0  0  0  0  0
   26.4817  -18.8024  -13.3648 C   0  0  0  0  0  0  0  0  0  0  0  0
   26.1266  -17.7170  -12.8342 O   0  0  0  0  0  0  0  0  0  0  0  0
   23.3942  -21.2170  -10.3759 C   0  0  0  0  0  0  0  0  0  0  0  0
   24.1862  -21.0979  -11.6349 C   0  0  1  0  0  0  0  0  0  0  0  0
   23.2513  -20.7771  -12.7787 C   0  0  0  0  0  0  0  0  0  0  0  0
   25.3009  -20.0748  -11.5289 C   0  0  2  0  0  0  0  0  0  0  0  0
   26.0890  -19.9971  -12.7234 N   0  0  0  0  0  0  0  0  0  0  0  0
   26.1686  -20.5068  -10.4035 C   0  0  0  0  0  0  0  0  0  0  0  0
   26.9877  -21.4428  -10.5646 O   0  0  0  0  0  0  0  0  0  0  0  0
   26.1230  -19.9038   -9.1185 N   0  0  0  0  0  0  0  0  0  0  0  0
   26.9315  -20.3429   -7.9990 C   0  0  1  0  0  0  0  0  0  0  0  0
   27.6110  -19.0995   -7.4599 C   0  0  0  0  0  0  0  0  0  0  0  0
   28.3601  -19.3212   -6.2159 C   0  0  0  0  0  0  0  0  0  0  0  0
   29.6527  -19.7822   -6.2515 C   0  0  0  0  0  0  0  0  0  0  0  0
   30.3959  -20.0001   -5.0972 C   0  0  0  0  0  0  0  0  0  0  0  0
   29.7765  -19.7316   -3.8941 C   0  0  0  0  0  0  0  0  0  0  0  0
   28.4686  -19.2641   -3.8262 C   0  0  0  0  0  0  0  0  0  0  0  0
   27.7640  -19.0608   -5.0030 C   0  0  0  0  0  0  0  0  0  0  0  0
   26.0776  -20.9947   -7.0076 C   0  0  0  0  0  0  0  0  0  0  0  0
   26.6511  -21.8452   -6.0667 O   0  0  0  0  0  0  0  0  0  0  0  0
   24.8115  -20.8182   -6.9629 O   0  0  0  0  0  0  0  0  0  0  0  0
  2  1  1  6
  3  2  1  0
  4  2  1  0
  4  6  1  0
  4  5  1  1
  6  7  2  0
  9  8  1  1
  9 11  1  0
 10  9  1  0
 12  6  1  0
 11 12  1  6
 13 11  1  0
 13 14  2  0
 15 13  1  0
 16 15  1  0
 16 24  1  0
 16 17  1  1
 18 23  2  0
 18 17  1  0
 19 18  1  0
 20 21  1  0
 20 19  2  0
 21 22  2  0
 22 23  1  0
 24 26  2  0
 24 25  1  0
M  END
$$$$
