TVF.pdb
     RDKit          3D

 26 26  0  0  1  0  0  0  0  0999 V2000
   20.7004  -19.1005  -10.9537 C   0  0  0  0  0  0  0  0  0  0  0  0
   19.7980  -20.0221  -11.7619 C   0  0  1  0  0  0  0  0  0  0  0  0
   18.6740  -19.2900  -12.0866 O   0  0  0  0  0  0  0  0  0  0  0  0
   20.5908  -20.4759  -12.9492 C   0  0  2  0  0  0  0  0  0  0  0  0
   19.7276  -21.2132  -13.8439 N   0  0  0  0  0  0  0  0  0  0  0  0
   21.8204  -21.2096  -12.6174 C   0  0  0  0  0  0  0  0  0  0  0  0
   21.7366  -22.3672  -12.1290 O   0  0  0  0  0  0  0  0  0  0  0  0
   25.5593  -20.1618  -14.3478 C   0  0  0  0  0  0  0  0  0  0  0  0
   25.2467  -21.4831  -13.7287 C   0  0  1  0  0  0  0  0  0  0  0  0
   26.5399  -22.1839  -13.3800 C   0  0  0  0  0  0  0  0  0  0  0  0
   24.3405  -21.3611  -12.5185 C   0  0  2  0  0  0  0  0  0  0  0  0
   23.1145  -20.6822  -12.8181 N   0  0  0  0  0  0  0  0  0  0  0  0
   25.0911  -20.5797  -11.5027 C   0  0  0  0  0  0  0  0  0  0  0  0
   25.0380  -19.3266  -11.5080 O   0  0  0  0  0  0  0  0  0  0  0  0
   25.8885  -21.1869  -10.4965 N   0  0  0  0  0  0  0  0  0  0  0  0
   26.7331  -20.4409   -9.5856 C   0  0  1  0  0  0  0  0  0  0  0  0
   26.2733  -20.8116   -8.1893 C   0  0  0  0  0  0  0  0  0  0  0  0
   27.0713  -20.2019   -7.1173 C   0  0  0  0  0  0  0  0  0  0  0  0
   27.9337  -20.9638   -6.3686 C   0  0  0  0  0  0  0  0  0  0  0  0
   28.7091  -20.4234   -5.3493 C   0  0  0  0  0  0  0  0  0  0  0  0
   28.5780  -19.0705   -5.1134 C   0  0  0  0  0  0  0  0  0  0  0  0
   27.7129  -18.2731   -5.8547 C   0  0  0  0  0  0  0  0  0  0  0  0
   26.9582  -18.8540   -6.8625 C   0  0  0  0  0  0  0  0  0  0  0  0
   28.1333  -20.7834   -9.8287 C   0  0  0  0  0  0  0  0  0  0  0  0
   28.5144  -22.1221   -9.8507 O   0  0  0  0  0  0  0  0  0  0  0  0
   29.0371  -19.8998  -10.0247 O   0  0  0  0  0  0  0  0  0  0  0  0
  2  1  1  1
  3  2  1  0
  4  2  1  0
  4  6  1  0
  4  5  1  6
  6  7  2  0
  9  8  1  1
  9 11  1  0
 10  9  1  0
 12  6  1  0
 11 12  1  6
 13 11  1  0
 13 14  2  0
 15 13  1  0
 16 15  1  0
 16 24  1  0
 16 17  1  1
 18 23  2  0
 18 17  1  0
 19 18  1  0
 20 21  1  0
 20 19  2  0
 21 22  2  0
 22 23  1  0
 24 26  2  0
 24 25  1  0
M  END
$$$$
