TVF.pdb
     RDKit          3D

 26 26  0  0  1  0  0  0  0  0999 V2000
   24.0064  -15.7106  -19.0582 C   0  0  0  0  0  0  0  0  0  0  0  0
   24.0151  -16.8546  -18.0541 C   0  0  1  0  0  0  0  0  0  0  0  0
   22.7351  -17.3701  -18.0308 O   0  0  0  0  0  0  0  0  0  0  0  0
   25.0542  -17.8303  -18.5152 C   0  0  2  0  0  0  0  0  0  0  0  0
   24.7329  -18.2701  -19.8541 N   0  0  0  0  0  0  0  0  0  0  0  0
   25.2906  -18.9506  -17.5935 C   0  0  0  0  0  0  0  0  0  0  0  0
   24.5525  -19.9689  -17.6563 O   0  0  0  0  0  0  0  0  0  0  0  0
   28.7238  -20.7195  -16.6920 C   0  0  0  0  0  0  0  0  0  0  0  0
   28.0327  -20.2561  -15.4533 C   0  0  1  0  0  0  0  0  0  0  0  0
   28.7358  -19.0264  -14.9254 C   0  0  0  0  0  0  0  0  0  0  0  0
   26.5545  -19.9963  -15.6718 C   0  0  2  0  0  0  0  0  0  0  0  0
   26.3164  -18.9517  -16.6236 N   0  0  0  0  0  0  0  0  0  0  0  0
   25.9954  -19.5904  -14.3571 C   0  0  0  0  0  0  0  0  0  0  0  0
   25.9788  -18.3803  -14.0275 O   0  0  0  0  0  0  0  0  0  0  0  0
   25.4632  -20.5200  -13.4246 N   0  0  0  0  0  0  0  0  0  0  0  0
   25.0154  -20.1539  -12.0960 C   0  0  1  0  0  0  0  0  0  0  0  0
   23.6800  -20.8440  -11.8991 C   0  0  0  0  0  0  0  0  0  0  0  0
   23.1108  -20.6693  -10.5563 C   0  0  0  0  0  0  0  0  0  0  0  0
   21.9930  -19.8952  -10.3665 C   0  0  0  0  0  0  0  0  0  0  0  0
   21.4220  -19.7093   -9.1129 C   0  0  0  0  0  0  0  0  0  0  0  0
   22.0300  -20.3418   -8.0482 C   0  0  0  0  0  0  0  0  0  0  0  0
   23.1630  -21.1318   -8.2091 C   0  0  0  0  0  0  0  0  0  0  0  0
   23.6994  -21.2900   -9.4779 C   0  0  0  0  0  0  0  0  0  0  0  0
   26.0155  -20.5684  -11.1136 C   0  0  0  0  0  0  0  0  0  0  0  0
   26.7289  -21.7456  -11.3211 O   0  0  0  0  0  0  0  0  0  0  0  0
   26.2697  -19.8918  -10.0583 O   0  0  0  0  0  0  0  0  0  0  0  0
  2  1  1  6
  3  2  1  0
  4  2  1  0
  4  6  1  0
  4  5  1  6
  6  7  2  0
  9  8  1  6
  9 11  1  0
 10  9  1  0
 12  6  1  0
 11 12  1  6
 13 11  1  0
 13 14  2  0
 15 13  1  0
 16 15  1  0
 16 24  1  0
 16 17  1  1
 18 23  2  0
 18 17  1  0
 19 18  1  0
 20 21  1  0
 20 19  2  0
 21 22  2  0
 22 23  1  0
 24 26  2  0
 24 25  1  0
M  END
$$$$
