TVF.pdb
     RDKit          3D

 26 26  0  0  1  0  0  0  0  0999 V2000
   15.8574   -3.9612  -14.4231 C   0  0  0  0  0  0  0  0  0  0  0  0
   15.8467   -2.5789  -15.0604 C   0  0  1  0  0  0  0  0  0  0  0  0
   14.7440   -1.9196  -14.5564 O   0  0  0  0  0  0  0  0  0  0  0  0
   17.1522   -1.9304  -14.7147 C   0  0  2  0  0  0  0  0  0  0  0  0
   17.1430   -0.5632  -15.1837 N   0  0  0  0  0  0  0  0  0  0  0  0
   18.3394   -2.6732  -15.1609 C   0  0  0  0  0  0  0  0  0  0  0  0
   18.6853   -2.6166  -16.3704 O   0  0  0  0  0  0  0  0  0  0  0  0
   22.5980   -4.9003  -14.0269 C   0  0  0  0  0  0  0  0  0  0  0  0
   21.4952   -3.9141  -13.8320 C   0  0  1  0  0  0  0  0  0  0  0  0
   22.0227   -2.5231  -14.1006 C   0  0  0  0  0  0  0  0  0  0  0  0
   20.2809   -4.2194  -14.6881 C   0  0  2  0  0  0  0  0  0  0  0  0
   19.1295   -3.4613  -14.2963 N   0  0  0  0  0  0  0  0  0  0  0  0
   19.9909   -5.6656  -14.5139 C   0  0  0  0  0  0  0  0  0  0  0  0
   19.7545   -6.1262  -13.3715 O   0  0  0  0  0  0  0  0  0  0  0  0
   19.9650   -6.5834  -15.5973 N   0  0  0  0  0  0  0  0  0  0  0  0
   19.7458   -8.0066  -15.4357 C   0  0  1  0  0  0  0  0  0  0  0  0
   18.3917   -8.2948  -16.0536 C   0  0  0  0  0  0  0  0  0  0  0  0
   18.3599   -8.1486  -17.5149 C   0  0  0  0  0  0  0  0  0  0  0  0
   18.7040   -9.1986  -18.3297 C   0  0  0  0  0  0  0  0  0  0  0  0
   18.6820   -9.1014  -19.7162 C   0  0  0  0  0  0  0  0  0  0  0  0
   18.2954   -7.8906  -20.2526 C   0  0  0  0  0  0  0  0  0  0  0  0
   17.9415   -6.8092  -19.4532 C   0  0  0  0  0  0  0  0  0  0  0  0
   17.9776   -6.9505  -18.0743 C   0  0  0  0  0  0  0  0  0  0  0  0
   20.8302   -8.7428  -16.0832 C   0  0  0  0  0  0  0  0  0  0  0  0
   20.9575  -10.1102  -15.8558 O   0  0  0  0  0  0  0  0  0  0  0  0
   21.6790   -8.1828  -16.8591 O   0  0  0  0  0  0  0  0  0  0  0  0
  2  1  1  1
  3  2  1  0
  4  2  1  0
  4  6  1  0
  4  5  1  6
  6  7  2  0
  9  8  1  6
  9 11  1  0
 10  9  1  0
 12  6  1  0
 11 12  1  1
 13 11  1  0
 13 14  2  0
 15 13  1  0
 16 15  1  0
 16 24  1  0
 16 17  1  6
 18 23  2  0
 18 17  1  0
 19 18  1  0
 20 21  1  0
 20 19  2  0
 21 22  2  0
 22 23  1  0
 24 26  2  0
 24 25  1  0
M  END
$$$$
