TVF.pdb
     RDKit          3D

 26 26  0  0  1  0  0  0  0  0999 V2000
   29.4779  -19.3379  -13.9090 C   0  0  0  0  0  0  0  0  0  0  0  0
   28.6017  -18.5448  -14.8683 C   0  0  1  0  0  0  0  0  0  0  0  0
   29.1543  -18.6944  -16.1241 O   0  0  0  0  0  0  0  0  0  0  0  0
   27.2139  -19.0954  -14.7463 C   0  0  2  0  0  0  0  0  0  0  0  0
   26.3913  -18.5504  -15.8026 N   0  0  0  0  0  0  0  0  0  0  0  0
   26.6079  -18.9334  -13.4171 C   0  0  0  0  0  0  0  0  0  0  0  0
   26.3036  -17.7802  -13.0130 O   0  0  0  0  0  0  0  0  0  0  0  0
   23.4147  -19.7485  -12.3314 C   0  0  0  0  0  0  0  0  0  0  0  0
   24.2627  -20.4509  -11.3243 C   0  0  1  0  0  0  0  0  0  0  0  0
   24.2405  -21.9355  -11.6084 C   0  0  0  0  0  0  0  0  0  0  0  0
   25.6820  -19.9175  -11.2822 C   0  0  2  0  0  0  0  0  0  0  0  0
   26.3422  -20.0156  -12.5504 N   0  0  0  0  0  0  0  0  0  0  0  0
   26.4164  -20.7419  -10.2887 C   0  0  0  0  0  0  0  0  0  0  0  0
   26.9829  -21.8019  -10.6472 O   0  0  0  0  0  0  0  0  0  0  0  0
   26.5173  -20.3891   -8.9168 N   0  0  0  0  0  0  0  0  0  0  0  0
   27.0340  -21.2795   -7.8971 C   0  0  1  0  0  0  0  0  0  0  0  0
   28.3935  -20.7305   -7.5113 C   0  0  0  0  0  0  0  0  0  0  0  0
   28.3964  -19.9776   -6.2499 C   0  0  0  0  0  0  0  0  0  0  0  0
   28.8683  -20.5510   -5.0952 C   0  0  0  0  0  0  0  0  0  0  0  0
   28.8921  -19.8702   -3.8836 C   0  0  0  0  0  0  0  0  0  0  0  0
   28.4158  -18.5754   -3.8837 C   0  0  0  0  0  0  0  0  0  0  0  0
   27.9315  -17.9680   -5.0371 C   0  0  0  0  0  0  0  0  0  0  0  0
   27.9264  -18.6842   -6.2243 C   0  0  0  0  0  0  0  0  0  0  0  0
   26.1024  -21.3233   -6.7713 C   0  0  0  0  0  0  0  0  0  0  0  0
   24.9424  -20.5550   -6.8152 O   0  0  0  0  0  0  0  0  0  0  0  0
   26.3052  -22.0436   -5.7340 O   0  0  0  0  0  0  0  0  0  0  0  0
  2  1  1  1
  3  2  1  0
  4  2  1  0
  4  6  1  0
  4  5  1  6
  6  7  2  0
  9  8  1  6
  9 11  1  0
 10  9  1  0
 12  6  1  0
 11 12  1  6
 13 11  1  0
 13 14  2  0
 15 13  1  0
 16 15  1  0
 16 24  1  0
 16 17  1  1
 18 23  2  0
 18 17  1  0
 19 18  1  0
 20 21  1  0
 20 19  2  0
 21 22  2  0
 22 23  1  0
 24 26  2  0
 24 25  1  0
M  END
$$$$
