TVF.pdb
     RDKit          3D

 26 26  0  0  1  0  0  0  0  0999 V2000
   15.7553  -19.8524    3.0179 C   0  0  0  0  0  0  0  0  0  0  0  0
   14.8551  -18.8687    2.2838 C   0  0  1  0  0  0  0  0  0  0  0  0
   14.4033  -19.5152    1.1513 O   0  0  0  0  0  0  0  0  0  0  0  0
   13.7660  -18.4810    3.2366 C   0  0  2  0  0  0  0  0  0  0  0  0
   12.6988  -17.8385    2.5033 N   0  0  0  0  0  0  0  0  0  0  0  0
   14.2174  -17.6880    4.3890 C   0  0  0  0  0  0  0  0  0  0  0  0
   14.1269  -16.4327    4.3488 O   0  0  0  0  0  0  0  0  0  0  0  0
   14.8943  -19.6356    8.0217 C   0  0  0  0  0  0  0  0  0  0  0  0
   14.7616  -18.1494    8.0107 C   0  0  1  0  0  0  0  0  0  0  0  0
   15.5208  -17.5765    9.1858 C   0  0  0  0  0  0  0  0  0  0  0  0
   15.2194  -17.5319    6.7031 C   0  0  2  0  0  0  0  0  0  0  0  0
   14.7567  -18.2625    5.5603 N   0  0  0  0  0  0  0  0  0  0  0  0
   16.7045  -17.5508    6.7212 C   0  0  0  0  0  0  0  0  0  0  0  0
   17.3257  -18.5535    6.2950 O   0  0  0  0  0  0  0  0  0  0  0  0
   17.4841  -16.4678    7.2071 N   0  0  0  0  0  0  0  0  0  0  0  0
   18.9304  -16.4246    7.1300 C   0  0  1  0  0  0  0  0  0  0  0  0
   19.2673  -16.2798    5.6589 C   0  0  0  0  0  0  0  0  0  0  0  0
   18.9466  -14.9593    5.1010 C   0  0  0  0  0  0  0  0  0  0  0  0
   18.5770  -14.8277    3.7854 C   0  0  0  0  0  0  0  0  0  0  0  0
   18.2615  -13.5969    3.2218 C   0  0  0  0  0  0  0  0  0  0  0  0
   18.3348  -12.4936    4.0468 C   0  0  0  0  0  0  0  0  0  0  0  0
   18.7062  -12.5953    5.3830 C   0  0  0  0  0  0  0  0  0  0  0  0
   19.0125  -13.8432    5.9039 C   0  0  0  0  0  0  0  0  0  0  0  0
   19.4279  -15.3108    7.9356 C   0  0  0  0  0  0  0  0  0  0  0  0
   18.5200  -14.4810    8.5874 O   0  0  0  0  0  0  0  0  0  0  0  0
   20.6746  -15.0590    8.0719 O   0  0  0  0  0  0  0  0  0  0  0  0
  2  1  1  1
  3  2  1  0
  4  2  1  0
  4  6  1  0
  4  5  1  6
  6  7  2  0
  9  8  1  6
  9 11  1  0
 10  9  1  0
 12  6  1  0
 11 12  1  6
 13 11  1  0
 13 14  2  0
 15 13  1  0
 16 15  1  0
 16 24  1  0
 16 17  1  6
 18 23  2  0
 18 17  1  0
 19 18  1  0
 20 21  1  0
 20 19  2  0
 21 22  2  0
 22 23  1  0
 24 26  2  0
 24 25  1  0
M  END
$$$$
