TVF.pdb
     RDKit          3D

 26 26  0  0  1  0  0  0  0  0999 V2000
   28.9453  -18.3677  -13.8174 C   0  0  0  0  0  0  0  0  0  0  0  0
   28.0601  -17.9707  -14.9904 C   0  0  1  0  0  0  0  0  0  0  0  0
   28.8725  -17.9378  -16.1056 O   0  0  0  0  0  0  0  0  0  0  0  0
   26.9614  -18.9860  -15.0695 C   0  0  2  0  0  0  0  0  0  0  0  0
   26.1953  -18.7648  -16.2750 N   0  0  0  0  0  0  0  0  0  0  0  0
   26.1167  -19.0655  -13.8693 C   0  0  0  0  0  0  0  0  0  0  0  0
   25.2625  -18.1656  -13.6540 O   0  0  0  0  0  0  0  0  0  0  0  0
   23.4060  -21.1477  -12.9998 C   0  0  0  0  0  0  0  0  0  0  0  0
   24.3780  -21.3740  -11.8905 C   0  0  1  0  0  0  0  0  0  0  0  0
   25.0620  -22.7062  -12.0967 C   0  0  0  0  0  0  0  0  0  0  0  0
   25.3870  -20.2492  -11.7597 C   0  0  2  0  0  0  0  0  0  0  0  0
   26.2087  -20.1116  -12.9258 N   0  0  0  0  0  0  0  0  0  0  0  0
   26.2485  -20.5841  -10.5971 C   0  0  0  0  0  0  0  0  0  0  0  0
   27.2685  -21.2965  -10.7549 O   0  0  0  0  0  0  0  0  0  0  0  0
   25.9760  -20.1311   -9.2790 N   0  0  0  0  0  0  0  0  0  0  0  0
   26.7383  -20.5426   -8.1174 C   0  0  1  0  0  0  0  0  0  0  0  0
   27.5859  -19.3476   -7.7277 C   0  0  0  0  0  0  0  0  0  0  0  0
   28.2371  -19.4802   -6.4177 C   0  0  0  0  0  0  0  0  0  0  0  0
   29.3123  -20.3179   -6.2536 C   0  0  0  0  0  0  0  0  0  0  0  0
   29.9582  -20.4671   -5.0318 C   0  0  0  0  0  0  0  0  0  0  0  0
   29.4708  -19.7303   -3.9721 C   0  0  0  0  0  0  0  0  0  0  0  0
   28.3836  -18.8740   -4.1075 C   0  0  0  0  0  0  0  0  0  0  0  0
   27.7693  -18.7556   -5.3450 C   0  0  0  0  0  0  0  0  0  0  0  0
   25.8227  -20.9559   -7.0554 C   0  0  0  0  0  0  0  0  0  0  0  0
   26.3159  -21.6762   -5.9712 O   0  0  0  0  0  0  0  0  0  0  0  0
   24.5731  -20.6835   -7.0753 O   0  0  0  0  0  0  0  0  0  0  0  0
  2  1  1  1
  3  2  1  0
  4  2  1  0
  4  6  1  0
  4  5  1  6
  6  7  2  0
  9  8  1  6
  9 11  1  0
 10  9  1  0
 12  6  1  0
 11 12  1  6
 13 11  1  0
 13 14  2  0
 15 13  1  0
 16 15  1  0
 16 24  1  0
 16 17  1  1
 18 23  2  0
 18 17  1  0
 19 18  1  0
 20 21  1  0
 20 19  2  0
 21 22  2  0
 22 23  1  0
 24 26  2  0
 24 25  1  0
M  END
$$$$
