TVF.pdb
     RDKit          3D

 26 26  0  0  1  0  0  0  0  0999 V2000
   24.1044  -12.2405  -15.5255 C   0  0  0  0  0  0  0  0  0  0  0  0
   23.9085  -13.0671  -16.7886 C   0  0  1  0  0  0  0  0  0  0  0  0
   24.4479  -14.3118  -16.5344 O   0  0  0  0  0  0  0  0  0  0  0  0
   22.4374  -13.0891  -17.0704 C   0  0  2  0  0  0  0  0  0  0  0  0
   22.1701  -14.0357  -18.1296 N   0  0  0  0  0  0  0  0  0  0  0  0
   21.8461  -11.7687  -17.3296 C   0  0  0  0  0  0  0  0  0  0  0  0
   22.0861  -11.1875  -18.4206 O   0  0  0  0  0  0  0  0  0  0  0  0
   18.7124  -10.2952  -18.2388 C   0  0  0  0  0  0  0  0  0  0  0  0
   19.0179   -9.7494  -16.8840 C   0  0  1  0  0  0  0  0  0  0  0  0
   18.2231  -10.5158  -15.8515 C   0  0  0  0  0  0  0  0  0  0  0  0
   20.5010   -9.7705  -16.5669 C   0  0  2  0  0  0  0  0  0  0  0  0
   21.0090  -11.1013  -16.4094 N   0  0  0  0  0  0  0  0  0  0  0  0
   20.6730   -9.0321  -15.2897 C   0  0  0  0  0  0  0  0  0  0  0  0
   20.8616   -9.6604  -14.2208 O   0  0  0  0  0  0  0  0  0  0  0  0
   20.6353   -7.6149  -15.2067 N   0  0  0  0  0  0  0  0  0  0  0  0
   20.9102   -6.8767  -13.9904 C   0  0  1  0  0  0  0  0  0  0  0  0
   22.3348   -7.2220  -13.6036 C   0  0  0  0  0  0  0  0  0  0  0  0
   23.3357   -6.8337  -14.6062 C   0  0  0  0  0  0  0  0  0  0  0  0
   23.6661   -5.5137  -14.7886 C   0  0  0  0  0  0  0  0  0  0  0  0
   24.6110   -5.1067  -15.7233 C   0  0  0  0  0  0  0  0  0  0  0  0
   25.2149   -6.0944  -16.4737 C   0  0  0  0  0  0  0  0  0  0  0  0
   24.9009   -7.4393  -16.3118 C   0  0  0  0  0  0  0  0  0  0  0  0
   23.9521   -7.8007  -15.3674 C   0  0  0  0  0  0  0  0  0  0  0  0
   20.7220   -5.4477  -14.2351 C   0  0  0  0  0  0  0  0  0  0  0  0
   20.3952   -5.0120  -15.5161 O   0  0  0  0  0  0  0  0  0  0  0  0
   20.8450   -4.5670  -13.3157 O   0  0  0  0  0  0  0  0  0  0  0  0
  2  1  1  1
  3  2  1  0
  4  2  1  0
  4  6  1  0
  4  5  1  6
  6  7  2  0
  9  8  1  6
  9 11  1  0
 10  9  1  0
 12  6  1  0
 11 12  1  1
 13 11  1  0
 13 14  2  0
 15 13  1  0
 16 15  1  0
 16 24  1  0
 16 17  1  6
 18 23  2  0
 18 17  1  0
 19 18  1  0
 20 21  1  0
 20 19  2  0
 21 22  2  0
 22 23  1  0
 24 26  2  0
 24 25  1  0
M  END
$$$$
