TVF.pdb
     RDKit          3D

 26 26  0  0  1  0  0  0  0  0999 V2000
   20.9688  -33.2234  -10.5028 C   0  0  0  0  0  0  0  0  0  0  0  0
   21.6185  -34.2865   -9.6284 C   0  0  1  0  0  0  0  0  0  0  0  0
   20.7547  -35.3627   -9.6066 O   0  0  0  0  0  0  0  0  0  0  0  0
   22.9538  -34.5922  -10.2347 C   0  0  2  0  0  0  0  0  0  0  0  0
   22.8281  -35.7346  -11.1112 N   0  0  0  0  0  0  0  0  0  0  0  0
   24.0453  -34.7433   -9.2619 C   0  0  0  0  0  0  0  0  0  0  0  0
   24.4935  -35.8927   -9.0096 O   0  0  0  0  0  0  0  0  0  0  0  0
   27.5213  -33.1784   -9.3560 C   0  0  0  0  0  0  0  0  0  0  0  0
   26.8735  -32.8031   -8.0652 C   0  0  1  0  0  0  0  0  0  0  0  0
   26.3938  -31.3721   -8.1504 C   0  0  0  0  0  0  0  0  0  0  0  0
   25.7453  -33.7423   -7.6834 C   0  0  2  0  0  0  0  0  0  0  0  0
   24.6315  -33.6544   -8.5810 N   0  0  0  0  0  0  0  0  0  0  0  0
   25.3032  -33.3442   -6.3225 C   0  0  0  0  0  0  0  0  0  0  0  0
   24.7273  -32.2442   -6.1452 O   0  0  0  0  0  0  0  0  0  0  0  0
   25.5005  -34.1607   -5.1774 N   0  0  0  0  0  0  0  0  0  0  0  0
   24.9831  -33.8354   -3.8635 C   0  0  1  0  0  0  0  0  0  0  0  0
   23.4754  -33.7749   -4.0103 C   0  0  0  0  0  0  0  0  0  0  0  0
   22.8373  -35.0898   -4.1573 C   0  0  0  0  0  0  0  0  0  0  0  0
   22.6309  -35.6309   -5.4021 C   0  0  0  0  0  0  0  0  0  0  0  0
   22.0350  -36.8737   -5.5825 C   0  0  0  0  0  0  0  0  0  0  0  0
   21.6521  -37.5551   -4.4457 C   0  0  0  0  0  0  0  0  0  0  0  0
   21.8479  -37.0329   -3.1718 C   0  0  0  0  0  0  0  0  0  0  0  0
   22.4463  -35.7893   -3.0382 C   0  0  0  0  0  0  0  0  0  0  0  0
   25.4169  -34.8500   -2.9046 C   0  0  0  0  0  0  0  0  0  0  0  0
   26.2270  -35.8960   -3.3374 O   0  0  0  0  0  0  0  0  0  0  0  0
   25.0830  -34.8219   -1.6701 O   0  0  0  0  0  0  0  0  0  0  0  0
  2  1  1  6
  3  2  1  0
  4  2  1  0
  4  6  1  0
  4  5  1  1
  6  7  2  0
  9  8  1  6
  9 11  1  0
 10  9  1  0
 12  6  1  0
 11 12  1  6
 13 11  1  0
 13 14  2  0
 15 13  1  0
 16 15  1  0
 16 24  1  0
 16 17  1  6
 18 23  2  0
 18 17  1  0
 19 18  1  0
 20 21  1  0
 20 19  2  0
 21 22  2  0
 22 23  1  0
 24 26  2  0
 24 25  1  0
M  END
$$$$
