TVF.pdb
     RDKit          3D

 26 26  0  0  1  0  0  0  0  0999 V2000
   25.0139  -18.4615  -19.1843 C   0  0  0  0  0  0  0  0  0  0  0  0
   24.9441  -19.1860  -17.8475 C   0  0  1  0  0  0  0  0  0  0  0  0
   23.6954  -19.7698  -17.7789 O   0  0  0  0  0  0  0  0  0  0  0  0
   26.0753  -20.1679  -17.8251 C   0  0  2  0  0  0  0  0  0  0  0  0
   25.9180  -21.0999  -18.9186 N   0  0  0  0  0  0  0  0  0  0  0  0
   26.2739  -20.8403  -16.5333 C   0  0  0  0  0  0  0  0  0  0  0  0
   25.7731  -21.9805  -16.3466 O   0  0  0  0  0  0  0  0  0  0  0  0
   29.6085  -21.1519  -14.3348 C   0  0  0  0  0  0  0  0  0  0  0  0
   28.4905  -20.5671  -13.5381 C   0  0  1  0  0  0  0  0  0  0  0  0
   28.7335  -19.0859  -13.3584 C   0  0  0  0  0  0  0  0  0  0  0  0
   27.1314  -20.8330  -14.1566 C   0  0  2  0  0  0  0  0  0  0  0  0
   27.0072  -20.2716  -15.4693 N   0  0  0  0  0  0  0  0  0  0  0  0
   26.1270  -20.2018  -13.2629 C   0  0  0  0  0  0  0  0  0  0  0  0
   25.4579  -19.2196  -13.6638 O   0  0  0  0  0  0  0  0  0  0  0  0
   25.8732  -20.6592  -11.9426 N   0  0  0  0  0  0  0  0  0  0  0  0
   24.7979  -20.1539  -11.1132 C   0  0  1  0  0  0  0  0  0  0  0  0
   23.5112  -20.5175  -11.8278 C   0  0  0  0  0  0  0  0  0  0  0  0
   22.2952  -20.1310  -11.1001 C   0  0  0  0  0  0  0  0  0  0  0  0
   21.9543  -20.7573   -9.9269 C   0  0  0  0  0  0  0  0  0  0  0  0
   20.8150  -20.4171   -9.2069 C   0  0  0  0  0  0  0  0  0  0  0  0
   20.0258  -19.4102   -9.7232 C   0  0  0  0  0  0  0  0  0  0  0  0
   20.3450  -18.7577  -10.9090 C   0  0  0  0  0  0  0  0  0  0  0  0
   21.4913  -19.1292  -11.5948 C   0  0  0  0  0  0  0  0  0  0  0  0
   24.8908  -20.7474   -9.7804 C   0  0  0  0  0  0  0  0  0  0  0  0
   24.7743  -19.9300   -8.6598 O   0  0  0  0  0  0  0  0  0  0  0  0
   25.0765  -21.9989   -9.5925 O   0  0  0  0  0  0  0  0  0  0  0  0
  2  1  1  6
  3  2  1  0
  4  2  1  0
  4  6  1  0
  4  5  1  6
  6  7  2  0
  9  8  1  6
  9 11  1  0
 10  9  1  0
 12  6  1  0
 11 12  1  6
 13 11  1  0
 13 14  2  0
 15 13  1  0
 16 15  1  0
 16 24  1  0
 16 17  1  6
 18 23  2  0
 18 17  1  0
 19 18  1  0
 20 21  1  0
 20 19  2  0
 21 22  2  0
 22 23  1  0
 24 26  2  0
 24 25  1  0
M  END
$$$$
