TVF.pdb
     RDKit          3D

 26 26  0  0  1  0  0  0  0  0999 V2000
   25.7753  -10.3100  -14.8345 C   0  0  0  0  0  0  0  0  0  0  0  0
   25.7539  -11.3456  -15.9500 C   0  0  1  0  0  0  0  0  0  0  0  0
   26.6102  -12.3577  -15.5664 O   0  0  0  0  0  0  0  0  0  0  0  0
   24.3302  -11.7831  -16.1104 C   0  0  2  0  0  0  0  0  0  0  0  0
   24.2791  -12.9177  -17.0044 N   0  0  0  0  0  0  0  0  0  0  0  0
   23.4034  -10.7119  -16.5027 C   0  0  0  0  0  0  0  0  0  0  0  0
   23.4106  -10.2925  -17.6901 O   0  0  0  0  0  0  0  0  0  0  0  0
   19.8655  -10.5013  -17.0638 C   0  0  0  0  0  0  0  0  0  0  0  0
   20.1338   -9.5259  -15.9669 C   0  0  1  0  0  0  0  0  0  0  0  0
   19.7305  -10.1429  -14.6471 C   0  0  0  0  0  0  0  0  0  0  0  0
   21.5768   -9.0592  -15.9406 C   0  0  2  0  0  0  0  0  0  0  0  0
   22.4882  -10.1144  -15.6092 N   0  0  0  0  0  0  0  0  0  0  0  0
   21.6624   -8.0012  -14.9018 C   0  0  0  0  0  0  0  0  0  0  0  0
   21.9645   -8.3013  -13.7221 O   0  0  0  0  0  0  0  0  0  0  0  0
   21.4148   -6.6297  -15.1749 N   0  0  0  0  0  0  0  0  0  0  0  0
   21.5200   -5.5832  -14.1782 C   0  0  1  0  0  0  0  0  0  0  0  0
   22.9977   -5.2666  -14.0577 C   0  0  0  0  0  0  0  0  0  0  0  0
   23.6046   -4.7714  -15.3004 C   0  0  0  0  0  0  0  0  0  0  0  0
   24.3567   -5.6045  -16.0910 C   0  0  0  0  0  0  0  0  0  0  0  0
   24.9432   -5.1752  -17.2758 C   0  0  0  0  0  0  0  0  0  0  0  0
   24.7386   -3.8587  -17.6343 C   0  0  0  0  0  0  0  0  0  0  0  0
   23.9821   -2.9911  -16.8541 C   0  0  0  0  0  0  0  0  0  0  0  0
   23.4151   -3.4619  -15.6796 C   0  0  0  0  0  0  0  0  0  0  0  0
   20.7275   -4.4289  -14.5985 C   0  0  0  0  0  0  0  0  0  0  0  0
   20.6239   -3.3280  -13.7530 O   0  0  0  0  0  0  0  0  0  0  0  0
   20.1166   -4.3818  -15.7213 O   0  0  0  0  0  0  0  0  0  0  0  0
  2  1  1  1
  3  2  1  0
  4  2  1  0
  4  6  1  0
  4  5  1  6
  6  7  2  0
  9  8  1  6
  9 11  1  0
 10  9  1  0
 12  6  1  0
 11 12  1  1
 13 11  1  0
 13 14  2  0
 15 13  1  0
 16 15  1  0
 16 24  1  0
 16 17  1  6
 18 23  2  0
 18 17  1  0
 19 18  1  0
 20 21  1  0
 20 19  2  0
 21 22  2  0
 22 23  1  0
 24 26  2  0
 24 25  1  0
M  END
$$$$
