TDM.pdb
     RDKit          3D

 24 23  0  0  1  0  0  0  0  0999 V2000
   15.9099  -16.3727  -16.6080 C   0  0  0  0  0  0  0  0  0  0  0  0
   16.7464  -15.1252  -16.5925 C   0  0  1  0  0  0  0  0  0  0  0  0
   17.7197  -15.1864  -17.5785 O   0  0  0  0  0  0  0  0  0  0  0  0
   15.8906  -13.8747  -16.7343 C   0  0  2  0  0  0  0  0  0  0  0  0
   15.1454  -13.9705  -17.9745 N   0  0  0  0  0  0  0  0  0  0  0  0
   16.6864  -12.6506  -16.6425 C   0  0  0  0  0  0  0  0  0  0  0  0
   17.2462  -12.4220  -15.5198 O   0  0  0  0  0  0  0  0  0  0  0  0
   16.8804  -11.7125  -17.6915 N   0  0  0  0  0  0  0  0  0  0  0  0
   17.6240  -10.5211  -17.4574 C   0  0  1  0  0  0  0  0  0  0  0  0
   17.8646   -9.7183  -18.7196 C   0  0  0  0  0  0  0  0  0  0  0  0
   18.6063   -8.4800  -18.4674 C   0  0  0  0  0  0  0  0  0  0  0  0
   18.0076   -7.3738  -18.4396 O   0  0  0  0  0  0  0  0  0  0  0  0
   17.0380   -9.6724  -16.3804 C   0  0  0  0  0  0  0  0  0  0  0  0
   15.8112   -9.4202  -16.4526 O   0  0  0  0  0  0  0  0  0  0  0  0
   19.9755   -8.4383  -18.2487 O   0  0  0  0  0  0  0  0  0  0  0  0
   15.5332   -8.1387   -9.0680 C   0  0  0  0  0  0  0  0  0  0  0  0
   16.3406   -9.1242  -10.3296 S   0  0  0  0  0  0  0  0  0  0  0  0
   16.5465   -8.2008  -11.8788 C   0  0  0  0  0  0  0  0  0  0  0  0
   17.1155   -9.0470  -12.9725 C   0  0  0  0  0  0  0  0  0  0  0  0
   17.2202   -8.3021  -14.2528 C   0  0  2  0  0  0  0  0  0  0  0  0
   17.7908   -9.1524  -15.3067 N   0  0  0  0  0  0  0  0  0  0  0  0
   17.9718   -7.0654  -14.1028 C   0  0  0  0  0  0  0  0  0  0  0  0
   17.4821   -5.9731  -13.4389 O   0  0  0  0  0  0  0  0  0  0  0  0
   19.1250   -6.9953  -14.6104 O   0  0  0  0  0  0  0  0  0  0  0  0
  2  1  1  6
  3  2  1  0
  4  2  1  0
  4  6  1  0
  4  5  1  6
  6  7  2  0
  8  6  1  0
  8  9  1  0
  9 10  1  6
 10 11  1  0
 11 12  2  0
 13  9  1  0
 13 21  1  0
 14 13  2  0
 15 11  1  0
 16 17  1  0
 18 17  1  0
 19 18  1  0
 20 21  1  0
 20 19  1  1
 22 20  1  0
 23 22  1  0
 24 22  2  0
M  END
$$$$
