TDM.pdb
     RDKit          3D

 24 23  0  0  1  0  0  0  0  0999 V2000
   28.9151  -19.7464  -17.5451 C   0  0  0  0  0  0  0  0  0  0  0  0
   27.9548  -19.4376  -16.4321 C   0  0  1  0  0  0  0  0  0  0  0  0
   26.6979  -19.1553  -16.9455 O   0  0  0  0  0  0  0  0  0  0  0  0
   27.8972  -20.5660  -15.4124 C   0  0  2  0  0  0  0  0  0  0  0  0
   27.6013  -21.7999  -16.1142 N   0  0  0  0  0  0  0  0  0  0  0  0
   26.9499  -20.2843  -14.3337 C   0  0  0  0  0  0  0  0  0  0  0  0
   27.2369  -19.3047  -13.5696 O   0  0  0  0  0  0  0  0  0  0  0  0
   25.7541  -21.0068  -14.0768 N   0  0  0  0  0  0  0  0  0  0  0  0
   24.8664  -20.5789  -13.0492 C   0  0  1  0  0  0  0  0  0  0  0  0
   23.4082  -20.7822  -13.4067 C   0  0  0  0  0  0  0  0  0  0  0  0
   22.8014  -19.5879  -14.0002 C   0  0  0  0  0  0  0  0  0  0  0  0
   23.3590  -18.4660  -13.8845 O   0  0  0  0  0  0  0  0  0  0  0  0
   25.1854  -21.1754  -11.7201 C   0  0  0  0  0  0  0  0  0  0  0  0
   24.9975  -22.4083  -11.5849 O   0  0  0  0  0  0  0  0  0  0  0  0
   21.6087  -19.6061  -14.7085 O   0  0  0  0  0  0  0  0  0  0  0  0
   28.6762  -18.2730   -6.9925 C   0  0  0  0  0  0  0  0  0  0  0  0
   27.9334  -19.5965   -6.0379 S   0  0  0  0  0  0  0  0  0  0  0  0
   26.8551  -20.6416   -7.0578 C   0  0  0  0  0  0  0  0  0  0  0  0
   26.7203  -20.1249   -8.4546 C   0  0  0  0  0  0  0  0  0  0  0  0
   25.7988  -20.9584   -9.2677 C   0  0  2  0  0  0  0  0  0  0  0  0
   25.6791  -20.4257  -10.6320 N   0  0  0  0  0  0  0  0  0  0  0  0
   24.4955  -21.1021   -8.6371 C   0  0  0  0  0  0  0  0  0  0  0  0
   24.2980  -21.8300   -7.4949 O   0  0  0  0  0  0  0  0  0  0  0  0
   23.5024  -20.5334   -9.1688 O   0  0  0  0  0  0  0  0  0  0  0  0
  2  1  1  6
  3  2  1  0
  4  2  1  0
  4  6  1  0
  4  5  1  6
  6  7  2  0
  8  6  1  0
  8  9  1  0
  9 10  1  6
 10 11  1  0
 11 12  2  0
 13  9  1  0
 13 21  1  0
 14 13  2  0
 15 11  1  0
 16 17  1  0
 18 17  1  0
 19 18  1  0
 20 21  1  0
 20 19  1  1
 22 20  1  0
 23 22  1  0
 24 22  2  0
M  END
$$$$
