TDM.pdb
     RDKit          3D

 24 23  0  0  1  0  0  0  0  0999 V2000
   28.5979  -17.0524  -16.8223 C   0  0  0  0  0  0  0  0  0  0  0  0
   27.5184  -17.8091  -16.1024 C   0  0  1  0  0  0  0  0  0  0  0  0
   26.3215  -17.7172  -16.7968 O   0  0  0  0  0  0  0  0  0  0  0  0
   27.9131  -19.2598  -15.8662 C   0  0  2  0  0  0  0  0  0  0  0  0
   28.0597  -19.9080  -17.1550 N   0  0  0  0  0  0  0  0  0  0  0  0
   26.9694  -19.9501  -14.9869 C   0  0  0  0  0  0  0  0  0  0  0  0
   26.1417  -20.7385  -15.5520 O   0  0  0  0  0  0  0  0  0  0  0  0
   26.9059  -19.8118  -13.5745 N   0  0  0  0  0  0  0  0  0  0  0  0
   25.9367  -20.5395  -12.8273 C   0  0  1  0  0  0  0  0  0  0  0  0
   26.2766  -20.6334  -11.3538 C   0  0  0  0  0  0  0  0  0  0  0  0
   25.3873  -21.5432  -10.6268 C   0  0  0  0  0  0  0  0  0  0  0  0
   25.4301  -21.6069   -9.3710 O   0  0  0  0  0  0  0  0  0  0  0  0
   24.5479  -20.0359  -13.0307 C   0  0  0  0  0  0  0  0  0  0  0  0
   24.2969  -18.8714  -12.6373 O   0  0  0  0  0  0  0  0  0  0  0  0
   24.4652  -22.3723  -11.2486 O   0  0  0  0  0  0  0  0  0  0  0  0
   18.0395  -19.5897  -17.3039 C   0  0  0  0  0  0  0  0  0  0  0  0
   19.7618  -20.0523  -17.1184 S   0  0  0  0  0  0  0  0  0  0  0  0
   20.3222  -19.8933  -15.3992 C   0  0  0  0  0  0  0  0  0  0  0  0
   21.7241  -20.3789  -15.2121 C   0  0  0  0  0  0  0  0  0  0  0  0
   22.1441  -20.3263  -13.7888 C   0  0  2  0  0  0  0  0  0  0  0  0
   23.5268  -20.7992  -13.6343 N   0  0  0  0  0  0  0  0  0  0  0  0
   21.2318  -21.0601  -12.9249 C   0  0  0  0  0  0  0  0  0  0  0  0
   20.0954  -20.5055  -12.4008 O   0  0  0  0  0  0  0  0  0  0  0  0
   21.5021  -22.2601  -12.6433 O   0  0  0  0  0  0  0  0  0  0  0  0
  2  1  1  6
  3  2  1  0
  4  2  1  0
  4  6  1  0
  4  5  1  6
  6  7  2  0
  8  6  1  0
  8  9  1  0
  9 10  1  1
 10 11  1  0
 11 12  2  0
 13  9  1  0
 13 21  1  0
 14 13  2  0
 15 11  1  0
 16 17  1  0
 18 17  1  0
 19 18  1  0
 20 21  1  0
 20 19  1  6
 22 20  1  0
 23 22  1  0
 24 22  2  0
M  END
$$$$
