TDM.pdb
     RDKit          3D

 24 23  0  0  1  0  0  0  0  0999 V2000
   21.0881  -12.3501  -16.0667 C   0  0  0  0  0  0  0  0  0  0  0  0
   20.0511  -12.7664  -17.0705 C   0  0  1  0  0  0  0  0  0  0  0  0
   20.0103  -14.1487  -17.1749 O   0  0  0  0  0  0  0  0  0  0  0  0
   18.6820  -12.1947  -16.7319 C   0  0  2  0  0  0  0  0  0  0  0  0
   17.7287  -12.6863  -17.7076 N   0  0  0  0  0  0  0  0  0  0  0  0
   18.7026  -10.7346  -16.6429 C   0  0  0  0  0  0  0  0  0  0  0  0
   18.8774  -10.1031  -17.7368 O   0  0  0  0  0  0  0  0  0  0  0  0
   18.5451   -9.9788  -15.4504 N   0  0  0  0  0  0  0  0  0  0  0  0
   18.5713   -8.5560  -15.4964 C   0  0  1  0  0  0  0  0  0  0  0  0
   17.4035   -7.9206  -14.7699 C   0  0  0  0  0  0  0  0  0  0  0  0
   17.4216   -6.4574  -14.8446 C   0  0  0  0  0  0  0  0  0  0  0  0
   17.6715   -5.7706  -13.8205 O   0  0  0  0  0  0  0  0  0  0  0  0
   19.8696   -7.9835  -15.0376 C   0  0  0  0  0  0  0  0  0  0  0  0
   20.3220   -8.3939  -13.9419 O   0  0  0  0  0  0  0  0  0  0  0  0
   17.1728   -5.7468  -16.0098 O   0  0  0  0  0  0  0  0  0  0  0  0
   25.9468   -7.0181  -17.8205 C   0  0  0  0  0  0  0  0  0  0  0  0
   25.2725   -5.4300  -17.3327 S   0  0  0  0  0  0  0  0  0  0  0  0
   24.0760   -5.5921  -15.9773 C   0  0  0  0  0  0  0  0  0  0  0  0
   22.7807   -6.1853  -16.4318 C   0  0  0  0  0  0  0  0  0  0  0  0
   21.8496   -6.4186  -15.2988 C   0  0  2  0  0  0  0  0  0  0  0  0
   20.5941   -7.0197  -15.7697 N   0  0  0  0  0  0  0  0  0  0  0  0
   21.6041   -5.2035  -14.5372 C   0  0  0  0  0  0  0  0  0  0  0  0
   22.4080   -4.7961  -13.5069 O   0  0  0  0  0  0  0  0  0  0  0  0
   20.6037   -4.4955  -14.8374 O   0  0  0  0  0  0  0  0  0  0  0  0
  2  1  1  1
  3  2  1  0
  4  2  1  0
  4  6  1  0
  4  5  1  6
  6  7  2  0
  8  6  1  0
  8  9  1  0
  9 10  1  1
 10 11  1  0
 11 12  2  0
 13  9  1  0
 13 21  1  0
 14 13  2  0
 15 11  1  0
 16 17  1  0
 18 17  1  0
 19 18  1  0
 20 21  1  0
 20 19  1  6
 22 20  1  0
 23 22  1  0
 24 22  2  0
M  END
$$$$
