TDM.pdb
     RDKit          3D

 24 23  0  0  1  0  0  0  0  0999 V2000
   27.1126  -18.2509  -15.7076 C   0  0  0  0  0  0  0  0  0  0  0  0
   27.3789  -19.4834  -16.5237 C   0  0  1  0  0  0  0  0  0  0  0  0
   28.4070  -19.2509  -17.4248 O   0  0  0  0  0  0  0  0  0  0  0  0
   27.6762  -20.6868  -15.6408 C   0  0  2  0  0  0  0  0  0  0  0  0
   27.9161  -21.8323  -16.4969 N   0  0  0  0  0  0  0  0  0  0  0  0
   26.6179  -20.9229  -14.6587 C   0  0  0  0  0  0  0  0  0  0  0  0
   25.5892  -21.5512  -15.0747 O   0  0  0  0  0  0  0  0  0  0  0  0
   26.6483  -20.5129  -13.2989 N   0  0  0  0  0  0  0  0  0  0  0  0
   25.5492  -20.7993  -12.4405 C   0  0  1  0  0  0  0  0  0  0  0  0
   25.8752  -20.5923  -10.9754 C   0  0  0  0  0  0  0  0  0  0  0  0
   24.7466  -20.9093  -10.0964 C   0  0  0  0  0  0  0  0  0  0  0  0
   23.7418  -21.5193  -10.5451 O   0  0  0  0  0  0  0  0  0  0  0  0
   24.3059  -20.0717  -12.8257 C   0  0  0  0  0  0  0  0  0  0  0  0
   24.3891  -18.8276  -12.9643 O   0  0  0  0  0  0  0  0  0  0  0  0
   24.7048  -20.5715   -8.7515 O   0  0  0  0  0  0  0  0  0  0  0  0
   22.5284  -17.3723  -17.5420 C   0  0  0  0  0  0  0  0  0  0  0  0
   21.1780  -18.5349  -17.3424 S   0  0  0  0  0  0  0  0  0  0  0  0
   20.9194  -18.9767  -15.6009 C   0  0  0  0  0  0  0  0  0  0  0  0
   22.0717  -19.7416  -15.0323 C   0  0  0  0  0  0  0  0  0  0  0  0
   21.8861  -20.0319  -13.5879 C   0  0  2  0  0  0  0  0  0  0  0  0
   23.0664  -20.7114  -13.0359 N   0  0  0  0  0  0  0  0  0  0  0  0
   20.6703  -20.7909  -13.3373 C   0  0  0  0  0  0  0  0  0  0  0  0
   19.4561  -20.1989  -13.1162 O   0  0  0  0  0  0  0  0  0  0  0  0
   20.7389  -22.0508  -13.3195 O   0  0  0  0  0  0  0  0  0  0  0  0
  2  1  1  1
  3  2  1  0
  4  2  1  0
  4  6  1  0
  4  5  1  6
  6  7  2  0
  8  6  1  0
  8  9  1  0
  9 10  1  1
 10 11  1  0
 11 12  2  0
 13  9  1  0
 13 21  1  0
 14 13  2  0
 15 11  1  0
 16 17  1  0
 18 17  1  0
 19 18  1  0
 20 21  1  0
 20 19  1  6
 22 20  1  0
 23 22  1  0
 24 22  2  0
M  END
$$$$
