TDM.pdb
     RDKit          3D

 24 23  0  0  1  0  0  0  0  0999 V2000
   23.9286  -12.3001  -15.0889 C   0  0  0  0  0  0  0  0  0  0  0  0
   23.7084  -12.8755  -16.4588 C   0  0  1  0  0  0  0  0  0  0  0  0
   24.2065  -14.1681  -16.5235 O   0  0  0  0  0  0  0  0  0  0  0  0
   22.2408  -12.8256  -16.8584 C   0  0  2  0  0  0  0  0  0  0  0  0
   22.1073  -13.4120  -18.1778 N   0  0  0  0  0  0  0  0  0  0  0  0
   21.6957  -11.4702  -16.7810 C   0  0  0  0  0  0  0  0  0  0  0  0
   22.1081  -10.6430  -17.6595 O   0  0  0  0  0  0  0  0  0  0  0  0
   20.7572  -11.0125  -15.8178 N   0  0  0  0  0  0  0  0  0  0  0  0
   20.2910   -9.6677  -15.8558 C   0  0  1  0  0  0  0  0  0  0  0  0
   18.9470   -9.4899  -15.1795 C   0  0  0  0  0  0  0  0  0  0  0  0
   18.4613   -8.1090  -15.2447 C   0  0  0  0  0  0  0  0  0  0  0  0
   18.3174   -7.4344  -14.1924 O   0  0  0  0  0  0  0  0  0  0  0  0
   21.2911   -8.6911  -15.3363 C   0  0  0  0  0  0  0  0  0  0  0  0
   21.8328   -8.9554  -14.2361 O   0  0  0  0  0  0  0  0  0  0  0  0
   18.1356   -7.4668  -16.4304 O   0  0  0  0  0  0  0  0  0  0  0  0
   26.8733   -3.3851  -16.8633 C   0  0  0  0  0  0  0  0  0  0  0  0
   25.5512   -4.4284  -17.4783 S   0  0  0  0  0  0  0  0  0  0  0  0
   24.5066   -5.0576  -16.1336 C   0  0  0  0  0  0  0  0  0  0  0  0
   23.4636   -6.0106  -16.6236 C   0  0  0  0  0  0  0  0  0  0  0  0
   22.6372   -6.5477  -15.5130 C   0  0  2  0  0  0  0  0  0  0  0  0
   21.6450   -7.5073  -16.0169 N   0  0  0  0  0  0  0  0  0  0  0  0
   22.0069   -5.4871  -14.7417 C   0  0  0  0  0  0  0  0  0  0  0  0
   22.6248   -4.8625  -13.6921 O   0  0  0  0  0  0  0  0  0  0  0  0
   20.8371   -5.1297  -15.0519 O   0  0  0  0  0  0  0  0  0  0  0  0
  2  1  1  1
  3  2  1  0
  4  2  1  0
  4  6  1  0
  4  5  1  6
  6  7  2  0
  8  6  1  0
  8  9  1  0
  9 10  1  1
 10 11  1  0
 11 12  2  0
 13  9  1  0
 13 21  1  0
 14 13  2  0
 15 11  1  0
 16 17  1  0
 18 17  1  0
 19 18  1  0
 20 21  1  0
 20 19  1  6
 22 20  1  0
 23 22  1  0
 24 22  2  0
M  END
$$$$
