TDM.pdb
     RDKit          3D

 24 23  0  0  1  0  0  0  0  0999 V2000
   25.0939  -25.7276  -15.2850 C   0  0  0  0  0  0  0  0  0  0  0  0
   26.1304  -25.6476  -16.3691 C   0  0  1  0  0  0  0  0  0  0  0  0
   26.1138  -26.8025  -17.1368 O   0  0  0  0  0  0  0  0  0  0  0  0
   25.9464  -24.4062  -17.2300 C   0  0  2  0  0  0  0  0  0  0  0  0
   27.0145  -24.3686  -18.2099 N   0  0  0  0  0  0  0  0  0  0  0  0
   25.8692  -23.1863  -16.4262 C   0  0  0  0  0  0  0  0  0  0  0  0
   26.9781  -22.6253  -16.1405 O   0  0  0  0  0  0  0  0  0  0  0  0
   24.6727  -22.5884  -15.9477 N   0  0  0  0  0  0  0  0  0  0  0  0
   24.7254  -21.3664  -15.2189 C   0  0  1  0  0  0  0  0  0  0  0  0
   23.8528  -20.2832  -15.8194 C   0  0  0  0  0  0  0  0  0  0  0  0
   23.9335  -19.0202  -15.0810 C   0  0  0  0  0  0  0  0  0  0  0  0
   22.8874  -18.4562  -14.6680 O   0  0  0  0  0  0  0  0  0  0  0  0
   24.4432  -21.5441  -13.7654 C   0  0  0  0  0  0  0  0  0  0  0  0
   23.3830  -22.1389  -13.4556 O   0  0  0  0  0  0  0  0  0  0  0  0
   25.1280  -18.3760  -14.7934 O   0  0  0  0  0  0  0  0  0  0  0  0
   26.9123  -20.3485   -6.2762 C   0  0  0  0  0  0  0  0  0  0  0  0
   27.1277  -19.9908   -8.0199 S   0  0  0  0  0  0  0  0  0  0  0  0
   25.8231  -20.7470   -9.0304 C   0  0  0  0  0  0  0  0  0  0  0  0
   26.0566  -20.5549  -10.4949 C   0  0  0  0  0  0  0  0  0  0  0  0
   24.9906  -21.1856  -11.3140 C   0  0  2  0  0  0  0  0  0  0  0  0
   25.3012  -21.0802  -12.7464 N   0  0  0  0  0  0  0  0  0  0  0  0
   23.6771  -20.6369  -11.0133 C   0  0  0  0  0  0  0  0  0  0  0  0
   22.8861  -21.1117  -10.0021 O   0  0  0  0  0  0  0  0  0  0  0  0
   23.2462  -19.6831  -11.7184 O   0  0  0  0  0  0  0  0  0  0  0  0
  2  1  1  1
  3  2  1  0
  4  2  1  0
  4  6  1  0
  4  5  1  6
  6  7  2  0
  8  6  1  0
  8  9  1  0
  9 10  1  6
 10 11  1  0
 11 12  2  0
 13  9  1  0
 13 21  1  0
 14 13  2  0
 15 11  1  0
 16 17  1  0
 18 17  1  0
 19 18  1  0
 20 21  1  0
 20 19  1  1
 22 20  1  0
 23 22  1  0
 24 22  2  0
M  END
$$$$
