TDM.pdb
     RDKit          3D

 24 23  0  0  1  0  0  0  0  0999 V2000
   28.3138  -21.2080  -13.9307 C   0  0  0  0  0  0  0  0  0  0  0  0
   28.2871  -19.8582  -14.5892 C   0  0  1  0  0  0  0  0  0  0  0  0
   29.0578  -19.8700  -15.7421 O   0  0  0  0  0  0  0  0  0  0  0  0
   26.8637  -19.4035  -14.8778 C   0  0  2  0  0  0  0  0  0  0  0  0
   26.9205  -18.0965  -15.5032 N   0  0  0  0  0  0  0  0  0  0  0  0
   26.0262  -19.4238  -13.6784 C   0  0  0  0  0  0  0  0  0  0  0  0
   25.9958  -18.3503  -12.9909 O   0  0  0  0  0  0  0  0  0  0  0  0
   25.2567  -20.5299  -13.2285 N   0  0  0  0  0  0  0  0  0  0  0  0
   24.4446  -20.4106  -12.0652 C   0  0  1  0  0  0  0  0  0  0  0  0
   23.0419  -20.9464  -12.2673 C   0  0  0  0  0  0  0  0  0  0  0  0
   22.2551  -20.1304  -13.1958 C   0  0  0  0  0  0  0  0  0  0  0  0
   21.8196  -19.0043  -12.8419 O   0  0  0  0  0  0  0  0  0  0  0  0
   25.0787  -21.0000  -10.8509 C   0  0  0  0  0  0  0  0  0  0  0  0
   25.2824  -22.2378  -10.8539 O   0  0  0  0  0  0  0  0  0  0  0  0
   21.9432  -20.5263  -14.4883 O   0  0  0  0  0  0  0  0  0  0  0  0
   28.9977  -18.1150   -6.4271 C   0  0  0  0  0  0  0  0  0  0  0  0
   28.1074  -19.2656   -5.3791 S   0  0  0  0  0  0  0  0  0  0  0  0
   27.1211  -20.4395   -6.3508 C   0  0  0  0  0  0  0  0  0  0  0  0
   26.6988  -19.8718   -7.6682 C   0  0  0  0  0  0  0  0  0  0  0  0
   25.8789  -20.8325   -8.4490 C   0  0  2  0  0  0  0  0  0  0  0  0
   25.4505  -20.2387   -9.7231 N   0  0  0  0  0  0  0  0  0  0  0  0
   24.7437  -21.3261   -7.6844 C   0  0  0  0  0  0  0  0  0  0  0  0
   24.8527  -22.3174   -6.7468 O   0  0  0  0  0  0  0  0  0  0  0  0
   23.6074  -20.8204   -7.8977 O   0  0  0  0  0  0  0  0  0  0  0  0
  2  1  1  6
  3  2  1  0
  4  2  1  0
  4  6  1  0
  4  5  1  1
  6  7  2  0
  8  6  1  0
  8  9  1  0
  9 10  1  6
 10 11  1  0
 11 12  2  0
 13  9  1  0
 13 21  1  0
 14 13  2  0
 15 11  1  0
 16 17  1  0
 18 17  1  0
 19 18  1  0
 20 21  1  0
 20 19  1  1
 22 20  1  0
 23 22  1  0
 24 22  2  0
M  END
$$$$
