TDM.pdb
     RDKit          3D

 24 23  0  0  1  0  0  0  0  0999 V2000
   13.0522  -12.2497  -13.7578 C   0  0  0  0  0  0  0  0  0  0  0  0
   14.2903  -11.4670  -14.0907 C   0  0  1  0  0  0  0  0  0  0  0  0
   15.2768  -11.7020  -13.1448 O   0  0  0  0  0  0  0  0  0  0  0  0
   14.7855  -11.7727  -15.4969 C   0  0  2  0  0  0  0  0  0  0  0  0
   15.0649  -13.1929  -15.5831 N   0  0  0  0  0  0  0  0  0  0  0  0
   15.9326  -10.9441  -15.8680 C   0  0  0  0  0  0  0  0  0  0  0  0
   16.9506  -11.5595  -16.3274 O   0  0  0  0  0  0  0  0  0  0  0  0
   15.9981   -9.5293  -15.7578 N   0  0  0  0  0  0  0  0  0  0  0  0
   17.1082   -8.8202  -16.2982 C   0  0  1  0  0  0  0  0  0  0  0  0
   16.7511   -7.4172  -16.7448 C   0  0  0  0  0  0  0  0  0  0  0  0
   17.8937   -6.6994  -17.3162 C   0  0  0  0  0  0  0  0  0  0  0  0
   18.5622   -7.2092  -18.2522 O   0  0  0  0  0  0  0  0  0  0  0  0
   18.2914   -8.8140  -15.3906 C   0  0  0  0  0  0  0  0  0  0  0  0
   18.0760   -8.6276  -14.1689 O   0  0  0  0  0  0  0  0  0  0  0  0
   18.3076   -5.4487  -16.8817 O   0  0  0  0  0  0  0  0  0  0  0  0
   25.5607  -11.4605  -13.9226 C   0  0  0  0  0  0  0  0  0  0  0  0
   24.2328  -11.2448  -15.1078 S   0  0  0  0  0  0  0  0  0  0  0  0
   22.9435  -10.1308  -14.4820 C   0  0  0  0  0  0  0  0  0  0  0  0
   21.7950  -10.0021  -15.4310 C   0  0  0  0  0  0  0  0  0  0  0  0
   20.7794   -9.0341  -14.9448 C   0  0  2  0  0  0  0  0  0  0  0  0
   19.6147   -9.0050  -15.8402 N   0  0  0  0  0  0  0  0  0  0  0  0
   21.3402   -7.7045  -14.7590 C   0  0  0  0  0  0  0  0  0  0  0  0
   21.8442   -7.2701  -13.5627 O   0  0  0  0  0  0  0  0  0  0  0  0
   21.3597   -6.9153  -15.7434 O   0  0  0  0  0  0  0  0  0  0  0  0
  2  1  1  1
  3  2  1  0
  4  2  1  0
  4  6  1  0
  4  5  1  1
  6  7  2  0
  8  6  1  0
  8  9  1  0
  9 10  1  1
 10 11  1  0
 11 12  2  0
 13  9  1  0
 13 21  1  0
 14 13  2  0
 15 11  1  0
 16 17  1  0
 18 17  1  0
 19 18  1  0
 20 21  1  0
 20 19  1  6
 22 20  1  0
 23 22  1  0
 24 22  2  0
M  END
$$$$
