TDM.pdb
     RDKit          3D

 24 23  0  0  1  0  0  0  0  0999 V2000
   29.0595  -21.0562  -16.0634 C   0  0  0  0  0  0  0  0  0  0  0  0
   28.1157  -20.9635  -14.8984 C   0  0  1  0  0  0  0  0  0  0  0  0
   28.8232  -20.9547  -13.7057 O   0  0  0  0  0  0  0  0  0  0  0  0
   27.2032  -19.7508  -15.0115 C   0  0  2  0  0  0  0  0  0  0  0  0
   28.0282  -18.5781  -15.2281 N   0  0  0  0  0  0  0  0  0  0  0  0
   26.3194  -19.6179  -13.8533 C   0  0  0  0  0  0  0  0  0  0  0  0
   26.4393  -18.5484  -13.1693 O   0  0  0  0  0  0  0  0  0  0  0  0
   25.3534  -20.5736  -13.4392 N   0  0  0  0  0  0  0  0  0  0  0  0
   24.5173  -20.3062  -12.3182 C   0  0  1  0  0  0  0  0  0  0  0  0
   23.0779  -20.7219  -12.5432 C   0  0  0  0  0  0  0  0  0  0  0  0
   22.2163  -20.4129  -11.3990 C   0  0  0  0  0  0  0  0  0  0  0  0
   21.3281  -21.2255  -11.0330 O   0  0  0  0  0  0  0  0  0  0  0  0
   25.0513  -20.8734  -11.0466 C   0  0  0  0  0  0  0  0  0  0  0  0
   25.1441  -22.1221  -10.9700 O   0  0  0  0  0  0  0  0  0  0  0  0
   22.3133  -19.2421  -10.6613 O   0  0  0  0  0  0  0  0  0  0  0  0
   28.5084  -19.5167   -3.9999 C   0  0  0  0  0  0  0  0  0  0  0  0
   27.9052  -18.8558   -5.5536 S   0  0  0  0  0  0  0  0  0  0  0  0
   27.1201  -20.1365   -6.5727 C   0  0  0  0  0  0  0  0  0  0  0  0
   26.6452  -19.6040   -7.8869 C   0  0  0  0  0  0  0  0  0  0  0  0
   25.9292  -20.6367   -8.6778 C   0  0  2  0  0  0  0  0  0  0  0  0
   25.4477  -20.0800   -9.9496 N   0  0  0  0  0  0  0  0  0  0  0  0
   24.8468  -21.2477   -7.9215 C   0  0  0  0  0  0  0  0  0  0  0  0
   25.0610  -22.1129   -6.8826 O   0  0  0  0  0  0  0  0  0  0  0  0
   23.6575  -20.9706   -8.2397 O   0  0  0  0  0  0  0  0  0  0  0  0
  2  1  1  6
  3  2  1  0
  4  2  1  0
  4  6  1  0
  4  5  1  1
  6  7  2  0
  8  6  1  0
  8  9  1  0
  9 10  1  6
 10 11  1  0
 11 12  2  0
 13  9  1  0
 13 21  1  0
 14 13  2  0
 15 11  1  0
 16 17  1  0
 18 17  1  0
 19 18  1  0
 20 21  1  0
 20 19  1  1
 22 20  1  0
 23 22  1  0
 24 22  2  0
M  END
$$$$
