TDM.pdb
     RDKit          3D

 24 23  0  0  1  0  0  0  0  0999 V2000
   18.0502  -11.4655  -14.8297 C   0  0  0  0  0  0  0  0  0  0  0  0
   17.9191  -11.8379  -16.2790 C   0  0  1  0  0  0  0  0  0  0  0  0
   17.2971  -13.0711  -16.4044 O   0  0  0  0  0  0  0  0  0  0  0  0
   17.1864  -10.7637  -17.0696 C   0  0  2  0  0  0  0  0  0  0  0  0
   17.0263  -11.2306  -18.4331 N   0  0  0  0  0  0  0  0  0  0  0  0
   17.8583   -9.4667  -16.9882 C   0  0  0  0  0  0  0  0  0  0  0  0
   19.0517   -9.4181  -17.4347 O   0  0  0  0  0  0  0  0  0  0  0  0
   17.2919   -8.2764  -16.4585 N   0  0  0  0  0  0  0  0  0  0  0  0
   18.0842   -7.0997  -16.3366 C   0  0  1  0  0  0  0  0  0  0  0  0
   17.2611   -5.8621  -16.0427 C   0  0  0  0  0  0  0  0  0  0  0  0
   16.4160   -6.0158  -14.8557 C   0  0  0  0  0  0  0  0  0  0  0  0
   15.5843   -6.9571  -14.7837 O   0  0  0  0  0  0  0  0  0  0  0  0
   19.2017   -7.2501  -15.3607 C   0  0  0  0  0  0  0  0  0  0  0  0
   19.0563   -8.0991  -14.4487 O   0  0  0  0  0  0  0  0  0  0  0  0
   16.4690   -5.1638  -13.7622 O   0  0  0  0  0  0  0  0  0  0  0  0
   25.9451   -9.9256  -13.8720 C   0  0  0  0  0  0  0  0  0  0  0  0
   24.5954   -9.4904  -14.9691 S   0  0  0  0  0  0  0  0  0  0  0  0
   23.5970   -8.1282  -14.3037 C   0  0  0  0  0  0  0  0  0  0  0  0
   22.4013   -7.8339  -15.1522 C   0  0  0  0  0  0  0  0  0  0  0  0
   21.5621   -6.7545  -14.5729 C   0  0  2  0  0  0  0  0  0  0  0  0
   20.3901   -6.4925  -15.4198 N   0  0  0  0  0  0  0  0  0  0  0  0
   22.3267   -5.5401  -14.3332 C   0  0  0  0  0  0  0  0  0  0  0  0
   23.0552   -5.3325  -13.1931 O   0  0  0  0  0  0  0  0  0  0  0  0
   22.3150   -4.6366  -15.2140 O   0  0  0  0  0  0  0  0  0  0  0  0
  2  1  1  1
  3  2  1  0
  4  2  1  0
  4  6  1  0
  4  5  1  6
  6  7  2  0
  8  6  1  0
  8  9  1  0
  9 10  1  1
 10 11  1  0
 11 12  2  0
 13  9  1  0
 13 21  1  0
 14 13  2  0
 15 11  1  0
 16 17  1  0
 18 17  1  0
 19 18  1  0
 20 21  1  0
 20 19  1  6
 22 20  1  0
 23 22  1  0
 24 22  2  0
M  END
$$$$
