TDM.pdb
     RDKit          3D

 24 23  0  0  1  0  0  0  0  0999 V2000
   28.1901  -21.3658  -14.3016 C   0  0  0  0  0  0  0  0  0  0  0  0
   28.1041  -20.0362  -14.9951 C   0  0  1  0  0  0  0  0  0  0  0  0
   28.7685  -20.0842  -16.2115 O   0  0  0  0  0  0  0  0  0  0  0  0
   26.6605  -19.5869  -15.1686 C   0  0  2  0  0  0  0  0  0  0  0  0
   26.6604  -18.3038  -15.8441 N   0  0  0  0  0  0  0  0  0  0  0  0
   25.9366  -19.5601  -13.8976 C   0  0  0  0  0  0  0  0  0  0  0  0
   25.9773  -18.4649  -13.2457 O   0  0  0  0  0  0  0  0  0  0  0  0
   25.2033  -20.6432  -13.3432 N   0  0  0  0  0  0  0  0  0  0  0  0
   24.4615  -20.4641  -12.1412 C   0  0  1  0  0  0  0  0  0  0  0  0
   23.0559  -21.0231  -12.2266 C   0  0  0  0  0  0  0  0  0  0  0  0
   22.1917  -20.2425  -13.1159 C   0  0  0  0  0  0  0  0  0  0  0  0
   22.1004  -18.9949  -12.9811 O   0  0  0  0  0  0  0  0  0  0  0  0
   25.1748  -20.9767  -10.9362 C   0  0  0  0  0  0  0  0  0  0  0  0
   25.3064  -22.2200  -10.8333 O   0  0  0  0  0  0  0  0  0  0  0  0
   21.4369  -20.8026  -14.1361 O   0  0  0  0  0  0  0  0  0  0  0  0
   28.8238  -19.3047   -4.0470 C   0  0  0  0  0  0  0  0  0  0  0  0
   28.1634  -18.7045   -5.6022 S   0  0  0  0  0  0  0  0  0  0  0  0
   27.3377  -20.0224   -6.5384 C   0  0  0  0  0  0  0  0  0  0  0  0
   26.8994  -19.5667   -7.8936 C   0  0  0  0  0  0  0  0  0  0  0  0
   26.1705  -20.6316   -8.6281 C   0  0  2  0  0  0  0  0  0  0  0  0
   25.6963  -20.1384   -9.9286 N   0  0  0  0  0  0  0  0  0  0  0  0
   25.0803  -21.1870   -7.8408 C   0  0  0  0  0  0  0  0  0  0  0  0
   25.2778  -22.0803   -6.8226 O   0  0  0  0  0  0  0  0  0  0  0  0
   23.8998  -20.8322   -8.1109 O   0  0  0  0  0  0  0  0  0  0  0  0
  2  1  1  6
  3  2  1  0
  4  2  1  0
  4  6  1  0
  4  5  1  1
  6  7  2  0
  8  6  1  0
  8  9  1  0
  9 10  1  6
 10 11  1  0
 11 12  2  0
 13  9  1  0
 13 21  1  0
 14 13  2  0
 15 11  1  0
 16 17  1  0
 18 17  1  0
 19 18  1  0
 20 21  1  0
 20 19  1  1
 22 20  1  0
 23 22  1  0
 24 22  2  0
M  END
$$$$
