TDM.pdb
     RDKit          3D

 24 23  0  0  1  0  0  0  0  0999 V2000
   20.0206  -12.4942  -15.1230 C   0  0  0  0  0  0  0  0  0  0  0  0
   19.0961  -12.7106  -16.2868 C   0  0  1  0  0  0  0  0  0  0  0  0
   18.8451  -14.0639  -16.4567 O   0  0  0  0  0  0  0  0  0  0  0  0
   17.8041  -11.9218  -16.1305 C   0  0  2  0  0  0  0  0  0  0  0  0
   16.9231  -12.2675  -17.2291 N   0  0  0  0  0  0  0  0  0  0  0  0
   18.0474  -10.4828  -16.0282 C   0  0  0  0  0  0  0  0  0  0  0  0
   18.5851   -9.9260  -17.0416 O   0  0  0  0  0  0  0  0  0  0  0  0
   17.7353   -9.6715  -14.9047 N   0  0  0  0  0  0  0  0  0  0  0  0
   18.0072   -8.2742  -14.9335 C   0  0  1  0  0  0  0  0  0  0  0  0
   17.0436   -7.4681  -14.0866 C   0  0  0  0  0  0  0  0  0  0  0  0
   15.6499   -7.6312  -14.5083 C   0  0  0  0  0  0  0  0  0  0  0  0
   15.3305   -7.4946  -15.7176 O   0  0  0  0  0  0  0  0  0  0  0  0
   19.4235   -7.9506  -14.5974 C   0  0  0  0  0  0  0  0  0  0  0  0
   19.8785   -8.4145  -13.5243 O   0  0  0  0  0  0  0  0  0  0  0  0
   14.6162   -7.9372  -13.6352 O   0  0  0  0  0  0  0  0  0  0  0  0
   26.6229   -6.5083  -17.4473 C   0  0  0  0  0  0  0  0  0  0  0  0
   24.8730   -6.7655  -17.7412 S   0  0  0  0  0  0  0  0  0  0  0  0
   23.9202   -6.7550  -16.1962 C   0  0  0  0  0  0  0  0  0  0  0  0
   22.4604   -6.9820  -16.4281 C   0  0  0  0  0  0  0  0  0  0  0  0
   21.6860   -6.9504  -15.1616 C   0  0  2  0  0  0  0  0  0  0  0  0
   20.2546   -7.1608  -15.4191 N   0  0  0  0  0  0  0  0  0  0  0  0
   21.9166   -5.7241  -14.4133 C   0  0  0  0  0  0  0  0  0  0  0  0
   22.9520   -5.5749  -13.5304 O   0  0  0  0  0  0  0  0  0  0  0  0
   21.1250   -4.7562  -14.5830 O   0  0  0  0  0  0  0  0  0  0  0  0
  2  1  1  1
  3  2  1  0
  4  2  1  0
  4  6  1  0
  4  5  1  6
  6  7  2  0
  8  6  1  0
  8  9  1  0
  9 10  1  1
 10 11  1  0
 11 12  2  0
 13  9  1  0
 13 21  1  0
 14 13  2  0
 15 11  1  0
 16 17  1  0
 18 17  1  0
 19 18  1  0
 20 21  1  0
 20 19  1  6
 22 20  1  0
 23 22  1  0
 24 22  2  0
M  END
$$$$
