TDM.pdb
     RDKit          3D

 24 23  0  0  1  0  0  0  0  0999 V2000
   15.7084   -3.4737  -15.4544 C   0  0  0  0  0  0  0  0  0  0  0  0
   14.4534   -3.9563  -16.1241 C   0  0  1  0  0  0  0  0  0  0  0  0
   14.3046   -3.3490  -17.3619 O   0  0  0  0  0  0  0  0  0  0  0  0
   14.4298   -5.4733  -16.2436 C   0  0  2  0  0  0  0  0  0  0  0  0
   13.1783   -5.8622  -16.8643 N   0  0  0  0  0  0  0  0  0  0  0  0
   14.6536   -6.1298  -14.9555 C   0  0  0  0  0  0  0  0  0  0  0  0
   13.6668   -6.1435  -14.1479 O   0  0  0  0  0  0  0  0  0  0  0  0
   15.8663   -6.7435  -14.5424 N   0  0  0  0  0  0  0  0  0  0  0  0
   15.9392   -7.4102  -13.2865 C   0  0  1  0  0  0  0  0  0  0  0  0
   17.0240   -8.4669  -13.2416 C   0  0  0  0  0  0  0  0  0  0  0  0
   16.7539   -9.5908  -14.1422 C   0  0  0  0  0  0  0  0  0  0  0  0
   15.6790  -10.2380  -14.0481 O   0  0  0  0  0  0  0  0  0  0  0  0
   16.0528   -6.4695  -12.1349 C   0  0  0  0  0  0  0  0  0  0  0  0
   16.8572   -5.5141  -12.2522 O   0  0  0  0  0  0  0  0  0  0  0  0
   17.6334  -10.0091  -15.1301 O   0  0  0  0  0  0  0  0  0  0  0  0
   12.7712   -3.5202   -5.5527 C   0  0  0  0  0  0  0  0  0  0  0  0
   12.7370   -4.7732   -6.8348 S   0  0  0  0  0  0  0  0  0  0  0  0
   14.2443   -4.7458   -7.8460 C   0  0  0  0  0  0  0  0  0  0  0  0
   14.1915   -5.7307   -8.9700 C   0  0  0  0  0  0  0  0  0  0  0  0
   15.4156   -5.6808   -9.8091 C   0  0  2  0  0  0  0  0  0  0  0  0
   15.3087   -6.6075  -10.9445 N   0  0  0  0  0  0  0  0  0  0  0  0
   16.6193   -5.9305   -9.0309 C   0  0  0  0  0  0  0  0  0  0  0  0
   17.0677   -5.0766   -8.0595 O   0  0  0  0  0  0  0  0  0  0  0  0
   17.2814   -6.9791   -9.2642 O   0  0  0  0  0  0  0  0  0  0  0  0
  2  1  1  6
  3  2  1  0
  4  2  1  0
  4  6  1  0
  4  5  1  1
  6  7  2  0
  8  6  1  0
  8  9  1  0
  9 10  1  6
 10 11  1  0
 11 12  2  0
 13  9  1  0
 13 21  1  0
 14 13  2  0
 15 11  1  0
 16 17  1  0
 18 17  1  0
 19 18  1  0
 20 21  1  0
 20 19  1  1
 22 20  1  0
 23 22  1  0
 24 22  2  0
M  END
$$$$
