PKK.pdb
     RDKit          3D

 26 26  0  0  1  0  0  0  0  0999 V2000
    8.2782  -14.8892   18.5535 N   0  0  0  0  0  0  0  0  0  0  0  0
    8.2897  -14.2502   17.2294 C   0  0  0  0  0  0  0  0  0  0  0  0
    8.0193  -12.7952   17.4494 C   0  0  0  0  0  0  0  0  0  0  0  0
    7.9033  -12.6643   18.9654 C   0  0  0  0  0  0  0  0  0  0  0  0
    8.7711  -13.8082   19.4296 C   0  0  1  0  0  0  0  0  0  0  0  0
    8.5552  -14.1717   20.8583 C   0  0  0  0  0  0  0  0  0  0  0  0
    8.8534  -13.3509   21.7500 O   0  0  0  0  0  0  0  0  0  0  0  0
    8.0279  -15.4100   21.2225 N   0  0  0  0  0  0  0  0  0  0  0  0
    7.4335  -15.8037   22.4655 C   0  0  1  0  0  0  0  0  0  0  0  0
    6.4501  -16.9017   22.4246 C   0  0  0  0  0  0  0  0  0  0  0  0
    6.7757  -17.8870   21.2976 C   0  0  0  0  0  0  0  0  0  0  0  0
    5.8028  -19.0346   21.3952 C   0  0  0  0  0  0  0  0  0  0  0  0
    6.0708  -20.0128   20.2436 C   0  0  0  0  0  0  0  0  0  0  0  0
    5.0541  -21.0563   20.3807 N   0  0  0  0  0  0  0  0  0  0  0  0
    8.5067  -15.9283   23.4831 C   0  0  0  0  0  0  0  0  0  0  0  0
    9.6096  -16.4203   23.1518 O   0  0  0  0  0  0  0  0  0  0  0  0
    8.3676  -15.5297   24.8247 N   0  0  0  0  0  0  0  0  0  0  0  0
    9.4063  -15.7348   25.7954 C   0  0  1  0  0  0  0  0  0  0  0  0
    9.2233  -14.9517   27.0802 C   0  0  0  0  0  0  0  0  0  0  0  0
   10.3338  -15.2288   28.0365 C   0  0  0  0  0  0  0  0  0  0  0  0
   10.2097  -14.4761   29.3073 C   0  0  0  0  0  0  0  0  0  0  0  0
   11.2661  -14.6433   30.3361 C   0  0  0  0  0  0  0  0  0  0  0  0
   11.0812  -13.8945   31.5480 N   0  0  0  0  0  0  0  0  0  0  0  0
    9.4603  -17.2102   26.1159 C   0  0  0  0  0  0  0  0  0  0  0  0
   10.6684  -17.8825   26.2351 O   0  0  0  0  0  0  0  0  0  0  0  0
    8.4184  -17.8735   26.2846 O   0  0  0  0  0  0  0  0  0  0  0  0
  1  2  1  0
  3  2  1  0
  4  5  1  0
  4  3  1  0
  5  1  1  0
  6  8  1  0
  5  6  1  1
  7  6  2  0
  9 15  1  0
  9  8  1  0
  9 10  1  6
 11 10  1  0
 12 11  1  0
 13 12  1  0
 14 13  1  0
 15 17  1  0
 16 15  2  0
 17 18  1  0
 18 24  1  0
 18 19  1  1
 20 19  1  0
 21 20  1  0
 22 21  1  0
 23 22  1  0
 24 25  1  0
 26 24  2  0
M  END
$$$$
