PKK.pdb
     RDKit          3D

 26 26  0  0  1  0  0  0  0  0999 V2000
    3.0063  -18.3268   22.2574 N   0  0  0  0  0  0  0  0  0  0  0  0
    1.8326  -19.1246   21.8734 C   0  0  0  0  0  0  0  0  0  0  0  0
    2.2676  -20.0252   20.7606 C   0  0  0  0  0  0  0  0  0  0  0  0
    3.7504  -19.7099   20.5859 C   0  0  0  0  0  0  0  0  0  0  0  0
    4.1221  -19.2510   21.9746 C   0  0  1  0  0  0  0  0  0  0  0  0
    5.4176  -18.5171   22.0273 C   0  0  0  0  0  0  0  0  0  0  0  0
    6.4867  -19.1601   21.9903 O   0  0  0  0  0  0  0  0  0  0  0  0
    5.4632  -17.1265   22.1185 N   0  0  0  0  0  0  0  0  0  0  0  0
    6.5874  -16.2516   21.9632 C   0  0  1  0  0  0  0  0  0  0  0  0
    6.3212  -14.8977   21.4432 C   0  0  0  0  0  0  0  0  0  0  0  0
    7.6288  -14.1684   21.1192 C   0  0  0  0  0  0  0  0  0  0  0  0
    7.5519  -13.7010   19.6879 C   0  0  0  0  0  0  0  0  0  0  0  0
    8.9021  -13.0890   19.2915 C   0  0  0  0  0  0  0  0  0  0  0  0
    8.7858  -12.7930   17.8631 N   0  0  0  0  0  0  0  0  0  0  0  0
    7.4161  -16.3259   23.1922 C   0  0  0  0  0  0  0  0  0  0  0  0
    6.8624  -16.2214   24.3106 O   0  0  0  0  0  0  0  0  0  0  0  0
    8.8114  -16.5030   23.1897 N   0  0  0  0  0  0  0  0  0  0  0  0
    9.5527  -16.7559   24.3937 C   0  0  1  0  0  0  0  0  0  0  0  0
   10.0042  -18.1935   24.5582 C   0  0  0  0  0  0  0  0  0  0  0  0
   10.7502  -18.3751   25.8370 C   0  0  0  0  0  0  0  0  0  0  0  0
   11.2864  -19.7462   26.0088 C   0  0  0  0  0  0  0  0  0  0  0  0
   11.9271  -20.0999   27.2998 C   0  0  0  0  0  0  0  0  0  0  0  0
   12.2195  -21.4935   27.4903 N   0  0  0  0  0  0  0  0  0  0  0  0
   10.7629  -15.8516   24.3949 C   0  0  0  0  0  0  0  0  0  0  0  0
   11.6876  -15.8764   23.3604 O   0  0  0  0  0  0  0  0  0  0  0  0
   10.9708  -15.0511   25.3277 O   0  0  0  0  0  0  0  0  0  0  0  0
  1  2  1  0
  3  2  1  0
  4  5  1  0
  4  3  1  0
  5  1  1  0
  6  8  1  0
  5  6  1  6
  7  6  2  0
  9 15  1  0
  9  8  1  0
  9 10  1  1
 11 10  1  0
 12 11  1  0
 13 12  1  0
 14 13  1  0
 15 17  1  0
 16 15  2  0
 17 18  1  0
 18 24  1  0
 18 19  1  6
 20 19  1  0
 21 20  1  0
 22 21  1  0
 23 22  1  0
 24 25  1  0
 26 24  2  0
M  END
$$$$
