PKK.pdb
     RDKit          3D

 26 26  0  0  1  0  0  0  0  0999 V2000
    8.1843  -14.9206   18.3829 N   0  0  0  0  0  0  0  0  0  0  0  0
    8.2804  -14.1346   17.1440 C   0  0  0  0  0  0  0  0  0  0  0  0
    7.8179  -12.7504   17.4735 C   0  0  0  0  0  0  0  0  0  0  0  0
    7.5060  -12.8087   18.9662 C   0  0  0  0  0  0  0  0  0  0  0  0
    8.4390  -13.9036   19.4221 C   0  0  1  0  0  0  0  0  0  0  0  0
    8.0968  -14.4504   20.7650 C   0  0  0  0  0  0  0  0  0  0  0  0
    8.1066  -13.6908   21.7553 O   0  0  0  0  0  0  0  0  0  0  0  0
    7.7664  -15.7935   20.9414 N   0  0  0  0  0  0  0  0  0  0  0  0
    7.2847  -16.4538   22.1183 C   0  0  1  0  0  0  0  0  0  0  0  0
    6.5882  -17.7402   21.9322 C   0  0  0  0  0  0  0  0  0  0  0  0
    5.0920  -17.5224   21.6858 C   0  0  0  0  0  0  0  0  0  0  0  0
    4.4755  -18.8651   21.3854 C   0  0  0  0  0  0  0  0  0  0  0  0
    2.9740  -18.6769   21.1307 C   0  0  0  0  0  0  0  0  0  0  0  0
    2.4687  -20.0113   20.8058 N   0  0  0  0  0  0  0  0  0  0  0  0
    8.3593  -16.4374   23.1418 C   0  0  0  0  0  0  0  0  0  0  0  0
    9.5479  -16.6023   22.7835 O   0  0  0  0  0  0  0  0  0  0  0  0
    8.1318  -16.2517   24.5173 N   0  0  0  0  0  0  0  0  0  0  0  0
    9.2075  -16.1423   25.4628 C   0  0  1  0  0  0  0  0  0  0  0  0
    8.8752  -15.3235   26.6943 C   0  0  0  0  0  0  0  0  0  0  0  0
   10.0330  -15.2787   27.6334 C   0  0  0  0  0  0  0  0  0  0  0  0
    9.7671  -14.4719   28.8481 C   0  0  0  0  0  0  0  0  0  0  0  0
   10.8401  -14.3482   29.8656 C   0  0  0  0  0  0  0  0  0  0  0  0
   10.5096  -13.5748   31.0303 N   0  0  0  0  0  0  0  0  0  0  0  0
    9.6006  -17.5384   25.8855 C   0  0  0  0  0  0  0  0  0  0  0  0
   10.9114  -17.8546   26.2140 O   0  0  0  0  0  0  0  0  0  0  0  0
    8.7580  -18.4546   25.9535 O   0  0  0  0  0  0  0  0  0  0  0  0
  1  2  1  0
  3  2  1  0
  4  5  1  0
  4  3  1  0
  5  1  1  0
  6  8  1  0
  5  6  1  1
  7  6  2  0
  9 15  1  0
  9  8  1  0
  9 10  1  6
 11 10  1  0
 12 11  1  0
 13 12  1  0
 14 13  1  0
 15 17  1  0
 16 15  2  0
 17 18  1  0
 18 24  1  0
 18 19  1  1
 20 19  1  0
 21 20  1  0
 22 21  1  0
 23 22  1  0
 24 25  1  0
 26 24  2  0
M  END
$$$$
