PKK.pdb
     RDKit          3D

 26 26  0  0  1  0  0  0  0  0999 V2000
    8.6336  -14.7445   18.4679 N   0  0  0  0  0  0  0  0  0  0  0  0
    8.5535  -13.8503   17.3036 C   0  0  0  0  0  0  0  0  0  0  0  0
    7.7478  -12.6623   17.7258 C   0  0  0  0  0  0  0  0  0  0  0  0
    7.4291  -12.9325   19.1935 C   0  0  0  0  0  0  0  0  0  0  0  0
    8.5995  -13.7950   19.5977 C   0  0  1  0  0  0  0  0  0  0  0  0
    8.3786  -14.5301   20.8747 C   0  0  0  0  0  0  0  0  0  0  0  0
    8.1511  -13.8863   21.9194 O   0  0  0  0  0  0  0  0  0  0  0  0
    8.4214  -15.9226   20.9297 N   0  0  0  0  0  0  0  0  0  0  0  0
    8.1744  -16.7864   22.0460 C   0  0  1  0  0  0  0  0  0  0  0  0
    7.9216  -18.2095   21.7542 C   0  0  0  0  0  0  0  0  0  0  0  0
    6.5007  -18.4151   21.2198 C   0  0  0  0  0  0  0  0  0  0  0  0
    6.3540  -19.8698   20.8520 C   0  0  0  0  0  0  0  0  0  0  0  0
    6.2651  -20.7014   22.1386 C   0  0  0  0  0  0  0  0  0  0  0  0
    5.9398  -22.0584   21.6980 N   0  0  0  0  0  0  0  0  0  0  0  0
    9.1888  -16.5065   23.0926 C   0  0  0  0  0  0  0  0  0  0  0  0
   10.3465  -16.1748   22.7492 O   0  0  0  0  0  0  0  0  0  0  0  0
    8.9382  -16.5954   24.4737 N   0  0  0  0  0  0  0  0  0  0  0  0
    9.9262  -16.2426   25.4549 C   0  0  1  0  0  0  0  0  0  0  0  0
    9.3720  -15.5207   26.6670 C   0  0  0  0  0  0  0  0  0  0  0  0
   10.4463  -15.2551   27.6669 C   0  0  0  0  0  0  0  0  0  0  0  0
    9.9521  -14.5698   28.8847 C   0  0  0  0  0  0  0  0  0  0  0  0
   10.9218  -14.2531   29.9625 C   0  0  0  0  0  0  0  0  0  0  0  0
   10.4017  -13.4970   31.0677 N   0  0  0  0  0  0  0  0  0  0  0  0
   10.6124  -17.5117   25.9029 C   0  0  0  0  0  0  0  0  0  0  0  0
    9.9036  -18.6881   26.1011 O   0  0  0  0  0  0  0  0  0  0  0  0
   11.8414  -17.5436   26.1096 O   0  0  0  0  0  0  0  0  0  0  0  0
  1  2  1  0
  3  2  1  0
  4  5  1  0
  4  3  1  0
  5  1  1  0
  6  8  1  0
  5  6  1  1
  7  6  2  0
  9 15  1  0
  9  8  1  0
  9 10  1  6
 11 10  1  0
 12 11  1  0
 13 12  1  0
 14 13  1  0
 15 17  1  0
 16 15  2  0
 17 18  1  0
 18 24  1  0
 18 19  1  1
 20 19  1  0
 21 20  1  0
 22 21  1  0
 23 22  1  0
 24 25  1  0
 26 24  2  0
M  END
$$$$
