PKK.pdb
     RDKit          3D

 26 26  0  0  1  0  0  0  0  0999 V2000
    7.6258  -15.1829   19.3753 N   0  0  0  0  0  0  0  0  0  0  0  0
    7.3422  -14.7643   17.9948 C   0  0  0  0  0  0  0  0  0  0  0  0
    7.7370  -13.3250   17.8899 C   0  0  0  0  0  0  0  0  0  0  0  0
    8.2921  -12.9907   19.2715 C   0  0  0  0  0  0  0  0  0  0  0  0
    8.7863  -14.3415   19.7279 C   0  0  1  0  0  0  0  0  0  0  0  0
    9.0410  -14.4131   21.1941 C   0  0  0  0  0  0  0  0  0  0  0  0
   10.2119  -14.5448   21.6057 O   0  0  0  0  0  0  0  0  0  0  0  0
    7.9998  -14.3373   22.1183 N   0  0  0  0  0  0  0  0  0  0  0  0
    8.0658  -14.0983   23.5296 C   0  0  1  0  0  0  0  0  0  0  0  0
    6.9916  -13.2831   24.1262 C   0  0  0  0  0  0  0  0  0  0  0  0
    7.2353  -13.0665   25.6230 C   0  0  0  0  0  0  0  0  0  0  0  0
    6.1180  -12.2024   26.1503 C   0  0  0  0  0  0  0  0  0  0  0  0
    6.3239  -11.9874   27.6557 C   0  0  0  0  0  0  0  0  0  0  0  0
    5.2061  -11.1437   28.0802 N   0  0  0  0  0  0  0  0  0  0  0  0
    8.3644  -15.3820   24.2120 C   0  0  0  0  0  0  0  0  0  0  0  0
    7.5022  -16.2902   24.2112 O   0  0  0  0  0  0  0  0  0  0  0  0
    9.5718  -15.6547   24.8798 N   0  0  0  0  0  0  0  0  0  0  0  0
    9.8747  -16.9536   25.4131 C   0  0  1  0  0  0  0  0  0  0  0  0
   11.1726  -17.5496   24.9052 C   0  0  0  0  0  0  0  0  0  0  0  0
   11.4721  -18.8391   25.5922 C   0  0  0  0  0  0  0  0  0  0  0  0
   12.7682  -19.4301   25.1825 C   0  0  0  0  0  0  0  0  0  0  0  0
   13.1853  -20.7164   25.7936 C   0  0  0  0  0  0  0  0  0  0  0  0
   14.3312  -21.3472   25.1996 N   0  0  0  0  0  0  0  0  0  0  0  0
    9.9368  -16.8370   26.9180 C   0  0  0  0  0  0  0  0  0  0  0  0
    9.6982  -17.9291   27.7403 O   0  0  0  0  0  0  0  0  0  0  0  0
   10.2053  -15.7529   27.4718 O   0  0  0  0  0  0  0  0  0  0  0  0
  1  2  1  0
  3  2  1  0
  4  5  1  0
  4  3  1  0
  5  1  1  0
  6  8  1  0
  5  6  1  1
  7  6  2  0
  9 15  1  0
  9  8  1  0
  9 10  1  1
 11 10  1  0
 12 11  1  0
 13 12  1  0
 14 13  1  0
 15 17  1  0
 16 15  2  0
 17 18  1  0
 18 24  1  0
 18 19  1  6
 20 19  1  0
 21 20  1  0
 22 21  1  0
 23 22  1  0
 24 25  1  0
 26 24  2  0
M  END
$$$$
