PKK.pdb
     RDKit          3D

 26 26  0  0  1  0  0  0  0  0999 V2000
    8.9470  -15.4408   18.3058 N   0  0  0  0  0  0  0  0  0  0  0  0
    9.2108  -14.7583   17.0305 C   0  0  0  0  0  0  0  0  0  0  0  0
    8.4333  -13.4803   17.0555 C   0  0  0  0  0  0  0  0  0  0  0  0
    7.7661  -13.4784   18.4279 C   0  0  0  0  0  0  0  0  0  0  0  0
    8.7361  -14.3099   19.2309 C   0  0  1  0  0  0  0  0  0  0  0  0
    8.1681  -14.8028   20.5170 C   0  0  0  0  0  0  0  0  0  0  0  0
    7.8204  -13.9788   21.3877 O   0  0  0  0  0  0  0  0  0  0  0  0
    8.0167  -16.1653   20.7712 N   0  0  0  0  0  0  0  0  0  0  0  0
    7.4590  -16.8084   21.9239 C   0  0  1  0  0  0  0  0  0  0  0  0
    7.5520  -18.2788   21.9866 C   0  0  0  0  0  0  0  0  0  0  0  0
    6.8818  -18.8165   23.2548 C   0  0  0  0  0  0  0  0  0  0  0  0
    6.9779  -20.3207   23.2229 C   0  0  0  0  0  0  0  0  0  0  0  0
    6.2197  -20.8930   24.4281 C   0  0  0  0  0  0  0  0  0  0  0  0
    6.3359  -22.3462   24.3011 N   0  0  0  0  0  0  0  0  0  0  0  0
    7.9048  -16.0756   23.1350 C   0  0  0  0  0  0  0  0  0  0  0  0
    9.1274  -16.0198   23.4007 O   0  0  0  0  0  0  0  0  0  0  0  0
    7.0316  -15.4300   24.0288 N   0  0  0  0  0  0  0  0  0  0  0  0
    7.5012  -14.5097   25.0268 C   0  0  1  0  0  0  0  0  0  0  0  0
    6.4458  -13.5472   25.5340 C   0  0  0  0  0  0  0  0  0  0  0  0
    7.0245  -12.5954   26.5257 C   0  0  0  0  0  0  0  0  0  0  0  0
    6.0432  -11.6002   27.0194 C   0  0  0  0  0  0  0  0  0  0  0  0
    6.5151  -10.5357   27.9392 C   0  0  0  0  0  0  0  0  0  0  0  0
    5.5015   -9.6500   28.4412 N   0  0  0  0  0  0  0  0  0  0  0  0
    8.0389  -15.3142   26.1869 C   0  0  0  0  0  0  0  0  0  0  0  0
    7.5916  -16.6022   26.4453 O   0  0  0  0  0  0  0  0  0  0  0  0
    8.9047  -14.8460   26.9519 O   0  0  0  0  0  0  0  0  0  0  0  0
  1  2  1  0
  3  2  1  0
  4  5  1  0
  4  3  1  0
  5  1  1  0
  6  8  1  0
  5  6  1  1
  7  6  2  0
  9 15  1  0
  9  8  1  0
  9 10  1  1
 11 10  1  0
 12 11  1  0
 13 12  1  0
 14 13  1  0
 15 17  1  0
 16 15  2  0
 17 18  1  0
 18 24  1  0
 18 19  1  1
 20 19  1  0
 21 20  1  0
 22 21  1  0
 23 22  1  0
 24 25  1  0
 26 24  2  0
M  END
$$$$
