PKK.pdb
     RDKit          3D

 26 26  0  0  1  0  0  0  0  0999 V2000
    7.4361  -15.0226   19.3610 N   0  0  0  0  0  0  0  0  0  0  0  0
    7.1057  -14.6952   17.9663 C   0  0  0  0  0  0  0  0  0  0  0  0
    7.7326  -13.3686   17.6737 C   0  0  0  0  0  0  0  0  0  0  0  0
    8.4597  -13.0085   18.9661 C   0  0  0  0  0  0  0  0  0  0  0  0
    8.7519  -14.3759   19.5336 C   0  0  1  0  0  0  0  0  0  0  0  0
    9.1218  -14.3502   20.9765 C   0  0  0  0  0  0  0  0  0  0  0  0
   10.3143  -14.1721   21.2991 O   0  0  0  0  0  0  0  0  0  0  0  0
    8.1652  -14.5219   21.9763 N   0  0  0  0  0  0  0  0  0  0  0  0
    8.2870  -14.2944   23.3858 C   0  0  1  0  0  0  0  0  0  0  0  0
    7.2475  -13.4688   24.0278 C   0  0  0  0  0  0  0  0  0  0  0  0
    7.5644  -13.2435   25.5096 C   0  0  0  0  0  0  0  0  0  0  0  0
    6.4905  -12.3514   26.0787 C   0  0  0  0  0  0  0  0  0  0  0  0
    6.7639  -12.1355   27.5732 C   0  0  0  0  0  0  0  0  0  0  0  0
    5.6057  -11.3938   28.0730 N   0  0  0  0  0  0  0  0  0  0  0  0
    8.5925  -15.5873   24.0476 C   0  0  0  0  0  0  0  0  0  0  0  0
    7.7317  -16.4968   24.0399 O   0  0  0  0  0  0  0  0  0  0  0  0
    9.8050  -15.8675   24.7029 N   0  0  0  0  0  0  0  0  0  0  0  0
   10.1196  -17.1768   25.2031 C   0  0  1  0  0  0  0  0  0  0  0  0
   11.4815  -17.6941   24.7846 C   0  0  0  0  0  0  0  0  0  0  0  0
   11.7516  -19.0320   25.3859 C   0  0  0  0  0  0  0  0  0  0  0  0
   13.1959  -19.3571   25.4589 C   0  0  0  0  0  0  0  0  0  0  0  0
   13.5955  -20.7094   25.9211 C   0  0  0  0  0  0  0  0  0  0  0  0
   14.9758  -21.0544   25.7223 N   0  0  0  0  0  0  0  0  0  0  0  0
   10.0478  -17.1295   26.7113 C   0  0  0  0  0  0  0  0  0  0  0  0
    9.6556  -18.2345   27.4535 O   0  0  0  0  0  0  0  0  0  0  0  0
   10.3396  -16.0934   27.3402 O   0  0  0  0  0  0  0  0  0  0  0  0
  1  2  1  0
  3  2  1  0
  4  5  1  0
  4  3  1  0
  5  1  1  0
  6  8  1  0
  5  6  1  1
  7  6  2  0
  9 15  1  0
  9  8  1  0
  9 10  1  1
 11 10  1  0
 12 11  1  0
 13 12  1  0
 14 13  1  0
 15 17  1  0
 16 15  2  0
 17 18  1  0
 18 24  1  0
 18 19  1  1
 20 19  1  0
 21 20  1  0
 22 21  1  0
 23 22  1  0
 24 25  1  0
 26 24  2  0
M  END
$$$$
