PKK.pdb
     RDKit          3D

 26 26  0  0  1  0  0  0  0  0999 V2000
    8.1357  -19.9595   19.9143 N   0  0  0  0  0  0  0  0  0  0  0  0
    7.3782  -20.7468   18.9304 C   0  0  0  0  0  0  0  0  0  0  0  0
    7.2213  -19.8860   17.7168 C   0  0  0  0  0  0  0  0  0  0  0  0
    7.9701  -18.6045   18.0713 C   0  0  0  0  0  0  0  0  0  0  0  0
    8.9926  -19.1200   19.0541 C   0  0  1  0  0  0  0  0  0  0  0  0
    9.6291  -18.0436   19.8639 C   0  0  0  0  0  0  0  0  0  0  0  0
   10.8740  -17.9744   19.9187 O   0  0  0  0  0  0  0  0  0  0  0  0
    8.8647  -17.1110   20.5640 N   0  0  0  0  0  0  0  0  0  0  0  0
    9.2943  -15.9256   21.2449 C   0  0  1  0  0  0  0  0  0  0  0  0
    8.3437  -14.7998   21.3034 C   0  0  0  0  0  0  0  0  0  0  0  0
    8.4566  -13.9219   20.0531 C   0  0  0  0  0  0  0  0  0  0  0  0
    7.2717  -12.9899   20.0374 C   0  0  0  0  0  0  0  0  0  0  0  0
    7.3522  -12.1043   18.7869 C   0  0  0  0  0  0  0  0  0  0  0  0
    6.9254  -12.9614   17.6802 N   0  0  0  0  0  0  0  0  0  0  0  0
    9.9158  -16.3207   22.5334 C   0  0  0  0  0  0  0  0  0  0  0  0
    9.1799  -16.6380   23.4957 O   0  0  0  0  0  0  0  0  0  0  0  0
   11.3038  -16.3590   22.7573 N   0  0  0  0  0  0  0  0  0  0  0  0
   11.8735  -16.9654   23.9282 C   0  0  1  0  0  0  0  0  0  0  0  0
   12.1018  -18.4592   23.8091 C   0  0  0  0  0  0  0  0  0  0  0  0
   12.6446  -19.0187   25.0806 C   0  0  0  0  0  0  0  0  0  0  0  0
   12.9196  -20.4733   25.0064 C   0  0  0  0  0  0  0  0  0  0  0  0
   13.3776  -21.1715   26.2332 C   0  0  0  0  0  0  0  0  0  0  0  0
   13.4756  -22.6015   26.1378 N   0  0  0  0  0  0  0  0  0  0  0  0
   13.1906  -16.2825   24.2132 C   0  0  0  0  0  0  0  0  0  0  0  0
   13.8187  -16.4038   25.4447 O   0  0  0  0  0  0  0  0  0  0  0  0
   13.7580  -15.5861   23.3488 O   0  0  0  0  0  0  0  0  0  0  0  0
  1  2  1  0
  3  2  1  0
  4  5  1  0
  4  3  1  0
  5  1  1  0
  6  8  1  0
  5  6  1  1
  7  6  2  0
  9 15  1  0
  9  8  1  0
  9 10  1  1
 11 10  1  0
 12 11  1  0
 13 12  1  0
 14 13  1  0
 15 17  1  0
 16 15  2  0
 17 18  1  0
 18 24  1  0
 18 19  1  6
 20 19  1  0
 21 20  1  0
 22 21  1  0
 23 22  1  0
 24 25  1  0
 26 24  2  0
M  END
$$$$
