PKK.pdb
     RDKit          3D

 26 26  0  0  1  0  0  0  0  0999 V2000
    9.2013  -19.3071   17.4371 N   0  0  0  0  0  0  0  0  0  0  0  0
    8.8664  -19.8041   16.0945 C   0  0  0  0  0  0  0  0  0  0  0  0
    9.4958  -18.8633   15.1161 C   0  0  0  0  0  0  0  0  0  0  0  0
   10.2289  -17.8519   15.9926 C   0  0  0  0  0  0  0  0  0  0  0  0
   10.5195  -18.6787   17.2210 C   0  0  1  0  0  0  0  0  0  0  0  0
   10.8951  -17.8610   18.4084 C   0  0  0  0  0  0  0  0  0  0  0  0
   12.0297  -17.3437   18.4606 O   0  0  0  0  0  0  0  0  0  0  0  0
   10.0073  -17.6611   19.4648 N   0  0  0  0  0  0  0  0  0  0  0  0
   10.1424  -16.8000   20.6021 C   0  0  1  0  0  0  0  0  0  0  0  0
    9.0352  -15.8649   20.8749 C   0  0  0  0  0  0  0  0  0  0  0  0
    8.9837  -14.7545   19.8208 C   0  0  0  0  0  0  0  0  0  0  0  0
    7.7677  -13.9091   20.1030 C   0  0  0  0  0  0  0  0  0  0  0  0
    7.6411  -12.8397   19.0098 C   0  0  0  0  0  0  0  0  0  0  0  0
    6.4301  -12.0892   19.3441 N   0  0  0  0  0  0  0  0  0  0  0  0
   10.6093  -17.6102   21.7545 C   0  0  0  0  0  0  0  0  0  0  0  0
    9.9426  -18.6089   22.1103 O   0  0  0  0  0  0  0  0  0  0  0  0
   11.7702  -17.3260   22.4960 N   0  0  0  0  0  0  0  0  0  0  0  0
   12.2587  -18.2069   23.5201 C   0  0  1  0  0  0  0  0  0  0  0  0
   13.7127  -18.6043   23.3600 C   0  0  0  0  0  0  0  0  0  0  0  0
   14.1458  -19.5010   24.4704 C   0  0  0  0  0  0  0  0  0  0  0  0
   15.5538  -19.9465   24.3439 C   0  0  0  0  0  0  0  0  0  0  0  0
   16.0871  -20.9032   25.3450 C   0  0  0  0  0  0  0  0  0  0  0  0
   17.4914  -21.1900   25.2482 N   0  0  0  0  0  0  0  0  0  0  0  0
   12.0751  -17.5198   24.8529 C   0  0  0  0  0  0  0  0  0  0  0  0
   12.0188  -18.2395   26.0380 O   0  0  0  0  0  0  0  0  0  0  0  0
   11.9681  -16.2803   24.9318 O   0  0  0  0  0  0  0  0  0  0  0  0
  1  2  1  0
  3  2  1  0
  4  5  1  0
  4  3  1  0
  5  1  1  0
  6  8  1  0
  5  6  1  1
  7  6  2  0
  9 15  1  0
  9  8  1  0
  9 10  1  1
 11 10  1  0
 12 11  1  0
 13 12  1  0
 14 13  1  0
 15 17  1  0
 16 15  2  0
 17 18  1  0
 18 24  1  0
 18 19  1  6
 20 19  1  0
 21 20  1  0
 22 21  1  0
 23 22  1  0
 24 25  1  0
 26 24  2  0
M  END
$$$$
