PKK.pdb
     RDKit          3D

 26 26  0  0  1  0  0  0  0  0999 V2000
    8.2787  -14.9556   18.6407 N   0  0  0  0  0  0  0  0  0  0  0  0
    8.4180  -14.0596   17.4833 C   0  0  0  0  0  0  0  0  0  0  0  0
    7.8579  -12.7342   17.8932 C   0  0  0  0  0  0  0  0  0  0  0  0
    7.4459  -12.9391   19.3481 C   0  0  0  0  0  0  0  0  0  0  0  0
    8.4035  -14.0231   19.7782 C   0  0  1  0  0  0  0  0  0  0  0  0
    7.9986  -14.7024   21.0409 C   0  0  0  0  0  0  0  0  0  0  0  0
    8.0010  -14.0582   22.1099 O   0  0  0  0  0  0  0  0  0  0  0  0
    7.6174  -16.0435   21.0560 N   0  0  0  0  0  0  0  0  0  0  0  0
    7.0484  -16.8045   22.1285 C   0  0  1  0  0  0  0  0  0  0  0  0
    6.3696  -18.0649   21.7747 C   0  0  0  0  0  0  0  0  0  0  0  0
    5.9059  -18.8088   23.0311 C   0  0  0  0  0  0  0  0  0  0  0  0
    5.2832  -20.1095   22.5915 C   0  0  0  0  0  0  0  0  0  0  0  0
    4.6361  -20.7868   23.8070 C   0  0  0  0  0  0  0  0  0  0  0  0
    4.0820  -22.0420   23.2983 N   0  0  0  0  0  0  0  0  0  0  0  0
    8.0421  -16.8864   23.2279 C   0  0  0  0  0  0  0  0  0  0  0  0
    9.2050  -17.2753   22.9735 O   0  0  0  0  0  0  0  0  0  0  0  0
    7.7623  -16.5568   24.5662 N   0  0  0  0  0  0  0  0  0  0  0  0
    8.7758  -16.5649   25.5841 C   0  0  1  0  0  0  0  0  0  0  0  0
    8.6232  -15.4741   26.6254 C   0  0  0  0  0  0  0  0  0  0  0  0
    9.7110  -15.5520   27.6427 C   0  0  0  0  0  0  0  0  0  0  0  0
    9.5949  -14.5197   28.7001 C   0  0  0  0  0  0  0  0  0  0  0  0
   10.6581  -14.4397   29.7322 C   0  0  0  0  0  0  0  0  0  0  0  0
   10.4544  -13.4605   30.7635 N   0  0  0  0  0  0  0  0  0  0  0  0
    8.7404  -17.9121   26.2668 C   0  0  0  0  0  0  0  0  0  0  0  0
    9.8987  -18.5229   26.7261 O   0  0  0  0  0  0  0  0  0  0  0  0
    7.6663  -18.5207   26.4405 O   0  0  0  0  0  0  0  0  0  0  0  0
  1  2  1  0
  3  2  1  0
  4  5  1  0
  4  3  1  0
  5  1  1  0
  6  8  1  0
  5  6  1  1
  7  6  2  0
  9 15  1  0
  9  8  1  0
  9 10  1  6
 11 10  1  0
 12 11  1  0
 13 12  1  0
 14 13  1  0
 15 17  1  0
 16 15  2  0
 17 18  1  0
 18 24  1  0
 18 19  1  1
 20 19  1  0
 21 20  1  0
 22 21  1  0
 23 22  1  0
 24 25  1  0
 26 24  2  0
M  END
$$$$
