PKK.pdb
     RDKit          3D

 26 26  0  0  1  0  0  0  0  0999 V2000
    8.3845  -14.9557   18.5846 N   0  0  0  0  0  0  0  0  0  0  0  0
    8.4577  -14.0339   17.4416 C   0  0  0  0  0  0  0  0  0  0  0  0
    7.8259  -12.7506   17.8803 C   0  0  0  0  0  0  0  0  0  0  0  0
    7.4435  -13.0036   19.3357 C   0  0  0  0  0  0  0  0  0  0  0  0
    8.4678  -14.0367   19.7368 C   0  0  1  0  0  0  0  0  0  0  0  0
    8.1180  -14.7595   20.9917 C   0  0  0  0  0  0  0  0  0  0  0  0
    8.0741  -14.1297   22.0683 O   0  0  0  0  0  0  0  0  0  0  0  0
    7.8391  -16.1257   20.9912 N   0  0  0  0  0  0  0  0  0  0  0  0
    7.4406  -16.9624   22.0840 C   0  0  1  0  0  0  0  0  0  0  0  0
    6.9541  -18.3150   21.7548 C   0  0  0  0  0  0  0  0  0  0  0  0
    6.5542  -19.0768   23.0223 C   0  0  0  0  0  0  0  0  0  0  0  0
    6.0349  -20.4282   22.6016 C   0  0  0  0  0  0  0  0  0  0  0  0
    5.6163  -21.2116   23.8530 C   0  0  0  0  0  0  0  0  0  0  0  0
    5.0854  -22.4803   23.3530 N   0  0  0  0  0  0  0  0  0  0  0  0
    8.4787  -16.8833   23.1417 C   0  0  0  0  0  0  0  0  0  0  0  0
    9.6769  -17.0862   22.8392 O   0  0  0  0  0  0  0  0  0  0  0  0
    8.2054  -16.5963   24.4911 N   0  0  0  0  0  0  0  0  0  0  0  0
    9.2489  -16.4176   25.4619 C   0  0  1  0  0  0  0  0  0  0  0  0
    8.9332  -15.3964   26.5366 C   0  0  0  0  0  0  0  0  0  0  0  0
   10.0108  -15.3561   27.5671 C   0  0  0  0  0  0  0  0  0  0  0  0
    9.7212  -14.4169   28.6765 C   0  0  0  0  0  0  0  0  0  0  0  0
   10.7119  -14.2893   29.7739 C   0  0  0  0  0  0  0  0  0  0  0  0
   10.4145  -13.2991   30.7714 N   0  0  0  0  0  0  0  0  0  0  0  0
    9.5164  -17.7554   26.1107 C   0  0  0  0  0  0  0  0  0  0  0  0
   10.7858  -18.1094   26.5457 O   0  0  0  0  0  0  0  0  0  0  0  0
    8.6030  -18.5872   26.2773 O   0  0  0  0  0  0  0  0  0  0  0  0
  1  2  1  0
  3  2  1  0
  4  5  1  0
  4  3  1  0
  5  1  1  0
  6  8  1  0
  5  6  1  1
  7  6  2  0
  9 15  1  0
  9  8  1  0
  9 10  1  6
 11 10  1  0
 12 11  1  0
 13 12  1  0
 14 13  1  0
 15 17  1  0
 16 15  2  0
 17 18  1  0
 18 24  1  0
 18 19  1  1
 20 19  1  0
 21 20  1  0
 22 21  1  0
 23 22  1  0
 24 25  1  0
 26 24  2  0
M  END
$$$$
