PKK.pdb
     RDKit          3D

 26 26  0  0  1  0  0  0  0  0999 V2000
    7.3425  -15.0280   19.3744 N   0  0  0  0  0  0  0  0  0  0  0  0
    7.0744  -14.7235   17.9612 C   0  0  0  0  0  0  0  0  0  0  0  0
    7.7913  -13.4476   17.6506 C   0  0  0  0  0  0  0  0  0  0  0  0
    8.5011  -13.0937   18.9543 C   0  0  0  0  0  0  0  0  0  0  0  0
    8.6905  -14.4586   19.5694 C   0  0  1  0  0  0  0  0  0  0  0  0
    9.0187  -14.4118   21.0219 C   0  0  0  0  0  0  0  0  0  0  0  0
   10.2052  -14.2552   21.3761 O   0  0  0  0  0  0  0  0  0  0  0  0
    8.0295  -14.5402   21.9962 N   0  0  0  0  0  0  0  0  0  0  0  0
    8.1211  -14.3064   23.4069 C   0  0  1  0  0  0  0  0  0  0  0  0
    7.0105  -13.5735   24.0424 C   0  0  0  0  0  0  0  0  0  0  0  0
    7.3107  -13.2967   25.5189 C   0  0  0  0  0  0  0  0  0  0  0  0
    6.1698  -12.4830   26.0750 C   0  0  0  0  0  0  0  0  0  0  0  0
    6.4468  -12.1848   27.5546 C   0  0  0  0  0  0  0  0  0  0  0  0
    5.2832  -11.4287   28.0191 N   0  0  0  0  0  0  0  0  0  0  0  0
    8.5305  -15.5701   24.0688 C   0  0  0  0  0  0  0  0  0  0  0  0
    7.7224  -16.5257   24.1159 O   0  0  0  0  0  0  0  0  0  0  0  0
    9.7877  -15.7731   24.6659 N   0  0  0  0  0  0  0  0  0  0  0  0
   10.1788  -17.0423   25.2132 C   0  0  1  0  0  0  0  0  0  0  0  0
   11.6448  -17.3781   25.0246 C   0  0  0  0  0  0  0  0  0  0  0  0
   11.9542  -18.7354   25.5600 C   0  0  0  0  0  0  0  0  0  0  0  0
   13.3867  -19.0965   25.4397 C   0  0  0  0  0  0  0  0  0  0  0  0
   13.8055  -20.4694   25.8162 C   0  0  0  0  0  0  0  0  0  0  0  0
   15.1585  -20.8219   25.4861 N   0  0  0  0  0  0  0  0  0  0  0  0
    9.8570  -17.0327   26.6892 C   0  0  0  0  0  0  0  0  0  0  0  0
    9.5319  -18.1987   27.3680 O   0  0  0  0  0  0  0  0  0  0  0  0
    9.8734  -15.9743   27.3475 O   0  0  0  0  0  0  0  0  0  0  0  0
  1  2  1  0
  3  2  1  0
  4  5  1  0
  4  3  1  0
  5  1  1  0
  6  8  1  0
  5  6  1  1
  7  6  2  0
  9 15  1  0
  9  8  1  0
  9 10  1  1
 11 10  1  0
 12 11  1  0
 13 12  1  0
 14 13  1  0
 15 17  1  0
 16 15  2  0
 17 18  1  0
 18 24  1  0
 18 19  1  1
 20 19  1  0
 21 20  1  0
 22 21  1  0
 23 22  1  0
 24 25  1  0
 26 24  2  0
M  END
$$$$
