PKK.pdb
     RDKit          3D

 26 26  0  0  1  0  0  0  0  0999 V2000
    7.7177  -15.3047   19.4303 N   0  0  0  0  0  0  0  0  0  0  0  0
    7.4285  -15.0974   18.0037 C   0  0  0  0  0  0  0  0  0  0  0  0
    7.8275  -13.6918   17.6818 C   0  0  0  0  0  0  0  0  0  0  0  0
    8.3906  -13.1558   18.9949 C   0  0  0  0  0  0  0  0  0  0  0  0
    8.8827  -14.4245   19.6470 C   0  0  1  0  0  0  0  0  0  0  0  0
    9.1446  -14.2758   21.1061 C   0  0  0  0  0  0  0  0  0  0  0  0
   10.0810  -13.5442   21.4879 O   0  0  0  0  0  0  0  0  0  0  0  0
    8.3673  -14.9369   22.0563 N   0  0  0  0  0  0  0  0  0  0  0  0
    8.2696  -14.6938   23.4650 C   0  0  1  0  0  0  0  0  0  0  0  0
    7.0997  -13.9308   23.9379 C   0  0  0  0  0  0  0  0  0  0  0  0
    7.2015  -13.6468   25.4398 C   0  0  0  0  0  0  0  0  0  0  0  0
    6.2819  -12.4938   25.7529 C   0  0  0  0  0  0  0  0  0  0  0  0
    6.3765  -12.1751   27.2510 C   0  0  0  0  0  0  0  0  0  0  0  0
    5.4106  -11.0993   27.4772 N   0  0  0  0  0  0  0  0  0  0  0  0
    8.5542  -15.9610   24.1833 C   0  0  0  0  0  0  0  0  0  0  0  0
    7.9619  -17.0079   23.8348 O   0  0  0  0  0  0  0  0  0  0  0  0
    9.4575  -16.0706   25.2557 N   0  0  0  0  0  0  0  0  0  0  0  0
    9.6954  -17.3157   25.9315 C   0  0  1  0  0  0  0  0  0  0  0  0
   10.7376  -17.2405   27.0295 C   0  0  0  0  0  0  0  0  0  0  0  0
   10.9687  -18.5825   27.6381 C   0  0  0  0  0  0  0  0  0  0  0  0
   12.0525  -18.5847   28.6492 C   0  0  0  0  0  0  0  0  0  0  0  0
   12.4745  -19.8822   29.2329 C   0  0  0  0  0  0  0  0  0  0  0  0
   13.6083  -19.8311   30.1136 N   0  0  0  0  0  0  0  0  0  0  0  0
    8.3856  -17.7842   26.5206 C   0  0  0  0  0  0  0  0  0  0  0  0
    7.4082  -16.8847   26.9222 O   0  0  0  0  0  0  0  0  0  0  0  0
    8.1393  -18.9976   26.6654 O   0  0  0  0  0  0  0  0  0  0  0  0
  1  2  1  0
  3  2  1  0
  4  5  1  0
  4  3  1  0
  5  1  1  0
  6  8  1  0
  5  6  1  1
  7  6  2  0
  9 15  1  0
  9  8  1  0
  9 10  1  6
 11 10  1  0
 12 11  1  0
 13 12  1  0
 14 13  1  0
 15 17  1  0
 16 15  2  0
 17 18  1  0
 18 24  1  0
 18 19  1  1
 20 19  1  0
 21 20  1  0
 22 21  1  0
 23 22  1  0
 24 25  1  0
 26 24  2  0
M  END
$$$$
