LPI.pdb
     RDKit          3D

 24 24  0  0  1  0  0  0  0  0999 V2000
   13.4248  -10.2478  -17.0245 C   0  0  0  0  0  0  0  0  0  0  0  0
   14.3664  -10.8874  -16.0552 C   0  0  2  0  0  0  0  0  0  0  0  0
   13.6289  -11.1038  -14.7502 C   0  0  0  0  0  0  0  0  0  0  0  0
   15.5768  -10.0565  -15.7603 C   0  0  0  0  0  0  0  0  0  0  0  0
   16.6793  -10.2564  -16.7896 C   0  0  2  0  0  0  0  0  0  0  0  0
   16.7932  -11.6146  -17.1273 N   0  0  0  0  0  0  0  0  0  0  0  0
   17.8811   -9.4978  -16.4376 C   0  0  0  0  0  0  0  0  0  0  0  0
   18.5029  -10.0031  -15.4211 O   0  0  0  0  0  0  0  0  0  0  0  0
   18.4329   -8.3584  -17.0121 N   0  0  0  0  0  0  0  0  0  0  0  0
   18.3794   -8.0566  -18.4728 C   0  0  0  0  0  0  0  0  0  0  0  0
   17.8800   -6.6208  -18.4275 C   0  0  0  0  0  0  0  0  0  0  0  0
   18.1831   -6.1046  -17.0373 C   0  0  0  0  0  0  0  0  0  0  0  0
   19.1620   -7.2118  -16.5503 C   0  0  1  0  0  0  0  0  0  0  0  0
   19.4826   -7.0228  -15.1757 C   0  0  0  0  0  0  0  0  0  0  0  0
   18.7035   -6.9128  -14.2266 O   0  0  0  0  0  0  0  0  0  0  0  0
   22.7038   -9.3979  -10.9377 C   0  0  0  0  0  0  0  0  0  0  0  0
   22.2668   -8.0678  -11.4569 C   0  0  0  0  0  0  0  0  0  0  0  0
   21.8013   -8.0627  -12.8544 C   0  0  2  0  0  0  0  0  0  0  0  0
   22.8710   -8.7254  -13.7370 C   0  0  0  0  0  0  0  0  0  0  0  0
   21.3143   -6.8084  -13.4585 C   0  0  2  0  0  0  0  0  0  0  0  0
   20.8885   -6.9489  -14.8348 N   0  0  0  0  0  0  0  0  0  0  0  0
   22.2991   -5.7196  -13.3638 C   0  0  0  0  0  0  0  0  0  0  0  0
   22.4782   -4.9298  -12.2233 O   0  0  0  0  0  0  0  0  0  0  0  0
   23.0482   -5.4568  -14.3710 O   0  0  0  0  0  0  0  0  0  0  0  0
  2  1  1  6
  2  3  1  0
  4  2  1  0
  5  6  1  1
  5  4  1  0
  5  7  1  0
  7  8  2  0
  9  7  1  0
  9 10  1  0
 11 10  1  0
 12 13  1  0
 12 11  1  0
 13  9  1  0
 13 14  1  1
 15 14  2  0
 17 16  1  0
 17 18  1  0
 18 20  1  0
 18 19  1  6
 20 22  1  0
 20 21  1  6
 21 14  1  0
 22 23  1  0
 24 22  2  0
M  END
$$$$
