LPI.pdb
     RDKit          3D

 24 24  0  0  1  0  0  0  0  0999 V2000
   24.7163  -20.9823  -18.5813 C   0  0  0  0  0  0  0  0  0  0  0  0
   25.2283  -22.3676  -18.3491 C   0  0  2  0  0  0  0  0  0  0  0  0
   24.0486  -23.3173  -18.3609 C   0  0  0  0  0  0  0  0  0  0  0  0
   25.9313  -22.5333  -17.0374 C   0  0  0  0  0  0  0  0  0  0  0  0
   27.1523  -21.6333  -16.9187 C   0  0  2  0  0  0  0  0  0  0  0  0
   28.1786  -22.0870  -17.7627 N   0  0  0  0  0  0  0  0  0  0  0  0
   27.4531  -21.3246  -15.5194 C   0  0  0  0  0  0  0  0  0  0  0  0
   27.7259  -22.3845  -14.8285 O   0  0  0  0  0  0  0  0  0  0  0  0
   27.4884  -20.1076  -14.8484 N   0  0  0  0  0  0  0  0  0  0  0  0
   28.1286  -18.8759  -15.3967 C   0  0  0  0  0  0  0  0  0  0  0  0
   27.0085  -17.8726  -15.1690 C   0  0  0  0  0  0  0  0  0  0  0  0
   26.1086  -18.4674  -14.1074 C   0  0  0  0  0  0  0  0  0  0  0  0
   27.0316  -19.6055  -13.5839 C   0  0  1  0  0  0  0  0  0  0  0  0
   26.3317  -20.4252  -12.6531 C   0  0  0  0  0  0  0  0  0  0  0  0
   25.6876  -21.4505  -12.8846 O   0  0  0  0  0  0  0  0  0  0  0  0
   27.3950  -19.4850   -7.1172 C   0  0  0  0  0  0  0  0  0  0  0  0
   27.1699  -20.2589   -8.3742 C   0  0  0  0  0  0  0  0  0  0  0  0
   25.7918  -20.2246   -8.8929 C   0  0  2  0  0  0  0  0  0  0  0  0
   24.8681  -20.9454   -7.8980 C   0  0  0  0  0  0  0  0  0  0  0  0
   25.5208  -20.6530  -10.2781 C   0  0  2  0  0  0  0  0  0  0  0  0
   26.3713  -20.0193  -11.2631 N   0  0  0  0  0  0  0  0  0  0  0  0
   24.1125  -20.4643  -10.6593 C   0  0  0  0  0  0  0  0  0  0  0  0
   23.1404  -21.4657  -10.5657 O   0  0  0  0  0  0  0  0  0  0  0  0
   23.7272  -19.3265  -11.1082 O   0  0  0  0  0  0  0  0  0  0  0  0
  2  1  1  1
  2  3  1  0
  4  2  1  0
  5  6  1  1
  5  4  1  0
  5  7  1  0
  7  8  2  0
  9  7  1  0
  9 10  1  0
 11 10  1  0
 12 13  1  0
 12 11  1  0
 13  9  1  0
 13 14  1  6
 15 14  2  0
 17 16  1  0
 17 18  1  0
 18 20  1  0
 18 19  1  1
 20 22  1  0
 20 21  1  6
 21 14  1  0
 22 23  1  0
 24 22  2  0
M  END
$$$$
