LPI.pdb
     RDKit          3D

 24 24  0  0  1  0  0  0  0  0999 V2000
   25.2874  -20.6289  -14.6184 C   0  0  0  0  0  0  0  0  0  0  0  0
   24.5214  -19.6237  -13.8197 C   0  0  2  0  0  0  0  0  0  0  0  0
   24.6976  -18.2674  -14.4700 C   0  0  0  0  0  0  0  0  0  0  0  0
   24.9838  -19.5100  -12.4000 C   0  0  0  0  0  0  0  0  0  0  0  0
   24.7888  -20.8039  -11.6237 C   0  0  2  0  0  0  0  0  0  0  0  0
   23.4306  -21.1589  -11.5973 N   0  0  0  0  0  0  0  0  0  0  0  0
   25.5569  -20.7986  -10.3771 C   0  0  0  0  0  0  0  0  0  0  0  0
   24.9623  -20.1404   -9.4346 O   0  0  0  0  0  0  0  0  0  0  0  0
   26.7837  -21.3746  -10.0674 N   0  0  0  0  0  0  0  0  0  0  0  0
   27.3476  -22.5590  -10.7792 C   0  0  0  0  0  0  0  0  0  0  0  0
   28.7495  -22.0476  -11.0729 C   0  0  0  0  0  0  0  0  0  0  0  0
   29.0034  -20.9116  -10.1055 C   0  0  0  0  0  0  0  0  0  0  0  0
   27.8284  -21.1414   -9.1115 C   0  0  1  0  0  0  0  0  0  0  0  0
   27.7635  -20.0801   -8.1642 C   0  0  0  0  0  0  0  0  0  0  0  0
   27.5481  -18.8858   -8.3814 O   0  0  0  0  0  0  0  0  0  0  0  0
   27.0626  -18.7077   -2.2984 C   0  0  0  0  0  0  0  0  0  0  0  0
   27.3475  -18.2643   -3.6955 C   0  0  0  0  0  0  0  0  0  0  0  0
   27.2363  -19.3153   -4.7215 C   0  0  2  0  0  0  0  0  0  0  0  0
   27.0337  -20.6704   -4.0251 C   0  0  0  0  0  0  0  0  0  0  0  0
   28.2538  -19.4096   -5.7851 C   0  0  2  0  0  0  0  0  0  0  0  0
   27.9733  -20.4288   -6.7740 N   0  0  0  0  0  0  0  0  0  0  0  0
   29.6091  -19.6124   -5.2499 C   0  0  0  0  0  0  0  0  0  0  0  0
   30.4112  -18.5804   -4.7519 O   0  0  0  0  0  0  0  0  0  0  0  0
   30.1090  -20.7932   -5.2287 O   0  0  0  0  0  0  0  0  0  0  0  0
  2  1  1  6
  2  3  1  0
  4  2  1  0
  5  6  1  1
  5  4  1  0
  5  7  1  0
  7  8  2  0
  9  7  1  0
  9 10  1  0
 11 10  1  0
 12 13  1  0
 12 11  1  0
 13  9  1  0
 13 14  1  6
 15 14  2  0
 17 16  1  0
 17 18  1  0
 18 20  1  0
 18 19  1  1
 20 22  1  0
 20 21  1  6
 21 14  1  0
 22 23  1  0
 24 22  2  0
M  END
$$$$
