LPI.pdb
     RDKit          3D

 24 24  0  0  1  0  0  0  0  0999 V2000
   24.0883  -21.4276   -9.6420 C   0  0  0  0  0  0  0  0  0  0  0  0
   25.5356  -21.0609   -9.5651 C   0  0  2  0  0  0  0  0  0  0  0  0
   25.7527  -20.2490   -8.3051 C   0  0  0  0  0  0  0  0  0  0  0  0
   26.0060  -20.2363  -10.7231 C   0  0  0  0  0  0  0  0  0  0  0  0
   26.2208  -21.0709  -11.9770 C   0  0  2  0  0  0  0  0  0  0  0  0
   27.2198  -22.0332  -11.7591 N   0  0  0  0  0  0  0  0  0  0  0  0
   26.2789  -20.2296  -13.1739 C   0  0  0  0  0  0  0  0  0  0  0  0
   26.8274  -19.0804  -12.9425 O   0  0  0  0  0  0  0  0  0  0  0  0
   25.8491  -20.4734  -14.4733 N   0  0  0  0  0  0  0  0  0  0  0  0
   26.2048  -21.6978  -15.2491 C   0  0  0  0  0  0  0  0  0  0  0  0
   24.8259  -22.1072  -15.7430 C   0  0  0  0  0  0  0  0  0  0  0  0
   23.9538  -20.8735  -15.6526 C   0  0  0  0  0  0  0  0  0  0  0  0
   25.0496  -19.7878  -15.4483 C   0  0  1  0  0  0  0  0  0  0  0  0
   24.4528  -18.5225  -15.1822 C   0  0  0  0  0  0  0  0  0  0  0  0
   23.7023  -18.2221  -14.2515 O   0  0  0  0  0  0  0  0  0  0  0  0
   27.3996  -13.9845  -15.8394 C   0  0  0  0  0  0  0  0  0  0  0  0
   26.4592  -15.0837  -15.4691 C   0  0  0  0  0  0  0  0  0  0  0  0
   25.1432  -15.0313  -16.1284 C   0  0  2  0  0  0  0  0  0  0  0  0
   24.4958  -13.6677  -15.8384 C   0  0  0  0  0  0  0  0  0  0  0  0
   24.1809  -16.1312  -15.9290 C   0  0  2  0  0  0  0  0  0  0  0  0
   24.7536  -17.4487  -16.1067 N   0  0  0  0  0  0  0  0  0  0  0  0
   22.9915  -15.9994  -16.7848 C   0  0  0  0  0  0  0  0  0  0  0  0
   21.7246  -15.6481  -16.3072 O   0  0  0  0  0  0  0  0  0  0  0  0
   23.0937  -16.2152  -18.0448 O   0  0  0  0  0  0  0  0  0  0  0  0
  2  1  1  6
  2  3  1  0
  4  2  1  0
  5  6  1  1
  5  4  1  0
  5  7  1  0
  7  8  2  0
  9  7  1  0
  9 10  1  0
 11 10  1  0
 12 13  1  0
 12 11  1  0
 13  9  1  0
 13 14  1  1
 15 14  2  0
 17 16  1  0
 17 18  1  0
 18 20  1  0
 18 19  1  1
 20 22  1  0
 20 21  1  6
 21 14  1  0
 22 23  1  0
 24 22  2  0
M  END
$$$$
