LPI.pdb
     RDKit          3D

 24 24  0  0  1  0  0  0  0  0999 V2000
   24.0388  -19.1809  -14.8115 C   0  0  0  0  0  0  0  0  0  0  0  0
   23.0491  -19.8460  -13.9096 C   0  0  2  0  0  0  0  0  0  0  0  0
   21.9216  -18.8709  -13.6418 C   0  0  0  0  0  0  0  0  0  0  0  0
   23.6230  -20.2508  -12.5871 C   0  0  0  0  0  0  0  0  0  0  0  0
   24.7997  -21.2038  -12.7355 C   0  0  2  0  0  0  0  0  0  0  0  0
   24.4160  -22.3469  -13.4550 N   0  0  0  0  0  0  0  0  0  0  0  0
   25.5246  -21.3565  -11.4725 C   0  0  0  0  0  0  0  0  0  0  0  0
   24.7376  -21.3241  -10.4455 O   0  0  0  0  0  0  0  0  0  0  0  0
   26.8817  -21.5253  -11.2225 N   0  0  0  0  0  0  0  0  0  0  0  0
   27.8113  -22.2457  -12.1413 C   0  0  0  0  0  0  0  0  0  0  0  0
   28.9375  -21.2273  -12.2290 C   0  0  0  0  0  0  0  0  0  0  0  0
   28.7954  -20.3252  -11.0219 C   0  0  0  0  0  0  0  0  0  0  0  0
   27.7971  -21.1678  -10.1766 C   0  0  1  0  0  0  0  0  0  0  0  0
   27.3825  -20.4398   -9.0250 C   0  0  0  0  0  0  0  0  0  0  0  0
   26.5845  -19.5017   -8.9712 O   0  0  0  0  0  0  0  0  0  0  0  0
   28.4990  -22.5329   -3.7219 C   0  0  0  0  0  0  0  0  0  0  0  0
   27.8242  -21.9543   -4.9218 C   0  0  0  0  0  0  0  0  0  0  0  0
   28.3198  -20.6328   -5.3432 C   0  0  2  0  0  0  0  0  0  0  0  0
   28.2262  -19.6642   -4.1534 C   0  0  0  0  0  0  0  0  0  0  0  0
   27.7969  -20.0145   -6.5760 C   0  0  2  0  0  0  0  0  0  0  0  0
   27.9581  -20.8368   -7.7564 N   0  0  0  0  0  0  0  0  0  0  0  0
   28.3756  -18.6856   -6.8274 C   0  0  0  0  0  0  0  0  0  0  0  0
   27.7535  -17.4856   -6.4675 O   0  0  0  0  0  0  0  0  0  0  0  0
   29.5142  -18.5931   -7.4102 O   0  0  0  0  0  0  0  0  0  0  0  0
  2  1  1  6
  2  3  1  0
  4  2  1  0
  5  6  1  1
  5  4  1  0
  5  7  1  0
  7  8  2  0
  9  7  1  0
  9 10  1  0
 11 10  1  0
 12 13  1  0
 12 11  1  0
 13  9  1  0
 13 14  1  1
 15 14  2  0
 17 16  1  0
 17 18  1  0
 18 20  1  0
 18 19  1  1
 20 22  1  0
 20 21  1  6
 21 14  1  0
 22 23  1  0
 24 22  2  0
M  END
$$$$
