LPI.pdb
     RDKit          3D

 24 24  0  0  1  0  0  0  0  0999 V2000
   15.6422  -13.5514  -19.7776 C   0  0  0  0  0  0  0  0  0  0  0  0
   16.1871  -14.0243  -18.4681 C   0  0  2  0  0  0  0  0  0  0  0  0
   15.0251  -14.2393  -17.5208 C   0  0  0  0  0  0  0  0  0  0  0  0
   17.1241  -13.0503  -17.8235 C   0  0  0  0  0  0  0  0  0  0  0  0
   18.5152  -13.0938  -18.4383 C   0  0  2  0  0  0  0  0  0  0  0  0
   18.9229  -14.4232  -18.6329 N   0  0  0  0  0  0  0  0  0  0  0  0
   19.4200  -12.1515  -17.7769 C   0  0  0  0  0  0  0  0  0  0  0  0
   19.6665  -12.4832  -16.5505 O   0  0  0  0  0  0  0  0  0  0  0  0
   20.0310  -10.9973  -18.2535 N   0  0  0  0  0  0  0  0  0  0  0  0
   20.5381  -10.8422  -19.6485 C   0  0  0  0  0  0  0  0  0  0  0  0
   19.9122   -9.5040  -20.0096 C   0  0  0  0  0  0  0  0  0  0  0  0
   19.5729   -8.8219  -18.7017 C   0  0  0  0  0  0  0  0  0  0  0  0
   20.3852   -9.7135  -17.7186 C   0  0  1  0  0  0  0  0  0  0  0  0
   20.1030   -9.3520  -16.3704 C   0  0  0  0  0  0  0  0  0  0  0  0
   19.0264   -9.4352  -15.7756 O   0  0  0  0  0  0  0  0  0  0  0  0
   22.1160  -10.0148  -10.8788 C   0  0  0  0  0  0  0  0  0  0  0  0
   21.4502   -9.0359  -11.7888 C   0  0  0  0  0  0  0  0  0  0  0  0
   21.5389   -9.3540  -13.2242 C   0  0  2  0  0  0  0  0  0  0  0  0
   22.9853   -9.7541  -13.5563 C   0  0  0  0  0  0  0  0  0  0  0  0
   21.0075   -8.4028  -14.2184 C   0  0  2  0  0  0  0  0  0  0  0  0
   21.2022   -8.8213  -15.5904 N   0  0  0  0  0  0  0  0  0  0  0  0
   21.5487   -7.0461  -14.0433 C   0  0  0  0  0  0  0  0  0  0  0  0
   21.0024   -6.0972  -13.1728 O   0  0  0  0  0  0  0  0  0  0  0  0
   22.5790   -6.6858  -14.7165 O   0  0  0  0  0  0  0  0  0  0  0  0
  2  1  1  6
  2  3  1  0
  4  2  1  0
  5  6  1  1
  5  4  1  0
  5  7  1  0
  7  8  2  0
  9  7  1  0
  9 10  1  0
 11 10  1  0
 12 13  1  0
 12 11  1  0
 13  9  1  0
 13 14  1  1
 15 14  2  0
 17 16  1  0
 17 18  1  0
 18 20  1  0
 18 19  1  6
 20 22  1  0
 20 21  1  6
 21 14  1  0
 22 23  1  0
 24 22  2  0
M  END
$$$$
