LPI.pdb
     RDKit          3D

 24 24  0  0  1  0  0  0  0  0999 V2000
   24.2581  -19.5580  -15.5011 C   0  0  0  0  0  0  0  0  0  0  0  0
   23.3834  -19.0731  -14.3898 C   0  0  2  0  0  0  0  0  0  0  0  0
   23.2010  -17.5779  -14.5479 C   0  0  0  0  0  0  0  0  0  0  0  0
   23.9550  -19.3192  -13.0279 C   0  0  0  0  0  0  0  0  0  0  0  0
   24.0216  -20.8009  -12.6886 C   0  0  2  0  0  0  0  0  0  0  0  0
   22.7690  -21.4044  -12.8841 N   0  0  0  0  0  0  0  0  0  0  0  0
   24.7441  -21.0289  -11.4356 C   0  0  0  0  0  0  0  0  0  0  0  0
   23.9925  -20.8603  -10.3956 O   0  0  0  0  0  0  0  0  0  0  0  0
   26.0677  -21.3869  -11.2064 N   0  0  0  0  0  0  0  0  0  0  0  0
   26.8830  -22.2019  -12.1542 C   0  0  0  0  0  0  0  0  0  0  0  0
   28.1363  -21.3437  -12.2298 C   0  0  0  0  0  0  0  0  0  0  0  0
   28.1284  -20.4633  -10.9986 C   0  0  0  0  0  0  0  0  0  0  0  0
   27.0321  -21.1849  -10.1629 C   0  0  1  0  0  0  0  0  0  0  0  0
   26.7301  -20.4385   -8.9883 C   0  0  0  0  0  0  0  0  0  0  0  0
   25.9634  -19.4793   -8.8792 O   0  0  0  0  0  0  0  0  0  0  0  0
   28.5426  -20.6008   -2.9593 C   0  0  0  0  0  0  0  0  0  0  0  0
   27.9087  -19.8882   -4.1082 C   0  0  0  0  0  0  0  0  0  0  0  0
   27.9089  -20.6282   -5.3818 C   0  0  2  0  0  0  0  0  0  0  0  0
   29.3025  -21.2381   -5.6021 C   0  0  0  0  0  0  0  0  0  0  0  0
   27.4135  -19.9745   -6.6076 C   0  0  2  0  0  0  0  0  0  0  0  0
   27.3953  -20.8418   -7.7664 N   0  0  0  0  0  0  0  0  0  0  0  0
   28.1587  -18.7480   -6.9309 C   0  0  0  0  0  0  0  0  0  0  0  0
   27.8608  -17.4920   -6.3921 O   0  0  0  0  0  0  0  0  0  0  0  0
   29.1416  -18.8049   -7.7526 O   0  0  0  0  0  0  0  0  0  0  0  0
  2  1  1  6
  2  3  1  0
  4  2  1  0
  5  6  1  1
  5  4  1  0
  5  7  1  0
  7  8  2  0
  9  7  1  0
  9 10  1  0
 11 10  1  0
 12 13  1  0
 12 11  1  0
 13  9  1  0
 13 14  1  1
 15 14  2  0
 17 16  1  0
 17 18  1  0
 18 20  1  0
 18 19  1  6
 20 22  1  0
 20 21  1  6
 21 14  1  0
 22 23  1  0
 24 22  2  0
M  END
$$$$
