LPI.pdb
     RDKit          3D

 24 24  0  0  1  0  0  0  0  0999 V2000
   24.0794  -19.4342  -15.0121 C   0  0  0  0  0  0  0  0  0  0  0  0
   23.2101  -19.7651  -13.8416 C   0  0  2  0  0  0  0  0  0  0  0  0
   22.2088  -18.6431  -13.6623 C   0  0  0  0  0  0  0  0  0  0  0  0
   23.9660  -19.9087  -12.5570 C   0  0  0  0  0  0  0  0  0  0  0  0
   24.8181  -21.1688  -12.5260 C   0  0  2  0  0  0  0  0  0  0  0  0
   24.0854  -22.2669  -13.0044 N   0  0  0  0  0  0  0  0  0  0  0  0
   25.5512  -21.2857  -11.2639 C   0  0  0  0  0  0  0  0  0  0  0  0
   24.7698  -21.2337  -10.2335 O   0  0  0  0  0  0  0  0  0  0  0  0
   26.9108  -21.4393  -11.0178 N   0  0  0  0  0  0  0  0  0  0  0  0
   27.8396  -22.1781  -11.9227 C   0  0  0  0  0  0  0  0  0  0  0  0
   28.9586  -21.1553  -12.0445 C   0  0  0  0  0  0  0  0  0  0  0  0
   28.8179  -20.2222  -10.8611 C   0  0  0  0  0  0  0  0  0  0  0  0
   27.8300  -21.0481   -9.9875 C   0  0  1  0  0  0  0  0  0  0  0  0
   27.4176  -20.2923   -8.8532 C   0  0  0  0  0  0  0  0  0  0  0  0
   26.7171  -19.2780   -8.8355 O   0  0  0  0  0  0  0  0  0  0  0  0
   28.2050  -20.7458   -2.6206 C   0  0  0  0  0  0  0  0  0  0  0  0
   27.7502  -19.9857   -3.8227 C   0  0  0  0  0  0  0  0  0  0  0  0
   27.9738  -20.6607   -5.1126 C   0  0  2  0  0  0  0  0  0  0  0  0
   29.3922  -21.2526   -5.1245 C   0  0  0  0  0  0  0  0  0  0  0  0
   27.6831  -19.9483   -6.3710 C   0  0  2  0  0  0  0  0  0  0  0  0
   27.8664  -20.7577   -7.5570 N   0  0  0  0  0  0  0  0  0  0  0  0
   28.4600  -18.7063   -6.5060 C   0  0  0  0  0  0  0  0  0  0  0  0
   29.5395  -18.5556   -7.3826 O   0  0  0  0  0  0  0  0  0  0  0  0
   28.1522  -17.6884   -5.7894 O   0  0  0  0  0  0  0  0  0  0  0  0
  2  1  1  6
  2  3  1  0
  4  2  1  0
  5  6  1  1
  5  4  1  0
  5  7  1  0
  7  8  2  0
  9  7  1  0
  9 10  1  0
 11 10  1  0
 12 13  1  0
 12 11  1  0
 13  9  1  0
 13 14  1  1
 15 14  2  0
 17 16  1  0
 17 18  1  0
 18 20  1  0
 18 19  1  6
 20 22  1  0
 20 21  1  6
 21 14  1  0
 22 23  1  0
 24 22  2  0
M  END
$$$$
