LPI.pdb
     RDKit          3D

 24 24  0  0  1  0  0  0  0  0999 V2000
   27.3559  -17.1923  -18.4832 C   0  0  0  0  0  0  0  0  0  0  0  0
   26.0267  -17.7066  -18.0317 C   0  0  2  0  0  0  0  0  0  0  0  0
   25.0565  -16.5443  -17.9937 C   0  0  0  0  0  0  0  0  0  0  0  0
   26.0551  -18.3191  -16.6655 C   0  0  0  0  0  0  0  0  0  0  0  0
   26.4816  -19.7792  -16.6959 C   0  0  2  0  0  0  0  0  0  0  0  0
   25.8971  -20.4372  -17.7900 N   0  0  0  0  0  0  0  0  0  0  0  0
   26.4045  -20.3849  -15.3651 C   0  0  0  0  0  0  0  0  0  0  0  0
   25.1837  -20.5833  -14.9839 O   0  0  0  0  0  0  0  0  0  0  0  0
   27.4104  -20.7649  -14.4839 N   0  0  0  0  0  0  0  0  0  0  0  0
   28.6683  -21.4486  -14.9054 C   0  0  0  0  0  0  0  0  0  0  0  0
   29.6924  -20.5834  -14.1872 C   0  0  0  0  0  0  0  0  0  0  0  0
   28.9489  -19.8685  -13.0795 C   0  0  0  0  0  0  0  0  0  0  0  0
   27.6308  -20.6952  -13.0675 C   0  0  1  0  0  0  0  0  0  0  0  0
   26.6826  -20.1068  -12.1827 C   0  0  0  0  0  0  0  0  0  0  0  0
   26.3601  -18.9197  -12.1020 O   0  0  0  0  0  0  0  0  0  0  0  0
   21.6932  -21.1076  -12.0786 C   0  0  0  0  0  0  0  0  0  0  0  0
   23.1173  -20.6896  -11.9142 C   0  0  0  0  0  0  0  0  0  0  0  0
   23.6658  -20.8533  -10.5571 C   0  0  2  0  0  0  0  0  0  0  0  0
   22.7117  -20.1889   -9.5518 C   0  0  0  0  0  0  0  0  0  0  0  0
   25.0677  -20.4840  -10.2853 C   0  0  2  0  0  0  0  0  0  0  0  0
   26.0069  -20.9963  -11.2604 N   0  0  0  0  0  0  0  0  0  0  0  0
   25.5024  -20.8814   -8.9372 C   0  0  0  0  0  0  0  0  0  0  0  0
   25.4813  -20.0272   -7.8298 O   0  0  0  0  0  0  0  0  0  0  0  0
   25.9315  -22.0734   -8.7383 O   0  0  0  0  0  0  0  0  0  0  0  0
  2  1  1  1
  2  3  1  0
  4  2  1  0
  5  6  1  6
  5  4  1  0
  5  7  1  0
  7  8  2  0
  9  7  1  0
  9 10  1  0
 11 10  1  0
 12 13  1  0
 12 11  1  0
 13  9  1  0
 13 14  1  1
 15 14  2  0
 17 16  1  0
 17 18  1  0
 18 20  1  0
 18 19  1  1
 20 22  1  0
 20 21  1  6
 21 14  1  0
 22 23  1  0
 24 22  2  0
M  END
$$$$
