LPI.pdb
     RDKit          3D

 24 24  0  0  1  0  0  0  0  0999 V2000
   20.9594  -17.9271  -13.2304 C   0  0  0  0  0  0  0  0  0  0  0  0
   20.2130  -19.1389  -13.6882 C   0  0  2  0  0  0  0  0  0  0  0  0
   18.8470  -18.6995  -14.1727 C   0  0  0  0  0  0  0  0  0  0  0  0
   20.0063  -20.1569  -12.6097 C   0  0  0  0  0  0  0  0  0  0  0  0
   21.2776  -20.9315  -12.2953 C   0  0  2  0  0  0  0  0  0  0  0  0
   21.8927  -21.3645  -13.4809 N   0  0  0  0  0  0  0  0  0  0  0  0
   21.0653  -21.8840  -11.2037 C   0  0  0  0  0  0  0  0  0  0  0  0
   20.2865  -22.8596  -11.5454 O   0  0  0  0  0  0  0  0  0  0  0  0
   21.5583  -21.8956   -9.9039 N   0  0  0  0  0  0  0  0  0  0  0  0
   22.9458  -21.4844   -9.5390 C   0  0  0  0  0  0  0  0  0  0  0  0
   22.6459  -20.5340   -8.3902 C   0  0  0  0  0  0  0  0  0  0  0  0
   21.2562  -20.8788   -7.8995 C   0  0  0  0  0  0  0  0  0  0  0  0
   21.0575  -22.2505   -8.6067 C   0  0  1  0  0  0  0  0  0  0  0  0
   19.7279  -22.7223   -8.4125 C   0  0  0  0  0  0  0  0  0  0  0  0
   18.6821  -22.2325   -8.8439 O   0  0  0  0  0  0  0  0  0  0  0  0
   18.3746  -27.8591   -9.1940 C   0  0  0  0  0  0  0  0  0  0  0  0
   18.5383  -26.3898   -8.9839 C   0  0  0  0  0  0  0  0  0  0  0  0
   18.1206  -25.8955   -7.6608 C   0  0  2  0  0  0  0  0  0  0  0  0
   16.6989  -26.4006   -7.3675 C   0  0  0  0  0  0  0  0  0  0  0  0
   18.2535  -24.4619   -7.3402 C   0  0  2  0  0  0  0  0  0  0  0  0
   19.5676  -23.9207   -7.6147 N   0  0  0  0  0  0  0  0  0  0  0  0
   17.8857  -24.1610   -5.9479 C   0  0  0  0  0  0  0  0  0  0  0  0
   16.6140  -23.7311   -5.5548 O   0  0  0  0  0  0  0  0  0  0  0  0
   18.7630  -24.2901   -5.0214 O   0  0  0  0  0  0  0  0  0  0  0  0
  2  1  1  1
  2  3  1  0
  4  2  1  0
  5  6  1  6
  5  4  1  0
  5  7  1  0
  7  8  2  0
  9  7  1  0
  9 10  1  0
 11 10  1  0
 12 13  1  0
 12 11  1  0
 13  9  1  0
 13 14  1  6
 15 14  2  0
 17 16  1  0
 17 18  1  0
 18 20  1  0
 18 19  1  6
 20 22  1  0
 20 21  1  1
 21 14  1  0
 22 23  1  0
 24 22  2  0
M  END
$$$$
