LPI.pdb
     RDKit          3D

 24 24  0  0  1  0  0  0  0  0999 V2000
   22.4238  -16.9744  -15.3513 C   0  0  0  0  0  0  0  0  0  0  0  0
   23.2832  -17.9519  -16.0870 C   0  0  2  0  0  0  0  0  0  0  0  0
   22.4333  -18.6315  -17.1404 C   0  0  0  0  0  0  0  0  0  0  0  0
   23.8594  -19.0201  -15.2100 C   0  0  0  0  0  0  0  0  0  0  0  0
   25.1309  -19.6208  -15.7908 C   0  0  2  0  0  0  0  0  0  0  0  0
   24.9009  -20.0853  -17.0957 N   0  0  0  0  0  0  0  0  0  0  0  0
   25.7994  -20.4923  -14.8226 C   0  0  0  0  0  0  0  0  0  0  0  0
   24.9939  -21.3630  -14.3049 O   0  0  0  0  0  0  0  0  0  0  0  0
   27.1214  -20.5223  -14.3937 N   0  0  0  0  0  0  0  0  0  0  0  0
   28.2718  -20.0462  -15.2167 C   0  0  0  0  0  0  0  0  0  0  0  0
   28.9720  -19.1560  -14.2016 C   0  0  0  0  0  0  0  0  0  0  0  0
   28.4866  -19.5965  -12.8374 C   0  0  0  0  0  0  0  0  0  0  0  0
   27.8216  -20.9512  -13.2166 C   0  0  1  0  0  0  0  0  0  0  0  0
   27.1437  -21.5044  -12.0930 C   0  0  0  0  0  0  0  0  0  0  0  0
   27.4844  -22.4690  -11.4051 O   0  0  0  0  0  0  0  0  0  0  0  0
   27.6503  -19.5762   -7.5963 C   0  0  0  0  0  0  0  0  0  0  0  0
   27.0909  -20.5952   -8.5335 C   0  0  0  0  0  0  0  0  0  0  0  0
   25.9655  -20.1325   -9.3634 C   0  0  2  0  0  0  0  0  0  0  0  0
   24.8866  -19.5322   -8.4479 C   0  0  0  0  0  0  0  0  0  0  0  0
   25.3716  -21.0406  -10.3625 C   0  0  2  0  0  0  0  0  0  0  0  0
   25.9034  -20.8690  -11.6979 N   0  0  0  0  0  0  0  0  0  0  0  0
   23.9044  -20.9436  -10.4081 C   0  0  0  0  0  0  0  0  0  0  0  0
   23.0563  -21.5292   -9.4624 O   0  0  0  0  0  0  0  0  0  0  0  0
   23.3443  -20.2920  -11.3602 O   0  0  0  0  0  0  0  0  0  0  0  0
  2  1  1  1
  2  3  1  0
  4  2  1  0
  5  6  1  6
  5  4  1  0
  5  7  1  0
  7  8  2  0
  9  7  1  0
  9 10  1  0
 11 10  1  0
 12 13  1  0
 12 11  1  0
 13  9  1  0
 13 14  1  1
 15 14  2  0
 17 16  1  0
 17 18  1  0
 18 20  1  0
 18 19  1  1
 20 22  1  0
 20 21  1  6
 21 14  1  0
 22 23  1  0
 24 22  2  0
M  END
$$$$
