LPI.pdb
     RDKit          3D

 24 24  0  0  1  0  0  0  0  0999 V2000
   27.5297  -17.4122  -13.2047 C   0  0  0  0  0  0  0  0  0  0  0  0
   27.4752  -18.8807  -13.4799 C   0  0  2  0  0  0  0  0  0  0  0  0
   27.3651  -19.0788  -14.9773 C   0  0  0  0  0  0  0  0  0  0  0  0
   26.3049  -19.5652  -12.8441 C   0  0  0  0  0  0  0  0  0  0  0  0
   26.6312  -20.9880  -12.4151 C   0  0  2  0  0  0  0  0  0  0  0  0
   25.5897  -21.8585  -12.7743 N   0  0  0  0  0  0  0  0  0  0  0  0
   27.1637  -21.0248  -11.0516 C   0  0  0  0  0  0  0  0  0  0  0  0
   26.3344  -20.5381  -10.1853 O   0  0  0  0  0  0  0  0  0  0  0  0
   28.3818  -21.4883  -10.5679 N   0  0  0  0  0  0  0  0  0  0  0  0
   29.2312  -22.4879  -11.2797 C   0  0  0  0  0  0  0  0  0  0  0  0
   30.5753  -21.7782  -11.2260 C   0  0  0  0  0  0  0  0  0  0  0  0
   30.4808  -20.7642  -10.1062 C   0  0  0  0  0  0  0  0  0  0  0  0
   29.1878  -21.2666   -9.4013 C   0  0  1  0  0  0  0  0  0  0  0  0
   28.7977  -20.3612   -8.3736 C   0  0  0  0  0  0  0  0  0  0  0  0
   28.4120  -19.1971   -8.4988 O   0  0  0  0  0  0  0  0  0  0  0  0
   25.0869  -21.5077   -4.8259 C   0  0  0  0  0  0  0  0  0  0  0  0
   26.0948  -20.8658   -5.7212 C   0  0  0  0  0  0  0  0  0  0  0  0
   27.3805  -20.5360   -5.0825 C   0  0  2  0  0  0  0  0  0  0  0  0
   27.1135  -19.6453   -3.8586 C   0  0  0  0  0  0  0  0  0  0  0  0
   28.4870  -20.0023   -5.8987 C   0  0  2  0  0  0  0  0  0  0  0  0
   28.8551  -20.8515   -7.0117 N   0  0  0  0  0  0  0  0  0  0  0  0
   29.6846  -19.7064   -5.0972 C   0  0  0  0  0  0  0  0  0  0  0  0
   29.9937  -18.4358   -4.6005 O   0  0  0  0  0  0  0  0  0  0  0  0
   30.5105  -20.6489   -4.8249 O   0  0  0  0  0  0  0  0  0  0  0  0
  2  1  1  6
  2  3  1  0
  4  2  1  0
  5  6  1  1
  5  4  1  0
  5  7  1  0
  7  8  2  0
  9  7  1  0
  9 10  1  0
 11 10  1  0
 12 13  1  0
 12 11  1  0
 13  9  1  0
 13 14  1  1
 15 14  2  0
 17 16  1  0
 17 18  1  0
 18 20  1  0
 18 19  1  1
 20 22  1  0
 20 21  1  6
 21 14  1  0
 22 23  1  0
 24 22  2  0
M  END
$$$$
