LPI.pdb
     RDKit          3D

 24 24  0  0  1  0  0  0  0  0999 V2000
   25.5163  -19.7935  -15.2702 C   0  0  0  0  0  0  0  0  0  0  0  0
   24.4675  -19.7411  -14.2060 C   0  0  2  0  0  0  0  0  0  0  0  0
   23.8124  -18.3764  -14.2527 C   0  0  0  0  0  0  0  0  0  0  0  0
   25.0080  -19.9382  -12.8235 C   0  0  0  0  0  0  0  0  0  0  0  0
   25.6255  -21.3160  -12.6358 C   0  0  2  0  0  0  0  0  0  0  0  0
   24.7542  -22.3112  -13.1070 N   0  0  0  0  0  0  0  0  0  0  0  0
   26.2271  -21.4542  -11.3081 C   0  0  0  0  0  0  0  0  0  0  0  0
   25.3610  -21.3109  -10.3571 O   0  0  0  0  0  0  0  0  0  0  0  0
   27.5413  -21.7076  -10.9318 N   0  0  0  0  0  0  0  0  0  0  0  0
   28.4813  -22.5569  -11.7208 C   0  0  0  0  0  0  0  0  0  0  0  0
   29.6895  -21.6347  -11.7732 C   0  0  0  0  0  0  0  0  0  0  0  0
   29.5232  -20.6444  -10.6407 C   0  0  0  0  0  0  0  0  0  0  0  0
   28.3944  -21.3497   -9.8347 C   0  0  1  0  0  0  0  0  0  0  0  0
   27.9478  -20.5159   -8.7701 C   0  0  0  0  0  0  0  0  0  0  0  0
   27.2318  -19.5151   -8.8440 O   0  0  0  0  0  0  0  0  0  0  0  0
   28.0539  -22.5518   -3.3802 C   0  0  0  0  0  0  0  0  0  0  0  0
   27.6069  -21.8971   -4.6455 C   0  0  0  0  0  0  0  0  0  0  0  0
   28.3201  -20.6567   -4.9952 C   0  0  2  0  0  0  0  0  0  0  0  0
   28.1555  -19.6481   -3.8470 C   0  0  0  0  0  0  0  0  0  0  0  0
   28.0800  -20.0188   -6.3032 C   0  0  2  0  0  0  0  0  0  0  0  0
   28.3774  -20.8727   -7.4336 N   0  0  0  0  0  0  0  0  0  0  0  0
   28.8064  -18.7480   -6.4505 C   0  0  0  0  0  0  0  0  0  0  0  0
   30.1954  -18.6574   -6.5885 O   0  0  0  0  0  0  0  0  0  0  0  0
   28.1531  -17.6445   -6.4541 O   0  0  0  0  0  0  0  0  0  0  0  0
  2  1  1  6
  2  3  1  0
  4  2  1  0
  5  6  1  1
  5  4  1  0
  5  7  1  0
  7  8  2  0
  9  7  1  0
  9 10  1  0
 11 10  1  0
 12 13  1  0
 12 11  1  0
 13  9  1  0
 13 14  1  1
 15 14  2  0
 17 16  1  0
 17 18  1  0
 18 20  1  0
 18 19  1  1
 20 22  1  0
 20 21  1  6
 21 14  1  0
 22 23  1  0
 24 22  2  0
M  END
$$$$
