LPI.pdb
     RDKit          3D

 24 24  0  0  1  0  0  0  0  0999 V2000
   12.8656   -6.1976   -8.8968 C   0  0  0  0  0  0  0  0  0  0  0  0
   13.9731   -7.1554   -8.5943 C   0  0  2  0  0  0  0  0  0  0  0  0
   14.5787   -6.7738   -7.2596 C   0  0  0  0  0  0  0  0  0  0  0  0
   15.0713   -7.1403   -9.6121 C   0  0  0  0  0  0  0  0  0  0  0  0
   14.8272   -8.1320  -10.7399 C   0  0  2  0  0  0  0  0  0  0  0  0
   14.4518   -9.3813  -10.2204 N   0  0  0  0  0  0  0  0  0  0  0  0
   15.8834   -8.0597  -11.7514 C   0  0  0  0  0  0  0  0  0  0  0  0
   16.9678   -8.6577  -11.3752 O   0  0  0  0  0  0  0  0  0  0  0  0
   15.8934   -7.4668  -13.0088 N   0  0  0  0  0  0  0  0  0  0  0  0
   14.7800   -7.5931  -13.9946 C   0  0  0  0  0  0  0  0  0  0  0  0
   14.5909   -6.1309  -14.3678 C   0  0  0  0  0  0  0  0  0  0  0  0
   15.8732   -5.4218  -13.9888 C   0  0  0  0  0  0  0  0  0  0  0  0
   16.8004   -6.6511  -13.7648 C   0  0  1  0  0  0  0  0  0  0  0  0
   18.0590   -6.2365  -13.2431 C   0  0  0  0  0  0  0  0  0  0  0  0
   18.2988   -5.7785  -12.1240 O   0  0  0  0  0  0  0  0  0  0  0  0
   22.6205   -9.1261  -13.9725 C   0  0  0  0  0  0  0  0  0  0  0  0
   21.5291   -8.2209  -13.5043 C   0  0  0  0  0  0  0  0  0  0  0  0
   21.6044   -6.8377  -14.0047 C   0  0  2  0  0  0  0  0  0  0  0  0
   22.9701   -6.2446  -13.6232 C   0  0  0  0  0  0  0  0  0  0  0  0
   20.5115   -5.8924  -13.7088 C   0  0  2  0  0  0  0  0  0  0  0  0
   19.2052   -6.3614  -14.1199 N   0  0  0  0  0  0  0  0  0  0  0  0
   20.7511   -4.5590  -14.2823 C   0  0  0  0  0  0  0  0  0  0  0  0
   21.4622   -3.5474  -13.6284 O   0  0  0  0  0  0  0  0  0  0  0  0
   20.2909   -4.2808  -15.4465 O   0  0  0  0  0  0  0  0  0  0  0  0
  2  1  1  6
  2  3  1  0
  4  2  1  0
  5  6  1  1
  5  4  1  0
  5  7  1  0
  7  8  2  0
  9  7  1  0
  9 10  1  0
 11 10  1  0
 12 13  1  0
 12 11  1  0
 13  9  1  0
 13 14  1  1
 15 14  2  0
 17 16  1  0
 17 18  1  0
 18 20  1  0
 18 19  1  1
 20 22  1  0
 20 21  1  6
 21 14  1  0
 22 23  1  0
 24 22  2  0
M  END
$$$$
