LPI.pdb
     RDKit          3D

 24 24  0  0  1  0  0  0  0  0999 V2000
   23.4138  -16.8963  -18.8440 C   0  0  0  0  0  0  0  0  0  0  0  0
   23.0166  -18.3289  -18.6850 C   0  0  2  0  0  0  0  0  0  0  0  0
   21.5196  -18.3840  -18.4621 C   0  0  0  0  0  0  0  0  0  0  0  0
   23.6739  -19.0062  -17.5225 C   0  0  0  0  0  0  0  0  0  0  0  0
   25.1705  -19.1861  -17.7296 C   0  0  2  0  0  0  0  0  0  0  0  0
   25.4171  -19.9394  -18.8885 N   0  0  0  0  0  0  0  0  0  0  0  0
   25.8422  -19.5459  -16.4793 C   0  0  0  0  0  0  0  0  0  0  0  0
   25.9478  -20.8269  -16.3274 O   0  0  0  0  0  0  0  0  0  0  0  0
   26.3643  -18.7456  -15.4695 N   0  0  0  0  0  0  0  0  0  0  0  0
   27.2612  -17.5784  -15.7158 C   0  0  0  0  0  0  0  0  0  0  0  0
   26.5637  -16.5260  -14.8679 C   0  0  0  0  0  0  0  0  0  0  0  0
   25.7056  -17.2766  -13.8723 C   0  0  0  0  0  0  0  0  0  0  0  0
   26.2971  -18.7064  -14.0364 C   0  0  1  0  0  0  0  0  0  0  0  0
   25.5348  -19.6490  -13.2891 C   0  0  0  0  0  0  0  0  0  0  0  0
   24.6044  -20.3532  -13.6869 O   0  0  0  0  0  0  0  0  0  0  0  0
   27.2890  -20.5918   -7.8655 C   0  0  0  0  0  0  0  0  0  0  0  0
   26.8579  -20.9220   -9.2565 C   0  0  0  0  0  0  0  0  0  0  0  0
   25.4745  -20.5425   -9.5907 C   0  0  2  0  0  0  0  0  0  0  0  0
   24.5111  -21.3322   -8.6903 C   0  0  0  0  0  0  0  0  0  0  0  0
   25.0292  -20.5650  -10.9966 C   0  0  2  0  0  0  0  0  0  0  0  0
   25.8815  -19.8120  -11.8922 N   0  0  0  0  0  0  0  0  0  0  0  0
   23.6388  -20.1106  -11.1531 C   0  0  0  0  0  0  0  0  0  0  0  0
   22.5579  -20.9727  -11.3649 O   0  0  0  0  0  0  0  0  0  0  0  0
   23.3747  -18.8568  -11.0981 O   0  0  0  0  0  0  0  0  0  0  0  0
  2  1  1  1
  2  3  1  0
  4  2  1  0
  5  6  1  6
  5  4  1  0
  5  7  1  0
  7  8  2  0
  9  7  1  0
  9 10  1  0
 11 10  1  0
 12 13  1  0
 12 11  1  0
 13  9  1  0
 13 14  1  6
 15 14  2  0
 17 16  1  0
 17 18  1  0
 18 20  1  0
 18 19  1  1
 20 22  1  0
 20 21  1  6
 21 14  1  0
 22 23  1  0
 24 22  2  0
M  END
$$$$
