LPI.pdb
     RDKit          3D

 24 24  0  0  1  0  0  0  0  0999 V2000
   24.2496  -20.5053  -18.6908 C   0  0  0  0  0  0  0  0  0  0  0  0
   24.2279  -21.7844  -17.9170 C   0  0  2  0  0  0  0  0  0  0  0  0
   22.7831  -22.1874  -17.7074 C   0  0  0  0  0  0  0  0  0  0  0  0
   24.8699  -21.6783  -16.5683 C   0  0  0  0  0  0  0  0  0  0  0  0
   26.3868  -21.5990  -16.6553 C   0  0  2  0  0  0  0  0  0  0  0  0
   26.8811  -22.5990  -17.5081 N   0  0  0  0  0  0  0  0  0  0  0  0
   26.9879  -21.4176  -15.3326 C   0  0  0  0  0  0  0  0  0  0  0  0
   27.2985  -22.5429  -14.7738 O   0  0  0  0  0  0  0  0  0  0  0  0
   27.2647  -20.2593  -14.6153 N   0  0  0  0  0  0  0  0  0  0  0  0
   27.9413  -19.0638  -15.1986 C   0  0  0  0  0  0  0  0  0  0  0  0
   26.9902  -17.9706  -14.7367 C   0  0  0  0  0  0  0  0  0  0  0  0
   26.2114  -18.5432  -13.5720 C   0  0  0  0  0  0  0  0  0  0  0  0
   27.0744  -19.8018  -13.2684 C   0  0  1  0  0  0  0  0  0  0  0  0
   26.4459  -20.6087  -12.2774 C   0  0  0  0  0  0  0  0  0  0  0  0
   25.7999  -21.6451  -12.4455 O   0  0  0  0  0  0  0  0  0  0  0  0
   27.6436  -19.4125   -6.7878 C   0  0  0  0  0  0  0  0  0  0  0  0
   27.4071  -20.2007   -8.0338 C   0  0  0  0  0  0  0  0  0  0  0  0
   26.0157  -20.2066   -8.5170 C   0  0  2  0  0  0  0  0  0  0  0  0
   25.1252  -20.8786   -7.4597 C   0  0  0  0  0  0  0  0  0  0  0  0
   25.7130  -20.7134   -9.8687 C   0  0  2  0  0  0  0  0  0  0  0  0
   26.5714  -20.1733  -10.9016 N   0  0  0  0  0  0  0  0  0  0  0  0
   24.3070  -20.5021  -10.2463 C   0  0  0  0  0  0  0  0  0  0  0  0
   23.3076  -21.4693  -10.0970 O   0  0  0  0  0  0  0  0  0  0  0  0
   23.9500  -19.3759  -10.7452 O   0  0  0  0  0  0  0  0  0  0  0  0
  2  1  1  1
  2  3  1  0
  4  2  1  0
  5  6  1  1
  5  4  1  0
  5  7  1  0
  7  8  2  0
  9  7  1  0
  9 10  1  0
 11 10  1  0
 12 13  1  0
 12 11  1  0
 13  9  1  0
 13 14  1  1
 15 14  2  0
 17 16  1  0
 17 18  1  0
 18 20  1  0
 18 19  1  1
 20 22  1  0
 20 21  1  6
 21 14  1  0
 22 23  1  0
 24 22  2  0
M  END
$$$$
