KHG.pdb
     RDKit          3D

 24 24  0  0  1  0  0  0  0  0999 V2000
   11.5249  -14.6264   20.1220 N   0  0  0  0  0  0  0  0  0  0  0  0
   10.1608  -14.5033   20.4351 C   0  0  1  0  0  0  0  0  0  0  0  0
    9.1646  -15.3552   19.7533 C   0  0  0  0  0  0  0  0  0  0  0  0
    9.0062  -15.4023   18.3118 C   0  0  0  0  0  0  0  0  0  0  0  0
    8.6057  -14.3217   17.4355 C   0  0  0  0  0  0  0  0  0  0  0  0
    8.5239  -14.4264   15.9714 C   0  0  0  0  0  0  0  0  0  0  0  0
    8.2540  -13.0111   15.5125 N   0  0  0  0  0  0  0  0  0  0  0  0
   10.0233  -14.6146   21.9442 C   0  0  0  0  0  0  0  0  0  0  0  0
   11.0710  -14.7338   22.6071 O   0  0  0  0  0  0  0  0  0  0  0  0
    8.7744  -14.5873   22.5992 N   0  0  0  0  0  0  0  0  0  0  0  0
    8.6562  -14.2443   24.0265 C   0  0  1  0  0  0  0  0  0  0  0  0
    7.3267  -13.5693   24.1674 C   0  0  0  0  0  0  0  0  0  0  0  0
    6.9521  -13.0817   25.4876 C   0  0  0  0  0  0  0  0  0  0  0  0
    6.2252  -13.7062   26.5023 C   0  0  0  0  0  0  0  0  0  0  0  0
    6.0991  -12.8420   27.5263 N   0  0  0  0  0  0  0  0  0  0  0  0
    6.7124  -11.6950   27.2107 C   0  0  0  0  0  0  0  0  0  0  0  0
    7.2204  -11.8428   25.9921 N   0  0  0  0  0  0  0  0  0  0  0  0
    8.7926  -15.4260   24.8691 C   0  0  0  0  0  0  0  0  0  0  0  0
    8.6443  -15.4171   26.1260 O   0  0  0  0  0  0  0  0  0  0  0  0
    9.1049  -16.6816   24.2775 N   0  0  0  0  0  0  0  0  0  0  0  0
    9.2146  -17.8945   25.0538 C   0  0  0  0  0  0  0  0  0  0  0  0
    9.6205  -19.0775   24.2699 C   0  0  0  0  0  0  0  0  0  0  0  0
    9.8130  -18.9711   23.0373 O   0  0  0  0  0  0  0  0  0  0  0  0
    9.7886  -20.3041   24.8951 O   0  0  0  0  0  0  0  0  0  0  0  0
  2  1  1  1
  3  2  1  0
  4  3  1  0
  5  6  1  0
  5  4  1  0
  6  7  1  0
  8  2  1  0
  9  8  2  0
 10  8  1  0
 11 10  1  0
 11 12  1  6
 12 13  1  0
 13 14  2  0
 15 14  1  0
 16 15  1  0
 17 16  2  0
 17 13  1  0
 18 11  1  0
 19 18  2  0
 20 18  1  0
 21 20  1  0
 22 24  1  0
 22 21  1  0
 23 22  2  0
M  END
$$$$
