KHG.pdb
     RDKit          3D

 24 24  0  0  1  0  0  0  0  0999 V2000
    7.9721  -12.6985   19.1277 N   0  0  0  0  0  0  0  0  0  0  0  0
    7.7609  -13.9532   19.7236 C   0  0  1  0  0  0  0  0  0  0  0  0
    7.9820  -15.1894   18.9452 C   0  0  0  0  0  0  0  0  0  0  0  0
    9.2315  -15.4997   18.2761 C   0  0  0  0  0  0  0  0  0  0  0  0
    9.4882  -16.5838   17.3515 C   0  0  0  0  0  0  0  0  0  0  0  0
   10.7475  -16.7672   16.6155 C   0  0  0  0  0  0  0  0  0  0  0  0
   10.5625  -18.0777   15.8839 N   0  0  0  0  0  0  0  0  0  0  0  0
    8.5495  -13.9848   21.0219 C   0  0  0  0  0  0  0  0  0  0  0  0
    9.3659  -13.0647   21.2180 O   0  0  0  0  0  0  0  0  0  0  0  0
    8.3875  -15.0006   21.9870 N   0  0  0  0  0  0  0  0  0  0  0  0
    9.0913  -14.9592   23.2799 C   0  0  1  0  0  0  0  0  0  0  0  0
    8.0398  -15.2106   24.3163 C   0  0  0  0  0  0  0  0  0  0  0  0
    7.3746  -14.0537   24.8996 C   0  0  0  0  0  0  0  0  0  0  0  0
    7.6017  -12.6915   24.6980 C   0  0  0  0  0  0  0  0  0  0  0  0
    6.7620  -12.0003   25.4908 N   0  0  0  0  0  0  0  0  0  0  0  0
    6.0101  -12.8599   26.1887 C   0  0  0  0  0  0  0  0  0  0  0  0
    6.3795  -14.0852   25.8324 N   0  0  0  0  0  0  0  0  0  0  0  0
   10.1816  -15.9260   23.3216 C   0  0  0  0  0  0  0  0  0  0  0  0
   10.8430  -16.1987   24.3656 O   0  0  0  0  0  0  0  0  0  0  0  0
   10.5478  -16.6272   22.1390 N   0  0  0  0  0  0  0  0  0  0  0  0
   11.5807  -17.6365   22.1289 C   0  0  0  0  0  0  0  0  0  0  0  0
   11.7263  -18.3374   20.8381 C   0  0  0  0  0  0  0  0  0  0  0  0
   10.7467  -18.9404   20.3435 O   0  0  0  0  0  0  0  0  0  0  0  0
   12.9437  -18.3292   20.1736 O   0  0  0  0  0  0  0  0  0  0  0  0
  2  1  1  6
  3  2  1  0
  4  3  1  0
  5  6  1  0
  5  4  1  0
  6  7  1  0
  8  2  1  0
  9  8  2  0
 10  8  1  0
 11 10  1  0
 11 12  1  1
 12 13  1  0
 13 14  2  0
 15 14  1  0
 16 15  1  0
 17 16  2  0
 17 13  1  0
 18 11  1  0
 19 18  2  0
 20 18  1  0
 21 20  1  0
 22 24  1  0
 22 21  1  0
 23 22  2  0
M  END
$$$$
