KHG.pdb
     RDKit          3D

 24 24  0  0  1  0  0  0  0  0999 V2000
   10.7593  -17.5234   16.6378 N   0  0  0  0  0  0  0  0  0  0  0  0
   10.2298  -17.9035   17.8824 C   0  0  1  0  0  0  0  0  0  0  0  0
   10.5068  -19.2496   18.4251 C   0  0  0  0  0  0  0  0  0  0  0  0
   11.8255  -19.6870   18.8431 C   0  0  0  0  0  0  0  0  0  0  0  0
   12.2080  -21.0021   19.3124 C   0  0  0  0  0  0  0  0  0  0  0  0
   13.5699  -21.3741   19.7224 C   0  0  0  0  0  0  0  0  0  0  0  0
   13.4295  -22.7897   20.2355 N   0  0  0  0  0  0  0  0  0  0  0  0
   10.6034  -16.8286   18.8892 C   0  0  0  0  0  0  0  0  0  0  0  0
   11.6582  -16.1976   18.6877 O   0  0  0  0  0  0  0  0  0  0  0  0
    9.8097  -16.5324   20.0169 N   0  0  0  0  0  0  0  0  0  0  0  0
   10.1323  -15.4133   20.9181 C   0  0  1  0  0  0  0  0  0  0  0  0
    8.8637  -14.6286   21.0521 C   0  0  0  0  0  0  0  0  0  0  0  0
    8.2906  -14.0572   19.8412 C   0  0  0  0  0  0  0  0  0  0  0  0
    8.3047  -12.7415   19.3758 C   0  0  0  0  0  0  0  0  0  0  0  0
    7.6066  -12.6915   18.2262 N   0  0  0  0  0  0  0  0  0  0  0  0
    7.1480  -13.9153   17.9378 C   0  0  0  0  0  0  0  0  0  0  0  0
    7.5590  -14.7278   18.9052 N   0  0  0  0  0  0  0  0  0  0  0  0
   10.6491  -15.8920   22.1944 C   0  0  0  0  0  0  0  0  0  0  0  0
    9.9478  -16.4961   23.0576 O   0  0  0  0  0  0  0  0  0  0  0  0
   12.0193  -15.6905   22.5205 N   0  0  0  0  0  0  0  0  0  0  0  0
   12.6076  -16.2066   23.7343 C   0  0  0  0  0  0  0  0  0  0  0  0
   14.0594  -15.9669   23.8499 C   0  0  0  0  0  0  0  0  0  0  0  0
   14.6829  -15.4504   22.8949 O   0  0  0  0  0  0  0  0  0  0  0  0
   14.7327  -16.3122   25.0123 O   0  0  0  0  0  0  0  0  0  0  0  0
  2  1  1  6
  3  2  1  0
  4  3  1  0
  5  6  1  0
  5  4  1  0
  6  7  1  0
  8  2  1  0
  9  8  2  0
 10  8  1  0
 11 10  1  0
 11 12  1  1
 12 13  1  0
 13 14  2  0
 15 14  1  0
 16 15  1  0
 17 16  2  0
 17 13  1  0
 18 11  1  0
 19 18  2  0
 20 18  1  0
 21 20  1  0
 22 24  1  0
 22 21  1  0
 23 22  2  0
M  END
$$$$
