KHG.pdb
     RDKit          3D

 24 24  0  0  1  0  0  0  0  0999 V2000
    8.8981  -16.8449   16.8134 N   0  0  0  0  0  0  0  0  0  0  0  0
    9.5196  -17.6291   17.7998 C   0  0  1  0  0  0  0  0  0  0  0  0
   10.6155  -18.5496   17.4325 C   0  0  0  0  0  0  0  0  0  0  0  0
   10.4057  -19.9408   17.0781 C   0  0  0  0  0  0  0  0  0  0  0  0
   11.4147  -20.9277   16.7555 C   0  0  0  0  0  0  0  0  0  0  0  0
   11.1240  -22.3079   16.3410 C   0  0  0  0  0  0  0  0  0  0  0  0
   12.4846  -22.9607   16.2440 N   0  0  0  0  0  0  0  0  0  0  0  0
    9.9486  -16.7006   18.9233 C   0  0  0  0  0  0  0  0  0  0  0  0
   10.6750  -15.7348   18.6216 O   0  0  0  0  0  0  0  0  0  0  0  0
    9.5574  -16.8962   20.2643 N   0  0  0  0  0  0  0  0  0  0  0  0
   10.0754  -16.0505   21.3529 C   0  0  1  0  0  0  0  0  0  0  0  0
    8.8801  -15.3445   21.9149 C   0  0  0  0  0  0  0  0  0  0  0  0
    8.1538  -14.4389   21.0353 C   0  0  0  0  0  0  0  0  0  0  0  0
    6.8671  -14.5426   20.5048 C   0  0  0  0  0  0  0  0  0  0  0  0
    6.6492  -13.4776   19.7113 N   0  0  0  0  0  0  0  0  0  0  0  0
    7.7385  -12.6999   19.7116 C   0  0  0  0  0  0  0  0  0  0  0  0
    8.6346  -13.2781   20.5038 N   0  0  0  0  0  0  0  0  0  0  0  0
   10.7934  -16.8424   22.3442 C   0  0  0  0  0  0  0  0  0  0  0  0
   10.3602  -17.9291   22.8272 O   0  0  0  0  0  0  0  0  0  0  0  0
   12.0612  -16.4011   22.8154 N   0  0  0  0  0  0  0  0  0  0  0  0
   12.8582  -17.1820   23.7323 C   0  0  0  0  0  0  0  0  0  0  0  0
   14.1710  -16.5860   24.0486 C   0  0  0  0  0  0  0  0  0  0  0  0
   14.6122  -15.6457   23.3494 O   0  0  0  0  0  0  0  0  0  0  0  0
   14.9150  -17.0648   25.1166 O   0  0  0  0  0  0  0  0  0  0  0  0
  2  1  1  6
  3  2  1  0
  4  3  1  0
  5  6  1  0
  5  4  1  0
  6  7  1  0
  8  2  1  0
  9  8  2  0
 10  8  1  0
 11 10  1  0
 11 12  1  1
 12 13  1  0
 13 14  2  0
 15 14  1  0
 16 15  1  0
 17 16  2  0
 17 13  1  0
 18 11  1  0
 19 18  2  0
 20 18  1  0
 21 20  1  0
 22 24  1  0
 22 21  1  0
 23 22  2  0
M  END
$$$$
