KHG.pdb
     RDKit          3D

 24 24  0  0  1  0  0  0  0  0999 V2000
    6.4293  -13.3448   20.9195 N   0  0  0  0  0  0  0  0  0  0  0  0
    7.5497  -14.1716   20.7319 C   0  0  1  0  0  0  0  0  0  0  0  0
    8.5356  -13.8549   19.6779 C   0  0  0  0  0  0  0  0  0  0  0  0
    8.3858  -14.2650   18.2943 C   0  0  0  0  0  0  0  0  0  0  0  0
    8.4599  -15.6096   17.7628 C   0  0  0  0  0  0  0  0  0  0  0  0
    8.2900  -15.9522   16.3433 C   0  0  0  0  0  0  0  0  0  0  0  0
    8.3351  -17.4635   16.3182 N   0  0  0  0  0  0  0  0  0  0  0  0
    8.2332  -14.3330   22.0792 C   0  0  0  0  0  0  0  0  0  0  0  0
    8.6659  -13.3023   22.6285 O   0  0  0  0  0  0  0  0  0  0  0  0
    8.3878  -15.5852   22.7097 N   0  0  0  0  0  0  0  0  0  0  0  0
    9.1092  -15.7256   23.9858 C   0  0  1  0  0  0  0  0  0  0  0  0
    8.0492  -15.7602   25.0433 C   0  0  0  0  0  0  0  0  0  0  0  0
    7.4458  -14.4948   25.4380 C   0  0  0  0  0  0  0  0  0  0  0  0
    6.3314  -13.8320   24.9215 C   0  0  0  0  0  0  0  0  0  0  0  0
    6.1831  -12.6714   25.5865 N   0  0  0  0  0  0  0  0  0  0  0  0
    7.1523  -12.5640   26.5033 C   0  0  0  0  0  0  0  0  0  0  0  0
    7.9041  -13.6555   26.4109 N   0  0  0  0  0  0  0  0  0  0  0  0
    9.9604  -16.9090   23.9868 C   0  0  0  0  0  0  0  0  0  0  0  0
    9.7875  -17.9029   23.2224 O   0  0  0  0  0  0  0  0  0  0  0  0
   11.0631  -16.9838   24.8826 N   0  0  0  0  0  0  0  0  0  0  0  0
   12.3671  -16.4617   24.5467 C   0  0  0  0  0  0  0  0  0  0  0  0
   13.0573  -17.2067   23.4757 C   0  0  0  0  0  0  0  0  0  0  0  0
   13.8912  -18.0925   23.7717 O   0  0  0  0  0  0  0  0  0  0  0  0
   12.7842  -16.9278   22.1448 O   0  0  0  0  0  0  0  0  0  0  0  0
  2  1  1  1
  3  2  1  0
  4  3  1  0
  5  6  1  0
  5  4  1  0
  6  7  1  0
  8  2  1  0
  9  8  2  0
 10  8  1  0
 11 10  1  0
 11 12  1  1
 12 13  1  0
 13 14  2  0
 15 14  1  0
 16 15  1  0
 17 16  2  0
 17 13  1  0
 18 11  1  0
 19 18  2  0
 20 18  1  0
 21 20  1  0
 22 24  1  0
 22 21  1  0
 23 22  2  0
M  END
$$$$
