KHG.pdb
     RDKit          3D

 24 24  0  0  1  0  0  0  0  0999 V2000
    7.5309  -19.1414   18.3019 N   0  0  0  0  0  0  0  0  0  0  0  0
    7.7013  -19.1445   19.6965 C   0  0  1  0  0  0  0  0  0  0  0  0
    8.0512  -20.3975   20.3971 C   0  0  0  0  0  0  0  0  0  0  0  0
    8.2579  -21.6624   19.7170 C   0  0  0  0  0  0  0  0  0  0  0  0
    8.4342  -22.9666   20.3204 C   0  0  0  0  0  0  0  0  0  0  0  0
    8.7112  -24.1991   19.5685 C   0  0  0  0  0  0  0  0  0  0  0  0
    8.8846  -25.2548   20.6371 N   0  0  0  0  0  0  0  0  0  0  0  0
    8.6858  -18.0401   20.0423 C   0  0  0  0  0  0  0  0  0  0  0  0
    9.6726  -17.8986   19.2956 O   0  0  0  0  0  0  0  0  0  0  0  0
    8.5182  -17.1918   21.1567 N   0  0  0  0  0  0  0  0  0  0  0  0
    9.5044  -16.1509   21.4925 C   0  0  1  0  0  0  0  0  0  0  0  0
    8.7126  -14.8929   21.6746 C   0  0  0  0  0  0  0  0  0  0  0  0
    8.2071  -14.2326   20.4788 C   0  0  0  0  0  0  0  0  0  0  0  0
    8.3918  -14.5498   19.1323 C   0  0  0  0  0  0  0  0  0  0  0  0
    7.7612  -13.6223   18.3884 N   0  0  0  0  0  0  0  0  0  0  0  0
    7.1830  -12.7283   19.1994 C   0  0  0  0  0  0  0  0  0  0  0  0
    7.4521  -13.0968   20.4471 N   0  0  0  0  0  0  0  0  0  0  0  0
   10.2812  -16.5164   22.6707 C   0  0  0  0  0  0  0  0  0  0  0  0
    9.7741  -16.9773   23.7348 O   0  0  0  0  0  0  0  0  0  0  0  0
   11.6957  -16.3645   22.6577 N   0  0  0  0  0  0  0  0  0  0  0  0
   12.5165  -16.6816   23.8029 C   0  0  0  0  0  0  0  0  0  0  0  0
   13.9416  -16.3342   23.6381 C   0  0  0  0  0  0  0  0  0  0  0  0
   14.3570  -15.9185   22.5326 O   0  0  0  0  0  0  0  0  0  0  0  0
   14.8194  -16.4673   24.7037 O   0  0  0  0  0  0  0  0  0  0  0  0
  2  1  1  6
  3  2  1  0
  4  3  1  0
  5  6  1  0
  5  4  1  0
  6  7  1  0
  8  2  1  0
  9  8  2  0
 10  8  1  0
 11 10  1  0
 11 12  1  1
 12 13  1  0
 13 14  2  0
 15 14  1  0
 16 15  1  0
 17 16  2  0
 17 13  1  0
 18 11  1  0
 19 18  2  0
 20 18  1  0
 21 20  1  0
 22 24  1  0
 22 21  1  0
 23 22  2  0
M  END
$$$$
