KHG.pdb
     RDKit          3D

 24 24  0  0  1  0  0  0  0  0999 V2000
   12.9884  -16.3823   13.3889 N   0  0  0  0  0  0  0  0  0  0  0  0
   12.1233  -17.0060   14.3035 C   0  0  1  0  0  0  0  0  0  0  0  0
   12.3739  -18.3988   14.7285 C   0  0  0  0  0  0  0  0  0  0  0  0
   13.5488  -19.1546   14.3368 C   0  0  0  0  0  0  0  0  0  0  0  0
   13.8710  -20.5223   14.6857 C   0  0  0  0  0  0  0  0  0  0  0  0
   15.0899  -21.2237   14.2572 C   0  0  0  0  0  0  0  0  0  0  0  0
   14.9757  -22.5900   14.8952 N   0  0  0  0  0  0  0  0  0  0  0  0
   11.9893  -16.0901   15.5084 C   0  0  0  0  0  0  0  0  0  0  0  0
   13.0109  -15.4838   15.8826 O   0  0  0  0  0  0  0  0  0  0  0  0
   10.7717  -15.9114   16.1976 N   0  0  0  0  0  0  0  0  0  0  0  0
   10.6688  -15.0269   17.3706 C   0  0  1  0  0  0  0  0  0  0  0  0
    9.2128  -14.7011   17.4998 C   0  0  0  0  0  0  0  0  0  0  0  0
    8.8051  -13.8551   18.6131 C   0  0  0  0  0  0  0  0  0  0  0  0
    9.5601  -13.3224   19.6591 C   0  0  0  0  0  0  0  0  0  0  0  0
    8.7345  -12.6354   20.4701 N   0  0  0  0  0  0  0  0  0  0  0  0
    7.4876  -12.7061   19.9889 C   0  0  0  0  0  0  0  0  0  0  0  0
    7.5346  -13.4357   18.8797 N   0  0  0  0  0  0  0  0  0  0  0  0
   11.2241  -15.6582   18.5614 C   0  0  0  0  0  0  0  0  0  0  0  0
   10.8292  -16.7699   19.0197 O   0  0  0  0  0  0  0  0  0  0  0  0
   12.2769  -15.0183   19.2730 N   0  0  0  0  0  0  0  0  0  0  0  0
   12.9031  -15.6173   20.4283 C   0  0  0  0  0  0  0  0  0  0  0  0
   13.9722  -14.7955   21.0287 C   0  0  0  0  0  0  0  0  0  0  0  0
   14.4094  -13.7968   20.4130 O   0  0  0  0  0  0  0  0  0  0  0  0
   14.4920  -15.1272   22.2710 O   0  0  0  0  0  0  0  0  0  0  0  0
  2  1  1  6
  3  2  1  0
  4  3  1  0
  5  6  1  0
  5  4  1  0
  6  7  1  0
  8  2  1  0
  9  8  2  0
 10  8  1  0
 11 10  1  0
 11 12  1  1
 12 13  1  0
 13 14  2  0
 15 14  1  0
 16 15  1  0
 17 16  2  0
 17 13  1  0
 18 11  1  0
 19 18  2  0
 20 18  1  0
 21 20  1  0
 22 24  1  0
 22 21  1  0
 23 22  2  0
M  END
$$$$
