KHG.pdb
     RDKit          3D

 24 24  0  0  1  0  0  0  0  0999 V2000
    8.1004  -15.8895   20.6425 N   0  0  0  0  0  0  0  0  0  0  0  0
    8.7138  -14.6842   21.0233 C   0  0  1  0  0  0  0  0  0  0  0  0
    8.0721  -13.3927   20.7015 C   0  0  0  0  0  0  0  0  0  0  0  0
    7.9468  -12.8772   19.3511 C   0  0  0  0  0  0  0  0  0  0  0  0
    7.8974  -13.6382   18.1205 C   0  0  0  0  0  0  0  0  0  0  0  0
    7.7981  -13.0438   16.7796 C   0  0  0  0  0  0  0  0  0  0  0  0
    7.7388  -14.2343   15.8491 N   0  0  0  0  0  0  0  0  0  0  0  0
    9.0272  -14.7760   22.5071 C   0  0  0  0  0  0  0  0  0  0  0  0
    9.6950  -13.8522   23.0092 O   0  0  0  0  0  0  0  0  0  0  0  0
    8.5942  -15.8504   23.3120 N   0  0  0  0  0  0  0  0  0  0  0  0
    8.9516  -15.9426   24.7377 C   0  0  1  0  0  0  0  0  0  0  0  0
    7.6742  -15.7164   25.4861 C   0  0  0  0  0  0  0  0  0  0  0  0
    7.2527  -14.3394   25.7042 C   0  0  0  0  0  0  0  0  0  0  0  0
    7.8858  -13.1425   25.3657 C   0  0  0  0  0  0  0  0  0  0  0  0
    7.1283  -12.1225   25.8095 N   0  0  0  0  0  0  0  0  0  0  0  0
    6.0412  -12.6146   26.4157 C   0  0  0  0  0  0  0  0  0  0  0  0
    6.1198  -13.9391   26.3504 N   0  0  0  0  0  0  0  0  0  0  0  0
    9.5789  -17.2219   25.0457 C   0  0  0  0  0  0  0  0  0  0  0  0
    9.5822  -18.2135   24.2592 O   0  0  0  0  0  0  0  0  0  0  0  0
   10.2404  -17.4008   26.2926 N   0  0  0  0  0  0  0  0  0  0  0  0
   10.6970  -18.6939   26.7454 C   0  0  0  0  0  0  0  0  0  0  0  0
   11.3256  -18.6778   28.0808 C   0  0  0  0  0  0  0  0  0  0  0  0
   10.6624  -18.3078   29.0762 O   0  0  0  0  0  0  0  0  0  0  0  0
   12.6467  -19.0710   28.2344 O   0  0  0  0  0  0  0  0  0  0  0  0
  2  1  1  1
  3  2  1  0
  4  3  1  0
  5  6  1  0
  5  4  1  0
  6  7  1  0
  8  2  1  0
  9  8  2  0
 10  8  1  0
 11 10  1  0
 11 12  1  1
 12 13  1  0
 13 14  2  0
 15 14  1  0
 16 15  1  0
 17 16  2  0
 17 13  1  0
 18 11  1  0
 19 18  2  0
 20 18  1  0
 21 20  1  0
 22 24  1  0
 22 21  1  0
 23 22  2  0
M  END
$$$$
