KHG.pdb
     RDKit          3D

 24 24  0  0  1  0  0  0  0  0999 V2000
    8.4642  -16.5537   18.8753 N   0  0  0  0  0  0  0  0  0  0  0  0
    7.8749  -17.0403   20.0543 C   0  0  1  0  0  0  0  0  0  0  0  0
    7.9621  -18.4771   20.3875 C   0  0  0  0  0  0  0  0  0  0  0  0
    7.9494  -19.5310   19.3904 C   0  0  0  0  0  0  0  0  0  0  0  0
    8.5146  -19.4878   18.0582 C   0  0  0  0  0  0  0  0  0  0  0  0
    8.5044  -20.6151   17.1146 C   0  0  0  0  0  0  0  0  0  0  0  0
    9.1550  -20.0610   15.8671 N   0  0  0  0  0  0  0  0  0  0  0  0
    8.3787  -16.1876   21.2065 C   0  0  0  0  0  0  0  0  0  0  0  0
    9.5075  -15.6746   21.0879 O   0  0  0  0  0  0  0  0  0  0  0  0
    7.6236  -15.9660   22.3771 N   0  0  0  0  0  0  0  0  0  0  0  0
    8.0873  -15.0541   23.4363 C   0  0  1  0  0  0  0  0  0  0  0  0
    6.8439  -14.4901   24.0518 C   0  0  0  0  0  0  0  0  0  0  0  0
    7.0012  -13.5031   25.1112 C   0  0  0  0  0  0  0  0  0  0  0  0
    8.1600  -12.9979   25.7025 C   0  0  0  0  0  0  0  0  0  0  0  0
    7.7999  -12.1331   26.6688 N   0  0  0  0  0  0  0  0  0  0  0  0
    6.4643  -12.0641   26.7205 C   0  0  0  0  0  0  0  0  0  0  0  0
    5.9915  -12.8841   25.7884 N   0  0  0  0  0  0  0  0  0  0  0  0
    8.9404  -15.7451   24.3954 C   0  0  0  0  0  0  0  0  0  0  0  0
    8.5190  -16.6049   25.2230 O   0  0  0  0  0  0  0  0  0  0  0  0
   10.3351  -15.4657   24.4278 N   0  0  0  0  0  0  0  0  0  0  0  0
   11.2421  -16.1653   25.3074 C   0  0  0  0  0  0  0  0  0  0  0  0
   12.6647  -15.8358   25.0927 C   0  0  0  0  0  0  0  0  0  0  0  0
   12.9918  -15.0700   24.1577 O   0  0  0  0  0  0  0  0  0  0  0  0
   13.6376  -16.3720   25.9231 O   0  0  0  0  0  0  0  0  0  0  0  0
  2  1  1  6
  3  2  1  0
  4  3  1  0
  5  6  1  0
  5  4  1  0
  6  7  1  0
  8  2  1  0
  9  8  2  0
 10  8  1  0
 11 10  1  0
 11 12  1  1
 12 13  1  0
 13 14  2  0
 15 14  1  0
 16 15  1  0
 17 16  2  0
 17 13  1  0
 18 11  1  0
 19 18  2  0
 20 18  1  0
 21 20  1  0
 22 24  1  0
 22 21  1  0
 23 22  2  0
M  END
$$$$
