KHG.pdb
     RDKit          3D

 24 24  0  0  1  0  0  0  0  0999 V2000
    7.4596  -15.7197   19.9436 N   0  0  0  0  0  0  0  0  0  0  0  0
    8.5217  -14.8008   19.9830 C   0  0  1  0  0  0  0  0  0  0  0  0
    8.3365  -13.4318   19.4590 C   0  0  0  0  0  0  0  0  0  0  0  0
    7.8029  -13.1462   18.1404 C   0  0  0  0  0  0  0  0  0  0  0  0
    8.3063  -13.6169   16.8672 C   0  0  0  0  0  0  0  0  0  0  0  0
    7.6635  -13.3545   15.5714 C   0  0  0  0  0  0  0  0  0  0  0  0
    8.5242  -14.0956   14.5731 N   0  0  0  0  0  0  0  0  0  0  0  0
    9.0479  -14.7665   21.4079 C   0  0  0  0  0  0  0  0  0  0  0  0
   10.0457  -14.0556   21.6326 O   0  0  0  0  0  0  0  0  0  0  0  0
    8.4535  -15.4982   22.4572 N   0  0  0  0  0  0  0  0  0  0  0  0
    9.0834  -15.5985   23.7846 C   0  0  1  0  0  0  0  0  0  0  0  0
    7.9508  -15.6252   24.7641 C   0  0  0  0  0  0  0  0  0  0  0  0
    7.2732  -14.3679   25.0491 C   0  0  0  0  0  0  0  0  0  0  0  0
    7.5924  -13.0671   24.6569 C   0  0  0  0  0  0  0  0  0  0  0  0
    6.6912  -12.2278   25.1998 N   0  0  0  0  0  0  0  0  0  0  0  0
    5.8121  -12.9343   25.9204 C   0  0  0  0  0  0  0  0  0  0  0  0
    6.1637  -14.2121   25.8276 N   0  0  0  0  0  0  0  0  0  0  0  0
    9.9481  -16.7687   23.8744 C   0  0  0  0  0  0  0  0  0  0  0  0
   10.4846  -17.3278   22.8737 O   0  0  0  0  0  0  0  0  0  0  0  0
   10.2323  -17.3395   25.1463 N   0  0  0  0  0  0  0  0  0  0  0  0
   11.4989  -17.9653   25.4457 C   0  0  0  0  0  0  0  0  0  0  0  0
   11.6989  -18.2674   26.8766 C   0  0  0  0  0  0  0  0  0  0  0  0
   10.8143  -17.9590   27.7072 O   0  0  0  0  0  0  0  0  0  0  0  0
   12.8626  -18.8910   27.3015 O   0  0  0  0  0  0  0  0  0  0  0  0
  2  1  1  1
  3  2  1  0
  4  3  1  0
  5  6  1  0
  5  4  1  0
  6  7  1  0
  8  2  1  0
  9  8  2  0
 10  8  1  0
 11 10  1  0
 11 12  1  1
 12 13  1  0
 13 14  2  0
 15 14  1  0
 16 15  1  0
 17 16  2  0
 17 13  1  0
 18 11  1  0
 19 18  2  0
 20 18  1  0
 21 20  1  0
 22 24  1  0
 22 21  1  0
 23 22  2  0
M  END
$$$$
