KHG.pdb
     RDKit          3D

 24 24  0  0  1  0  0  0  0  0999 V2000
    9.1770  -18.9653   18.5517 N   0  0  0  0  0  0  0  0  0  0  0  0
   10.0373  -18.1040   17.8503 C   0  0  1  0  0  0  0  0  0  0  0  0
    9.5864  -17.4673   16.5955 C   0  0  0  0  0  0  0  0  0  0  0  0
    8.5771  -18.0418   15.7258 C   0  0  0  0  0  0  0  0  0  0  0  0
    8.0315  -17.4684   14.5135 C   0  0  0  0  0  0  0  0  0  0  0  0
    6.9407  -18.0660   13.7298 C   0  0  0  0  0  0  0  0  0  0  0  0
    6.6258  -17.0258   12.6784 N   0  0  0  0  0  0  0  0  0  0  0  0
   10.5455  -17.0615   18.8319 C   0  0  0  0  0  0  0  0  0  0  0  0
   11.4795  -16.3284   18.4556 O   0  0  0  0  0  0  0  0  0  0  0  0
   10.0032  -16.9041   20.1245 N   0  0  0  0  0  0  0  0  0  0  0  0
   10.4974  -15.8715   21.0508 C   0  0  1  0  0  0  0  0  0  0  0  0
    9.2860  -15.0973   21.4705 C   0  0  0  0  0  0  0  0  0  0  0  0
    8.6059  -14.3031   20.4566 C   0  0  0  0  0  0  0  0  0  0  0  0
    8.9289  -14.0930   19.1152 C   0  0  0  0  0  0  0  0  0  0  0  0
    8.0229  -13.2484   18.5888 N   0  0  0  0  0  0  0  0  0  0  0  0
    7.1372  -12.9103   19.5336 C   0  0  0  0  0  0  0  0  0  0  0  0
    7.4895  -13.5427   20.6476 N   0  0  0  0  0  0  0  0  0  0  0  0
   11.2168  -16.4645   22.1714 C   0  0  0  0  0  0  0  0  0  0  0  0
   10.7248  -17.3401   22.9416 O   0  0  0  0  0  0  0  0  0  0  0  0
   12.5547  -16.0632   22.4421 N   0  0  0  0  0  0  0  0  0  0  0  0
   13.3261  -16.6287   23.5241 C   0  0  0  0  0  0  0  0  0  0  0  0
   14.6967  -16.0917   23.6326 C   0  0  0  0  0  0  0  0  0  0  0  0
   15.1268  -15.3032   22.7603 O   0  0  0  0  0  0  0  0  0  0  0  0
   15.5070  -16.4583   24.6969 O   0  0  0  0  0  0  0  0  0  0  0  0
  2  1  1  1
  3  2  1  0
  4  3  1  0
  5  6  1  0
  5  4  1  0
  6  7  1  0
  8  2  1  0
  9  8  2  0
 10  8  1  0
 11 10  1  0
 11 12  1  1
 12 13  1  0
 13 14  2  0
 15 14  1  0
 16 15  1  0
 17 16  2  0
 17 13  1  0
 18 11  1  0
 19 18  2  0
 20 18  1  0
 21 20  1  0
 22 24  1  0
 22 21  1  0
 23 22  2  0
M  END
$$$$
