YCL.pdb
     RDKit          3D

 27 27  0  0  1  0  0  0  0  0999 V2000
   21.9026   -0.6163  -15.2009 O   0  0  0  0  0  0  0  0  0  0  0  0
   21.7229   -1.9702  -15.4225 C   0  0  0  0  0  0  0  0  0  0  0  0
   22.3699   -2.9133  -14.6655 C   0  0  0  0  0  0  0  0  0  0  0  0
   22.1652   -4.2467  -14.9166 C   0  0  0  0  0  0  0  0  0  0  0  0
   21.3176   -4.6797  -15.9200 C   0  0  0  0  0  0  0  0  0  0  0  0
   21.0863   -6.1271  -16.2034 C   0  0  0  0  0  0  0  0  0  0  0  0
   22.4094   -6.7297  -16.6196 C   0  0  2  0  0  0  0  0  0  0  0  0
   22.6949   -6.1991  -17.9612 N   0  0  0  0  0  0  0  0  0  0  0  0
   22.2817   -8.1903  -16.7550 C   0  0  0  0  0  0  0  0  0  0  0  0
   21.8175   -8.7504  -17.8051 O   0  0  0  0  0  0  0  0  0  0  0  0
   20.6631   -3.7475  -16.6859 C   0  0  0  0  0  0  0  0  0  0  0  0
   20.8801   -2.4080  -16.4203 C   0  0  0  0  0  0  0  0  0  0  0  0
   22.6727   -9.0725  -15.7115 N   0  0  0  0  0  0  0  0  0  0  0  0
   22.5576  -10.5048  -15.8130 C   0  0  1  0  0  0  0  0  0  0  0  0
   23.5000  -11.2222  -14.8749 C   0  0  0  0  0  0  0  0  0  0  0  0
   23.1998  -13.0047  -14.9468 S   0  0  0  0  0  0  0  0  0  0  0  0
   21.1543  -10.9412  -15.6312 C   0  0  0  0  0  0  0  0  0  0  0  0
   20.4900  -10.3931  -14.7161 O   0  0  0  0  0  0  0  0  0  0  0  0
   17.9920  -13.6304  -19.2314 C   0  0  0  0  0  0  0  0  0  0  0  0
   18.8611  -12.5145  -18.6590 C   0  0  1  0  0  0  0  0  0  0  0  0
   18.8792  -11.4447  -19.7620 C   0  0  0  0  0  0  0  0  0  0  0  0
   18.2917  -11.9652  -17.3939 C   0  0  0  0  0  0  0  0  0  0  0  0
   19.1143  -12.3386  -16.2163 C   0  0  2  0  0  0  0  0  0  0  0  0
   20.5227  -11.9237  -16.4129 N   0  0  0  0  0  0  0  0  0  0  0  0
   19.0427  -13.7738  -15.9482 C   0  0  0  0  0  0  0  0  0  0  0  0
   20.2368  -14.5261  -16.0483 O   0  0  0  0  0  0  0  0  0  0  0  0
   18.0278  -14.4215  -15.6354 O   0  0  0  0  0  0  0  0  0  0  0  0
  2  3  2  0
  2  1  1  0
  4  3  1  0
  5 11  1  0
  5  4  2  0
  6  5  1  0
  7  9  1  0
  7  6  1  0
  7  8  1  6
  9 10  2  0
 11 12  2  0
 12  2  1  0
 13 14  1  0
 13  9  1  0
 14 15  1  1
 15 16  1  0
 17 24  1  0
 17 14  1  0
 18 17  2  0
 20 19  1  6
 21 20  1  0
 23 22  1  6
 22 20  1  0
 23 24  1  0
 25 23  1  0
 25 26  1  0
 27 25  2  0
M  END
$$$$
