YCL.pdb
     RDKit          3D

 27 27  0  0  1  0  0  0  0  0999 V2000
   28.4681   -6.4129  -20.3680 O   0  0  0  0  0  0  0  0  0  0  0  0
   27.2442   -6.7632  -19.8259 C   0  0  0  0  0  0  0  0  0  0  0  0
   26.8155   -8.0659  -19.8039 C   0  0  0  0  0  0  0  0  0  0  0  0
   25.5949   -8.3727  -19.2572 C   0  0  0  0  0  0  0  0  0  0  0  0
   24.7697   -7.4015  -18.7199 C   0  0  0  0  0  0  0  0  0  0  0  0
   23.4396   -7.7220  -18.1225 C   0  0  0  0  0  0  0  0  0  0  0  0
   23.6225   -7.8231  -16.6247 C   0  0  2  0  0  0  0  0  0  0  0  0
   24.3503   -9.0788  -16.3868 N   0  0  0  0  0  0  0  0  0  0  0  0
   22.3145   -7.9541  -15.9614 C   0  0  0  0  0  0  0  0  0  0  0  0
   21.6288   -9.0315  -15.9892 O   0  0  0  0  0  0  0  0  0  0  0  0
   25.1853   -6.0934  -18.7348 C   0  0  0  0  0  0  0  0  0  0  0  0
   26.4177   -5.8007  -19.2892 C   0  0  0  0  0  0  0  0  0  0  0  0
   21.7320   -6.8750  -15.2428 N   0  0  0  0  0  0  0  0  0  0  0  0
   20.4455   -6.9657  -14.6011 C   0  0  1  0  0  0  0  0  0  0  0  0
   20.5531   -6.9179  -13.0948 C   0  0  0  0  0  0  0  0  0  0  0  0
   22.1936   -7.4789  -12.5780 S   0  0  0  0  0  0  0  0  0  0  0  0
   19.5152   -5.9393  -15.1241 C   0  0  0  0  0  0  0  0  0  0  0  0
   20.0154   -4.9511  -15.7177 O   0  0  0  0  0  0  0  0  0  0  0  0
   17.2777   -2.8830  -18.1637 C   0  0  0  0  0  0  0  0  0  0  0  0
   16.5774   -4.2209  -17.9450 C   0  0  1  0  0  0  0  0  0  0  0  0
   16.2954   -4.7376  -19.3644 C   0  0  0  0  0  0  0  0  0  0  0  0
   17.4389   -5.1781  -17.1914 C   0  0  0  0  0  0  0  0  0  0  0  0
   17.1944   -5.1002  -15.7296 C   0  0  2  0  0  0  0  0  0  0  0  0
   18.1166   -6.0005  -14.9992 N   0  0  0  0  0  0  0  0  0  0  0  0
   15.8070   -5.4239  -15.4023 C   0  0  0  0  0  0  0  0  0  0  0  0
   14.9301   -4.3540  -15.1053 O   0  0  0  0  0  0  0  0  0  0  0  0
   15.3001   -6.5589  -15.3545 O   0  0  0  0  0  0  0  0  0  0  0  0
  2  3  2  0
  2  1  1  0
  4  3  1  0
  5 11  1  0
  5  4  2  0
  6  5  1  0
  7  9  1  0
  7  6  1  0
  7  8  1  6
  9 10  2  0
 11 12  2  0
 12  2  1  0
 13 14  1  0
 13  9  1  0
 14 15  1  1
 15 16  1  0
 17 24  1  0
 17 14  1  0
 18 17  2  0
 20 19  1  6
 21 20  1  0
 23 22  1  6
 22 20  1  0
 23 24  1  0
 25 23  1  0
 25 26  1  0
 27 25  2  0
M  END
$$$$
