YCL.pdb
     RDKit          3D

 27 27  0  0  1  0  0  0  0  0999 V2000
   17.2788  -21.6712  -14.8526 O   0  0  0  0  0  0  0  0  0  0  0  0
   18.0318  -20.5512  -15.1582 C   0  0  0  0  0  0  0  0  0  0  0  0
   18.5404  -20.3498  -16.4159 C   0  0  0  0  0  0  0  0  0  0  0  0
   19.2825  -19.2261  -16.6791 C   0  0  0  0  0  0  0  0  0  0  0  0
   19.5395  -18.2757  -15.7077 C   0  0  0  0  0  0  0  0  0  0  0  0
   20.3454  -17.0491  -15.9811 C   0  0  0  0  0  0  0  0  0  0  0  0
   21.8040  -17.4479  -15.9731 C   0  0  2  0  0  0  0  0  0  0  0  0
   21.8944  -18.6459  -15.1249 N   0  0  0  0  0  0  0  0  0  0  0  0
   22.6126  -16.4021  -15.3247 C   0  0  0  0  0  0  0  0  0  0  0  0
   22.8051  -16.3587  -14.0626 O   0  0  0  0  0  0  0  0  0  0  0  0
   19.0370  -18.4637  -14.4443 C   0  0  0  0  0  0  0  0  0  0  0  0
   18.2913  -19.6011  -14.1951 C   0  0  0  0  0  0  0  0  0  0  0  0
   23.2336  -15.3674  -16.0756 N   0  0  0  0  0  0  0  0  0  0  0  0
   23.9515  -14.2788  -15.4635 C   0  0  1  0  0  0  0  0  0  0  0  0
   25.4462  -14.4071  -15.6426 C   0  0  0  0  0  0  0  0  0  0  0  0
   26.2727  -12.9416  -14.9776 S   0  0  0  0  0  0  0  0  0  0  0  0
   23.4453  -12.9714  -15.9401 C   0  0  0  0  0  0  0  0  0  0  0  0
   23.5264  -12.7314  -17.1710 O   0  0  0  0  0  0  0  0  0  0  0  0
   20.5416   -9.2877  -17.7328 C   0  0  0  0  0  0  0  0  0  0  0  0
   20.4015   -9.3746  -16.2159 C   0  0  1  0  0  0  0  0  0  0  0  0
   18.8911   -9.2411  -15.9666 C   0  0  0  0  0  0  0  0  0  0  0  0
   20.9156  -10.6718  -15.6876 C   0  0  0  0  0  0  0  0  0  0  0  0
   22.3976  -10.6807  -15.6063 C   0  0  2  0  0  0  0  0  0  0  0  0
   22.8834  -11.9883  -15.1077 N   0  0  0  0  0  0  0  0  0  0  0  0
   22.8922   -9.5997  -14.7557 C   0  0  0  0  0  0  0  0  0  0  0  0
   23.4916   -9.9493  -13.5226 O   0  0  0  0  0  0  0  0  0  0  0  0
   22.8441   -8.3809  -14.9996 O   0  0  0  0  0  0  0  0  0  0  0  0
  2  3  2  0
  2  1  1  0
  4  3  1  0
  5 11  1  0
  5  4  2  0
  6  5  1  0
  7  9  1  0
  7  6  1  0
  7  8  1  1
  9 10  2  0
 11 12  2  0
 12  2  1  0
 13 14  1  0
 13  9  1  0
 14 15  1  6
 15 16  1  0
 17 24  1  0
 17 14  1  0
 18 17  2  0
 20 19  1  6
 21 20  1  0
 23 22  1  1
 22 20  1  0
 23 24  1  0
 25 23  1  0
 25 26  1  0
 27 25  2  0
M  END
$$$$
