YCL.pdb
     RDKit          3D

 27 27  0  0  1  0  0  0  0  0999 V2000
   27.5922  -24.5648  -16.9085 O   0  0  0  0  0  0  0  0  0  0  0  0
   27.9374  -25.8660  -17.2281 C   0  0  0  0  0  0  0  0  0  0  0  0
   27.4130  -26.9353  -16.5477 C   0  0  0  0  0  0  0  0  0  0  0  0
   27.7805  -28.2108  -16.8950 C   0  0  0  0  0  0  0  0  0  0  0  0
   28.6735  -28.4605  -17.9211 C   0  0  0  0  0  0  0  0  0  0  0  0
   29.0817  -29.8433  -18.3087 C   0  0  0  0  0  0  0  0  0  0  0  0
   30.0694  -30.3361  -17.2750 C   0  0  2  0  0  0  0  0  0  0  0  0
   31.3701  -29.7590  -17.6465 N   0  0  0  0  0  0  0  0  0  0  0  0
   30.2092  -31.7992  -17.3637 C   0  0  0  0  0  0  0  0  0  0  0  0
   31.0498  -32.3688  -18.1387 O   0  0  0  0  0  0  0  0  0  0  0  0
   29.2067  -27.4004  -18.6111 C   0  0  0  0  0  0  0  0  0  0  0  0
   28.8263  -26.1213  -18.2490 C   0  0  0  0  0  0  0  0  0  0  0  0
   29.4062  -32.6733  -16.5818 N   0  0  0  0  0  0  0  0  0  0  0  0
   29.5226  -34.1078  -16.6428 C   0  0  1  0  0  0  0  0  0  0  0  0
   30.1571  -34.6835  -15.3983 C   0  0  0  0  0  0  0  0  0  0  0  0
   31.7370  -33.8623  -15.0782 S   0  0  0  0  0  0  0  0  0  0  0  0
   28.2157  -34.7365  -16.9414 C   0  0  0  0  0  0  0  0  0  0  0  0
   27.1809  -34.1329  -16.5619 O   0  0  0  0  0  0  0  0  0  0  0  0
   26.8580  -36.4374  -21.6951 C   0  0  0  0  0  0  0  0  0  0  0  0
   26.9360  -35.9529  -20.2503 C   0  0  1  0  0  0  0  0  0  0  0  0
   25.8614  -34.8582  -20.1592 C   0  0  0  0  0  0  0  0  0  0  0  0
   26.6573  -37.0542  -19.2830 C   0  0  0  0  0  0  0  0  0  0  0  0
   26.7430  -36.5833  -17.8781 C   0  0  2  0  0  0  0  0  0  0  0  0
   28.0608  -35.9584  -17.6184 N   0  0  0  0  0  0  0  0  0  0  0  0
   26.5055  -37.6737  -16.9340 C   0  0  0  0  0  0  0  0  0  0  0  0
   27.5721  -38.0616  -16.0891 O   0  0  0  0  0  0  0  0  0  0  0  0
   25.4482  -38.3123  -16.7870 O   0  0  0  0  0  0  0  0  0  0  0  0
  2  3  2  0
  2  1  1  0
  4  3  1  0
  5 11  1  0
  5  4  2  0
  6  5  1  0
  7  9  1  0
  7  6  1  0
  7  8  1  6
  9 10  2  0
 11 12  2  0
 12  2  1  0
 13 14  1  0
 13  9  1  0
 14 15  1  1
 15 16  1  0
 17 24  1  0
 17 14  1  0
 18 17  2  0
 20 19  1  6
 21 20  1  0
 23 22  1  6
 22 20  1  0
 23 24  1  0
 25 23  1  0
 25 26  1  0
 27 25  2  0
M  END
$$$$
