YCL.pdb
     RDKit          3D

 27 27  0  0  1  0  0  0  0  0999 V2000
   20.8628  -12.8467  -20.0790 O   0  0  0  0  0  0  0  0  0  0  0  0
   20.3443  -12.6646  -18.8092 C   0  0  0  0  0  0  0  0  0  0  0  0
   19.8998  -13.7219  -18.0571 C   0  0  0  0  0  0  0  0  0  0  0  0
   19.3922  -13.4999  -16.8018 C   0  0  0  0  0  0  0  0  0  0  0  0
   19.3117  -12.2298  -16.2600 C   0  0  0  0  0  0  0  0  0  0  0  0
   18.7616  -11.9748  -14.8958 C   0  0  0  0  0  0  0  0  0  0  0  0
   17.3045  -11.6013  -15.0518 C   0  0  2  0  0  0  0  0  0  0  0  0
   16.7363  -12.5658  -16.0057 N   0  0  0  0  0  0  0  0  0  0  0  0
   17.1851  -10.2692  -15.6676 C   0  0  0  0  0  0  0  0  0  0  0  0
   16.8482  -10.0981  -16.8878 O   0  0  0  0  0  0  0  0  0  0  0  0
   19.7528  -11.1619  -17.0009 C   0  0  0  0  0  0  0  0  0  0  0  0
   20.2614  -11.4022  -18.2639 C   0  0  0  0  0  0  0  0  0  0  0  0
   17.4414   -9.0815  -14.9300 N   0  0  0  0  0  0  0  0  0  0  0  0
   17.3432   -7.7652  -15.5068 C   0  0  1  0  0  0  0  0  0  0  0  0
   15.9133   -7.2857  -15.5972 C   0  0  0  0  0  0  0  0  0  0  0  0
   15.0528   -7.6225  -14.0418 S   0  0  0  0  0  0  0  0  0  0  0  0
   18.2075   -6.8020  -14.7873 C   0  0  0  0  0  0  0  0  0  0  0  0
   19.0357   -7.2673  -13.9647 O   0  0  0  0  0  0  0  0  0  0  0  0
   21.9432   -4.1666  -13.1868 C   0  0  0  0  0  0  0  0  0  0  0  0
   21.6418   -3.9903  -14.6721 C   0  0  1  0  0  0  0  0  0  0  0  0
   22.9602   -4.3546  -15.3722 C   0  0  0  0  0  0  0  0  0  0  0  0
   20.5357   -4.8857  -15.1209 C   0  0  0  0  0  0  0  0  0  0  0  0
   19.2366   -4.4942  -14.5192 C   0  0  2  0  0  0  0  0  0  0  0  0
   18.1600   -5.4086  -14.9655 N   0  0  0  0  0  0  0  0  0  0  0  0
   18.8926   -3.1112  -14.8445 C   0  0  0  0  0  0  0  0  0  0  0  0
   18.1690   -2.8721  -16.0366 O   0  0  0  0  0  0  0  0  0  0  0  0
   19.1707   -2.0995  -14.1764 O   0  0  0  0  0  0  0  0  0  0  0  0
  2  3  2  0
  2  1  1  0
  4  3  1  0
  5 11  1  0
  5  4  2  0
  6  5  1  0
  7  9  1  0
  7  6  1  0
  7  8  1  6
  9 10  2  0
 11 12  2  0
 12  2  1  0
 13 14  1  0
 13  9  1  0
 14 15  1  1
 15 16  1  0
 17 24  1  0
 17 14  1  0
 18 17  2  0
 20 19  1  1
 21 20  1  0
 23 22  1  6
 22 20  1  0
 23 24  1  0
 25 23  1  0
 25 26  1  0
 27 25  2  0
M  END
$$$$
