YCL.pdb
     RDKit          3D

 27 27  0  0  1  0  0  0  0  0999 V2000
   23.9175  -15.7081  -22.0958 O   0  0  0  0  0  0  0  0  0  0  0  0
   23.3501  -16.4570  -21.0800 C   0  0  0  0  0  0  0  0  0  0  0  0
   22.3986  -15.9293  -20.2449 C   0  0  0  0  0  0  0  0  0  0  0  0
   21.8599  -16.7046  -19.2492 C   0  0  0  0  0  0  0  0  0  0  0  0
   22.2476  -18.0179  -19.0548 C   0  0  0  0  0  0  0  0  0  0  0  0
   21.6695  -18.8720  -17.9753 C   0  0  0  0  0  0  0  0  0  0  0  0
   22.3280  -18.4733  -16.6736 C   0  0  2  0  0  0  0  0  0  0  0  0
   23.6952  -19.0127  -16.7264 N   0  0  0  0  0  0  0  0  0  0  0  0
   21.6524  -19.1290  -15.5415 C   0  0  0  0  0  0  0  0  0  0  0  0
   22.0916  -20.1986  -14.9984 O   0  0  0  0  0  0  0  0  0  0  0  0
   23.1989  -18.5598  -19.8827 C   0  0  0  0  0  0  0  0  0  0  0  0
   23.7319  -17.7656  -20.8812 C   0  0  0  0  0  0  0  0  0  0  0  0
   20.4572  -18.6026  -14.9806 N   0  0  0  0  0  0  0  0  0  0  0  0
   19.7840  -19.2102  -13.8613 C   0  0  1  0  0  0  0  0  0  0  0  0
   19.8714  -18.3633  -12.6131 C   0  0  0  0  0  0  0  0  0  0  0  0
   18.9942  -19.1768  -11.2560 S   0  0  0  0  0  0  0  0  0  0  0  0
   18.3846  -19.5530  -14.2028 C   0  0  0  0  0  0  0  0  0  0  0  0
   17.6698  -18.6468  -14.6997 O   0  0  0  0  0  0  0  0  0  0  0  0
   16.6975  -24.4134  -16.1972 C   0  0  0  0  0  0  0  0  0  0  0  0
   16.8542  -22.9269  -15.8902 C   0  0  1  0  0  0  0  0  0  0  0  0
   16.1653  -22.2219  -17.0690 C   0  0  0  0  0  0  0  0  0  0  0  0
   16.2062  -22.5591  -14.5975 C   0  0  0  0  0  0  0  0  0  0  0  0
   16.3853  -21.1191  -14.2859 C   0  0  2  0  0  0  0  0  0  0  0  0
   17.8093  -20.8203  -14.0074 N   0  0  0  0  0  0  0  0  0  0  0  0
   15.5525  -20.7094  -13.1566 C   0  0  0  0  0  0  0  0  0  0  0  0
   14.3055  -20.1036  -13.4393 O   0  0  0  0  0  0  0  0  0  0  0  0
   15.8231  -20.8364  -11.9491 O   0  0  0  0  0  0  0  0  0  0  0  0
  2  3  2  0
  2  1  1  0
  4  3  1  0
  5 11  1  0
  5  4  2  0
  6  5  1  0
  7  9  1  0
  7  6  1  0
  7  8  1  6
  9 10  2  0
 11 12  2  0
 12  2  1  0
 13 14  1  0
 13  9  1  0
 14 15  1  1
 15 16  1  0
 17 24  1  0
 17 14  1  0
 18 17  2  0
 20 19  1  6
 21 20  1  0
 23 22  1  1
 22 20  1  0
 23 24  1  0
 25 23  1  0
 25 26  1  0
 27 25  2  0
M  END
$$$$
