YCL.pdb
     RDKit          3D

 27 27  0  0  1  0  0  0  0  0999 V2000
   23.4533  -14.9827  -20.4441 O   0  0  0  0  0  0  0  0  0  0  0  0
   23.0392  -16.0199  -19.6273 C   0  0  0  0  0  0  0  0  0  0  0  0
   22.9754  -17.3115  -20.0841 C   0  0  0  0  0  0  0  0  0  0  0  0
   22.5594  -18.3124  -19.2428 C   0  0  0  0  0  0  0  0  0  0  0  0
   22.1970  -18.0618  -17.9317 C   0  0  0  0  0  0  0  0  0  0  0  0
   21.7427  -19.1416  -17.0063 C   0  0  0  0  0  0  0  0  0  0  0  0
   22.7070  -19.1831  -15.8422 C   0  0  2  0  0  0  0  0  0  0  0  0
   23.9419  -19.7934  -16.3574 N   0  0  0  0  0  0  0  0  0  0  0  0
   22.1944  -20.0767  -14.7901 C   0  0  0  0  0  0  0  0  0  0  0  0
   22.3859  -21.3397  -14.8005 O   0  0  0  0  0  0  0  0  0  0  0  0
   22.2557  -16.7741  -17.4604 C   0  0  0  0  0  0  0  0  0  0  0  0
   22.6769  -15.7769  -18.3206 C   0  0  0  0  0  0  0  0  0  0  0  0
   21.4472  -19.5789  -13.6883 N   0  0  0  0  0  0  0  0  0  0  0  0
   20.9700  -20.4211  -12.6215 C   0  0  1  0  0  0  0  0  0  0  0  0
   21.1085  -19.7635  -11.2683 C   0  0  0  0  0  0  0  0  0  0  0  0
   20.4864  -20.8714   -9.9804 S   0  0  0  0  0  0  0  0  0  0  0  0
   19.5843  -20.8745  -12.8793 C   0  0  0  0  0  0  0  0  0  0  0  0
   18.7134  -19.9920  -13.0838 O   0  0  0  0  0  0  0  0  0  0  0  0
   15.7220  -24.6464  -14.0793 C   0  0  0  0  0  0  0  0  0  0  0  0
   16.1981  -24.5081  -12.6362 C   0  0  1  0  0  0  0  0  0  0  0  0
   16.0399  -25.9189  -12.0481 C   0  0  0  0  0  0  0  0  0  0  0  0
   17.6188  -24.0578  -12.5645 C   0  0  0  0  0  0  0  0  0  0  0  0
   17.7687  -22.6480  -13.0037 C   0  0  2  0  0  0  0  0  0  0  0  0
   19.1843  -22.2216  -12.9096 N   0  0  0  0  0  0  0  0  0  0  0  0
   16.9178  -21.7520  -12.2227 C   0  0  0  0  0  0  0  0  0  0  0  0
   15.9299  -21.0097  -12.9119 O   0  0  0  0  0  0  0  0  0  0  0  0
   16.9660  -21.5651  -10.9938 O   0  0  0  0  0  0  0  0  0  0  0  0
  2  3  2  0
  2  1  1  0
  4  3  1  0
  5 11  1  0
  5  4  2  0
  6  5  1  0
  7  9  1  0
  7  6  1  0
  7  8  1  6
  9 10  2  0
 11 12  2  0
 12  2  1  0
 13 14  1  0
 13  9  1  0
 14 15  1  1
 15 16  1  0
 17 24  1  0
 17 14  1  0
 18 17  2  0
 20 19  1  6
 21 20  1  0
 23 22  1  1
 22 20  1  0
 23 24  1  0
 25 23  1  0
 25 26  1  0
 27 25  2  0
M  END
$$$$
