YCL.pdb
     RDKit          3D

 27 27  0  0  1  0  0  0  0  0999 V2000
   18.2722  -18.4693  -13.3332 O   0  0  0  0  0  0  0  0  0  0  0  0
   19.3410  -19.0998  -12.7210 C   0  0  0  0  0  0  0  0  0  0  0  0
   19.3318  -20.4486  -12.4723 C   0  0  0  0  0  0  0  0  0  0  0  0
   20.4114  -21.0367  -11.8631 C   0  0  0  0  0  0  0  0  0  0  0  0
   21.5244  -20.3076  -11.4854 C   0  0  0  0  0  0  0  0  0  0  0  0
   22.7053  -20.9353  -10.8218 C   0  0  0  0  0  0  0  0  0  0  0  0
   23.8313  -20.9733  -11.8306 C   0  0  2  0  0  0  0  0  0  0  0  0
   23.4838  -22.0325  -12.7898 N   0  0  0  0  0  0  0  0  0  0  0  0
   25.0853  -21.3828  -11.1763 C   0  0  0  0  0  0  0  0  0  0  0  0
   25.3310  -22.5920  -10.8459 O   0  0  0  0  0  0  0  0  0  0  0  0
   21.5480  -18.9569  -11.7279 C   0  0  0  0  0  0  0  0  0  0  0  0
   20.4524  -18.3793  -12.3425 C   0  0  0  0  0  0  0  0  0  0  0  0
   26.1076  -20.4438  -10.8708 N   0  0  0  0  0  0  0  0  0  0  0  0
   27.2469  -20.7662  -10.0503 C   0  0  1  0  0  0  0  0  0  0  0  0
   28.5548  -20.4627  -10.7431 C   0  0  0  0  0  0  0  0  0  0  0  0
   29.9367  -21.0316   -9.7235 S   0  0  0  0  0  0  0  0  0  0  0  0
   27.1540  -20.1087   -8.7268 C   0  0  0  0  0  0  0  0  0  0  0  0
   26.5583  -19.0038   -8.6681 O   0  0  0  0  0  0  0  0  0  0  0  0
   29.2340  -22.3179   -3.7342 C   0  0  0  0  0  0  0  0  0  0  0  0
   28.2385  -21.5772   -4.6221 C   0  0  1  0  0  0  0  0  0  0  0  0
   27.2332  -20.9642   -3.6348 C   0  0  0  0  0  0  0  0  0  0  0  0
   28.9046  -20.5155   -5.4317 C   0  0  0  0  0  0  0  0  0  0  0  0
   27.9428  -19.8265   -6.3279 C   0  0  2  0  0  0  0  0  0  0  0  0
   27.6868  -20.6395   -7.5395 N   0  0  0  0  0  0  0  0  0  0  0  0
   28.4206  -18.4969   -6.7028 C   0  0  0  0  0  0  0  0  0  0  0  0
   28.0061  -17.3979   -5.9140 O   0  0  0  0  0  0  0  0  0  0  0  0
   29.1667  -18.2175   -7.6582 O   0  0  0  0  0  0  0  0  0  0  0  0
  2  3  2  0
  2  1  1  0
  4  3  1  0
  5 11  1  0
  5  4  2  0
  6  5  1  0
  7  9  1  0
  7  6  1  0
  7  8  1  6
  9 10  2  0
 11 12  2  0
 12  2  1  0
 13 14  1  0
 13  9  1  0
 14 15  1  6
 15 16  1  0
 17 24  1  0
 17 14  1  0
 18 17  2  0
 20 19  1  1
 21 20  1  0
 23 22  1  1
 22 20  1  0
 23 24  1  0
 25 23  1  0
 25 26  1  0
 27 25  2  0
M  END
$$$$
