YCL.pdb
     RDKit          3D

 27 27  0  0  1  0  0  0  0  0999 V2000
   28.5982  -14.0025  -17.8729 O   0  0  0  0  0  0  0  0  0  0  0  0
   28.0108  -15.0988  -17.2665 C   0  0  0  0  0  0  0  0  0  0  0  0
   27.7663  -15.1271  -15.9172 C   0  0  0  0  0  0  0  0  0  0  0  0
   27.1819  -16.2332  -15.3535 C   0  0  0  0  0  0  0  0  0  0  0  0
   26.8255  -17.3362  -16.1080 C   0  0  0  0  0  0  0  0  0  0  0  0
   26.1892  -18.5457  -15.5070 C   0  0  0  0  0  0  0  0  0  0  0  0
   27.2690  -19.3209  -14.7858 C   0  0  2  0  0  0  0  0  0  0  0  0
   28.0160  -20.0436  -15.8264 N   0  0  0  0  0  0  0  0  0  0  0  0
   26.6643  -20.3374  -13.9088 C   0  0  0  0  0  0  0  0  0  0  0  0
   26.2394  -21.4614  -14.3421 O   0  0  0  0  0  0  0  0  0  0  0  0
   27.0640  -17.3223  -17.4596 C   0  0  0  0  0  0  0  0  0  0  0  0
   27.6535  -16.2004  -18.0124 C   0  0  0  0  0  0  0  0  0  0  0  0
   26.5167  -20.1235  -12.5114 N   0  0  0  0  0  0  0  0  0  0  0  0
   25.5592  -20.8383  -11.7069 C   0  0  1  0  0  0  0  0  0  0  0  0
   25.7546  -20.5895  -10.2295 C   0  0  0  0  0  0  0  0  0  0  0  0
   24.3968  -21.3363   -9.2959 S   0  0  0  0  0  0  0  0  0  0  0  0
   24.1741  -20.5459  -12.1408 C   0  0  0  0  0  0  0  0  0  0  0  0
   23.8156  -19.3417  -12.1655 O   0  0  0  0  0  0  0  0  0  0  0  0
   22.0707  -21.7418  -16.6725 C   0  0  0  0  0  0  0  0  0  0  0  0
   22.2781  -21.0725  -15.3170 C   0  0  1  0  0  0  0  0  0  0  0  0
   21.7543  -19.6417  -15.5167 C   0  0  0  0  0  0  0  0  0  0  0  0
   21.5226  -21.7699  -14.2358 C   0  0  0  0  0  0  0  0  0  0  0  0
   21.8418  -21.2121  -12.8979 C   0  0  2  0  0  0  0  0  0  0  0  0
   23.2409  -21.5243  -12.5245 N   0  0  0  0  0  0  0  0  0  0  0  0
   20.9224  -21.7125  -11.8775 C   0  0  0  0  0  0  0  0  0  0  0  0
   19.6414  -21.1179  -11.7920 O   0  0  0  0  0  0  0  0  0  0  0  0
   21.1449  -22.6219  -11.0585 O   0  0  0  0  0  0  0  0  0  0  0  0
  2  3  2  0
  2  1  1  0
  4  3  1  0
  5 11  1  0
  5  4  2  0
  6  5  1  0
  7  9  1  0
  7  6  1  0
  7  8  1  6
  9 10  2  0
 11 12  2  0
 12  2  1  0
 13 14  1  0
 13  9  1  0
 14 15  1  1
 15 16  1  0
 17 24  1  0
 17 14  1  0
 18 17  2  0
 20 19  1  6
 21 20  1  0
 23 22  1  6
 22 20  1  0
 23 24  1  0
 25 23  1  0
 25 26  1  0
 27 25  2  0
M  END
$$$$
