YCL.pdb
     RDKit          3D

 27 27  0  0  1  0  0  0  0  0999 V2000
   21.8860  -16.0307  -23.3336 O   0  0  0  0  0  0  0  0  0  0  0  0
   21.4248  -15.1592  -22.3628 C   0  0  0  0  0  0  0  0  0  0  0  0
   20.2848  -15.4209  -21.6466 C   0  0  0  0  0  0  0  0  0  0  0  0
   19.8601  -14.5314  -20.6921 C   0  0  0  0  0  0  0  0  0  0  0  0
   20.5506  -13.3636  -20.4225 C   0  0  0  0  0  0  0  0  0  0  0  0
   20.0992  -12.3876  -19.3868 C   0  0  0  0  0  0  0  0  0  0  0  0
   20.9721  -12.5778  -18.1666 C   0  0  2  0  0  0  0  0  0  0  0  0
   20.5502  -13.8483  -17.5577 N   0  0  0  0  0  0  0  0  0  0  0  0
   20.7019  -11.5193  -17.1794 C   0  0  0  0  0  0  0  0  0  0  0  0
   19.6728  -11.5247  -16.4225 O   0  0  0  0  0  0  0  0  0  0  0  0
   21.6933  -13.0882  -21.1312 C   0  0  0  0  0  0  0  0  0  0  0  0
   22.1079  -13.9945  -22.0895 C   0  0  0  0  0  0  0  0  0  0  0  0
   21.5820  -10.4163  -17.0097 N   0  0  0  0  0  0  0  0  0  0  0  0
   21.3257   -9.3461  -16.0801 C   0  0  1  0  0  0  0  0  0  0  0  0
   22.2673   -9.3768  -14.8989 C   0  0  0  0  0  0  0  0  0  0  0  0
   21.9095   -7.9915  -13.7918 S   0  0  0  0  0  0  0  0  0  0  0  0
   21.3350   -8.0326  -16.7635 C   0  0  0  0  0  0  0  0  0  0  0  0
   22.1408   -7.8792  -17.7155 O   0  0  0  0  0  0  0  0  0  0  0  0
   20.3256   -4.7663  -20.8020 C   0  0  0  0  0  0  0  0  0  0  0  0
   20.1906   -4.5421  -19.2988 C   0  0  1  0  0  0  0  0  0  0  0  0
   18.8700   -3.7711  -19.1477 C   0  0  0  0  0  0  0  0  0  0  0  0
   20.1424   -5.8321  -18.5505 C   0  0  0  0  0  0  0  0  0  0  0  0
   20.5205   -5.6531  -17.1265 C   0  0  2  0  0  0  0  0  0  0  0  0
   20.5043   -6.9532  -16.4166 N   0  0  0  0  0  0  0  0  0  0  0  0
   19.6385   -4.6997  -16.4556 C   0  0  0  0  0  0  0  0  0  0  0  0
   18.4809   -5.2047  -15.8178 O   0  0  0  0  0  0  0  0  0  0  0  0
   19.7951   -3.4680  -16.3812 O   0  0  0  0  0  0  0  0  0  0  0  0
  2  3  2  0
  2  1  1  0
  4  3  1  0
  5 11  1  0
  5  4  2  0
  6  5  1  0
  7  9  1  0
  7  6  1  0
  7  8  1  1
  9 10  2  0
 11 12  2  0
 12  2  1  0
 13 14  1  0
 13  9  1  0
 14 15  1  1
 15 16  1  0
 17 24  1  0
 17 14  1  0
 18 17  2  0
 20 19  1  6
 21 20  1  0
 23 22  1  6
 22 20  1  0
 23 24  1  0
 25 23  1  0
 25 26  1  0
 27 25  2  0
M  END
$$$$
