YCL.pdb
     RDKit          3D

 27 27  0  0  1  0  0  0  0  0999 V2000
   28.6361  -13.6539  -17.4862 O   0  0  0  0  0  0  0  0  0  0  0  0
   28.0148  -14.7940  -17.0079 C   0  0  0  0  0  0  0  0  0  0  0  0
   27.6437  -15.8142  -17.8460 C   0  0  0  0  0  0  0  0  0  0  0  0
   27.0297  -16.9288  -17.3328 C   0  0  0  0  0  0  0  0  0  0  0  0
   26.7679  -17.0621  -15.9813 C   0  0  0  0  0  0  0  0  0  0  0  0
   26.1004  -18.2693  -15.4104 C   0  0  0  0  0  0  0  0  0  0  0  0
   27.1497  -19.0639  -14.6655 C   0  0  2  0  0  0  0  0  0  0  0  0
   27.9327  -19.7680  -15.6922 N   0  0  0  0  0  0  0  0  0  0  0  0
   26.5089  -20.0957  -13.8332 C   0  0  0  0  0  0  0  0  0  0  0  0
   26.1203  -21.2193  -14.3005 O   0  0  0  0  0  0  0  0  0  0  0  0
   27.1335  -16.0493  -15.1302 C   0  0  0  0  0  0  0  0  0  0  0  0
   27.7513  -14.9328  -15.6629 C   0  0  0  0  0  0  0  0  0  0  0  0
   26.2831  -19.8983  -12.4439 N   0  0  0  0  0  0  0  0  0  0  0  0
   25.4809  -20.7904  -11.6467 C   0  0  1  0  0  0  0  0  0  0  0  0
   25.6735  -20.5633  -10.1654 C   0  0  0  0  0  0  0  0  0  0  0  0
   24.6105  -21.6877   -9.2280 S   0  0  0  0  0  0  0  0  0  0  0  0
   24.0548  -20.7192  -12.0385 C   0  0  0  0  0  0  0  0  0  0  0  0
   23.5102  -19.5867  -12.0439 O   0  0  0  0  0  0  0  0  0  0  0  0
   19.7138  -22.1871  -15.0096 C   0  0  0  0  0  0  0  0  0  0  0  0
   19.9270  -22.9633  -13.7133 C   0  0  1  0  0  0  0  0  0  0  0  0
   19.3770  -24.3657  -14.0166 C   0  0  0  0  0  0  0  0  0  0  0  0
   21.3700  -23.0268  -13.3390 C   0  0  0  0  0  0  0  0  0  0  0  0
   21.8491  -21.7356  -12.7858 C   0  0  2  0  0  0  0  0  0  0  0  0
   23.2768  -21.8316  -12.4025 N   0  0  0  0  0  0  0  0  0  0  0  0
   21.0451  -21.3145  -11.6398 C   0  0  0  0  0  0  0  0  0  0  0  0
   21.1508  -22.0657  -10.4454 O   0  0  0  0  0  0  0  0  0  0  0  0
   20.2618  -20.3492  -11.5962 O   0  0  0  0  0  0  0  0  0  0  0  0
  2  3  2  0
  2  1  1  0
  4  3  1  0
  5 11  1  0
  5  4  2  0
  6  5  1  0
  7  9  1  0
  7  6  1  0
  7  8  1  6
  9 10  2  0
 11 12  2  0
 12  2  1  0
 13 14  1  0
 13  9  1  0
 14 15  1  1
 15 16  1  0
 17 24  1  0
 17 14  1  0
 18 17  2  0
 20 19  1  6
 21 20  1  0
 23 22  1  1
 22 20  1  0
 23 24  1  0
 25 23  1  0
 25 26  1  0
 27 25  2  0
M  END
$$$$
