YCL.pdb
     RDKit          3D

 27 27  0  0  1  0  0  0  0  0999 V2000
   17.0353  -20.1851  -15.8336 O   0  0  0  0  0  0  0  0  0  0  0  0
   17.3527  -18.8830  -16.1778 C   0  0  0  0  0  0  0  0  0  0  0  0
   17.3799  -18.4731  -17.4864 C   0  0  0  0  0  0  0  0  0  0  0  0
   17.6994  -17.1729  -17.7869 C   0  0  0  0  0  0  0  0  0  0  0  0
   17.9993  -16.2479  -16.8033 C   0  0  0  0  0  0  0  0  0  0  0  0
   18.3487  -14.8307  -17.1168 C   0  0  0  0  0  0  0  0  0  0  0  0
   17.0916  -14.0042  -16.9632 C   0  0  2  0  0  0  0  0  0  0  0  0
   16.1715  -14.4623  -18.0152 N   0  0  0  0  0  0  0  0  0  0  0  0
   17.3803  -12.5861  -17.2347 C   0  0  0  0  0  0  0  0  0  0  0  0
   17.2652  -12.0660  -18.3958 O   0  0  0  0  0  0  0  0  0  0  0  0
   17.9762  -16.6436  -15.4892 C   0  0  0  0  0  0  0  0  0  0  0  0
   17.6523  -17.9570  -15.2030 C   0  0  0  0  0  0  0  0  0  0  0  0
   17.8093  -11.7029  -16.2070 N   0  0  0  0  0  0  0  0  0  0  0  0
   17.9981  -10.2904  -16.4171 C   0  0  1  0  0  0  0  0  0  0  0  0
   16.6930   -9.5295  -16.3950 C   0  0  0  0  0  0  0  0  0  0  0  0
   17.0167   -7.7517  -16.4822 S   0  0  0  0  0  0  0  0  0  0  0  0
   18.9806   -9.7354  -15.4584 C   0  0  0  0  0  0  0  0  0  0  0  0
   18.7087   -9.8197  -14.2344 O   0  0  0  0  0  0  0  0  0  0  0  0
   24.3702  -10.2217  -15.9447 C   0  0  0  0  0  0  0  0  0  0  0  0
   22.9285  -10.0824  -15.4649 C   0  0  1  0  0  0  0  0  0  0  0  0
   22.9130  -10.7901  -14.1010 C   0  0  0  0  0  0  0  0  0  0  0  0
   22.5286   -8.6516  -15.3268 C   0  0  0  0  0  0  0  0  0  0  0  0
   21.1279   -8.5181  -14.8548 C   0  0  2  0  0  0  0  0  0  0  0  0
   20.1907   -9.1240  -15.8290 N   0  0  0  0  0  0  0  0  0  0  0  0
   20.7755   -7.1194  -14.6169 C   0  0  0  0  0  0  0  0  0  0  0  0
   21.3775   -6.4631  -13.5175 O   0  0  0  0  0  0  0  0  0  0  0  0
   19.9889   -6.4270  -15.2871 O   0  0  0  0  0  0  0  0  0  0  0  0
  2  3  2  0
  2  1  1  0
  4  3  1  0
  5 11  1  0
  5  4  2  0
  6  5  1  0
  7  9  1  0
  7  6  1  0
  7  8  1  6
  9 10  2  0
 11 12  2  0
 12  2  1  0
 13 14  1  0
 13  9  1  0
 14 15  1  1
 15 16  1  0
 17 24  1  0
 17 14  1  0
 18 17  2  0
 20 19  1  1
 21 20  1  0
 23 22  1  6
 22 20  1  0
 23 24  1  0
 25 23  1  0
 25 26  1  0
 27 25  2  0
M  END
$$$$
