ICV.pdb
     RDKit          3D

 22 21  0  0  1  0  0  0  0  0999 V2000
    5.9619  -10.7980   26.4950 C   0  0  0  0  0  0  0  0  0  0  0  0
    5.6141  -12.0717   25.7787 C   0  0  0  0  0  0  0  0  0  0  0  0
    6.7567  -13.0454   25.6640 C   0  0  2  0  0  0  0  0  0  0  0  0
    7.9470  -12.3955   24.9790 C   0  0  0  0  0  0  0  0  0  0  0  0
    6.2938  -14.2708   24.9205 C   0  0  2  0  0  0  0  0  0  0  0  0
    5.1388  -14.7996   25.6363 N   0  0  0  0  0  0  0  0  0  0  0  0
    7.3308  -15.3540   24.8871 C   0  0  0  0  0  0  0  0  0  0  0  0
    7.5049  -16.0499   25.9481 O   0  0  0  0  0  0  0  0  0  0  0  0
    8.1290  -15.6716   23.7848 N   0  0  0  0  0  0  0  0  0  0  0  0
    9.2060  -16.6662   23.9249 C   0  0  1  0  0  0  0  0  0  0  0  0
    9.9706  -16.5687   22.6041 C   0  0  0  0  0  0  0  0  0  0  0  0
    8.9591  -16.0788   21.2196 S   0  0  0  0  0  0  0  0  0  0  0  0
   10.1267  -16.2690   25.0117 C   0  0  0  0  0  0  0  0  0  0  0  0
   11.0678  -15.4492   24.7384 O   0  0  0  0  0  0  0  0  0  0  0  0
    9.6231  -14.0621   27.5656 C   0  0  0  0  0  0  0  0  0  0  0  0
   10.0431  -15.3072   28.3048 C   0  0  2  0  0  0  0  0  0  0  0  0
   10.7573  -14.9590   29.5755 C   0  0  0  0  0  0  0  0  0  0  0  0
   10.9068  -16.1760   27.4036 C   0  0  2  0  0  0  0  0  0  0  0  0
   10.0688  -16.7118   26.3446 N   0  0  0  0  0  0  0  0  0  0  0  0
   11.4389  -17.2805   28.2454 C   0  0  0  0  0  0  0  0  0  0  0  0
   10.9093  -18.5544   28.1900 O   0  0  0  0  0  0  0  0  0  0  0  0
   12.3950  -17.0772   29.0366 O   0  0  0  0  0  0  0  0  0  0  0  0
  2  1  1  0
  3  4  1  6
  3  2  1  0
  3  5  1  0
  5  6  1  1
  7  5  1  0
  7  8  2  0
  9  7  1  0
 10  9  1  0
 10 13  1  0
 10 11  1  6
 12 11  1  0
 13 19  1  0
 13 14  2  0
 16 15  1  6
 16 17  1  0
 18 16  1  0
 18 19  1  6
 20 18  1  0
 20 21  1  0
 22 20  2  0
M  END
$$$$
