ICV.pdb
     RDKit          3D

 22 21  0  0  1  0  0  0  0  0999 V2000
    7.5703  -12.0022   19.3079 C   0  0  0  0  0  0  0  0  0  0  0  0
    7.5581  -13.4984   19.4394 C   0  0  0  0  0  0  0  0  0  0  0  0
    7.6796  -13.9931   20.8562 C   0  0  2  0  0  0  0  0  0  0  0  0
    8.9662  -13.4916   21.4899 C   0  0  0  0  0  0  0  0  0  0  0  0
    7.6099  -15.4977   20.8660 C   0  0  2  0  0  0  0  0  0  0  0  0
    6.3646  -15.8766   20.2090 N   0  0  0  0  0  0  0  0  0  0  0  0
    7.5724  -16.0667   22.2532 C   0  0  0  0  0  0  0  0  0  0  0  0
    6.4923  -15.9302   22.9279 O   0  0  0  0  0  0  0  0  0  0  0  0
    8.6260  -16.7410   22.8764 N   0  0  0  0  0  0  0  0  0  0  0  0
    8.4848  -17.1845   24.2735 C   0  0  1  0  0  0  0  0  0  0  0  0
    8.8831  -18.6605   24.2327 C   0  0  0  0  0  0  0  0  0  0  0  0
    9.1849  -19.3709   25.8402 S   0  0  0  0  0  0  0  0  0  0  0  0
    9.4579  -16.4763   25.1327 C   0  0  0  0  0  0  0  0  0  0  0  0
   10.6087  -16.2056   24.6479 O   0  0  0  0  0  0  0  0  0  0  0  0
   10.2003  -13.8684   29.2298 C   0  0  0  0  0  0  0  0  0  0  0  0
    9.5752  -14.1479   27.8866 C   0  0  2  0  0  0  0  0  0  0  0  0
    8.0938  -14.3351   28.0152 C   0  0  0  0  0  0  0  0  0  0  0  0
   10.2345  -15.3631   27.2531 C   0  0  2  0  0  0  0  0  0  0  0  0
    9.2390  -16.0613   26.4577 N   0  0  0  0  0  0  0  0  0  0  0  0
   10.7041  -16.2317   28.3651 C   0  0  0  0  0  0  0  0  0  0  0  0
   11.7935  -15.8903   29.1417 O   0  0  0  0  0  0  0  0  0  0  0  0
   10.1127  -17.3102   28.6269 O   0  0  0  0  0  0  0  0  0  0  0  0
  2  1  1  0
  3  4  1  6
  3  2  1  0
  3  5  1  0
  5  6  1  6
  7  5  1  0
  7  8  2  0
  9  7  1  0
 10  9  1  0
 10 13  1  0
 10 11  1  6
 12 11  1  0
 13 19  1  0
 13 14  2  0
 16 15  1  1
 16 17  1  0
 18 16  1  0
 18 19  1  6
 20 18  1  0
 20 21  1  0
 22 20  2  0
M  END
$$$$
