ICV.pdb
     RDKit          3D

 22 21  0  0  1  0  0  0  0  0999 V2000
    7.8480  -11.2108   27.0609 C   0  0  0  0  0  0  0  0  0  0  0  0
    7.8812  -12.7068   27.1915 C   0  0  0  0  0  0  0  0  0  0  0  0
    6.8922  -13.4239   26.3115 C   0  0  2  0  0  0  0  0  0  0  0  0
    5.4692  -13.0486   26.6893 C   0  0  0  0  0  0  0  0  0  0  0  0
    7.1173  -14.9095   26.4171 C   0  0  2  0  0  0  0  0  0  0  0  0
    8.0243  -15.1302   27.5373 N   0  0  0  0  0  0  0  0  0  0  0  0
    7.7706  -15.4844   25.1955 C   0  0  0  0  0  0  0  0  0  0  0  0
    9.0340  -15.3239   25.0598 O   0  0  0  0  0  0  0  0  0  0  0  0
    7.1107  -16.1885   24.1847 N   0  0  0  0  0  0  0  0  0  0  0  0
    7.8843  -16.7709   23.0752 C   0  0  1  0  0  0  0  0  0  0  0  0
    7.4676  -18.2423   23.0689 C   0  0  0  0  0  0  0  0  0  0  0  0
    8.0649  -19.1671   24.4716 S   0  0  0  0  0  0  0  0  0  0  0  0
    7.4593  -16.1741   21.7907 C   0  0  0  0  0  0  0  0  0  0  0  0
    6.2244  -16.2430   21.4705 O   0  0  0  0  0  0  0  0  0  0  0  0
    9.5772  -13.2628   19.6969 C   0  0  0  0  0  0  0  0  0  0  0  0
    8.1017  -13.5248   19.5319 C   0  0  2  0  0  0  0  0  0  0  0  0
    7.3092  -12.7913   20.5712 C   0  0  0  0  0  0  0  0  0  0  0  0
    7.8339  -15.0209   19.5843 C   0  0  2  0  0  0  0  0  0  0  0  0
    8.2957  -15.5238   20.8668 N   0  0  0  0  0  0  0  0  0  0  0  0
    8.6130  -15.6406   18.4795 C   0  0  0  0  0  0  0  0  0  0  0  0
    8.2289  -15.5109   17.1596 O   0  0  0  0  0  0  0  0  0  0  0  0
    9.6521  -16.3051   18.7249 O   0  0  0  0  0  0  0  0  0  0  0  0
  2  1  1  0
  3  4  1  1
  3  2  1  0
  3  5  1  0
  5  6  1  1
  7  5  1  0
  7  8  2  0
  9  7  1  0
 10  9  1  0
 10 13  1  0
 10 11  1  6
 12 11  1  0
 13 19  1  0
 13 14  2  0
 16 15  1  1
 16 17  1  0
 18 16  1  0
 18 19  1  1
 20 18  1  0
 20 21  1  0
 22 20  2  0
M  END
$$$$
