ICV.pdb
     RDKit          3D

 22 21  0  0  1  0  0  0  0  0999 V2000
    6.7519  -17.2664   19.2426 C   0  0  0  0  0  0  0  0  0  0  0  0
    6.6744  -15.8695   19.7894 C   0  0  0  0  0  0  0  0  0  0  0  0
    7.3717  -15.6859   21.1111 C   0  0  2  0  0  0  0  0  0  0  0  0
    6.8437  -16.6748   22.1367 C   0  0  0  0  0  0  0  0  0  0  0  0
    7.1946  -14.2636   21.5742 C   0  0  2  0  0  0  0  0  0  0  0  0
    7.7072  -13.3987   20.5181 N   0  0  0  0  0  0  0  0  0  0  0  0
    7.9753  -13.9581   22.8179 C   0  0  0  0  0  0  0  0  0  0  0  0
    9.2533  -13.9440   22.7349 O   0  0  0  0  0  0  0  0  0  0  0  0
    7.4201  -13.6833   24.0706 N   0  0  0  0  0  0  0  0  0  0  0  0
    8.2883  -13.6313   25.2590 C   0  0  1  0  0  0  0  0  0  0  0  0
    7.4386  -12.9063   26.3036 C   0  0  0  0  0  0  0  0  0  0  0  0
    5.7133  -13.3556   26.2680 S   0  0  0  0  0  0  0  0  0  0  0  0
    8.5501  -14.9985   25.7577 C   0  0  0  0  0  0  0  0  0  0  0  0
    7.5977  -15.8493   25.7200 O   0  0  0  0  0  0  0  0  0  0  0  0
   11.1687  -17.2866   24.5617 C   0  0  0  0  0  0  0  0  0  0  0  0
   11.2809  -17.3326   26.0645 C   0  0  2  0  0  0  0  0  0  0  0  0
   11.6267  -18.7138   26.5325 C   0  0  0  0  0  0  0  0  0  0  0  0
    9.9865  -16.8419   26.6942 C   0  0  2  0  0  0  0  0  0  0  0  0
    9.7685  -15.4666   26.2796 N   0  0  0  0  0  0  0  0  0  0  0  0
   10.1673  -16.9109   28.1687 C   0  0  0  0  0  0  0  0  0  0  0  0
    9.9836  -18.0873   28.8678 O   0  0  0  0  0  0  0  0  0  0  0  0
   10.4956  -15.8869   28.8208 O   0  0  0  0  0  0  0  0  0  0  0  0
  2  1  1  0
  3  4  1  1
  3  2  1  0
  3  5  1  0
  5  6  1  6
  7  5  1  0
  7  8  2  0
  9  7  1  0
 10  9  1  0
 10 13  1  0
 10 11  1  1
 12 11  1  0
 13 19  1  0
 13 14  2  0
 16 15  1  6
 16 17  1  0
 18 16  1  0
 18 19  1  1
 20 18  1  0
 20 21  1  0
 22 20  2  0
M  END
$$$$
