ICV.pdb
     RDKit          3D

 22 21  0  0  1  0  0  0  0  0999 V2000
    4.9873  -11.6689   27.8224 C   0  0  0  0  0  0  0  0  0  0  0  0
    5.3690  -12.6298   26.7328 C   0  0  0  0  0  0  0  0  0  0  0  0
    6.8527  -12.7435   26.5040 C   0  0  2  0  0  0  0  0  0  0  0  0
    7.4382  -11.3980   26.1100 C   0  0  0  0  0  0  0  0  0  0  0  0
    7.1156  -13.7888   25.4518 C   0  0  2  0  0  0  0  0  0  0  0  0
    6.4077  -14.9973   25.8575 N   0  0  0  0  0  0  0  0  0  0  0  0
    8.5688  -14.1416   25.3364 C   0  0  0  0  0  0  0  0  0  0  0  0
    9.4205  -13.1852   25.3490 O   0  0  0  0  0  0  0  0  0  0  0  0
    9.0761  -15.4383   25.2171 N   0  0  0  0  0  0  0  0  0  0  0  0
   10.5294  -15.6466   25.1021 C   0  0  1  0  0  0  0  0  0  0  0  0
   11.0840  -15.1030   26.4196 C   0  0  0  0  0  0  0  0  0  0  0  0
   10.2569  -15.7369   27.8666 S   0  0  0  0  0  0  0  0  0  0  0  0
   10.8329  -17.0927   25.0452 C   0  0  0  0  0  0  0  0  0  0  0  0
   10.1301  -17.8872   25.7573 O   0  0  0  0  0  0  0  0  0  0  0  0
   13.2814  -18.4603   22.0036 C   0  0  0  0  0  0  0  0  0  0  0  0
   12.0464  -19.2216   22.4140 C   0  0  2  0  0  0  0  0  0  0  0  0
   10.8450  -18.7370   21.6604 C   0  0  0  0  0  0  0  0  0  0  0  0
   11.8429  -19.1038   23.9165 C   0  0  2  0  0  0  0  0  0  0  0  0
   11.8385  -17.6942   24.2687 N   0  0  0  0  0  0  0  0  0  0  0  0
   12.9908  -19.7913   24.5656 C   0  0  0  0  0  0  0  0  0  0  0  0
   13.1308  -21.1643   24.5254 O   0  0  0  0  0  0  0  0  0  0  0  0
   13.8710  -19.1300   25.1733 O   0  0  0  0  0  0  0  0  0  0  0  0
  2  1  1  0
  3  4  1  6
  3  2  1  0
  3  5  1  0
  5  6  1  1
  7  5  1  0
  7  8  2  0
  9  7  1  0
 10  9  1  0
 10 13  1  0
 10 11  1  1
 12 11  1  0
 13 19  1  0
 13 14  2  0
 16 15  1  6
 16 17  1  0
 18 16  1  0
 18 19  1  1
 20 18  1  0
 20 21  1  0
 22 20  2  0
M  END
$$$$
