ICV.pdb
     RDKit          3D

 22 21  0  0  1  0  0  0  0  0999 V2000
    7.4265  -12.1246   19.3695 C   0  0  0  0  0  0  0  0  0  0  0  0
    7.6538  -13.6037   19.4999 C   0  0  0  0  0  0  0  0  0  0  0  0
    7.7306  -14.0919   20.9221 C   0  0  2  0  0  0  0  0  0  0  0  0
    8.8693  -13.4098   21.6614 C   0  0  0  0  0  0  0  0  0  0  0  0
    7.8890  -15.5897   20.9265 C   0  0  2  0  0  0  0  0  0  0  0  0
    6.7154  -16.1500   20.2670 N   0  0  0  0  0  0  0  0  0  0  0  0
    7.9372  -16.1629   22.3117 C   0  0  0  0  0  0  0  0  0  0  0  0
    6.8466  -16.2028   22.9820 O   0  0  0  0  0  0  0  0  0  0  0  0
    9.0824  -16.6631   22.9373 N   0  0  0  0  0  0  0  0  0  0  0  0
    9.0052  -17.1418   24.3278 C   0  0  1  0  0  0  0  0  0  0  0  0
    9.6621  -18.5220   24.2785 C   0  0  0  0  0  0  0  0  0  0  0  0
   10.0740  -19.1825   25.8828 S   0  0  0  0  0  0  0  0  0  0  0  0
    9.8246  -16.2813   25.2080 C   0  0  0  0  0  0  0  0  0  0  0  0
   10.9482  -15.8611   24.7682 O   0  0  0  0  0  0  0  0  0  0  0  0
    8.4344  -14.2104   28.6115 C   0  0  0  0  0  0  0  0  0  0  0  0
    9.6631  -13.8509   27.8152 C   0  0  2  0  0  0  0  0  0  0  0  0
    9.3071  -12.9847   26.6452 C   0  0  0  0  0  0  0  0  0  0  0  0
   10.3787  -15.1169   27.3703 C   0  0  2  0  0  0  0  0  0  0  0  0
    9.4837  -15.8696   26.5081 N   0  0  0  0  0  0  0  0  0  0  0  0
   10.6848  -15.8974   28.5986 C   0  0  0  0  0  0  0  0  0  0  0  0
   11.6144  -15.4618   29.5219 O   0  0  0  0  0  0  0  0  0  0  0  0
   10.0970  -16.9853   28.8274 O   0  0  0  0  0  0  0  0  0  0  0  0
  2  1  1  0
  3  4  1  6
  3  2  1  0
  3  5  1  0
  5  6  1  6
  7  5  1  0
  7  8  2  0
  9  7  1  0
 10  9  1  0
 10 13  1  0
 10 11  1  6
 12 11  1  0
 13 19  1  0
 13 14  2  0
 16 15  1  6
 16 17  1  0
 18 16  1  0
 18 19  1  6
 20 18  1  0
 20 21  1  0
 22 20  2  0
M  END
$$$$
