ICV.pdb
     RDKit          3D

 22 21  0  0  1  0  0  0  0  0999 V2000
   -7.7861  -77.1932   13.4693 C   0  0  0  0  0  0  0  0  0  0  0  0
   -8.0959  -76.3047   14.6401 C   0  0  0  0  0  0  0  0  0  0  0  0
   -7.7356  -74.8584   14.4280 C   0  0  2  0  0  0  0  0  0  0  0  0
   -8.2227  -74.3788   13.0711 C   0  0  0  0  0  0  0  0  0  0  0  0
   -6.2454  -74.6905   14.5699 C   0  0  2  0  0  0  0  0  0  0  0  0
   -6.0102  -73.3534   15.1017 N   0  0  0  0  0  0  0  0  0  0  0  0
   -5.5249  -74.7808   13.2576 C   0  0  0  0  0  0  0  0  0  0  0  0
   -6.2275  -74.9307   12.1973 O   0  0  0  0  0  0  0  0  0  0  0  0
   -4.1388  -74.7124   13.0930 N   0  0  0  0  0  0  0  0  0  0  0  0
   -3.3158  -74.0288   14.1049 C   0  0  1  0  0  0  0  0  0  0  0  0
   -2.1206  -74.9629   14.2990 C   0  0  0  0  0  0  0  0  0  0  0  0
   -2.4116  -76.2718   15.4746 S   0  0  0  0  0  0  0  0  0  0  0  0
   -2.8075  -72.7487   13.5666 C   0  0  0  0  0  0  0  0  0  0  0  0
   -2.2458  -71.9330   14.3739 O   0  0  0  0  0  0  0  0  0  0  0  0
   -1.7219  -75.2091   10.1961 C   0  0  0  0  0  0  0  0  0  0  0  0
   -1.9977  -74.4406   11.4636 C   0  0  2  0  0  0  0  0  0  0  0  0
   -3.2184  -74.9690   12.1539 C   0  0  0  0  0  0  0  0  0  0  0  0
   -2.1362  -72.9591   11.1493 C   0  0  2  0  0  0  0  0  0  0  0  0
   -2.8811  -72.3303   12.2267 N   0  0  0  0  0  0  0  0  0  0  0  0
   -2.8927  -72.8546    9.8732 C   0  0  0  0  0  0  0  0  0  0  0  0
   -2.2704  -72.5235    8.6860 O   0  0  0  0  0  0  0  0  0  0  0  0
   -4.1318  -73.0679    9.8458 O   0  0  0  0  0  0  0  0  0  0  0  0
  2  1  1  0
  3  4  1  6
  3  2  1  0
  3  5  1  0
  5  6  1  6
  7  5  1  0
  7  8  2  0
  9  7  1  0
 10  9  1  0
 10 13  1  0
 10 11  1  6
 12 11  1  0
 13 19  1  0
 13 14  2  0
 16 15  1  6
 16 17  1  0
 18 16  1  0
 18 19  1  1
 20 18  1  0
 20 21  1  0
 22 20  2  0
M  END
$$$$
