ICV.pdb
     RDKit          3D

 22 21  0  0  1  0  0  0  0  0999 V2000
    7.4475  -11.9951   19.4750 C   0  0  0  0  0  0  0  0  0  0  0  0
    7.6714  -13.4803   19.4821 C   0  0  0  0  0  0  0  0  0  0  0  0
    7.7892  -14.0788   20.8585 C   0  0  2  0  0  0  0  0  0  0  0  0
    8.9348  -13.4387   21.6243 C   0  0  0  0  0  0  0  0  0  0  0  0
    7.9701  -15.5694   20.7396 C   0  0  2  0  0  0  0  0  0  0  0  0
    6.8154  -16.0881   20.0160 N   0  0  0  0  0  0  0  0  0  0  0  0
    8.0057  -16.2566   22.0723 C   0  0  0  0  0  0  0  0  0  0  0  0
    6.9117  -16.3396   22.7332 O   0  0  0  0  0  0  0  0  0  0  0  0
    9.1423  -16.8206   22.6580 N   0  0  0  0  0  0  0  0  0  0  0  0
    9.0740  -17.3392   24.0346 C   0  0  1  0  0  0  0  0  0  0  0  0
    9.8665  -18.6457   23.9750 C   0  0  0  0  0  0  0  0  0  0  0  0
   10.2470  -19.3322   25.5762 S   0  0  0  0  0  0  0  0  0  0  0  0
    9.7780  -16.4240   24.9583 C   0  0  0  0  0  0  0  0  0  0  0  0
   10.8992  -15.9353   24.5886 O   0  0  0  0  0  0  0  0  0  0  0  0
    8.4688  -13.3349   26.5476 C   0  0  0  0  0  0  0  0  0  0  0  0
    9.1131  -14.1069   27.6711 C   0  0  2  0  0  0  0  0  0  0  0  0
    9.8057  -13.1826   28.6261 C   0  0  0  0  0  0  0  0  0  0  0  0
   10.0744  -15.1394   27.1032 C   0  0  2  0  0  0  0  0  0  0  0  0
    9.3276  -16.0285   26.2298 N   0  0  0  0  0  0  0  0  0  0  0  0
   10.6277  -15.8983   28.2563 C   0  0  0  0  0  0  0  0  0  0  0  0
   11.7016  -15.4284   28.9858 O   0  0  0  0  0  0  0  0  0  0  0  0
   10.1240  -16.9989   28.5977 O   0  0  0  0  0  0  0  0  0  0  0  0
  2  1  1  0
  3  4  1  6
  3  2  1  0
  3  5  1  0
  5  6  1  6
  7  5  1  0
  7  8  2  0
  9  7  1  0
 10  9  1  0
 10 13  1  0
 10 11  1  6
 12 11  1  0
 13 19  1  0
 13 14  2  0
 16 15  1  6
 16 17  1  0
 18 16  1  0
 18 19  1  6
 20 18  1  0
 20 21  1  0
 22 20  2  0
M  END
$$$$
