ICV.pdb
     RDKit          3D

 22 21  0  0  1  0  0  0  0  0999 V2000
    5.4377  -10.8149   25.2076 C   0  0  0  0  0  0  0  0  0  0  0  0
    5.5939  -11.7501   26.3726 C   0  0  0  0  0  0  0  0  0  0  0  0
    6.6668  -12.7900   26.1880 C   0  0  2  0  0  0  0  0  0  0  0  0
    7.9364  -12.1582   25.6425 C   0  0  0  0  0  0  0  0  0  0  0  0
    6.1562  -13.8761   25.2779 C   0  0  2  0  0  0  0  0  0  0  0  0
    4.9818  -14.4581   25.9168 N   0  0  0  0  0  0  0  0  0  0  0  0
    7.1501  -14.9821   25.0818 C   0  0  0  0  0  0  0  0  0  0  0  0
    7.3197  -15.8127   26.0419 O   0  0  0  0  0  0  0  0  0  0  0  0
    7.9124  -15.1853   23.9282 N   0  0  0  0  0  0  0  0  0  0  0  0
    8.9060  -16.2715   23.8910 C   0  0  1  0  0  0  0  0  0  0  0  0
    9.4191  -16.2512   22.4505 C   0  0  0  0  0  0  0  0  0  0  0  0
    8.2939  -15.4912   21.2946 S   0  0  0  0  0  0  0  0  0  0  0  0
   10.0426  -15.9518   24.7813 C   0  0  0  0  0  0  0  0  0  0  0  0
   10.8497  -15.0278   24.4245 O   0  0  0  0  0  0  0  0  0  0  0  0
   10.0814  -16.1117   28.8022 C   0  0  0  0  0  0  0  0  0  0  0  0
   11.1205  -15.4095   27.9653 C   0  0  2  0  0  0  0  0  0  0  0  0
   10.6204  -14.0751   27.5013 C   0  0  0  0  0  0  0  0  0  0  0  0
   11.5197  -16.2905   26.7917 C   0  0  2  0  0  0  0  0  0  0  0  0
   10.3300  -16.5754   26.0078 N   0  0  0  0  0  0  0  0  0  0  0  0
   12.0725  -17.5482   27.3610 C   0  0  0  0  0  0  0  0  0  0  0  0
   13.3068  -17.5838   27.9788 O   0  0  0  0  0  0  0  0  0  0  0  0
   11.4206  -18.6215   27.2920 O   0  0  0  0  0  0  0  0  0  0  0  0
  2  1  1  0
  3  4  1  6
  3  2  1  0
  3  5  1  0
  5  6  1  1
  7  5  1  0
  7  8  2  0
  9  7  1  0
 10  9  1  0
 10 13  1  0
 10 11  1  6
 12 11  1  0
 13 19  1  0
 13 14  2  0
 16 15  1  6
 16 17  1  0
 18 16  1  0
 18 19  1  6
 20 18  1  0
 20 21  1  0
 22 20  2  0
M  END
$$$$
