ICV.pdb
     RDKit          3D

 22 21  0  0  1  0  0  0  0  0999 V2000
    5.6959  -11.4709   26.9493 C   0  0  0  0  0  0  0  0  0  0  0  0
    5.5584  -12.6340   26.0088 C   0  0  0  0  0  0  0  0  0  0  0  0
    6.8210  -13.4344   25.8305 C   0  0  2  0  0  0  0  0  0  0  0  0
    7.9392  -12.5576   25.2927 C   0  0  0  0  0  0  0  0  0  0  0  0
    6.5467  -14.6004   24.9173 C   0  0  2  0  0  0  0  0  0  0  0  0
    5.3980  -15.3146   25.4621 N   0  0  0  0  0  0  0  0  0  0  0  0
    7.6881  -15.5717   24.8595 C   0  0  0  0  0  0  0  0  0  0  0  0
    7.8004  -16.4218   25.8108 O   0  0  0  0  0  0  0  0  0  0  0  0
    8.6470  -15.6287   23.8444 N   0  0  0  0  0  0  0  0  0  0  0  0
    9.7402  -16.6119   23.9265 C   0  0  1  0  0  0  0  0  0  0  0  0
   10.4386  -16.4992   22.5706 C   0  0  0  0  0  0  0  0  0  0  0  0
    9.4231  -16.9986   21.1925 S   0  0  0  0  0  0  0  0  0  0  0  0
   10.7083  -16.2100   24.9695 C   0  0  0  0  0  0  0  0  0  0  0  0
   11.7509  -15.5642   24.6111 O   0  0  0  0  0  0  0  0  0  0  0  0
    9.8263  -15.6402   28.9459 C   0  0  0  0  0  0  0  0  0  0  0  0
   11.0609  -15.0978   28.2716 C   0  0  2  0  0  0  0  0  0  0  0  0
   10.7625  -13.8091   27.5670 C   0  0  0  0  0  0  0  0  0  0  0  0
   11.6241  -16.1358   27.3134 C   0  0  2  0  0  0  0  0  0  0  0  0
   10.5939  -16.4721   26.3457 N   0  0  0  0  0  0  0  0  0  0  0  0
   11.9753  -17.3312   28.1255 C   0  0  0  0  0  0  0  0  0  0  0  0
   13.0351  -17.3211   29.0104 O   0  0  0  0  0  0  0  0  0  0  0  0
   11.3070  -18.3916   28.0236 O   0  0  0  0  0  0  0  0  0  0  0  0
  2  1  1  0
  3  4  1  6
  3  2  1  0
  3  5  1  0
  5  6  1  1
  7  5  1  0
  7  8  2  0
  9  7  1  0
 10  9  1  0
 10 13  1  0
 10 11  1  6
 12 11  1  0
 13 19  1  0
 13 14  2  0
 16 15  1  6
 16 17  1  0
 18 16  1  0
 18 19  1  6
 20 18  1  0
 20 21  1  0
 22 20  2  0
M  END
$$$$
