ICV.pdb
     RDKit          3D

 22 21  0  0  1  0  0  0  0  0999 V2000
    5.6373  -11.3896   26.5150 C   0  0  0  0  0  0  0  0  0  0  0  0
    5.5582  -12.6081   25.6404 C   0  0  0  0  0  0  0  0  0  0  0  0
    6.8161  -13.4351   25.6211 C   0  0  2  0  0  0  0  0  0  0  0  0
    7.9758  -12.6325   25.0561 C   0  0  0  0  0  0  0  0  0  0  0  0
    6.5745  -14.6906   24.8249 C   0  0  2  0  0  0  0  0  0  0  0  0
    5.3586  -15.3047   25.3452 N   0  0  0  0  0  0  0  0  0  0  0  0
    7.6793  -15.6937   24.9757 C   0  0  0  0  0  0  0  0  0  0  0  0
    7.7298  -16.3709   26.0617 O   0  0  0  0  0  0  0  0  0  0  0  0
    8.6663  -15.9550   24.0214 N   0  0  0  0  0  0  0  0  0  0  0  0
    9.6988  -16.9683   24.2968 C   0  0  1  0  0  0  0  0  0  0  0  0
   10.4654  -17.0798   22.9782 C   0  0  0  0  0  0  0  0  0  0  0  0
   11.8752  -18.1691   23.0534 S   0  0  0  0  0  0  0  0  0  0  0  0
   10.6372  -16.4714   25.3258 C   0  0  0  0  0  0  0  0  0  0  0  0
   11.4243  -15.5140   25.0155 O   0  0  0  0  0  0  0  0  0  0  0  0
   10.0272  -15.8911   29.1593 C   0  0  0  0  0  0  0  0  0  0  0  0
   11.2612  -15.4230   28.4303 C   0  0  2  0  0  0  0  0  0  0  0  0
   10.9712  -14.1938   27.6235 C   0  0  0  0  0  0  0  0  0  0  0  0
   11.8014  -16.5447   27.5569 C   0  0  2  0  0  0  0  0  0  0  0  0
   10.7523  -16.9566   26.6401 N   0  0  0  0  0  0  0  0  0  0  0  0
   12.1602  -17.6672   28.4640 C   0  0  0  0  0  0  0  0  0  0  0  0
   13.2450  -17.5939   29.3149 O   0  0  0  0  0  0  0  0  0  0  0  0
   11.4754  -18.7219   28.4771 O   0  0  0  0  0  0  0  0  0  0  0  0
  2  1  1  0
  3  4  1  6
  3  2  1  0
  3  5  1  0
  5  6  1  1
  7  5  1  0
  7  8  2  0
  9  7  1  0
 10  9  1  0
 10 13  1  0
 10 11  1  6
 12 11  1  0
 13 19  1  0
 13 14  2  0
 16 15  1  6
 16 17  1  0
 18 16  1  0
 18 19  1  6
 20 18  1  0
 20 21  1  0
 22 20  2  0
M  END
$$$$
