ICV.pdb
     RDKit          3D

 22 21  0  0  1  0  0  0  0  0999 V2000
    5.5538  -11.1807   26.0297 C   0  0  0  0  0  0  0  0  0  0  0  0
    5.4645  -12.5286   25.3730 C   0  0  0  0  0  0  0  0  0  0  0  0
    6.7144  -13.3586   25.4979 C   0  0  2  0  0  0  0  0  0  0  0  0
    7.8967  -12.6443   24.8651 C   0  0  0  0  0  0  0  0  0  0  0  0
    6.4822  -14.7064   24.8670 C   0  0  2  0  0  0  0  0  0  0  0  0
    5.3379  -15.3077   25.5416 N   0  0  0  0  0  0  0  0  0  0  0  0
    7.6443  -15.6376   25.0462 C   0  0  0  0  0  0  0  0  0  0  0  0
    7.7379  -16.2728   26.1545 O   0  0  0  0  0  0  0  0  0  0  0  0
    8.6415  -15.8739   24.0961 N   0  0  0  0  0  0  0  0  0  0  0  0
    9.7010  -16.8571   24.3780 C   0  0  1  0  0  0  0  0  0  0  0  0
   10.5016  -16.9183   23.0764 C   0  0  0  0  0  0  0  0  0  0  0  0
   10.6926  -15.3383   22.2721 S   0  0  0  0  0  0  0  0  0  0  0  0
   10.5979  -16.3483   25.4379 C   0  0  0  0  0  0  0  0  0  0  0  0
   11.5401  -15.5528   25.1033 O   0  0  0  0  0  0  0  0  0  0  0  0
    9.7350  -15.9124   29.4385 C   0  0  0  0  0  0  0  0  0  0  0  0
   10.9249  -15.2919   28.7513 C   0  0  2  0  0  0  0  0  0  0  0  0
   10.5403  -14.0166   28.0644 C   0  0  0  0  0  0  0  0  0  0  0  0
   11.5334  -16.2860   27.7745 C   0  0  2  0  0  0  0  0  0  0  0  0
   10.5156  -16.6580   26.8066 N   0  0  0  0  0  0  0  0  0  0  0  0
   11.9476  -17.4749   28.5661 C   0  0  0  0  0  0  0  0  0  0  0  0
   13.0286  -17.4343   29.4241 O   0  0  0  0  0  0  0  0  0  0  0  0
   11.3151  -18.5577   28.4711 O   0  0  0  0  0  0  0  0  0  0  0  0
  2  1  1  0
  3  4  1  6
  3  2  1  0
  3  5  1  0
  5  6  1  1
  7  5  1  0
  7  8  2  0
  9  7  1  0
 10  9  1  0
 10 13  1  0
 10 11  1  6
 12 11  1  0
 13 19  1  0
 13 14  2  0
 16 15  1  6
 16 17  1  0
 18 16  1  0
 18 19  1  6
 20 18  1  0
 20 21  1  0
 22 20  2  0
M  END
$$$$
