ICV.pdb
     RDKit          3D

 22 21  0  0  1  0  0  0  0  0999 V2000
    7.5646  -19.9108   28.8442 C   0  0  0  0  0  0  0  0  0  0  0  0
    7.1246  -19.9440   27.4084 C   0  0  0  0  0  0  0  0  0  0  0  0
    7.6290  -18.7903   26.5829 C   0  0  2  0  0  0  0  0  0  0  0  0
    7.1989  -17.4670   27.1932 C   0  0  0  0  0  0  0  0  0  0  0  0
    7.1298  -18.9338   25.1691 C   0  0  2  0  0  0  0  0  0  0  0  0
    7.5526  -20.2456   24.6929 N   0  0  0  0  0  0  0  0  0  0  0  0
    7.7176  -17.9127   24.2410 C   0  0  0  0  0  0  0  0  0  0  0  0
    8.9795  -17.9543   24.0259 O   0  0  0  0  0  0  0  0  0  0  0  0
    6.9970  -16.9117   23.5838 N   0  0  0  0  0  0  0  0  0  0  0  0
    7.7119  -15.8990   22.7888 C   0  0  1  0  0  0  0  0  0  0  0  0
    6.6335  -15.3253   21.8687 C   0  0  0  0  0  0  0  0  0  0  0  0
    7.2210  -14.0377   20.7840 S   0  0  0  0  0  0  0  0  0  0  0  0
    8.1873  -14.8071   23.6654 C   0  0  0  0  0  0  0  0  0  0  0  0
    9.0769  -14.0102   23.2114 O   0  0  0  0  0  0  0  0  0  0  0  0
    6.0940  -13.2595   26.8532 C   0  0  0  0  0  0  0  0  0  0  0  0
    7.2507  -12.5392   26.2081 C   0  0  2  0  0  0  0  0  0  0  0  0
    6.7938  -11.7556   25.0150 C   0  0  0  0  0  0  0  0  0  0  0  0
    8.3360  -13.5365   25.8338 C   0  0  2  0  0  0  0  0  0  0  0  0
    7.7487  -14.5517   24.9762 N   0  0  0  0  0  0  0  0  0  0  0  0
    8.8174  -14.1503   27.1000 C   0  0  0  0  0  0  0  0  0  0  0  0
    8.7134  -15.5071   27.3338 O   0  0  0  0  0  0  0  0  0  0  0  0
    9.3365  -13.4390   27.9979 O   0  0  0  0  0  0  0  0  0  0  0  0
  2  1  1  0
  3  4  1  1
  3  2  1  0
  3  5  1  0
  5  6  1  6
  7  5  1  0
  7  8  2  0
  9  7  1  0
 10  9  1  0
 10 13  1  0
 10 11  1  6
 12 11  1  0
 13 19  1  0
 13 14  2  0
 16 15  1  6
 16 17  1  0
 18 16  1  0
 18 19  1  6
 20 18  1  0
 20 21  1  0
 22 20  2  0
M  END
$$$$
