ICV.pdb
     RDKit          3D

 22 21  0  0  1  0  0  0  0  0999 V2000
    6.3513  -14.3151   19.8972 C   0  0  0  0  0  0  0  0  0  0  0  0
    7.6631  -13.9374   20.5237 C   0  0  0  0  0  0  0  0  0  0  0  0
    7.8944  -14.5446   21.8818 C   0  0  2  0  0  0  0  0  0  0  0  0
    6.8136  -14.1060   22.8554 C   0  0  0  0  0  0  0  0  0  0  0  0
    9.2663  -14.1614   22.3715 C   0  0  2  0  0  0  0  0  0  0  0  0
   10.2301  -14.6911   21.4140 N   0  0  0  0  0  0  0  0  0  0  0  0
    9.5921  -14.7593   23.7079 C   0  0  0  0  0  0  0  0  0  0  0  0
   10.0997  -15.9350   23.7308 O   0  0  0  0  0  0  0  0  0  0  0  0
    9.3881  -14.1348   24.9414 N   0  0  0  0  0  0  0  0  0  0  0  0
    9.8868  -14.7696   26.1731 C   0  0  1  0  0  0  0  0  0  0  0  0
    9.6833  -13.6995   27.2465 C   0  0  0  0  0  0  0  0  0  0  0  0
   10.0152  -14.2680   28.9037 S   0  0  0  0  0  0  0  0  0  0  0  0
    9.0414  -15.9307   26.5249 C   0  0  0  0  0  0  0  0  0  0  0  0
    7.7870  -15.7420   26.6776 O   0  0  0  0  0  0  0  0  0  0  0  0
    9.7348  -19.8747   25.6249 C   0  0  0  0  0  0  0  0  0  0  0  0
    8.4140  -19.3183   26.0927 C   0  0  2  0  0  0  0  0  0  0  0  0
    7.6622  -18.6978   24.9543 C   0  0  0  0  0  0  0  0  0  0  0  0
    8.6436  -18.3188   27.2157 C   0  0  2  0  0  0  0  0  0  0  0  0
    9.4890  -17.2501   26.7115 N   0  0  0  0  0  0  0  0  0  0  0  0
    9.3365  -19.0477   28.3112 C   0  0  0  0  0  0  0  0  0  0  0  0
    8.7051  -20.0393   29.0354 O   0  0  0  0  0  0  0  0  0  0  0  0
   10.5279  -18.7745   28.6068 O   0  0  0  0  0  0  0  0  0  0  0  0
  2  1  1  0
  3  4  1  1
  3  2  1  0
  3  5  1  0
  5  6  1  6
  7  5  1  0
  7  8  2  0
  9  7  1  0
 10  9  1  0
 10 13  1  0
 10 11  1  1
 12 11  1  0
 13 19  1  0
 13 14  2  0
 16 15  1  6
 16 17  1  0
 18 16  1  0
 18 19  1  6
 20 18  1  0
 20 21  1  0
 22 20  2  0
M  END
$$$$
