QHF.pdb
     RDKit          3D

 31 32  0  0  1  0  0  0  0  0999 V2000
    7.7093  -12.3904   16.8067 N   0  0  0  0  0  0  0  0  0  0  0  0
    8.2165  -13.6754   16.4948 C   0  0  0  0  0  0  0  0  0  0  0  0
    7.8611  -14.2684   15.4532 O   0  0  0  0  0  0  0  0  0  0  0  0
    9.1651  -14.2936   17.4164 C   0  0  0  0  0  0  0  0  0  0  0  0
    9.5476  -13.4883   18.6051 C   0  0  0  0  0  0  0  0  0  0  0  0
   10.5473  -14.1170   19.5209 C   0  0  2  0  0  0  0  0  0  0  0  0
   11.4571  -14.9909   18.7716 N   0  0  0  0  0  0  0  0  0  0  0  0
    9.8502  -14.9736   20.5450 C   0  0  0  0  0  0  0  0  0  0  0  0
    8.9570  -14.4945   21.2892 O   0  0  0  0  0  0  0  0  0  0  0  0
   10.1655  -16.3405   20.7138 N   0  0  0  0  0  0  0  0  0  0  0  0
    9.5517  -17.1805   21.6933 C   0  0  1  0  0  0  0  0  0  0  0  0
    9.7737  -18.6517   21.4529 C   0  0  0  0  0  0  0  0  0  0  0  0
    8.8407  -19.1983   20.4367 C   0  0  0  0  0  0  0  0  0  0  0  0
    9.1366  -19.2620   19.0930 C   0  0  0  0  0  0  0  0  0  0  0  0
    8.1043  -19.7990   18.4452 N   0  0  0  0  0  0  0  0  0  0  0  0
    7.1653  -20.0729   19.3629 C   0  0  0  0  0  0  0  0  0  0  0  0
    7.6096  -19.7091   20.5739 N   0  0  0  0  0  0  0  0  0  0  0  0
   10.1199  -16.8744   23.0425 C   0  0  0  0  0  0  0  0  0  0  0  0
   11.3661  -16.8651   23.2287 O   0  0  0  0  0  0  0  0  0  0  0  0
    9.2919  -16.5840   24.1615 N   0  0  0  0  0  0  0  0  0  0  0  0
    9.8447  -16.2072   25.4581 C   0  0  1  0  0  0  0  0  0  0  0  0
    9.1318  -14.9839   26.0076 C   0  0  0  0  0  0  0  0  0  0  0  0
    9.6117  -14.7732   27.3970 C   0  0  0  0  0  0  0  0  0  0  0  0
   10.9838  -14.7065   27.6221 C   0  0  0  0  0  0  0  0  0  0  0  0
   11.4543  -14.5180   28.8858 C   0  0  0  0  0  0  0  0  0  0  0  0
   10.5544  -14.3963   29.9238 C   0  0  0  0  0  0  0  0  0  0  0  0
    9.1938  -14.4603   29.7173 C   0  0  0  0  0  0  0  0  0  0  0  0
    8.7010  -14.6536   28.4235 C   0  0  0  0  0  0  0  0  0  0  0  0
    9.7284  -17.3857   26.3449 C   0  0  0  0  0  0  0  0  0  0  0  0
   10.7610  -17.8254   27.1749 O   0  0  0  0  0  0  0  0  0  0  0  0
    8.6655  -18.0804   26.4054 O   0  0  0  0  0  0  0  0  0  0  0  0
  2  3  2  0
  2  1  1  0
  4  2  1  0
  5  4  1  0
  6  5  1  0
  6  7  1  6
  8  6  1  0
  8  9  2  0
 10  8  1  0
 11 10  1  0
 11 12  1  6
 13 14  2  0
 13 12  1  0
 15 14  1  0
 16 17  2  0
 16 15  1  0
 17 13  1  0
 18 20  1  0
 18 11  1  0
 19 18  2  0
 21 20  1  0
 21 29  1  0
 21 22  1  1
 23 28  1  0
 23 22  1  0
 24 23  2  0
 25 26  2  0
 25 24  1  0
 26 27  1  0
 27 28  2  0
 29 30  1  0
 31 29  2  0
M  END
$$$$
