QHF.pdb
     RDKit          3D

 31 32  0  0  1  0  0  0  0  0999 V2000
    8.5604  -12.1720   18.2592 N   0  0  0  0  0  0  0  0  0  0  0  0
    8.0153  -13.2420   17.5082 C   0  0  0  0  0  0  0  0  0  0  0  0
    8.1589  -13.2915   16.2673 O   0  0  0  0  0  0  0  0  0  0  0  0
    7.2817  -14.2877   18.2151 C   0  0  0  0  0  0  0  0  0  0  0  0
    7.0693  -14.0738   19.6700 C   0  0  0  0  0  0  0  0  0  0  0  0
    8.2918  -14.1630   20.5248 C   0  0  2  0  0  0  0  0  0  0  0  0
    9.4136  -14.7267   19.7654 N   0  0  0  0  0  0  0  0  0  0  0  0
    8.0437  -15.0765   21.6963 C   0  0  0  0  0  0  0  0  0  0  0  0
    7.0004  -14.9700   22.3902 O   0  0  0  0  0  0  0  0  0  0  0  0
    8.9630  -16.0843   22.0645 N   0  0  0  0  0  0  0  0  0  0  0  0
    8.7826  -16.9500   23.1869 C   0  0  1  0  0  0  0  0  0  0  0  0
    9.4748  -18.2809   23.0414 C   0  0  0  0  0  0  0  0  0  0  0  0
    8.7832  -19.1669   22.0726 C   0  0  0  0  0  0  0  0  0  0  0  0
    7.5658  -18.8639   21.5042 C   0  0  0  0  0  0  0  0  0  0  0  0
    7.2115  -19.8506   20.6828 N   0  0  0  0  0  0  0  0  0  0  0  0
    8.1889  -20.7679   20.7278 C   0  0  0  0  0  0  0  0  0  0  0  0
    9.1454  -20.3555   21.5713 N   0  0  0  0  0  0  0  0  0  0  0  0
    9.3451  -16.3043   24.4131 C   0  0  0  0  0  0  0  0  0  0  0  0
   10.3623  -15.5641   24.3414 O   0  0  0  0  0  0  0  0  0  0  0  0
    8.7662  -16.4931   25.6981 N   0  0  0  0  0  0  0  0  0  0  0  0
    9.2726  -15.8113   26.8845 C   0  0  1  0  0  0  0  0  0  0  0  0
    8.1525  -15.0709   27.5942 C   0  0  0  0  0  0  0  0  0  0  0  0
    7.8141  -13.8799   26.7744 C   0  0  0  0  0  0  0  0  0  0  0  0
    8.8018  -12.9241   26.5536 C   0  0  0  0  0  0  0  0  0  0  0  0
    8.5206  -11.8194   25.8092 C   0  0  0  0  0  0  0  0  0  0  0  0
    7.2534  -11.6697   25.2859 C   0  0  0  0  0  0  0  0  0  0  0  0
    6.2652  -12.6065   25.4955 C   0  0  0  0  0  0  0  0  0  0  0  0
    6.5442  -13.7442   26.2585 C   0  0  0  0  0  0  0  0  0  0  0  0
    9.9156  -16.8341   27.7384 C   0  0  0  0  0  0  0  0  0  0  0  0
   10.7324  -16.5213   28.8263 O   0  0  0  0  0  0  0  0  0  0  0  0
    9.7616  -18.0787   27.5300 O   0  0  0  0  0  0  0  0  0  0  0  0
  2  3  2  0
  2  1  1  0
  4  2  1  0
  5  4  1  0
  6  5  1  0
  6  7  1  6
  8  6  1  0
  8  9  2  0
 10  8  1  0
 11 10  1  0
 11 12  1  6
 13 14  2  0
 13 12  1  0
 15 14  1  0
 16 17  2  0
 16 15  1  0
 17 13  1  0
 18 20  1  0
 18 11  1  0
 19 18  2  0
 21 20  1  0
 21 29  1  0
 21 22  1  1
 23 28  1  0
 23 22  1  0
 24 23  2  0
 25 26  2  0
 25 24  1  0
 26 27  1  0
 27 28  2  0
 29 30  1  0
 31 29  2  0
M  END
$$$$
