QHF.pdb
     RDKit          3D

 31 32  0  0  1  0  0  0  0  0999 V2000
    7.0635  -12.5670   17.3768 N   0  0  0  0  0  0  0  0  0  0  0  0
    7.7660  -13.6834   16.8611 C   0  0  0  0  0  0  0  0  0  0  0  0
    7.9368  -13.8194   15.6301 O   0  0  0  0  0  0  0  0  0  0  0  0
    8.2878  -14.6733   17.7988 C   0  0  0  0  0  0  0  0  0  0  0  0
    7.9158  -14.4885   19.2254 C   0  0  0  0  0  0  0  0  0  0  0  0
    9.0356  -14.6016   20.2083 C   0  0  2  0  0  0  0  0  0  0  0  0
   10.1758  -15.3085   19.6140 N   0  0  0  0  0  0  0  0  0  0  0  0
    8.5966  -15.3963   21.4100 C   0  0  0  0  0  0  0  0  0  0  0  0
    7.4910  -15.1718   21.9655 O   0  0  0  0  0  0  0  0  0  0  0  0
    9.3994  -16.4198   21.9618 N   0  0  0  0  0  0  0  0  0  0  0  0
    9.0023  -17.2269   23.0720 C   0  0  1  0  0  0  0  0  0  0  0  0
    9.6504  -18.5876   23.0928 C   0  0  0  0  0  0  0  0  0  0  0  0
    8.9773  -19.5405   22.1758 C   0  0  0  0  0  0  0  0  0  0  0  0
    8.6313  -19.2285   20.8796 C   0  0  0  0  0  0  0  0  0  0  0  0
    8.0466  -20.2856   20.3190 N   0  0  0  0  0  0  0  0  0  0  0  0
    8.0209  -21.2560   21.2445 C   0  0  0  0  0  0  0  0  0  0  0  0
    8.5857  -20.8064   22.3738 N   0  0  0  0  0  0  0  0  0  0  0  0
    9.3868  -16.5478   24.3479 C   0  0  0  0  0  0  0  0  0  0  0  0
   10.4527  -15.8804   24.4256 O   0  0  0  0  0  0  0  0  0  0  0  0
    8.5786  -16.6228   25.5155 N   0  0  0  0  0  0  0  0  0  0  0  0
    9.0071  -16.0618   26.7924 C   0  0  1  0  0  0  0  0  0  0  0  0
    7.8557  -15.3424   27.4732 C   0  0  0  0  0  0  0  0  0  0  0  0
    7.6847  -14.0318   26.7964 C   0  0  0  0  0  0  0  0  0  0  0  0
    8.4943  -12.9705   27.1913 C   0  0  0  0  0  0  0  0  0  0  0  0
    8.3582  -11.7556   26.5921 C   0  0  0  0  0  0  0  0  0  0  0  0
    7.4139  -11.6012   25.5988 C   0  0  0  0  0  0  0  0  0  0  0  0
    6.6052  -12.6416   25.1969 C   0  0  0  0  0  0  0  0  0  0  0  0
    6.7373  -13.8928   25.8062 C   0  0  0  0  0  0  0  0  0  0  0  0
    9.5472  -17.1755   27.6028 C   0  0  0  0  0  0  0  0  0  0  0  0
   10.4276  -16.9903   28.6701 O   0  0  0  0  0  0  0  0  0  0  0  0
    9.2385  -18.3870   27.3726 O   0  0  0  0  0  0  0  0  0  0  0  0
  2  3  2  0
  2  1  1  0
  4  2  1  0
  5  4  1  0
  6  5  1  0
  6  7  1  6
  8  6  1  0
  8  9  2  0
 10  8  1  0
 11 10  1  0
 11 12  1  6
 13 14  2  0
 13 12  1  0
 15 14  1  0
 16 17  2  0
 16 15  1  0
 17 13  1  0
 18 20  1  0
 18 11  1  0
 19 18  2  0
 21 20  1  0
 21 29  1  0
 21 22  1  1
 23 28  1  0
 23 22  1  0
 24 23  2  0
 25 26  2  0
 25 24  1  0
 26 27  1  0
 27 28  2  0
 29 30  1  0
 31 29  2  0
M  END
$$$$
