QHF.pdb
     RDKit          3D

 31 32  0  0  1  0  0  0  0  0999 V2000
    6.6297  -14.6384   16.2207 N   0  0  0  0  0  0  0  0  0  0  0  0
    7.9468  -15.0692   16.5127 C   0  0  0  0  0  0  0  0  0  0  0  0
    8.5804  -15.7835   15.7057 O   0  0  0  0  0  0  0  0  0  0  0  0
    8.5502  -14.6604   17.7777 C   0  0  0  0  0  0  0  0  0  0  0  0
    7.7430  -13.7465   18.6268 C   0  0  0  0  0  0  0  0  0  0  0  0
    8.3622  -13.3537   19.9289 C   0  0  2  0  0  0  0  0  0  0  0  0
    9.7283  -12.8593   19.7236 N   0  0  0  0  0  0  0  0  0  0  0  0
    8.4535  -14.5466   20.8439 C   0  0  0  0  0  0  0  0  0  0  0  0
    7.4186  -15.1527   21.2219 O   0  0  0  0  0  0  0  0  0  0  0  0
    9.6939  -15.0333   21.3140 N   0  0  0  0  0  0  0  0  0  0  0  0
    9.8298  -16.1949   22.1351 C   0  0  1  0  0  0  0  0  0  0  0  0
   11.1407  -16.9154   21.9509 C   0  0  0  0  0  0  0  0  0  0  0  0
   11.0813  -17.9104   20.8517 C   0  0  0  0  0  0  0  0  0  0  0  0
    9.9030  -18.3462   20.2872 C   0  0  0  0  0  0  0  0  0  0  0  0
   10.1797  -19.2323   19.3322 N   0  0  0  0  0  0  0  0  0  0  0  0
   11.5143  -19.3586   19.2896 C   0  0  0  0  0  0  0  0  0  0  0  0
   12.0650  -18.5567   20.2116 N   0  0  0  0  0  0  0  0  0  0  0  0
    9.7537  -15.8014   23.5760 C   0  0  0  0  0  0  0  0  0  0  0  0
   10.4076  -14.8152   24.0089 O   0  0  0  0  0  0  0  0  0  0  0  0
    8.9514  -16.5120   24.5106 N   0  0  0  0  0  0  0  0  0  0  0  0
    8.8275  -16.0929   25.9026 C   0  0  1  0  0  0  0  0  0  0  0  0
    7.3791  -15.7858   26.2411 C   0  0  0  0  0  0  0  0  0  0  0  0
    7.2061  -14.3127   26.1705 C   0  0  0  0  0  0  0  0  0  0  0  0
    7.7971  -13.5272   27.1562 C   0  0  0  0  0  0  0  0  0  0  0  0
    7.6529  -12.1739   27.1205 C   0  0  0  0  0  0  0  0  0  0  0  0
    6.9188  -11.6057   26.1005 C   0  0  0  0  0  0  0  0  0  0  0  0
    6.3279  -12.3693   25.1178 C   0  0  0  0  0  0  0  0  0  0  0  0
    6.4701  -13.7597   25.1459 C   0  0  0  0  0  0  0  0  0  0  0  0
    9.3956  -17.1729   26.7391 C   0  0  0  0  0  0  0  0  0  0  0  0
    9.8071  -16.9839   28.0595 O   0  0  0  0  0  0  0  0  0  0  0  0
    9.5467  -18.3561   26.2995 O   0  0  0  0  0  0  0  0  0  0  0  0
  2  3  2  0
  2  1  1  0
  4  2  1  0
  5  4  1  0
  6  5  1  0
  6  7  1  6
  8  6  1  0
  8  9  2  0
 10  8  1  0
 11 10  1  0
 11 12  1  1
 13 14  2  0
 13 12  1  0
 15 14  1  0
 16 17  2  0
 16 15  1  0
 17 13  1  0
 18 20  1  0
 18 11  1  0
 19 18  2  0
 21 20  1  0
 21 29  1  0
 21 22  1  1
 23 28  1  0
 23 22  1  0
 24 23  2  0
 25 26  2  0
 25 24  1  0
 26 27  1  0
 27 28  2  0
 29 30  1  0
 31 29  2  0
M  END
$$$$
