QHF.pdb
     RDKit          3D

 31 32  0  0  1  0  0  0  0  0999 V2000
    4.9967  -19.2323   21.9085 N   0  0  0  0  0  0  0  0  0  0  0  0
    5.9071  -19.1795   22.9921 C   0  0  0  0  0  0  0  0  0  0  0  0
    5.5002  -19.2311   24.1731 O   0  0  0  0  0  0  0  0  0  0  0  0
    7.3329  -19.0640   22.7004 C   0  0  0  0  0  0  0  0  0  0  0  0
    7.7098  -19.0289   21.2636 C   0  0  0  0  0  0  0  0  0  0  0  0
    9.1389  -18.7008   20.9751 C   0  0  2  0  0  0  0  0  0  0  0  0
   10.0343  -19.6193   21.6875 N   0  0  0  0  0  0  0  0  0  0  0  0
    9.4604  -17.3081   21.4499 C   0  0  0  0  0  0  0  0  0  0  0  0
   10.6488  -16.9537   21.6581 O   0  0  0  0  0  0  0  0  0  0  0  0
    8.4510  -16.3466   21.6805 N   0  0  0  0  0  0  0  0  0  0  0  0
    8.7163  -14.9730   21.9712 C   0  0  1  0  0  0  0  0  0  0  0  0
    7.6969  -14.0249   21.3934 C   0  0  0  0  0  0  0  0  0  0  0  0
    7.6720  -14.0680   19.9104 C   0  0  0  0  0  0  0  0  0  0  0  0
    8.2181  -13.0853   19.1147 C   0  0  0  0  0  0  0  0  0  0  0  0
    8.0366  -13.4100   17.8359 N   0  0  0  0  0  0  0  0  0  0  0  0
    7.3846  -14.5820   17.8180 C   0  0  0  0  0  0  0  0  0  0  0  0
    7.1616  -14.9845   19.0768 N   0  0  0  0  0  0  0  0  0  0  0  0
    8.7078  -14.7636   23.4520 C   0  0  0  0  0  0  0  0  0  0  0  0
    8.3729  -13.6524   23.9427 O   0  0  0  0  0  0  0  0  0  0  0  0
    9.0723  -15.7941   24.3616 N   0  0  0  0  0  0  0  0  0  0  0  0
    8.8653  -15.6674   25.8003 C   0  0  1  0  0  0  0  0  0  0  0  0
    7.3937  -15.4580   26.1119 C   0  0  0  0  0  0  0  0  0  0  0  0
    7.1919  -14.0086   26.3640 C   0  0  0  0  0  0  0  0  0  0  0  0
    5.9285  -13.4667   26.1452 C   0  0  0  0  0  0  0  0  0  0  0  0
    5.7135  -12.1402   26.3639 C   0  0  0  0  0  0  0  0  0  0  0  0
    6.7602  -11.3557   26.8009 C   0  0  0  0  0  0  0  0  0  0  0  0
    8.0162  -11.8769   27.0220 C   0  0  0  0  0  0  0  0  0  0  0  0
    8.2468  -13.2378   26.8002 C   0  0  0  0  0  0  0  0  0  0  0  0
    9.4181  -16.8851   26.4329 C   0  0  0  0  0  0  0  0  0  0  0  0
    9.6423  -17.0016   27.8058 O   0  0  0  0  0  0  0  0  0  0  0  0
    9.7280  -17.9147   25.7546 O   0  0  0  0  0  0  0  0  0  0  0  0
  2  3  2  0
  2  1  1  0
  4  2  1  0
  5  4  1  0
  6  5  1  0
  6  7  1  1
  8  6  1  0
  8  9  2  0
 10  8  1  0
 11 10  1  0
 11 12  1  6
 13 14  2  0
 13 12  1  0
 15 14  1  0
 16 17  2  0
 16 15  1  0
 17 13  1  0
 18 20  1  0
 18 11  1  0
 19 18  2  0
 21 20  1  0
 21 29  1  0
 21 22  1  6
 23 28  1  0
 23 22  1  0
 24 23  2  0
 25 26  2  0
 25 24  1  0
 26 27  1  0
 27 28  2  0
 29 30  1  0
 31 29  2  0
M  END
$$$$
