QHF.pdb
     RDKit          3D

 31 32  0  0  1  0  0  0  0  0999 V2000
    8.4317  -12.4320   16.8023 N   0  0  0  0  0  0  0  0  0  0  0  0
    8.0154  -13.6896   16.3012 C   0  0  0  0  0  0  0  0  0  0  0  0
    7.9138  -13.8867   15.0709 O   0  0  0  0  0  0  0  0  0  0  0  0
    7.7077  -14.7527   17.2534 C   0  0  0  0  0  0  0  0  0  0  0  0
    7.8623  -14.4130   18.6916 C   0  0  0  0  0  0  0  0  0  0  0  0
    8.9100  -15.1803   19.4310 C   0  0  2  0  0  0  0  0  0  0  0  0
    9.2116  -16.4399   18.7415 N   0  0  0  0  0  0  0  0  0  0  0  0
    8.4210  -15.5342   20.8108 C   0  0  0  0  0  0  0  0  0  0  0  0
    8.0416  -14.6419   21.6115 O   0  0  0  0  0  0  0  0  0  0  0  0
    8.3670  -16.8718   21.2632 N   0  0  0  0  0  0  0  0  0  0  0  0
    8.0160  -17.2436   22.5975 C   0  0  1  0  0  0  0  0  0  0  0  0
    7.9606  -18.7340   22.8150 C   0  0  0  0  0  0  0  0  0  0  0  0
    7.5321  -19.0817   24.1924 C   0  0  0  0  0  0  0  0  0  0  0  0
    6.5128  -18.4342   24.8549 C   0  0  0  0  0  0  0  0  0  0  0  0
    6.3692  -18.9725   26.0646 N   0  0  0  0  0  0  0  0  0  0  0  0
    7.2836  -19.9480   26.1705 C   0  0  0  0  0  0  0  0  0  0  0  0
    7.9918  -20.0169   25.0347 N   0  0  0  0  0  0  0  0  0  0  0  0
    9.0351  -16.7072   23.5516 C   0  0  0  0  0  0  0  0  0  0  0  0
   10.2179  -16.4906   23.1748 O   0  0  0  0  0  0  0  0  0  0  0  0
    8.7209  -16.4208   24.9085 N   0  0  0  0  0  0  0  0  0  0  0  0
    9.6964  -15.8384   25.8240 C   0  0  1  0  0  0  0  0  0  0  0  0
    9.7041  -14.3244   25.7040 C   0  0  0  0  0  0  0  0  0  0  0  0
    8.3821  -13.8324   26.1680 C   0  0  0  0  0  0  0  0  0  0  0  0
    7.3861  -13.6126   25.2207 C   0  0  0  0  0  0  0  0  0  0  0  0
    6.1649  -13.1579   25.6151 C   0  0  0  0  0  0  0  0  0  0  0  0
    5.9390  -12.9231   26.9552 C   0  0  0  0  0  0  0  0  0  0  0  0
    6.9142  -13.1357   27.9048 C   0  0  0  0  0  0  0  0  0  0  0  0
    8.1714  -13.6023   27.5097 C   0  0  0  0  0  0  0  0  0  0  0  0
    9.3541  -16.3043   27.1858 C   0  0  0  0  0  0  0  0  0  0  0  0
    8.2237  -17.0718   27.4719 O   0  0  0  0  0  0  0  0  0  0  0  0
   10.0788  -16.0295   28.1934 O   0  0  0  0  0  0  0  0  0  0  0  0
  2  3  2  0
  2  1  1  0
  4  2  1  0
  5  4  1  0
  6  5  1  0
  6  7  1  6
  8  6  1  0
  8  9  2  0
 10  8  1  0
 11 10  1  0
 11 12  1  6
 13 14  2  0
 13 12  1  0
 15 14  1  0
 16 17  2  0
 16 15  1  0
 17 13  1  0
 18 20  1  0
 18 11  1  0
 19 18  2  0
 21 20  1  0
 21 29  1  0
 21 22  1  1
 23 28  1  0
 23 22  1  0
 24 23  2  0
 25 26  2  0
 25 24  1  0
 26 27  1  0
 27 28  2  0
 29 30  1  0
 31 29  2  0
M  END
$$$$
