QHF.pdb
     RDKit          3D

 31 32  0  0  1  0  0  0  0  0999 V2000
    7.9875  -15.7532   16.3524 N   0  0  0  0  0  0  0  0  0  0  0  0
    8.0235  -14.3857   15.9855 C   0  0  0  0  0  0  0  0  0  0  0  0
    8.2194  -14.0463   14.7984 O   0  0  0  0  0  0  0  0  0  0  0  0
    7.8261  -13.3793   17.0246 C   0  0  0  0  0  0  0  0  0  0  0  0
    7.5014  -13.8896   18.3817 C   0  0  0  0  0  0  0  0  0  0  0  0
    8.5594  -13.6946   19.4190 C   0  0  2  0  0  0  0  0  0  0  0  0
    9.8952  -13.8172   18.8245 N   0  0  0  0  0  0  0  0  0  0  0  0
    8.4473  -14.7538   20.4839 C   0  0  0  0  0  0  0  0  0  0  0  0
    7.3535  -14.9756   21.0632 O   0  0  0  0  0  0  0  0  0  0  0  0
    9.5553  -15.5380   20.8760 N   0  0  0  0  0  0  0  0  0  0  0  0
    9.4644  -16.6454   21.7745 C   0  0  1  0  0  0  0  0  0  0  0  0
   10.3392  -17.8104   21.3887 C   0  0  0  0  0  0  0  0  0  0  0  0
    9.7832  -18.5704   20.2419 C   0  0  0  0  0  0  0  0  0  0  0  0
   10.2540  -18.4496   18.9532 C   0  0  0  0  0  0  0  0  0  0  0  0
    9.5545  -19.2561   18.1570 N   0  0  0  0  0  0  0  0  0  0  0  0
    8.6518  -19.8809   18.9275 C   0  0  0  0  0  0  0  0  0  0  0  0
    8.7881  -19.4665   20.1948 N   0  0  0  0  0  0  0  0  0  0  0  0
    9.8951  -16.2179   23.1415 C   0  0  0  0  0  0  0  0  0  0  0  0
   10.9033  -15.4781   23.2962 O   0  0  0  0  0  0  0  0  0  0  0  0
    9.1969  -16.6209   24.3128 N   0  0  0  0  0  0  0  0  0  0  0  0
    8.7487  -15.6619   25.3169 C   0  0  1  0  0  0  0  0  0  0  0  0
    7.8918  -14.5821   24.6793 C   0  0  0  0  0  0  0  0  0  0  0  0
    7.4517  -13.6642   25.7603 C   0  0  0  0  0  0  0  0  0  0  0  0
    8.3962  -12.8235   26.3424 C   0  0  0  0  0  0  0  0  0  0  0  0
    8.0237  -11.9734   27.3386 C   0  0  0  0  0  0  0  0  0  0  0  0
    6.7082  -11.9635   27.7529 C   0  0  0  0  0  0  0  0  0  0  0  0
    5.7618  -12.7893   27.1870 C   0  0  0  0  0  0  0  0  0  0  0  0
    6.1346  -13.6656   26.1636 C   0  0  0  0  0  0  0  0  0  0  0  0
    8.0291  -16.4232   26.3616 C   0  0  0  0  0  0  0  0  0  0  0  0
    6.9564  -17.2737   26.0885 O   0  0  0  0  0  0  0  0  0  0  0  0
    8.3480  -16.3475   27.5898 O   0  0  0  0  0  0  0  0  0  0  0  0
  2  3  2  0
  2  1  1  0
  4  2  1  0
  5  4  1  0
  6  5  1  0
  6  7  1  6
  8  6  1  0
  8  9  2  0
 10  8  1  0
 11 10  1  0
 11 12  1  6
 13 14  2  0
 13 12  1  0
 15 14  1  0
 16 17  2  0
 16 15  1  0
 17 13  1  0
 18 20  1  0
 18 11  1  0
 19 18  2  0
 21 20  1  0
 21 29  1  0
 21 22  1  6
 23 28  1  0
 23 22  1  0
 24 23  2  0
 25 26  2  0
 25 24  1  0
 26 27  1  0
 27 28  2  0
 29 30  1  0
 31 29  2  0
M  END
$$$$
