QHF.pdb
     RDKit          3D

 31 32  0  0  1  0  0  0  0  0999 V2000
   10.6580  -21.2394   18.3497 N   0  0  0  0  0  0  0  0  0  0  0  0
    9.2465  -21.1317   18.3043 C   0  0  0  0  0  0  0  0  0  0  0  0
    8.5886  -21.7114   17.4132 O   0  0  0  0  0  0  0  0  0  0  0  0
    8.5751  -20.3288   19.3221 C   0  0  0  0  0  0  0  0  0  0  0  0
    9.4526  -19.6598   20.3171 C   0  0  0  0  0  0  0  0  0  0  0  0
    8.7511  -18.8756   21.3782 C   0  0  2  0  0  0  0  0  0  0  0  0
    7.8479  -17.8869   20.7785 N   0  0  0  0  0  0  0  0  0  0  0  0
    9.7497  -18.1176   22.2129 C   0  0  0  0  0  0  0  0  0  0  0  0
   10.5703  -18.7232   22.9484 O   0  0  0  0  0  0  0  0  0  0  0  0
    9.8086  -16.7059   22.2069 N   0  0  0  0  0  0  0  0  0  0  0  0
   10.7613  -15.9492   22.9563 C   0  0  1  0  0  0  0  0  0  0  0  0
   11.1094  -14.6240   22.3285 C   0  0  0  0  0  0  0  0  0  0  0  0
   11.8421  -14.7878   21.0486 C   0  0  0  0  0  0  0  0  0  0  0  0
   12.3291  -15.9970   20.6039 C   0  0  0  0  0  0  0  0  0  0  0  0
   12.9341  -15.8176   19.4311 N   0  0  0  0  0  0  0  0  0  0  0  0
   12.8337  -14.5136   19.1338 C   0  0  0  0  0  0  0  0  0  0  0  0
   12.1707  -13.8852   20.1145 N   0  0  0  0  0  0  0  0  0  0  0  0
   10.2078  -15.6504   24.3132 C   0  0  0  0  0  0  0  0  0  0  0  0
   10.0260  -14.4605   24.6861 O   0  0  0  0  0  0  0  0  0  0  0  0
    9.8662  -16.6804   25.2321 N   0  0  0  0  0  0  0  0  0  0  0  0
    9.3698  -16.3899   26.5731 C   0  0  1  0  0  0  0  0  0  0  0  0
    7.8734  -16.1313   26.5443 C   0  0  0  0  0  0  0  0  0  0  0  0
    7.6752  -14.6626   26.4523 C   0  0  0  0  0  0  0  0  0  0  0  0
    8.3730  -13.8424   27.3344 C   0  0  0  0  0  0  0  0  0  0  0  0
    8.2091  -12.4920   27.2770 C   0  0  0  0  0  0  0  0  0  0  0  0
    7.3485  -11.9615   26.3388 C   0  0  0  0  0  0  0  0  0  0  0  0
    6.6508  -12.7598   25.4591 C   0  0  0  0  0  0  0  0  0  0  0  0
    6.8124  -14.1475   25.5103 C   0  0  0  0  0  0  0  0  0  0  0  0
    9.7379  -17.5342   27.4355 C   0  0  0  0  0  0  0  0  0  0  0  0
   10.4018  -18.6677   26.9633 O   0  0  0  0  0  0  0  0  0  0  0  0
    9.4673  -17.5555   28.6775 O   0  0  0  0  0  0  0  0  0  0  0  0
  2  3  2  0
  2  1  1  0
  4  2  1  0
  5  4  1  0
  6  5  1  0
  6  7  1  6
  8  6  1  0
  8  9  2  0
 10  8  1  0
 11 10  1  0
 11 12  1  6
 13 14  2  0
 13 12  1  0
 15 14  1  0
 16 17  2  0
 16 15  1  0
 17 13  1  0
 18 20  1  0
 18 11  1  0
 19 18  2  0
 21 20  1  0
 21 29  1  0
 21 22  1  6
 23 28  1  0
 23 22  1  0
 24 23  2  0
 25 26  2  0
 25 24  1  0
 26 27  1  0
 27 28  2  0
 29 30  1  0
 31 29  2  0
M  END
$$$$
