QHF.pdb
     RDKit          3D

 31 32  0  0  1  0  0  0  0  0999 V2000
    9.5362  -12.5963   18.5723 N   0  0  0  0  0  0  0  0  0  0  0  0
    8.6325  -13.0938   17.6019 C   0  0  0  0  0  0  0  0  0  0  0  0
    8.9303  -13.0891   16.3878 O   0  0  0  0  0  0  0  0  0  0  0  0
    7.3440  -13.6137   18.0503 C   0  0  0  0  0  0  0  0  0  0  0  0
    7.1434  -13.6966   19.5202 C   0  0  0  0  0  0  0  0  0  0  0  0
    7.9442  -14.7418   20.2269 C   0  0  2  0  0  0  0  0  0  0  0  0
    8.1472  -15.9099   19.3625 N   0  0  0  0  0  0  0  0  0  0  0  0
    7.2126  -15.2182   21.4543 C   0  0  0  0  0  0  0  0  0  0  0  0
    6.6411  -14.4040   22.2236 O   0  0  0  0  0  0  0  0  0  0  0  0
    7.1364  -16.5878   21.7930 N   0  0  0  0  0  0  0  0  0  0  0  0
    6.5705  -17.0725   23.0123 C   0  0  1  0  0  0  0  0  0  0  0  0
    6.1876  -18.5294   22.9640 C   0  0  0  0  0  0  0  0  0  0  0  0
    4.9644  -18.7587   22.1558 C   0  0  0  0  0  0  0  0  0  0  0  0
    4.2219  -17.7406   21.5998 C   0  0  0  0  0  0  0  0  0  0  0  0
    3.1918  -18.2647   20.9380 N   0  0  0  0  0  0  0  0  0  0  0  0
    3.2775  -19.5966   21.0708 C   0  0  0  0  0  0  0  0  0  0  0  0
    4.3534  -19.9000   21.8102 N   0  0  0  0  0  0  0  0  0  0  0  0
    7.5652  -16.9254   24.1194 C   0  0  0  0  0  0  0  0  0  0  0  0
    8.7977  -17.0684   23.9000 O   0  0  0  0  0  0  0  0  0  0  0  0
    7.1716  -16.6219   25.4517 N   0  0  0  0  0  0  0  0  0  0  0  0
    8.1446  -16.3680   26.5089 C   0  0  1  0  0  0  0  0  0  0  0  0
    7.5817  -15.3954   27.5306 C   0  0  0  0  0  0  0  0  0  0  0  0
    7.4607  -14.0718   26.8686 C   0  0  0  0  0  0  0  0  0  0  0  0
    6.2095  -13.4629   26.8264 C   0  0  0  0  0  0  0  0  0  0  0  0
    6.0663  -12.2509   26.2229 C   0  0  0  0  0  0  0  0  0  0  0  0
    7.1723  -11.6477   25.6618 C   0  0  0  0  0  0  0  0  0  0  0  0
    8.4170  -12.2374   25.6952 C   0  0  0  0  0  0  0  0  0  0  0  0
    8.5742  -13.4817   26.3126 C   0  0  0  0  0  0  0  0  0  0  0  0
    8.5039  -17.6761   27.0991 C   0  0  0  0  0  0  0  0  0  0  0  0
    9.6784  -17.8947   27.8212 O   0  0  0  0  0  0  0  0  0  0  0  0
    7.7541  -18.6961   26.9824 O   0  0  0  0  0  0  0  0  0  0  0  0
  2  3  2  0
  2  1  1  0
  4  2  1  0
  5  4  1  0
  6  5  1  0
  6  7  1  6
  8  6  1  0
  8  9  2  0
 10  8  1  0
 11 10  1  0
 11 12  1  6
 13 14  2  0
 13 12  1  0
 15 14  1  0
 16 17  2  0
 16 15  1  0
 17 13  1  0
 18 20  1  0
 18 11  1  0
 19 18  2  0
 21 20  1  0
 21 29  1  0
 21 22  1  1
 23 28  1  0
 23 22  1  0
 24 23  2  0
 25 26  2  0
 25 24  1  0
 26 27  1  0
 27 28  2  0
 29 30  1  0
 31 29  2  0
M  END
$$$$
