QHF.pdb
     RDKit          3D

 31 32  0  0  1  0  0  0  0  0999 V2000
    6.2195  -20.4659   18.7146 N   0  0  0  0  0  0  0  0  0  0  0  0
    7.5459  -20.9322   18.8852 C   0  0  0  0  0  0  0  0  0  0  0  0
    8.2917  -21.1160   17.8988 O   0  0  0  0  0  0  0  0  0  0  0  0
    8.0248  -21.1935   20.2394 C   0  0  0  0  0  0  0  0  0  0  0  0
    7.0884  -20.8610   21.3440 C   0  0  0  0  0  0  0  0  0  0  0  0
    7.6923  -20.1633   22.5194 C   0  0  2  0  0  0  0  0  0  0  0  0
    6.6695  -19.8752   23.5313 N   0  0  0  0  0  0  0  0  0  0  0  0
    8.2833  -18.8442   22.0959 C   0  0  0  0  0  0  0  0  0  0  0  0
    9.4674  -18.7698   21.6793 O   0  0  0  0  0  0  0  0  0  0  0  0
    7.5409  -17.6431   22.1470 N   0  0  0  0  0  0  0  0  0  0  0  0
    8.0543  -16.3757   21.7323 C   0  0  1  0  0  0  0  0  0  0  0  0
    6.9968  -15.4355   21.2134 C   0  0  0  0  0  0  0  0  0  0  0  0
    7.5833  -14.2074   20.6220 C   0  0  0  0  0  0  0  0  0  0  0  0
    7.6027  -12.9906   21.2672 C   0  0  0  0  0  0  0  0  0  0  0  0
    8.1928  -12.0912   20.4820 N   0  0  0  0  0  0  0  0  0  0  0  0
    8.5438  -12.7261   19.3538 C   0  0  0  0  0  0  0  0  0  0  0  0
    8.1748  -14.0120   19.4358 N   0  0  0  0  0  0  0  0  0  0  0  0
    8.7036  -15.6938   22.8943 C   0  0  0  0  0  0  0  0  0  0  0  0
    9.3389  -14.6173   22.7355 O   0  0  0  0  0  0  0  0  0  0  0  0
    8.6351  -16.2213   24.2130 N   0  0  0  0  0  0  0  0  0  0  0  0
    9.2798  -15.5647   25.3453 C   0  0  1  0  0  0  0  0  0  0  0  0
    8.2936  -15.3736   26.4844 C   0  0  0  0  0  0  0  0  0  0  0  0
    7.5844  -14.0900   26.2513 C   0  0  0  0  0  0  0  0  0  0  0  0
    6.1984  -14.1113   26.1242 C   0  0  0  0  0  0  0  0  0  0  0  0
    5.5205  -12.9509   25.9061 C   0  0  0  0  0  0  0  0  0  0  0  0
    6.2271  -11.7700   25.8150 C   0  0  0  0  0  0  0  0  0  0  0  0
    7.5987  -11.7324   25.9384 C   0  0  0  0  0  0  0  0  0  0  0  0
    8.3036  -12.9186   26.1625 C   0  0  0  0  0  0  0  0  0  0  0  0
   10.4451  -16.3919   25.7279 C   0  0  0  0  0  0  0  0  0  0  0  0
   10.8088  -17.5609   25.0573 O   0  0  0  0  0  0  0  0  0  0  0  0
   11.1971  -16.0843   26.7057 O   0  0  0  0  0  0  0  0  0  0  0  0
  2  3  2  0
  2  1  1  0
  4  2  1  0
  5  4  1  0
  6  5  1  0
  6  7  1  1
  8  6  1  0
  8  9  2  0
 10  8  1  0
 11 10  1  0
 11 12  1  1
 13 14  2  0
 13 12  1  0
 15 14  1  0
 16 17  2  0
 16 15  1  0
 17 13  1  0
 18 20  1  0
 18 11  1  0
 19 18  2  0
 21 20  1  0
 21 29  1  0
 21 22  1  1
 23 28  1  0
 23 22  1  0
 24 23  2  0
 25 26  2  0
 25 24  1  0
 26 27  1  0
 27 28  2  0
 29 30  1  0
 31 29  2  0
M  END
$$$$
