QHF.pdb
     RDKit          3D

 31 32  0  0  1  0  0  0  0  0999 V2000
    7.1907  -20.5015   22.9640 N   0  0  0  0  0  0  0  0  0  0  0  0
    7.9996  -21.3595   22.1796 C   0  0  0  0  0  0  0  0  0  0  0  0
    7.6478  -22.5368   21.9488 O   0  0  0  0  0  0  0  0  0  0  0  0
    9.2545  -20.8392   21.6448 C   0  0  0  0  0  0  0  0  0  0  0  0
    9.5606  -19.4177   21.9501 C   0  0  0  0  0  0  0  0  0  0  0  0
    9.4421  -18.4671   20.8032 C   0  0  2  0  0  0  0  0  0  0  0  0
   10.4337  -18.7799   19.7678 N   0  0  0  0  0  0  0  0  0  0  0  0
    9.7087  -17.0581   21.2637 C   0  0  0  0  0  0  0  0  0  0  0  0
   10.8842  -16.6268   21.3793 O   0  0  0  0  0  0  0  0  0  0  0  0
    8.6603  -16.1665   21.5834 N   0  0  0  0  0  0  0  0  0  0  0  0
    8.8691  -14.8303   22.0448 C   0  0  1  0  0  0  0  0  0  0  0  0
    7.8435  -13.8487   21.5388 C   0  0  0  0  0  0  0  0  0  0  0  0
    7.8150  -13.7854   20.0565 C   0  0  0  0  0  0  0  0  0  0  0  0
    8.3510  -12.7436   19.3323 C   0  0  0  0  0  0  0  0  0  0  0  0
    8.1687  -12.9773   18.0339 N   0  0  0  0  0  0  0  0  0  0  0  0
    7.5263  -14.1504   17.9332 C   0  0  0  0  0  0  0  0  0  0  0  0
    7.3100  -14.6440   19.1604 N   0  0  0  0  0  0  0  0  0  0  0  0
    8.7947  -14.7988   23.5382 C   0  0  0  0  0  0  0  0  0  0  0  0
    8.6615  -13.7069   24.1528 O   0  0  0  0  0  0  0  0  0  0  0  0
    8.8698  -15.9827   24.3223 N   0  0  0  0  0  0  0  0  0  0  0  0
    8.6732  -15.9690   25.7680 C   0  0  1  0  0  0  0  0  0  0  0  0
    7.2112  -15.7342   26.1061 C   0  0  0  0  0  0  0  0  0  0  0  0
    7.0295  -14.2755   26.3160 C   0  0  0  0  0  0  0  0  0  0  0  0
    5.9440  -13.6482   25.7110 C   0  0  0  0  0  0  0  0  0  0  0  0
    5.7531  -12.3110   25.8818 C   0  0  0  0  0  0  0  0  0  0  0  0
    6.6463  -11.6010   26.6565 C   0  0  0  0  0  0  0  0  0  0  0  0
    7.7254  -12.2072   27.2618 C   0  0  0  0  0  0  0  0  0  0  0  0
    7.9298  -13.5797   27.0923 C   0  0  0  0  0  0  0  0  0  0  0  0
    9.1844  -17.2540   26.2934 C   0  0  0  0  0  0  0  0  0  0  0  0
    9.3632  -17.5091   27.6541 O   0  0  0  0  0  0  0  0  0  0  0  0
    9.4972  -18.2182   25.5263 O   0  0  0  0  0  0  0  0  0  0  0  0
  2  3  2  0
  2  1  1  0
  4  2  1  0
  5  4  1  0
  6  5  1  0
  6  7  1  6
  8  6  1  0
  8  9  2  0
 10  8  1  0
 11 10  1  0
 11 12  1  6
 13 14  2  0
 13 12  1  0
 15 14  1  0
 16 17  2  0
 16 15  1  0
 17 13  1  0
 18 20  1  0
 18 11  1  0
 19 18  2  0
 21 20  1  0
 21 29  1  0
 21 22  1  6
 23 28  1  0
 23 22  1  0
 24 23  2  0
 25 26  2  0
 25 24  1  0
 26 27  1  0
 27 28  2  0
 29 30  1  0
 31 29  2  0
M  END
$$$$
