QHF.pdb
     RDKit          3D

 31 32  0  0  1  0  0  0  0  0999 V2000
    8.8829  -12.4164   18.8051 N   0  0  0  0  0  0  0  0  0  0  0  0
    8.1847  -13.2617   17.9085 C   0  0  0  0  0  0  0  0  0  0  0  0
    8.4088  -13.2158   16.6795 O   0  0  0  0  0  0  0  0  0  0  0  0
    7.1965  -14.1895   18.4509 C   0  0  0  0  0  0  0  0  0  0  0  0
    7.1234  -14.2811   19.9321 C   0  0  0  0  0  0  0  0  0  0  0  0
    8.2842  -14.9442   20.5997 C   0  0  2  0  0  0  0  0  0  0  0  0
    8.7777  -16.0627   19.7882 N   0  0  0  0  0  0  0  0  0  0  0  0
    7.8663  -15.5108   21.9312 C   0  0  0  0  0  0  0  0  0  0  0  0
    6.8725  -15.0487   22.5477 O   0  0  0  0  0  0  0  0  0  0  0  0
    8.5653  -16.5764   22.5413 N   0  0  0  0  0  0  0  0  0  0  0  0
    8.2048  -17.1412   23.8034 C   0  0  1  0  0  0  0  0  0  0  0  0
    8.4236  -18.6303   23.8840 C   0  0  0  0  0  0  0  0  0  0  0  0
    7.5020  -19.3789   22.9940 C   0  0  0  0  0  0  0  0  0  0  0  0
    6.1332  -19.2285   23.0218 C   0  0  0  0  0  0  0  0  0  0  0  0
    5.5887  -20.0320   22.1099 N   0  0  0  0  0  0  0  0  0  0  0  0
    6.5960  -20.6841   21.5106 C   0  0  0  0  0  0  0  0  0  0  0  0
    7.7598  -20.2896   22.0455 N   0  0  0  0  0  0  0  0  0  0  0  0
    9.0359  -16.5252   24.8836 C   0  0  0  0  0  0  0  0  0  0  0  0
   10.2475  -16.2440   24.6818 O   0  0  0  0  0  0  0  0  0  0  0  0
    8.5046  -16.2325   26.1697 N   0  0  0  0  0  0  0  0  0  0  0  0
    9.2914  -15.5617   27.1993 C   0  0  1  0  0  0  0  0  0  0  0  0
    8.4062  -14.6685   28.0509 C   0  0  0  0  0  0  0  0  0  0  0  0
    7.8021  -13.6513   27.1534 C   0  0  0  0  0  0  0  0  0  0  0  0
    6.4377  -13.7273   26.8879 C   0  0  0  0  0  0  0  0  0  0  0  0
    5.8558  -12.8112   26.0657 C   0  0  0  0  0  0  0  0  0  0  0  0
    6.6367  -11.8199   25.5093 C   0  0  0  0  0  0  0  0  0  0  0  0
    7.9881  -11.7313   25.7623 C   0  0  0  0  0  0  0  0  0  0  0  0
    8.5947  -12.6673   26.6050 C   0  0  0  0  0  0  0  0  0  0  0  0
    9.9725  -16.6129   27.9865 C   0  0  0  0  0  0  0  0  0  0  0  0
   11.0085  -16.3484   28.8840 O   0  0  0  0  0  0  0  0  0  0  0  0
    9.6517  -17.8393   27.8917 O   0  0  0  0  0  0  0  0  0  0  0  0
  2  3  2  0
  2  1  1  0
  4  2  1  0
  5  4  1  0
  6  5  1  0
  6  7  1  6
  8  6  1  0
  8  9  2  0
 10  8  1  0
 11 10  1  0
 11 12  1  6
 13 14  2  0
 13 12  1  0
 15 14  1  0
 16 17  2  0
 16 15  1  0
 17 13  1  0
 18 20  1  0
 18 11  1  0
 19 18  2  0
 21 20  1  0
 21 29  1  0
 21 22  1  1
 23 28  1  0
 23 22  1  0
 24 23  2  0
 25 26  2  0
 25 24  1  0
 26 27  1  0
 27 28  2  0
 29 30  1  0
 31 29  2  0
M  END
$$$$
