KCS.pdb
     RDKit          3D

 22 21  0  0  1  0  0  0  0  0999 V2000
    9.6152  -16.2066   18.4296 N   0  0  0  0  0  0  0  0  0  0  0  0
    8.3896  -16.0967   19.2175 C   0  0  1  0  0  0  0  0  0  0  0  0
    7.6918  -17.4004   19.1584 C   0  0  0  0  0  0  0  0  0  0  0  0
    7.3584  -17.8788   17.8064 C   0  0  0  0  0  0  0  0  0  0  0  0
    6.6747  -19.1420   17.5447 C   0  0  0  0  0  0  0  0  0  0  0  0
    6.3694  -19.5959   16.1698 C   0  0  0  0  0  0  0  0  0  0  0  0
    5.6443  -20.9107   16.2309 N   0  0  0  0  0  0  0  0  0  0  0  0
    8.8316  -15.7954   20.6341 C   0  0  0  0  0  0  0  0  0  0  0  0
    9.9586  -16.1926   21.0552 O   0  0  0  0  0  0  0  0  0  0  0  0
    7.9928  -15.0737   21.4875 N   0  0  0  0  0  0  0  0  0  0  0  0
    8.3736  -14.7102   22.8581 C   0  0  1  0  0  0  0  0  0  0  0  0
    7.3246  -13.7782   23.4361 C   0  0  0  0  0  0  0  0  0  0  0  0
    7.6488  -13.4961   25.1847 S   0  0  0  0  0  0  0  0  0  0  0  0
    8.4897  -15.9914   23.5967 C   0  0  0  0  0  0  0  0  0  0  0  0
    7.7368  -16.9914   23.3017 O   0  0  0  0  0  0  0  0  0  0  0  0
   11.1133  -19.4052   23.9593 O   0  0  0  0  0  0  0  0  0  0  0  0
   10.5631  -18.1472   23.7270 C   0  0  0  0  0  0  0  0  0  0  0  0
    9.8702  -17.5911   24.9562 C   0  0  2  0  0  0  0  0  0  0  0  0
    9.4005  -16.2437   24.6565 N   0  0  0  0  0  0  0  0  0  0  0  0
   10.7845  -17.5797   26.1388 C   0  0  0  0  0  0  0  0  0  0  0  0
   11.3145  -18.7736   26.6038 O   0  0  0  0  0  0  0  0  0  0  0  0
   11.0874  -16.5254   26.7238 O   0  0  0  0  0  0  0  0  0  0  0  0
  2  1  1  6
  2  3  1  0
  2  8  1  0
  4  3  1  0
  5  4  1  0
  6  5  1  0
  6  7  1  0
  8  9  2  0
 10  8  1  0
 10 11  1  0
 11 12  1  1
 12 13  1  0
 14 11  1  0
 14 15  2  0
 17 16  1  0
 18 17  1  6
 18 19  1  0
 19 14  1  0
 20 18  1  0
 20 21  1  0
 22 20  2  0
M  END
$$$$
