KCS.pdb
     RDKit          3D

 22 21  0  0  1  0  0  0  0  0999 V2000
    5.5004  -20.5299   15.7668 N   0  0  0  0  0  0  0  0  0  0  0  0
    6.3740  -21.5082   16.4109 C   0  0  1  0  0  0  0  0  0  0  0  0
    6.6800  -22.5662   15.4224 C   0  0  0  0  0  0  0  0  0  0  0  0
    5.5953  -22.8826   14.4783 C   0  0  0  0  0  0  0  0  0  0  0  0
    5.6454  -23.9990   13.5387 C   0  0  0  0  0  0  0  0  0  0  0  0
    4.5139  -24.3155   12.6392 C   0  0  0  0  0  0  0  0  0  0  0  0
    4.8585  -25.5237   11.8148 N   0  0  0  0  0  0  0  0  0  0  0  0
    7.6325  -20.7561   16.7896 C   0  0  0  0  0  0  0  0  0  0  0  0
    8.0850  -19.8399   16.0406 O   0  0  0  0  0  0  0  0  0  0  0  0
    8.3037  -21.0717   17.9739 N   0  0  0  0  0  0  0  0  0  0  0  0
    9.4713  -20.3207   18.4518 C   0  0  1  0  0  0  0  0  0  0  0  0
    9.1159  -19.6208   19.7507 C   0  0  0  0  0  0  0  0  0  0  0  0
    7.8457  -20.5519   20.6235 S   0  0  0  0  0  0  0  0  0  0  0  0
   10.5577  -21.3193   18.6027 C   0  0  0  0  0  0  0  0  0  0  0  0
   10.3021  -22.5142   19.0036 O   0  0  0  0  0  0  0  0  0  0  0  0
   14.4334  -20.7602   17.1505 O   0  0  0  0  0  0  0  0  0  0  0  0
   13.8766  -22.0317   17.2620 C   0  0  0  0  0  0  0  0  0  0  0  0
   12.9275  -22.1384   18.4401 C   0  0  2  0  0  0  0  0  0  0  0  0
   11.9310  -21.0794   18.3328 N   0  0  0  0  0  0  0  0  0  0  0  0
   13.6596  -22.0436   19.7400 C   0  0  0  0  0  0  0  0  0  0  0  0
   14.6134  -22.9985   20.0578 O   0  0  0  0  0  0  0  0  0  0  0  0
   13.4389  -21.1285   20.5521 O   0  0  0  0  0  0  0  0  0  0  0  0
  2  1  1  6
  2  3  1  0
  2  8  1  0
  4  3  1  0
  5  4  1  0
  6  5  1  0
  6  7  1  0
  8  9  2  0
 10  8  1  0
 10 11  1  0
 11 12  1  1
 12 13  1  0
 14 11  1  0
 14 15  2  0
 17 16  1  0
 18 17  1  6
 18 19  1  0
 19 14  1  0
 20 18  1  0
 20 21  1  0
 22 20  2  0
M  END
$$$$
