KCS.pdb
     RDKit          3D

 22 21  0  0  1  0  0  0  0  0999 V2000
    8.7919  -20.4060   14.1523 N   0  0  0  0  0  0  0  0  0  0  0  0
   10.2328  -20.1656   14.1870 C   0  0  1  0  0  0  0  0  0  0  0  0
   10.4930  -18.8629   13.5349 C   0  0  0  0  0  0  0  0  0  0  0  0
   10.1331  -18.7859   12.1093 C   0  0  0  0  0  0  0  0  0  0  0  0
   10.2325  -17.5628   11.3183 C   0  0  0  0  0  0  0  0  0  0  0  0
   11.3301  -17.3446   10.3501 C   0  0  0  0  0  0  0  0  0  0  0  0
   10.9217  -17.8824    9.0077 N   0  0  0  0  0  0  0  0  0  0  0  0
   10.6099  -20.1100   15.6524 C   0  0  0  0  0  0  0  0  0  0  0  0
    9.7565  -19.7684   16.5244 O   0  0  0  0  0  0  0  0  0  0  0  0
   11.9087  -20.4372   16.0510 N   0  0  0  0  0  0  0  0  0  0  0  0
   12.3394  -20.4182   17.4545 C   0  0  1  0  0  0  0  0  0  0  0  0
   11.8202  -21.6621   18.1518 C   0  0  0  0  0  0  0  0  0  0  0  0
   12.3644  -21.6774   19.8682 S   0  0  0  0  0  0  0  0  0  0  0  0
   13.8203  -20.3411   17.4198 C   0  0  0  0  0  0  0  0  0  0  0  0
   14.5030  -21.1319   16.6699 O   0  0  0  0  0  0  0  0  0  0  0  0
   16.0479  -17.0631   17.1774 O   0  0  0  0  0  0  0  0  0  0  0  0
   16.4766  -17.8975   18.2066 C   0  0  0  0  0  0  0  0  0  0  0  0
   16.0523  -19.3372   17.9889 C   0  0  2  0  0  0  0  0  0  0  0  0
   14.6087  -19.4300   18.1713 N   0  0  0  0  0  0  0  0  0  0  0  0
   16.7624  -20.2620   18.9244 C   0  0  0  0  0  0  0  0  0  0  0  0
   18.0028  -20.7709   18.5710 O   0  0  0  0  0  0  0  0  0  0  0  0
   16.2724  -20.5924   20.0181 O   0  0  0  0  0  0  0  0  0  0  0  0
  2  1  1  1
  2  3  1  0
  2  8  1  0
  4  3  1  0
  5  4  1  0
  6  5  1  0
  6  7  1  0
  8  9  2  0
 10  8  1  0
 10 11  1  0
 11 12  1  6
 12 13  1  0
 14 11  1  0
 14 15  2  0
 17 16  1  0
 18 17  1  1
 18 19  1  0
 19 14  1  0
 20 18  1  0
 20 21  1  0
 22 20  2  0
M  END
$$$$
