KCS.pdb
     RDKit          3D

 22 21  0  0  1  0  0  0  0  0999 V2000
    7.8481  -12.8126   20.3289 N   0  0  0  0  0  0  0  0  0  0  0  0
    7.2076  -13.8375   21.1501 C   0  0  1  0  0  0  0  0  0  0  0  0
    7.4902  -15.1546   20.5371 C   0  0  0  0  0  0  0  0  0  0  0  0
    7.2648  -15.2376   19.0845 C   0  0  0  0  0  0  0  0  0  0  0  0
    7.2835  -16.4916   18.3369 C   0  0  0  0  0  0  0  0  0  0  0  0
    6.9836  -16.5433   16.8888 C   0  0  0  0  0  0  0  0  0  0  0  0
    7.0610  -17.9678   16.4167 N   0  0  0  0  0  0  0  0  0  0  0  0
    7.8529  -13.7389   22.5164 C   0  0  0  0  0  0  0  0  0  0  0  0
    9.0873  -13.4763   22.6280 O   0  0  0  0  0  0  0  0  0  0  0  0
    7.0846  -13.9385   23.6664 N   0  0  0  0  0  0  0  0  0  0  0  0
    7.6580  -13.9325   25.0180 C   0  0  1  0  0  0  0  0  0  0  0  0
    6.5947  -13.4944   26.0083 C   0  0  0  0  0  0  0  0  0  0  0  0
    7.1342  -12.0105   26.8738 S   0  0  0  0  0  0  0  0  0  0  0  0
    8.1454  -15.3134   25.2545 C   0  0  0  0  0  0  0  0  0  0  0  0
    7.3521  -16.3194   25.1421 O   0  0  0  0  0  0  0  0  0  0  0  0
   11.0455  -17.1500   23.8801 O   0  0  0  0  0  0  0  0  0  0  0  0
   11.1250  -17.3886   25.2497 C   0  0  0  0  0  0  0  0  0  0  0  0
    9.8394  -17.0263   25.9681 C   0  0  2  0  0  0  0  0  0  0  0  0
    9.4754  -15.6604   25.6110 N   0  0  0  0  0  0  0  0  0  0  0  0
    9.9859  -17.1627   27.4495 C   0  0  0  0  0  0  0  0  0  0  0  0
   10.3424  -18.3886   27.9906 O   0  0  0  0  0  0  0  0  0  0  0  0
    9.7967  -16.2043   28.2185 O   0  0  0  0  0  0  0  0  0  0  0  0
  2  1  1  6
  2  3  1  0
  2  8  1  0
  4  3  1  0
  5  4  1  0
  6  5  1  0
  6  7  1  0
  8  9  2  0
 10  8  1  0
 10 11  1  0
 11 12  1  1
 12 13  1  0
 14 11  1  0
 14 15  2  0
 17 16  1  0
 18 17  1  6
 18 19  1  0
 19 14  1  0
 20 18  1  0
 20 21  1  0
 22 20  2  0
M  END
$$$$
