KCS.pdb
     RDKit          3D

 22 21  0  0  1  0  0  0  0  0999 V2000
    6.4520  -16.0478   18.6644 N   0  0  0  0  0  0  0  0  0  0  0  0
    6.9173  -16.9569   19.7095 C   0  0  1  0  0  0  0  0  0  0  0  0
    7.4978  -18.1485   19.0512 C   0  0  0  0  0  0  0  0  0  0  0  0
    6.5586  -18.9468   18.2458 C   0  0  0  0  0  0  0  0  0  0  0  0
    6.9248  -20.1955   17.5839 C   0  0  0  0  0  0  0  0  0  0  0  0
    5.9614  -20.9528   16.7546 C   0  0  0  0  0  0  0  0  0  0  0  0
    6.6403  -22.1697   16.1920 N   0  0  0  0  0  0  0  0  0  0  0  0
    7.9837  -16.2009   20.4737 C   0  0  0  0  0  0  0  0  0  0  0  0
    9.0162  -15.7680   19.8806 O   0  0  0  0  0  0  0  0  0  0  0  0
    7.8320  -15.9764   21.8446 N   0  0  0  0  0  0  0  0  0  0  0  0
    8.7659  -15.1552   22.6251 C   0  0  1  0  0  0  0  0  0  0  0  0
    8.0505  -14.6144   23.8494 C   0  0  0  0  0  0  0  0  0  0  0  0
    6.9229  -13.2950   23.3700 S   0  0  0  0  0  0  0  0  0  0  0  0
    9.9042  -16.0464   22.9577 C   0  0  0  0  0  0  0  0  0  0  0  0
    9.7039  -17.2703   23.2981 O   0  0  0  0  0  0  0  0  0  0  0  0
   14.7426  -16.8232   23.1288 O   0  0  0  0  0  0  0  0  0  0  0  0
   13.6658  -15.9863   22.8471 C   0  0  0  0  0  0  0  0  0  0  0  0
   12.3368  -16.6290   23.1947 C   0  0  2  0  0  0  0  0  0  0  0  0
   11.2723  -15.6667   22.9361 N   0  0  0  0  0  0  0  0  0  0  0  0
   12.3054  -17.0794   24.6198 C   0  0  0  0  0  0  0  0  0  0  0  0
   13.0475  -18.1863   25.0026 O   0  0  0  0  0  0  0  0  0  0  0  0
   11.6297  -16.4885   25.4799 O   0  0  0  0  0  0  0  0  0  0  0  0
  2  1  1  6
  2  3  1  0
  2  8  1  0
  4  3  1  0
  5  4  1  0
  6  5  1  0
  6  7  1  0
  8  9  2  0
 10  8  1  0
 10 11  1  0
 11 12  1  1
 12 13  1  0
 14 11  1  0
 14 15  2  0
 17 16  1  0
 18 17  1  1
 18 19  1  0
 19 14  1  0
 20 18  1  0
 20 21  1  0
 22 20  2  0
M  END
$$$$
