KCS.pdb
     RDKit          3D

 22 21  0  0  1  0  0  0  0  0999 V2000
    5.2266  -18.7963   23.5780 N   0  0  0  0  0  0  0  0  0  0  0  0
    6.6195  -19.2106   23.7307 C   0  0  1  0  0  0  0  0  0  0  0  0
    6.8876  -20.2796   22.7431 C   0  0  0  0  0  0  0  0  0  0  0  0
    5.7363  -21.1338   22.4072 C   0  0  0  0  0  0  0  0  0  0  0  0
    5.8094  -22.2535   21.4732 C   0  0  0  0  0  0  0  0  0  0  0  0
    4.6429  -23.1223   21.2009 C   0  0  0  0  0  0  0  0  0  0  0  0
    5.0147  -24.1402   20.1598 N   0  0  0  0  0  0  0  0  0  0  0  0
    7.4539  -17.9845   23.4249 C   0  0  0  0  0  0  0  0  0  0  0  0
    7.5740  -17.5680   22.2344 O   0  0  0  0  0  0  0  0  0  0  0  0
    8.0985  -17.3037   24.4611 N   0  0  0  0  0  0  0  0  0  0  0  0
    9.1202  -16.2762   24.2242 C   0  0  1  0  0  0  0  0  0  0  0  0
    8.9139  -15.1338   25.2017 C   0  0  0  0  0  0  0  0  0  0  0  0
    7.2299  -15.1657   25.8384 S   0  0  0  0  0  0  0  0  0  0  0  0
   10.4255  -16.9609   24.3904 C   0  0  0  0  0  0  0  0  0  0  0  0
   10.4818  -18.1826   24.7882 O   0  0  0  0  0  0  0  0  0  0  0  0
   12.8829  -17.8778   21.0176 O   0  0  0  0  0  0  0  0  0  0  0  0
   12.0193  -17.2481   21.9103 C   0  0  0  0  0  0  0  0  0  0  0  0
   12.6687  -17.0072   23.2595 C   0  0  2  0  0  0  0  0  0  0  0  0
   11.6938  -16.3737   24.1392 N   0  0  0  0  0  0  0  0  0  0  0  0
   13.8928  -16.1586   23.1313 C   0  0  0  0  0  0  0  0  0  0  0  0
   15.0585  -16.7135   22.6256 O   0  0  0  0  0  0  0  0  0  0  0  0
   13.8992  -14.9615   23.4664 O   0  0  0  0  0  0  0  0  0  0  0  0
  2  1  1  6
  2  3  1  0
  2  8  1  0
  4  3  1  0
  5  4  1  0
  6  5  1  0
  6  7  1  0
  8  9  2  0
 10  8  1  0
 10 11  1  0
 11 12  1  1
 12 13  1  0
 14 11  1  0
 14 15  2  0
 17 16  1  0
 18 17  1  6
 18 19  1  0
 19 14  1  0
 20 18  1  0
 20 21  1  0
 22 20  2  0
M  END
$$$$
