KCS.pdb
     RDKit          3D

 22 21  0  0  1  0  0  0  0  0999 V2000
    7.5502  -14.4915   20.9655 N   0  0  0  0  0  0  0  0  0  0  0  0
    6.8432  -14.7515   22.2175 C   0  0  1  0  0  0  0  0  0  0  0  0
    6.3601  -16.1499   22.1858 C   0  0  0  0  0  0  0  0  0  0  0  0
    5.7201  -16.5698   20.9280 C   0  0  0  0  0  0  0  0  0  0  0  0
    5.0687  -17.8641   20.7486 C   0  0  0  0  0  0  0  0  0  0  0  0
    4.4138  -18.2403   19.4762 C   0  0  0  0  0  0  0  0  0  0  0  0
    3.9374  -19.6627   19.5650 N   0  0  0  0  0  0  0  0  0  0  0  0
    7.8665  -14.5686   23.3185 C   0  0  0  0  0  0  0  0  0  0  0  0
    9.0929  -14.8027   23.1031 O   0  0  0  0  0  0  0  0  0  0  0  0
    7.4595  -14.1384   24.5842 N   0  0  0  0  0  0  0  0  0  0  0  0
    8.3970  -13.9353   25.6957 C   0  0  1  0  0  0  0  0  0  0  0  0
    7.7815  -12.9760   26.6977 C   0  0  0  0  0  0  0  0  0  0  0  0
    5.9944  -12.9258   26.4833 S   0  0  0  0  0  0  0  0  0  0  0  0
    8.6535  -15.2840   26.2574 C   0  0  0  0  0  0  0  0  0  0  0  0
    7.6882  -16.1124   26.4466 O   0  0  0  0  0  0  0  0  0  0  0  0
   12.2199  -17.2386   26.0573 O   0  0  0  0  0  0  0  0  0  0  0  0
   11.0258  -17.9135   26.2979 C   0  0  0  0  0  0  0  0  0  0  0  0
   10.0916  -17.1204   27.1915 C   0  0  2  0  0  0  0  0  0  0  0  0
    9.9293  -15.7856   26.6277 N   0  0  0  0  0  0  0  0  0  0  0  0
   10.6120  -17.0419   28.5907 C   0  0  0  0  0  0  0  0  0  0  0  0
   10.8635  -18.2111   29.2924 O   0  0  0  0  0  0  0  0  0  0  0  0
   10.8283  -15.9530   29.1502 O   0  0  0  0  0  0  0  0  0  0  0  0
  2  1  1  6
  2  3  1  0
  2  8  1  0
  4  3  1  0
  5  4  1  0
  6  5  1  0
  6  7  1  0
  8  9  2  0
 10  8  1  0
 10 11  1  0
 11 12  1  1
 12 13  1  0
 14 11  1  0
 14 15  2  0
 17 16  1  0
 18 17  1  6
 18 19  1  0
 19 14  1  0
 20 18  1  0
 20 21  1  0
 22 20  2  0
M  END
$$$$
