KCS.pdb
     RDKit          3D

 22 21  0  0  1  0  0  0  0  0999 V2000
    7.7469  -14.4873   21.1552 N   0  0  0  0  0  0  0  0  0  0  0  0
    6.9999  -14.8830   22.3471 C   0  0  1  0  0  0  0  0  0  0  0  0
    6.9308  -16.3611   22.3714 C   0  0  0  0  0  0  0  0  0  0  0  0
    7.2351  -17.0297   21.0953 C   0  0  0  0  0  0  0  0  0  0  0  0
    8.3274  -17.9836   20.9262 C   0  0  0  0  0  0  0  0  0  0  0  0
    8.4943  -18.7691   19.6834 C   0  0  0  0  0  0  0  0  0  0  0  0
    9.7639  -19.5685   19.7685 N   0  0  0  0  0  0  0  0  0  0  0  0
    7.7980  -14.3699   23.5273 C   0  0  0  0  0  0  0  0  0  0  0  0
    9.0640  -14.3449   23.4865 O   0  0  0  0  0  0  0  0  0  0  0  0
    7.1368  -13.9193   24.6730 N   0  0  0  0  0  0  0  0  0  0  0  0
    7.8469  -13.4547   25.8712 C   0  0  1  0  0  0  0  0  0  0  0  0
    6.8704  -12.7300   26.7792 C   0  0  0  0  0  0  0  0  0  0  0  0
    6.2388  -11.2594   25.9542 S   0  0  0  0  0  0  0  0  0  0  0  0
    8.4304  -14.6701   26.4897 C   0  0  0  0  0  0  0  0  0  0  0  0
    7.7188  -15.7275   26.6612 O   0  0  0  0  0  0  0  0  0  0  0  0
   11.6431  -16.1145   25.6412 O   0  0  0  0  0  0  0  0  0  0  0  0
   11.5783  -16.3996   27.0027 C   0  0  0  0  0  0  0  0  0  0  0  0
   10.2456  -16.0005   27.6069 C   0  0  2  0  0  0  0  0  0  0  0  0
    9.7725  -14.7954   26.9365 N   0  0  0  0  0  0  0  0  0  0  0  0
   10.3612  -15.7735   29.0799 C   0  0  0  0  0  0  0  0  0  0  0  0
   10.0286  -14.5354   29.6083 O   0  0  0  0  0  0  0  0  0  0  0  0
   10.7492  -16.6665   29.8530 O   0  0  0  0  0  0  0  0  0  0  0  0
  2  1  1  6
  2  3  1  0
  2  8  1  0
  4  3  1  0
  5  4  1  0
  6  5  1  0
  6  7  1  0
  8  9  2  0
 10  8  1  0
 10 11  1  0
 11 12  1  1
 12 13  1  0
 14 11  1  0
 14 15  2  0
 17 16  1  0
 18 17  1  6
 18 19  1  0
 19 14  1  0
 20 18  1  0
 20 21  1  0
 22 20  2  0
M  END
$$$$
