KCS.pdb
     RDKit          3D

 22 21  0  0  1  0  0  0  0  0999 V2000
   12.2564  -16.9457   19.1583 N   0  0  0  0  0  0  0  0  0  0  0  0
   10.8991  -16.8782   19.6952 C   0  0  1  0  0  0  0  0  0  0  0  0
   10.2375  -18.1741   19.4251 C   0  0  0  0  0  0  0  0  0  0  0  0
   11.0230  -19.3700   19.7727 C   0  0  0  0  0  0  0  0  0  0  0  0
   10.5618  -20.7343   19.5331 C   0  0  0  0  0  0  0  0  0  0  0  0
   11.3474  -21.9123   19.9628 C   0  0  0  0  0  0  0  0  0  0  0  0
   10.6282  -23.1656   19.5504 N   0  0  0  0  0  0  0  0  0  0  0  0
   11.0520  -16.6612   21.1860 C   0  0  0  0  0  0  0  0  0  0  0  0
   12.1637  -16.8705   21.7565 O   0  0  0  0  0  0  0  0  0  0  0  0
    9.9606  -16.2267   21.9429 N   0  0  0  0  0  0  0  0  0  0  0  0
   10.0511  -15.9430   23.3806 C   0  0  1  0  0  0  0  0  0  0  0  0
    8.8671  -15.0889   23.7953 C   0  0  0  0  0  0  0  0  0  0  0  0
    8.9350  -14.7610   25.5645 S   0  0  0  0  0  0  0  0  0  0  0  0
   10.0821  -17.2661   24.0506 C   0  0  0  0  0  0  0  0  0  0  0  0
    9.7241  -18.3300   23.4230 O   0  0  0  0  0  0  0  0  0  0  0  0
   11.8914  -19.9416   23.9403 O   0  0  0  0  0  0  0  0  0  0  0  0
   12.1819  -19.1921   25.0774 C   0  0  0  0  0  0  0  0  0  0  0  0
   10.9305  -18.8083   25.8436 C   0  0  2  0  0  0  0  0  0  0  0  0
   10.4921  -17.4935   25.3909 N   0  0  0  0  0  0  0  0  0  0  0  0
   11.1743  -18.8039   27.3184 C   0  0  0  0  0  0  0  0  0  0  0  0
   11.5797  -19.9713   27.9472 O   0  0  0  0  0  0  0  0  0  0  0  0
   11.0241  -17.7785   28.0052 O   0  0  0  0  0  0  0  0  0  0  0  0
  2  1  1  6
  2  3  1  0
  2  8  1  0
  4  3  1  0
  5  4  1  0
  6  5  1  0
  6  7  1  0
  8  9  2  0
 10  8  1  0
 10 11  1  0
 11 12  1  1
 12 13  1  0
 14 11  1  0
 14 15  2  0
 17 16  1  0
 18 17  1  6
 18 19  1  0
 19 14  1  0
 20 18  1  0
 20 21  1  0
 22 20  2  0
M  END
$$$$
