KCS.pdb
     RDKit          3D

 22 21  0  0  1  0  0  0  0  0999 V2000
   -0.5595  -27.0021   28.6558 N   0  0  0  0  0  0  0  0  0  0  0  0
   -1.5438  -26.2572   27.8739 C   0  0  1  0  0  0  0  0  0  0  0  0
   -1.5742  -26.8342   26.5114 C   0  0  0  0  0  0  0  0  0  0  0  0
   -0.3141  -27.4433   26.0541 C   0  0  0  0  0  0  0  0  0  0  0  0
    0.4457  -26.9566   24.9063 C   0  0  0  0  0  0  0  0  0  0  0  0
    1.8708  -26.5738   25.0171 C   0  0  0  0  0  0  0  0  0  0  0  0
    2.3771  -26.1501   23.6672 N   0  0  0  0  0  0  0  0  0  0  0  0
   -2.8725  -26.4677   28.5688 C   0  0  0  0  0  0  0  0  0  0  0  0
   -3.2034  -27.6154   28.9914 O   0  0  0  0  0  0  0  0  0  0  0  0
   -3.7441  -25.3902   28.7478 N   0  0  0  0  0  0  0  0  0  0  0  0
   -5.0120  -25.5047   29.4793 C   0  0  1  0  0  0  0  0  0  0  0  0
   -4.7271  -25.9419   30.9045 C   0  0  0  0  0  0  0  0  0  0  0  0
   -6.1968  -25.7205   31.9211 S   0  0  0  0  0  0  0  0  0  0  0  0
   -5.6486  -24.1677   29.3929 C   0  0  0  0  0  0  0  0  0  0  0  0
   -4.9852  -23.1035   29.6776 O   0  0  0  0  0  0  0  0  0  0  0  0
   -8.5244  -23.1117   26.7449 O   0  0  0  0  0  0  0  0  0  0  0  0
   -8.7754  -22.6222   28.0242 C   0  0  0  0  0  0  0  0  0  0  0  0
   -7.5199  -22.5735   28.8736 C   0  0  2  0  0  0  0  0  0  0  0  0
   -6.9928  -23.9266   29.0037 N   0  0  0  0  0  0  0  0  0  0  0  0
   -7.7948  -21.9831   30.2191 C   0  0  0  0  0  0  0  0  0  0  0  0
   -7.6808  -20.6131   30.4001 O   0  0  0  0  0  0  0  0  0  0  0  0
   -8.1250  -22.6869   31.1893 O   0  0  0  0  0  0  0  0  0  0  0  0
  2  1  1  1
  2  3  1  0
  2  8  1  0
  4  3  1  0
  5  4  1  0
  6  5  1  0
  6  7  1  0
  8  9  2  0
 10  8  1  0
 10 11  1  0
 11 12  1  1
 12 13  1  0
 14 11  1  0
 14 15  2  0
 17 16  1  0
 18 17  1  6
 18 19  1  0
 19 14  1  0
 20 18  1  0
 20 21  1  0
 22 20  2  0
M  END
$$$$
