KCS.pdb
     RDKit          3D

 22 21  0  0  1  0  0  0  0  0999 V2000
    7.9670  -13.5528   19.9489 N   0  0  0  0  0  0  0  0  0  0  0  0
    7.3425  -14.4549   20.9139 C   0  0  1  0  0  0  0  0  0  0  0  0
    7.5729  -15.8429   20.4551 C   0  0  0  0  0  0  0  0  0  0  0  0
    6.8556  -16.2312   19.2292 C   0  0  0  0  0  0  0  0  0  0  0  0
    6.8441  -17.5916   18.6994 C   0  0  0  0  0  0  0  0  0  0  0  0
    6.0825  -17.9506   17.4826 C   0  0  0  0  0  0  0  0  0  0  0  0
    6.1206  -19.4411   17.2952 N   0  0  0  0  0  0  0  0  0  0  0  0
    8.0477  -14.2077   22.2309 C   0  0  0  0  0  0  0  0  0  0  0  0
    9.3128  -14.1646   22.2858 O   0  0  0  0  0  0  0  0  0  0  0  0
    7.3012  -14.0249   23.3980 N   0  0  0  0  0  0  0  0  0  0  0  0
    7.9186  -13.8223   24.7146 C   0  0  1  0  0  0  0  0  0  0  0  0
    6.9174  -13.1506   25.6363 C   0  0  0  0  0  0  0  0  0  0  0  0
    7.6139  -12.9906   27.2890 S   0  0  0  0  0  0  0  0  0  0  0  0
    8.3290  -15.1702   25.1782 C   0  0  0  0  0  0  0  0  0  0  0  0
    7.7463  -16.2257   24.7306 O   0  0  0  0  0  0  0  0  0  0  0  0
   11.7132  -16.9672   24.9202 O   0  0  0  0  0  0  0  0  0  0  0  0
   10.3987  -17.3765   25.1296 C   0  0  0  0  0  0  0  0  0  0  0  0
    9.8130  -16.7889   26.3992 C   0  0  2  0  0  0  0  0  0  0  0  0
    9.3603  -15.4317   26.1187 N   0  0  0  0  0  0  0  0  0  0  0  0
   10.8109  -16.7924   27.5122 C   0  0  0  0  0  0  0  0  0  0  0  0
   11.4445  -17.9764   27.8578 O   0  0  0  0  0  0  0  0  0  0  0  0
   11.0935  -15.7592   28.1433 O   0  0  0  0  0  0  0  0  0  0  0  0
  2  1  1  6
  2  3  1  0
  2  8  1  0
  4  3  1  0
  5  4  1  0
  6  5  1  0
  6  7  1  0
  8  9  2  0
 10  8  1  0
 10 11  1  0
 11 12  1  1
 12 13  1  0
 14 11  1  0
 14 15  2  0
 17 16  1  0
 18 17  1  6
 18 19  1  0
 19 14  1  0
 20 18  1  0
 20 21  1  0
 22 20  2  0
M  END
$$$$
