KCS.pdb
     RDKit          3D

 22 21  0  0  1  0  0  0  0  0999 V2000
    6.5278  -18.9473   27.3398 N   0  0  0  0  0  0  0  0  0  0  0  0
    7.6435  -18.0575   27.0261 C   0  0  1  0  0  0  0  0  0  0  0  0
    8.7270  -18.8757   26.4373 C   0  0  0  0  0  0  0  0  0  0  0  0
    9.9740  -18.9306   27.2183 C   0  0  0  0  0  0  0  0  0  0  0  0
   10.0495  -19.4531   28.5795 C   0  0  0  0  0  0  0  0  0  0  0  0
   11.3232  -19.4950   29.3315 C   0  0  0  0  0  0  0  0  0  0  0  0
   11.0430  -19.8604   30.7619 N   0  0  0  0  0  0  0  0  0  0  0  0
    7.1134  -17.0684   26.0094 C   0  0  0  0  0  0  0  0  0  0  0  0
    6.1286  -17.3692   25.2713 O   0  0  0  0  0  0  0  0  0  0  0  0
    7.7123  -15.8124   25.8807 N   0  0  0  0  0  0  0  0  0  0  0  0
    7.2660  -14.8143   24.9007 C   0  0  1  0  0  0  0  0  0  0  0  0
    7.6392  -13.4289   25.3955 C   0  0  0  0  0  0  0  0  0  0  0  0
    6.6310  -12.9932   26.8224 S   0  0  0  0  0  0  0  0  0  0  0  0
    7.9289  -15.1788   23.6247 C   0  0  0  0  0  0  0  0  0  0  0  0
    9.0510  -15.8071   23.6222 O   0  0  0  0  0  0  0  0  0  0  0  0
    6.0388  -15.4078   19.9326 O   0  0  0  0  0  0  0  0  0  0  0  0
    7.3224  -14.8680   19.9156 C   0  0  0  0  0  0  0  0  0  0  0  0
    8.1362  -15.2917   21.1233 C   0  0  2  0  0  0  0  0  0  0  0  0
    7.4224  -14.8909   22.3298 N   0  0  0  0  0  0  0  0  0  0  0  0
    9.5047  -14.6908   21.0963 C   0  0  0  0  0  0  0  0  0  0  0  0
   10.3665  -15.0012   20.0553 O   0  0  0  0  0  0  0  0  0  0  0  0
    9.8984  -13.9152   21.9846 O   0  0  0  0  0  0  0  0  0  0  0  0
  2  1  1  6
  2  3  1  0
  2  8  1  0
  4  3  1  0
  5  4  1  0
  6  5  1  0
  6  7  1  0
  8  9  2  0
 10  8  1  0
 10 11  1  0
 11 12  1  1
 12 13  1  0
 14 11  1  0
 14 15  2  0
 17 16  1  0
 18 17  1  6
 18 19  1  0
 19 14  1  0
 20 18  1  0
 20 21  1  0
 22 20  2  0
M  END
$$$$
