KCS.pdb
     RDKit          3D

 22 21  0  0  1  0  0  0  0  0999 V2000
    6.9390  -17.2675   21.6239 N   0  0  0  0  0  0  0  0  0  0  0  0
    6.4212  -17.0137   22.9665 C   0  0  1  0  0  0  0  0  0  0  0  0
    6.3069  -18.3140   23.6639 C   0  0  0  0  0  0  0  0  0  0  0  0
    5.7525  -19.4163   22.8604 C   0  0  0  0  0  0  0  0  0  0  0  0
    6.4787  -20.6507   22.5767 C   0  0  0  0  0  0  0  0  0  0  0  0
    5.8211  -21.8184   21.9494 C   0  0  0  0  0  0  0  0  0  0  0  0
    6.7914  -22.9646   21.8956 N   0  0  0  0  0  0  0  0  0  0  0  0
    7.4479  -16.1343   23.6487 C   0  0  0  0  0  0  0  0  0  0  0  0
    8.6721  -16.2084   23.3310 O   0  0  0  0  0  0  0  0  0  0  0  0
    7.0463  -15.2321   24.6375 N   0  0  0  0  0  0  0  0  0  0  0  0
    7.9981  -14.4415   25.4278 C   0  0  1  0  0  0  0  0  0  0  0  0
    7.2487  -13.3383   26.1522 C   0  0  0  0  0  0  0  0  0  0  0  0
    8.3532  -12.4926   27.2954 S   0  0  0  0  0  0  0  0  0  0  0  0
    8.6556  -15.4034   26.3458 C   0  0  0  0  0  0  0  0  0  0  0  0
    7.9589  -16.2351   27.0365 O   0  0  0  0  0  0  0  0  0  0  0  0
   12.8587  -16.0779   26.6897 O   0  0  0  0  0  0  0  0  0  0  0  0
   11.8844  -17.0452   26.9228 C   0  0  0  0  0  0  0  0  0  0  0  0
   10.6193  -16.4512   27.5117 C   0  0  2  0  0  0  0  0  0  0  0  0
   10.0566  -15.5090   26.5518 N   0  0  0  0  0  0  0  0  0  0  0  0
   10.8909  -15.7751   28.8169 C   0  0  0  0  0  0  0  0  0  0  0  0
   11.4418  -16.5022   29.8611 O   0  0  0  0  0  0  0  0  0  0  0  0
   10.6367  -14.5717   28.9979 O   0  0  0  0  0  0  0  0  0  0  0  0
  2  1  1  6
  2  3  1  0
  2  8  1  0
  4  3  1  0
  5  4  1  0
  6  5  1  0
  6  7  1  0
  8  9  2  0
 10  8  1  0
 10 11  1  0
 11 12  1  1
 12 13  1  0
 14 11  1  0
 14 15  2  0
 17 16  1  0
 18 17  1  6
 18 19  1  0
 19 14  1  0
 20 18  1  0
 20 21  1  0
 22 20  2  0
M  END
$$$$
