DCG.pdb
     RDKit          3D

 19 18  0  0  1  0  0  0  0  0999 V2000
    8.3778  -18.3997   20.3682 N   0  0  0  0  0  0  0  0  0  0  0  0
    9.5629  -17.6818   20.0475 C   0  0  1  0  0  0  0  0  0  0  0  0
    9.6590  -17.2596   18.6074 C   0  0  0  0  0  0  0  0  0  0  0  0
    9.5232  -18.4351   17.7183 C   0  0  0  0  0  0  0  0  0  0  0  0
    8.5069  -18.4869   16.9607 O   0  0  0  0  0  0  0  0  0  0  0  0
    9.7706  -16.4888   20.9321 C   0  0  0  0  0  0  0  0  0  0  0  0
   10.8377  -15.8166   20.8441 O   0  0  0  0  0  0  0  0  0  0  0  0
   10.4222  -19.4662   17.6623 O   0  0  0  0  0  0  0  0  0  0  0  0
    8.8067  -16.0798   21.8741 N   0  0  0  0  0  0  0  0  0  0  0  0
    8.9603  -14.9514   22.7884 C   0  0  1  0  0  0  0  0  0  0  0  0
    7.6075  -14.2725   22.8406 C   0  0  0  0  0  0  0  0  0  0  0  0
    6.4425  -14.7941   21.6047 S   0  0  0  0  0  0  0  0  0  0  0  0
    9.4723  -15.3816   24.0935 C   0  0  0  0  0  0  0  0  0  0  0  0
    9.6505  -14.4938   25.0064 O   0  0  0  0  0  0  0  0  0  0  0  0
    9.7898  -16.7197   24.4333 N   0  0  0  0  0  0  0  0  0  0  0  0
   10.2432  -17.0200   25.7784 C   0  0  0  0  0  0  0  0  0  0  0  0
   11.6080  -17.5714   25.8031 C   0  0  0  0  0  0  0  0  0  0  0  0
   12.1046  -18.0181   26.8563 O   0  0  0  0  0  0  0  0  0  0  0  0
   12.3556  -17.5977   24.6469 O   0  0  0  0  0  0  0  0  0  0  0  0
  2  1  1  6
  2  3  1  0
  3  4  1  0
  4  8  1  0
  5  4  2  0
  6  2  1  0
  6  7  2  0
  9  6  1  0
 10  9  1  0
 10 11  1  1
 12 11  1  0
 13 10  1  0
 14 13  2  0
 15 13  1  0
 16 15  1  0
 17 16  1  0
 17 19  1  0
 18 17  2  0
M  END
$$$$
