DCG.pdb
     RDKit          3D

 19 18  0  0  1  0  0  0  0  0999 V2000
    6.6714  -15.7350   20.9188 N   0  0  0  0  0  0  0  0  0  0  0  0
    8.0678  -15.4653   20.9063 C   0  0  1  0  0  0  0  0  0  0  0  0
    8.5215  -14.6090   19.7564 C   0  0  0  0  0  0  0  0  0  0  0  0
    8.3352  -15.3287   18.4766 C   0  0  0  0  0  0  0  0  0  0  0  0
    8.9980  -16.3957   18.2983 O   0  0  0  0  0  0  0  0  0  0  0  0
    8.5503  -14.8674   22.1943 C   0  0  0  0  0  0  0  0  0  0  0  0
    9.7152  -14.3818   22.2669 O   0  0  0  0  0  0  0  0  0  0  0  0
    7.4956  -14.9168   17.4766 O   0  0  0  0  0  0  0  0  0  0  0  0
    7.7425  -14.8245   23.3473 N   0  0  0  0  0  0  0  0  0  0  0  0
    8.2359  -14.6008   24.7035 C   0  0  1  0  0  0  0  0  0  0  0  0
    7.3800  -13.4916   25.2788 C   0  0  0  0  0  0  0  0  0  0  0  0
    5.6786  -13.9122   25.5699 S   0  0  0  0  0  0  0  0  0  0  0  0
    8.2309  -15.8388   25.4895 C   0  0  0  0  0  0  0  0  0  0  0  0
    7.2028  -16.6077   25.4178 O   0  0  0  0  0  0  0  0  0  0  0  0
    9.2869  -16.2614   26.3340 N   0  0  0  0  0  0  0  0  0  0  0  0
    9.1592  -17.5144   27.0541 C   0  0  0  0  0  0  0  0  0  0  0  0
   10.2856  -17.7549   27.9709 C   0  0  0  0  0  0  0  0  0  0  0  0
   11.2235  -16.9387   28.0689 O   0  0  0  0  0  0  0  0  0  0  0  0
   10.3111  -18.8989   28.7370 O   0  0  0  0  0  0  0  0  0  0  0  0
  2  1  1  1
  2  3  1  0
  3  4  1  0
  4  8  1  0
  5  4  2  0
  6  2  1  0
  6  7  2  0
  9  6  1  0
 10  9  1  0
 10 11  1  1
 12 11  1  0
 13 10  1  0
 14 13  2  0
 15 13  1  0
 16 15  1  0
 17 16  1  0
 17 19  1  0
 18 17  2  0
M  END
$$$$
