DCG.pdb
     RDKit          3D

 19 18  0  0  1  0  0  0  0  0999 V2000
    9.7268  -16.8893   18.7739 N   0  0  0  0  0  0  0  0  0  0  0  0
   10.8240  -17.4048   19.5175 C   0  0  1  0  0  0  0  0  0  0  0  0
   12.1331  -17.3908   18.7775 C   0  0  0  0  0  0  0  0  0  0  0  0
   12.0418  -18.2250   17.5584 C   0  0  0  0  0  0  0  0  0  0  0  0
   10.9612  -18.1833   16.8950 O   0  0  0  0  0  0  0  0  0  0  0  0
   10.9927  -16.7230   20.8425 C   0  0  0  0  0  0  0  0  0  0  0  0
   12.0798  -16.1394   21.1177 O   0  0  0  0  0  0  0  0  0  0  0  0
   13.0467  -19.0360   17.1031 O   0  0  0  0  0  0  0  0  0  0  0  0
    9.9694  -16.7066   21.8103 N   0  0  0  0  0  0  0  0  0  0  0  0
   10.0822  -16.0982   23.1331 C   0  0  1  0  0  0  0  0  0  0  0  0
    9.0021  -15.0384   23.1959 C   0  0  0  0  0  0  0  0  0  0  0  0
    7.3352  -15.6493   23.2643 S   0  0  0  0  0  0  0  0  0  0  0  0
   10.0053  -17.1044   24.1971 C   0  0  0  0  0  0  0  0  0  0  0  0
    9.3265  -18.1750   23.9822 O   0  0  0  0  0  0  0  0  0  0  0  0
   10.6311  -16.9883   25.4628 N   0  0  0  0  0  0  0  0  0  0  0  0
   10.4269  -18.0301   26.4516 C   0  0  0  0  0  0  0  0  0  0  0  0
   11.2370  -17.8235   27.6633 C   0  0  0  0  0  0  0  0  0  0  0  0
   12.0399  -16.8730   27.7486 O   0  0  0  0  0  0  0  0  0  0  0  0
   11.1115  -18.6910   28.7255 O   0  0  0  0  0  0  0  0  0  0  0  0
  2  1  1  6
  2  3  1  0
  3  4  1  0
  4  8  1  0
  5  4  2  0
  6  2  1  0
  6  7  2  0
  9  6  1  0
 10  9  1  0
 10 11  1  1
 12 11  1  0
 13 10  1  0
 14 13  2  0
 15 13  1  0
 16 15  1  0
 17 16  1  0
 17 19  1  0
 18 17  2  0
M  END
$$$$
