DCG.pdb
     RDKit          3D

 19 18  0  0  1  0  0  0  0  0999 V2000
    8.0546  -13.0575   17.8640 N   0  0  0  0  0  0  0  0  0  0  0  0
    7.8761  -14.2080   18.6808 C   0  0  1  0  0  0  0  0  0  0  0  0
    8.4109  -15.4797   18.0824 C   0  0  0  0  0  0  0  0  0  0  0  0
    7.5375  -15.9331   16.9769 C   0  0  0  0  0  0  0  0  0  0  0  0
    6.4466  -16.5038   17.2834 O   0  0  0  0  0  0  0  0  0  0  0  0
    8.4403  -14.0292   20.0587 C   0  0  0  0  0  0  0  0  0  0  0  0
    9.6266  -13.6179   20.2060 O   0  0  0  0  0  0  0  0  0  0  0  0
    7.8317  -15.7758   15.6489 O   0  0  0  0  0  0  0  0  0  0  0  0
    7.6874  -14.3063   21.2164 N   0  0  0  0  0  0  0  0  0  0  0  0
    8.1771  -14.1600   22.5845 C   0  0  1  0  0  0  0  0  0  0  0  0
    7.2700  -13.1418   23.2434 C   0  0  0  0  0  0  0  0  0  0  0  0
    7.4335  -13.0006   25.0069 S   0  0  0  0  0  0  0  0  0  0  0  0
    8.2389  -15.4521   23.2754 C   0  0  0  0  0  0  0  0  0  0  0  0
    7.1875  -16.1920   23.2896 O   0  0  0  0  0  0  0  0  0  0  0  0
    9.3846  -15.9576   23.9379 N   0  0  0  0  0  0  0  0  0  0  0  0
    9.2862  -17.2074   24.6681 C   0  0  0  0  0  0  0  0  0  0  0  0
   10.4472  -17.4423   25.5421 C   0  0  0  0  0  0  0  0  0  0  0  0
   11.3946  -16.6326   25.5883 O   0  0  0  0  0  0  0  0  0  0  0  0
   10.4952  -18.5740   26.3255 O   0  0  0  0  0  0  0  0  0  0  0  0
  2  1  1  6
  2  3  1  0
  3  4  1  0
  4  8  1  0
  5  4  2  0
  6  2  1  0
  6  7  2  0
  9  6  1  0
 10  9  1  0
 10 11  1  1
 12 11  1  0
 13 10  1  0
 14 13  2  0
 15 13  1  0
 16 15  1  0
 17 16  1  0
 17 19  1  0
 18 17  2  0
M  END
$$$$
