DCG.pdb
     RDKit          3D

 19 18  0  0  1  0  0  0  0  0999 V2000
    7.8819  -12.9094   19.6944 N   0  0  0  0  0  0  0  0  0  0  0  0
    7.6129  -14.0072   20.5576 C   0  0  1  0  0  0  0  0  0  0  0  0
    8.0394  -15.3417   20.0115 C   0  0  0  0  0  0  0  0  0  0  0  0
    7.4507  -15.5591   18.6711 C   0  0  0  0  0  0  0  0  0  0  0  0
    6.8281  -14.5914   18.1367 O   0  0  0  0  0  0  0  0  0  0  0  0
    8.1952  -13.8192   21.9268 C   0  0  0  0  0  0  0  0  0  0  0  0
    9.3435  -13.3071   22.0589 O   0  0  0  0  0  0  0  0  0  0  0  0
    7.5355  -16.7345   17.9740 O   0  0  0  0  0  0  0  0  0  0  0  0
    7.5012  -14.1973   23.0926 N   0  0  0  0  0  0  0  0  0  0  0  0
    8.0546  -14.1551   24.4434 C   0  0  1  0  0  0  0  0  0  0  0  0
    7.2704  -13.0893   25.1801 C   0  0  0  0  0  0  0  0  0  0  0  0
    5.7834  -13.6477   25.9760 S   0  0  0  0  0  0  0  0  0  0  0  0
    8.0249  -15.4763   25.0791 C   0  0  0  0  0  0  0  0  0  0  0  0
    7.0153  -16.2414   24.8588 O   0  0  0  0  0  0  0  0  0  0  0  0
    9.0378  -15.9844   25.9294 N   0  0  0  0  0  0  0  0  0  0  0  0
    8.8752  -17.3016   26.5153 C   0  0  0  0  0  0  0  0  0  0  0  0
    9.9693  -17.6471   27.4376 C   0  0  0  0  0  0  0  0  0  0  0  0
   10.9511  -16.8924   27.5857 O   0  0  0  0  0  0  0  0  0  0  0  0
    9.9148  -18.8226   28.1530 O   0  0  0  0  0  0  0  0  0  0  0  0
  2  1  1  6
  2  3  1  0
  3  4  1  0
  4  8  1  0
  5  4  2  0
  6  2  1  0
  6  7  2  0
  9  6  1  0
 10  9  1  0
 10 11  1  1
 12 11  1  0
 13 10  1  0
 14 13  2  0
 15 13  1  0
 16 15  1  0
 17 16  1  0
 17 19  1  0
 18 17  2  0
M  END
$$$$
