DCG.pdb
     RDKit          3D

 19 18  0  0  1  0  0  0  0  0999 V2000
    8.0393  -13.5617   14.8560 N   0  0  0  0  0  0  0  0  0  0  0  0
    7.8191  -14.6467   15.7488 C   0  0  1  0  0  0  0  0  0  0  0  0
    8.2236  -15.9881   15.2027 C   0  0  0  0  0  0  0  0  0  0  0  0
    7.6729  -16.1748   13.8417 C   0  0  0  0  0  0  0  0  0  0  0  0
    8.4940  -16.3802   12.8965 O   0  0  0  0  0  0  0  0  0  0  0  0
    8.4690  -14.4349   17.0837 C   0  0  0  0  0  0  0  0  0  0  0  0
    9.6668  -14.0355   17.1458 O   0  0  0  0  0  0  0  0  0  0  0  0
    6.3379  -16.1399   13.5395 O   0  0  0  0  0  0  0  0  0  0  0  0
    7.7856  -14.6676   18.2931 N   0  0  0  0  0  0  0  0  0  0  0  0
    8.3523  -14.4649   19.6237 C   0  0  1  0  0  0  0  0  0  0  0  0
    7.3692  -13.5815   20.3633 C   0  0  0  0  0  0  0  0  0  0  0  0
    7.6140  -13.4694   22.1194 S   0  0  0  0  0  0  0  0  0  0  0  0
    8.6375  -15.7409   20.2876 C   0  0  0  0  0  0  0  0  0  0  0  0
    7.7910  -16.7008   20.1635 O   0  0  0  0  0  0  0  0  0  0  0  0
    9.7914  -16.0037   21.0665 N   0  0  0  0  0  0  0  0  0  0  0  0
    9.9047  -17.2745   21.7572 C   0  0  0  0  0  0  0  0  0  0  0  0
   11.1531  -17.3869   22.5293 C   0  0  0  0  0  0  0  0  0  0  0  0
   12.0057  -16.4767   22.5137 O   0  0  0  0  0  0  0  0  0  0  0  0
   11.3907  -18.5137   23.2844 O   0  0  0  0  0  0  0  0  0  0  0  0
  2  1  1  6
  2  3  1  0
  3  4  1  0
  4  8  1  0
  5  4  2  0
  6  2  1  0
  6  7  2  0
  9  6  1  0
 10  9  1  0
 10 11  1  1
 12 11  1  0
 13 10  1  0
 14 13  2  0
 15 13  1  0
 16 15  1  0
 17 16  1  0
 17 19  1  0
 18 17  2  0
M  END
$$$$
