DCG.pdb
     RDKit          3D

 19 18  0  0  1  0  0  0  0  0999 V2000
    7.5026  -15.0748   19.8926 N   0  0  0  0  0  0  0  0  0  0  0  0
    7.7728  -15.9410   20.9878 C   0  0  1  0  0  0  0  0  0  0  0  0
    8.4574  -17.2244   20.6064 C   0  0  0  0  0  0  0  0  0  0  0  0
    7.9575  -17.7030   19.2982 C   0  0  0  0  0  0  0  0  0  0  0  0
    8.4939  -17.2264   18.2519 O   0  0  0  0  0  0  0  0  0  0  0  0
    8.5504  -15.2656   22.0779 C   0  0  0  0  0  0  0  0  0  0  0  0
    9.7197  -14.8429   21.8495 O   0  0  0  0  0  0  0  0  0  0  0  0
    6.9561  -18.6245   19.1466 O   0  0  0  0  0  0  0  0  0  0  0  0
    8.0201  -15.0800   23.3695 N   0  0  0  0  0  0  0  0  0  0  0  0
    8.7427  -14.4842   24.4900 C   0  0  1  0  0  0  0  0  0  0  0  0
    7.9204  -13.2893   24.9258 C   0  0  0  0  0  0  0  0  0  0  0  0
    6.2320  -13.6390   25.3544 S   0  0  0  0  0  0  0  0  0  0  0  0
    8.9946  -15.4649   25.5509 C   0  0  0  0  0  0  0  0  0  0  0  0
    8.0988  -16.3560   25.7889 O   0  0  0  0  0  0  0  0  0  0  0  0
   10.1664  -15.5089   26.3457 N   0  0  0  0  0  0  0  0  0  0  0  0
   10.2372  -16.4461   27.4509 C   0  0  0  0  0  0  0  0  0  0  0  0
   10.9252  -17.6957   27.0870 C   0  0  0  0  0  0  0  0  0  0  0  0
   11.2658  -17.9255   25.9094 O   0  0  0  0  0  0  0  0  0  0  0  0
   11.2011  -18.6321   28.0584 O   0  0  0  0  0  0  0  0  0  0  0  0
  2  1  1  6
  2  3  1  0
  3  4  1  0
  4  8  1  0
  5  4  2  0
  6  2  1  0
  6  7  2  0
  9  6  1  0
 10  9  1  0
 10 11  1  1
 12 11  1  0
 13 10  1  0
 14 13  2  0
 15 13  1  0
 16 15  1  0
 17 16  1  0
 17 19  1  0
 18 17  2  0
M  END
$$$$
