DCG.pdb
     RDKit          3D

 19 18  0  0  1  0  0  0  0  0999 V2000
    9.1712  -14.8683   20.3582 N   0  0  0  0  0  0  0  0  0  0  0  0
    8.6973  -15.6980   21.4116 C   0  0  1  0  0  0  0  0  0  0  0  0
    9.0291  -17.1555   21.2472 C   0  0  0  0  0  0  0  0  0  0  0  0
    8.5707  -17.6397   19.9258 C   0  0  0  0  0  0  0  0  0  0  0  0
    7.3238  -17.8028   19.7577 O   0  0  0  0  0  0  0  0  0  0  0  0
    9.1540  -15.2317   22.7618 C   0  0  0  0  0  0  0  0  0  0  0  0
   10.3831  -15.0283   22.9764 O   0  0  0  0  0  0  0  0  0  0  0  0
    9.4048  -17.9217   18.8772 O   0  0  0  0  0  0  0  0  0  0  0  0
    8.2516  -15.0070   23.8196 N   0  0  0  0  0  0  0  0  0  0  0  0
    8.6324  -14.5905   25.1666 C   0  0  1  0  0  0  0  0  0  0  0  0
    7.7409  -13.4138   25.5047 C   0  0  0  0  0  0  0  0  0  0  0  0
    7.8481  -12.8304   27.1795 S   0  0  0  0  0  0  0  0  0  0  0  0
    8.5518  -15.7039   26.1176 C   0  0  0  0  0  0  0  0  0  0  0  0
    7.4622  -16.3841   26.1761 O   0  0  0  0  0  0  0  0  0  0  0  0
    9.5970  -16.0958   26.9899 N   0  0  0  0  0  0  0  0  0  0  0  0
    9.4039  -17.2447   27.8545 C   0  0  0  0  0  0  0  0  0  0  0  0
   10.5496  -17.4752   28.7497 C   0  0  0  0  0  0  0  0  0  0  0  0
   11.5695  -16.7597   28.6900 O   0  0  0  0  0  0  0  0  0  0  0  0
   10.5019  -18.4969   29.6718 O   0  0  0  0  0  0  0  0  0  0  0  0
  2  1  1  6
  2  3  1  0
  3  4  1  0
  4  8  1  0
  5  4  2  0
  6  2  1  0
  6  7  2  0
  9  6  1  0
 10  9  1  0
 10 11  1  1
 12 11  1  0
 13 10  1  0
 14 13  2  0
 15 13  1  0
 16 15  1  0
 17 16  1  0
 17 19  1  0
 18 17  2  0
M  END
$$$$
