DCG.pdb
     RDKit          3D

 19 18  0  0  1  0  0  0  0  0999 V2000
    7.9291  -14.0884   20.2063 N   0  0  0  0  0  0  0  0  0  0  0  0
    7.5321  -14.9644   21.2539 C   0  0  1  0  0  0  0  0  0  0  0  0
    7.8726  -16.4093   21.0137 C   0  0  0  0  0  0  0  0  0  0  0  0
    7.4560  -16.8148   19.6527 C   0  0  0  0  0  0  0  0  0  0  0  0
    8.2954  -17.4489   18.9435 O   0  0  0  0  0  0  0  0  0  0  0  0
    8.0647  -14.5419   22.5907 C   0  0  0  0  0  0  0  0  0  0  0  0
    9.3038  -14.3419   22.7414 O   0  0  0  0  0  0  0  0  0  0  0  0
    6.2260  -16.5496   19.1126 O   0  0  0  0  0  0  0  0  0  0  0  0
    7.2240  -14.3557   23.7053 N   0  0  0  0  0  0  0  0  0  0  0  0
    7.6850  -14.0339   25.0532 C   0  0  1  0  0  0  0  0  0  0  0  0
    6.7805  -12.9242   25.5473 C   0  0  0  0  0  0  0  0  0  0  0  0
    6.9683  -12.4909   27.2601 S   0  0  0  0  0  0  0  0  0  0  0  0
    7.7094  -15.2223   25.9120 C   0  0  0  0  0  0  0  0  0  0  0  0
    6.6329  -15.9149   26.0331 O   0  0  0  0  0  0  0  0  0  0  0  0
    8.8442  -15.6750   26.6292 N   0  0  0  0  0  0  0  0  0  0  0  0
    8.7075  -16.8025   27.5320 C   0  0  0  0  0  0  0  0  0  0  0  0
    9.9429  -17.0747   28.2848 C   0  0  0  0  0  0  0  0  0  0  0  0
   10.0404  -18.0730   29.0259 O   0  0  0  0  0  0  0  0  0  0  0  0
   11.0141  -16.2164   28.1738 O   0  0  0  0  0  0  0  0  0  0  0  0
  2  1  1  6
  2  3  1  0
  3  4  1  0
  4  8  1  0
  5  4  2  0
  6  2  1  0
  6  7  2  0
  9  6  1  0
 10  9  1  0
 10 11  1  1
 12 11  1  0
 13 10  1  0
 14 13  2  0
 15 13  1  0
 16 15  1  0
 17 16  1  0
 17 19  1  0
 18 17  2  0
M  END
$$$$
