DCG.pdb
     RDKit          3D

 19 18  0  0  1  0  0  0  0  0999 V2000
    9.0097  -16.4345   21.9905 N   0  0  0  0  0  0  0  0  0  0  0  0
   10.4014  -16.5456   22.2616 C   0  0  1  0  0  0  0  0  0  0  0  0
   11.2833  -15.8499   21.2619 C   0  0  0  0  0  0  0  0  0  0  0  0
   10.9352  -16.2754   19.8877 C   0  0  0  0  0  0  0  0  0  0  0  0
   10.8855  -17.5208   19.6509 O   0  0  0  0  0  0  0  0  0  0  0  0
   10.7570  -16.0874   23.6446 C   0  0  0  0  0  0  0  0  0  0  0  0
   11.9709  -15.9708   23.9777 O   0  0  0  0  0  0  0  0  0  0  0  0
   10.6646  -15.4125   18.8596 O   0  0  0  0  0  0  0  0  0  0  0  0
    9.7746  -15.7759   24.6046 N   0  0  0  0  0  0  0  0  0  0  0  0
   10.0502  -15.4024   25.9892 C   0  0  1  0  0  0  0  0  0  0  0  0
    9.2145  -14.1688   26.2606 C   0  0  0  0  0  0  0  0  0  0  0  0
    9.2530  -13.5726   27.9338 S   0  0  0  0  0  0  0  0  0  0  0  0
    9.7994  -16.5175   26.9080 C   0  0  0  0  0  0  0  0  0  0  0  0
    8.6448  -17.0829   26.8870 O   0  0  0  0  0  0  0  0  0  0  0  0
   10.7446  -17.0295   27.8308 N   0  0  0  0  0  0  0  0  0  0  0  0
   10.3717  -18.1444   28.6808 C   0  0  0  0  0  0  0  0  0  0  0  0
   11.3739  -18.4178   29.7239 C   0  0  0  0  0  0  0  0  0  0  0  0
   12.4419  -17.7758   29.7768 O   0  0  0  0  0  0  0  0  0  0  0  0
   11.1351  -19.3980   30.6612 O   0  0  0  0  0  0  0  0  0  0  0  0
  2  1  1  6
  2  3  1  0
  3  4  1  0
  4  8  1  0
  5  4  2  0
  6  2  1  0
  6  7  2  0
  9  6  1  0
 10  9  1  0
 10 11  1  1
 12 11  1  0
 13 10  1  0
 14 13  2  0
 15 13  1  0
 16 15  1  0
 17 16  1  0
 17 19  1  0
 18 17  2  0
M  END
$$$$
