DCG.pdb
     RDKit          3D

 19 18  0  0  1  0  0  0  0  0999 V2000
    5.4620  -19.2286   23.6841 N   0  0  0  0  0  0  0  0  0  0  0  0
    5.8595  -18.6813   22.4331 C   0  0  1  0  0  0  0  0  0  0  0  0
    4.7431  -18.5466   21.4347 C   0  0  0  0  0  0  0  0  0  0  0  0
    3.8899  -19.7558   21.4534 C   0  0  0  0  0  0  0  0  0  0  0  0
    4.4495  -20.8685   21.6950 O   0  0  0  0  0  0  0  0  0  0  0  0
    6.5610  -17.3637   22.5777 C   0  0  0  0  0  0  0  0  0  0  0  0
    6.9229  -16.7255   21.5483 O   0  0  0  0  0  0  0  0  0  0  0  0
    2.5395  -19.7492   21.2273 O   0  0  0  0  0  0  0  0  0  0  0  0
    6.8378  -16.7987   23.8379 N   0  0  0  0  0  0  0  0  0  0  0  0
    7.5909  -15.5659   24.0519 C   0  0  1  0  0  0  0  0  0  0  0  0
    6.8455  -14.8058   25.1292 C   0  0  0  0  0  0  0  0  0  0  0  0
    7.5254  -13.2207   25.5555 S   0  0  0  0  0  0  0  0  0  0  0  0
    8.9962  -15.8414   24.3679 C   0  0  0  0  0  0  0  0  0  0  0  0
    9.2763  -16.3862   25.4984 O   0  0  0  0  0  0  0  0  0  0  0  0
   10.0866  -15.5509   23.5113 N   0  0  0  0  0  0  0  0  0  0  0  0
   11.4276  -15.5057   24.0631 C   0  0  0  0  0  0  0  0  0  0  0  0
   12.2284  -16.6849   23.6950 C   0  0  0  0  0  0  0  0  0  0  0  0
   11.8628  -17.8360   24.0060 O   0  0  0  0  0  0  0  0  0  0  0  0
   13.4031  -16.5220   22.9950 O   0  0  0  0  0  0  0  0  0  0  0  0
  2  1  1  1
  2  3  1  0
  3  4  1  0
  4  8  1  0
  5  4  2  0
  6  2  1  0
  6  7  2  0
  9  6  1  0
 10  9  1  0
 10 11  1  1
 12 11  1  0
 13 10  1  0
 14 13  2  0
 15 13  1  0
 16 15  1  0
 17 16  1  0
 17 19  1  0
 18 17  2  0
M  END
$$$$
