DCG.pdb
     RDKit          3D

 19 18  0  0  1  0  0  0  0  0999 V2000
    8.1032  -15.9506   18.6129 N   0  0  0  0  0  0  0  0  0  0  0  0
    7.5098  -16.1943   19.8821 C   0  0  1  0  0  0  0  0  0  0  0  0
    7.0755  -17.6176   20.0983 C   0  0  0  0  0  0  0  0  0  0  0  0
    7.2582  -18.4034   18.8574 C   0  0  0  0  0  0  0  0  0  0  0  0
    6.9694  -17.8427   17.7566 O   0  0  0  0  0  0  0  0  0  0  0  0
    8.3858  -15.7617   21.0199 C   0  0  0  0  0  0  0  0  0  0  0  0
    9.6390  -15.7037   20.8643 O   0  0  0  0  0  0  0  0  0  0  0  0
    7.7175  -19.6928   18.8229 O   0  0  0  0  0  0  0  0  0  0  0  0
    7.8583  -15.4111   22.2780 N   0  0  0  0  0  0  0  0  0  0  0  0
    8.6472  -14.9274   23.4077 C   0  0  1  0  0  0  0  0  0  0  0  0
    7.6889  -14.1388   24.2758 C   0  0  0  0  0  0  0  0  0  0  0  0
    7.1612  -12.5787   23.6093 S   0  0  0  0  0  0  0  0  0  0  0  0
    9.3263  -16.0271   24.1005 C   0  0  0  0  0  0  0  0  0  0  0  0
    8.6108  -16.9605   24.6204 O   0  0  0  0  0  0  0  0  0  0  0  0
   10.7309  -16.1444   24.2432 N   0  0  0  0  0  0  0  0  0  0  0  0
   11.2877  -17.3717   24.7804 C   0  0  0  0  0  0  0  0  0  0  0  0
   12.7596  -17.3805   24.7566 C   0  0  0  0  0  0  0  0  0  0  0  0
   13.4022  -16.4477   24.2347 O   0  0  0  0  0  0  0  0  0  0  0  0
   13.4461  -18.4338   25.3186 O   0  0  0  0  0  0  0  0  0  0  0  0
  2  1  1  6
  2  3  1  0
  3  4  1  0
  4  8  1  0
  5  4  2  0
  6  2  1  0
  6  7  2  0
  9  6  1  0
 10  9  1  0
 10 11  1  1
 12 11  1  0
 13 10  1  0
 14 13  2  0
 15 13  1  0
 16 15  1  0
 17 16  1  0
 17 19  1  0
 18 17  2  0
M  END
$$$$
