DCG.pdb
     RDKit          3D

 19 18  0  0  1  0  0  0  0  0999 V2000
    7.4896  -13.8214   20.1292 N   0  0  0  0  0  0  0  0  0  0  0  0
    7.7035  -15.0058   20.8868 C   0  0  1  0  0  0  0  0  0  0  0  0
    8.4815  -16.0701   20.1635 C   0  0  0  0  0  0  0  0  0  0  0  0
    7.8488  -16.3709   18.8597 C   0  0  0  0  0  0  0  0  0  0  0  0
    6.5821  -16.3379   18.7976 O   0  0  0  0  0  0  0  0  0  0  0  0
    8.3469  -14.7324   22.2136 C   0  0  0  0  0  0  0  0  0  0  0  0
    9.4721  -14.1581   22.2625 O   0  0  0  0  0  0  0  0  0  0  0  0
    8.5421  -16.6816   17.7206 O   0  0  0  0  0  0  0  0  0  0  0  0
    7.7364  -15.0964   23.4296 N   0  0  0  0  0  0  0  0  0  0  0  0
    8.3289  -14.9046   24.7505 C   0  0  1  0  0  0  0  0  0  0  0  0
    7.5334  -13.7943   25.4049 C   0  0  0  0  0  0  0  0  0  0  0  0
    5.8502  -14.1955   25.8081 S   0  0  0  0  0  0  0  0  0  0  0  0
    8.3611  -16.1566   25.5133 C   0  0  0  0  0  0  0  0  0  0  0  0
    7.4918  -17.0642   25.2413 O   0  0  0  0  0  0  0  0  0  0  0  0
    9.2901  -16.4499   26.5418 N   0  0  0  0  0  0  0  0  0  0  0  0
    9.1845  -17.7102   27.2528 C   0  0  0  0  0  0  0  0  0  0  0  0
   10.1928  -17.8430   28.3171 C   0  0  0  0  0  0  0  0  0  0  0  0
   11.0038  -16.9261   28.5559 O   0  0  0  0  0  0  0  0  0  0  0  0
   10.2478  -18.9971   29.0665 O   0  0  0  0  0  0  0  0  0  0  0  0
  2  1  1  6
  2  3  1  0
  3  4  1  0
  4  8  1  0
  5  4  2  0
  6  2  1  0
  6  7  2  0
  9  6  1  0
 10  9  1  0
 10 11  1  1
 12 11  1  0
 13 10  1  0
 14 13  2  0
 15 13  1  0
 16 15  1  0
 17 16  1  0
 17 19  1  0
 18 17  2  0
M  END
$$$$
