DCG.pdb
     RDKit          3D

 19 18  0  0  1  0  0  0  0  0999 V2000
    7.1479  -14.3020   20.6560 N   0  0  0  0  0  0  0  0  0  0  0  0
    7.7932  -15.3073   21.4277 C   0  0  1  0  0  0  0  0  0  0  0  0
    8.9096  -16.0152   20.7108 C   0  0  0  0  0  0  0  0  0  0  0  0
    8.3956  -16.6821   19.4936 C   0  0  0  0  0  0  0  0  0  0  0  0
    9.2196  -17.3434   18.7912 O   0  0  0  0  0  0  0  0  0  0  0  0
    8.2939  -14.7905   22.7435 C   0  0  0  0  0  0  0  0  0  0  0  0
    9.5297  -14.5830   22.9106 O   0  0  0  0  0  0  0  0  0  0  0  0
    7.0916  -16.6303   19.0793 O   0  0  0  0  0  0  0  0  0  0  0  0
    7.4263  -14.5220   23.8201 N   0  0  0  0  0  0  0  0  0  0  0  0
    7.8508  -14.0525   25.1362 C   0  0  1  0  0  0  0  0  0  0  0  0
    6.8688  -12.9677   25.5265 C   0  0  0  0  0  0  0  0  0  0  0  0
    6.9615  -12.4246   27.2156 S   0  0  0  0  0  0  0  0  0  0  0  0
    7.9464  -15.1565   26.0968 C   0  0  0  0  0  0  0  0  0  0  0  0
    6.9445  -15.9531   26.2187 O   0  0  0  0  0  0  0  0  0  0  0  0
    9.0741  -15.4190   26.9130 N   0  0  0  0  0  0  0  0  0  0  0  0
    9.0511  -16.5627   27.8054 C   0  0  0  0  0  0  0  0  0  0  0  0
   10.2505  -16.6384   28.6556 C   0  0  0  0  0  0  0  0  0  0  0  0
   11.1774  -15.8120   28.5390 O   0  0  0  0  0  0  0  0  0  0  0  0
   10.3583  -17.6363   29.5985 O   0  0  0  0  0  0  0  0  0  0  0  0
  2  1  1  6
  2  3  1  0
  3  4  1  0
  4  8  1  0
  5  4  2  0
  6  2  1  0
  6  7  2  0
  9  6  1  0
 10  9  1  0
 10 11  1  1
 12 11  1  0
 13 10  1  0
 14 13  2  0
 15 13  1  0
 16 15  1  0
 17 16  1  0
 17 19  1  0
 18 17  2  0
M  END
$$$$
