DCG.pdb
     RDKit          3D

 19 18  0  0  1  0  0  0  0  0999 V2000
   10.9348  -15.7917   21.1881 N   0  0  0  0  0  0  0  0  0  0  0  0
   10.0636  -16.3308   22.1745 C   0  0  1  0  0  0  0  0  0  0  0  0
    9.8143  -17.8075   22.0382 C   0  0  0  0  0  0  0  0  0  0  0  0
    9.4593  -18.1406   20.6405 C   0  0  0  0  0  0  0  0  0  0  0  0
    9.4817  -17.2023   19.7869 O   0  0  0  0  0  0  0  0  0  0  0  0
   10.5181  -16.0285   23.5714 C   0  0  0  0  0  0  0  0  0  0  0  0
   11.7518  -16.0308   23.8476 O   0  0  0  0  0  0  0  0  0  0  0  0
    9.1094  -19.3932   20.2123 O   0  0  0  0  0  0  0  0  0  0  0  0
    9.6088  -15.7367   24.6066 N   0  0  0  0  0  0  0  0  0  0  0  0
    9.9812  -15.4703   25.9934 C   0  0  1  0  0  0  0  0  0  0  0  0
    9.1610  -14.2707   26.4202 C   0  0  0  0  0  0  0  0  0  0  0  0
    9.3942  -13.7447   28.1011 S   0  0  0  0  0  0  0  0  0  0  0  0
    9.8023  -16.6567   26.8365 C   0  0  0  0  0  0  0  0  0  0  0  0
    8.6543  -17.2357   26.8466 O   0  0  0  0  0  0  0  0  0  0  0  0
   10.8113  -17.2247   27.6528 N   0  0  0  0  0  0  0  0  0  0  0  0
   10.5066  -18.4086   28.4340 C   0  0  0  0  0  0  0  0  0  0  0  0
   10.7899  -18.2265   29.8671 C   0  0  0  0  0  0  0  0  0  0  0  0
   11.2635  -17.1573   30.3006 O   0  0  0  0  0  0  0  0  0  0  0  0
   10.5299  -19.2502   30.7508 O   0  0  0  0  0  0  0  0  0  0  0  0
  2  1  1  6
  2  3  1  0
  3  4  1  0
  4  8  1  0
  5  4  2  0
  6  2  1  0
  6  7  2  0
  9  6  1  0
 10  9  1  0
 10 11  1  1
 12 11  1  0
 13 10  1  0
 14 13  2  0
 15 13  1  0
 16 15  1  0
 17 16  1  0
 17 19  1  0
 18 17  2  0
M  END
$$$$
