DCG.pdb
     RDKit          3D

 19 18  0  0  1  0  0  0  0  0999 V2000
    6.9301  -16.4024   21.9678 N   0  0  0  0  0  0  0  0  0  0  0  0
    8.3047  -16.0593   22.0916 C   0  0  1  0  0  0  0  0  0  0  0  0
    8.9337  -15.5589   20.8207 C   0  0  0  0  0  0  0  0  0  0  0  0
    8.8487  -16.5927   19.7650 C   0  0  0  0  0  0  0  0  0  0  0  0
    8.6417  -17.7906   20.1281 O   0  0  0  0  0  0  0  0  0  0  0  0
    8.5552  -15.0737   23.1939 C   0  0  0  0  0  0  0  0  0  0  0  0
    9.6530  -14.4488   23.2438 O   0  0  0  0  0  0  0  0  0  0  0  0
    8.9789  -16.3386   18.4259 O   0  0  0  0  0  0  0  0  0  0  0  0
    7.5986  -14.8118   24.1940 N   0  0  0  0  0  0  0  0  0  0  0  0
    7.7891  -13.8878   25.3087 C   0  0  1  0  0  0  0  0  0  0  0  0
    6.4581  -13.1915   25.5026 C   0  0  0  0  0  0  0  0  0  0  0  0
    6.3690  -12.0863   26.8909 S   0  0  0  0  0  0  0  0  0  0  0  0
    8.2901  -14.5786   26.5013 C   0  0  0  0  0  0  0  0  0  0  0  0
    8.9405  -13.8984   27.3774 O   0  0  0  0  0  0  0  0  0  0  0  0
    8.1098  -15.9581   26.7688 N   0  0  0  0  0  0  0  0  0  0  0  0
    9.2339  -16.8620   26.6131 C   0  0  0  0  0  0  0  0  0  0  0  0
    9.9639  -17.0757   27.8735 C   0  0  0  0  0  0  0  0  0  0  0  0
   10.0099  -18.2006   28.4100 O   0  0  0  0  0  0  0  0  0  0  0  0
   10.6100  -16.0196   28.4768 O   0  0  0  0  0  0  0  0  0  0  0  0
  2  1  1  6
  2  3  1  0
  3  4  1  0
  4  8  1  0
  5  4  2  0
  6  2  1  0
  6  7  2  0
  9  6  1  0
 10  9  1  0
 10 11  1  1
 12 11  1  0
 13 10  1  0
 14 13  2  0
 15 13  1  0
 16 15  1  0
 17 16  1  0
 17 19  1  0
 18 17  2  0
M  END
$$$$
