SQQ.pdb
     RDKit          3D

 25 24  0  0  1  0  0  0  0  0999 V2000
   13.9995  -15.1677   16.2360 O   0  0  0  0  0  0  0  0  0  0  0  0
   14.4336  -15.0846   17.5615 C   0  0  0  0  0  0  0  0  0  0  0  0
   13.4407  -15.7705   18.4730 C   0  0  2  0  0  0  0  0  0  0  0  0
   12.4579  -16.5086   17.7462 N   0  0  0  0  0  0  0  0  0  0  0  0
   12.8119  -14.8345   19.4106 C   0  0  0  0  0  0  0  0  0  0  0  0
   13.5088  -14.1242   20.2132 O   0  0  0  0  0  0  0  0  0  0  0  0
    7.4878  -12.1940   18.5098 N   0  0  0  0  0  0  0  0  0  0  0  0
    7.6774  -13.5851   18.3698 C   0  0  0  0  0  0  0  0  0  0  0  0
    6.9095  -14.2963   17.7081 O   0  0  0  0  0  0  0  0  0  0  0  0
    8.8559  -14.1631   19.0560 C   0  0  0  0  0  0  0  0  0  0  0  0
    9.6461  -13.1464   19.7794 C   0  0  0  0  0  0  0  0  0  0  0  0
   10.8839  -13.7356   20.5088 C   0  0  2  0  0  0  0  0  0  0  0  0
   11.4032  -14.6555   19.4877 N   0  0  0  0  0  0  0  0  0  0  0  0
   10.3854  -14.4771   21.6934 C   0  0  0  0  0  0  0  0  0  0  0  0
    9.2469  -14.1328   22.1277 O   0  0  0  0  0  0  0  0  0  0  0  0
    6.5072  -17.6070   21.1421 N   0  0  0  0  0  0  0  0  0  0  0  0
    7.6324  -18.2440   21.7579 C   0  0  0  0  0  0  0  0  0  0  0  0
    7.4623  -19.4307   22.1669 O   0  0  0  0  0  0  0  0  0  0  0  0
    8.9429  -17.6015   21.9284 C   0  0  0  0  0  0  0  0  0  0  0  0
    9.0623  -16.6654   23.0820 C   0  0  0  0  0  0  0  0  0  0  0  0
   10.4701  -16.2715   23.4700 C   0  0  2  0  0  0  0  0  0  0  0  0
   11.0662  -15.5134   22.3441 N   0  0  0  0  0  0  0  0  0  0  0  0
   11.3931  -17.2380   23.9443 C   0  0  0  0  0  0  0  0  0  0  0  0
   12.4437  -17.6832   23.3839 O   0  0  0  0  0  0  0  0  0  0  0  0
   11.1676  -17.8314   25.2131 O   0  0  0  0  0  0  0  0  0  0  0  0
  2  1  1  0
  2  3  1  0
  3  4  1  6
  5  3  1  0
  5  6  2  0
  8  7  1  0
  8 10  1  0
  9  8  2  0
 11 10  1  0
 12 11  1  6
 13 12  1  0
 13  5  1  0
 14 15  2  0
 14 12  1  0
 16 17  1  0
 17 19  1  0
 18 17  2  0
 19 20  1  0
 21 20  1  6
 21 22  1  0
 21 23  1  0
 22 14  1  0
 23 25  1  0
 24 23  2  0
M  END
$$$$
