SQQ.pdb
     RDKit          3D

 25 24  0  0  1  0  0  0  0  0999 V2000
    4.9742  -19.8010   23.7818 O   0  0  0  0  0  0  0  0  0  0  0  0
    4.2325  -18.7583   23.2203 C   0  0  0  0  0  0  0  0  0  0  0  0
    4.4183  -18.7437   21.7195 C   0  0  2  0  0  0  0  0  0  0  0  0
    4.1437  -20.0136   21.1270 N   0  0  0  0  0  0  0  0  0  0  0  0
    5.7453  -18.2552   21.3308 C   0  0  0  0  0  0  0  0  0  0  0  0
    6.6746  -19.0580   20.9753 O   0  0  0  0  0  0  0  0  0  0  0  0
    6.9023  -12.5617   19.4986 N   0  0  0  0  0  0  0  0  0  0  0  0
    8.1878  -13.1003   19.2789 C   0  0  0  0  0  0  0  0  0  0  0  0
    9.0706  -12.4829   18.6683 O   0  0  0  0  0  0  0  0  0  0  0  0
    8.4381  -14.4546   19.8238 C   0  0  0  0  0  0  0  0  0  0  0  0
    7.2421  -15.0380   20.4648 C   0  0  0  0  0  0  0  0  0  0  0  0
    7.4498  -16.5040   20.9327 C   0  0  2  0  0  0  0  0  0  0  0  0
    6.0823  -16.8736   21.3221 N   0  0  0  0  0  0  0  0  0  0  0  0
    8.3505  -16.4668   22.1112 C   0  0  0  0  0  0  0  0  0  0  0  0
    7.9069  -15.8642   23.1326 O   0  0  0  0  0  0  0  0  0  0  0  0
   12.3288  -21.0073   23.6006 N   0  0  0  0  0  0  0  0  0  0  0  0
   10.9285  -20.8139   23.8302 C   0  0  0  0  0  0  0  0  0  0  0  0
   10.2322  -21.8554   24.0167 O   0  0  0  0  0  0  0  0  0  0  0  0
   10.2801  -19.4955   23.8625 C   0  0  0  0  0  0  0  0  0  0  0  0
   11.1569  -18.3325   23.5464 C   0  0  0  0  0  0  0  0  0  0  0  0
   10.4579  -16.9993   23.3992 C   0  0  2  0  0  0  0  0  0  0  0  0
    9.6237  -17.0462   22.1745 N   0  0  0  0  0  0  0  0  0  0  0  0
   11.1885  -15.7845   23.4400 C   0  0  0  0  0  0  0  0  0  0  0  0
   11.5762  -15.0516   22.4765 O   0  0  0  0  0  0  0  0  0  0  0  0
   11.5740  -15.2627   24.7017 O   0  0  0  0  0  0  0  0  0  0  0  0
  2  1  1  0
  2  3  1  0
  3  4  1  1
  5  3  1  0
  5  6  2  0
  8  7  1  0
  8 10  1  0
  9  8  2  0
 11 10  1  0
 12 11  1  1
 13 12  1  0
 13  5  1  0
 14 15  2  0
 14 12  1  0
 16 17  1  0
 17 19  1  0
 18 17  2  0
 19 20  1  0
 21 20  1  6
 21 22  1  0
 21 23  1  0
 22 14  1  0
 23 25  1  0
 24 23  2  0
M  END
$$$$
