SQQ.pdb
     RDKit          3D

 25 24  0  0  1  0  0  0  0  0999 V2000
    6.2025  -18.3853   21.9996 O   0  0  0  0  0  0  0  0  0  0  0  0
    6.1694  -19.0622   20.7776 C   0  0  0  0  0  0  0  0  0  0  0  0
    6.2949  -18.0756   19.6383 C   0  0  2  0  0  0  0  0  0  0  0  0
    6.2743  -18.7158   18.3621 N   0  0  0  0  0  0  0  0  0  0  0  0
    7.4742  -17.2152   19.7788 C   0  0  0  0  0  0  0  0  0  0  0  0
    8.6363  -17.6118   19.4231 O   0  0  0  0  0  0  0  0  0  0  0  0
    9.7506  -13.1014   18.5442 N   0  0  0  0  0  0  0  0  0  0  0  0
    8.3711  -13.0352   18.2556 C   0  0  0  0  0  0  0  0  0  0  0  0
    7.9396  -12.9109   17.1016 O   0  0  0  0  0  0  0  0  0  0  0  0
    7.4497  -13.1272   19.4116 C   0  0  0  0  0  0  0  0  0  0  0  0
    8.1002  -13.6904   20.6120 C   0  0  0  0  0  0  0  0  0  0  0  0
    8.6513  -15.1259   20.3952 C   0  0  2  0  0  0  0  0  0  0  0  0
    7.4045  -15.8985   20.3119 N   0  0  0  0  0  0  0  0  0  0  0  0
    9.4255  -15.4882   21.6080 C   0  0  0  0  0  0  0  0  0  0  0  0
    8.7943  -15.4471   22.7049 O   0  0  0  0  0  0  0  0  0  0  0  0
   12.5912  -20.7926   22.5471 N   0  0  0  0  0  0  0  0  0  0  0  0
   12.0875  -20.1371   23.7166 C   0  0  0  0  0  0  0  0  0  0  0  0
   11.6904  -20.8818   24.6610 O   0  0  0  0  0  0  0  0  0  0  0  0
   12.0162  -18.6772   23.8684 C   0  0  0  0  0  0  0  0  0  0  0  0
   11.3703  -17.9382   22.7468 C   0  0  0  0  0  0  0  0  0  0  0  0
   11.4258  -16.4291   22.8315 C   0  0  2  0  0  0  0  0  0  0  0  0
   10.7718  -15.8727   21.6230 N   0  0  0  0  0  0  0  0  0  0  0  0
   12.6514  -15.7568   23.0707 C   0  0  0  0  0  0  0  0  0  0  0  0
   13.3318  -15.0293   22.2810 O   0  0  0  0  0  0  0  0  0  0  0  0
   13.2562  -15.8755   24.3485 O   0  0  0  0  0  0  0  0  0  0  0  0
  2  1  1  0
  2  3  1  0
  3  4  1  6
  5  3  1  0
  5  6  2  0
  8  7  1  0
  8 10  1  0
  9  8  2  0
 11 10  1  0
 12 11  1  1
 13 12  1  0
 13  5  1  0
 14 15  2  0
 14 12  1  0
 16 17  1  0
 17 19  1  0
 18 17  2  0
 19 20  1  0
 21 20  1  6
 21 22  1  0
 21 23  1  0
 22 14  1  0
 23 25  1  0
 24 23  2  0
M  END
$$$$
