SQQ.pdb
     RDKit          3D

 25 24  0  0  1  0  0  0  0  0999 V2000
   14.6352  -16.7716   17.9146 O   0  0  0  0  0  0  0  0  0  0  0  0
   15.4994  -15.6737   17.8921 C   0  0  0  0  0  0  0  0  0  0  0  0
   14.7009  -14.3899   17.8573 C   0  0  2  0  0  0  0  0  0  0  0  0
   15.5365  -13.2321   17.8418 N   0  0  0  0  0  0  0  0  0  0  0  0
   13.7197  -14.3188   18.9448 C   0  0  0  0  0  0  0  0  0  0  0  0
   14.0585  -13.9740   20.1283 O   0  0  0  0  0  0  0  0  0  0  0  0
    7.7934  -12.4623   17.5746 N   0  0  0  0  0  0  0  0  0  0  0  0
    8.0352  -13.4090   18.5926 C   0  0  0  0  0  0  0  0  0  0  0  0
    7.1996  -14.2637   18.9160 O   0  0  0  0  0  0  0  0  0  0  0  0
    9.3540  -13.3357   19.2626 C   0  0  0  0  0  0  0  0  0  0  0  0
   10.0637  -14.6310   19.2613 C   0  0  0  0  0  0  0  0  0  0  0  0
   11.4625  -14.5653   19.9323 C   0  0  2  0  0  0  0  0  0  0  0  0
   12.3431  -14.6234   18.7578 N   0  0  0  0  0  0  0  0  0  0  0  0
   11.6066  -15.7814   20.7700 C   0  0  0  0  0  0  0  0  0  0  0  0
   12.0493  -16.8127   20.1837 O   0  0  0  0  0  0  0  0  0  0  0  0
   16.1168  -17.2242   21.8731 N   0  0  0  0  0  0  0  0  0  0  0  0
   15.8762  -17.0616   23.2755 C   0  0  0  0  0  0  0  0  0  0  0  0
   16.7974  -17.4375   24.0592 O   0  0  0  0  0  0  0  0  0  0  0  0
   14.6424  -16.4893   23.8320 C   0  0  0  0  0  0  0  0  0  0  0  0
   13.6167  -16.0652   22.8372 C   0  0  0  0  0  0  0  0  0  0  0  0
   12.2021  -16.5261   23.1097 C   0  0  2  0  0  0  0  0  0  0  0  0
   11.3030  -15.8640   22.1345 N   0  0  0  0  0  0  0  0  0  0  0  0
   11.6467  -16.4443   24.4120 C   0  0  0  0  0  0  0  0  0  0  0  0
   11.8868  -17.1660   25.4306 O   0  0  0  0  0  0  0  0  0  0  0  0
   10.6802  -15.4408   24.6794 O   0  0  0  0  0  0  0  0  0  0  0  0
  2  1  1  0
  2  3  1  0
  3  4  1  1
  5  3  1  0
  5  6  2  0
  8  7  1  0
  8 10  1  0
  9  8  2  0
 11 10  1  0
 12 11  1  6
 13 12  1  0
 13  5  1  0
 14 15  2  0
 14 12  1  0
 16 17  1  0
 17 19  1  0
 18 17  2  0
 19 20  1  0
 21 20  1  1
 21 22  1  0
 21 23  1  0
 22 14  1  0
 23 25  1  0
 24 23  2  0
M  END
$$$$
