SQQ.pdb
     RDKit          3D

 25 24  0  0  1  0  0  0  0  0999 V2000
    8.2383  -22.2461   24.6010 O   0  0  0  0  0  0  0  0  0  0  0  0
    8.3847  -23.2788   23.6711 C   0  0  0  0  0  0  0  0  0  0  0  0
    9.7921  -23.2782   23.1177 C   0  0  2  0  0  0  0  0  0  0  0  0
    9.9692  -24.2494   22.0860 N   0  0  0  0  0  0  0  0  0  0  0  0
   10.8008  -23.4358   24.1704 C   0  0  0  0  0  0  0  0  0  0  0  0
   10.9437  -24.5402   24.7983 O   0  0  0  0  0  0  0  0  0  0  0  0
   16.8999  -21.5786   24.5353 N   0  0  0  0  0  0  0  0  0  0  0  0
   15.7272  -21.4491   23.7614 C   0  0  0  0  0  0  0  0  0  0  0  0
   15.6452  -20.6645   22.8069 O   0  0  0  0  0  0  0  0  0  0  0  0
   14.5847  -22.3100   24.1450 C   0  0  0  0  0  0  0  0  0  0  0  0
   13.8081  -21.7532   25.2713 C   0  0  0  0  0  0  0  0  0  0  0  0
   12.5957  -22.6348   25.6762 C   0  0  2  0  0  0  0  0  0  0  0  0
   11.6771  -22.3846   24.5573 N   0  0  0  0  0  0  0  0  0  0  0  0
   12.0561  -22.0858   26.9447 C   0  0  0  0  0  0  0  0  0  0  0  0
   11.2021  -21.1579   26.8316 O   0  0  0  0  0  0  0  0  0  0  0  0
   11.3438  -25.1744   32.3947 N   0  0  0  0  0  0  0  0  0  0  0  0
   10.3508  -24.8864   31.4036 C   0  0  0  0  0  0  0  0  0  0  0  0
    9.3282  -25.6336   31.3874 O   0  0  0  0  0  0  0  0  0  0  0  0
   10.4597  -23.7889   30.4324 C   0  0  0  0  0  0  0  0  0  0  0  0
   11.7085  -22.9787   30.5052 C   0  0  0  0  0  0  0  0  0  0  0  0
   11.8572  -21.8989   29.4565 C   0  0  2  0  0  0  0  0  0  0  0  0
   12.4102  -22.5186   28.2285 N   0  0  0  0  0  0  0  0  0  0  0  0
   12.5483  -20.6942   29.7432 C   0  0  0  0  0  0  0  0  0  0  0  0
   13.6046  -20.2314   29.2085 O   0  0  0  0  0  0  0  0  0  0  0  0
   12.0435  -19.8441   30.7607 O   0  0  0  0  0  0  0  0  0  0  0  0
  2  1  1  0
  2  3  1  0
  3  4  1  6
  5  3  1  0
  5  6  2  0
  8  7  1  0
  8 10  1  0
  9  8  2  0
 11 10  1  0
 12 11  1  6
 13 12  1  0
 13  5  1  0
 14 15  2  0
 14 12  1  0
 16 17  1  0
 17 19  1  0
 18 17  2  0
 19 20  1  0
 21 20  1  1
 21 22  1  0
 21 23  1  0
 22 14  1  0
 23 25  1  0
 24 23  2  0
M  END
$$$$
