SQQ.pdb
     RDKit          3D

 25 24  0  0  1  0  0  0  0  0999 V2000
   14.0203  -17.2914   16.4934 O   0  0  0  0  0  0  0  0  0  0  0  0
   13.1766  -16.6819   15.5611 C   0  0  0  0  0  0  0  0  0  0  0  0
   13.1807  -15.1833   15.7647 C   0  0  2  0  0  0  0  0  0  0  0  0
   14.4054  -14.5824   15.3426 N   0  0  0  0  0  0  0  0  0  0  0  0
   12.8584  -14.8117   17.1462 C   0  0  0  0  0  0  0  0  0  0  0  0
   13.7565  -14.3848   17.9497 O   0  0  0  0  0  0  0  0  0  0  0  0
    6.8807  -12.4932   18.6426 N   0  0  0  0  0  0  0  0  0  0  0  0
    7.6365  -13.4708   19.3236 C   0  0  0  0  0  0  0  0  0  0  0  0
    7.1094  -14.4020   19.9469 O   0  0  0  0  0  0  0  0  0  0  0  0
    9.1096  -13.3332   19.2540 C   0  0  0  0  0  0  0  0  0  0  0  0
    9.7997  -14.6383   19.2089 C   0  0  0  0  0  0  0  0  0  0  0  0
   11.3421  -14.5131   19.0807 C   0  0  2  0  0  0  0  0  0  0  0  0
   11.5420  -14.8988   17.6773 N   0  0  0  0  0  0  0  0  0  0  0  0
   11.9429  -15.5102   20.0007 C   0  0  0  0  0  0  0  0  0  0  0  0
   12.5010  -16.5069   19.4545 O   0  0  0  0  0  0  0  0  0  0  0  0
   16.7058  -15.7029   20.0864 N   0  0  0  0  0  0  0  0  0  0  0  0
   16.3060  -15.2749   21.3933 C   0  0  0  0  0  0  0  0  0  0  0  0
   17.2319  -14.9565   22.1968 O   0  0  0  0  0  0  0  0  0  0  0  0
   14.9062  -15.1866   21.8318 C   0  0  0  0  0  0  0  0  0  0  0  0
   14.1166  -16.4475   21.7420 C   0  0  0  0  0  0  0  0  0  0  0  0
   12.6948  -16.3741   22.2527 C   0  0  2  0  0  0  0  0  0  0  0  0
   11.9440  -15.4234   21.3983 N   0  0  0  0  0  0  0  0  0  0  0  0
   12.4238  -16.1130   23.6200 C   0  0  0  0  0  0  0  0  0  0  0  0
   11.7006  -15.2015   24.1320 O   0  0  0  0  0  0  0  0  0  0  0  0
   13.0146  -16.9471   24.6038 O   0  0  0  0  0  0  0  0  0  0  0  0
  2  1  1  0
  2  3  1  0
  3  4  1  1
  5  3  1  0
  5  6  2  0
  8  7  1  0
  8 10  1  0
  9  8  2  0
 11 10  1  0
 12 11  1  1
 13 12  1  0
 13  5  1  0
 14 15  2  0
 14 12  1  0
 16 17  1  0
 17 19  1  0
 18 17  2  0
 19 20  1  0
 21 20  1  1
 21 22  1  0
 21 23  1  0
 22 14  1  0
 23 25  1  0
 24 23  2  0
M  END
$$$$
