SQQ.pdb
     RDKit          3D

 25 24  0  0  1  0  0  0  0  0999 V2000
    8.5733  -20.4197   22.5762 O   0  0  0  0  0  0  0  0  0  0  0  0
    7.5119  -19.6489   22.0948 C   0  0  0  0  0  0  0  0  0  0  0  0
    7.8036  -19.1954   20.6819 C   0  0  2  0  0  0  0  0  0  0  0  0
    8.6815  -20.0888   19.9963 N   0  0  0  0  0  0  0  0  0  0  0  0
    8.3084  -17.8193   20.6354 C   0  0  0  0  0  0  0  0  0  0  0  0
    9.5281  -17.5648   20.3493 O   0  0  0  0  0  0  0  0  0  0  0  0
    9.0504  -11.7363   19.5053 N   0  0  0  0  0  0  0  0  0  0  0  0
    8.0675  -12.7357   19.3443 C   0  0  0  0  0  0  0  0  0  0  0  0
    7.9163  -13.3528   18.2815 O   0  0  0  0  0  0  0  0  0  0  0  0
    7.2163  -13.0204   20.5225 C   0  0  0  0  0  0  0  0  0  0  0  0
    6.8743  -14.4522   20.6426 C   0  0  0  0  0  0  0  0  0  0  0  0
    8.1120  -15.3622   20.8690 C   0  0  2  0  0  0  0  0  0  0  0  0
    7.4850  -16.6904   20.9007 N   0  0  0  0  0  0  0  0  0  0  0  0
    8.6829  -15.0080   22.1919 C   0  0  0  0  0  0  0  0  0  0  0  0
    9.1950  -13.8539   22.2868 O   0  0  0  0  0  0  0  0  0  0  0  0
    6.0036  -12.5233   26.1780 N   0  0  0  0  0  0  0  0  0  0  0  0
    7.1397  -12.8981   26.9653 C   0  0  0  0  0  0  0  0  0  0  0  0
    7.2394  -12.3673   28.1110 O   0  0  0  0  0  0  0  0  0  0  0  0
    8.1664  -13.8493   26.5175 C   0  0  0  0  0  0  0  0  0  0  0  0
    7.9830  -14.4056   25.1470 C   0  0  0  0  0  0  0  0  0  0  0  0
    9.0646  -15.3473   24.6663 C   0  0  2  0  0  0  0  0  0  0  0  0
    8.6866  -15.8382   23.3195 N   0  0  0  0  0  0  0  0  0  0  0  0
    9.4986  -16.4309   25.4716 C   0  0  0  0  0  0  0  0  0  0  0  0
    9.3225  -17.6777   25.2970 O   0  0  0  0  0  0  0  0  0  0  0  0
   10.2338  -16.1515   26.6523 O   0  0  0  0  0  0  0  0  0  0  0  0
  2  1  1  0
  2  3  1  0
  3  4  1  1
  5  3  1  0
  5  6  2  0
  8  7  1  0
  8 10  1  0
  9  8  2  0
 11 10  1  0
 12 11  1  1
 13 12  1  0
 13  5  1  0
 14 15  2  0
 14 12  1  0
 16 17  1  0
 17 19  1  0
 18 17  2  0
 19 20  1  0
 21 20  1  1
 21 22  1  0
 21 23  1  0
 22 14  1  0
 23 25  1  0
 24 23  2  0
M  END
$$$$
