SQQ.pdb
     RDKit          3D

 25 24  0  0  1  0  0  0  0  0999 V2000
   13.6432  -20.7588   11.9072 O   0  0  0  0  0  0  0  0  0  0  0  0
   13.5158  -21.0223   13.2736 C   0  0  0  0  0  0  0  0  0  0  0  0
   12.0530  -21.0784   13.6534 C   0  0  2  0  0  0  0  0  0  0  0  0
   11.4048  -19.8151   13.5016 N   0  0  0  0  0  0  0  0  0  0  0  0
   11.8518  -21.6168   15.0025 C   0  0  0  0  0  0  0  0  0  0  0  0
   11.7510  -20.8490   16.0197 O   0  0  0  0  0  0  0  0  0  0  0  0
    9.2562  -26.9708   16.1148 N   0  0  0  0  0  0  0  0  0  0  0  0
    9.4190  -26.5693   17.4576 C   0  0  0  0  0  0  0  0  0  0  0  0
    8.9557  -27.2180   18.4052 O   0  0  0  0  0  0  0  0  0  0  0  0
   10.1840  -25.3217   17.6855 C   0  0  0  0  0  0  0  0  0  0  0  0
   10.7066  -24.7400   16.4325 C   0  0  0  0  0  0  0  0  0  0  0  0
   11.5131  -23.4314   16.6527 C   0  0  2  0  0  0  0  0  0  0  0  0
   11.7551  -23.0110   15.2659 N   0  0  0  0  0  0  0  0  0  0  0  0
   12.7807  -23.8037   17.3281 C   0  0  0  0  0  0  0  0  0  0  0  0
   12.6727  -24.2532   18.5068 O   0  0  0  0  0  0  0  0  0  0  0  0
   15.0009  -22.3931   21.6492 N   0  0  0  0  0  0  0  0  0  0  0  0
   16.2509  -22.8105   21.0886 C   0  0  0  0  0  0  0  0  0  0  0  0
   17.2606  -22.7679   21.8521 O   0  0  0  0  0  0  0  0  0  0  0  0
   16.4103  -23.2780   19.7046 C   0  0  0  0  0  0  0  0  0  0  0  0
   15.1619  -23.3437   18.8932 C   0  0  0  0  0  0  0  0  0  0  0  0
   15.2920  -23.9908   17.5323 C   0  0  2  0  0  0  0  0  0  0  0  0
   14.0578  -23.7036   16.7627 N   0  0  0  0  0  0  0  0  0  0  0  0
   15.6322  -25.3617   17.4063 C   0  0  0  0  0  0  0  0  0  0  0  0
   15.1318  -26.3678   18.0007 O   0  0  0  0  0  0  0  0  0  0  0  0
   16.6699  -25.7273   16.5107 O   0  0  0  0  0  0  0  0  0  0  0  0
  2  1  1  0
  2  3  1  0
  3  4  1  1
  5  3  1  0
  5  6  2  0
  8  7  1  0
  8 10  1  0
  9  8  2  0
 11 10  1  0
 12 11  1  6
 13 12  1  0
 13  5  1  0
 14 15  2  0
 14 12  1  0
 16 17  1  0
 17 19  1  0
 18 17  2  0
 19 20  1  0
 21 20  1  1
 21 22  1  0
 21 23  1  0
 22 14  1  0
 23 25  1  0
 24 23  2  0
M  END
$$$$
