SQQ.pdb
     RDKit          3D

 25 24  0  0  1  0  0  0  0  0999 V2000
    4.0048  -18.9372   23.5609 O   0  0  0  0  0  0  0  0  0  0  0  0
    3.3997  -18.1853   22.5505 C   0  0  0  0  0  0  0  0  0  0  0  0
    4.1481  -18.3733   21.2498 C   0  0  2  0  0  0  0  0  0  0  0  0
    4.1369  -19.7316   20.8095 N   0  0  0  0  0  0  0  0  0  0  0  0
    5.5169  -17.8513   21.3184 C   0  0  0  0  0  0  0  0  0  0  0  0
    6.5132  -18.6185   21.5487 O   0  0  0  0  0  0  0  0  0  0  0  0
    7.1621  -12.4875   18.9329 N   0  0  0  0  0  0  0  0  0  0  0  0
    8.4484  -12.9121   19.3279 C   0  0  0  0  0  0  0  0  0  0  0  0
    9.4771  -12.3055   19.0006 O   0  0  0  0  0  0  0  0  0  0  0  0
    8.5126  -14.1307   20.1674 C   0  0  0  0  0  0  0  0  0  0  0  0
    7.1796  -14.7112   20.4273 C   0  0  0  0  0  0  0  0  0  0  0  0
    7.2378  -16.0781   21.1616 C   0  0  2  0  0  0  0  0  0  0  0  0
    5.8236  -16.4749   21.1344 N   0  0  0  0  0  0  0  0  0  0  0  0
    7.6930  -15.8138   22.5489 C   0  0  0  0  0  0  0  0  0  0  0  0
    6.7845  -15.7280   23.4266 O   0  0  0  0  0  0  0  0  0  0  0  0
   10.5810  -20.4524   24.3351 N   0  0  0  0  0  0  0  0  0  0  0  0
    9.5678  -19.9598   25.2192 C   0  0  0  0  0  0  0  0  0  0  0  0
    9.3103  -20.6643   26.2398 O   0  0  0  0  0  0  0  0  0  0  0  0
    8.8351  -18.7043   25.0038 C   0  0  0  0  0  0  0  0  0  0  0  0
    9.2063  -17.9371   23.7812 C   0  0  0  0  0  0  0  0  0  0  0  0
    9.6380  -16.5050   24.0058 C   0  0  2  0  0  0  0  0  0  0  0  0
    9.0271  -15.6654   22.9477 N   0  0  0  0  0  0  0  0  0  0  0  0
   11.0082  -16.1716   24.1564 C   0  0  0  0  0  0  0  0  0  0  0  0
   11.8761  -15.9316   23.2593 O   0  0  0  0  0  0  0  0  0  0  0  0
   11.5480  -16.0806   25.4653 O   0  0  0  0  0  0  0  0  0  0  0  0
  2  1  1  0
  2  3  1  0
  3  4  1  1
  5  3  1  0
  5  6  2  0
  8  7  1  0
  8 10  1  0
  9  8  2  0
 11 10  1  0
 12 11  1  6
 13 12  1  0
 13  5  1  0
 14 15  2  0
 14 12  1  0
 16 17  1  0
 17 19  1  0
 18 17  2  0
 19 20  1  0
 21 20  1  6
 21 22  1  0
 21 23  1  0
 22 14  1  0
 23 25  1  0
 24 23  2  0
M  END
$$$$
