SQQ.pdb
     RDKit          3D

 25 24  0  0  1  0  0  0  0  0999 V2000
    4.4135  -18.5133   23.4800 O   0  0  0  0  0  0  0  0  0  0  0  0
    3.6177  -17.8218   22.5628 C   0  0  0  0  0  0  0  0  0  0  0  0
    4.2412  -17.8884   21.1866 C   0  0  2  0  0  0  0  0  0  0  0  0
    4.3341  -19.2269   20.6978 N   0  0  0  0  0  0  0  0  0  0  0  0
    5.5434  -17.2159   21.1359 C   0  0  0  0  0  0  0  0  0  0  0  0
    6.6340  -17.8777   21.0528 O   0  0  0  0  0  0  0  0  0  0  0  0
    8.1103  -12.9645   18.1656 N   0  0  0  0  0  0  0  0  0  0  0  0
    8.7084  -13.2722   19.4059 C   0  0  0  0  0  0  0  0  0  0  0  0
    9.8234  -13.8041   19.4913 O   0  0  0  0  0  0  0  0  0  0  0  0
    7.9331  -12.9208   20.6179 C   0  0  0  0  0  0  0  0  0  0  0  0
    6.7214  -13.7503   20.7766 C   0  0  0  0  0  0  0  0  0  0  0  0
    7.0332  -15.2387   21.0909 C   0  0  2  0  0  0  0  0  0  0  0  0
    5.6783  -15.8006   21.1738 N   0  0  0  0  0  0  0  0  0  0  0  0
    7.7105  -15.2776   22.4105 C   0  0  0  0  0  0  0  0  0  0  0  0
    7.0283  -14.8767   23.3989 O   0  0  0  0  0  0  0  0  0  0  0  0
    7.5031  -19.4246   25.8657 N   0  0  0  0  0  0  0  0  0  0  0  0
    8.3529  -18.5522   26.6193 C   0  0  0  0  0  0  0  0  0  0  0  0
    8.4748  -18.8026   27.8549 O   0  0  0  0  0  0  0  0  0  0  0  0
    9.0747  -17.4117   26.0381 C   0  0  0  0  0  0  0  0  0  0  0  0
    8.7925  -17.1277   24.6024 C   0  0  0  0  0  0  0  0  0  0  0  0
    9.5516  -15.9680   23.9970 C   0  0  2  0  0  0  0  0  0  0  0  0
    9.0181  -15.7252   22.6354 N   0  0  0  0  0  0  0  0  0  0  0  0
   10.9694  -15.9596   23.9693 C   0  0  0  0  0  0  0  0  0  0  0  0
   11.7694  -16.9059   23.6854 O   0  0  0  0  0  0  0  0  0  0  0  0
   11.6509  -14.7593   24.2974 O   0  0  0  0  0  0  0  0  0  0  0  0
  2  1  1  0
  2  3  1  0
  3  4  1  1
  5  3  1  0
  5  6  2  0
  8  7  1  0
  8 10  1  0
  9  8  2  0
 11 10  1  0
 12 11  1  1
 13 12  1  0
 13  5  1  0
 14 15  2  0
 14 12  1  0
 16 17  1  0
 17 19  1  0
 18 17  2  0
 19 20  1  0
 21 20  1  6
 21 22  1  0
 21 23  1  0
 22 14  1  0
 23 25  1  0
 24 23  2  0
M  END
$$$$
