SQQ.pdb
     RDKit          3D

 25 24  0  0  1  0  0  0  0  0999 V2000
    6.8571  -20.1245   20.0881 O   0  0  0  0  0  0  0  0  0  0  0  0
    5.4915  -20.0369   19.8052 C   0  0  0  0  0  0  0  0  0  0  0  0
    4.6919  -20.1541   21.0835 C   0  0  2  0  0  0  0  0  0  0  0  0
    3.2841  -20.1133   20.8479 N   0  0  0  0  0  0  0  0  0  0  0  0
    5.0901  -19.1536   22.0790 C   0  0  0  0  0  0  0  0  0  0  0  0
    4.5430  -17.9989   22.1210 O   0  0  0  0  0  0  0  0  0  0  0  0
    9.1233  -18.8020   27.9043 N   0  0  0  0  0  0  0  0  0  0  0  0
    7.7766  -18.9610   27.5145 C   0  0  0  0  0  0  0  0  0  0  0  0
    6.9899  -19.6936   28.1291 O   0  0  0  0  0  0  0  0  0  0  0  0
    7.3396  -18.1974   26.3230 C   0  0  0  0  0  0  0  0  0  0  0  0
    6.8426  -19.0708   25.2406 C   0  0  0  0  0  0  0  0  0  0  0  0
    6.4667  -18.2946   23.9492 C   0  0  2  0  0  0  0  0  0  0  0  0
    6.0975  -19.3983   23.0526 N   0  0  0  0  0  0  0  0  0  0  0  0
    7.6936  -17.6077   23.4754 C   0  0  0  0  0  0  0  0  0  0  0  0
    8.5974  -18.3515   22.9926 O   0  0  0  0  0  0  0  0  0  0  0  0
    7.9111  -12.2817   20.4115 N   0  0  0  0  0  0  0  0  0  0  0  0
    7.8588  -13.6475   19.9839 C   0  0  0  0  0  0  0  0  0  0  0  0
    7.3671  -13.8675   18.8376 O   0  0  0  0  0  0  0  0  0  0  0  0
    8.3412  -14.7760   20.7923 C   0  0  0  0  0  0  0  0  0  0  0  0
    8.8293  -14.4346   22.1585 C   0  0  0  0  0  0  0  0  0  0  0  0
    9.1770  -15.6076   23.0479 C   0  0  2  0  0  0  0  0  0  0  0  0
    7.9130  -16.2253   23.5154 N   0  0  0  0  0  0  0  0  0  0  0  0
   10.0729  -15.4567   24.1367 C   0  0  0  0  0  0  0  0  0  0  0  0
    9.8410  -15.5552   25.3827 O   0  0  0  0  0  0  0  0  0  0  0  0
   11.4309  -15.1489   23.8649 O   0  0  0  0  0  0  0  0  0  0  0  0
  2  1  1  0
  2  3  1  0
  3  4  1  6
  5  3  1  0
  5  6  2  0
  8  7  1  0
  8 10  1  0
  9  8  2  0
 11 10  1  0
 12 11  1  1
 13 12  1  0
 13  5  1  0
 14 15  2  0
 14 12  1  0
 16 17  1  0
 17 19  1  0
 18 17  2  0
 19 20  1  0
 21 20  1  1
 21 22  1  0
 21 23  1  0
 22 14  1  0
 23 25  1  0
 24 23  2  0
M  END
$$$$
