FNV.pdb
     RDKit          3D

 27 27  0  0  1  0  0  0  0  0999 V2000
    7.4837  -16.2208   20.6121 N   0  0  0  0  0  0  0  0  0  0  0  0
    7.8449  -15.3868   21.7438 C   0  0  1  0  0  0  0  0  0  0  0  0
    6.5167  -14.9932   22.4038 C   0  0  0  0  0  0  0  0  0  0  0  0
    6.7701  -14.0391   23.4944 C   0  0  0  0  0  0  0  0  0  0  0  0
    6.5160  -14.3184   24.8171 C   0  0  0  0  0  0  0  0  0  0  0  0
    6.7663  -13.3996   25.8161 C   0  0  0  0  0  0  0  0  0  0  0  0
    7.2822  -12.1745   25.4833 C   0  0  0  0  0  0  0  0  0  0  0  0
    7.5424  -11.8757   24.1753 C   0  0  0  0  0  0  0  0  0  0  0  0
    7.2886  -12.8011   23.1847 C   0  0  0  0  0  0  0  0  0  0  0  0
    8.6169  -16.1828   22.7289 C   0  0  0  0  0  0  0  0  0  0  0  0
    8.0279  -17.0655   23.4018 O   0  0  0  0  0  0  0  0  0  0  0  0
   11.6205  -19.7042   22.2749 N   0  0  0  0  0  0  0  0  0  0  0  0
   11.7333  -18.3065   22.1813 C   0  0  0  0  0  0  0  0  0  0  0  0
   11.6069  -17.8202   21.0065 O   0  0  0  0  0  0  0  0  0  0  0  0
   11.9764  -17.3442   23.2598 C   0  0  0  0  0  0  0  0  0  0  0  0
   10.7428  -16.8024   23.9238 C   0  0  2  0  0  0  0  0  0  0  0  0
   10.0011  -16.0142   22.9696 N   0  0  0  0  0  0  0  0  0  0  0  0
   11.1474  -16.0381   25.1278 C   0  0  0  0  0  0  0  0  0  0  0  0
   12.1072  -15.2258   25.0787 O   0  0  0  0  0  0  0  0  0  0  0  0
   10.1872  -13.8572   29.2169 C   0  0  0  0  0  0  0  0  0  0  0  0
    9.8979  -14.5528   27.9217 C   0  0  2  0  0  0  0  0  0  0  0  0
    8.5285  -15.1957   27.9272 C   0  0  0  0  0  0  0  0  0  0  0  0
   10.9069  -15.6501   27.6136 C   0  0  2  0  0  0  0  0  0  0  0  0
   10.4582  -16.2172   26.3363 N   0  0  0  0  0  0  0  0  0  0  0  0
   10.7794  -16.6421   28.7117 C   0  0  0  0  0  0  0  0  0  0  0  0
   11.2497  -16.3191   29.8450 O   0  0  0  0  0  0  0  0  0  0  0  0
   10.1931  -17.8660   28.5749 O   0  0  0  0  0  0  0  0  0  0  0  0
  2  1  1  6
  3  4  1  0
  3  2  1  0
  4  9  2  0
  5  6  2  0
  5  4  1  0
  6  7  1  0
  7  8  2  0
  9  8  1  0
 10 11  2  0
 10  2  1  0
 12 13  1  0
 13 15  1  0
 13 14  2  0
 16 15  1  6
 16 18  1  0
 16 17  1  0
 17 10  1  0
 18 19  2  0
 21 20  1  1
 22 21  1  0
 23 21  1  0
 23 24  1  6
 24 18  1  0
 25 27  1  0
 25 23  1  0
 26 25  2  0
M  END
$$$$
