FNV.pdb
     RDKit          3D

 27 27  0  0  1  0  0  0  0  0999 V2000
    6.1383  -15.2557   22.6036 N   0  0  0  0  0  0  0  0  0  0  0  0
    7.5408  -15.1300   22.2520 C   0  0  1  0  0  0  0  0  0  0  0  0
    7.8885  -13.6520   22.4736 C   0  0  0  0  0  0  0  0  0  0  0  0
    7.5951  -13.2784   23.8658 C   0  0  0  0  0  0  0  0  0  0  0  0
    8.5102  -13.3895   24.8869 C   0  0  0  0  0  0  0  0  0  0  0  0
    8.2018  -13.0291   26.1829 C   0  0  0  0  0  0  0  0  0  0  0  0
    6.9500  -12.5468   26.4626 C   0  0  0  0  0  0  0  0  0  0  0  0
    6.0252  -12.4280   25.4634 C   0  0  0  0  0  0  0  0  0  0  0  0
    6.3436  -12.7910   24.1715 C   0  0  0  0  0  0  0  0  0  0  0  0
    8.3675  -15.9307   23.1877 C   0  0  0  0  0  0  0  0  0  0  0  0
    7.8667  -16.3162   24.2737 O   0  0  0  0  0  0  0  0  0  0  0  0
   11.9872  -19.4079   25.0202 N   0  0  0  0  0  0  0  0  0  0  0  0
   12.3015  -18.8425   23.7726 C   0  0  0  0  0  0  0  0  0  0  0  0
   13.3121  -19.3483   23.1765 O   0  0  0  0  0  0  0  0  0  0  0  0
   11.6157  -17.7505   23.0757 C   0  0  0  0  0  0  0  0  0  0  0  0
   10.4927  -17.1094   23.8399 C   0  0  2  0  0  0  0  0  0  0  0  0
    9.7108  -16.2989   22.9378 N   0  0  0  0  0  0  0  0  0  0  0  0
   11.0650  -16.3419   24.9718 C   0  0  0  0  0  0  0  0  0  0  0  0
   11.9848  -15.5052   24.7788 O   0  0  0  0  0  0  0  0  0  0  0  0
   10.6216  -13.9927   28.9964 C   0  0  0  0  0  0  0  0  0  0  0  0
   10.2208  -14.7442   27.7637 C   0  0  2  0  0  0  0  0  0  0  0  0
    8.8277  -15.3206   27.8897 C   0  0  0  0  0  0  0  0  0  0  0  0
   11.1594  -15.9032   27.4589 C   0  0  2  0  0  0  0  0  0  0  0  0
   10.5811  -16.5454   26.2725 N   0  0  0  0  0  0  0  0  0  0  0  0
   11.0930  -16.8035   28.6384 C   0  0  0  0  0  0  0  0  0  0  0  0
   10.3697  -17.8412   28.5382 O   0  0  0  0  0  0  0  0  0  0  0  0
   11.7563  -16.5828   29.8096 O   0  0  0  0  0  0  0  0  0  0  0  0
  2  1  1  1
  3  4  1  0
  3  2  1  0
  4  9  2  0
  5  6  2  0
  5  4  1  0
  6  7  1  0
  7  8  2  0
  9  8  1  0
 10 11  2  0
 10  2  1  0
 12 13  1  0
 13 15  1  0
 13 14  2  0
 16 15  1  6
 16 18  1  0
 16 17  1  0
 17 10  1  0
 18 19  2  0
 21 20  1  1
 22 21  1  0
 23 21  1  0
 23 24  1  6
 24 18  1  0
 25 27  1  0
 25 23  1  0
 26 25  2  0
M  END
$$$$
