FNV.pdb
     RDKit          3D

 27 27  0  0  1  0  0  0  0  0999 V2000
    6.9528  -16.5600   25.6974 N   0  0  0  0  0  0  0  0  0  0  0  0
    6.9213  -16.7445   24.2582 C   0  0  1  0  0  0  0  0  0  0  0  0
    6.1325  -15.5486   23.7084 C   0  0  0  0  0  0  0  0  0  0  0  0
    6.5667  -14.3167   24.3851 C   0  0  0  0  0  0  0  0  0  0  0  0
    7.5203  -13.4685   23.8718 C   0  0  0  0  0  0  0  0  0  0  0  0
    7.9041  -12.3196   24.5332 C   0  0  0  0  0  0  0  0  0  0  0  0
    7.3204  -12.0134   25.7347 C   0  0  0  0  0  0  0  0  0  0  0  0
    6.3707  -12.8420   26.2631 C   0  0  0  0  0  0  0  0  0  0  0  0
    5.9943  -13.9877   25.5940 C   0  0  0  0  0  0  0  0  0  0  0  0
    8.2975  -16.6643   23.7106 C   0  0  0  0  0  0  0  0  0  0  0  0
    8.5386  -17.1583   22.5808 O   0  0  0  0  0  0  0  0  0  0  0  0
   14.0237  -15.2457   23.1656 N   0  0  0  0  0  0  0  0  0  0  0  0
   12.8576  -16.0141   23.0088 C   0  0  0  0  0  0  0  0  0  0  0  0
   13.0332  -17.1987   22.5634 O   0  0  0  0  0  0  0  0  0  0  0  0
   11.4731  -15.6254   23.2924 C   0  0  0  0  0  0  0  0  0  0  0  0
   10.7469  -16.5098   24.2654 C   0  0  2  0  0  0  0  0  0  0  0  0
    9.3823  -16.0569   24.3866 N   0  0  0  0  0  0  0  0  0  0  0  0
   11.4828  -16.5059   25.5523 C   0  0  0  0  0  0  0  0  0  0  0  0
   12.7121  -16.7721   25.5884 O   0  0  0  0  0  0  0  0  0  0  0  0
    9.3782  -15.2023   29.0466 C   0  0  0  0  0  0  0  0  0  0  0  0
   10.8458  -15.0301   28.7987 C   0  0  2  0  0  0  0  0  0  0  0  0
   11.1308  -13.7975   27.9692 C   0  0  0  0  0  0  0  0  0  0  0  0
   11.4537  -16.2159   28.0628 C   0  0  2  0  0  0  0  0  0  0  0  0
   10.8084  -16.2034   26.7445 N   0  0  0  0  0  0  0  0  0  0  0  0
   11.0619  -17.4215   28.8369 C   0  0  0  0  0  0  0  0  0  0  0  0
   10.1821  -18.1800   28.3266 O   0  0  0  0  0  0  0  0  0  0  0  0
   11.5865  -17.7572   30.0503 O   0  0  0  0  0  0  0  0  0  0  0  0
  2  1  1  1
  3  4  1  0
  3  2  1  0
  4  9  2  0
  5  6  2  0
  5  4  1  0
  6  7  1  0
  7  8  2  0
  9  8  1  0
 10 11  2  0
 10  2  1  0
 12 13  1  0
 13 15  1  0
 13 14  2  0
 16 15  1  6
 16 18  1  0
 16 17  1  0
 17 10  1  0
 18 19  2  0
 21 20  1  6
 22 21  1  0
 23 21  1  0
 23 24  1  6
 24 18  1  0
 25 27  1  0
 25 23  1  0
 26 25  2  0
M  END
$$$$
