FNV.pdb
     RDKit          3D

 27 27  0  0  1  0  0  0  0  0999 V2000
    6.5159  -17.6773   21.0904 N   0  0  0  0  0  0  0  0  0  0  0  0
    7.4539  -16.6688   21.5480 C   0  0  1  0  0  0  0  0  0  0  0  0
    6.6059  -15.4254   21.8473 C   0  0  0  0  0  0  0  0  0  0  0  0
    7.1638  -14.2638   21.1380 C   0  0  0  0  0  0  0  0  0  0  0  0
    7.9332  -13.3022   21.7509 C   0  0  0  0  0  0  0  0  0  0  0  0
    8.4419  -12.2245   21.0548 C   0  0  0  0  0  0  0  0  0  0  0  0
    8.1743  -12.1071   19.7160 C   0  0  0  0  0  0  0  0  0  0  0  0
    7.4121  -13.0510   19.0867 C   0  0  0  0  0  0  0  0  0  0  0  0
    6.9086  -14.1242   19.7916 C   0  0  0  0  0  0  0  0  0  0  0  0
    8.0781  -17.1035   22.8214 C   0  0  0  0  0  0  0  0  0  0  0  0
    7.3475  -17.5409   23.7454 O   0  0  0  0  0  0  0  0  0  0  0  0
   11.7134  -19.7473   26.1997 N   0  0  0  0  0  0  0  0  0  0  0  0
   11.9585  -18.6328   25.3796 C   0  0  0  0  0  0  0  0  0  0  0  0
   12.9134  -17.8711   25.7546 O   0  0  0  0  0  0  0  0  0  0  0  0
   11.2573  -18.2398   24.1539 C   0  0  0  0  0  0  0  0  0  0  0  0
   10.0532  -17.3653   24.3582 C   0  0  2  0  0  0  0  0  0  0  0  0
    9.4696  -17.0590   23.0746 N   0  0  0  0  0  0  0  0  0  0  0  0
   10.4637  -16.1607   25.1185 C   0  0  0  0  0  0  0  0  0  0  0  0
   11.2887  -15.3453   24.6309 O   0  0  0  0  0  0  0  0  0  0  0  0
    8.1990  -14.4105   28.0556 C   0  0  0  0  0  0  0  0  0  0  0  0
    9.5084  -13.8957   27.5402 C   0  0  2  0  0  0  0  0  0  0  0  0
    9.3512  -13.2149   26.1983 C   0  0  0  0  0  0  0  0  0  0  0  0
   10.5386  -15.0021   27.3634 C   0  0  2  0  0  0  0  0  0  0  0  0
    9.9311  -15.9218   26.3940 N   0  0  0  0  0  0  0  0  0  0  0  0
   10.6785  -15.6464   28.6944 C   0  0  0  0  0  0  0  0  0  0  0  0
   10.1654  -16.7977   28.8403 O   0  0  0  0  0  0  0  0  0  0  0  0
   11.3189  -15.0796   29.7569 O   0  0  0  0  0  0  0  0  0  0  0  0
  2  1  1  1
  3  4  1  0
  3  2  1  0
  4  9  2  0
  5  6  2  0
  5  4  1  0
  6  7  1  0
  7  8  2  0
  9  8  1  0
 10 11  2  0
 10  2  1  0
 12 13  1  0
 13 15  1  0
 13 14  2  0
 16 15  1  6
 16 18  1  0
 16 17  1  0
 17 10  1  0
 18 19  2  0
 21 20  1  6
 22 21  1  0
 23 21  1  0
 23 24  1  6
 24 18  1  0
 25 27  1  0
 25 23  1  0
 26 25  2  0
M  END
$$$$
