FNV.pdb
     RDKit          3D

 27 27  0  0  1  0  0  0  0  0999 V2000
    6.2716  -18.1491   21.8176 N   0  0  0  0  0  0  0  0  0  0  0  0
    7.0847  -16.9470   21.8099 C   0  0  1  0  0  0  0  0  0  0  0  0
    6.1324  -15.8050   22.1888 C   0  0  0  0  0  0  0  0  0  0  0  0
    6.8311  -14.5165   22.0646 C   0  0  0  0  0  0  0  0  0  0  0  0
    7.1757  -13.7366   23.1440 C   0  0  0  0  0  0  0  0  0  0  0  0
    7.8321  -12.5321   22.9917 C   0  0  0  0  0  0  0  0  0  0  0  0
    8.1503  -12.0993   21.7310 C   0  0  0  0  0  0  0  0  0  0  0  0
    7.8176  -12.8582   20.6443 C   0  0  0  0  0  0  0  0  0  0  0  0
    7.1617  -14.0604   20.8076 C   0  0  0  0  0  0  0  0  0  0  0  0
    8.1224  -17.0350   22.8661 C   0  0  0  0  0  0  0  0  0  0  0  0
    7.8259  -17.5405   23.9775 O   0  0  0  0  0  0  0  0  0  0  0  0
   11.9615  -17.7862   20.5943 N   0  0  0  0  0  0  0  0  0  0  0  0
   11.8417  -17.9598   21.9836 C   0  0  0  0  0  0  0  0  0  0  0  0
   11.7551  -19.1704   22.3830 O   0  0  0  0  0  0  0  0  0  0  0  0
   11.8046  -16.9284   23.0244 C   0  0  0  0  0  0  0  0  0  0  0  0
   10.4776  -16.7554   23.7065 C   0  0  2  0  0  0  0  0  0  0  0  0
    9.4526  -16.5792   22.7064 N   0  0  0  0  0  0  0  0  0  0  0  0
   10.5743  -15.6194   24.6540 C   0  0  0  0  0  0  0  0  0  0  0  0
   11.5258  -14.7997   24.5767 O   0  0  0  0  0  0  0  0  0  0  0  0
    7.3086  -14.8111   27.0465 C   0  0  0  0  0  0  0  0  0  0  0  0
    8.4915  -13.8914   27.0405 C   0  0  2  0  0  0  0  0  0  0  0  0
    8.3965  -12.8673   25.9311 C   0  0  0  0  0  0  0  0  0  0  0  0
    9.8055  -14.6361   26.8516 C   0  0  2  0  0  0  0  0  0  0  0  0
    9.5992  -15.4508   25.6482 N   0  0  0  0  0  0  0  0  0  0  0  0
    9.9660  -15.4927   28.0544 C   0  0  0  0  0  0  0  0  0  0  0  0
   10.2631  -14.9152   29.1444 O   0  0  0  0  0  0  0  0  0  0  0  0
    9.8145  -16.8482   28.0560 O   0  0  0  0  0  0  0  0  0  0  0  0
  2  1  1  1
  3  4  1  0
  3  2  1  0
  4  9  2  0
  5  6  2  0
  5  4  1  0
  6  7  1  0
  7  8  2  0
  9  8  1  0
 10 11  2  0
 10  2  1  0
 12 13  1  0
 13 15  1  0
 13 14  2  0
 16 15  1  6
 16 18  1  0
 16 17  1  0
 17 10  1  0
 18 19  2  0
 21 20  1  6
 22 21  1  0
 23 21  1  0
 23 24  1  6
 24 18  1  0
 25 27  1  0
 25 23  1  0
 26 25  2  0
M  END
$$$$
