FNV.pdb
     RDKit          3D

 27 27  0  0  1  0  0  0  0  0999 V2000
    8.4300  -15.9747   26.5256 N   0  0  0  0  0  0  0  0  0  0  0  0
    7.4790  -15.7320   25.4564 C   0  0  1  0  0  0  0  0  0  0  0  0
    7.7112  -14.2784   25.0230 C   0  0  0  0  0  0  0  0  0  0  0  0
    7.2940  -13.3684   26.1008 C   0  0  0  0  0  0  0  0  0  0  0  0
    8.1671  -12.8373   27.0216 C   0  0  0  0  0  0  0  0  0  0  0  0
    7.7418  -11.9853   28.0206 C   0  0  0  0  0  0  0  0  0  0  0  0
    6.4134  -11.6580   28.0992 C   0  0  0  0  0  0  0  0  0  0  0  0
    5.5284  -12.1741   27.1947 C   0  0  0  0  0  0  0  0  0  0  0  0
    5.9638  -13.0247   26.2002 C   0  0  0  0  0  0  0  0  0  0  0  0
    7.7935  -16.6017   24.2967 C   0  0  0  0  0  0  0  0  0  0  0  0
    8.9919  -16.7550   23.9513 O   0  0  0  0  0  0  0  0  0  0  0  0
    5.2453  -20.5138   23.9072 N   0  0  0  0  0  0  0  0  0  0  0  0
    6.2440  -20.0794   23.0191 C   0  0  0  0  0  0  0  0  0  0  0  0
    7.3632  -20.6898   23.1060 O   0  0  0  0  0  0  0  0  0  0  0  0
    6.1595  -19.0185   22.0113 C   0  0  0  0  0  0  0  0  0  0  0  0
    7.0780  -17.8509   22.2330 C   0  0  2  0  0  0  0  0  0  0  0  0
    6.8169  -17.2860   23.5348 N   0  0  0  0  0  0  0  0  0  0  0  0
    6.8927  -16.8830   21.1256 C   0  0  0  0  0  0  0  0  0  0  0  0
    5.7610  -16.7192   20.6002 O   0  0  0  0  0  0  0  0  0  0  0  0
    7.8816  -13.5037   21.4384 C   0  0  0  0  0  0  0  0  0  0  0  0
    8.4901  -13.8897   20.1246 C   0  0  2  0  0  0  0  0  0  0  0  0
    8.3012  -12.8088   19.0831 C   0  0  0  0  0  0  0  0  0  0  0  0
    7.8875  -15.1677   19.5585 C   0  0  2  0  0  0  0  0  0  0  0  0
    7.9848  -16.1395   20.6543 N   0  0  0  0  0  0  0  0  0  0  0  0
    8.7567  -15.5594   18.4195 C   0  0  0  0  0  0  0  0  0  0  0  0
    9.7140  -16.3552   18.6651 O   0  0  0  0  0  0  0  0  0  0  0  0
    8.5881  -15.1190   17.1397 O   0  0  0  0  0  0  0  0  0  0  0  0
  2  1  1  1
  3  4  1  0
  3  2  1  0
  4  9  2  0
  5  6  2  0
  5  4  1  0
  6  7  1  0
  7  8  2  0
  9  8  1  0
 10 11  2  0
 10  2  1  0
 12 13  1  0
 13 15  1  0
 13 14  2  0
 16 15  1  6
 16 18  1  0
 16 17  1  0
 17 10  1  0
 18 19  2  0
 21 20  1  1
 22 21  1  0
 23 21  1  0
 23 24  1  1
 24 18  1  0
 25 27  1  0
 25 23  1  0
 26 25  2  0
M  END
$$$$
