FNV.pdb
     RDKit          3D

 27 27  0  0  1  0  0  0  0  0999 V2000
    7.0082  -18.0285   20.7055 N   0  0  0  0  0  0  0  0  0  0  0  0
    7.5857  -16.7707   21.1425 C   0  0  1  0  0  0  0  0  0  0  0  0
    6.3930  -15.8455   21.4185 C   0  0  0  0  0  0  0  0  0  0  0  0
    6.8764  -14.4827   21.6885 C   0  0  0  0  0  0  0  0  0  0  0  0
    7.4040  -13.6621   20.7187 C   0  0  0  0  0  0  0  0  0  0  0  0
    7.8481  -12.3874   21.0066 C   0  0  0  0  0  0  0  0  0  0  0  0
    7.7620  -11.9245   22.2935 C   0  0  0  0  0  0  0  0  0  0  0  0
    7.2412  -12.7229   23.2728 C   0  0  0  0  0  0  0  0  0  0  0  0
    6.8002  -13.9951   22.9745 C   0  0  0  0  0  0  0  0  0  0  0  0
    8.3073  -16.9668   22.4235 C   0  0  0  0  0  0  0  0  0  0  0  0
    7.7037  -17.4877   23.3947 O   0  0  0  0  0  0  0  0  0  0  0  0
   11.5777  -20.0620   23.1503 N   0  0  0  0  0  0  0  0  0  0  0  0
   11.6503  -18.7380   22.6850 C   0  0  0  0  0  0  0  0  0  0  0  0
   11.6604  -18.5994   21.4148 O   0  0  0  0  0  0  0  0  0  0  0  0
   11.7152  -17.5041   23.4734 C   0  0  0  0  0  0  0  0  0  0  0  0
   10.3858  -16.9089   23.8404 C   0  0  2  0  0  0  0  0  0  0  0  0
    9.6579  -16.6003   22.6334 N   0  0  0  0  0  0  0  0  0  0  0  0
   10.6163  -15.7269   24.7050 C   0  0  0  0  0  0  0  0  0  0  0  0
   11.4973  -14.8785   24.4091 O   0  0  0  0  0  0  0  0  0  0  0  0
    7.8140  -14.4054   27.2316 C   0  0  0  0  0  0  0  0  0  0  0  0
    9.1612  -13.7496   27.2420 C   0  0  2  0  0  0  0  0  0  0  0  0
    9.2731  -12.6876   26.1704 C   0  0  0  0  0  0  0  0  0  0  0  0
   10.2920  -14.7417   27.0096 C   0  0  2  0  0  0  0  0  0  0  0  0
    9.8486  -15.5465   25.8650 N   0  0  0  0  0  0  0  0  0  0  0  0
   10.3716  -15.5663   28.2425 C   0  0  0  0  0  0  0  0  0  0  0  0
    9.9384  -16.7570   28.1749 O   0  0  0  0  0  0  0  0  0  0  0  0
   10.8773  -15.1238   29.4294 O   0  0  0  0  0  0  0  0  0  0  0  0
  2  1  1  1
  3  4  1  0
  3  2  1  0
  4  9  2  0
  5  6  2  0
  5  4  1  0
  6  7  1  0
  7  8  2  0
  9  8  1  0
 10 11  2  0
 10  2  1  0
 12 13  1  0
 13 15  1  0
 13 14  2  0
 16 15  1  6
 16 18  1  0
 16 17  1  0
 17 10  1  0
 18 19  2  0
 21 20  1  6
 22 21  1  0
 23 21  1  0
 23 24  1  6
 24 18  1  0
 25 27  1  0
 25 23  1  0
 26 25  2  0
M  END
$$$$
