FNV.pdb
     RDKit          3D

 27 27  0  0  1  0  0  0  0  0999 V2000
    6.4963  -18.1300   21.2674 N   0  0  0  0  0  0  0  0  0  0  0  0
    7.3220  -16.9579   21.4930 C   0  0  1  0  0  0  0  0  0  0  0  0
    6.3495  -15.8435   21.9016 C   0  0  0  0  0  0  0  0  0  0  0  0
    7.0046  -14.5352   21.7493 C   0  0  0  0  0  0  0  0  0  0  0  0
    7.4585  -14.0532   20.5436 C   0  0  0  0  0  0  0  0  0  0  0  0
    8.0687  -12.8199   20.4361 C   0  0  0  0  0  0  0  0  0  0  0  0
    8.2278  -12.0527   21.5604 C   0  0  0  0  0  0  0  0  0  0  0  0
    7.7842  -12.5120   22.7687 C   0  0  0  0  0  0  0  0  0  0  0  0
    7.1758  -13.7459   22.8652 C   0  0  0  0  0  0  0  0  0  0  0  0
    8.2348  -17.1986   22.6371 C   0  0  0  0  0  0  0  0  0  0  0  0
    7.7542  -17.5578   23.7411 O   0  0  0  0  0  0  0  0  0  0  0  0
   11.6092  -20.1283   22.4856 N   0  0  0  0  0  0  0  0  0  0  0  0
   11.9132  -18.7793   22.2357 C   0  0  0  0  0  0  0  0  0  0  0  0
   12.2600  -18.5048   21.0369 O   0  0  0  0  0  0  0  0  0  0  0  0
   11.8812  -17.6554   23.1760 C   0  0  0  0  0  0  0  0  0  0  0  0
   10.5180  -17.2906   23.6907 C   0  0  2  0  0  0  0  0  0  0  0  0
    9.6404  -17.0486   22.5712 N   0  0  0  0  0  0  0  0  0  0  0  0
   10.6481  -16.1246   24.5969 C   0  0  0  0  0  0  0  0  0  0  0  0
   11.3728  -15.1455   24.2815 O   0  0  0  0  0  0  0  0  0  0  0  0
    8.2783  -13.7978   25.8260 C   0  0  0  0  0  0  0  0  0  0  0  0
    8.8024  -14.4603   27.0635 C   0  0  2  0  0  0  0  0  0  0  0  0
    8.9318  -13.4805   28.2089 C   0  0  0  0  0  0  0  0  0  0  0  0
   10.1740  -15.0854   26.8514 C   0  0  2  0  0  0  0  0  0  0  0  0
    9.9595  -16.1064   25.8189 N   0  0  0  0  0  0  0  0  0  0  0  0
   10.5442  -15.7078   28.1482 C   0  0  0  0  0  0  0  0  0  0  0  0
   10.3103  -16.9473   28.2863 O   0  0  0  0  0  0  0  0  0  0  0  0
   11.1143  -15.0330   29.1874 O   0  0  0  0  0  0  0  0  0  0  0  0
  2  1  1  1
  3  4  1  0
  3  2  1  0
  4  9  2  0
  5  6  2  0
  5  4  1  0
  6  7  1  0
  7  8  2  0
  9  8  1  0
 10 11  2  0
 10  2  1  0
 12 13  1  0
 13 15  1  0
 13 14  2  0
 16 15  1  6
 16 18  1  0
 16 17  1  0
 17 10  1  0
 18 19  2  0
 21 20  1  6
 22 21  1  0
 23 21  1  0
 23 24  1  6
 24 18  1  0
 25 27  1  0
 25 23  1  0
 26 25  2  0
M  END
$$$$
