FNV.pdb
     RDKit          3D

 27 27  0  0  1  0  0  0  0  0999 V2000
    5.8183  -17.4499   24.1186 N   0  0  0  0  0  0  0  0  0  0  0  0
    6.7828  -16.3675   24.1859 C   0  0  1  0  0  0  0  0  0  0  0  0
    6.4874  -15.6359   25.5021 C   0  0  0  0  0  0  0  0  0  0  0  0
    6.5870  -14.1832   25.2935 C   0  0  0  0  0  0  0  0  0  0  0  0
    7.4566  -13.6064   24.3972 C   0  0  0  0  0  0  0  0  0  0  0  0
    7.5239  -12.2386   24.2258 C   0  0  0  0  0  0  0  0  0  0  0  0
    6.7027  -11.4309   24.9682 C   0  0  0  0  0  0  0  0  0  0  0  0
    5.8310  -11.9826   25.8645 C   0  0  0  0  0  0  0  0  0  0  0  0
    5.7717  -13.3508   26.0280 C   0  0  0  0  0  0  0  0  0  0  0  0
    8.1553  -16.9221   24.2792 C   0  0  0  0  0  0  0  0  0  0  0  0
    8.3724  -17.8996   25.0383 O   0  0  0  0  0  0  0  0  0  0  0  0
   13.4832  -17.9598   22.3302 N   0  0  0  0  0  0  0  0  0  0  0  0
   12.9008  -16.7592   22.7709 C   0  0  0  0  0  0  0  0  0  0  0  0
   13.7015  -15.9241   23.3133 O   0  0  0  0  0  0  0  0  0  0  0  0
   11.4960  -16.3500   22.6847 C   0  0  0  0  0  0  0  0  0  0  0  0
   10.6270  -16.8022   23.8234 C   0  0  2  0  0  0  0  0  0  0  0  0
    9.2624  -16.4163   23.5573 N   0  0  0  0  0  0  0  0  0  0  0  0
   11.1619  -16.2349   25.0842 C   0  0  0  0  0  0  0  0  0  0  0  0
   11.8943  -15.2119   25.0667 O   0  0  0  0  0  0  0  0  0  0  0  0
    9.6286  -14.3868   27.2159 C   0  0  0  0  0  0  0  0  0  0  0  0
    9.9922  -15.5444   28.0951 C   0  0  2  0  0  0  0  0  0  0  0  0
   10.2603  -15.1026   29.5169 C   0  0  0  0  0  0  0  0  0  0  0  0
   11.2373  -16.2735   27.6101 C   0  0  2  0  0  0  0  0  0  0  0  0
   10.8523  -16.8393   26.3116 N   0  0  0  0  0  0  0  0  0  0  0  0
   11.4953  -17.3467   28.6041 C   0  0  0  0  0  0  0  0  0  0  0  0
   11.9474  -16.9946   29.7362 O   0  0  0  0  0  0  0  0  0  0  0  0
   11.2771  -18.6732   28.3740 O   0  0  0  0  0  0  0  0  0  0  0  0
  2  1  1  1
  3  4  1  0
  3  2  1  0
  4  9  2  0
  5  6  2  0
  5  4  1  0
  6  7  1  0
  7  8  2  0
  9  8  1  0
 10 11  2  0
 10  2  1  0
 12 13  1  0
 13 15  1  0
 13 14  2  0
 16 15  1  6
 16 18  1  0
 16 17  1  0
 17 10  1  0
 18 19  2  0
 21 20  1  6
 22 21  1  0
 23 21  1  0
 23 24  1  6
 24 18  1  0
 25 27  1  0
 25 23  1  0
 26 25  2  0
M  END
$$$$
