FNV.pdb
     RDKit          3D

 27 27  0  0  1  0  0  0  0  0999 V2000
    6.4124  -18.0881   20.6439 N   0  0  0  0  0  0  0  0  0  0  0  0
    7.1486  -16.8691   20.9239 C   0  0  1  0  0  0  0  0  0  0  0  0
    6.0859  -15.7711   21.0650 C   0  0  0  0  0  0  0  0  0  0  0  0
    6.7404  -14.4557   21.1360 C   0  0  0  0  0  0  0  0  0  0  0  0
    7.3841  -13.8733   20.0689 C   0  0  0  0  0  0  0  0  0  0  0  0
    7.9878  -12.6364   20.1700 C   0  0  0  0  0  0  0  0  0  0  0  0
    7.9459  -11.9680   21.3656 C   0  0  0  0  0  0  0  0  0  0  0  0
    7.3117  -12.5278   22.4389 C   0  0  0  0  0  0  0  0  0  0  0  0
    6.7116  -13.7646   22.3272 C   0  0  0  0  0  0  0  0  0  0  0  0
    7.8444  -16.9903   22.2282 C   0  0  0  0  0  0  0  0  0  0  0  0
    7.1818  -17.2933   23.2518 O   0  0  0  0  0  0  0  0  0  0  0  0
   11.8208  -19.4275   21.9096 N   0  0  0  0  0  0  0  0  0  0  0  0
   11.2775  -18.8731   23.0811 C   0  0  0  0  0  0  0  0  0  0  0  0
   10.7329  -19.7048   23.8839 O   0  0  0  0  0  0  0  0  0  0  0  0
   11.2595  -17.4664   23.4925 C   0  0  0  0  0  0  0  0  0  0  0  0
    9.8928  -16.8736   23.6848 C   0  0  2  0  0  0  0  0  0  0  0  0
    9.2333  -16.7839   22.4046 N   0  0  0  0  0  0  0  0  0  0  0  0
   10.0339  -15.5641   24.3652 C   0  0  0  0  0  0  0  0  0  0  0  0
   10.9492  -14.7660   24.0357 O   0  0  0  0  0  0  0  0  0  0  0  0
    6.9084  -14.1241   26.4915 C   0  0  0  0  0  0  0  0  0  0  0  0
    8.1506  -13.2951   26.3697 C   0  0  2  0  0  0  0  0  0  0  0  0
    8.1531  -12.4772   25.0970 C   0  0  0  0  0  0  0  0  0  0  0  0
    9.4155  -14.1418   26.3607 C   0  0  2  0  0  0  0  0  0  0  0  0
    9.1420  -15.2051   25.3866 N   0  0  0  0  0  0  0  0  0  0  0  0
    9.5458  -14.6959   27.7326 C   0  0  0  0  0  0  0  0  0  0  0  0
    9.2532  -15.9198   27.8959 O   0  0  0  0  0  0  0  0  0  0  0  0
    9.9568  -13.9748   28.8149 O   0  0  0  0  0  0  0  0  0  0  0  0
  2  1  1  1
  3  4  1  0
  3  2  1  0
  4  9  2  0
  5  6  2  0
  5  4  1  0
  6  7  1  0
  7  8  2  0
  9  8  1  0
 10 11  2  0
 10  2  1  0
 12 13  1  0
 13 15  1  0
 13 14  2  0
 16 15  1  6
 16 18  1  0
 16 17  1  0
 17 10  1  0
 18 19  2  0
 21 20  1  6
 22 21  1  0
 23 21  1  0
 23 24  1  6
 24 18  1  0
 25 27  1  0
 25 23  1  0
 26 25  2  0
M  END
$$$$
