FNV.pdb
     RDKit          3D

 27 27  0  0  1  0  0  0  0  0999 V2000
    5.9876  -16.5328   25.1816 N   0  0  0  0  0  0  0  0  0  0  0  0
    6.8129  -16.4552   23.9903 C   0  0  1  0  0  0  0  0  0  0  0  0
    6.5960  -15.0423   23.4322 C   0  0  0  0  0  0  0  0  0  0  0  0
    6.6846  -14.0604   24.5239 C   0  0  0  0  0  0  0  0  0  0  0  0
    7.6133  -13.0461   24.5544 C   0  0  0  0  0  0  0  0  0  0  0  0
    7.6684  -12.1408   25.5946 C   0  0  0  0  0  0  0  0  0  0  0  0
    6.7741  -12.2537   26.6269 C   0  0  0  0  0  0  0  0  0  0  0  0
    5.8429  -13.2539   26.6171 C   0  0  0  0  0  0  0  0  0  0  0  0
    5.7964  -14.1534   25.5726 C   0  0  0  0  0  0  0  0  0  0  0  0
    8.2439  -16.5763   24.3611 C   0  0  0  0  0  0  0  0  0  0  0  0
    8.5640  -17.2784   25.3528 O   0  0  0  0  0  0  0  0  0  0  0  0
   13.2188  -17.5790   22.6602 N   0  0  0  0  0  0  0  0  0  0  0  0
   12.6544  -16.3957   22.1542 C   0  0  0  0  0  0  0  0  0  0  0  0
   13.2869  -15.8529   21.1857 O   0  0  0  0  0  0  0  0  0  0  0  0
   11.4362  -15.7122   22.5984 C   0  0  0  0  0  0  0  0  0  0  0  0
   10.6582  -16.4229   23.6689 C   0  0  2  0  0  0  0  0  0  0  0  0
    9.2977  -15.9424   23.6608 N   0  0  0  0  0  0  0  0  0  0  0  0
   11.3437  -16.2220   24.9679 C   0  0  0  0  0  0  0  0  0  0  0  0
   12.5342  -16.5962   25.1289 O   0  0  0  0  0  0  0  0  0  0  0  0
   10.1688  -13.1873   27.4683 C   0  0  0  0  0  0  0  0  0  0  0  0
   10.2654  -14.5407   28.1041 C   0  0  2  0  0  0  0  0  0  0  0  0
   10.7315  -14.4504   29.5405 C   0  0  0  0  0  0  0  0  0  0  0  0
   11.2371  -15.4573   27.3744 C   0  0  2  0  0  0  0  0  0  0  0  0
   10.6645  -15.6096   26.0315 N   0  0  0  0  0  0  0  0  0  0  0  0
   11.2155  -16.7461   28.1126 C   0  0  0  0  0  0  0  0  0  0  0  0
   10.3720  -17.6169   27.7382 O   0  0  0  0  0  0  0  0  0  0  0  0
   12.0397  -17.0450   29.1574 O   0  0  0  0  0  0  0  0  0  0  0  0
  2  1  1  1
  3  4  1  0
  3  2  1  0
  4  9  2  0
  5  6  2  0
  5  4  1  0
  6  7  1  0
  7  8  2  0
  9  8  1  0
 10 11  2  0
 10  2  1  0
 12 13  1  0
 13 15  1  0
 13 14  2  0
 16 15  1  6
 16 18  1  0
 16 17  1  0
 17 10  1  0
 18 19  2  0
 21 20  1  6
 22 21  1  0
 23 21  1  0
 23 24  1  6
 24 18  1  0
 25 27  1  0
 25 23  1  0
 26 25  2  0
M  END
$$$$
