FNV.pdb
     RDKit          3D

 27 27  0  0  1  0  0  0  0  0999 V2000
    6.8619  -16.1524   22.3962 N   0  0  0  0  0  0  0  0  0  0  0  0
    7.6612  -15.4987   23.4161 C   0  0  1  0  0  0  0  0  0  0  0  0
    6.8003  -15.5167   24.6862 C   0  0  0  0  0  0  0  0  0  0  0  0
    6.7747  -14.1734   25.2853 C   0  0  0  0  0  0  0  0  0  0  0  0
    7.4493  -13.0974   24.7568 C   0  0  0  0  0  0  0  0  0  0  0  0
    7.4032  -11.8495   25.3445 C   0  0  0  0  0  0  0  0  0  0  0  0
    6.6655  -11.6754   26.4862 C   0  0  0  0  0  0  0  0  0  0  0  0
    5.9873  -12.7306   27.0284 C   0  0  0  0  0  0  0  0  0  0  0  0
    6.0400  -13.9736   26.4332 C   0  0  0  0  0  0  0  0  0  0  0  0
    8.8802  -16.2986   23.6890 C   0  0  0  0  0  0  0  0  0  0  0  0
    8.7605  -17.4932   24.0599 O   0  0  0  0  0  0  0  0  0  0  0  0
   13.9288  -18.1249   23.7158 N   0  0  0  0  0  0  0  0  0  0  0  0
   13.7220  -16.9177   23.0268 C   0  0  0  0  0  0  0  0  0  0  0  0
   14.7222  -16.4846   22.3600 O   0  0  0  0  0  0  0  0  0  0  0  0
   12.5067  -16.0997   22.9794 C   0  0  0  0  0  0  0  0  0  0  0  0
   11.3755  -16.5842   23.8408 C   0  0  2  0  0  0  0  0  0  0  0  0
   10.1979  -15.7997   23.5581 N   0  0  0  0  0  0  0  0  0  0  0  0
   11.7971  -16.5188   25.2606 C   0  0  0  0  0  0  0  0  0  0  0  0
   12.7255  -17.2528   25.6878 O   0  0  0  0  0  0  0  0  0  0  0  0
    9.2641  -14.4287   28.0465 C   0  0  0  0  0  0  0  0  0  0  0  0
   10.7575  -14.3065   28.0589 C   0  0  2  0  0  0  0  0  0  0  0  0
   11.2323  -13.1777   27.1706 C   0  0  0  0  0  0  0  0  0  0  0  0
   11.4481  -15.5753   27.5791 C   0  0  2  0  0  0  0  0  0  0  0  0
   11.1593  -15.6325   26.1411 N   0  0  0  0  0  0  0  0  0  0  0  0
   10.7911  -16.6955   28.2999 C   0  0  0  0  0  0  0  0  0  0  0  0
   10.0235  -17.4495   27.6274 O   0  0  0  0  0  0  0  0  0  0  0  0
   10.9626  -16.9583   29.6273 O   0  0  0  0  0  0  0  0  0  0  0  0
  2  1  1  6
  3  4  1  0
  3  2  1  0
  4  9  2  0
  5  6  2  0
  5  4  1  0
  6  7  1  0
  7  8  2  0
  9  8  1  0
 10 11  2  0
 10  2  1  0
 12 13  1  0
 13 15  1  0
 13 14  2  0
 16 15  1  6
 16 18  1  0
 16 17  1  0
 17 10  1  0
 18 19  2  0
 21 20  1  6
 22 21  1  0
 23 21  1  0
 23 24  1  6
 24 18  1  0
 25 27  1  0
 25 23  1  0
 26 25  2  0
M  END
$$$$
