FNV.pdb
     RDKit          3D

 27 27  0  0  1  0  0  0  0  0999 V2000
    7.4306  -15.9636   20.5191 N   0  0  0  0  0  0  0  0  0  0  0  0
    7.8306  -15.1898   21.6799 C   0  0  1  0  0  0  0  0  0  0  0  0
    6.5225  -14.7598   22.3571 C   0  0  0  0  0  0  0  0  0  0  0  0
    6.8208  -13.8642   23.4853 C   0  0  0  0  0  0  0  0  0  0  0  0
    6.5827  -14.1979   24.7984 C   0  0  0  0  0  0  0  0  0  0  0  0
    6.8754  -13.3332   25.8335 C   0  0  0  0  0  0  0  0  0  0  0  0
    7.4182  -12.1079   25.5475 C   0  0  0  0  0  0  0  0  0  0  0  0
    7.6631  -11.7557   24.2500 C   0  0  0  0  0  0  0  0  0  0  0  0
    7.3670  -12.6272   23.2229 C   0  0  0  0  0  0  0  0  0  0  0  0
    8.5656  -16.0565   22.6332 C   0  0  0  0  0  0  0  0  0  0  0  0
    7.9649  -17.0150   23.1802 O   0  0  0  0  0  0  0  0  0  0  0  0
   11.7120  -17.7371   20.5672 N   0  0  0  0  0  0  0  0  0  0  0  0
   11.4726  -18.0966   21.9045 C   0  0  0  0  0  0  0  0  0  0  0  0
   10.8830  -19.2169   22.0776 O   0  0  0  0  0  0  0  0  0  0  0  0
   11.8146  -17.3484   23.1176 C   0  0  0  0  0  0  0  0  0  0  0  0
   10.6467  -16.7627   23.8586 C   0  0  2  0  0  0  0  0  0  0  0  0
    9.9261  -15.8757   22.9777 N   0  0  0  0  0  0  0  0  0  0  0  0
   11.1473  -16.0940   25.0833 C   0  0  0  0  0  0  0  0  0  0  0  0
   12.1616  -15.3506   25.0385 O   0  0  0  0  0  0  0  0  0  0  0  0
   10.2365  -14.1877   29.3828 C   0  0  0  0  0  0  0  0  0  0  0  0
    9.9290  -14.7783   28.0405 C   0  0  2  0  0  0  0  0  0  0  0  0
    8.6065  -15.5129   28.0438 C   0  0  0  0  0  0  0  0  0  0  0  0
   10.9909  -15.7690   27.5848 C   0  0  2  0  0  0  0  0  0  0  0  0
   10.4888  -16.2875   26.3066 N   0  0  0  0  0  0  0  0  0  0  0  0
   11.0236  -16.8364   28.6172 C   0  0  0  0  0  0  0  0  0  0  0  0
   10.2380  -17.8206   28.4616 O   0  0  0  0  0  0  0  0  0  0  0  0
   11.8393  -16.8208   29.7103 O   0  0  0  0  0  0  0  0  0  0  0  0
  2  1  1  6
  3  4  1  0
  3  2  1  0
  4  9  2  0
  5  6  2  0
  5  4  1  0
  6  7  1  0
  7  8  2  0
  9  8  1  0
 10 11  2  0
 10  2  1  0
 12 13  1  0
 13 15  1  0
 13 14  2  0
 16 15  1  6
 16 18  1  0
 16 17  1  0
 17 10  1  0
 18 19  2  0
 21 20  1  1
 22 21  1  0
 23 21  1  0
 23 24  1  6
 24 18  1  0
 25 27  1  0
 25 23  1  0
 26 25  2  0
M  END
$$$$
