FNV.pdb
     RDKit          3D

 27 27  0  0  1  0  0  0  0  0999 V2000
    6.0444  -18.0477   21.2619 N   0  0  0  0  0  0  0  0  0  0  0  0
    6.9260  -16.9019   21.3901 C   0  0  1  0  0  0  0  0  0  0  0  0
    6.0046  -15.6749   21.4047 C   0  0  0  0  0  0  0  0  0  0  0  0
    6.8132  -14.4484   21.3292 C   0  0  0  0  0  0  0  0  0  0  0  0
    7.0879  -13.6561   22.4196 C   0  0  0  0  0  0  0  0  0  0  0  0
    7.8512  -12.5112   22.3135 C   0  0  0  0  0  0  0  0  0  0  0  0
    8.3502  -12.1519   21.0888 C   0  0  0  0  0  0  0  0  0  0  0  0
    8.0898  -12.9244   19.9920 C   0  0  0  0  0  0  0  0  0  0  0  0
    7.3258  -14.0667   20.1090 C   0  0  0  0  0  0  0  0  0  0  0  0
    7.6281  -16.9513   22.6957 C   0  0  0  0  0  0  0  0  0  0  0  0
    6.9678  -17.1812   23.7397 O   0  0  0  0  0  0  0  0  0  0  0  0
   12.6122  -16.1876   22.3082 N   0  0  0  0  0  0  0  0  0  0  0  0
   11.6694  -17.1967   22.5680 C   0  0  0  0  0  0  0  0  0  0  0  0
   11.3102  -17.8899   21.5565 O   0  0  0  0  0  0  0  0  0  0  0  0
   11.0517  -17.5496   23.8495 C   0  0  0  0  0  0  0  0  0  0  0  0
    9.7109  -16.9233   24.1073 C   0  0  2  0  0  0  0  0  0  0  0  0
    9.0206  -16.7532   22.8517 N   0  0  0  0  0  0  0  0  0  0  0  0
    9.9133  -15.6519   24.8424 C   0  0  0  0  0  0  0  0  0  0  0  0
   10.6829  -14.7654   24.3897 O   0  0  0  0  0  0  0  0  0  0  0  0
    7.3368  -14.6081   27.9139 C   0  0  0  0  0  0  0  0  0  0  0  0
    8.4310  -13.6971   27.4468 C   0  0  2  0  0  0  0  0  0  0  0  0
    8.0073  -12.8888   26.2403 C   0  0  0  0  0  0  0  0  0  0  0  0
    9.6920  -14.4557   27.0577 C   0  0  2  0  0  0  0  0  0  0  0  0
    9.2435  -15.4289   26.0545 N   0  0  0  0  0  0  0  0  0  0  0  0
   10.1555  -15.1382   28.2928 C   0  0  0  0  0  0  0  0  0  0  0  0
   10.6175  -14.4084   29.2223 O   0  0  0  0  0  0  0  0  0  0  0  0
   10.1142  -16.4880   28.4843 O   0  0  0  0  0  0  0  0  0  0  0  0
  2  1  1  1
  3  4  1  0
  3  2  1  0
  4  9  2  0
  5  6  2  0
  5  4  1  0
  6  7  1  0
  7  8  2  0
  9  8  1  0
 10 11  2  0
 10  2  1  0
 12 13  1  0
 13 15  1  0
 13 14  2  0
 16 15  1  6
 16 18  1  0
 16 17  1  0
 17 10  1  0
 18 19  2  0
 21 20  1  6
 22 21  1  0
 23 21  1  0
 23 24  1  6
 24 18  1  0
 25 27  1  0
 25 23  1  0
 26 25  2  0
M  END
$$$$
