MEP.pdb
     RDKit          3D

 25 25  0  0  1  0  0  0  0  0999 V2000
    5.8990  -12.2783   26.5274 C   0  0  0  0  0  0  0  0  0  0  0  0
    7.2160  -12.3973   25.2958 S   0  0  0  0  0  0  0  0  0  0  0  0
    6.4580  -12.5375   23.6563 C   0  0  0  0  0  0  0  0  0  0  0  0
    7.5375  -12.5986   22.5746 C   0  0  0  0  0  0  0  0  0  0  0  0
    7.3426  -13.8451   21.7906 C   0  0  2  0  0  0  0  0  0  0  0  0
    5.9724  -14.0149   21.4076 N   0  0  0  0  0  0  0  0  0  0  0  0
    7.8818  -15.0586   22.4416 C   0  0  0  0  0  0  0  0  0  0  0  0
    7.1156  -15.8304   23.0631 O   0  0  0  0  0  0  0  0  0  0  0  0
    9.2578  -15.4182   22.4073 N   0  0  0  0  0  0  0  0  0  0  0  0
    9.7940  -16.6446   22.9965 C   0  0  1  0  0  0  0  0  0  0  0  0
   11.0511  -17.0507   22.3281 C   0  0  0  0  0  0  0  0  0  0  0  0
   11.6429  -18.3091   22.8481 C   0  0  0  0  0  0  0  0  0  0  0  0
   12.2868  -19.1031   21.7875 C   0  0  0  0  0  0  0  0  0  0  0  0
   12.0717  -19.0339   20.5611 O   0  0  0  0  0  0  0  0  0  0  0  0
    9.8407  -16.6520   24.4501 C   0  0  0  0  0  0  0  0  0  0  0  0
   10.6017  -15.7734   25.0136 O   0  0  0  0  0  0  0  0  0  0  0  0
   13.2493  -20.0452   22.1751 O   0  0  0  0  0  0  0  0  0  0  0  0
    9.1589  -17.5011   25.3599 N   0  0  0  0  0  0  0  0  0  0  0  0
    8.2273  -18.5208   25.0117 C   0  0  0  0  0  0  0  0  0  0  0  0
    7.8562  -19.1971   26.3315 C   0  0  0  0  0  0  0  0  0  0  0  0
    8.0833  -18.0688   27.3509 C   0  0  0  0  0  0  0  0  0  0  0  0
    9.3270  -17.4624   26.7860 C   0  0  1  0  0  0  0  0  0  0  0  0
   10.5462  -18.1757   27.2316 C   0  0  0  0  0  0  0  0  0  0  0  0
   10.8896  -18.1052   28.4255 O   0  0  0  0  0  0  0  0  0  0  0  0
   11.2749  -18.8979   26.3324 O   0  0  0  0  0  0  0  0  0  0  0  0
  2  3  1  0
  2  1  1  0
  4  3  1  0
  5  7  1  0
  5  4  1  0
  5  6  1  1
  7  8  2  0
  9 10  1  0
  9  7  1  0
 10 11  1  6
 11 12  1  0
 12 13  1  0
 13 14  2  0
 15 18  1  0
 15 10  1  0
 16 15  2  0
 17 13  1  0
 18 19  1  0
 19 20  1  0
 21 20  1  0
 22 21  1  0
 22 18  1  0
 22 23  1  6
 24 23  2  0
 25 23  1  0
M  END
$$$$
