MEP.pdb
     RDKit          3D

 25 25  0  0  1  0  0  0  0  0999 V2000
    9.4751  -13.3573   28.3522 C   0  0  0  0  0  0  0  0  0  0  0  0
   10.2972  -14.7908   29.0832 S   0  0  0  0  0  0  0  0  0  0  0  0
    9.7063  -16.2826   28.2420 C   0  0  0  0  0  0  0  0  0  0  0  0
    8.2244  -16.1433   27.8904 C   0  0  0  0  0  0  0  0  0  0  0  0
    7.9886  -16.8164   26.5874 C   0  0  2  0  0  0  0  0  0  0  0  0
    8.5880  -18.1174   26.5532 N   0  0  0  0  0  0  0  0  0  0  0  0
    8.3735  -16.0069   25.4111 C   0  0  0  0  0  0  0  0  0  0  0  0
    7.8312  -14.8961   25.2091 O   0  0  0  0  0  0  0  0  0  0  0  0
    9.3507  -16.4205   24.4636 N   0  0  0  0  0  0  0  0  0  0  0  0
    9.6960  -15.6583   23.2641 C   0  0  1  0  0  0  0  0  0  0  0  0
   11.0623  -15.9879   22.7990 C   0  0  0  0  0  0  0  0  0  0  0  0
   12.1486  -15.3992   23.6222 C   0  0  0  0  0  0  0  0  0  0  0  0
   13.4464  -16.0545   23.3849 C   0  0  0  0  0  0  0  0  0  0  0  0
   13.9359  -17.0065   24.0246 O   0  0  0  0  0  0  0  0  0  0  0  0
    8.6765  -15.6606   22.2268 C   0  0  0  0  0  0  0  0  0  0  0  0
    7.9292  -16.7110   22.1460 O   0  0  0  0  0  0  0  0  0  0  0  0
   14.2342  -15.5724   22.3308 O   0  0  0  0  0  0  0  0  0  0  0  0
    8.3760  -14.6571   21.2696 N   0  0  0  0  0  0  0  0  0  0  0  0
    8.9146  -13.3386   21.2457 C   0  0  0  0  0  0  0  0  0  0  0  0
    8.3515  -12.6950   19.9785 C   0  0  0  0  0  0  0  0  0  0  0  0
    7.0344  -13.4628   19.7806 C   0  0  0  0  0  0  0  0  0  0  0  0
    7.4820  -14.8374   20.1597 C   0  0  1  0  0  0  0  0  0  0  0  0
    8.1216  -15.5467   19.0276 C   0  0  0  0  0  0  0  0  0  0  0  0
    9.3421  -15.7848   19.0709 O   0  0  0  0  0  0  0  0  0  0  0  0
    7.3689  -15.9288   17.9559 O   0  0  0  0  0  0  0  0  0  0  0  0
  2  3  1  0
  2  1  1  0
  4  3  1  0
  5  7  1  0
  5  4  1  0
  5  6  1  1
  7  8  2  0
  9 10  1  0
  9  7  1  0
 10 11  1  6
 11 12  1  0
 12 13  1  0
 13 14  2  0
 15 18  1  0
 15 10  1  0
 16 15  2  0
 17 13  1  0
 18 19  1  0
 19 20  1  0
 21 20  1  0
 22 21  1  0
 22 18  1  0
 22 23  1  6
 24 23  2  0
 25 23  1  0
M  END
$$$$
