MEP.pdb
     RDKit          3D

 25 25  0  0  1  0  0  0  0  0999 V2000
    7.7147  -11.5810   19.9315 C   0  0  0  0  0  0  0  0  0  0  0  0
    8.0066  -12.6584   18.5104 S   0  0  0  0  0  0  0  0  0  0  0  0
    7.7701  -14.3765   19.0341 C   0  0  0  0  0  0  0  0  0  0  0  0
    7.2896  -14.4289   20.4852 C   0  0  0  0  0  0  0  0  0  0  0  0
    8.2712  -15.2173   21.2736 C   0  0  2  0  0  0  0  0  0  0  0  0
    8.5206  -16.4945   20.6741 N   0  0  0  0  0  0  0  0  0  0  0  0
    7.9315  -15.3442   22.7074 C   0  0  0  0  0  0  0  0  0  0  0  0
    7.6075  -14.3304   23.3676 O   0  0  0  0  0  0  0  0  0  0  0  0
    7.9493  -16.5821   23.4082 N   0  0  0  0  0  0  0  0  0  0  0  0
    7.7598  -16.7027   24.8533 C   0  0  1  0  0  0  0  0  0  0  0  0
    7.3588  -18.0786   25.2245 C   0  0  0  0  0  0  0  0  0  0  0  0
    7.1382  -18.2814   26.6787 C   0  0  0  0  0  0  0  0  0  0  0  0
    6.8159  -19.6815   27.0044 C   0  0  0  0  0  0  0  0  0  0  0  0
    6.9364  -20.2425   28.1115 O   0  0  0  0  0  0  0  0  0  0  0  0
    8.8315  -16.1368   25.6573 C   0  0  0  0  0  0  0  0  0  0  0  0
   10.0107  -16.6377   25.4927 O   0  0  0  0  0  0  0  0  0  0  0  0
    6.3182  -20.4900   25.9736 O   0  0  0  0  0  0  0  0  0  0  0  0
    8.7708  -15.0933   26.6170 N   0  0  0  0  0  0  0  0  0  0  0  0
    7.6009  -14.3738   26.9945 C   0  0  0  0  0  0  0  0  0  0  0  0
    8.0479  -13.4347   28.1149 C   0  0  0  0  0  0  0  0  0  0  0  0
    9.5376  -13.2306   27.7941 C   0  0  0  0  0  0  0  0  0  0  0  0
    9.8983  -14.6172   27.3690 C   0  0  1  0  0  0  0  0  0  0  0  0
   10.2170  -15.4884   28.5237 C   0  0  0  0  0  0  0  0  0  0  0  0
   11.1917  -15.2093   29.2450 O   0  0  0  0  0  0  0  0  0  0  0  0
    9.4422  -16.5812   28.7816 O   0  0  0  0  0  0  0  0  0  0  0  0
  2  3  1  0
  2  1  1  0
  4  3  1  0
  5  7  1  0
  5  4  1  0
  5  6  1  6
  7  8  2  0
  9 10  1  0
  9  7  1  0
 10 11  1  6
 11 12  1  0
 12 13  1  0
 13 14  2  0
 15 18  1  0
 15 10  1  0
 16 15  2  0
 17 13  1  0
 18 19  1  0
 19 20  1  0
 21 20  1  0
 22 21  1  0
 22 18  1  0
 22 23  1  1
 24 23  2  0
 25 23  1  0
M  END
$$$$
