MEP.pdb
     RDKit          3D

 25 25  0  0  1  0  0  0  0  0999 V2000
    7.5795  -11.7168   18.1931 C   0  0  0  0  0  0  0  0  0  0  0  0
    7.1191  -13.3930   17.6994 S   0  0  0  0  0  0  0  0  0  0  0  0
    7.9228  -14.5641   18.8240 C   0  0  0  0  0  0  0  0  0  0  0  0
    8.4549  -13.8357   20.0591 C   0  0  0  0  0  0  0  0  0  0  0  0
    9.1551  -14.8245   20.9185 C   0  0  2  0  0  0  0  0  0  0  0  0
    9.2390  -16.1056   20.2826 N   0  0  0  0  0  0  0  0  0  0  0  0
    8.6068  -14.9296   22.2880 C   0  0  0  0  0  0  0  0  0  0  0  0
    8.4159  -13.8957   22.9687 O   0  0  0  0  0  0  0  0  0  0  0  0
    8.2712  -16.1680   22.9026 N   0  0  0  0  0  0  0  0  0  0  0  0
    7.7518  -16.2870   24.2645 C   0  0  1  0  0  0  0  0  0  0  0  0
    7.4698  -17.6999   24.6050 C   0  0  0  0  0  0  0  0  0  0  0  0
    6.9686  -17.9091   25.9868 C   0  0  0  0  0  0  0  0  0  0  0  0
    6.8005  -19.3365   26.3095 C   0  0  0  0  0  0  0  0  0  0  0  0
    7.2041  -20.3104   25.6433 O   0  0  0  0  0  0  0  0  0  0  0  0
    8.5029  -15.5508   25.2691 C   0  0  0  0  0  0  0  0  0  0  0  0
    9.7589  -15.8315   25.3800 O   0  0  0  0  0  0  0  0  0  0  0  0
    6.1157  -19.6594   27.4889 O   0  0  0  0  0  0  0  0  0  0  0  0
    8.0489  -14.5485   26.1650 N   0  0  0  0  0  0  0  0  0  0  0  0
    6.7120  -14.0690   26.2728 C   0  0  0  0  0  0  0  0  0  0  0  0
    6.7318  -13.0741   27.4334 C   0  0  0  0  0  0  0  0  0  0  0  0
    8.1898  -12.5866   27.4198 C   0  0  0  0  0  0  0  0  0  0  0  0
    8.8856  -13.8744   27.1185 C   0  0  1  0  0  0  0  0  0  0  0  0
    9.1163  -14.6814   28.3389 C   0  0  0  0  0  0  0  0  0  0  0  0
    8.5000  -15.7526   28.4849 O   0  0  0  0  0  0  0  0  0  0  0  0
    9.9971  -14.2433   29.2840 O   0  0  0  0  0  0  0  0  0  0  0  0
  2  3  1  0
  2  1  1  0
  4  3  1  0
  5  7  1  0
  5  4  1  0
  5  6  1  6
  7  8  2  0
  9 10  1  0
  9  7  1  0
 10 11  1  1
 11 12  1  0
 12 13  1  0
 13 14  2  0
 15 18  1  0
 15 10  1  0
 16 15  2  0
 17 13  1  0
 18 19  1  0
 19 20  1  0
 21 20  1  0
 22 21  1  0
 22 18  1  0
 22 23  1  1
 24 23  2  0
 25 23  1  0
M  END
$$$$
