MEP.pdb
     RDKit          3D

 25 25  0  0  1  0  0  0  0  0999 V2000
    7.9945  -11.5622   27.6489 C   0  0  0  0  0  0  0  0  0  0  0  0
    6.5912  -12.5446   27.0736 S   0  0  0  0  0  0  0  0  0  0  0  0
    7.0935  -14.2842   27.0151 C   0  0  0  0  0  0  0  0  0  0  0  0
    5.9114  -15.1658   26.6091 C   0  0  0  0  0  0  0  0  0  0  0  0
    6.3951  -16.1733   25.6305 C   0  0  2  0  0  0  0  0  0  0  0  0
    7.1266  -17.2225   26.2762 N   0  0  0  0  0  0  0  0  0  0  0  0
    7.1506  -15.5991   24.4962 C   0  0  0  0  0  0  0  0  0  0  0  0
    6.7076  -14.5963   23.8905 O   0  0  0  0  0  0  0  0  0  0  0  0
    8.3873  -16.1283   24.0330 N   0  0  0  0  0  0  0  0  0  0  0  0
    9.0994  -15.6257   22.8587 C   0  0  1  0  0  0  0  0  0  0  0  0
   10.4446  -16.2346   22.7510 C   0  0  0  0  0  0  0  0  0  0  0  0
   11.4787  -15.5903   23.5994 C   0  0  0  0  0  0  0  0  0  0  0  0
   12.7750  -16.2860   23.5245 C   0  0  0  0  0  0  0  0  0  0  0  0
   13.1186  -17.3053   24.1552 O   0  0  0  0  0  0  0  0  0  0  0  0
    8.3234  -15.6285   21.6286 C   0  0  0  0  0  0  0  0  0  0  0  0
    7.6202  -16.6842   21.3851 O   0  0  0  0  0  0  0  0  0  0  0  0
   13.7433  -15.7634   22.6564 O   0  0  0  0  0  0  0  0  0  0  0  0
    8.2235  -14.6204   20.6350 N   0  0  0  0  0  0  0  0  0  0  0  0
    8.7426  -13.2975   20.7331 C   0  0  0  0  0  0  0  0  0  0  0  0
    8.4552  -12.6491   19.3789 C   0  0  0  0  0  0  0  0  0  0  0  0
    7.2172  -13.4258   18.9019 C   0  0  0  0  0  0  0  0  0  0  0  0
    7.5869  -14.7995   19.3598 C   0  0  1  0  0  0  0  0  0  0  0  0
    8.4586  -15.4955   18.3852 C   0  0  0  0  0  0  0  0  0  0  0  0
    7.9879  -15.8389   17.2856 O   0  0  0  0  0  0  0  0  0  0  0  0
    9.7605  -15.7506   18.7027 O   0  0  0  0  0  0  0  0  0  0  0  0
  2  3  1  0
  2  1  1  0
  4  3  1  0
  5  7  1  0
  5  4  1  0
  5  6  1  1
  7  8  2  0
  9 10  1  0
  9  7  1  0
 10 11  1  6
 11 12  1  0
 12 13  1  0
 13 14  2  0
 15 18  1  0
 15 10  1  0
 16 15  2  0
 17 13  1  0
 18 19  1  0
 19 20  1  0
 21 20  1  0
 22 21  1  0
 22 18  1  0
 22 23  1  6
 24 23  2  0
 25 23  1  0
M  END
$$$$
