MEP.pdb
     RDKit          3D

 25 25  0  0  1  0  0  0  0  0999 V2000
    8.0785  -11.0608   19.9939 C   0  0  0  0  0  0  0  0  0  0  0  0
    8.7479  -12.7001   19.6333 S   0  0  0  0  0  0  0  0  0  0  0  0
    7.6089  -13.9438   20.2952 C   0  0  0  0  0  0  0  0  0  0  0  0
    8.1348  -15.3516   20.0109 C   0  0  0  0  0  0  0  0  0  0  0  0
    7.2137  -16.3305   20.6434 C   0  0  2  0  0  0  0  0  0  0  0  0
    5.9709  -16.4143   19.9354 N   0  0  0  0  0  0  0  0  0  0  0  0
    7.0036  -16.1137   22.0911 C   0  0  0  0  0  0  0  0  0  0  0  0
    6.0289  -15.4353   22.4892 O   0  0  0  0  0  0  0  0  0  0  0  0
    7.8638  -16.6421   23.0935 N   0  0  0  0  0  0  0  0  0  0  0  0
    7.5834  -16.5720   24.5271 C   0  0  1  0  0  0  0  0  0  0  0  0
    7.4494  -17.9262   25.1101 C   0  0  0  0  0  0  0  0  0  0  0  0
    7.1319  -17.9406   26.5603 C   0  0  0  0  0  0  0  0  0  0  0  0
    7.0666  -19.3081   27.1040 C   0  0  0  0  0  0  0  0  0  0  0  0
    7.0628  -20.3746   26.4577 O   0  0  0  0  0  0  0  0  0  0  0  0
    8.4420  -15.6645   25.2718 C   0  0  0  0  0  0  0  0  0  0  0  0
    9.7158  -15.7973   25.1039 O   0  0  0  0  0  0  0  0  0  0  0  0
    7.0008  -19.4509   28.4966 O   0  0  0  0  0  0  0  0  0  0  0  0
    8.0781  -14.6328   26.1755 N   0  0  0  0  0  0  0  0  0  0  0  0
    6.7484  -14.2522   26.5161 C   0  0  0  0  0  0  0  0  0  0  0  0
    6.8990  -13.1700   27.5853 C   0  0  0  0  0  0  0  0  0  0  0  0
    8.2760  -12.5727   27.2526 C   0  0  0  0  0  0  0  0  0  0  0  0
    9.0167  -13.8220   26.9003 C   0  0  1  0  0  0  0  0  0  0  0  0
    9.5508  -14.5093   28.0988 C   0  0  0  0  0  0  0  0  0  0  0  0
    9.0715  -15.6076   28.4338 O   0  0  0  0  0  0  0  0  0  0  0  0
   10.5569  -13.9331   28.8177 O   0  0  0  0  0  0  0  0  0  0  0  0
  2  3  1  0
  2  1  1  0
  4  3  1  0
  5  7  1  0
  5  4  1  0
  5  6  1  6
  7  8  2  0
  9 10  1  0
  9  7  1  0
 10 11  1  1
 11 12  1  0
 12 13  1  0
 13 14  2  0
 15 18  1  0
 15 10  1  0
 16 15  2  0
 17 13  1  0
 18 19  1  0
 19 20  1  0
 21 20  1  0
 22 21  1  0
 22 18  1  0
 22 23  1  1
 24 23  2  0
 25 23  1  0
M  END
$$$$
