MEP.pdb
     RDKit          3D

 25 25  0  0  1  0  0  0  0  0999 V2000
    8.8053  -11.5345   19.6667 C   0  0  0  0  0  0  0  0  0  0  0  0
    8.4046  -12.6684   18.3180 S   0  0  0  0  0  0  0  0  0  0  0  0
    8.3423  -14.3525   18.9829 C   0  0  0  0  0  0  0  0  0  0  0  0
    7.5265  -14.3838   20.2763 C   0  0  0  0  0  0  0  0  0  0  0  0
    7.4899  -15.7839   20.7712 C   0  0  2  0  0  0  0  0  0  0  0  0
    6.6930  -16.6193   19.9226 N   0  0  0  0  0  0  0  0  0  0  0  0
    7.0948  -15.9126   22.1905 C   0  0  0  0  0  0  0  0  0  0  0  0
    5.9642  -15.5248   22.5649 O   0  0  0  0  0  0  0  0  0  0  0  0
    7.9421  -16.4656   23.1906 N   0  0  0  0  0  0  0  0  0  0  0  0
    7.6367  -16.4426   24.6206 C   0  0  1  0  0  0  0  0  0  0  0  0
    7.6489  -17.8093   25.1895 C   0  0  0  0  0  0  0  0  0  0  0  0
    7.3064  -17.8756   26.6327 C   0  0  0  0  0  0  0  0  0  0  0  0
    7.4122  -19.2434   27.1692 C   0  0  0  0  0  0  0  0  0  0  0  0
    8.4310  -19.7917   27.6344 O   0  0  0  0  0  0  0  0  0  0  0  0
    8.3774  -15.4518   25.3856 C   0  0  0  0  0  0  0  0  0  0  0  0
    9.6643  -15.4747   25.2778 O   0  0  0  0  0  0  0  0  0  0  0  0
    6.2544  -20.0332   27.1669 O   0  0  0  0  0  0  0  0  0  0  0  0
    7.8834  -14.4424   26.2520 N   0  0  0  0  0  0  0  0  0  0  0  0
    6.5110  -14.1396   26.4835 C   0  0  0  0  0  0  0  0  0  0  0  0
    6.5128  -13.0497   27.5555 C   0  0  0  0  0  0  0  0  0  0  0  0
    7.8751  -12.3736   27.3304 C   0  0  0  0  0  0  0  0  0  0  0  0
    8.7126  -13.5779   27.0449 C   0  0  1  0  0  0  0  0  0  0  0  0
    9.1882  -14.2322   28.2857 C   0  0  0  0  0  0  0  0  0  0  0  0
    8.7554  -15.3604   28.5824 O   0  0  0  0  0  0  0  0  0  0  0  0
   10.0908  -13.5935   29.0848 O   0  0  0  0  0  0  0  0  0  0  0  0
  2  3  1  0
  2  1  1  0
  4  3  1  0
  5  7  1  0
  5  4  1  0
  5  6  1  6
  7  8  2  0
  9 10  1  0
  9  7  1  0
 10 11  1  1
 11 12  1  0
 12 13  1  0
 13 14  2  0
 15 18  1  0
 15 10  1  0
 16 15  2  0
 17 13  1  0
 18 19  1  0
 19 20  1  0
 21 20  1  0
 22 21  1  0
 22 18  1  0
 22 23  1  1
 24 23  2  0
 25 23  1  0
M  END
$$$$
