MEP.pdb
     RDKit          3D

 25 25  0  0  1  0  0  0  0  0999 V2000
    8.8685  -11.6111   19.9074 C   0  0  0  0  0  0  0  0  0  0  0  0
    8.8685  -12.6040   18.3976 S   0  0  0  0  0  0  0  0  0  0  0  0
    8.4231  -14.3061   18.8296 C   0  0  0  0  0  0  0  0  0  0  0  0
    7.6927  -14.3402   20.1729 C   0  0  0  0  0  0  0  0  0  0  0  0
    7.5434  -15.7589   20.5871 C   0  0  2  0  0  0  0  0  0  0  0  0
    6.7035  -16.4841   19.6807 N   0  0  0  0  0  0  0  0  0  0  0  0
    7.1127  -15.9361   21.9907 C   0  0  0  0  0  0  0  0  0  0  0  0
    5.9367  -15.6644   22.3254 O   0  0  0  0  0  0  0  0  0  0  0  0
    7.9743  -16.4100   23.0188 N   0  0  0  0  0  0  0  0  0  0  0  0
    7.6154  -16.4325   24.4363 C   0  0  1  0  0  0  0  0  0  0  0  0
    7.6645  -17.8102   24.9760 C   0  0  0  0  0  0  0  0  0  0  0  0
    7.4016  -17.9072   26.4340 C   0  0  0  0  0  0  0  0  0  0  0  0
    7.4768  -19.2944   26.9237 C   0  0  0  0  0  0  0  0  0  0  0  0
    8.4375  -19.8346   27.5072 O   0  0  0  0  0  0  0  0  0  0  0  0
    8.2844  -15.4296   25.2499 C   0  0  0  0  0  0  0  0  0  0  0  0
    9.5755  -15.4612   25.2696 O   0  0  0  0  0  0  0  0  0  0  0  0
    6.3588  -20.1154   26.7233 O   0  0  0  0  0  0  0  0  0  0  0  0
    7.7149  -14.3996   26.0426 N   0  0  0  0  0  0  0  0  0  0  0  0
    6.3438  -14.0134   26.0497 C   0  0  0  0  0  0  0  0  0  0  0  0
    6.2329  -12.9363   27.1289 C   0  0  0  0  0  0  0  0  0  0  0  0
    7.6519  -12.3450   27.1462 C   0  0  0  0  0  0  0  0  0  0  0  0
    8.4510  -13.5968   26.9791 C   0  0  1  0  0  0  0  0  0  0  0  0
    8.6731  -14.2917   28.2682 C   0  0  0  0  0  0  0  0  0  0  0  0
    8.1294  -15.3933   28.4665 O   0  0  0  0  0  0  0  0  0  0  0  0
    9.4671  -13.7190   29.2183 O   0  0  0  0  0  0  0  0  0  0  0  0
  2  3  1  0
  2  1  1  0
  4  3  1  0
  5  7  1  0
  5  4  1  0
  5  6  1  6
  7  8  2  0
  9 10  1  0
  9  7  1  0
 10 11  1  1
 11 12  1  0
 12 13  1  0
 13 14  2  0
 15 18  1  0
 15 10  1  0
 16 15  2  0
 17 13  1  0
 18 19  1  0
 19 20  1  0
 21 20  1  0
 22 21  1  0
 22 18  1  0
 22 23  1  1
 24 23  2  0
 25 23  1  0
M  END
$$$$
