MEP.pdb
     RDKit          3D

 25 25  0  0  1  0  0  0  0  0999 V2000
    7.8343  -12.1177   19.3358 C   0  0  0  0  0  0  0  0  0  0  0  0
    8.7731  -13.3689   18.4310 S   0  0  0  0  0  0  0  0  0  0  0  0
    8.3364  -15.0002   19.0869 C   0  0  0  0  0  0  0  0  0  0  0  0
    7.7230  -14.8660   20.4815 C   0  0  0  0  0  0  0  0  0  0  0  0
    7.3596  -16.2231   20.9641 C   0  0  2  0  0  0  0  0  0  0  0  0
    6.4762  -16.8853   20.0509 N   0  0  0  0  0  0  0  0  0  0  0  0
    6.8372  -16.2523   22.3473 C   0  0  0  0  0  0  0  0  0  0  0  0
    5.6407  -15.9583   22.5726 O   0  0  0  0  0  0  0  0  0  0  0  0
    7.6301  -16.6037   23.4750 N   0  0  0  0  0  0  0  0  0  0  0  0
    7.2720  -16.2793   24.8553 C   0  0  1  0  0  0  0  0  0  0  0  0
    6.9679  -17.5048   25.6283 C   0  0  0  0  0  0  0  0  0  0  0  0
    6.6827  -18.7001   24.7951 C   0  0  0  0  0  0  0  0  0  0  0  0
    7.1215  -19.9488   25.4417 C   0  0  0  0  0  0  0  0  0  0  0  0
    7.6628  -20.0669   26.5589 O   0  0  0  0  0  0  0  0  0  0  0  0
    8.1707  -15.3445   25.5139 C   0  0  0  0  0  0  0  0  0  0  0  0
    9.4343  -15.4968   25.2936 O   0  0  0  0  0  0  0  0  0  0  0  0
    6.9187  -21.1473   24.7442 O   0  0  0  0  0  0  0  0  0  0  0  0
    7.8567  -14.2669   26.3820 N   0  0  0  0  0  0  0  0  0  0  0  0
    6.5463  -13.8371   26.7387 C   0  0  0  0  0  0  0  0  0  0  0  0
    6.7519  -12.7159   27.7573 C   0  0  0  0  0  0  0  0  0  0  0  0
    8.1348  -12.1698   27.3661 C   0  0  0  0  0  0  0  0  0  0  0  0
    8.8339  -13.4520   27.0488 C   0  0  1  0  0  0  0  0  0  0  0  0
    9.3808  -14.1030   28.2617 C   0  0  0  0  0  0  0  0  0  0  0  0
   10.2442  -13.5097   28.9331 O   0  0  0  0  0  0  0  0  0  0  0  0
    8.9339  -15.3392   28.6266 O   0  0  0  0  0  0  0  0  0  0  0  0
  2  3  1  0
  2  1  1  0
  4  3  1  0
  5  7  1  0
  5  4  1  0
  5  6  1  6
  7  8  2  0
  9 10  1  0
  9  7  1  0
 10 11  1  1
 11 12  1  0
 12 13  1  0
 13 14  2  0
 15 18  1  0
 15 10  1  0
 16 15  2  0
 17 13  1  0
 18 19  1  0
 19 20  1  0
 21 20  1  0
 22 21  1  0
 22 18  1  0
 22 23  1  1
 24 23  2  0
 25 23  1  0
M  END
$$$$
