MEP.pdb
     RDKit          3D

 25 25  0  0  1  0  0  0  0  0999 V2000
    7.8147  -11.5568   19.0154 C   0  0  0  0  0  0  0  0  0  0  0  0
    7.7327  -13.0646   18.0228 S   0  0  0  0  0  0  0  0  0  0  0  0
    8.3101  -14.4512   19.0359 C   0  0  0  0  0  0  0  0  0  0  0  0
    7.8368  -14.2874   20.4810 C   0  0  0  0  0  0  0  0  0  0  0  0
    8.3258  -15.4493   21.2668 C   0  0  2  0  0  0  0  0  0  0  0  0
    7.9223  -16.6900   20.6747 N   0  0  0  0  0  0  0  0  0  0  0  0
    7.9830  -15.3934   22.7043 C   0  0  0  0  0  0  0  0  0  0  0  0
    7.6189  -14.3121   23.2211 O   0  0  0  0  0  0  0  0  0  0  0  0
    8.0416  -16.5236   23.5663 N   0  0  0  0  0  0  0  0  0  0  0  0
    7.7699  -16.4678   25.0022 C   0  0  1  0  0  0  0  0  0  0  0  0
    7.1115  -17.7092   25.4681 C   0  0  0  0  0  0  0  0  0  0  0  0
    6.0308  -18.2014   24.5769 C   0  0  0  0  0  0  0  0  0  0  0  0
    6.4805  -19.3052   23.7112 C   0  0  0  0  0  0  0  0  0  0  0  0
    6.8430  -20.4428   24.0709 O   0  0  0  0  0  0  0  0  0  0  0  0
    8.8896  -16.0230   25.8169 C   0  0  0  0  0  0  0  0  0  0  0  0
   10.0072  -16.6528   25.6658 O   0  0  0  0  0  0  0  0  0  0  0  0
    6.5125  -19.0749   22.3291 O   0  0  0  0  0  0  0  0  0  0  0  0
    8.9357  -14.9768   26.7745 N   0  0  0  0  0  0  0  0  0  0  0  0
    7.9021  -14.0294   27.0258 C   0  0  0  0  0  0  0  0  0  0  0  0
    8.4028  -13.1867   28.1989 C   0  0  0  0  0  0  0  0  0  0  0  0
    9.9291  -13.2942   28.0493 C   0  0  0  0  0  0  0  0  0  0  0  0
   10.0452  -14.7305   27.6530 C   0  0  1  0  0  0  0  0  0  0  0  0
   10.0484  -15.6335   28.8271 C   0  0  0  0  0  0  0  0  0  0  0  0
    9.0751  -16.3846   29.0190 O   0  0  0  0  0  0  0  0  0  0  0  0
   11.1130  -15.6311   29.6802 O   0  0  0  0  0  0  0  0  0  0  0  0
  2  3  1  0
  2  1  1  0
  4  3  1  0
  5  7  1  0
  5  4  1  0
  5  6  1  6
  7  8  2  0
  9 10  1  0
  9  7  1  0
 10 11  1  1
 11 12  1  0
 12 13  1  0
 13 14  2  0
 15 18  1  0
 15 10  1  0
 16 15  2  0
 17 13  1  0
 18 19  1  0
 19 20  1  0
 21 20  1  0
 22 21  1  0
 22 18  1  0
 22 23  1  1
 24 23  2  0
 25 23  1  0
M  END
$$$$
