MEP.pdb
     RDKit          3D

 25 25  0  0  1  0  0  0  0  0999 V2000
    8.2452  -11.3214   26.7930 C   0  0  0  0  0  0  0  0  0  0  0  0
    7.4339  -11.9233   25.2947 S   0  0  0  0  0  0  0  0  0  0  0  0
    6.5955  -13.4819   25.6821 C   0  0  0  0  0  0  0  0  0  0  0  0
    5.9148  -14.0444   24.4334 C   0  0  0  0  0  0  0  0  0  0  0  0
    6.9676  -14.3939   23.4453 C   0  0  2  0  0  0  0  0  0  0  0  0
    6.4198  -14.5587   22.1317 N   0  0  0  0  0  0  0  0  0  0  0  0
    7.8037  -15.5491   23.8370 C   0  0  0  0  0  0  0  0  0  0  0  0
    7.2663  -16.5963   24.2652 O   0  0  0  0  0  0  0  0  0  0  0  0
    9.2241  -15.5488   23.7568 N   0  0  0  0  0  0  0  0  0  0  0  0
   10.0600  -16.6959   24.1092 C   0  0  1  0  0  0  0  0  0  0  0  0
   11.3602  -16.6439   23.4031 C   0  0  0  0  0  0  0  0  0  0  0  0
   12.2889  -17.7502   23.7466 C   0  0  0  0  0  0  0  0  0  0  0  0
   13.5538  -17.6705   22.9959 C   0  0  0  0  0  0  0  0  0  0  0  0
   14.4805  -18.5050   22.9937 O   0  0  0  0  0  0  0  0  0  0  0  0
   10.1454  -16.9720   25.5346 C   0  0  0  0  0  0  0  0  0  0  0  0
   10.5514  -16.0078   26.2921 O   0  0  0  0  0  0  0  0  0  0  0  0
   13.7605  -16.5430   22.1895 O   0  0  0  0  0  0  0  0  0  0  0  0
    9.8423  -18.1710   26.2304 N   0  0  0  0  0  0  0  0  0  0  0  0
    9.2708  -19.3448   25.6606 C   0  0  0  0  0  0  0  0  0  0  0  0
    9.2333  -20.3680   26.7958 C   0  0  0  0  0  0  0  0  0  0  0  0
    9.1521  -19.4703   28.0412 C   0  0  0  0  0  0  0  0  0  0  0  0
   10.0882  -18.3802   27.6302 C   0  0  1  0  0  0  0  0  0  0  0  0
   11.5012  -18.7242   27.9111 C   0  0  0  0  0  0  0  0  0  0  0  0
   11.8792  -18.8241   29.0925 O   0  0  0  0  0  0  0  0  0  0  0  0
   12.3674  -18.9265   26.8768 O   0  0  0  0  0  0  0  0  0  0  0  0
  2  3  1  0
  2  1  1  0
  4  3  1  0
  5  7  1  0
  5  4  1  0
  5  6  1  6
  7  8  2  0
  9 10  1  0
  9  7  1  0
 10 11  1  1
 11 12  1  0
 12 13  1  0
 13 14  2  0
 15 18  1  0
 15 10  1  0
 16 15  2  0
 17 13  1  0
 18 19  1  0
 19 20  1  0
 21 20  1  0
 22 21  1  0
 22 18  1  0
 22 23  1  6
 24 23  2  0
 25 23  1  0
M  END
$$$$
