EYM.pdb
     RDKit          3D

 30 30  0  0  1  0  0  0  0  0999 V2000
   18.8411  -13.4350  -18.0375 N   0  0  0  0  0  0  0  0  0  0  0  0
   18.1927  -12.1091  -18.0223 C   0  0  1  0  0  0  0  0  0  0  0  0
   16.8792  -12.1884  -17.3161 C   0  0  0  0  0  0  0  0  0  0  0  0
   15.8347  -12.9194  -18.1028 C   0  0  0  0  0  0  0  0  0  0  0  0
   15.3649  -12.0329  -19.2279 C   0  0  0  0  0  0  0  0  0  0  0  0
   15.8093  -12.1744  -20.3959 O   0  0  0  0  0  0  0  0  0  0  0  0
   19.1025  -11.2001  -17.3119 C   0  0  0  0  0  0  0  0  0  0  0  0
   19.7162  -11.5983  -16.3006 O   0  0  0  0  0  0  0  0  0  0  0  0
   14.4311  -11.0426  -18.9928 O   0  0  0  0  0  0  0  0  0  0  0  0
   24.3472   -4.0795  -16.3955 O   0  0  0  0  0  0  0  0  0  0  0  0
   23.4760   -5.0922  -16.8269 C   0  0  0  0  0  0  0  0  0  0  0  0
   23.9501   -6.3775  -16.8729 C   0  0  0  0  0  0  0  0  0  0  0  0
   23.1257   -7.4076  -17.2923 C   0  0  0  0  0  0  0  0  0  0  0  0
   21.8086   -7.1140  -17.6655 C   0  0  0  0  0  0  0  0  0  0  0  0
   20.9709   -8.2261  -18.1397 C   0  0  0  0  0  0  0  0  0  0  0  0
   20.2671   -8.9708  -17.0792 C   0  0  2  0  0  0  0  0  0  0  0  0
   19.3048   -9.8785  -17.7426 N   0  0  0  0  0  0  0  0  0  0  0  0
   19.5450   -8.2456  -16.0498 C   0  0  0  0  0  0  0  0  0  0  0  0
   18.3929   -7.7729  -16.3881 O   0  0  0  0  0  0  0  0  0  0  0  0
   21.3762   -5.8048  -17.6025 C   0  0  0  0  0  0  0  0  0  0  0  0
   22.1889   -4.7851  -17.1886 C   0  0  0  0  0  0  0  0  0  0  0  0
   16.5888   -7.0163   -9.1042 C   0  0  0  0  0  0  0  0  0  0  0  0
   17.6453   -8.0353  -10.1700 S   0  0  0  0  0  0  0  0  0  0  0  0
   17.9201   -7.1165  -11.7092 C   0  0  0  0  0  0  0  0  0  0  0  0
   18.7457   -7.9673  -12.6119 C   0  0  0  0  0  0  0  0  0  0  0  0
   19.1141   -7.2089  -13.8517 C   0  0  2  0  0  0  0  0  0  0  0  0
   19.9673   -8.0071  -14.7145 N   0  0  0  0  0  0  0  0  0  0  0  0
   19.7788   -5.9450  -13.5004 C   0  0  0  0  0  0  0  0  0  0  0  0
   21.0286   -5.8090  -13.4511 O   0  0  0  0  0  0  0  0  0  0  0  0
   18.9628   -4.8385  -13.2075 O   0  0  0  0  0  0  0  0  0  0  0  0
  2  7  1  0
  2  3  1  0
  2  1  1  1
  3  4  1  0
  4  5  1  0
  5  6  2  0
  7  8  2  0
  9  5  1  0
 10 11  1  0
 11 21  2  0
 12 13  2  0
 12 11  1  0
 13 14  1  0
 14 15  1  0
 14 20  2  0
 16 15  1  6
 16 18  1  0
 17 16  1  0
 17  7  1  0
 18 19  2  0
 18 27  1  0
 21 20  1  0
 22 23  1  0
 23 24  1  0
 24 25  1  0
 26 25  1  1
 26 28  1  0
 27 26  1  0
 28 29  2  0
 28 30  1  0
M  END
$$$$
