EYM.pdb
     RDKit          3D

 30 30  0  0  1  0  0  0  0  0999 V2000
   26.3455  -24.0232  -15.1959 N   0  0  0  0  0  0  0  0  0  0  0  0
   26.2545  -22.5524  -15.1106 C   0  0  1  0  0  0  0  0  0  0  0  0
   25.7123  -21.9971  -16.3865 C   0  0  0  0  0  0  0  0  0  0  0  0
   26.6646  -22.1317  -17.5351 C   0  0  0  0  0  0  0  0  0  0  0  0
   27.7343  -21.0774  -17.4055 C   0  0  0  0  0  0  0  0  0  0  0  0
   27.4482  -19.8987  -17.0731 O   0  0  0  0  0  0  0  0  0  0  0  0
   25.3501  -22.2474  -13.9936 C   0  0  0  0  0  0  0  0  0  0  0  0
   24.5122  -23.0944  -13.6218 O   0  0  0  0  0  0  0  0  0  0  0  0
   29.0567  -21.3911  -17.6515 O   0  0  0  0  0  0  0  0  0  0  0  0
   27.7192  -20.5992   -6.6799 O   0  0  0  0  0  0  0  0  0  0  0  0
   27.0508  -20.3655   -7.8921 C   0  0  0  0  0  0  0  0  0  0  0  0
   26.9841  -19.0775   -8.3563 C   0  0  0  0  0  0  0  0  0  0  0  0
   26.3347  -18.8009   -9.5474 C   0  0  0  0  0  0  0  0  0  0  0  0
   25.7520  -19.8536  -10.2632 C   0  0  0  0  0  0  0  0  0  0  0  0
   25.0396  -19.5201  -11.5060 C   0  0  0  0  0  0  0  0  0  0  0  0
   24.4688  -20.6742  -12.2247 C   0  0  2  0  0  0  0  0  0  0  0  0
   25.4009  -21.0143  -13.3228 N   0  0  0  0  0  0  0  0  0  0  0  0
   23.1377  -20.5786  -12.7957 C   0  0  0  0  0  0  0  0  0  0  0  0
   23.0762  -20.2836  -14.0506 O   0  0  0  0  0  0  0  0  0  0  0  0
   25.8450  -21.1338   -9.7560 C   0  0  0  0  0  0  0  0  0  0  0  0
   26.4860  -21.4097   -8.5793 C   0  0  0  0  0  0  0  0  0  0  0  0
   21.2643  -25.1477  -14.3626 C   0  0  0  0  0  0  0  0  0  0  0  0
   19.8825  -24.3229  -15.1998 S   0  0  0  0  0  0  0  0  0  0  0  0
   19.6465  -22.7086  -14.4078 C   0  0  0  0  0  0  0  0  0  0  0  0
   20.8649  -22.4077  -13.6044 C   0  0  0  0  0  0  0  0  0  0  0  0
   20.7244  -21.0812  -12.9197 C   0  0  2  0  0  0  0  0  0  0  0  0
   21.9019  -20.7799  -12.1245 N   0  0  0  0  0  0  0  0  0  0  0  0
   19.5189  -21.0647  -12.0775 C   0  0  0  0  0  0  0  0  0  0  0  0
   19.5145  -21.4040  -10.8660 O   0  0  0  0  0  0  0  0  0  0  0  0
   18.3153  -20.6446  -12.6698 O   0  0  0  0  0  0  0  0  0  0  0  0
  2  7  1  0
  2  3  1  0
  2  1  1  6
  3  4  1  0
  4  5  1  0
  5  6  2  0
  7  8  2  0
  9  5  1  0
 10 11  1  0
 11 21  2  0
 12 13  2  0
 12 11  1  0
 13 14  1  0
 14 15  1  0
 14 20  2  0
 16 15  1  6
 16 18  1  0
 17 16  1  0
 17  7  1  0
 18 19  2  0
 18 27  1  0
 21 20  1  0
 22 23  1  0
 23 24  1  0
 24 25  1  0
 26 25  1  1
 26 28  1  0
 27 26  1  0
 28 29  2  0
 28 30  1  0
M  END
$$$$
