EYM.pdb
     RDKit          3D

 30 30  0  0  1  0  0  0  0  0999 V2000
   21.0034   -8.9843  -17.4057 N   0  0  0  0  0  0  0  0  0  0  0  0
   19.6142   -8.6656  -17.0218 C   0  0  1  0  0  0  0  0  0  0  0  0
   19.0207   -9.8010  -16.2544 C   0  0  0  0  0  0  0  0  0  0  0  0
   19.5231  -11.1384  -16.7051 C   0  0  0  0  0  0  0  0  0  0  0  0
   18.9703  -12.1994  -15.7879 C   0  0  0  0  0  0  0  0  0  0  0  0
   19.7225  -12.8474  -15.0160 O   0  0  0  0  0  0  0  0  0  0  0  0
   19.6712   -7.4574  -16.1877 C   0  0  0  0  0  0  0  0  0  0  0  0
   18.6274   -7.0061  -15.6734 O   0  0  0  0  0  0  0  0  0  0  0  0
   17.6178  -12.4795  -15.7801 O   0  0  0  0  0  0  0  0  0  0  0  0
   18.8115   -7.1038   -9.2758 O   0  0  0  0  0  0  0  0  0  0  0  0
   19.5780   -6.8559  -10.4254 C   0  0  0  0  0  0  0  0  0  0  0  0
   19.5126   -5.6087  -10.9902 C   0  0  0  0  0  0  0  0  0  0  0  0
   20.2517   -5.3201  -12.1248 C   0  0  0  0  0  0  0  0  0  0  0  0
   21.0610   -6.3185  -12.6800 C   0  0  0  0  0  0  0  0  0  0  0  0
   21.8051   -5.9893  -13.9052 C   0  0  0  0  0  0  0  0  0  0  0  0
   20.9680   -5.6077  -15.0577 C   0  0  2  0  0  0  0  0  0  0  0  0
   20.8816   -6.7860  -15.9489 N   0  0  0  0  0  0  0  0  0  0  0  0
   21.3460   -4.4690  -15.8748 C   0  0  0  0  0  0  0  0  0  0  0  0
   21.7316   -4.7342  -17.0775 O   0  0  0  0  0  0  0  0  0  0  0  0
   21.0944   -7.5591  -12.0760 C   0  0  0  0  0  0  0  0  0  0  0  0
   20.3650   -7.8468  -10.9550 C   0  0  0  0  0  0  0  0  0  0  0  0
   24.9369   -0.5488  -20.4301 C   0  0  0  0  0  0  0  0  0  0  0  0
   24.5709   -1.8731  -19.2457 S   0  0  0  0  0  0  0  0  0  0  0  0
   23.0772   -1.3963  -18.3344 C   0  0  0  0  0  0  0  0  0  0  0  0
   22.7856   -2.4647  -17.3375 C   0  0  0  0  0  0  0  0  0  0  0  0
   21.5882   -2.0972  -16.5134 C   0  0  2  0  0  0  0  0  0  0  0  0
   21.3310   -3.1002  -15.4949 N   0  0  0  0  0  0  0  0  0  0  0  0
   20.4078   -1.9253  -17.3735 C   0  0  0  0  0  0  0  0  0  0  0  0
   20.3115   -1.0252  -18.2472 O   0  0  0  0  0  0  0  0  0  0  0  0
   19.3386   -2.8213  -17.2003 O   0  0  0  0  0  0  0  0  0  0  0  0
  2  7  1  0
  2  3  1  0
  2  1  1  1
  3  4  1  0
  4  5  1  0
  5  6  2  0
  7  8  2  0
  9  5  1  0
 10 11  1  0
 11 21  2  0
 12 13  2  0
 12 11  1  0
 13 14  1  0
 14 15  1  0
 14 20  2  0
 16 15  1  1
 16 18  1  0
 17 16  1  0
 17  7  1  0
 18 19  2  0
 18 27  1  0
 21 20  1  0
 22 23  1  0
 23 24  1  0
 24 25  1  0
 26 25  1  6
 26 28  1  0
 27 26  1  0
 28 29  2  0
 28 30  1  0
M  END
$$$$
