EYM.pdb
     RDKit          3D

 30 30  0  0  1  0  0  0  0  0999 V2000
   26.2174  -22.1951  -15.9441 N   0  0  0  0  0  0  0  0  0  0  0  0
   25.9381  -20.9289  -15.2387 C   0  0  1  0  0  0  0  0  0  0  0  0
   24.8834  -20.1594  -15.9638 C   0  0  0  0  0  0  0  0  0  0  0  0
   24.5066  -20.7761  -17.2760 C   0  0  0  0  0  0  0  0  0  0  0  0
   25.1693  -20.0002  -18.3856 C   0  0  0  0  0  0  0  0  0  0  0  0
   25.7272  -18.8954  -18.1628 O   0  0  0  0  0  0  0  0  0  0  0  0
   25.4758  -21.2873  -13.8909 C   0  0  0  0  0  0  0  0  0  0  0  0
   24.9184  -22.3868  -13.6957 O   0  0  0  0  0  0  0  0  0  0  0  0
   25.1746  -20.4938  -19.6757 O   0  0  0  0  0  0  0  0  0  0  0  0
   31.4779  -22.0365  -10.5917 O   0  0  0  0  0  0  0  0  0  0  0  0
   30.1508  -21.5814  -10.5432 C   0  0  0  0  0  0  0  0  0  0  0  0
   29.6921  -20.8121  -11.5808 C   0  0  0  0  0  0  0  0  0  0  0  0
   28.3901  -20.3416  -11.5744 C   0  0  0  0  0  0  0  0  0  0  0  0
   27.5571  -20.6642  -10.4963 C   0  0  0  0  0  0  0  0  0  0  0  0
   26.1911  -20.1187  -10.5040 C   0  0  0  0  0  0  0  0  0  0  0  0
   25.2568  -20.7941  -11.4233 C   0  0  2  0  0  0  0  0  0  0  0  0
   25.6445  -20.4175  -12.8009 N   0  0  0  0  0  0  0  0  0  0  0  0
   23.8293  -20.5652  -11.2934 C   0  0  0  0  0  0  0  0  0  0  0  0
   23.3435  -19.5907  -11.9862 O   0  0  0  0  0  0  0  0  0  0  0  0
   28.0635  -21.4416   -9.4746 C   0  0  0  0  0  0  0  0  0  0  0  0
   29.3497  -21.9076   -9.4785 C   0  0  0  0  0  0  0  0  0  0  0  0
   17.1411  -21.8941  -13.6859 C   0  0  0  0  0  0  0  0  0  0  0  0
   18.9086  -22.2624  -13.5100 S   0  0  0  0  0  0  0  0  0  0  0  0
   19.4866  -21.4621  -11.9888 C   0  0  0  0  0  0  0  0  0  0  0  0
   20.9616  -21.6542  -11.8995 C   0  0  0  0  0  0  0  0  0  0  0  0
   21.4943  -21.0319  -10.6438 C   0  0  2  0  0  0  0  0  0  0  0  0
   22.9138  -21.2997  -10.4931 N   0  0  0  0  0  0  0  0  0  0  0  0
   20.7523  -21.5245   -9.4735 C   0  0  0  0  0  0  0  0  0  0  0  0
   19.5152  -21.3579   -9.3162 O   0  0  0  0  0  0  0  0  0  0  0  0
   21.4756  -22.2171   -8.4870 O   0  0  0  0  0  0  0  0  0  0  0  0
  2  7  1  0
  2  3  1  0
  2  1  1  6
  3  4  1  0
  4  5  1  0
  5  6  2  0
  7  8  2  0
  9  5  1  0
 10 11  1  0
 11 21  2  0
 12 13  2  0
 12 11  1  0
 13 14  1  0
 14 15  1  0
 14 20  2  0
 16 15  1  1
 16 18  1  0
 17 16  1  0
 17  7  1  0
 18 19  2  0
 18 27  1  0
 21 20  1  0
 22 23  1  0
 23 24  1  0
 24 25  1  0
 26 25  1  6
 26 28  1  0
 27 26  1  0
 28 29  2  0
 28 30  1  0
M  END
$$$$
