EYM.pdb
     RDKit          3D

 30 30  0  0  1  0  0  0  0  0999 V2000
   25.2822  -16.7336  -17.9666 N   0  0  0  0  0  0  0  0  0  0  0  0
   26.1672  -15.8205  -17.2172 C   0  0  1  0  0  0  0  0  0  0  0  0
   25.5269  -14.4775  -17.0870 C   0  0  0  0  0  0  0  0  0  0  0  0
   24.3187  -14.3180  -17.9583 C   0  0  0  0  0  0  0  0  0  0  0  0
   24.7629  -14.2513  -19.3973 C   0  0  0  0  0  0  0  0  0  0  0  0
   25.6894  -13.4805  -19.7565 O   0  0  0  0  0  0  0  0  0  0  0  0
   26.3723  -16.4211  -15.8921 C   0  0  0  0  0  0  0  0  0  0  0  0
   27.0430  -15.8156  -15.0310 O   0  0  0  0  0  0  0  0  0  0  0  0
   24.1548  -15.0421  -20.3527 O   0  0  0  0  0  0  0  0  0  0  0  0
   24.6555  -21.2370   -8.7294 O   0  0  0  0  0  0  0  0  0  0  0  0
   24.6715  -20.6854  -10.0202 C   0  0  0  0  0  0  0  0  0  0  0  0
   25.0141  -19.3651  -10.1554 C   0  0  0  0  0  0  0  0  0  0  0  0
   25.0429  -18.7795  -11.4096 C   0  0  0  0  0  0  0  0  0  0  0  0
   24.7181  -19.5556  -12.5287 C   0  0  0  0  0  0  0  0  0  0  0  0
   24.7241  -18.8933  -13.8420 C   0  0  0  0  0  0  0  0  0  0  0  0
   26.0113  -18.2847  -14.2257 C   0  0  2  0  0  0  0  0  0  0  0  0
   25.8289  -17.6733  -15.5610 N   0  0  0  0  0  0  0  0  0  0  0  0
   27.2066  -19.1065  -14.2813 C   0  0  0  0  0  0  0  0  0  0  0  0
   27.5172  -19.5822  -15.4401 O   0  0  0  0  0  0  0  0  0  0  0  0
   24.3794  -20.8807  -12.3429 C   0  0  0  0  0  0  0  0  0  0  0  0
   24.3501  -21.4615  -11.1046 C   0  0  0  0  0  0  0  0  0  0  0  0
   32.9797  -23.3721  -11.1299 C   0  0  0  0  0  0  0  0  0  0  0  0
   31.6605  -22.1689  -10.8096 S   0  0  0  0  0  0  0  0  0  0  0  0
   30.8641  -21.7935  -12.3950 C   0  0  0  0  0  0  0  0  0  0  0  0
   29.8163  -20.7625  -12.1510 C   0  0  0  0  0  0  0  0  0  0  0  0
   29.1266  -20.4052  -13.4334 C   0  0  2  0  0  0  0  0  0  0  0  0
   28.0696  -19.4362  -13.2021 N   0  0  0  0  0  0  0  0  0  0  0  0
   28.5848  -21.6114  -14.0769 C   0  0  0  0  0  0  0  0  0  0  0  0
   27.4312  -22.0596  -13.8504 O   0  0  0  0  0  0  0  0  0  0  0  0
   29.4094  -22.2888  -14.9918 O   0  0  0  0  0  0  0  0  0  0  0  0
  2  7  1  0
  2  3  1  0
  2  1  1  6
  3  4  1  0
  4  5  1  0
  5  6  2  0
  7  8  2  0
  9  5  1  0
 10 11  1  0
 11 21  2  0
 12 13  2  0
 12 11  1  0
 13 14  1  0
 14 15  1  0
 14 20  2  0
 16 15  1  6
 16 18  1  0
 17 16  1  0
 17  7  1  0
 18 19  2  0
 18 27  1  0
 21 20  1  0
 22 23  1  0
 23 24  1  0
 24 25  1  0
 26 25  1  1
 26 28  1  0
 27 26  1  0
 28 29  2  0
 28 30  1  0
M  END
$$$$
