EYM.pdb
     RDKit          3D

 30 30  0  0  1  0  0  0  0  0999 V2000
   34.0787  -33.7768  -15.8078 N   0  0  0  0  0  0  0  0  0  0  0  0
   33.9134  -33.1366  -17.1275 C   0  0  1  0  0  0  0  0  0  0  0  0
   34.0463  -34.1548  -18.2119 C   0  0  0  0  0  0  0  0  0  0  0  0
   35.4424  -34.6789  -18.3551 C   0  0  0  0  0  0  0  0  0  0  0  0
   36.1723  -33.8444  -19.3765 C   0  0  0  0  0  0  0  0  0  0  0  0
   35.5931  -32.9085  -19.9849 O   0  0  0  0  0  0  0  0  0  0  0  0
   32.5702  -32.5415  -17.1450 C   0  0  0  0  0  0  0  0  0  0  0  0
   31.6408  -33.0834  -16.5123 O   0  0  0  0  0  0  0  0  0  0  0  0
   37.4998  -34.0960  -19.6633 O   0  0  0  0  0  0  0  0  0  0  0  0
   26.3910  -26.2569  -17.7676 O   0  0  0  0  0  0  0  0  0  0  0  0
   27.5689  -27.0208  -17.7617 C   0  0  0  0  0  0  0  0  0  0  0  0
   27.9051  -27.6825  -16.6093 C   0  0  0  0  0  0  0  0  0  0  0  0
   29.0580  -28.4474  -16.5584 C   0  0  0  0  0  0  0  0  0  0  0  0
   29.8676  -28.5316  -17.6975 C   0  0  0  0  0  0  0  0  0  0  0  0
   31.1030  -29.3236  -17.5981 C   0  0  0  0  0  0  0  0  0  0  0  0
   30.9479  -30.7587  -17.8997 C   0  0  2  0  0  0  0  0  0  0  0  0
   32.2972  -31.3652  -17.8625 N   0  0  0  0  0  0  0  0  0  0  0  0
   30.3193  -31.1680  -19.1425 C   0  0  0  0  0  0  0  0  0  0  0  0
   31.0462  -31.0777  -20.2050 O   0  0  0  0  0  0  0  0  0  0  0  0
   29.4880  -27.8477  -18.8347 C   0  0  0  0  0  0  0  0  0  0  0  0
   28.3494  -27.0912  -18.8875 C   0  0  0  0  0  0  0  0  0  0  0  0
   27.4030  -35.9137  -24.1276 C   0  0  0  0  0  0  0  0  0  0  0  0
   27.9038  -35.5590  -22.4206 S   0  0  0  0  0  0  0  0  0  0  0  0
   27.8862  -33.7582  -22.2070 C   0  0  0  0  0  0  0  0  0  0  0  0
   28.3755  -33.4529  -20.8330 C   0  0  0  0  0  0  0  0  0  0  0  0
   28.5431  -31.9736  -20.6551 C   0  0  2  0  0  0  0  0  0  0  0  0
   28.9975  -31.6603  -19.3116 N   0  0  0  0  0  0  0  0  0  0  0  0
   27.2810  -31.2766  -20.9452 C   0  0  0  0  0  0  0  0  0  0  0  0
   26.6368  -30.6219  -20.0855 O   0  0  0  0  0  0  0  0  0  0  0  0
   26.7801  -31.3534  -22.2564 O   0  0  0  0  0  0  0  0  0  0  0  0
  2  7  1  0
  2  3  1  0
  2  1  1  1
  3  4  1  0
  4  5  1  0
  5  6  2  0
  7  8  2  0
  9  5  1  0
 10 11  1  0
 11 21  2  0
 12 13  2  0
 12 11  1  0
 13 14  1  0
 14 15  1  0
 14 20  2  0
 16 15  1  6
 16 18  1  0
 17 16  1  0
 17  7  1  0
 18 19  2  0
 18 27  1  0
 21 20  1  0
 22 23  1  0
 23 24  1  0
 24 25  1  0
 26 25  1  1
 26 28  1  0
 27 26  1  0
 28 29  2  0
 28 30  1  0
M  END
$$$$
