EYM.pdb
     RDKit          3D

 30 30  0  0  1  0  0  0  0  0999 V2000
   33.3197  -34.3020  -18.5984 N   0  0  0  0  0  0  0  0  0  0  0  0
   33.4062  -32.9301  -19.1363 C   0  0  1  0  0  0  0  0  0  0  0  0
   33.9606  -32.9566  -20.5227 C   0  0  0  0  0  0  0  0  0  0  0  0
   35.4473  -33.1380  -20.5554 C   0  0  0  0  0  0  0  0  0  0  0  0
   36.0895  -31.8224  -20.9148 C   0  0  0  0  0  0  0  0  0  0  0  0
   36.5540  -31.0620  -20.0273 O   0  0  0  0  0  0  0  0  0  0  0  0
   32.0401  -32.3894  -19.1408 C   0  0  0  0  0  0  0  0  0  0  0  0
   31.0695  -33.1511  -19.3293 O   0  0  0  0  0  0  0  0  0  0  0  0
   36.1792  -31.4273  -22.2352 O   0  0  0  0  0  0  0  0  0  0  0  0
   26.8647  -33.0650  -14.1946 O   0  0  0  0  0  0  0  0  0  0  0  0
   27.6741  -32.2799  -15.0307 C   0  0  0  0  0  0  0  0  0  0  0  0
   29.0083  -32.5836  -15.1108 C   0  0  0  0  0  0  0  0  0  0  0  0
   29.8438  -31.8358  -15.9229 C   0  0  0  0  0  0  0  0  0  0  0  0
   29.3041  -30.7717  -16.6554 C   0  0  0  0  0  0  0  0  0  0  0  0
   30.2258  -29.9759  -17.4804 C   0  0  0  0  0  0  0  0  0  0  0  0
   30.4182  -30.4742  -18.8549 C   0  0  2  0  0  0  0  0  0  0  0  0
   31.7904  -31.0222  -18.9368 N   0  0  0  0  0  0  0  0  0  0  0  0
   30.2406  -29.5718  -19.9779 C   0  0  0  0  0  0  0  0  0  0  0  0
   31.1047  -28.6192  -20.0851 O   0  0  0  0  0  0  0  0  0  0  0  0
   27.9549  -30.5039  -16.5424 C   0  0  0  0  0  0  0  0  0  0  0  0
   27.1273  -31.2412  -15.7406 C   0  0  0  0  0  0  0  0  0  0  0  0
   28.1487  -27.6919  -27.2097 C   0  0  0  0  0  0  0  0  0  0  0  0
   27.9146  -28.8657  -25.8466 S   0  0  0  0  0  0  0  0  0  0  0  0
   28.7033  -28.1599  -24.3739 C   0  0  0  0  0  0  0  0  0  0  0  0
   28.6647  -29.1866  -23.2945 C   0  0  0  0  0  0  0  0  0  0  0  0
   29.2303  -28.6289  -22.0229 C   0  0  2  0  0  0  0  0  0  0  0  0
   29.2251  -29.6289  -20.9696 N   0  0  0  0  0  0  0  0  0  0  0  0
   28.4738  -27.4392  -21.6044 C   0  0  0  0  0  0  0  0  0  0  0  0
   27.6385  -27.4440  -20.6636 O   0  0  0  0  0  0  0  0  0  0  0  0
   28.7069  -26.2401  -22.3000 O   0  0  0  0  0  0  0  0  0  0  0  0
  2  7  1  0
  2  3  1  0
  2  1  1  6
  3  4  1  0
  4  5  1  0
  5  6  2  0
  7  8  2  0
  9  5  1  0
 10 11  1  0
 11 21  2  0
 12 13  2  0
 12 11  1  0
 13 14  1  0
 14 15  1  0
 14 20  2  0
 16 15  1  1
 16 18  1  0
 17 16  1  0
 17  7  1  0
 18 19  2  0
 18 27  1  0
 21 20  1  0
 22 23  1  0
 23 24  1  0
 24 25  1  0
 26 25  1  6
 26 28  1  0
 27 26  1  0
 28 29  2  0
 28 30  1  0
M  END
$$$$
