EYM.pdb
     RDKit          3D

 30 30  0  0  1  0  0  0  0  0999 V2000
   28.6326  -23.2323  -17.3339 N   0  0  0  0  0  0  0  0  0  0  0  0
   27.8735  -21.9797  -17.1507 C   0  0  1  0  0  0  0  0  0  0  0  0
   26.8978  -21.8031  -18.2675 C   0  0  0  0  0  0  0  0  0  0  0  0
   27.5443  -21.3654  -19.5461 C   0  0  0  0  0  0  0  0  0  0  0  0
   27.9364  -19.9153  -19.4205 C   0  0  0  0  0  0  0  0  0  0  0  0
   27.1786  -19.0832  -18.8592 O   0  0  0  0  0  0  0  0  0  0  0  0
   27.1679  -22.0952  -15.8672 C   0  0  0  0  0  0  0  0  0  0  0  0
   26.7545  -23.2080  -15.4818 O   0  0  0  0  0  0  0  0  0  0  0  0
   29.1442  -19.4729  -19.9240 O   0  0  0  0  0  0  0  0  0  0  0  0
   26.4673  -21.1094   -7.3360 O   0  0  0  0  0  0  0  0  0  0  0  0
   26.5275  -20.8436   -8.7131 C   0  0  0  0  0  0  0  0  0  0  0  0
   27.6551  -21.2193   -9.3959 C   0  0  0  0  0  0  0  0  0  0  0  0
   27.7575  -20.9767  -10.7551 C   0  0  0  0  0  0  0  0  0  0  0  0
   26.6956  -20.3453  -11.4139 C   0  0  0  0  0  0  0  0  0  0  0  0
   26.8520  -20.0709  -12.8504 C   0  0  0  0  0  0  0  0  0  0  0  0
   26.2510  -21.0773  -13.7450 C   0  0  2  0  0  0  0  0  0  0  0  0
   26.9415  -20.9754  -15.0499 N   0  0  0  0  0  0  0  0  0  0  0  0
   24.8229  -21.0481  -14.0032 C   0  0  0  0  0  0  0  0  0  0  0  0
   24.4075  -20.1235  -14.8021 O   0  0  0  0  0  0  0  0  0  0  0  0
   25.5807  -19.9855  -10.6843 C   0  0  0  0  0  0  0  0  0  0  0  0
   25.4772  -20.2239   -9.3412 C   0  0  0  0  0  0  0  0  0  0  0  0
   17.5762  -23.9087  -14.2421 C   0  0  0  0  0  0  0  0  0  0  0  0
   19.2411  -24.1488  -13.5631 S   0  0  0  0  0  0  0  0  0  0  0  0
   20.1826  -22.6295  -13.8699 C   0  0  0  0  0  0  0  0  0  0  0  0
   21.6086  -22.8949  -13.5283 C   0  0  0  0  0  0  0  0  0  0  0  0
   22.4459  -21.6819  -13.8032 C   0  0  2  0  0  0  0  0  0  0  0  0
   23.8397  -21.9282  -13.4771 N   0  0  0  0  0  0  0  0  0  0  0  0
   21.9385  -20.5273  -13.0468 C   0  0  0  0  0  0  0  0  0  0  0  0
   22.3638  -20.2031  -11.9079 O   0  0  0  0  0  0  0  0  0  0  0  0
   20.9259  -19.7532  -13.6396 O   0  0  0  0  0  0  0  0  0  0  0  0
  2  7  1  0
  2  3  1  0
  2  1  1  6
  3  4  1  0
  4  5  1  0
  5  6  2  0
  7  8  2  0
  9  5  1  0
 10 11  1  0
 11 21  2  0
 12 13  2  0
 12 11  1  0
 13 14  1  0
 14 15  1  0
 14 20  2  0
 16 15  1  1
 16 18  1  0
 17 16  1  0
 17  7  1  0
 18 19  2  0
 18 27  1  0
 21 20  1  0
 22 23  1  0
 23 24  1  0
 24 25  1  0
 26 25  1  1
 26 28  1  0
 27 26  1  0
 28 29  2  0
 28 30  1  0
M  END
$$$$
