EYM.pdb
     RDKit          3D

 30 30  0  0  1  0  0  0  0  0999 V2000
   21.9864  -10.5210  -20.3571 N   0  0  0  0  0  0  0  0  0  0  0  0
   22.8021   -9.5735  -19.5723 C   0  0  1  0  0  0  0  0  0  0  0  0
   23.2192   -8.4237  -20.4292 C   0  0  0  0  0  0  0  0  0  0  0  0
   22.7083   -8.5246  -21.8339 C   0  0  0  0  0  0  0  0  0  0  0  0
   22.0598   -7.2168  -22.2101 C   0  0  0  0  0  0  0  0  0  0  0  0
   20.8290   -7.0275  -22.0346 O   0  0  0  0  0  0  0  0  0  0  0  0
   21.9598   -9.1067  -18.4627 C   0  0  0  0  0  0  0  0  0  0  0  0
   20.7484   -8.8758  -18.6548 O   0  0  0  0  0  0  0  0  0  0  0  0
   22.8128   -6.1967  -22.7581 O   0  0  0  0  0  0  0  0  0  0  0  0
   18.6549  -14.1501  -16.1004 O   0  0  0  0  0  0  0  0  0  0  0  0
   19.4616  -13.0328  -15.8330 C   0  0  0  0  0  0  0  0  0  0  0  0
   18.8732  -11.9293  -15.2718 C   0  0  0  0  0  0  0  0  0  0  0  0
   19.6307  -10.8049  -14.9912 C   0  0  0  0  0  0  0  0  0  0  0  0
   20.9987  -10.8164  -15.2890 C   0  0  0  0  0  0  0  0  0  0  0  0
   21.7666   -9.5931  -15.0110 C   0  0  0  0  0  0  0  0  0  0  0  0
   21.6330   -8.5309  -16.0251 C   0  0  2  0  0  0  0  0  0  0  0  0
   22.4845   -8.9096  -17.1747 N   0  0  0  0  0  0  0  0  0  0  0  0
   21.9554   -7.1593  -15.6759 C   0  0  0  0  0  0  0  0  0  0  0  0
   23.2060   -6.8964  -15.4961 O   0  0  0  0  0  0  0  0  0  0  0  0
   21.5464  -11.9505  -15.8535 C   0  0  0  0  0  0  0  0  0  0  0  0
   20.8000  -13.0627  -16.1318 C   0  0  0  0  0  0  0  0  0  0  0  0
   21.1620    0.5244  -16.0270 C   0  0  0  0  0  0  0  0  0  0  0  0
   20.4820   -1.0965  -16.4752 S   0  0  0  0  0  0  0  0  0  0  0  0
   21.4164   -2.3545  -15.5625 C   0  0  0  0  0  0  0  0  0  0  0  0
   20.8941   -3.6929  -15.9580 C   0  0  0  0  0  0  0  0  0  0  0  0
   21.5770   -4.7726  -15.1734 C   0  0  2  0  0  0  0  0  0  0  0  0
   21.0456   -6.0799  -15.5175 N   0  0  0  0  0  0  0  0  0  0  0  0
   21.4354   -4.5250  -13.7307 C   0  0  0  0  0  0  0  0  0  0  0  0
   20.6917   -5.2074  -12.9796 O   0  0  0  0  0  0  0  0  0  0  0  0
   22.1764   -3.4678  -13.1746 O   0  0  0  0  0  0  0  0  0  0  0  0
  2  7  1  0
  2  3  1  0
  2  1  1  6
  3  4  1  0
  4  5  1  0
  5  6  2  0
  7  8  2  0
  9  5  1  0
 10 11  1  0
 11 21  2  0
 12 13  2  0
 12 11  1  0
 13 14  1  0
 14 15  1  0
 14 20  2  0
 16 15  1  1
 16 18  1  0
 17 16  1  0
 17  7  1  0
 18 19  2  0
 18 27  1  0
 21 20  1  0
 22 23  1  0
 23 24  1  0
 24 25  1  0
 26 25  1  6
 26 28  1  0
 27 26  1  0
 28 29  2  0
 28 30  1  0
M  END
$$$$
