EYM.pdb
     RDKit          3D

 30 30  0  0  1  0  0  0  0  0999 V2000
   20.7744  -13.4767  -16.9835 N   0  0  0  0  0  0  0  0  0  0  0  0
   19.4337  -12.8723  -17.1107 C   0  0  1  0  0  0  0  0  0  0  0  0
   18.3974  -13.8055  -16.5763 C   0  0  0  0  0  0  0  0  0  0  0  0
   18.2040  -15.0186  -17.4337 C   0  0  0  0  0  0  0  0  0  0  0  0
   16.8269  -15.5774  -17.1813 C   0  0  0  0  0  0  0  0  0  0  0  0
   16.6412  -16.4926  -16.3389 O   0  0  0  0  0  0  0  0  0  0  0  0
   19.4538  -11.6275  -16.3304 C   0  0  0  0  0  0  0  0  0  0  0  0
   18.6269  -11.4552  -15.4116 O   0  0  0  0  0  0  0  0  0  0  0  0
   15.7376  -15.0896  -17.8764 O   0  0  0  0  0  0  0  0  0  0  0  0
   22.6936   -3.8929  -13.3964 O   0  0  0  0  0  0  0  0  0  0  0  0
   22.4458   -5.1788  -13.9022 C   0  0  0  0  0  0  0  0  0  0  0  0
   21.8137   -6.0832  -13.0890 C   0  0  0  0  0  0  0  0  0  0  0  0
   21.5493   -7.3629  -13.5464 C   0  0  0  0  0  0  0  0  0  0  0  0
   21.9367   -7.7129  -14.8455 C   0  0  0  0  0  0  0  0  0  0  0  0
   21.6725   -9.0908  -15.2871 C   0  0  0  0  0  0  0  0  0  0  0  0
   20.3477   -9.3050  -15.8983 C   0  0  2  0  0  0  0  0  0  0  0  0
   20.3883  -10.6118  -16.5915 N   0  0  0  0  0  0  0  0  0  0  0  0
   19.8228   -8.3293  -16.8362 C   0  0  0  0  0  0  0  0  0  0  0  0
   20.2803   -8.3943  -18.0412 O   0  0  0  0  0  0  0  0  0  0  0  0
   22.5704   -6.7684  -15.6273 C   0  0  0  0  0  0  0  0  0  0  0  0
   22.8329   -5.5034  -15.1775 C   0  0  0  0  0  0  0  0  0  0  0  0
   14.6614   -3.7045  -20.2045 C   0  0  0  0  0  0  0  0  0  0  0  0
   14.9983   -4.9837  -18.9633 S   0  0  0  0  0  0  0  0  0  0  0  0
   16.7987   -5.1351  -18.8070 C   0  0  0  0  0  0  0  0  0  0  0  0
   17.0856   -6.1736  -17.7775 C   0  0  0  0  0  0  0  0  0  0  0  0
   18.5652   -6.3538  -17.6156 C   0  0  2  0  0  0  0  0  0  0  0  0
   18.8596   -7.3193  -16.5713 N   0  0  0  0  0  0  0  0  0  0  0  0
   19.2086   -5.0651  -17.3189 C   0  0  0  0  0  0  0  0  0  0  0  0
   19.6175   -4.2733  -18.2070 O   0  0  0  0  0  0  0  0  0  0  0  0
   19.3678   -4.7114  -15.9678 O   0  0  0  0  0  0  0  0  0  0  0  0
  2  7  1  0
  2  3  1  0
  2  1  1  1
  3  4  1  0
  4  5  1  0
  5  6  2  0
  7  8  2  0
  9  5  1  0
 10 11  1  0
 11 21  2  0
 12 13  2  0
 12 11  1  0
 13 14  1  0
 14 15  1  0
 14 20  2  0
 16 15  1  6
 16 18  1  0
 17 16  1  0
 17  7  1  0
 18 19  2  0
 18 27  1  0
 21 20  1  0
 22 23  1  0
 23 24  1  0
 24 25  1  0
 26 25  1  1
 26 28  1  0
 27 26  1  0
 28 29  2  0
 28 30  1  0
M  END
$$$$
