EYM.pdb
     RDKit          3D

 30 30  0  0  1  0  0  0  0  0999 V2000
   27.8632  -20.0180  -14.9890 N   0  0  0  0  0  0  0  0  0  0  0  0
   27.4818  -18.7083  -14.4251 C   0  0  1  0  0  0  0  0  0  0  0  0
   26.7542  -17.9009  -15.4493 C   0  0  0  0  0  0  0  0  0  0  0  0
   27.5169  -17.7562  -16.7306 C   0  0  0  0  0  0  0  0  0  0  0  0
   27.0941  -18.8531  -17.6743 C   0  0  0  0  0  0  0  0  0  0  0  0
   25.8976  -18.9666  -18.0446 O   0  0  0  0  0  0  0  0  0  0  0  0
   26.6109  -18.9799  -13.2733 C   0  0  0  0  0  0  0  0  0  0  0  0
   26.0289  -18.0381  -12.6970 O   0  0  0  0  0  0  0  0  0  0  0  0
   28.0212  -19.7588  -18.1516 O   0  0  0  0  0  0  0  0  0  0  0  0
   20.1003  -19.5910  -15.0929 O   0  0  0  0  0  0  0  0  0  0  0  0
   21.1851  -20.0781  -14.3468 C   0  0  0  0  0  0  0  0  0  0  0  0
   22.3162  -20.4575  -15.0216 C   0  0  0  0  0  0  0  0  0  0  0  0
   23.4101  -20.9437  -14.3261 C   0  0  0  0  0  0  0  0  0  0  0  0
   23.3397  -21.0397  -12.9311 C   0  0  0  0  0  0  0  0  0  0  0  0
   24.5060  -21.5936  -12.2267 C   0  0  0  0  0  0  0  0  0  0  0  0
   25.4539  -20.5899  -11.7083 C   0  0  2  0  0  0  0  0  0  0  0  0
   26.4113  -20.2854  -12.7949 N   0  0  0  0  0  0  0  0  0  0  0  0
   26.2265  -20.8804  -10.5142 C   0  0  0  0  0  0  0  0  0  0  0  0
   26.6790  -22.0844  -10.4077 O   0  0  0  0  0  0  0  0  0  0  0  0
   22.1796  -20.6456  -12.2956 C   0  0  0  0  0  0  0  0  0  0  0  0
   21.0974  -20.1649  -12.9806 C   0  0  0  0  0  0  0  0  0  0  0  0
   28.5184  -19.4870   -3.1545 C   0  0  0  0  0  0  0  0  0  0  0  0
   28.2771  -18.7817   -4.8083 S   0  0  0  0  0  0  0  0  0  0  0  0
   27.5486  -20.0722   -5.8536 C   0  0  0  0  0  0  0  0  0  0  0  0
   27.3723  -19.5106   -7.2226 C   0  0  0  0  0  0  0  0  0  0  0  0
   26.7394  -20.5259   -8.1261 C   0  0  2  0  0  0  0  0  0  0  0  0
   26.5407  -19.9832   -9.4586 N   0  0  0  0  0  0  0  0  0  0  0  0
   25.4608  -20.9857   -7.5636 C   0  0  0  0  0  0  0  0  0  0  0  0
   24.3394  -20.6001   -7.9841 O   0  0  0  0  0  0  0  0  0  0  0  0
   25.5086  -21.9050   -6.5012 O   0  0  0  0  0  0  0  0  0  0  0  0
  2  7  1  0
  2  3  1  0
  2  1  1  6
  3  4  1  0
  4  5  1  0
  5  6  2  0
  7  8  2  0
  9  5  1  0
 10 11  1  0
 11 21  2  0
 12 13  2  0
 12 11  1  0
 13 14  1  0
 14 15  1  0
 14 20  2  0
 16 15  1  6
 16 18  1  0
 17 16  1  0
 17  7  1  0
 18 19  2  0
 18 27  1  0
 21 20  1  0
 22 23  1  0
 23 24  1  0
 24 25  1  0
 26 25  1  1
 26 28  1  0
 27 26  1  0
 28 29  2  0
 28 30  1  0
M  END
$$$$
