EYM.pdb
     RDKit          3D

 30 30  0  0  1  0  0  0  0  0999 V2000
   21.2605  -31.5810  -12.2531 N   0  0  0  0  0  0  0  0  0  0  0  0
   20.0546  -31.0590  -11.5807 C   0  0  1  0  0  0  0  0  0  0  0  0
   19.9024  -31.6916  -10.2364 C   0  0  0  0  0  0  0  0  0  0  0  0
   19.3415  -33.0792  -10.3024 C   0  0  0  0  0  0  0  0  0  0  0  0
   17.8460  -33.0075  -10.1275 C   0  0  0  0  0  0  0  0  0  0  0  0
   17.0783  -33.7583  -10.7821 O   0  0  0  0  0  0  0  0  0  0  0  0
   20.2388  -29.6075  -11.4461 C   0  0  0  0  0  0  0  0  0  0  0  0
   21.3780  -29.1408  -11.2410 O   0  0  0  0  0  0  0  0  0  0  0  0
   17.2897  -32.1089   -9.2382 O   0  0  0  0  0  0  0  0  0  0  0  0
   19.5847  -21.4311  -14.2145 O   0  0  0  0  0  0  0  0  0  0  0  0
   19.6367  -22.8016  -13.9147 C   0  0  0  0  0  0  0  0  0  0  0  0
   18.5523  -23.5758  -14.2362 C   0  0  0  0  0  0  0  0  0  0  0  0
   18.5600  -24.9322  -13.9586 C   0  0  0  0  0  0  0  0  0  0  0  0
   19.6879  -25.4936  -13.3480 C   0  0  0  0  0  0  0  0  0  0  0  0
   19.6488  -26.9302  -13.0349 C   0  0  0  0  0  0  0  0  0  0  0  0
   19.3446  -27.2523  -11.6284 C   0  0  2  0  0  0  0  0  0  0  0  0
   19.1563  -28.7176  -11.5427 N   0  0  0  0  0  0  0  0  0  0  0  0
   18.2075  -26.6271  -10.9778 C   0  0  0  0  0  0  0  0  0  0  0  0
   17.0512  -27.1377  -11.2376 O   0  0  0  0  0  0  0  0  0  0  0  0
   20.7557  -24.6741  -13.0430 C   0  0  0  0  0  0  0  0  0  0  0  0
   20.7504  -23.3336  -13.3162 C   0  0  0  0  0  0  0  0  0  0  0  0
   18.3279  -27.4518   -5.4604 C   0  0  0  0  0  0  0  0  0  0  0  0
   18.4687  -25.8860   -6.3653 S   0  0  0  0  0  0  0  0  0  0  0  0
   16.8992  -25.6102   -7.2311 C   0  0  0  0  0  0  0  0  0  0  0  0
   17.0968  -24.4930   -8.1973 C   0  0  0  0  0  0  0  0  0  0  0  0
   16.9689  -24.9917   -9.6054 C   0  0  2  0  0  0  0  0  0  0  0  0
   18.2330  -25.5220  -10.0855 N   0  0  0  0  0  0  0  0  0  0  0  0
   16.4956  -23.9155  -10.4889 C   0  0  0  0  0  0  0  0  0  0  0  0
   17.1836  -23.4345  -11.4260 O   0  0  0  0  0  0  0  0  0  0  0  0
   15.2044  -23.4074  -10.2639 O   0  0  0  0  0  0  0  0  0  0  0  0
  2  7  1  0
  2  3  1  0
  2  1  1  1
  3  4  1  0
  4  5  1  0
  5  6  2  0
  7  8  2  0
  9  5  1  0
 10 11  1  0
 11 21  2  0
 12 13  2  0
 12 11  1  0
 13 14  1  0
 14 15  1  0
 14 20  2  0
 16 15  1  6
 16 18  1  0
 17 16  1  0
 17  7  1  0
 18 19  2  0
 18 27  1  0
 21 20  1  0
 22 23  1  0
 23 24  1  0
 24 25  1  0
 26 25  1  1
 26 28  1  0
 27 26  1  0
 28 29  2  0
 28 30  1  0
M  END
$$$$
