EYM.pdb
     RDKit          3D

 30 30  0  0  1  0  0  0  0  0999 V2000
   26.8440  -20.2962  -17.5061 N   0  0  0  0  0  0  0  0  0  0  0  0
   26.3259  -21.6774  -17.4547 C   0  0  1  0  0  0  0  0  0  0  0  0
   27.3770  -22.6368  -17.9075 C   0  0  0  0  0  0  0  0  0  0  0  0
   28.6600  -21.9632  -18.2876 C   0  0  0  0  0  0  0  0  0  0  0  0
   29.8065  -22.7084  -17.6531 C   0  0  0  0  0  0  0  0  0  0  0  0
   29.6025  -23.6832  -16.8851 O   0  0  0  0  0  0  0  0  0  0  0  0
   25.9592  -21.9411  -16.0566 C   0  0  0  0  0  0  0  0  0  0  0  0
   25.5703  -23.0779  -15.7187 O   0  0  0  0  0  0  0  0  0  0  0  0
   31.1104  -22.3301  -17.9069 O   0  0  0  0  0  0  0  0  0  0  0  0
   25.5840  -20.5362   -7.2862 O   0  0  0  0  0  0  0  0  0  0  0  0
   25.8048  -20.4891   -8.6718 C   0  0  0  0  0  0  0  0  0  0  0  0
   26.7220  -21.3535   -9.2106 C   0  0  0  0  0  0  0  0  0  0  0  0
   26.9717  -21.3417  -10.5723 C   0  0  0  0  0  0  0  0  0  0  0  0
   26.2748  -20.4371  -11.3824 C   0  0  0  0  0  0  0  0  0  0  0  0
   26.5899  -20.4266  -12.8190 C   0  0  0  0  0  0  0  0  0  0  0  0
   25.6495  -21.1816  -13.6676 C   0  0  2  0  0  0  0  0  0  0  0  0
   26.0340  -20.9384  -15.0758 N   0  0  0  0  0  0  0  0  0  0  0  0
   24.2234  -20.9349  -13.5555 C   0  0  0  0  0  0  0  0  0  0  0  0
   23.7704  -19.9113  -14.1978 O   0  0  0  0  0  0  0  0  0  0  0  0
   25.3609  -19.5862  -10.7945 C   0  0  0  0  0  0  0  0  0  0  0  0
   25.1125  -19.5958   -9.4493 C   0  0  0  0  0  0  0  0  0  0  0  0
   16.7455  -22.7921  -12.7060 C   0  0  0  0  0  0  0  0  0  0  0  0
   18.4588  -23.3876  -12.7221 S   0  0  0  0  0  0  0  0  0  0  0  0
   19.5443  -21.9363  -12.6579 C   0  0  0  0  0  0  0  0  0  0  0  0
   20.9547  -22.4134  -12.7178 C   0  0  0  0  0  0  0  0  0  0  0  0
   21.8969  -21.2496  -12.7939 C   0  0  2  0  0  0  0  0  0  0  0  0
   23.2774  -21.7000  -12.8222 N   0  0  0  0  0  0  0  0  0  0  0  0
   21.6778  -20.3384  -11.6606 C   0  0  0  0  0  0  0  0  0  0  0  0
   22.3856  -20.3427  -10.6204 O   0  0  0  0  0  0  0  0  0  0  0  0
   20.6192  -19.4187  -11.7583 O   0  0  0  0  0  0  0  0  0  0  0  0
  2  7  1  0
  2  3  1  0
  2  1  1  1
  3  4  1  0
  4  5  1  0
  5  6  2  0
  7  8  2  0
  9  5  1  0
 10 11  1  0
 11 21  2  0
 12 13  2  0
 12 11  1  0
 13 14  1  0
 14 15  1  0
 14 20  2  0
 16 15  1  1
 16 18  1  0
 17 16  1  0
 17  7  1  0
 18 19  2  0
 18 27  1  0
 21 20  1  0
 22 23  1  0
 23 24  1  0
 24 25  1  0
 26 25  1  1
 26 28  1  0
 27 26  1  0
 28 29  2  0
 28 30  1  0
M  END
$$$$
