AYV.pdb
     RDKit          3D

 25 25  0  0  1  0  0  0  0  0999 V2000
   19.6295  -28.7817  -15.2583 C   0  0  0  0  0  0  0  0  0  0  0  0
   20.3730  -27.8856  -14.3062 C   0  0  2  0  0  0  0  0  0  0  0  0
   20.9547  -28.6023  -13.2035 N   0  0  0  0  0  0  0  0  0  0  0  0
   19.4679  -26.7914  -13.8080 C   0  0  0  0  0  0  0  0  0  0  0  0
   18.4308  -27.1261  -13.1656 O   0  0  0  0  0  0  0  0  0  0  0  0
   18.6473  -25.8618   -7.2844 O   0  0  0  0  0  0  0  0  0  0  0  0
   18.9177  -25.3398   -8.5487 C   0  0  0  0  0  0  0  0  0  0  0  0
   18.2489  -24.2334   -9.0107 C   0  0  0  0  0  0  0  0  0  0  0  0
   18.5486  -23.7558  -10.2608 C   0  0  0  0  0  0  0  0  0  0  0  0
   19.4993  -24.3451  -11.0761 C   0  0  0  0  0  0  0  0  0  0  0  0
   19.7401  -23.7478  -12.4122 C   0  0  0  0  0  0  0  0  0  0  0  0
   18.9495  -24.4128  -13.5195 C   0  0  2  0  0  0  0  0  0  0  0  0
   19.8098  -25.4415  -14.0755 N   0  0  0  0  0  0  0  0  0  0  0  0
   18.6339  -23.4831  -14.6278 C   0  0  0  0  0  0  0  0  0  0  0  0
   19.5405  -23.0522  -15.4073 O   0  0  0  0  0  0  0  0  0  0  0  0
   20.1515  -25.4438  -10.5964 C   0  0  0  0  0  0  0  0  0  0  0  0
   19.8724  -25.9492   -9.3412 C   0  0  0  0  0  0  0  0  0  0  0  0
   15.7601  -23.9199  -17.2546 C   0  0  0  0  0  0  0  0  0  0  0  0
   15.7238  -22.5152  -16.6935 C   0  0  1  0  0  0  0  0  0  0  0  0
   14.5669  -22.4281  -15.7398 C   0  0  0  0  0  0  0  0  0  0  0  0
   17.0411  -22.1726  -16.0337 C   0  0  2  0  0  0  0  0  0  0  0  0
   17.3213  -23.0094  -14.9016 N   0  0  0  0  0  0  0  0  0  0  0  0
   17.0031  -20.7347  -15.6707 C   0  0  0  0  0  0  0  0  0  0  0  0
   17.0662  -19.7742  -16.6506 O   0  0  0  0  0  0  0  0  0  0  0  0
   16.9135  -20.3456  -14.4769 O   0  0  0  0  0  0  0  0  0  0  0  0
  2  1  1  6
  2  3  1  0
  4  5  2  0
  4  2  1  0
  6  7  1  0
  7 17  2  0
  8  9  2  0
  8  7  1  0
  9 10  1  0
 10 11  1  0
 10 16  2  0
 12 11  1  1
 12 13  1  0
 13  4  1  0
 14 12  1  0
 15 14  2  0
 17 16  1  0
 19 18  1  1
 19 21  1  0
 19 20  1  0
 21 23  1  0
 21 22  1  1
 22 14  1  0
 23 24  1  0
 25 23  2  0
M  END
$$$$
