AYV.pdb
     RDKit          3D

 25 25  0  0  1  0  0  0  0  0999 V2000
   19.9881  -13.1836  -19.8912 C   0  0  0  0  0  0  0  0  0  0  0  0
   20.9483  -13.3602  -18.7471 C   0  0  2  0  0  0  0  0  0  0  0  0
   20.9028  -14.6802  -18.1783 N   0  0  0  0  0  0  0  0  0  0  0  0
   20.6946  -12.3194  -17.6902 C   0  0  0  0  0  0  0  0  0  0  0  0
   19.6433  -12.4246  -16.9944 O   0  0  0  0  0  0  0  0  0  0  0  0
   22.3151   -5.0224  -12.9523 O   0  0  0  0  0  0  0  0  0  0  0  0
   22.4023   -6.1970  -13.6985 C   0  0  0  0  0  0  0  0  0  0  0  0
   22.8298   -6.1716  -15.0029 C   0  0  0  0  0  0  0  0  0  0  0  0
   22.8994   -7.3522  -15.6973 C   0  0  0  0  0  0  0  0  0  0  0  0
   22.5555   -8.5694  -15.1352 C   0  0  0  0  0  0  0  0  0  0  0  0
   22.6643   -9.7840  -15.9794 C   0  0  0  0  0  0  0  0  0  0  0  0
   21.3326  -10.2627  -16.5186 C   0  0  2  0  0  0  0  0  0  0  0  0
   21.6346  -11.2720  -17.5174 N   0  0  0  0  0  0  0  0  0  0  0  0
   20.5846   -9.1913  -17.2149 C   0  0  0  0  0  0  0  0  0  0  0  0
   20.9748   -8.7332  -18.3344 O   0  0  0  0  0  0  0  0  0  0  0  0
   22.1332   -8.5707  -13.8373 C   0  0  0  0  0  0  0  0  0  0  0  0
   22.0522   -7.3983  -13.1110 C   0  0  0  0  0  0  0  0  0  0  0  0
   17.1121   -8.9004  -18.5859 C   0  0  0  0  0  0  0  0  0  0  0  0
   17.2871   -7.7558  -17.6120 C   0  0  1  0  0  0  0  0  0  0  0  0
   16.5358   -8.0976  -16.3572 C   0  0  0  0  0  0  0  0  0  0  0  0
   18.7549   -7.4988  -17.3524 C   0  0  2  0  0  0  0  0  0  0  0  0
   19.3975   -8.6031  -16.6981 N   0  0  0  0  0  0  0  0  0  0  0  0
   18.8612   -6.2447  -16.5673 C   0  0  0  0  0  0  0  0  0  0  0  0
   18.6785   -5.0294  -17.1808 O   0  0  0  0  0  0  0  0  0  0  0  0
   19.1174   -6.2436  -15.3347 O   0  0  0  0  0  0  0  0  0  0  0  0
  2  1  1  6
  2  3  1  0
  4  5  2  0
  4  2  1  0
  6  7  1  0
  7 17  2  0
  8  9  2  0
  8  7  1  0
  9 10  1  0
 10 11  1  0
 10 16  2  0
 12 11  1  6
 12 13  1  0
 13  4  1  0
 14 12  1  0
 15 14  2  0
 17 16  1  0
 19 18  1  6
 19 21  1  0
 19 20  1  0
 21 23  1  0
 21 22  1  1
 22 14  1  0
 23 24  1  0
 25 23  2  0
M  END
$$$$
