AYV.pdb
     RDKit          3D

 25 25  0  0  1  0  0  0  0  0999 V2000
   20.4165  -12.7913  -18.9997 C   0  0  0  0  0  0  0  0  0  0  0  0
   19.9363  -11.3921  -19.2713 C   0  0  2  0  0  0  0  0  0  0  0  0
   20.6155  -10.7732  -20.3775 N   0  0  0  0  0  0  0  0  0  0  0  0
   20.0655  -10.5484  -18.0318 C   0  0  0  0  0  0  0  0  0  0  0  0
   19.4669  -10.9346  -16.9864 O   0  0  0  0  0  0  0  0  0  0  0  0
   25.2386  -13.3273  -15.5446 O   0  0  0  0  0  0  0  0  0  0  0  0
   24.5804  -12.1320  -15.8307 C   0  0  0  0  0  0  0  0  0  0  0  0
   23.9068  -11.4476  -14.8495 C   0  0  0  0  0  0  0  0  0  0  0  0
   23.2742  -10.2759  -15.1781 C   0  0  0  0  0  0  0  0  0  0  0  0
   23.2877   -9.7553  -16.4605 C   0  0  0  0  0  0  0  0  0  0  0  0
   22.5660   -8.4829  -16.7051 C   0  0  0  0  0  0  0  0  0  0  0  0
   21.0674   -8.6573  -16.8362 C   0  0  2  0  0  0  0  0  0  0  0  0
   20.8455   -9.3654  -18.0839 N   0  0  0  0  0  0  0  0  0  0  0  0
   20.3543   -7.3649  -16.9526 C   0  0  0  0  0  0  0  0  0  0  0  0
   20.5476   -6.5902  -17.9415 O   0  0  0  0  0  0  0  0  0  0  0  0
   23.9633  -10.4526  -17.4198 C   0  0  0  0  0  0  0  0  0  0  0  0
   24.6107  -11.6358  -17.1206 C   0  0  0  0  0  0  0  0  0  0  0  0
   16.7497   -6.7999  -17.3011 C   0  0  0  0  0  0  0  0  0  0  0  0
   17.1784   -5.9161  -16.1503 C   0  0  1  0  0  0  0  0  0  0  0  0
   16.7289   -6.5683  -14.8742 C   0  0  0  0  0  0  0  0  0  0  0  0
   18.6732   -5.6871  -16.1846 C   0  0  2  0  0  0  0  0  0  0  0  0
   19.4180   -6.8985  -15.9892 N   0  0  0  0  0  0  0  0  0  0  0  0
   18.9957   -4.6612  -15.1627 C   0  0  0  0  0  0  0  0  0  0  0  0
   18.6889   -3.3417  -15.3895 O   0  0  0  0  0  0  0  0  0  0  0  0
   19.5511   -4.9520  -14.0711 O   0  0  0  0  0  0  0  0  0  0  0  0
  2  1  1  1
  2  3  1  0
  4  5  2  0
  4  2  1  0
  6  7  1  0
  7 17  2  0
  8  9  2  0
  8  7  1  0
  9 10  1  0
 10 11  1  0
 10 16  2  0
 12 11  1  6
 12 13  1  0
 13  4  1  0
 14 12  1  0
 15 14  2  0
 17 16  1  0
 19 18  1  6
 19 21  1  0
 19 20  1  0
 21 23  1  0
 21 22  1  1
 22 14  1  0
 23 24  1  0
 25 23  2  0
M  END
$$$$
