AYV.pdb
     RDKit          3D

 25 25  0  0  1  0  0  0  0  0999 V2000
   27.0424  -20.7677  -17.6212 C   0  0  0  0  0  0  0  0  0  0  0  0
   27.5871  -21.8876  -16.7778 C   0  0  2  0  0  0  0  0  0  0  0  0
   27.6366  -23.1421  -17.4792 N   0  0  0  0  0  0  0  0  0  0  0  0
   26.7865  -22.0209  -15.5106 C   0  0  0  0  0  0  0  0  0  0  0  0
   25.8424  -22.8628  -15.4914 O   0  0  0  0  0  0  0  0  0  0  0  0
   24.0611  -20.7144   -7.2937 O   0  0  0  0  0  0  0  0  0  0  0  0
   24.8039  -20.7125   -8.4736 C   0  0  0  0  0  0  0  0  0  0  0  0
   24.3415  -21.3522   -9.5969 C   0  0  0  0  0  0  0  0  0  0  0  0
   25.1068  -21.3233  -10.7345 C   0  0  0  0  0  0  0  0  0  0  0  0
   26.3279  -20.6744  -10.7956 C   0  0  0  0  0  0  0  0  0  0  0  0
   27.0745  -20.7107  -12.0766 C   0  0  0  0  0  0  0  0  0  0  0  0
   26.2839  -21.3182  -13.2164 C   0  0  2  0  0  0  0  0  0  0  0  0
   27.1185  -21.2058  -14.3989 N   0  0  0  0  0  0  0  0  0  0  0  0
   25.0399  -20.5692  -13.5059 C   0  0  0  0  0  0  0  0  0  0  0  0
   25.0684  -19.3403  -13.8286 O   0  0  0  0  0  0  0  0  0  0  0  0
   26.7678  -20.0454   -9.6670 C   0  0  0  0  0  0  0  0  0  0  0  0
   26.0201  -20.0562   -8.5053 C   0  0  0  0  0  0  0  0  0  0  0  0
   20.6552  -19.9438  -15.2481 C   0  0  0  0  0  0  0  0  0  0  0  0
   21.8997  -20.7724  -15.0159 C   0  0  1  0  0  0  0  0  0  0  0  0
   22.8101  -20.5796  -16.1947 C   0  0  0  0  0  0  0  0  0  0  0  0
   22.5588  -20.3866  -13.7102 C   0  0  2  0  0  0  0  0  0  0  0  0
   23.7441  -21.1522  -13.4471 N   0  0  0  0  0  0  0  0  0  0  0  0
   21.5480  -20.5332  -12.6343 C   0  0  0  0  0  0  0  0  0  0  0  0
   21.5776  -21.6276  -11.8047 O   0  0  0  0  0  0  0  0  0  0  0  0
   20.6426  -19.6798  -12.4425 O   0  0  0  0  0  0  0  0  0  0  0  0
  2  1  1  6
  2  3  1  0
  4  5  2  0
  4  2  1  0
  6  7  1  0
  7 17  2  0
  8  9  2  0
  8  7  1  0
  9 10  1  0
 10 11  1  0
 10 16  2  0
 12 11  1  1
 12 13  1  0
 13  4  1  0
 14 12  1  0
 15 14  2  0
 17 16  1  0
 19 18  1  6
 19 21  1  0
 19 20  1  0
 21 23  1  0
 21 22  1  1
 22 14  1  0
 23 24  1  0
 25 23  2  0
M  END
$$$$
