AYV.pdb
     RDKit          3D

 25 25  0  0  1  0  0  0  0  0999 V2000
   28.7328  -23.4852  -16.8012 C   0  0  0  0  0  0  0  0  0  0  0  0
   27.7185  -22.3782  -16.7122 C   0  0  2  0  0  0  0  0  0  0  0  0
   28.2811  -21.0822  -16.9804 N   0  0  0  0  0  0  0  0  0  0  0  0
   27.0469  -22.3955  -15.3656 C   0  0  0  0  0  0  0  0  0  0  0  0
   26.3996  -23.4322  -15.0389 O   0  0  0  0  0  0  0  0  0  0  0  0
   24.8453  -19.9025   -7.2279 O   0  0  0  0  0  0  0  0  0  0  0  0
   25.4631  -20.0838   -8.4646 C   0  0  0  0  0  0  0  0  0  0  0  0
   25.8598  -21.3319   -8.8765 C   0  0  0  0  0  0  0  0  0  0  0  0
   26.4634  -21.4615  -10.1011 C   0  0  0  0  0  0  0  0  0  0  0  0
   26.6889  -20.3833  -10.9392 C   0  0  0  0  0  0  0  0  0  0  0  0
   27.3542  -20.6374  -12.2402 C   0  0  0  0  0  0  0  0  0  0  0  0
   26.4461  -21.2871  -13.2632 C   0  0  2  0  0  0  0  0  0  0  0  0
   27.1650  -21.2604  -14.5241 N   0  0  0  0  0  0  0  0  0  0  0  0
   25.1946  -20.5249  -13.4754 C   0  0  0  0  0  0  0  0  0  0  0  0
   25.2140  -19.3290  -13.9051 O   0  0  0  0  0  0  0  0  0  0  0  0
   26.2865  -19.1521  -10.5092 C   0  0  0  0  0  0  0  0  0  0  0  0
   25.6756  -18.9886   -9.2809 C   0  0  0  0  0  0  0  0  0  0  0  0
   22.8489  -20.3722  -15.8653 C   0  0  0  0  0  0  0  0  0  0  0  0
   21.9677  -20.6036  -14.6573 C   0  0  1  0  0  0  0  0  0  0  0  0
   21.5041  -22.0318  -14.6900 C   0  0  0  0  0  0  0  0  0  0  0  0
   22.7132  -20.2693  -13.3842 C   0  0  2  0  0  0  0  0  0  0  0  0
   23.9011  -21.0583  -13.2211 N   0  0  0  0  0  0  0  0  0  0  0  0
   21.7698  -20.4379  -12.2518 C   0  0  0  0  0  0  0  0  0  0  0  0
   21.9437  -21.4648  -11.3564 O   0  0  0  0  0  0  0  0  0  0  0  0
   20.7938  -19.6639  -12.0698 O   0  0  0  0  0  0  0  0  0  0  0  0
  2  1  1  1
  2  3  1  0
  4  5  2  0
  4  2  1  0
  6  7  1  0
  7 17  2  0
  8  9  2  0
  8  7  1  0
  9 10  1  0
 10 11  1  0
 10 16  2  0
 12 11  1  1
 12 13  1  0
 13  4  1  0
 14 12  1  0
 15 14  2  0
 17 16  1  0
 19 18  1  6
 19 21  1  0
 19 20  1  0
 21 23  1  0
 21 22  1  1
 22 14  1  0
 23 24  1  0
 25 23  2  0
M  END
$$$$
