AYV.pdb
     RDKit          3D

 25 25  0  0  1  0  0  0  0  0999 V2000
   21.2630  -16.2118  -15.9169 C   0  0  0  0  0  0  0  0  0  0  0  0
   20.8726  -15.9069  -17.3371 C   0  0  2  0  0  0  0  0  0  0  0  0
   21.5679  -16.7236  -18.2951 N   0  0  0  0  0  0  0  0  0  0  0  0
   21.0855  -14.4467  -17.6327 C   0  0  0  0  0  0  0  0  0  0  0  0
   22.1864  -14.1010  -18.1512 O   0  0  0  0  0  0  0  0  0  0  0  0
   19.8682  -13.0566  -23.9850 O   0  0  0  0  0  0  0  0  0  0  0  0
   19.6847  -12.7246  -22.6433 C   0  0  0  0  0  0  0  0  0  0  0  0
   20.0244  -11.4801  -22.1738 C   0  0  0  0  0  0  0  0  0  0  0  0
   19.8258  -11.1991  -20.8463 C   0  0  0  0  0  0  0  0  0  0  0  0
   19.2959  -12.1208  -19.9600 C   0  0  0  0  0  0  0  0  0  0  0  0
   19.1283  -11.7118  -18.5443 C   0  0  0  0  0  0  0  0  0  0  0  0
   20.2815  -12.1311  -17.6567 C   0  0  2  0  0  0  0  0  0  0  0  0
   20.0539  -13.5251  -17.3215 N   0  0  0  0  0  0  0  0  0  0  0  0
   20.3100  -11.3888  -16.3759 C   0  0  0  0  0  0  0  0  0  0  0  0
   19.4374  -11.5925  -15.4745 O   0  0  0  0  0  0  0  0  0  0  0  0
   18.9655  -13.3516  -20.4488 C   0  0  0  0  0  0  0  0  0  0  0  0
   19.1535  -13.6655  -21.7811 C   0  0  0  0  0  0  0  0  0  0  0  0
   23.2785  -11.0317  -13.9719 C   0  0  0  0  0  0  0  0  0  0  0  0
   22.7075   -9.6506  -14.2081 C   0  0  1  0  0  0  0  0  0  0  0  0
   23.6532   -8.9070  -15.1073 C   0  0  0  0  0  0  0  0  0  0  0  0
   21.3141   -9.7441  -14.7891 C   0  0  2  0  0  0  0  0  0  0  0  0
   21.2935  -10.4115  -16.0597 N   0  0  0  0  0  0  0  0  0  0  0  0
   20.7665   -8.3678  -14.8713 C   0  0  0  0  0  0  0  0  0  0  0  0
   20.4440   -7.6844  -13.7243 O   0  0  0  0  0  0  0  0  0  0  0  0
   20.5796   -7.7839  -15.9707 O   0  0  0  0  0  0  0  0  0  0  0  0
  2  1  1  1
  2  3  1  0
  4  5  2  0
  4  2  1  0
  6  7  1  0
  7 17  2  0
  8  9  2  0
  8  7  1  0
  9 10  1  0
 10 11  1  0
 10 16  2  0
 12 11  1  6
 12 13  1  0
 13  4  1  0
 14 12  1  0
 15 14  2  0
 17 16  1  0
 19 18  1  6
 19 21  1  0
 19 20  1  0
 21 23  1  0
 21 22  1  6
 22 14  1  0
 23 24  1  0
 25 23  2  0
M  END
$$$$
