AYV.pdb
     RDKit          3D

 25 25  0  0  1  0  0  0  0  0999 V2000
   17.9857   -9.6146  -20.3702 C   0  0  0  0  0  0  0  0  0  0  0  0
   18.9295   -8.5231  -19.9460 C   0  0  2  0  0  0  0  0  0  0  0  0
   20.2379   -8.6588  -20.5273 N   0  0  0  0  0  0  0  0  0  0  0  0
   19.0204   -8.4687  -18.4448 C   0  0  0  0  0  0  0  0  0  0  0  0
   17.9588   -8.2447  -17.7942 O   0  0  0  0  0  0  0  0  0  0  0  0
   17.7043  -14.5755  -16.5585 O   0  0  0  0  0  0  0  0  0  0  0  0
   18.5120  -13.4476  -16.4192 C   0  0  0  0  0  0  0  0  0  0  0  0
   19.5829  -13.2420  -17.2533 C   0  0  0  0  0  0  0  0  0  0  0  0
   20.3490  -12.1180  -17.0785 C   0  0  0  0  0  0  0  0  0  0  0  0
   20.0854  -11.1817  -16.0938 C   0  0  0  0  0  0  0  0  0  0  0  0
   20.9822  -10.0048  -15.9914 C   0  0  0  0  0  0  0  0  0  0  0  0
   20.3110   -8.7023  -16.3738 C   0  0  2  0  0  0  0  0  0  0  0  0
   20.2797   -8.6686  -17.8248 N   0  0  0  0  0  0  0  0  0  0  0  0
   21.0858   -7.5169  -15.9414 C   0  0  0  0  0  0  0  0  0  0  0  0
   22.2870   -7.3396  -16.3170 O   0  0  0  0  0  0  0  0  0  0  0  0
   19.0160  -11.4066  -15.2762 C   0  0  0  0  0  0  0  0  0  0  0  0
   18.2249  -12.5292  -15.4267 C   0  0  0  0  0  0  0  0  0  0  0  0
   19.3020   -3.9916  -14.5730 C   0  0  0  0  0  0  0  0  0  0  0  0
   20.7405   -4.0623  -15.0367 C   0  0  1  0  0  0  0  0  0  0  0  0
   21.4778   -2.9004  -14.4352 C   0  0  0  0  0  0  0  0  0  0  0  0
   21.3554   -5.3919  -14.6597 C   0  0  2  0  0  0  0  0  0  0  0  0
   20.5596   -6.5060  -15.0909 N   0  0  0  0  0  0  0  0  0  0  0  0
   21.5669   -5.3907  -13.1914 C   0  0  0  0  0  0  0  0  0  0  0  0
   22.5871   -4.6529  -12.6423 O   0  0  0  0  0  0  0  0  0  0  0  0
   20.8364   -6.0509  -12.4070 O   0  0  0  0  0  0  0  0  0  0  0  0
  2  1  1  1
  2  3  1  0
  4  5  2  0
  4  2  1  0
  6  7  1  0
  7 17  2  0
  8  9  2  0
  8  7  1  0
  9 10  1  0
 10 11  1  0
 10 16  2  0
 12 11  1  6
 12 13  1  0
 13  4  1  0
 14 12  1  0
 15 14  2  0
 17 16  1  0
 19 18  1  1
 19 21  1  0
 19 20  1  0
 21 23  1  0
 21 22  1  1
 22 14  1  0
 23 24  1  0
 25 23  2  0
M  END
$$$$
