AYV.pdb
     RDKit          3D

 25 25  0  0  1  0  0  0  0  0999 V2000
   15.0595   -9.6850  -14.6825 C   0  0  0  0  0  0  0  0  0  0  0  0
   15.7760  -10.1243  -15.9298 C   0  0  2  0  0  0  0  0  0  0  0  0
   15.5580  -11.5114  -16.2401 N   0  0  0  0  0  0  0  0  0  0  0  0
   17.2479   -9.8328  -15.8138 C   0  0  0  0  0  0  0  0  0  0  0  0
   17.9541  -10.6152  -15.1141 O   0  0  0  0  0  0  0  0  0  0  0  0
   19.8453  -12.6986  -21.2537 O   0  0  0  0  0  0  0  0  0  0  0  0
   19.8014  -11.5898  -20.4096 C   0  0  0  0  0  0  0  0  0  0  0  0
   18.8807  -10.5909  -20.6078 C   0  0  0  0  0  0  0  0  0  0  0  0
   18.8753   -9.5194  -19.7518 C   0  0  0  0  0  0  0  0  0  0  0  0
   19.7617   -9.4048  -18.6950 C   0  0  0  0  0  0  0  0  0  0  0  0
   19.6698   -8.2005  -17.8341 C   0  0  0  0  0  0  0  0  0  0  0  0
   19.2165   -8.5044  -16.4215 C   0  0  2  0  0  0  0  0  0  0  0  0
   17.7801   -8.7039  -16.4867 N   0  0  0  0  0  0  0  0  0  0  0  0
   19.4428   -7.3701  -15.4971 C   0  0  0  0  0  0  0  0  0  0  0  0
   18.6739   -6.3581  -15.4922 O   0  0  0  0  0  0  0  0  0  0  0  0
   20.6682  -10.4095  -18.5170 C   0  0  0  0  0  0  0  0  0  0  0  0
   20.6992  -11.5020  -19.3621 C   0  0  0  0  0  0  0  0  0  0  0  0
   20.2966   -7.6942  -11.6240 C   0  0  0  0  0  0  0  0  0  0  0  0
   21.2271   -6.7109  -12.2996 C   0  0  1  0  0  0  0  0  0  0  0  0
   22.5633   -7.3768  -12.4636 C   0  0  0  0  0  0  0  0  0  0  0  0
   20.6472   -6.2510  -13.6187 C   0  0  2  0  0  0  0  0  0  0  0  0
   20.5140   -7.3239  -14.5629 N   0  0  0  0  0  0  0  0  0  0  0  0
   21.5075   -5.1572  -14.1327 C   0  0  0  0  0  0  0  0  0  0  0  0
   21.5105   -3.9323  -13.5111 O   0  0  0  0  0  0  0  0  0  0  0  0
   22.2527   -5.3041  -15.1365 O   0  0  0  0  0  0  0  0  0  0  0  0
  2  1  1  1
  2  3  1  0
  4  5  2  0
  4  2  1  0
  6  7  1  0
  7 17  2  0
  8  9  2  0
  8  7  1  0
  9 10  1  0
 10 11  1  0
 10 16  2  0
 12 11  1  6
 12 13  1  0
 13  4  1  0
 14 12  1  0
 15 14  2  0
 17 16  1  0
 19 18  1  6
 19 21  1  0
 19 20  1  0
 21 23  1  0
 21 22  1  6
 22 14  1  0
 23 24  1  0
 25 23  2  0
M  END
$$$$
