AYV.pdb
     RDKit          3D

 25 25  0  0  1  0  0  0  0  0999 V2000
   18.6363  -12.4990    6.1701 C   0  0  0  0  0  0  0  0  0  0  0  0
   18.1922  -13.2015    4.9165 C   0  0  2  0  0  0  0  0  0  0  0  0
   17.2674  -12.4229    4.1376 N   0  0  0  0  0  0  0  0  0  0  0  0
   17.6009  -14.5435    5.2543 C   0  0  0  0  0  0  0  0  0  0  0  0
   16.3412  -14.6357    5.3254 O   0  0  0  0  0  0  0  0  0  0  0  0
   15.9268  -19.1241    0.1386 O   0  0  0  0  0  0  0  0  0  0  0  0
   16.5728  -18.8383    1.3407 C   0  0  0  0  0  0  0  0  0  0  0  0
   17.7292  -18.0986    1.3592 C   0  0  0  0  0  0  0  0  0  0  0  0
   18.3292  -17.8426    2.5655 C   0  0  0  0  0  0  0  0  0  0  0  0
   17.8151  -18.3005    3.7662 C   0  0  0  0  0  0  0  0  0  0  0  0
   18.5487  -17.9686    5.0118 C   0  0  0  0  0  0  0  0  0  0  0  0
   17.8646  -16.9073    5.8479 C   0  0  2  0  0  0  0  0  0  0  0  0
   18.4704  -15.6411    5.4774 N   0  0  0  0  0  0  0  0  0  0  0  0
   18.1089  -17.0831    7.2977 C   0  0  0  0  0  0  0  0  0  0  0  0
   19.2474  -16.8441    7.8097 O   0  0  0  0  0  0  0  0  0  0  0  0
   16.6648  -19.0338    3.7239 C   0  0  0  0  0  0  0  0  0  0  0  0
   16.0363  -19.3088    2.5246 C   0  0  0  0  0  0  0  0  0  0  0  0
   15.9018  -15.9181   10.4235 C   0  0  0  0  0  0  0  0  0  0  0  0
   16.2199  -17.3958   10.4906 C   0  0  1  0  0  0  0  0  0  0  0  0
   14.9824  -18.1531   10.1023 C   0  0  0  0  0  0  0  0  0  0  0  0
   17.3994  -17.7261    9.6029 C   0  0  2  0  0  0  0  0  0  0  0  0
   17.1120  -17.5232    8.2113 N   0  0  0  0  0  0  0  0  0  0  0  0
   17.8044  -19.1235    9.8926 C   0  0  0  0  0  0  0  0  0  0  0  0
   18.6007  -19.4000   10.9771 O   0  0  0  0  0  0  0  0  0  0  0  0
   17.4426  -20.0906    9.1724 O   0  0  0  0  0  0  0  0  0  0  0  0
  2  1  1  1
  2  3  1  0
  4  5  2  0
  4  2  1  0
  6  7  1  0
  7 17  2  0
  8  9  2  0
  8  7  1  0
  9 10  1  0
 10 11  1  0
 10 16  2  0
 12 11  1  6
 12 13  1  0
 13  4  1  0
 14 12  1  0
 15 14  2  0
 17 16  1  0
 19 18  1  6
 19 21  1  0
 19 20  1  0
 21 23  1  0
 21 22  1  6
 22 14  1  0
 23 24  1  0
 25 23  2  0
M  END
$$$$
