AYV.pdb
     RDKit          3D

 25 25  0  0  1  0  0  0  0  0999 V2000
   21.1081  -11.3339  -21.5461 C   0  0  0  0  0  0  0  0  0  0  0  0
   20.3464  -11.4769  -20.2572 C   0  0  2  0  0  0  0  0  0  0  0  0
   18.9208  -11.4490  -20.4448 N   0  0  0  0  0  0  0  0  0  0  0  0
   20.7727  -10.4141  -19.2807 C   0  0  0  0  0  0  0  0  0  0  0  0
   21.9971  -10.3523  -18.9685 O   0  0  0  0  0  0  0  0  0  0  0  0
   21.8835   -4.6079  -22.7794 O   0  0  0  0  0  0  0  0  0  0  0  0
   21.2942   -5.2486  -21.6903 C   0  0  0  0  0  0  0  0  0  0  0  0
   21.7683   -5.0508  -20.4170 C   0  0  0  0  0  0  0  0  0  0  0  0
   21.1566   -5.7025  -19.3769 C   0  0  0  0  0  0  0  0  0  0  0  0
   20.0795   -6.5524  -19.5594 C   0  0  0  0  0  0  0  0  0  0  0  0
   19.4976   -7.2089  -18.3636 C   0  0  0  0  0  0  0  0  0  0  0  0
   20.2621   -8.4391  -17.9212 C   0  0  2  0  0  0  0  0  0  0  0  0
   19.7950   -9.5325  -18.7541 N   0  0  0  0  0  0  0  0  0  0  0  0
   19.9644   -8.8187  -16.5214 C   0  0  0  0  0  0  0  0  0  0  0  0
   18.8101   -9.2251  -16.1781 O   0  0  0  0  0  0  0  0  0  0  0  0
   19.6252   -6.7341  -20.8336 C   0  0  0  0  0  0  0  0  0  0  0  0
   20.2198   -6.0920  -21.9027 C   0  0  0  0  0  0  0  0  0  0  0  0
   22.2020  -11.0927  -14.2618 C   0  0  0  0  0  0  0  0  0  0  0  0
   21.7758   -9.8785  -13.4661 C   0  0  1  0  0  0  0  0  0  0  0  0
   22.9700   -8.9798  -13.3186 C   0  0  0  0  0  0  0  0  0  0  0  0
   20.6122   -9.1842  -14.1386 C   0  0  2  0  0  0  0  0  0  0  0  0
   20.9243   -8.7600  -15.4739 N   0  0  0  0  0  0  0  0  0  0  0  0
   20.2018   -8.0513  -13.2733 C   0  0  0  0  0  0  0  0  0  0  0  0
   20.4596   -6.7590  -13.6608 O   0  0  0  0  0  0  0  0  0  0  0  0
   19.6139   -8.2246  -12.1737 O   0  0  0  0  0  0  0  0  0  0  0  0
  2  1  1  6
  2  3  1  0
  4  5  2  0
  4  2  1  0
  6  7  1  0
  7 17  2  0
  8  9  2  0
  8  7  1  0
  9 10  1  0
 10 11  1  0
 10 16  2  0
 12 11  1  6
 12 13  1  0
 13  4  1  0
 14 12  1  0
 15 14  2  0
 17 16  1  0
 19 18  1  6
 19 21  1  0
 19 20  1  0
 21 23  1  0
 21 22  1  6
 22 14  1  0
 23 24  1  0
 25 23  2  0
M  END
$$$$
