AYV.pdb
     RDKit          3D

 25 25  0  0  1  0  0  0  0  0999 V2000
   26.4905  -10.7486  -15.2723 C   0  0  0  0  0  0  0  0  0  0  0  0
   25.2268  -11.5064  -15.5742 C   0  0  2  0  0  0  0  0  0  0  0  0
   25.4226  -12.5596  -16.5336 N   0  0  0  0  0  0  0  0  0  0  0  0
   24.1519  -10.5608  -16.0381 C   0  0  0  0  0  0  0  0  0  0  0  0
   24.0719  -10.3155  -17.2766 O   0  0  0  0  0  0  0  0  0  0  0  0
   19.0766  -14.2229  -17.8650 O   0  0  0  0  0  0  0  0  0  0  0  0
   19.5308  -13.1104  -17.1577 C   0  0  0  0  0  0  0  0  0  0  0  0
   19.4519  -11.8517  -17.7002 C   0  0  0  0  0  0  0  0  0  0  0  0
   19.9112  -10.7876  -16.9671 C   0  0  0  0  0  0  0  0  0  0  0  0
   20.4517  -10.9320  -15.7011 C   0  0  0  0  0  0  0  0  0  0  0  0
   20.9221   -9.7128  -14.9995 C   0  0  0  0  0  0  0  0  0  0  0  0
   22.2045   -9.1465  -15.5723 C   0  0  2  0  0  0  0  0  0  0  0  0
   23.2797   -9.9876  -15.0783 N   0  0  0  0  0  0  0  0  0  0  0  0
   22.4851   -7.7759  -15.0877 C   0  0  0  0  0  0  0  0  0  0  0  0
   22.8157   -7.5566  -13.8802 O   0  0  0  0  0  0  0  0  0  0  0  0
   20.5203  -12.1923  -15.1818 C   0  0  0  0  0  0  0  0  0  0  0  0
   20.0660  -13.2848  -15.8952 C   0  0  0  0  0  0  0  0  0  0  0  0
   24.5493   -4.8886  -17.0294 C   0  0  0  0  0  0  0  0  0  0  0  0
   23.2284   -4.3850  -16.4901 C   0  0  1  0  0  0  0  0  0  0  0  0
   22.2765   -4.2564  -17.6446 C   0  0  0  0  0  0  0  0  0  0  0  0
   22.7064   -5.3110  -15.4138 C   0  0  2  0  0  0  0  0  0  0  0  0
   22.4088   -6.6224  -15.9158 N   0  0  0  0  0  0  0  0  0  0  0  0
   21.5209   -4.6649  -14.7992 C   0  0  0  0  0  0  0  0  0  0  0  0
   20.2771   -5.2306  -14.9394 O   0  0  0  0  0  0  0  0  0  0  0  0
   21.6050   -3.5962  -14.1393 O   0  0  0  0  0  0  0  0  0  0  0  0
  2  1  1  6
  2  3  1  0
  4  5  2  0
  4  2  1  0
  6  7  1  0
  7 17  2  0
  8  9  2  0
  8  7  1  0
  9 10  1  0
 10 11  1  0
 10 16  2  0
 12 11  1  1
 12 13  1  0
 13  4  1  0
 14 12  1  0
 15 14  2  0
 17 16  1  0
 19 18  1  6
 19 21  1  0
 19 20  1  0
 21 23  1  0
 21 22  1  6
 22 14  1  0
 23 24  1  0
 25 23  2  0
M  END
$$$$
