AYV.pdb
     RDKit          3D

 25 25  0  0  1  0  0  0  0  0999 V2000
   22.6258  -25.9760  -14.2572 C   0  0  0  0  0  0  0  0  0  0  0  0
   23.4402  -24.8832  -14.8935 C   0  0  2  0  0  0  0  0  0  0  0  0
   24.7270  -25.3376  -15.3471 N   0  0  0  0  0  0  0  0  0  0  0  0
   23.5921  -23.7270  -13.9423 C   0  0  0  0  0  0  0  0  0  0  0  0
   22.5446  -23.1214  -13.5730 O   0  0  0  0  0  0  0  0  0  0  0  0
   26.3013  -18.8189   -7.3949 O   0  0  0  0  0  0  0  0  0  0  0  0
   26.2689  -19.7152   -8.4624 C   0  0  0  0  0  0  0  0  0  0  0  0
   25.1476  -20.4653   -8.7173 C   0  0  0  0  0  0  0  0  0  0  0  0
   25.1622  -21.3338   -9.7786 C   0  0  0  0  0  0  0  0  0  0  0  0
   26.2631  -21.4845  -10.6038 C   0  0  0  0  0  0  0  0  0  0  0  0
   26.1710  -22.4564  -11.7203 C   0  0  0  0  0  0  0  0  0  0  0  0
   25.0040  -22.1957  -12.6496 C   0  0  2  0  0  0  0  0  0  0  0  0
   24.8904  -23.3654  -13.5018 N   0  0  0  0  0  0  0  0  0  0  0  0
   25.2406  -21.0420  -13.5469 C   0  0  0  0  0  0  0  0  0  0  0  0
   26.4160  -20.7034  -13.8921 O   0  0  0  0  0  0  0  0  0  0  0  0
   27.3666  -20.7288  -10.3316 C   0  0  0  0  0  0  0  0  0  0  0  0
   27.3833  -19.8449   -9.2699 C   0  0  0  0  0  0  0  0  0  0  0  0
   24.8012  -20.6619  -16.9029 C   0  0  0  0  0  0  0  0  0  0  0  0
   24.0696  -19.4389  -16.3946 C   0  0  1  0  0  0  0  0  0  0  0  0
   22.5958  -19.6875  -16.5416 C   0  0  0  0  0  0  0  0  0  0  0  0
   24.4635  -19.1403  -14.9650 C   0  0  2  0  0  0  0  0  0  0  0  0
   24.1954  -20.2394  -14.0815 N   0  0  0  0  0  0  0  0  0  0  0  0
   23.7553  -17.9043  -14.5510 C   0  0  0  0  0  0  0  0  0  0  0  0
   24.0871  -16.6972  -15.1162 O   0  0  0  0  0  0  0  0  0  0  0  0
   22.8421  -17.9117  -13.6845 O   0  0  0  0  0  0  0  0  0  0  0  0
  2  1  1  1
  2  3  1  0
  4  5  2  0
  4  2  1  0
  6  7  1  0
  7 17  2  0
  8  9  2  0
  8  7  1  0
  9 10  1  0
 10 11  1  0
 10 16  2  0
 12 11  1  1
 12 13  1  0
 13  4  1  0
 14 12  1  0
 15 14  2  0
 17 16  1  0
 19 18  1  1
 19 21  1  0
 19 20  1  0
 21 23  1  0
 21 22  1  1
 22 14  1  0
 23 24  1  0
 25 23  2  0
M  END
$$$$
