AYV.pdb
     RDKit          3D

 25 25  0  0  1  0  0  0  0  0999 V2000
   27.6252  -21.0672  -18.7883 C   0  0  0  0  0  0  0  0  0  0  0  0
   28.5784  -21.4898  -17.7043 C   0  0  2  0  0  0  0  0  0  0  0  0
   29.3903  -22.6151  -18.0819 N   0  0  0  0  0  0  0  0  0  0  0  0
   27.8252  -21.7827  -16.4348 C   0  0  0  0  0  0  0  0  0  0  0  0
   27.4830  -22.9799  -16.2110 O   0  0  0  0  0  0  0  0  0  0  0  0
   24.7494  -20.8253   -8.2732 O   0  0  0  0  0  0  0  0  0  0  0  0
   25.3621  -20.6334   -9.5109 C   0  0  0  0  0  0  0  0  0  0  0  0
   26.4938  -21.3321   -9.8514 C   0  0  0  0  0  0  0  0  0  0  0  0
   27.0613  -21.1100  -11.0800 C   0  0  0  0  0  0  0  0  0  0  0  0
   26.5384  -20.2089  -11.9911 C   0  0  0  0  0  0  0  0  0  0  0  0
   27.2363  -20.0443  -13.2895 C   0  0  0  0  0  0  0  0  0  0  0  0
   26.7882  -21.0357  -14.3429 C   0  0  2  0  0  0  0  0  0  0  0  0
   27.5315  -20.7159  -15.5482 N   0  0  0  0  0  0  0  0  0  0  0  0
   25.3540  -20.8931  -14.6821 C   0  0  0  0  0  0  0  0  0  0  0  0
   24.9391  -19.9381  -15.4109 O   0  0  0  0  0  0  0  0  0  0  0  0
   25.4131  -19.5255  -11.6313 C   0  0  0  0  0  0  0  0  0  0  0  0
   24.8176  -19.7267  -10.4010 C   0  0  0  0  0  0  0  0  0  0  0  0
   22.9338  -23.0615  -16.4750 C   0  0  0  0  0  0  0  0  0  0  0  0
   22.2878  -22.7529  -15.1421 C   0  0  1  0  0  0  0  0  0  0  0  0
   22.3663  -23.9894  -14.2931 C   0  0  0  0  0  0  0  0  0  0  0  0
   22.9571  -21.5633  -14.4901 C   0  0  2  0  0  0  0  0  0  0  0  0
   24.3499  -21.7927  -14.2295 N   0  0  0  0  0  0  0  0  0  0  0  0
   22.2022  -21.2426  -13.2541 C   0  0  0  0  0  0  0  0  0  0  0  0
   20.9721  -20.6367  -13.3350 O   0  0  0  0  0  0  0  0  0  0  0  0
   22.6482  -21.5068  -12.1070 O   0  0  0  0  0  0  0  0  0  0  0  0
  2  1  1  6
  2  3  1  0
  4  5  2  0
  4  2  1  0
  6  7  1  0
  7 17  2  0
  8  9  2  0
  8  7  1  0
  9 10  1  0
 10 11  1  0
 10 16  2  0
 12 11  1  1
 12 13  1  0
 13  4  1  0
 14 12  1  0
 15 14  2  0
 17 16  1  0
 19 18  1  6
 19 21  1  0
 19 20  1  0
 21 23  1  0
 21 22  1  1
 22 14  1  0
 23 24  1  0
 25 23  2  0
M  END
$$$$
