AYV.pdb
     RDKit          3D

 25 25  0  0  1  0  0  0  0  0999 V2000
   19.6814  -11.1744  -17.6331 C   0  0  0  0  0  0  0  0  0  0  0  0
   18.8803  -10.0071  -18.1406 C   0  0  2  0  0  0  0  0  0  0  0  0
   19.4568   -9.4002  -19.3100 N   0  0  0  0  0  0  0  0  0  0  0  0
   18.6996   -8.9868  -17.0493 C   0  0  0  0  0  0  0  0  0  0  0  0
   18.1187   -9.3519  -15.9864 O   0  0  0  0  0  0  0  0  0  0  0  0
   23.5352  -10.5003  -13.3658 O   0  0  0  0  0  0  0  0  0  0  0  0
   22.8069   -9.4800  -13.9763 C   0  0  0  0  0  0  0  0  0  0  0  0
   21.8854   -8.7514  -13.2657 C   0  0  0  0  0  0  0  0  0  0  0  0
   21.1930   -7.7574  -13.9086 C   0  0  0  0  0  0  0  0  0  0  0  0
   21.3861   -7.4592  -15.2463 C   0  0  0  0  0  0  0  0  0  0  0  0
   20.5790   -6.3664  -15.8416 C   0  0  0  0  0  0  0  0  0  0  0  0
   19.1441   -6.7620  -16.1206 C   0  0  2  0  0  0  0  0  0  0  0  0
   19.1827   -7.6694  -17.2532 N   0  0  0  0  0  0  0  0  0  0  0  0
   18.3083   -5.6109  -16.5312 C   0  0  0  0  0  0  0  0  0  0  0  0
   18.4590   -5.0557  -17.6645 O   0  0  0  0  0  0  0  0  0  0  0  0
   22.3069   -8.1964  -15.9329 C   0  0  0  0  0  0  0  0  0  0  0  0
   23.0207   -9.2043  -15.3139 C   0  0  0  0  0  0  0  0  0  0  0  0
   14.5917   -5.4200  -16.8389 C   0  0  0  0  0  0  0  0  0  0  0  0
   15.0015   -4.2304  -15.9986 C   0  0  1  0  0  0  0  0  0  0  0  0
   14.6219   -4.5179  -14.5742 C   0  0  0  0  0  0  0  0  0  0  0  0
   16.4802   -3.9532  -16.1558 C   0  0  2  0  0  0  0  0  0  0  0  0
   17.2938   -5.0480  -15.7089 N   0  0  0  0  0  0  0  0  0  0  0  0
   16.7833   -2.6971  -15.4271 C   0  0  0  0  0  0  0  0  0  0  0  0
   16.4024   -1.4863  -15.9519 O   0  0  0  0  0  0  0  0  0  0  0  0
   17.3883   -2.6903  -14.3232 O   0  0  0  0  0  0  0  0  0  0  0  0
  2  1  1  1
  2  3  1  0
  4  5  2  0
  4  2  1  0
  6  7  1  0
  7 17  2  0
  8  9  2  0
  8  7  1  0
  9 10  1  0
 10 11  1  0
 10 16  2  0
 12 11  1  6
 12 13  1  0
 13  4  1  0
 14 12  1  0
 15 14  2  0
 17 16  1  0
 19 18  1  6
 19 21  1  0
 19 20  1  0
 21 23  1  0
 21 22  1  1
 22 14  1  0
 23 24  1  0
 25 23  2  0
M  END
$$$$
