HQP.pdb
     RDKit          3D

 27 28  0  0  1  0  0  0  0  0999 V2000
   14.3827  -20.6447    1.1739 N   0  0  0  0  0  0  0  0  0  0  0  0
   15.4490  -21.3504    1.8201 C   0  0  1  0  0  0  0  0  0  0  0  0
   16.3902  -22.0091    0.8307 C   0  0  0  0  0  0  0  0  0  0  0  0
   15.6067  -23.0731    0.1414 C   0  0  0  0  0  0  0  0  0  0  0  0
   14.8901  -22.9986   -1.0315 C   0  0  0  0  0  0  0  0  0  0  0  0
   14.3421  -24.1957   -1.2794 N   0  0  0  0  0  0  0  0  0  0  0  0
   14.7088  -25.0094   -0.2777 C   0  0  0  0  0  0  0  0  0  0  0  0
   15.4840  -24.3288    0.5971 N   0  0  0  0  0  0  0  0  0  0  0  0
   16.2892  -20.4140    2.6449 C   0  0  0  0  0  0  0  0  0  0  0  0
   16.3073  -19.1818    2.4041 O   0  0  0  0  0  0  0  0  0  0  0  0
   14.4283  -17.4182    6.4597 N   0  0  0  0  0  0  0  0  0  0  0  0
   15.6974  -17.0908    5.9184 C   0  0  0  0  0  0  0  0  0  0  0  0
   16.2927  -16.0945    6.4045 O   0  0  0  0  0  0  0  0  0  0  0  0
   16.2766  -17.9075    4.8230 C   0  0  0  0  0  0  0  0  0  0  0  0
   16.5000  -19.3011    5.3267 C   0  0  0  0  0  0  0  0  0  0  0  0
   17.7363  -19.9344    4.6647 C   0  0  2  0  0  0  0  0  0  0  0  0
   17.0824  -20.8854    3.7126 N   0  0  0  0  0  0  0  0  0  0  0  0
   18.4628  -20.6485    5.6992 C   0  0  0  0  0  0  0  0  0  0  0  0
   17.7051  -21.4876    6.3660 O   0  0  0  0  0  0  0  0  0  0  0  0
   19.7895  -20.6145    6.1143 N   0  0  0  0  0  0  0  0  0  0  0  0
   20.8334  -19.9557    5.2138 C   0  0  0  0  0  0  0  0  0  0  0  0
   21.3969  -18.9729    6.2081 C   0  0  0  0  0  0  0  0  0  0  0  0
   21.2084  -19.6053    7.5678 C   0  0  0  0  0  0  0  0  0  0  0  0
   20.6373  -20.9899    7.1755 C   0  0  1  0  0  0  0  0  0  0  0  0
   20.2104  -21.7185    8.3235 C   0  0  0  0  0  0  0  0  0  0  0  0
   21.1657  -22.5636    8.9447 O   0  0  0  0  0  0  0  0  0  0  0  0
   19.1103  -21.7067    8.8471 O   0  0  0  0  0  0  0  0  0  0  0  0
  2  3  1  0
  2  1  1  6
  4  3  1  0
  5  4  2  0
  6  7  1  0
  6  5  1  0
  7  8  2  0
  8  4  1  0
  9 10  2  0
  9  2  1  0
 12 11  1  0
 12 14  1  0
 13 12  2  0
 16 15  1  1
 15 14  1  0
 16 17  1  0
 17  9  1  0
 18 16  1  0
 19 18  2  0
 20 21  1  0
 20 18  1  0
 22 21  1  0
 23 22  1  0
 24 23  1  0
 24 20  1  0
 24 25  1  1
 26 25  1  0
 27 25  2  0
M  END
$$$$
