HQP.pdb
     RDKit          3D

 27 28  0  0  1  0  0  0  0  0999 V2000
   18.3084  -19.6331  -14.9091 N   0  0  0  0  0  0  0  0  0  0  0  0
   19.7034  -19.3586  -15.0865 C   0  0  1  0  0  0  0  0  0  0  0  0
   20.0043  -17.8727  -15.0945 C   0  0  0  0  0  0  0  0  0  0  0  0
   19.6701  -17.3779  -16.4600 C   0  0  0  0  0  0  0  0  0  0  0  0
   20.4870  -17.2564  -17.5612 C   0  0  0  0  0  0  0  0  0  0  0  0
   19.7680  -16.7673  -18.5803 N   0  0  0  0  0  0  0  0  0  0  0  0
   18.5189  -16.5844  -18.1262 C   0  0  0  0  0  0  0  0  0  0  0  0
   18.4508  -16.9564  -16.8276 N   0  0  0  0  0  0  0  0  0  0  0  0
   20.5129  -19.9486  -13.9642 C   0  0  0  0  0  0  0  0  0  0  0  0
   20.2366  -19.6936  -12.7662 O   0  0  0  0  0  0  0  0  0  0  0  0
   24.1901  -24.9476  -13.5047 N   0  0  0  0  0  0  0  0  0  0  0  0
   24.1874  -24.1579  -14.6825 C   0  0  0  0  0  0  0  0  0  0  0  0
   24.9527  -24.5117  -15.6165 O   0  0  0  0  0  0  0  0  0  0  0  0
   23.3074  -22.9671  -14.7826 C   0  0  0  0  0  0  0  0  0  0  0  0
   22.5616  -22.8087  -13.4925 C   0  0  0  0  0  0  0  0  0  0  0  0
   22.4517  -21.3254  -13.0985 C   0  0  2  0  0  0  0  0  0  0  0  0
   21.6055  -20.8050  -14.2174 N   0  0  0  0  0  0  0  0  0  0  0  0
   23.7894  -20.7636  -13.1509 C   0  0  0  0  0  0  0  0  0  0  0  0
   24.1515  -20.4245  -14.3661 O   0  0  0  0  0  0  0  0  0  0  0  0
   24.7484  -20.5193  -12.1740 N   0  0  0  0  0  0  0  0  0  0  0  0
   24.2978  -20.0588  -10.7887 C   0  0  0  0  0  0  0  0  0  0  0  0
   24.9776  -21.1246   -9.9676 C   0  0  0  0  0  0  0  0  0  0  0  0
   26.1954  -21.5430  -10.7589 C   0  0  0  0  0  0  0  0  0  0  0  0
   26.1382  -20.5464  -11.9424 C   0  0  1  0  0  0  0  0  0  0  0  0
   27.1104  -20.8643  -12.9349 C   0  0  0  0  0  0  0  0  0  0  0  0
   26.6417  -21.4747  -14.1266 O   0  0  0  0  0  0  0  0  0  0  0  0
   28.3131  -20.6746  -12.8877 O   0  0  0  0  0  0  0  0  0  0  0  0
  2  3  1  0
  2  1  1  1
  4  3  1  0
  5  4  2  0
  6  7  1  0
  6  5  1  0
  7  8  2  0
  8  4  1  0
  9 10  2  0
  9  2  1  0
 12 11  1  0
 12 14  1  0
 13 12  2  0
 16 15  1  6
 15 14  1  0
 16 17  1  0
 17  9  1  0
 18 16  1  0
 19 18  2  0
 20 21  1  0
 20 18  1  0
 22 21  1  0
 23 22  1  0
 24 23  1  0
 24 20  1  0
 24 25  1  6
 26 25  1  0
 27 25  2  0
M  END
$$$$
