HQP.pdb
     RDKit          3D

 27 28  0  0  1  0  0  0  0  0999 V2000
   20.1116  -19.8855  -14.1049 N   0  0  0  0  0  0  0  0  0  0  0  0
   20.9611  -19.9306  -15.2577 C   0  0  1  0  0  0  0  0  0  0  0  0
   20.4388  -19.0751  -16.3952 C   0  0  0  0  0  0  0  0  0  0  0  0
   19.8106  -20.0063  -17.3746 C   0  0  0  0  0  0  0  0  0  0  0  0
   18.4881  -20.3663  -17.5020 C   0  0  0  0  0  0  0  0  0  0  0  0
   18.3719  -21.2302  -18.5193 N   0  0  0  0  0  0  0  0  0  0  0  0
   19.6023  -21.4099  -19.0231 C   0  0  0  0  0  0  0  0  0  0  0  0
   20.4895  -20.6632  -18.3270 N   0  0  0  0  0  0  0  0  0  0  0  0
   22.3345  -19.4102  -14.9324 C   0  0  0  0  0  0  0  0  0  0  0  0
   22.4950  -18.2463  -14.4894 O   0  0  0  0  0  0  0  0  0  0  0  0
   25.6648  -22.1713  -11.3740 N   0  0  0  0  0  0  0  0  0  0  0  0
   24.7420  -21.1128  -11.1765 C   0  0  0  0  0  0  0  0  0  0  0  0
   24.2234  -21.0047  -10.0351 O   0  0  0  0  0  0  0  0  0  0  0  0
   24.4192  -20.1847  -12.2885 C   0  0  0  0  0  0  0  0  0  0  0  0
   25.1383  -20.6407  -13.5216 C   0  0  0  0  0  0  0  0  0  0  0  0
   24.8373  -19.7111  -14.7102 C   0  0  2  0  0  0  0  0  0  0  0  0
   23.4845  -20.2077  -15.1128 N   0  0  0  0  0  0  0  0  0  0  0  0
   25.8232  -19.9907  -15.7386 C   0  0  0  0  0  0  0  0  0  0  0  0
   25.8351  -21.2517  -16.1026 O   0  0  0  0  0  0  0  0  0  0  0  0
   26.7456  -19.1898  -16.4031 N   0  0  0  0  0  0  0  0  0  0  0  0
   26.5585  -17.6735  -16.3911 C   0  0  0  0  0  0  0  0  0  0  0  0
   27.9094  -17.2866  -15.8458 C   0  0  0  0  0  0  0  0  0  0  0  0
   28.8599  -18.3778  -16.2820 C   0  0  0  0  0  0  0  0  0  0  0  0
   27.9305  -19.2472  -17.1638 C   0  0  1  0  0  0  0  0  0  0  0  0
   28.5728  -20.4570  -17.5576 C   0  0  0  0  0  0  0  0  0  0  0  0
   29.0478  -20.5316  -18.8923 O   0  0  0  0  0  0  0  0  0  0  0  0
   28.7683  -21.4514  -16.8812 O   0  0  0  0  0  0  0  0  0  0  0  0
  2  3  1  0
  2  1  1  1
  4  3  1  0
  5  4  2  0
  6  7  1  0
  6  5  1  0
  7  8  2  0
  8  4  1  0
  9 10  2  0
  9  2  1  0
 12 11  1  0
 12 14  1  0
 13 12  2  0
 16 15  1  1
 15 14  1  0
 16 17  1  0
 17  9  1  0
 18 16  1  0
 19 18  2  0
 20 21  1  0
 20 18  1  0
 22 21  1  0
 23 22  1  0
 24 23  1  0
 24 20  1  0
 24 25  1  1
 26 25  1  0
 27 25  2  0
M  END
$$$$
