HQP.pdb
     RDKit          3D

 27 28  0  0  1  0  0  0  0  0999 V2000
   25.7039  -11.6360  -18.6520 N   0  0  0  0  0  0  0  0  0  0  0  0
   25.2008  -11.4015  -17.3312 C   0  0  1  0  0  0  0  0  0  0  0  0
   26.2850  -10.9561  -16.3696 C   0  0  0  0  0  0  0  0  0  0  0  0
   27.2299  -12.1005  -16.2334 C   0  0  0  0  0  0  0  0  0  0  0  0
   28.5010  -12.2396  -16.7431 C   0  0  0  0  0  0  0  0  0  0  0  0
   28.9862  -13.4325  -16.3737 N   0  0  0  0  0  0  0  0  0  0  0  0
   28.0345  -14.0333  -15.6434 C   0  0  0  0  0  0  0  0  0  0  0  0
   26.9551  -13.2234  -15.5529 N   0  0  0  0  0  0  0  0  0  0  0  0
   24.1657  -10.3100  -17.3375 C   0  0  0  0  0  0  0  0  0  0  0  0
   24.2027   -9.3909  -18.1923 O   0  0  0  0  0  0  0  0  0  0  0  0
   18.8122  -11.3090  -14.6339 N   0  0  0  0  0  0  0  0  0  0  0  0
   18.5517  -10.0004  -15.1140 C   0  0  0  0  0  0  0  0  0  0  0  0
   17.4046   -9.5269  -14.9059 O   0  0  0  0  0  0  0  0  0  0  0  0
   19.6076   -9.2424  -15.8300 C   0  0  0  0  0  0  0  0  0  0  0  0
   20.8900  -10.0141  -15.7554 C   0  0  0  0  0  0  0  0  0  0  0  0
   22.0241   -9.2690  -16.4810 C   0  0  2  0  0  0  0  0  0  0  0  0
   23.1224  -10.2809  -16.3879 N   0  0  0  0  0  0  0  0  0  0  0  0
   22.3357   -8.0870  -15.6976 C   0  0  0  0  0  0  0  0  0  0  0  0
   22.6408   -8.3679  -14.4523 O   0  0  0  0  0  0  0  0  0  0  0  0
   22.3721   -6.7322  -16.0089 N   0  0  0  0  0  0  0  0  0  0  0  0
   22.5793   -6.3087  -17.4622 C   0  0  0  0  0  0  0  0  0  0  0  0
   21.3641   -5.4297  -17.6135 C   0  0  0  0  0  0  0  0  0  0  0  0
   21.0701   -4.8886  -16.2332 C   0  0  0  0  0  0  0  0  0  0  0  0
   22.2693   -5.4509  -15.4313 C   0  0  1  0  0  0  0  0  0  0  0  0
   22.1172   -5.2106  -14.0348 C   0  0  0  0  0  0  0  0  0  0  0  0
   22.6849   -4.0173  -13.5187 O   0  0  0  0  0  0  0  0  0  0  0  0
   21.5517   -5.9127  -13.2151 O   0  0  0  0  0  0  0  0  0  0  0  0
  2  3  1  0
  2  1  1  6
  4  3  1  0
  5  4  2  0
  6  7  1  0
  6  5  1  0
  7  8  2  0
  8  4  1  0
  9 10  2  0
  9  2  1  0
 12 11  1  0
 12 14  1  0
 13 12  2  0
 16 15  1  1
 15 14  1  0
 16 17  1  0
 17  9  1  0
 18 16  1  0
 19 18  2  0
 20 21  1  0
 20 18  1  0
 22 21  1  0
 23 22  1  0
 24 23  1  0
 24 20  1  0
 24 25  1  1
 26 25  1  0
 27 25  2  0
M  END
$$$$
