HQP.pdb
     RDKit          3D

 27 28  0  0  1  0  0  0  0  0999 V2000
   20.1876  -11.8501  -16.8205 N   0  0  0  0  0  0  0  0  0  0  0  0
   20.7826  -11.1096  -15.7480 C   0  0  1  0  0  0  0  0  0  0  0  0
   22.2264  -10.7424  -16.0295 C   0  0  0  0  0  0  0  0  0  0  0  0
   23.0036  -12.0135  -15.9947 C   0  0  0  0  0  0  0  0  0  0  0  0
   23.3095  -12.8703  -17.0277 C   0  0  0  0  0  0  0  0  0  0  0  0
   24.0283  -13.8917  -16.5431 N   0  0  0  0  0  0  0  0  0  0  0  0
   24.1716  -13.6796  -15.2260 C   0  0  0  0  0  0  0  0  0  0  0  0
   23.5464  -12.5306  -14.8823 N   0  0  0  0  0  0  0  0  0  0  0  0
   20.0526   -9.8140  -15.5212 C   0  0  0  0  0  0  0  0  0  0  0  0
   19.6077   -9.1466  -16.4873 O   0  0  0  0  0  0  0  0  0  0  0  0
   17.9140   -8.2940   -9.9848 N   0  0  0  0  0  0  0  0  0  0  0  0
   17.5338   -7.1214  -10.6857 C   0  0  0  0  0  0  0  0  0  0  0  0
   16.8621   -6.2642  -10.0552 O   0  0  0  0  0  0  0  0  0  0  0  0
   17.9257   -6.9383  -12.1052 C   0  0  0  0  0  0  0  0  0  0  0  0
   18.6741   -8.1545  -12.5597 C   0  0  0  0  0  0  0  0  0  0  0  0
   19.1645   -7.9898  -14.0089 C   0  0  2  0  0  0  0  0  0  0  0  0
   19.8433   -9.3061  -14.2214 N   0  0  0  0  0  0  0  0  0  0  0  0
   20.1239   -6.9001  -14.0197 C   0  0  0  0  0  0  0  0  0  0  0  0
   21.0477   -7.0265  -13.0960 O   0  0  0  0  0  0  0  0  0  0  0  0
   20.2502   -5.7629  -14.8100 N   0  0  0  0  0  0  0  0  0  0  0  0
   19.5391   -5.7141  -16.1615 C   0  0  0  0  0  0  0  0  0  0  0  0
   18.7634   -4.4376  -15.9591 C   0  0  0  0  0  0  0  0  0  0  0  0
   19.5810   -3.6040  -14.9994 C   0  0  0  0  0  0  0  0  0  0  0  0
   20.8442   -4.4854  -14.8412 C   0  0  1  0  0  0  0  0  0  0  0  0
   21.7068   -3.9772  -13.8269 C   0  0  0  0  0  0  0  0  0  0  0  0
   22.4240   -2.7897  -14.1238 O   0  0  0  0  0  0  0  0  0  0  0  0
   21.9091   -4.4420  -12.7189 O   0  0  0  0  0  0  0  0  0  0  0  0
  2  3  1  0
  2  1  1  6
  4  3  1  0
  5  4  2  0
  6  7  1  0
  6  5  1  0
  7  8  2  0
  8  4  1  0
  9 10  2  0
  9  2  1  0
 12 11  1  0
 12 14  1  0
 13 12  2  0
 16 15  1  1
 15 14  1  0
 16 17  1  0
 17  9  1  0
 18 16  1  0
 19 18  2  0
 20 21  1  0
 20 18  1  0
 22 21  1  0
 23 22  1  0
 24 23  1  0
 24 20  1  0
 24 25  1  1
 26 25  1  0
 27 25  2  0
M  END
$$$$
