HQP.pdb
     RDKit          3D

 27 28  0  0  1  0  0  0  0  0999 V2000
   25.1083  -12.1284  -17.8595 N   0  0  0  0  0  0  0  0  0  0  0  0
   25.2434  -11.0725  -16.9006 C   0  0  1  0  0  0  0  0  0  0  0  0
   26.6124  -10.4227  -16.9444 C   0  0  0  0  0  0  0  0  0  0  0  0
   27.5966  -11.4775  -16.5709 C   0  0  0  0  0  0  0  0  0  0  0  0
   28.0009  -11.8803  -15.3182 C   0  0  0  0  0  0  0  0  0  0  0  0
   28.9038  -12.8612  -15.4505 N   0  0  0  0  0  0  0  0  0  0  0  0
   29.0641  -13.0711  -16.7659 C   0  0  0  0  0  0  0  0  0  0  0  0
   28.2664  -12.2270  -17.4591 N   0  0  0  0  0  0  0  0  0  0  0  0
   24.2462   -9.9776  -17.1645 C   0  0  0  0  0  0  0  0  0  0  0  0
   24.0083   -9.5902  -18.3350 O   0  0  0  0  0  0  0  0  0  0  0  0
   19.4947   -9.7674  -13.7389 N   0  0  0  0  0  0  0  0  0  0  0  0
   19.6562  -10.4742  -14.9576 C   0  0  0  0  0  0  0  0  0  0  0  0
   18.9360  -11.4906  -15.1352 O   0  0  0  0  0  0  0  0  0  0  0  0
   20.6424  -10.0117  -15.9654 C   0  0  0  0  0  0  0  0  0  0  0  0
   21.3801   -8.8306  -15.4119 C   0  0  0  0  0  0  0  0  0  0  0  0
   22.4676   -8.3527  -16.3899 C   0  0  2  0  0  0  0  0  0  0  0  0
   23.5468   -9.3509  -16.1113 N   0  0  0  0  0  0  0  0  0  0  0  0
   22.8685   -7.0207  -15.9738 C   0  0  0  0  0  0  0  0  0  0  0  0
   23.4097   -7.0027  -14.7782 O   0  0  0  0  0  0  0  0  0  0  0  0
   22.7900   -5.7767  -16.5903 N   0  0  0  0  0  0  0  0  0  0  0  0
   22.7591   -5.7039  -18.1161 C   0  0  0  0  0  0  0  0  0  0  0  0
   21.4920   -4.9032  -18.2753 C   0  0  0  0  0  0  0  0  0  0  0  0
   21.3774   -4.0571  -17.0281 C   0  0  0  0  0  0  0  0  0  0  0  0
   22.7086   -4.3972  -16.3144 C   0  0  1  0  0  0  0  0  0  0  0  0
   22.7518   -3.8376  -15.0044 C   0  0  0  0  0  0  0  0  0  0  0  0
   22.2688   -4.6431  -13.9412 O   0  0  0  0  0  0  0  0  0  0  0  0
   23.1581   -2.7363  -14.6774 O   0  0  0  0  0  0  0  0  0  0  0  0
  2  3  1  0
  2  1  1  6
  4  3  1  0
  5  4  2  0
  6  7  1  0
  6  5  1  0
  7  8  2  0
  8  4  1  0
  9 10  2  0
  9  2  1  0
 12 11  1  0
 12 14  1  0
 13 12  2  0
 16 15  1  1
 15 14  1  0
 16 17  1  0
 17  9  1  0
 18 16  1  0
 19 18  2  0
 20 21  1  0
 20 18  1  0
 22 21  1  0
 23 22  1  0
 24 23  1  0
 24 20  1  0
 24 25  1  1
 26 25  1  0
 27 25  2  0
M  END
$$$$
