HQP.pdb
     RDKit          3D

 27 28  0  0  1  0  0  0  0  0999 V2000
   24.7467  -34.0337  -12.7562 N   0  0  0  0  0  0  0  0  0  0  0  0
   24.8003  -34.8585  -11.5860 C   0  0  1  0  0  0  0  0  0  0  0  0
   25.7544  -36.0260  -11.7442 C   0  0  0  0  0  0  0  0  0  0  0  0
   25.0243  -37.0712  -12.5159 C   0  0  0  0  0  0  0  0  0  0  0  0
   23.6861  -37.3924  -12.4873 C   0  0  0  0  0  0  0  0  0  0  0  0
   23.4650  -38.3979  -13.3446 N   0  0  0  0  0  0  0  0  0  0  0  0
   24.6461  -38.7034  -13.9029 C   0  0  0  0  0  0  0  0  0  0  0  0
   25.6066  -37.8948  -13.4002 N   0  0  0  0  0  0  0  0  0  0  0  0
   25.2852  -34.0732  -10.3982 C   0  0  0  0  0  0  0  0  0  0  0  0
   25.4576  -32.8316  -10.4725 O   0  0  0  0  0  0  0  0  0  0  0  0
   23.0642  -33.9300   -5.6632 N   0  0  0  0  0  0  0  0  0  0  0  0
   23.8644  -32.7869   -5.4104 C   0  0  0  0  0  0  0  0  0  0  0  0
   23.7252  -32.2199   -4.2958 O   0  0  0  0  0  0  0  0  0  0  0  0
   24.8193  -32.3005   -6.4369 C   0  0  0  0  0  0  0  0  0  0  0  0
   24.6755  -33.1434   -7.6675 C   0  0  0  0  0  0  0  0  0  0  0  0
   25.9791  -33.9026   -7.9706 C   0  0  2  0  0  0  0  0  0  0  0  0
   25.5617  -34.7011   -9.1651 N   0  0  0  0  0  0  0  0  0  0  0  0
   26.2512  -34.7655   -6.8351 C   0  0  0  0  0  0  0  0  0  0  0  0
   25.1606  -35.2688   -6.3058 O   0  0  0  0  0  0  0  0  0  0  0  0
   27.4296  -35.1558   -6.2085 N   0  0  0  0  0  0  0  0  0  0  0  0
   28.7620  -34.9216   -6.9186 C   0  0  0  0  0  0  0  0  0  0  0  0
   29.4577  -34.1388   -5.8345 C   0  0  0  0  0  0  0  0  0  0  0  0
   28.8563  -34.6121   -4.5312 C   0  0  0  0  0  0  0  0  0  0  0  0
   27.9240  -35.7443   -5.0274 C   0  0  1  0  0  0  0  0  0  0  0  0
   27.1023  -36.2384   -3.9729 C   0  0  0  0  0  0  0  0  0  0  0  0
   25.7690  -35.7575   -3.9132 O   0  0  0  0  0  0  0  0  0  0  0  0
   27.4059  -37.0348   -3.1022 O   0  0  0  0  0  0  0  0  0  0  0  0
  2  3  1  0
  2  1  1  6
  4  3  1  0
  5  4  2  0
  6  7  1  0
  6  5  1  0
  7  8  2  0
  8  4  1  0
  9 10  2  0
  9  2  1  0
 12 11  1  0
 12 14  1  0
 13 12  2  0
 16 15  1  1
 15 14  1  0
 16 17  1  0
 17  9  1  0
 18 16  1  0
 19 18  2  0
 20 21  1  0
 20 18  1  0
 22 21  1  0
 23 22  1  0
 24 23  1  0
 24 20  1  0
 24 25  1  1
 26 25  1  0
 27 25  2  0
M  END
$$$$
