HQP.pdb
     RDKit          3D

 27 28  0  0  1  0  0  0  0  0999 V2000
   20.6913  -20.7314  -15.0742 N   0  0  0  0  0  0  0  0  0  0  0  0
   20.6106  -19.3201  -15.3071 C   0  0  1  0  0  0  0  0  0  0  0  0
   20.0551  -18.5676  -14.1139 C   0  0  0  0  0  0  0  0  0  0  0  0
   18.5779  -18.7633  -14.1371 C   0  0  0  0  0  0  0  0  0  0  0  0
   17.6141  -18.0092  -14.7675 C   0  0  0  0  0  0  0  0  0  0  0  0
   16.4133  -18.5494  -14.5205 N   0  0  0  0  0  0  0  0  0  0  0  0
   16.6197  -19.6261  -13.7471 C   0  0  0  0  0  0  0  0  0  0  0  0
   17.9437  -19.7639  -13.5078 N   0  0  0  0  0  0  0  0  0  0  0  0
   21.9733  -18.7421  -15.5754 C   0  0  0  0  0  0  0  0  0  0  0  0
   22.9777  -19.1323  -14.9308 O   0  0  0  0  0  0  0  0  0  0  0  0
   25.4437  -19.3815  -18.3474 N   0  0  0  0  0  0  0  0  0  0  0  0
   25.8630  -18.1413  -18.8923 C   0  0  0  0  0  0  0  0  0  0  0  0
   27.0282  -18.0823  -19.3636 O   0  0  0  0  0  0  0  0  0  0  0  0
   24.9440  -16.9760  -18.8939 C   0  0  0  0  0  0  0  0  0  0  0  0
   23.6127  -17.4109  -18.3609 C   0  0  0  0  0  0  0  0  0  0  0  0
   23.5339  -17.2018  -16.8385 C   0  0  2  0  0  0  0  0  0  0  0  0
   22.1693  -17.7463  -16.5558 N   0  0  0  0  0  0  0  0  0  0  0  0
   23.5858  -15.7714  -16.5951 C   0  0  0  0  0  0  0  0  0  0  0  0
   22.6230  -15.1170  -17.2015 O   0  0  0  0  0  0  0  0  0  0  0  0
   24.4483  -14.9719  -15.8532 N   0  0  0  0  0  0  0  0  0  0  0  0
   25.3628  -15.6258  -14.8185 C   0  0  0  0  0  0  0  0  0  0  0  0
   26.6812  -15.0921  -15.3175 C   0  0  0  0  0  0  0  0  0  0  0  0
   26.3683  -13.7713  -15.9823 C   0  0  0  0  0  0  0  0  0  0  0  0
   24.8567  -13.6348  -15.6763 C   0  0  1  0  0  0  0  0  0  0  0  0
   24.2868  -12.5246  -16.3648 C   0  0  0  0  0  0  0  0  0  0  0  0
   24.2283  -12.6028  -17.7801 O   0  0  0  0  0  0  0  0  0  0  0  0
   23.8364  -11.5002  -15.8829 O   0  0  0  0  0  0  0  0  0  0  0  0
  2  3  1  0
  2  1  1  1
  4  3  1  0
  5  4  2  0
  6  7  1  0
  6  5  1  0
  7  8  2  0
  8  4  1  0
  9 10  2  0
  9  2  1  0
 12 11  1  0
 12 14  1  0
 13 12  2  0
 16 15  1  6
 15 14  1  0
 16 17  1  0
 17  9  1  0
 18 16  1  0
 19 18  2  0
 20 21  1  0
 20 18  1  0
 22 21  1  0
 23 22  1  0
 24 23  1  0
 24 20  1  0
 24 25  1  6
 26 25  1  0
 27 25  2  0
M  END
$$$$
