HQP.pdb
     RDKit          3D

 27 28  0  0  1  0  0  0  0  0999 V2000
   25.5020  -21.3118  -10.0803 N   0  0  0  0  0  0  0  0  0  0  0  0
   24.7572  -20.9182  -11.2391 C   0  0  1  0  0  0  0  0  0  0  0  0
   24.0184  -19.6101  -11.0354 C   0  0  0  0  0  0  0  0  0  0  0  0
   22.6053  -19.9637  -10.7206 C   0  0  0  0  0  0  0  0  0  0  0  0
   21.9878  -20.0536   -9.4937 C   0  0  0  0  0  0  0  0  0  0  0  0
   20.7075  -20.4019   -9.6792 N   0  0  0  0  0  0  0  0  0  0  0  0
   20.5239  -20.5288  -11.0022 C   0  0  0  0  0  0  0  0  0  0  0  0
   21.6823  -20.2619  -11.6472 N   0  0  0  0  0  0  0  0  0  0  0  0
   25.6690  -20.7107  -12.4175 C   0  0  0  0  0  0  0  0  0  0  0  0
   26.8075  -20.2018  -12.2705 O   0  0  0  0  0  0  0  0  0  0  0  0
   23.9997  -24.1574  -15.3079 N   0  0  0  0  0  0  0  0  0  0  0  0
   25.2950  -24.4518  -14.8115 C   0  0  0  0  0  0  0  0  0  0  0  0
   25.4535  -25.5573  -14.2318 O   0  0  0  0  0  0  0  0  0  0  0  0
   26.4009  -23.4771  -14.9825 C   0  0  0  0  0  0  0  0  0  0  0  0
   25.8635  -22.2510  -15.6560 C   0  0  0  0  0  0  0  0  0  0  0  0
   26.2355  -20.9824  -14.8688 C   0  0  2  0  0  0  0  0  0  0  0  0
   25.2786  -21.0786  -13.7227 N   0  0  0  0  0  0  0  0  0  0  0  0
   25.9254  -19.8428  -15.7133 C   0  0  0  0  0  0  0  0  0  0  0  0
   24.6404  -19.7204  -15.9509 O   0  0  0  0  0  0  0  0  0  0  0  0
   26.7179  -18.8691  -16.3114 N   0  0  0  0  0  0  0  0  0  0  0  0
   27.9550  -18.3607  -15.5728 C   0  0  0  0  0  0  0  0  0  0  0  0
   28.9801  -18.6277  -16.6453 C   0  0  0  0  0  0  0  0  0  0  0  0
   28.2394  -18.5312  -17.9592 C   0  0  0  0  0  0  0  0  0  0  0  0
   26.8362  -18.0875  -17.4780 C   0  0  1  0  0  0  0  0  0  0  0  0
   25.8947  -18.0963  -18.5479 C   0  0  0  0  0  0  0  0  0  0  0  0
   25.6884  -16.8737  -19.2373 O   0  0  0  0  0  0  0  0  0  0  0  0
   25.2340  -19.0371  -18.9516 O   0  0  0  0  0  0  0  0  0  0  0  0
  2  3  1  0
  2  1  1  1
  4  3  1  0
  5  4  2  0
  6  7  1  0
  6  5  1  0
  7  8  2  0
  8  4  1  0
  9 10  2  0
  9  2  1  0
 12 11  1  0
 12 14  1  0
 13 12  2  0
 16 15  1  6
 15 14  1  0
 16 17  1  0
 17  9  1  0
 18 16  1  0
 19 18  2  0
 20 21  1  0
 20 18  1  0
 22 21  1  0
 23 22  1  0
 24 23  1  0
 24 20  1  0
 24 25  1  6
 26 25  1  0
 27 25  2  0
M  END
$$$$
