HQP.pdb
     RDKit          3D

 27 28  0  0  1  0  0  0  0  0999 V2000
   25.5796  -33.9017  -14.9895 N   0  0  0  0  0  0  0  0  0  0  0  0
   26.5347  -34.3247  -14.0089 C   0  0  1  0  0  0  0  0  0  0  0  0
   27.4759  -33.2090  -13.5989 C   0  0  0  0  0  0  0  0  0  0  0  0
   28.2379  -32.8242  -14.8205 C   0  0  0  0  0  0  0  0  0  0  0  0
   29.2875  -33.4759  -15.4276 C   0  0  0  0  0  0  0  0  0  0  0  0
   29.6682  -32.7730  -16.5027 N   0  0  0  0  0  0  0  0  0  0  0  0
   28.8701  -31.6966  -16.5697 C   0  0  0  0  0  0  0  0  0  0  0  0
   27.9909  -31.7208  -15.5422 N   0  0  0  0  0  0  0  0  0  0  0  0
   25.8462  -34.7814  -12.7519 C   0  0  0  0  0  0  0  0  0  0  0  0
   24.8272  -35.5133  -12.8040 O   0  0  0  0  0  0  0  0  0  0  0  0
   24.3119  -37.6810  -10.8242 N   0  0  0  0  0  0  0  0  0  0  0  0
   25.1263  -38.1414   -9.7586 C   0  0  0  0  0  0  0  0  0  0  0  0
   24.6510  -39.0380   -9.0145 O   0  0  0  0  0  0  0  0  0  0  0  0
   26.4808  -37.5712   -9.5521 C   0  0  0  0  0  0  0  0  0  0  0  0
   26.7313  -36.5309  -10.6013 C   0  0  0  0  0  0  0  0  0  0  0  0
   25.9974  -35.2211  -10.2644 C   0  0  2  0  0  0  0  0  0  0  0  0
   26.3191  -34.4053  -11.4767 N   0  0  0  0  0  0  0  0  0  0  0  0
   26.6261  -34.6655   -9.0795 C   0  0  0  0  0  0  0  0  0  0  0  0
   27.8851  -35.0165   -8.9596 O   0  0  0  0  0  0  0  0  0  0  0  0
   26.1567  -33.8439   -8.0604 N   0  0  0  0  0  0  0  0  0  0  0  0
   25.0382  -32.8483   -8.3638 C   0  0  0  0  0  0  0  0  0  0  0  0
   24.0636  -33.2761   -7.2964 C   0  0  0  0  0  0  0  0  0  0  0  0
   24.9021  -33.8370   -6.1709 C   0  0  0  0  0  0  0  0  0  0  0  0
   26.3312  -33.5506   -6.6931 C   0  0  1  0  0  0  0  0  0  0  0  0
   27.3177  -34.1572   -5.8624 C   0  0  0  0  0  0  0  0  0  0  0  0
   27.8006  -35.4313   -6.2576 O   0  0  0  0  0  0  0  0  0  0  0  0
   27.8064  -33.7119   -4.8390 O   0  0  0  0  0  0  0  0  0  0  0  0
  2  3  1  0
  2  1  1  6
  4  3  1  0
  5  4  2  0
  6  7  1  0
  6  5  1  0
  7  8  2  0
  8  4  1  0
  9 10  2  0
  9  2  1  0
 12 11  1  0
 12 14  1  0
 13 12  2  0
 16 15  1  6
 15 14  1  0
 16 17  1  0
 17  9  1  0
 18 16  1  0
 19 18  2  0
 20 21  1  0
 20 18  1  0
 22 21  1  0
 23 22  1  0
 24 23  1  0
 24 20  1  0
 24 25  1  1
 26 25  1  0
 27 25  2  0
M  END
$$$$
