HQP.pdb
     RDKit          3D

 27 28  0  0  1  0  0  0  0  0999 V2000
   18.1959  -24.5438  -12.8317 N   0  0  0  0  0  0  0  0  0  0  0  0
   16.7878  -24.3953  -12.6129 C   0  0  1  0  0  0  0  0  0  0  0  0
   16.2178  -25.4984  -11.7430 C   0  0  0  0  0  0  0  0  0  0  0  0
   16.3651  -26.7663  -12.5121 C   0  0  0  0  0  0  0  0  0  0  0  0
   17.2003  -27.8336  -12.2708 C   0  0  0  0  0  0  0  0  0  0  0  0
   17.0007  -28.7606  -13.2171 N   0  0  0  0  0  0  0  0  0  0  0  0
   16.0548  -28.2829  -14.0401 C   0  0  0  0  0  0  0  0  0  0  0  0
   15.6603  -27.0612  -13.6147 N   0  0  0  0  0  0  0  0  0  0  0  0
   16.4885  -23.1013  -11.9065 C   0  0  0  0  0  0  0  0  0  0  0  0
   17.2869  -22.6287  -11.0604 O   0  0  0  0  0  0  0  0  0  0  0  0
   15.1102  -18.4097  -14.7989 N   0  0  0  0  0  0  0  0  0  0  0  0
   14.9046  -17.8357  -13.5186 C   0  0  0  0  0  0  0  0  0  0  0  0
   14.7492  -16.5882  -13.4634 O   0  0  0  0  0  0  0  0  0  0  0  0
   14.8784  -18.6951  -12.3091 C   0  0  0  0  0  0  0  0  0  0  0  0
   15.0843  -20.1199  -12.7252 C   0  0  0  0  0  0  0  0  0  0  0  0
   15.0469  -21.0601  -11.5077 C   0  0  2  0  0  0  0  0  0  0  0  0
   15.3060  -22.3773  -12.1685 N   0  0  0  0  0  0  0  0  0  0  0  0
   13.7031  -21.0062  -10.9606 C   0  0  0  0  0  0  0  0  0  0  0  0
   12.7765  -21.2188  -11.8655 O   0  0  0  0  0  0  0  0  0  0  0  0
   13.2155  -20.7751   -9.6789 N   0  0  0  0  0  0  0  0  0  0  0  0
   14.1920  -20.7579   -8.5039 C   0  0  0  0  0  0  0  0  0  0  0  0
   13.8481  -19.3996   -7.9483 C   0  0  0  0  0  0  0  0  0  0  0  0
   12.4018  -19.1567   -8.3139 C   0  0  0  0  0  0  0  0  0  0  0  0
   12.0286  -20.5100   -8.9670 C   0  0  1  0  0  0  0  0  0  0  0  0
   10.7329  -20.4601   -9.5585 C   0  0  0  0  0  0  0  0  0  0  0  0
   10.6641  -20.5513  -10.9726 O   0  0  0  0  0  0  0  0  0  0  0  0
    9.6594  -20.3470   -8.9932 O   0  0  0  0  0  0  0  0  0  0  0  0
  2  3  1  0
  2  1  1  1
  4  3  1  0
  5  4  2  0
  6  7  1  0
  6  5  1  0
  7  8  2  0
  8  4  1  0
  9 10  2  0
  9  2  1  0
 12 11  1  0
 12 14  1  0
 13 12  2  0
 16 15  1  6
 15 14  1  0
 16 17  1  0
 17  9  1  0
 18 16  1  0
 19 18  2  0
 20 21  1  0
 20 18  1  0
 22 21  1  0
 23 22  1  0
 24 23  1  0
 24 20  1  0
 24 25  1  6
 26 25  1  0
 27 25  2  0
M  END
$$$$
