HQP.pdb
     RDKit          3D

 27 28  0  0  1  0  0  0  0  0999 V2000
   21.2990  -18.2605  -17.7241 N   0  0  0  0  0  0  0  0  0  0  0  0
   22.5605  -17.6708  -17.3873 C   0  0  1  0  0  0  0  0  0  0  0  0
   22.5104  -16.1556  -17.3911 C   0  0  0  0  0  0  0  0  0  0  0  0
   22.3045  -15.7399  -18.8074 C   0  0  0  0  0  0  0  0  0  0  0  0
   21.4173  -14.8207  -19.3200 C   0  0  0  0  0  0  0  0  0  0  0  0
   21.5753  -14.7628  -20.6491 N   0  0  0  0  0  0  0  0  0  0  0  0
   22.5468  -15.6321  -20.9662 C   0  0  0  0  0  0  0  0  0  0  0  0
   22.9988  -16.2348  -19.8430 N   0  0  0  0  0  0  0  0  0  0  0  0
   22.9900  -18.0769  -16.0040 C   0  0  0  0  0  0  0  0  0  0  0  0
   24.0138  -17.5789  -15.4742 O   0  0  0  0  0  0  0  0  0  0  0  0
   19.7253  -21.5060  -12.2411 N   0  0  0  0  0  0  0  0  0  0  0  0
   20.6331  -20.9562  -11.3006 C   0  0  0  0  0  0  0  0  0  0  0  0
   20.5724  -21.3869  -10.1199 O   0  0  0  0  0  0  0  0  0  0  0  0
   21.6051  -19.9159  -11.7192 C   0  0  0  0  0  0  0  0  0  0  0  0
   21.3900  -19.6108  -13.1705 C   0  0  0  0  0  0  0  0  0  0  0  0
   22.7327  -19.4732  -13.9093 C   0  0  2  0  0  0  0  0  0  0  0  0
   22.2612  -19.0268  -15.2573 N   0  0  0  0  0  0  0  0  0  0  0  0
   23.3273  -20.7961  -13.9760 C   0  0  0  0  0  0  0  0  0  0  0  0
   22.5387  -21.6803  -14.5407 O   0  0  0  0  0  0  0  0  0  0  0  0
   24.5554  -21.2998  -13.5617 N   0  0  0  0  0  0  0  0  0  0  0  0
   25.6847  -20.3257  -13.2297 C   0  0  0  0  0  0  0  0  0  0  0  0
   25.9890  -20.8049  -11.8334 C   0  0  0  0  0  0  0  0  0  0  0  0
   25.6181  -22.2699  -11.8084 C   0  0  0  0  0  0  0  0  0  0  0  0
   25.2335  -22.5048  -13.2896 C   0  0  1  0  0  0  0  0  0  0  0  0
   24.6726  -23.8011  -13.4800 C   0  0  0  0  0  0  0  0  0  0  0  0
   23.2605  -23.9122  -13.4009 O   0  0  0  0  0  0  0  0  0  0  0  0
   25.2629  -24.8428  -13.7057 O   0  0  0  0  0  0  0  0  0  0  0  0
  2  3  1  0
  2  1  1  1
  4  3  1  0
  5  4  2  0
  6  7  1  0
  6  5  1  0
  7  8  2  0
  8  4  1  0
  9 10  2  0
  9  2  1  0
 12 11  1  0
 12 14  1  0
 13 12  2  0
 16 15  1  1
 15 14  1  0
 16 17  1  0
 17  9  1  0
 18 16  1  0
 19 18  2  0
 20 21  1  0
 20 18  1  0
 22 21  1  0
 23 22  1  0
 24 23  1  0
 24 20  1  0
 24 25  1  1
 26 25  1  0
 27 25  2  0
M  END
$$$$
