HQP.pdb
     RDKit          3D

 27 28  0  0  1  0  0  0  0  0999 V2000
   16.7699  -10.4811  -14.0761 N   0  0  0  0  0  0  0  0  0  0  0  0
   18.0830   -9.9833  -14.3602 C   0  0  1  0  0  0  0  0  0  0  0  0
   18.5291  -10.3013  -15.7738 C   0  0  0  0  0  0  0  0  0  0  0  0
   18.6582  -11.7837  -15.8563 C   0  0  0  0  0  0  0  0  0  0  0  0
   19.6377  -12.5982  -15.3347 C   0  0  0  0  0  0  0  0  0  0  0  0
   19.3556  -13.8692  -15.6504 N   0  0  0  0  0  0  0  0  0  0  0  0
   18.2167  -13.8533  -16.3592 C   0  0  0  0  0  0  0  0  0  0  0  0
   17.7830  -12.5789  -16.4897 N   0  0  0  0  0  0  0  0  0  0  0  0
   18.1287   -8.4855  -14.2285 C   0  0  0  0  0  0  0  0  0  0  0  0
   17.1260   -7.7826  -14.5065 O   0  0  0  0  0  0  0  0  0  0  0  0
   21.1572   -5.6546   -9.8736 N   0  0  0  0  0  0  0  0  0  0  0  0
   19.8376   -6.1729   -9.8426 C   0  0  0  0  0  0  0  0  0  0  0  0
   19.3079   -6.3361   -8.7130 O   0  0  0  0  0  0  0  0  0  0  0  0
   19.1331   -6.5012  -11.1068 C   0  0  0  0  0  0  0  0  0  0  0  0
   20.0558   -6.2330  -12.2568 C   0  0  0  0  0  0  0  0  0  0  0  0
   19.3089   -6.3376  -13.5981 C   0  0  2  0  0  0  0  0  0  0  0  0
   19.2940   -7.8214  -13.7902 N   0  0  0  0  0  0  0  0  0  0  0  0
   20.1320   -5.6895  -14.6033 C   0  0  0  0  0  0  0  0  0  0  0  0
   21.2843   -6.2919  -14.7830 O   0  0  0  0  0  0  0  0  0  0  0  0
   19.9370   -4.5676  -15.4014 N   0  0  0  0  0  0  0  0  0  0  0  0
   18.5131   -4.1627  -15.7795 C   0  0  0  0  0  0  0  0  0  0  0  0
   18.5470   -2.7398  -15.2833 C   0  0  0  0  0  0  0  0  0  0  0  0
   19.9895   -2.3001  -15.3846 C   0  0  0  0  0  0  0  0  0  0  0  0
   20.6299   -3.5350  -16.0644 C   0  0  1  0  0  0  0  0  0  0  0  0
   22.0500   -3.4230  -16.1102 C   0  0  0  0  0  0  0  0  0  0  0  0
   22.6747   -3.6330  -17.3665 O   0  0  0  0  0  0  0  0  0  0  0  0
   22.8073   -3.1654  -15.1911 O   0  0  0  0  0  0  0  0  0  0  0  0
  2  3  1  0
  2  1  1  6
  4  3  1  0
  5  4  2  0
  6  7  1  0
  6  5  1  0
  7  8  2  0
  8  4  1  0
  9 10  2  0
  9  2  1  0
 12 11  1  0
 12 14  1  0
 13 12  2  0
 16 15  1  1
 15 14  1  0
 16 17  1  0
 17  9  1  0
 18 16  1  0
 19 18  2  0
 20 21  1  0
 20 18  1  0
 22 21  1  0
 23 22  1  0
 24 23  1  0
 24 20  1  0
 24 25  1  1
 26 25  1  0
 27 25  2  0
M  END
$$$$
