HQP.pdb
     RDKit          3D

 27 28  0  0  1  0  0  0  0  0999 V2000
   24.0362  -15.5433  -17.6934 N   0  0  0  0  0  0  0  0  0  0  0  0
   24.1786  -14.4394  -16.7914 C   0  0  1  0  0  0  0  0  0  0  0  0
   25.6258  -14.0277  -16.6046 C   0  0  0  0  0  0  0  0  0  0  0  0
   26.3320  -15.2050  -16.0248 C   0  0  0  0  0  0  0  0  0  0  0  0
   26.9370  -16.2578  -16.6733 C   0  0  0  0  0  0  0  0  0  0  0  0
   27.4488  -17.0918  -15.7583 N   0  0  0  0  0  0  0  0  0  0  0  0
   27.1696  -16.5709  -14.5538 C   0  0  0  0  0  0  0  0  0  0  0  0
   26.4853  -15.4146  -14.7087 N   0  0  0  0  0  0  0  0  0  0  0  0
   23.4568  -13.2260  -17.3106 C   0  0  0  0  0  0  0  0  0  0  0  0
   23.2886  -13.0537  -18.5430 O   0  0  0  0  0  0  0  0  0  0  0  0
   18.3013  -13.2361  -16.0557 N   0  0  0  0  0  0  0  0  0  0  0  0
   18.2057  -11.9706  -16.6884 C   0  0  0  0  0  0  0  0  0  0  0  0
   17.0521  -11.5434  -16.9532 O   0  0  0  0  0  0  0  0  0  0  0  0
   19.4330  -11.2024  -17.0138 C   0  0  0  0  0  0  0  0  0  0  0  0
   20.6284  -12.0027  -16.5943 C   0  0  0  0  0  0  0  0  0  0  0  0
   21.9329  -11.2473  -16.9030 C   0  0  2  0  0  0  0  0  0  0  0  0
   22.9460  -12.2441  -16.4353 N   0  0  0  0  0  0  0  0  0  0  0  0
   21.9502  -10.0566  -16.0723 C   0  0  0  0  0  0  0  0  0  0  0  0
   21.7301  -10.3173  -14.8049 O   0  0  0  0  0  0  0  0  0  0  0  0
   22.1521   -8.7107  -16.3578 N   0  0  0  0  0  0  0  0  0  0  0  0
   22.7781   -8.3203  -17.6957 C   0  0  0  0  0  0  0  0  0  0  0  0
   21.7070   -7.3744  -18.1754 C   0  0  0  0  0  0  0  0  0  0  0  0
   21.0754   -6.7979  -16.9291 C   0  0  0  0  0  0  0  0  0  0  0  0
   21.9703   -7.4176  -15.8280 C   0  0  1  0  0  0  0  0  0  0  0  0
   21.4524   -7.1494  -14.5276 C   0  0  0  0  0  0  0  0  0  0  0  0
   20.2769   -7.8449  -14.1440 O   0  0  0  0  0  0  0  0  0  0  0  0
   21.8995   -6.3854  -13.6903 O   0  0  0  0  0  0  0  0  0  0  0  0
  2  3  1  0
  2  1  1  6
  4  3  1  0
  5  4  2  0
  6  7  1  0
  6  5  1  0
  7  8  2  0
  8  4  1  0
  9 10  2  0
  9  2  1  0
 12 11  1  0
 12 14  1  0
 13 12  2  0
 16 15  1  1
 15 14  1  0
 16 17  1  0
 17  9  1  0
 18 16  1  0
 19 18  2  0
 20 21  1  0
 20 18  1  0
 22 21  1  0
 23 22  1  0
 24 23  1  0
 24 20  1  0
 24 25  1  1
 26 25  1  0
 27 25  2  0
M  END
$$$$
