MTE.pdb
     RDKit          3D

 25 24  0  0  1  0  0  0  0  0999 V2000
   12.5294  -15.1935  -14.8360 C   0  0  0  0  0  0  0  0  0  0  0  0
   13.8018  -14.1966  -14.0172 S   0  0  0  0  0  0  0  0  0  0  0  0
   15.0690  -13.6439  -15.1790 C   0  0  0  0  0  0  0  0  0  0  0  0
   16.0661  -12.7292  -14.5669 C   0  0  0  0  0  0  0  0  0  0  0  0
   17.2152  -12.3286  -15.4225 C   0  0  2  0  0  0  0  0  0  0  0  0
   18.0626  -13.4825  -15.7010 N   0  0  0  0  0  0  0  0  0  0  0  0
   18.0265  -11.2048  -14.8955 C   0  0  0  0  0  0  0  0  0  0  0  0
   19.2587  -11.3864  -14.7547 O   0  0  0  0  0  0  0  0  0  0  0  0
   20.0892   -9.5300  -15.8132 C   0  0  0  0  0  0  0  0  0  0  0  0
   19.2147   -8.4046  -15.3227 C   0  0  1  0  0  0  0  0  0  0  0  0
   18.3710   -8.1094  -16.4336 O   0  0  0  0  0  0  0  0  0  0  0  0
   18.2942   -8.7758  -14.1875 C   0  0  2  0  0  0  0  0  0  0  0  0
   17.5058   -9.9515  -14.5439 N   0  0  0  0  0  0  0  0  0  0  0  0
   17.3062   -7.6988  -13.8533 C   0  0  0  0  0  0  0  0  0  0  0  0
   16.0899   -8.0441  -13.6286 O   0  0  0  0  0  0  0  0  0  0  0  0
   17.6045   -6.3288  -13.7624 N   0  0  0  0  0  0  0  0  0  0  0  0
   17.2262   -5.4413  -12.7273 C   0  0  1  0  0  0  0  0  0  0  0  0
   17.5720   -5.8644  -11.3138 C   0  0  0  0  0  0  0  0  0  0  0  0
   17.0288   -4.9294  -10.2644 C   0  0  0  0  0  0  0  0  0  0  0  0
   16.5421   -5.6891   -9.0716 C   0  0  0  0  0  0  0  0  0  0  0  0
   17.2281   -6.6644   -8.6779 O   0  0  0  0  0  0  0  0  0  0  0  0
   17.5637   -4.0276  -12.9042 C   0  0  0  0  0  0  0  0  0  0  0  0
   16.5369   -3.0979  -12.6359 O   0  0  0  0  0  0  0  0  0  0  0  0
   15.3764   -5.3392   -8.4152 O   0  0  0  0  0  0  0  0  0  0  0  0
   18.6661   -3.5946  -13.2659 O   0  0  0  0  0  0  0  0  0  0  0  0
  2  1  1  0
  3  2  1  0
  4  3  1  0
  5  4  1  0
  5  6  1  1
  7  5  1  0
  7 13  1  0
  8  7  2  0
 10  9  1  6
 10 12  1  0
 11 10  1  0
 12 13  1  6
 12 14  1  0
 14 16  1  0
 15 14  2  0
 16 17  1  0
 17 22  1  0
 18 19  1  0
 17 18  1  1
 20 21  2  0
 20 19  1  0
 22 25  2  0
 22 23  1  0
 24 20  1  0
M  END
$$$$
