MTE.pdb
     RDKit          3D

 25 24  0  0  1  0  0  0  0  0999 V2000
   27.4219  -18.2930   -6.1309 C   0  0  0  0  0  0  0  0  0  0  0  0
   26.6950  -18.8297   -7.7015 S   0  0  0  0  0  0  0  0  0  0  0  0
   27.9418  -19.5060   -8.8190 C   0  0  0  0  0  0  0  0  0  0  0  0
   27.4271  -19.7536  -10.1900 C   0  0  0  0  0  0  0  0  0  0  0  0
   26.3601  -20.7813  -10.3248 C   0  0  2  0  0  0  0  0  0  0  0  0
   26.7801  -22.0293   -9.6976 N   0  0  0  0  0  0  0  0  0  0  0  0
   25.9000  -21.0280  -11.7128 C   0  0  0  0  0  0  0  0  0  0  0  0
   26.7308  -21.4821  -12.5341 O   0  0  0  0  0  0  0  0  0  0  0  0
   24.0826  -23.6353  -13.0526 C   0  0  0  0  0  0  0  0  0  0  0  0
   23.2787  -22.4114  -13.4100 C   0  0  1  0  0  0  0  0  0  0  0  0
   22.3846  -22.2487  -12.3114 O   0  0  0  0  0  0  0  0  0  0  0  0
   24.0801  -21.1364  -13.4873 C   0  0  2  0  0  0  0  0  0  0  0  0
   24.5960  -20.7865  -12.1673 N   0  0  0  0  0  0  0  0  0  0  0  0
   23.2719  -19.9586  -13.9430 C   0  0  0  0  0  0  0  0  0  0  0  0
   22.7557  -19.1977  -13.0466 O   0  0  0  0  0  0  0  0  0  0  0  0
   23.0317  -19.6138  -15.2838 N   0  0  0  0  0  0  0  0  0  0  0  0
   22.1323  -18.6322  -15.7630 C   0  0  1  0  0  0  0  0  0  0  0  0
   22.1946  -18.3241  -17.2455 C   0  0  0  0  0  0  0  0  0  0  0  0
   21.3673  -17.1275  -17.6385 C   0  0  0  0  0  0  0  0  0  0  0  0
   21.4508  -16.8802  -19.1112 C   0  0  0  0  0  0  0  0  0  0  0  0
   22.2235  -17.6058  -19.7845 O   0  0  0  0  0  0  0  0  0  0  0  0
   20.7317  -18.7543  -15.3539 C   0  0  0  0  0  0  0  0  0  0  0  0
   20.1064  -17.5763  -14.8934 O   0  0  0  0  0  0  0  0  0  0  0  0
   20.7067  -15.8883  -19.7232 O   0  0  0  0  0  0  0  0  0  0  0  0
   20.0662  -19.7983  -15.3818 O   0  0  0  0  0  0  0  0  0  0  0  0
  2  1  1  0
  3  2  1  0
  4  3  1  0
  5  4  1  0
  5  6  1  6
  7  5  1  0
  7 13  1  0
  8  7  2  0
 10  9  1  1
 10 12  1  0
 11 10  1  0
 12 13  1  1
 12 14  1  0
 14 16  1  0
 15 14  2  0
 16 17  1  0
 17 22  1  0
 18 19  1  0
 17 18  1  6
 20 21  2  0
 20 19  1  0
 22 25  2  0
 22 23  1  0
 24 20  1  0
M  END
$$$$
