MTE.pdb
     RDKit          3D

 25 24  0  0  1  0  0  0  0  0999 V2000
   25.8645  -17.3490  -18.6097 C   0  0  0  0  0  0  0  0  0  0  0  0
   27.3175  -18.3445  -19.0351 S   0  0  0  0  0  0  0  0  0  0  0  0
   27.7294  -19.5197  -17.7274 C   0  0  0  0  0  0  0  0  0  0  0  0
   26.8899  -19.3620  -16.5124 C   0  0  0  0  0  0  0  0  0  0  0  0
   27.2408  -20.2155  -15.3456 C   0  0  2  0  0  0  0  0  0  0  0  0
   28.3384  -21.1124  -15.6893 N   0  0  0  0  0  0  0  0  0  0  0  0
   26.1096  -20.9790  -14.7656 C   0  0  0  0  0  0  0  0  0  0  0  0
   25.9131  -22.1443  -15.1833 O   0  0  0  0  0  0  0  0  0  0  0  0
   25.7580  -21.9159  -11.3321 C   0  0  0  0  0  0  0  0  0  0  0  0
   24.3933  -21.3825  -11.6858 C   0  0  1  0  0  0  0  0  0  0  0  0
   24.3820  -20.0651  -11.1405 O   0  0  0  0  0  0  0  0  0  0  0  0
   24.1472  -21.2233  -13.1650 C   0  0  2  0  0  0  0  0  0  0  0  0
   25.2448  -20.4830  -13.7800 N   0  0  0  0  0  0  0  0  0  0  0  0
   22.9000  -20.4512  -13.4754 C   0  0  0  0  0  0  0  0  0  0  0  0
   23.0270  -19.2674  -13.9565 O   0  0  0  0  0  0  0  0  0  0  0  0
   21.5900  -20.9215  -13.2835 N   0  0  0  0  0  0  0  0  0  0  0  0
   20.3874  -20.2198  -13.5357 C   0  0  1  0  0  0  0  0  0  0  0  0
   20.2159  -19.6509  -14.9297 C   0  0  0  0  0  0  0  0  0  0  0  0
   20.0447  -20.7112  -15.9867 C   0  0  0  0  0  0  0  0  0  0  0  0
   19.4015  -20.1451  -17.2126 C   0  0  0  0  0  0  0  0  0  0  0  0
   19.8933  -20.4507  -18.3269 O   0  0  0  0  0  0  0  0  0  0  0  0
   19.1398  -20.8637  -13.1202 C   0  0  0  0  0  0  0  0  0  0  0  0
   19.2422  -22.1923  -12.6567 O   0  0  0  0  0  0  0  0  0  0  0  0
   18.3011  -19.3114  -17.1349 O   0  0  0  0  0  0  0  0  0  0  0  0
   18.0194  -20.3368  -13.1452 O   0  0  0  0  0  0  0  0  0  0  0  0
  2  1  1  0
  3  2  1  0
  4  3  1  0
  5  4  1  0
  5  6  1  6
  7  5  1  0
  7 13  1  0
  8  7  2  0
 10  9  1  6
 10 12  1  0
 11 10  1  0
 12 13  1  1
 12 14  1  0
 14 16  1  0
 15 14  2  0
 16 17  1  0
 17 22  1  0
 18 19  1  0
 17 18  1  6
 20 21  2  0
 20 19  1  0
 22 25  2  0
 22 23  1  0
 24 20  1  0
M  END
$$$$
