MTE.pdb
     RDKit          3D

 25 24  0  0  1  0  0  0  0  0999 V2000
   31.7172  -21.4087   -7.9071 C   0  0  0  0  0  0  0  0  0  0  0  0
   32.6011  -21.9344   -9.3989 S   0  0  0  0  0  0  0  0  0  0  0  0
   31.4631  -22.3917  -10.7244 C   0  0  0  0  0  0  0  0  0  0  0  0
   30.2183  -21.5816  -10.7333 C   0  0  0  0  0  0  0  0  0  0  0  0
   29.2254  -21.8987  -11.7947 C   0  0  2  0  0  0  0  0  0  0  0  0
   29.9082  -22.2695  -13.0290 N   0  0  0  0  0  0  0  0  0  0  0  0
   28.2256  -20.8350  -12.0548 C   0  0  0  0  0  0  0  0  0  0  0  0
   27.8217  -20.1586  -11.0799 O   0  0  0  0  0  0  0  0  0  0  0  0
   28.5640  -17.9814  -14.4833 C   0  0  0  0  0  0  0  0  0  0  0  0
   27.2170  -18.6117  -14.7285 C   0  0  1  0  0  0  0  0  0  0  0  0
   27.4344  -19.4768  -15.8409 O   0  0  0  0  0  0  0  0  0  0  0  0
   26.7235  -19.4909  -13.6072 C   0  0  2  0  0  0  0  0  0  0  0  0
   27.7018  -20.5356  -13.3202 N   0  0  0  0  0  0  0  0  0  0  0  0
   25.4429  -20.1992  -13.9332 C   0  0  0  0  0  0  0  0  0  0  0  0
   25.3873  -21.4669  -13.7363 O   0  0  0  0  0  0  0  0  0  0  0  0
   24.2857  -19.5838  -14.4397 N   0  0  0  0  0  0  0  0  0  0  0  0
   23.0698  -20.2156  -14.7926 C   0  0  1  0  0  0  0  0  0  0  0  0
   22.3970  -21.0385  -13.7125 C   0  0  0  0  0  0  0  0  0  0  0  0
   21.7190  -20.1981  -12.6615 C   0  0  0  0  0  0  0  0  0  0  0  0
   20.3415  -20.7065  -12.3771 C   0  0  0  0  0  0  0  0  0  0  0  0
   20.2084  -21.5613  -11.4669 O   0  0  0  0  0  0  0  0  0  0  0  0
   22.0644  -19.3955  -15.4712 C   0  0  0  0  0  0  0  0  0  0  0  0
   22.3271  -18.0112  -15.5436 O   0  0  0  0  0  0  0  0  0  0  0  0
   19.2423  -20.2580  -13.0862 O   0  0  0  0  0  0  0  0  0  0  0  0
   21.0176  -19.8203  -15.9784 O   0  0  0  0  0  0  0  0  0  0  0  0
  2  1  1  0
  3  2  1  0
  4  3  1  0
  5  4  1  0
  5  6  1  6
  7  5  1  0
  7 13  1  0
  8  7  2  0
 10  9  1  1
 10 12  1  0
 11 10  1  0
 12 13  1  6
 12 14  1  0
 14 16  1  0
 15 14  2  0
 16 17  1  0
 17 22  1  0
 18 19  1  0
 17 18  1  1
 20 21  2  0
 20 19  1  0
 22 25  2  0
 22 23  1  0
 24 20  1  0
M  END
$$$$
