MTE.pdb
     RDKit          3D

 25 24  0  0  1  0  0  0  0  0999 V2000
   24.1818  -21.1439  -17.3108 C   0  0  0  0  0  0  0  0  0  0  0  0
   22.3797  -21.2079  -17.4887 S   0  0  0  0  0  0  0  0  0  0  0  0
   21.5887  -19.7286  -16.8201 C   0  0  0  0  0  0  0  0  0  0  0  0
   22.5340  -18.8281  -16.1120 C   0  0  0  0  0  0  0  0  0  0  0  0
   21.9859  -17.5297  -15.6358 C   0  0  2  0  0  0  0  0  0  0  0  0
   21.0604  -16.9816  -16.6209 N   0  0  0  0  0  0  0  0  0  0  0  0
   23.0050  -16.5188  -15.2634 C   0  0  0  0  0  0  0  0  0  0  0  0
   23.8908  -16.8539  -14.4424 O   0  0  0  0  0  0  0  0  0  0  0  0
   25.5378  -15.1578  -17.3773 C   0  0  0  0  0  0  0  0  0  0  0  0
   25.4339  -14.7872  -15.9200 C   0  0  1  0  0  0  0  0  0  0  0  0
   26.3665  -13.7198  -15.7646 O   0  0  0  0  0  0  0  0  0  0  0  0
   24.0934  -14.2323  -15.5089 C   0  0  2  0  0  0  0  0  0  0  0  0
   23.0429  -15.2120  -15.7694 N   0  0  0  0  0  0  0  0  0  0  0  0
   23.7080  -12.9982  -16.2681 C   0  0  0  0  0  0  0  0  0  0  0  0
   23.0621  -13.1436  -17.3684 O   0  0  0  0  0  0  0  0  0  0  0  0
   23.9963  -11.6819  -15.8700 N   0  0  0  0  0  0  0  0  0  0  0  0
   23.4826  -10.4898  -16.4331 C   0  0  1  0  0  0  0  0  0  0  0  0
   22.2381   -9.9172  -15.7849 C   0  0  0  0  0  0  0  0  0  0  0  0
   22.5115   -9.2488  -14.4624 C   0  0  0  0  0  0  0  0  0  0  0  0
   21.2462   -8.7386  -13.8496 C   0  0  0  0  0  0  0  0  0  0  0  0
   20.1812   -8.8813  -14.4993 O   0  0  0  0  0  0  0  0  0  0  0  0
   24.4355   -9.4078  -16.6878 C   0  0  0  0  0  0  0  0  0  0  0  0
   23.9958   -8.3696  -17.5360 O   0  0  0  0  0  0  0  0  0  0  0  0
   21.2362   -8.1279  -12.6089 O   0  0  0  0  0  0  0  0  0  0  0  0
   25.5805   -9.3376  -16.2212 O   0  0  0  0  0  0  0  0  0  0  0  0
  2  1  1  0
  3  2  1  0
  4  3  1  0
  5  4  1  0
  5  6  1  6
  7  5  1  0
  7 13  1  0
  8  7  2  0
 10  9  1  6
 10 12  1  0
 11 10  1  0
 12 13  1  6
 12 14  1  0
 14 16  1  0
 15 14  2  0
 16 17  1  0
 17 22  1  0
 18 19  1  0
 17 18  1  1
 20 21  2  0
 20 19  1  0
 22 25  2  0
 22 23  1  0
 24 20  1  0
M  END
$$$$
