MTE.pdb
     RDKit          3D

 25 24  0  0  1  0  0  0  0  0999 V2000
   30.0723  -21.1949   -9.0995 C   0  0  0  0  0  0  0  0  0  0  0  0
   29.1093  -20.6297   -7.6725 S   0  0  0  0  0  0  0  0  0  0  0  0
   27.3911  -20.2944   -8.1155 C   0  0  0  0  0  0  0  0  0  0  0  0
   27.1521  -20.3013   -9.5814 C   0  0  0  0  0  0  0  0  0  0  0  0
   25.7653  -20.0053  -10.0310 C   0  0  2  0  0  0  0  0  0  0  0  0
   24.8128  -20.8455   -9.3140 N   0  0  0  0  0  0  0  0  0  0  0  0
   25.5465  -20.1060  -11.4941 C   0  0  0  0  0  0  0  0  0  0  0  0
   26.2889  -19.4318  -12.2460 O   0  0  0  0  0  0  0  0  0  0  0  0
   26.2018  -22.4852  -13.9539 C   0  0  0  0  0  0  0  0  0  0  0  0
   24.7285  -22.2216  -14.1327 C   0  0  1  0  0  0  0  0  0  0  0  0
   24.0958  -23.2704  -13.4026 O   0  0  0  0  0  0  0  0  0  0  0  0
   24.2435  -20.9336  -13.5166 C   0  0  2  0  0  0  0  0  0  0  0  0
   24.5631  -20.9063  -12.0925 N   0  0  0  0  0  0  0  0  0  0  0  0
   22.7576  -20.7571  -13.6122 C   0  0  0  0  0  0  0  0  0  0  0  0
   22.1262  -20.3758  -12.5611 O   0  0  0  0  0  0  0  0  0  0  0  0
   21.9912  -20.9747  -14.7696 N   0  0  0  0  0  0  0  0  0  0  0  0
   20.6086  -20.7233  -14.9355 C   0  0  1  0  0  0  0  0  0  0  0  0
   20.1364  -19.3151  -14.6344 C   0  0  0  0  0  0  0  0  0  0  0  0
   20.4754  -18.3297  -15.7229 C   0  0  0  0  0  0  0  0  0  0  0  0
   19.3310  -17.4015  -15.9792 C   0  0  0  0  0  0  0  0  0  0  0  0
   18.9438  -16.6732  -15.0324 O   0  0  0  0  0  0  0  0  0  0  0  0
   19.9918  -21.1833  -16.1812 C   0  0  0  0  0  0  0  0  0  0  0  0
   18.5832  -21.2624  -16.1933 O   0  0  0  0  0  0  0  0  0  0  0  0
   18.7113  -17.3381  -17.2137 O   0  0  0  0  0  0  0  0  0  0  0  0
   20.6053  -21.5027  -17.2084 O   0  0  0  0  0  0  0  0  0  0  0  0
  2  1  1  0
  3  2  1  0
  4  3  1  0
  5  4  1  0
  5  6  1  1
  7  5  1  0
  7 13  1  0
  8  7  2  0
 10  9  1  1
 10 12  1  0
 11 10  1  0
 12 13  1  1
 12 14  1  0
 14 16  1  0
 15 14  2  0
 16 17  1  0
 17 22  1  0
 18 19  1  0
 17 18  1  6
 20 21  2  0
 20 19  1  0
 22 25  2  0
 22 23  1  0
 24 20  1  0
M  END
$$$$
