MTE.pdb
     RDKit          3D

 25 24  0  0  1  0  0  0  0  0999 V2000
   26.4226  -16.5201  -21.4504 C   0  0  0  0  0  0  0  0  0  0  0  0
   25.2935  -16.0233  -20.1232 S   0  0  0  0  0  0  0  0  0  0  0  0
   25.3473  -14.2421  -19.8310 C   0  0  0  0  0  0  0  0  0  0  0  0
   24.3564  -13.7834  -18.8243 C   0  0  0  0  0  0  0  0  0  0  0  0
   24.3576  -12.3309  -18.5031 C   0  0  2  0  0  0  0  0  0  0  0  0
   25.6745  -11.9206  -18.0290 N   0  0  0  0  0  0  0  0  0  0  0  0
   23.3062  -11.8994  -17.5506 C   0  0  0  0  0  0  0  0  0  0  0  0
   22.1214  -12.2254  -17.7975 O   0  0  0  0  0  0  0  0  0  0  0  0
   22.9344  -12.6726  -13.8806 C   0  0  0  0  0  0  0  0  0  0  0  0
   22.8941  -11.1753  -14.0483 C   0  0  1  0  0  0  0  0  0  0  0  0
   24.2417  -10.7638  -13.8298 O   0  0  0  0  0  0  0  0  0  0  0  0
   22.5365  -10.7100  -15.4373 C   0  0  2  0  0  0  0  0  0  0  0  0
   23.5502  -11.1501  -16.3911 N   0  0  0  0  0  0  0  0  0  0  0  0
   22.4705   -9.2172  -15.5605 C   0  0  0  0  0  0  0  0  0  0  0  0
   23.4267   -8.6195  -16.1747 O   0  0  0  0  0  0  0  0  0  0  0  0
   21.4370   -8.4099  -15.0560 N   0  0  0  0  0  0  0  0  0  0  0  0
   21.3158   -7.0055  -15.1789 C   0  0  1  0  0  0  0  0  0  0  0  0
   21.2686   -6.4518  -16.5888 C   0  0  0  0  0  0  0  0  0  0  0  0
   19.9703   -6.7408  -17.2971 C   0  0  0  0  0  0  0  0  0  0  0  0
   19.8990   -6.0121  -18.6012 C   0  0  0  0  0  0  0  0  0  0  0  0
   20.9422   -5.4495  -19.0161 O   0  0  0  0  0  0  0  0  0  0  0  0
   20.2865   -6.3514  -14.3687 C   0  0  0  0  0  0  0  0  0  0  0  0
   20.3575   -4.9452  -14.2779 O   0  0  0  0  0  0  0  0  0  0  0  0
   18.7288   -5.9525  -19.3355 O   0  0  0  0  0  0  0  0  0  0  0  0
   19.3729   -6.9318  -13.7670 O   0  0  0  0  0  0  0  0  0  0  0  0
  2  1  1  0
  3  2  1  0
  4  3  1  0
  5  4  1  0
  5  6  1  1
  7  5  1  0
  7 13  1  0
  8  7  2  0
 10  9  1  6
 10 12  1  0
 11 10  1  0
 12 13  1  6
 12 14  1  0
 14 16  1  0
 15 14  2  0
 16 17  1  0
 17 22  1  0
 18 19  1  0
 17 18  1  6
 20 21  2  0
 20 19  1  0
 22 25  2  0
 22 23  1  0
 24 20  1  0
M  END
$$$$
