MTE.pdb
     RDKit          3D

 25 24  0  0  1  0  0  0  0  0999 V2000
   20.9694  -19.2013   -9.2294 C   0  0  0  0  0  0  0  0  0  0  0  0
   21.2572  -20.6666   -8.2032 S   0  0  0  0  0  0  0  0  0  0  0  0
   20.1953  -22.0435   -8.6905 C   0  0  0  0  0  0  0  0  0  0  0  0
   20.3532  -23.2400   -7.8249 C   0  0  0  0  0  0  0  0  0  0  0  0
   19.5503  -24.4374   -8.1916 C   0  0  2  0  0  0  0  0  0  0  0  0
   19.3808  -24.5066   -9.6386 N   0  0  0  0  0  0  0  0  0  0  0  0
   18.2375  -24.5438   -7.5102 C   0  0  0  0  0  0  0  0  0  0  0  0
   17.2463  -24.0088   -8.0600 O   0  0  0  0  0  0  0  0  0  0  0  0
   16.1080  -27.1380   -7.5829 C   0  0  0  0  0  0  0  0  0  0  0  0
   16.3373  -26.9400   -6.1064 C   0  0  1  0  0  0  0  0  0  0  0  0
   17.4655  -27.7621   -5.8157 O   0  0  0  0  0  0  0  0  0  0  0  0
   16.7320  -25.5379   -5.7163 C   0  0  2  0  0  0  0  0  0  0  0  0
   18.0319  -25.2038   -6.2906 N   0  0  0  0  0  0  0  0  0  0  0  0
   16.8732  -25.3556   -4.2349 C   0  0  0  0  0  0  0  0  0  0  0  0
   17.9440  -24.8004   -3.7944 O   0  0  0  0  0  0  0  0  0  0  0  0
   15.9198  -25.7441   -3.2787 N   0  0  0  0  0  0  0  0  0  0  0  0
   15.8812  -25.3720   -1.9141 C   0  0  1  0  0  0  0  0  0  0  0  0
   15.4660  -23.9459   -1.6134 C   0  0  0  0  0  0  0  0  0  0  0  0
   15.5025  -23.6141   -0.1440 C   0  0  0  0  0  0  0  0  0  0  0  0
   14.9257  -22.2582    0.1124 C   0  0  0  0  0  0  0  0  0  0  0  0
   13.7229  -22.0657   -0.1923 O   0  0  0  0  0  0  0  0  0  0  0  0
   15.1922  -26.2794   -0.9945 C   0  0  0  0  0  0  0  0  0  0  0  0
   15.8135  -26.5016    0.2526 O   0  0  0  0  0  0  0  0  0  0  0  0
   15.6818  -21.2415    0.6664 O   0  0  0  0  0  0  0  0  0  0  0  0
   14.1216  -26.8569   -1.2266 O   0  0  0  0  0  0  0  0  0  0  0  0
  2  1  1  0
  3  2  1  0
  4  3  1  0
  5  4  1  0
  5  6  1  6
  7  5  1  0
  7 13  1  0
  8  7  2  0
 10  9  1  6
 10 12  1  0
 11 10  1  0
 12 13  1  6
 12 14  1  0
 14 16  1  0
 15 14  2  0
 16 17  1  0
 17 22  1  0
 18 19  1  0
 17 18  1  6
 20 21  2  0
 20 19  1  0
 22 25  2  0
 22 23  1  0
 24 20  1  0
M  END
$$$$
