MTE.pdb
     RDKit          3D

 25 24  0  0  1  0  0  0  0  0999 V2000
   27.0819  -18.8723   -6.6066 C   0  0  0  0  0  0  0  0  0  0  0  0
   27.9532  -20.2824   -7.3386 S   0  0  0  0  0  0  0  0  0  0  0  0
   26.9803  -21.0662   -8.6424 C   0  0  0  0  0  0  0  0  0  0  0  0
   26.6461  -20.1447   -9.7583 C   0  0  0  0  0  0  0  0  0  0  0  0
   25.8123  -20.7038  -10.8561 C   0  0  2  0  0  0  0  0  0  0  0  0
   26.3165  -22.0129  -11.2552 N   0  0  0  0  0  0  0  0  0  0  0  0
   25.6629  -19.8230  -12.0396 C   0  0  0  0  0  0  0  0  0  0  0  0
   25.0926  -18.7183  -11.8804 O   0  0  0  0  0  0  0  0  0  0  0  0
   28.5056  -18.7385  -14.4121 C   0  0  0  0  0  0  0  0  0  0  0  0
   27.3482  -19.2555  -15.2275 C   0  0  1  0  0  0  0  0  0  0  0  0
   27.6819  -20.6183  -15.4813 O   0  0  0  0  0  0  0  0  0  0  0  0
   26.0288  -19.2786  -14.4978 C   0  0  2  0  0  0  0  0  0  0  0  0
   26.1179  -20.1446  -13.3260 N   0  0  0  0  0  0  0  0  0  0  0  0
   24.9044  -19.8193  -15.3294 C   0  0  0  0  0  0  0  0  0  0  0  0
   24.7692  -21.0939  -15.4061 O   0  0  0  0  0  0  0  0  0  0  0  0
   23.9754  -19.0383  -16.0374 N   0  0  0  0  0  0  0  0  0  0  0  0
   22.6643  -19.4103  -16.4180 C   0  0  1  0  0  0  0  0  0  0  0  0
   21.7775  -19.9742  -15.3261 C   0  0  0  0  0  0  0  0  0  0  0  0
   21.3748  -18.9477  -14.2990 C   0  0  0  0  0  0  0  0  0  0  0  0
   20.2882  -19.4730  -13.4157 C   0  0  0  0  0  0  0  0  0  0  0  0
   19.2089  -18.8328  -13.3701 O   0  0  0  0  0  0  0  0  0  0  0  0
   21.9002  -18.4444  -17.2097 C   0  0  0  0  0  0  0  0  0  0  0  0
   20.7281  -18.9268  -17.8294 O   0  0  0  0  0  0  0  0  0  0  0  0
   20.4544  -20.6247  -12.6686 O   0  0  0  0  0  0  0  0  0  0  0  0
   22.2017  -17.2544  -17.3728 O   0  0  0  0  0  0  0  0  0  0  0  0
  2  1  1  0
  3  2  1  0
  4  3  1  0
  5  4  1  0
  5  6  1  6
  7  5  1  0
  7 13  1  0
  8  7  2  0
 10  9  1  1
 10 12  1  0
 11 10  1  0
 12 13  1  1
 12 14  1  0
 14 16  1  0
 15 14  2  0
 16 17  1  0
 17 22  1  0
 18 19  1  0
 17 18  1  1
 20 21  2  0
 20 19  1  0
 22 25  2  0
 22 23  1  0
 24 20  1  0
M  END
$$$$
