MTE.pdb
     RDKit          3D

 25 24  0  0  1  0  0  0  0  0999 V2000
   27.3074  -20.3952   -5.8617 C   0  0  0  0  0  0  0  0  0  0  0  0
   27.1277  -20.6412   -7.6479 S   0  0  0  0  0  0  0  0  0  0  0  0
   26.9236  -19.0741   -8.5216 C   0  0  0  0  0  0  0  0  0  0  0  0
   26.7276  -19.2401   -9.9845 C   0  0  0  0  0  0  0  0  0  0  0  0
   26.5645  -20.6332  -10.4802 C   0  0  2  0  0  0  0  0  0  0  0  0
   27.8137  -21.3709  -10.3304 N   0  0  0  0  0  0  0  0  0  0  0  0
   26.0579  -20.7482  -11.8691 C   0  0  0  0  0  0  0  0  0  0  0  0
   26.8932  -20.9373  -12.7844 O   0  0  0  0  0  0  0  0  0  0  0  0
   25.8407  -22.6897  -14.0227 C   0  0  0  0  0  0  0  0  0  0  0  0
   24.3997  -22.2484  -14.0434 C   0  0  1  0  0  0  0  0  0  0  0  0
   23.7638  -23.0897  -13.0836 O   0  0  0  0  0  0  0  0  0  0  0  0
   24.1711  -20.8338  -13.5737 C   0  0  2  0  0  0  0  0  0  0  0  0
   24.7052  -20.6594  -12.2264 N   0  0  0  0  0  0  0  0  0  0  0  0
   22.7198  -20.4655  -13.4961 C   0  0  0  0  0  0  0  0  0  0  0  0
   22.0586  -20.8326  -12.4584 O   0  0  0  0  0  0  0  0  0  0  0  0
   22.0165  -19.7424  -14.4743 N   0  0  0  0  0  0  0  0  0  0  0  0
   20.6457  -19.3922  -14.4536 C   0  0  1  0  0  0  0  0  0  0  0  0
   20.1714  -18.4521  -15.5435 C   0  0  0  0  0  0  0  0  0  0  0  0
   19.9135  -19.1465  -16.8558 C   0  0  0  0  0  0  0  0  0  0  0  0
   19.4709  -18.1706  -17.8991 C   0  0  0  0  0  0  0  0  0  0  0  0
   18.3591  -18.3651  -18.4496 O   0  0  0  0  0  0  0  0  0  0  0  0
   19.6808  -20.4831  -14.3034 C   0  0  0  0  0  0  0  0  0  0  0  0
   18.4665  -20.1640  -13.6598 O   0  0  0  0  0  0  0  0  0  0  0  0
   20.2511  -17.0857  -18.2548 O   0  0  0  0  0  0  0  0  0  0  0  0
   19.8490  -21.6464  -14.6934 O   0  0  0  0  0  0  0  0  0  0  0  0
  2  1  1  0
  3  2  1  0
  4  3  1  0
  5  4  1  0
  5  6  1  6
  7  5  1  0
  7 13  1  0
  8  7  2  0
 10  9  1  1
 10 12  1  0
 11 10  1  0
 12 13  1  1
 12 14  1  0
 14 16  1  0
 15 14  2  0
 16 17  1  0
 17 22  1  0
 18 19  1  0
 17 18  1  6
 20 21  2  0
 20 19  1  0
 22 25  2  0
 22 23  1  0
 24 20  1  0
M  END
$$$$
