MTE.pdb
     RDKit          3D

 25 24  0  0  1  0  0  0  0  0999 V2000
   27.5229  -17.0990  -14.7813 C   0  0  0  0  0  0  0  0  0  0  0  0
   26.2970  -17.9254  -15.8289 S   0  0  0  0  0  0  0  0  0  0  0  0
   25.1137  -16.7528  -16.5259 C   0  0  0  0  0  0  0  0  0  0  0  0
   25.0275  -15.4828  -15.7608 C   0  0  0  0  0  0  0  0  0  0  0  0
   24.1288  -14.4334  -16.3121 C   0  0  2  0  0  0  0  0  0  0  0  0
   24.3094  -14.3224  -17.7551 N   0  0  0  0  0  0  0  0  0  0  0  0
   24.2529  -13.1024  -15.6703 C   0  0  0  0  0  0  0  0  0  0  0  0
   24.1228  -13.0371  -14.4253 O   0  0  0  0  0  0  0  0  0  0  0  0
   27.1724  -10.8541  -15.7633 C   0  0  0  0  0  0  0  0  0  0  0  0
   25.9866   -9.9955  -16.1220 C   0  0  1  0  0  0  0  0  0  0  0  0
   26.0174   -9.9362  -17.5463 O   0  0  0  0  0  0  0  0  0  0  0  0
   24.6496  -10.5909  -15.7587 C   0  0  2  0  0  0  0  0  0  0  0  0
   24.5062  -11.9112  -16.3647 N   0  0  0  0  0  0  0  0  0  0  0  0
   23.4893   -9.7793  -16.2516 C   0  0  0  0  0  0  0  0  0  0  0  0
   22.8807  -10.1773  -17.3100 O   0  0  0  0  0  0  0  0  0  0  0  0
   23.0062   -8.6083  -15.6437 N   0  0  0  0  0  0  0  0  0  0  0  0
   21.8978   -7.8303  -16.0539 C   0  0  1  0  0  0  0  0  0  0  0  0
   20.6140   -8.5819  -16.3431 C   0  0  0  0  0  0  0  0  0  0  0  0
   19.8393   -8.9342  -15.0996 C   0  0  0  0  0  0  0  0  0  0  0  0
   18.5645   -9.6361  -15.4449 C   0  0  0  0  0  0  0  0  0  0  0  0
   17.9235   -9.2290  -16.4450 O   0  0  0  0  0  0  0  0  0  0  0  0
   21.5909   -6.6372  -15.2627 C   0  0  0  0  0  0  0  0  0  0  0  0
   20.6504   -5.7418  -15.8145 O   0  0  0  0  0  0  0  0  0  0  0  0
   18.0963  -10.6996  -14.6953 O   0  0  0  0  0  0  0  0  0  0  0  0
   22.0877   -6.3604  -14.1626 O   0  0  0  0  0  0  0  0  0  0  0  0
  2  1  1  0
  3  2  1  0
  4  3  1  0
  5  4  1  0
  5  6  1  6
  7  5  1  0
  7 13  1  0
  8  7  2  0
 10  9  1  6
 10 12  1  0
 11 10  1  0
 12 13  1  6
 12 14  1  0
 14 16  1  0
 15 14  2  0
 16 17  1  0
 17 22  1  0
 18 19  1  0
 17 18  1  1
 20 21  2  0
 20 19  1  0
 22 25  2  0
 22 23  1  0
 24 20  1  0
M  END
$$$$
