MTE.pdb
     RDKit          3D

 25 24  0  0  1  0  0  0  0  0999 V2000
   18.6208  -27.3130   -8.9428 C   0  0  0  0  0  0  0  0  0  0  0  0
   19.3977  -26.4515  -10.3347 S   0  0  0  0  0  0  0  0  0  0  0  0
   20.4614  -27.5522  -11.2929 C   0  0  0  0  0  0  0  0  0  0  0  0
   20.6127  -28.8980  -10.6831 C   0  0  0  0  0  0  0  0  0  0  0  0
   21.5481  -29.8348  -11.3615 C   0  0  2  0  0  0  0  0  0  0  0  0
   21.1205  -30.0661  -12.7366 N   0  0  0  0  0  0  0  0  0  0  0  0
   21.7607  -31.1243  -10.6609 C   0  0  0  0  0  0  0  0  0  0  0  0
   20.9050  -32.0263  -10.8200 O   0  0  0  0  0  0  0  0  0  0  0  0
   24.7114  -33.4699  -10.8717 C   0  0  0  0  0  0  0  0  0  0  0  0
   24.4566  -33.1858   -9.4135 C   0  0  1  0  0  0  0  0  0  0  0  0
   25.3657  -32.1332   -9.0995 O   0  0  0  0  0  0  0  0  0  0  0  0
   23.0795  -32.6511   -9.1109 C   0  0  2  0  0  0  0  0  0  0  0  0
   22.8564  -31.4013   -9.8315 N   0  0  0  0  0  0  0  0  0  0  0  0
   22.8752  -32.3359   -7.6595 C   0  0  0  0  0  0  0  0  0  0  0  0
   22.5080  -31.1460   -7.3461 O   0  0  0  0  0  0  0  0  0  0  0  0
   23.0519  -33.2450   -6.6028 N   0  0  0  0  0  0  0  0  0  0  0  0
   22.9212  -32.9790   -5.2192 C   0  0  1  0  0  0  0  0  0  0  0  0
   21.5110  -32.7925   -4.6967 C   0  0  0  0  0  0  0  0  0  0  0  0
   21.4652  -32.3325   -3.2624 C   0  0  0  0  0  0  0  0  0  0  0  0
   20.3926  -33.0487   -2.5052 C   0  0  0  0  0  0  0  0  0  0  0  0
   19.6968  -33.8885   -3.1276 O   0  0  0  0  0  0  0  0  0  0  0  0
   23.6661  -33.8422   -4.3007 C   0  0  0  0  0  0  0  0  0  0  0  0
   24.2494  -34.9992   -4.8591 O   0  0  0  0  0  0  0  0  0  0  0  0
   20.1646  -32.8031   -1.1637 O   0  0  0  0  0  0  0  0  0  0  0  0
   23.8197  -33.6352   -3.0894 O   0  0  0  0  0  0  0  0  0  0  0  0
  2  1  1  0
  3  2  1  0
  4  3  1  0
  5  4  1  0
  5  6  1  6
  7  5  1  0
  7 13  1  0
  8  7  2  0
 10  9  1  6
 10 12  1  0
 11 10  1  0
 12 13  1  6
 12 14  1  0
 14 16  1  0
 15 14  2  0
 16 17  1  0
 17 22  1  0
 18 19  1  0
 17 18  1  1
 20 21  2  0
 20 19  1  0
 22 25  2  0
 22 23  1  0
 24 20  1  0
M  END
$$$$
