GRS.pdb
     RDKit          3D

 22 21  0  0  1  0  0  0  0  0999 V2000
   12.3948  -19.7701   20.0424 N   0  0  0  0  0  0  0  0  0  0  0  0
   12.0011  -19.7563   21.4148 C   0  0  0  0  0  0  0  0  0  0  0  0
   12.2398  -18.4765   22.0935 C   0  0  0  0  0  0  0  0  0  0  0  0
   13.3642  -18.0640   22.4786 O   0  0  0  0  0  0  0  0  0  0  0  0
    6.2244  -13.5828   19.5360 N   0  0  0  0  0  0  0  0  0  0  0  0
    7.5153  -13.5763   18.9460 C   0  0  0  0  0  0  0  0  0  0  0  0
    7.6704  -13.1520   17.7483 N   0  0  0  0  0  0  0  0  0  0  0  0
    8.6649  -14.0353   19.6568 N   0  0  0  0  0  0  0  0  0  0  0  0
    8.5871  -14.6260   20.9645 C   0  0  0  0  0  0  0  0  0  0  0  0
    9.9749  -14.9031   21.4672 C   0  0  0  0  0  0  0  0  0  0  0  0
    9.9854  -15.5169   22.8421 C   0  0  0  0  0  0  0  0  0  0  0  0
   11.2363  -16.3757   22.9898 C   0  0  2  0  0  0  0  0  0  0  0  0
   11.0872  -17.6410   22.3291 N   0  0  0  0  0  0  0  0  0  0  0  0
   11.4842  -16.6130   24.4306 C   0  0  0  0  0  0  0  0  0  0  0  0
   10.9650  -17.5807   25.0216 O   0  0  0  0  0  0  0  0  0  0  0  0
    8.5877  -13.1300   17.2600 O   0  0  0  0  0  0  0  0  0  0  0  0
   14.9915  -15.4460   26.0639 C   0  0  0  0  0  0  0  0  0  0  0  0
   13.9235  -15.1772   26.9137 C   0  0  2  0  0  0  0  0  0  0  0  0
   12.6995  -15.9921   26.5398 N   0  0  0  0  0  0  0  0  0  0  0  0
   12.3384  -15.7133   25.1648 C   0  0  0  0  0  0  0  0  0  0  0  0
   11.5744  -15.7505   27.4519 O   0  0  0  0  0  0  0  0  0  0  0  0
   11.6338  -16.0412   28.8233 O   0  0  0  0  0  0  0  0  0  0  0  0
  1  2  1  0
  2  3  1  0
  3 13  1  0
  4  3  2  0
  6  8  1  0
  6  5  1  0
  7  6  2  0
  9 10  1  0
  9  8  1  0
 11 10  1  0
 12 11  1  1
 12 14  1  0
 13 12  1  0
 14 19  1  0
 14 15  2  0
 16 17  1  0
 18 17  1  6
 18 20  1  0
 19 18  1  0
 20 21  1  0
 22 20  2  0
M  END
$$$$
