GRS.pdb
     RDKit          3D

 22 21  0  0  1  0  0  0  0  0999 V2000
    9.3878  -21.4580   18.0209 N   0  0  0  0  0  0  0  0  0  0  0  0
    8.6288  -20.5741   18.8462 C   0  0  0  0  0  0  0  0  0  0  0  0
    9.4450  -19.6491   19.6423 C   0  0  0  0  0  0  0  0  0  0  0  0
   10.7024  -19.6521   19.6852 O   0  0  0  0  0  0  0  0  0  0  0  0
    8.6901  -12.1570   20.3640 N   0  0  0  0  0  0  0  0  0  0  0  0
    7.9954  -12.7960   19.3039 C   0  0  0  0  0  0  0  0  0  0  0  0
    8.2237  -12.4556   18.0912 N   0  0  0  0  0  0  0  0  0  0  0  0
    7.0348  -13.8225   19.5506 N   0  0  0  0  0  0  0  0  0  0  0  0
    7.1206  -14.7155   20.6732 C   0  0  0  0  0  0  0  0  0  0  0  0
    8.1261  -15.7908   20.3763 C   0  0  0  0  0  0  0  0  0  0  0  0
    8.5687  -16.5321   21.6099 C   0  0  0  0  0  0  0  0  0  0  0  0
    9.4621  -17.6949   21.1931 C   0  0  2  0  0  0  0  0  0  0  0  0
    8.7360  -18.6690   20.4290 N   0  0  0  0  0  0  0  0  0  0  0  0
    9.9992  -18.3438   22.4113 C   0  0  0  0  0  0  0  0  0  0  0  0
    9.2606  -19.0089   23.1646 O   0  0  0  0  0  0  0  0  0  0  0  0
    7.7395  -12.8782   17.2742 O   0  0  0  0  0  0  0  0  0  0  0  0
   14.1922  -18.5041   22.9919 C   0  0  0  0  0  0  0  0  0  0  0  0
   13.3251  -19.5199   23.3808 C   0  0  1  0  0  0  0  0  0  0  0  0
   11.9836  -18.9647   23.8212 N   0  0  0  0  0  0  0  0  0  0  0  0
   11.3973  -18.2067   22.7348 C   0  0  0  0  0  0  0  0  0  0  0  0
   12.0930  -18.1582   25.0434 O   0  0  0  0  0  0  0  0  0  0  0  0
   12.5098  -18.6943   26.2713 O   0  0  0  0  0  0  0  0  0  0  0  0
  1  2  1  0
  2  3  1  0
  3 13  1  0
  4  3  2  0
  6  8  1  0
  6  5  1  0
  7  6  2  0
  9 10  1  0
  9  8  1  0
 11 10  1  0
 12 11  1  1
 12 14  1  0
 13 12  1  0
 14 19  1  0
 14 15  2  0
 16 17  1  0
 18 17  1  6
 18 20  1  0
 19 18  1  0
 20 21  1  0
 22 20  2  0
M  END
$$$$
