GRS.pdb
     RDKit          3D

 22 21  0  0  1  0  0  0  0  0999 V2000
    8.3935  -21.3128   21.7872 N   0  0  0  0  0  0  0  0  0  0  0  0
    8.1198  -20.1378   22.5507 C   0  0  0  0  0  0  0  0  0  0  0  0
    9.0997  -19.0605   22.3644 C   0  0  0  0  0  0  0  0  0  0  0  0
   10.3143  -19.2320   22.0847 O   0  0  0  0  0  0  0  0  0  0  0  0
    7.7582  -13.4154   17.3148 N   0  0  0  0  0  0  0  0  0  0  0  0
    7.9608  -13.0298   18.6657 C   0  0  0  0  0  0  0  0  0  0  0  0
    8.9953  -12.3489   18.9895 N   0  0  0  0  0  0  0  0  0  0  0  0
    7.0331  -13.3827   19.6915 N   0  0  0  0  0  0  0  0  0  0  0  0
    7.4363  -13.6701   21.0406 C   0  0  0  0  0  0  0  0  0  0  0  0
    8.2565  -14.9280   21.0562 C   0  0  0  0  0  0  0  0  0  0  0  0
    8.7756  -15.2689   22.4279 C   0  0  0  0  0  0  0  0  0  0  0  0
    9.5146  -16.6005   22.3592 C   0  0  2  0  0  0  0  0  0  0  0  0
    8.6170  -17.7093   22.5170 N   0  0  0  0  0  0  0  0  0  0  0  0
   10.5237  -16.6420   23.4425 C   0  0  0  0  0  0  0  0  0  0  0  0
   10.1823  -16.6012   24.6413 O   0  0  0  0  0  0  0  0  0  0  0  0
    9.2119  -12.0601   19.9642 O   0  0  0  0  0  0  0  0  0  0  0  0
   14.1183  -18.3327   25.5550 C   0  0  0  0  0  0  0  0  0  0  0  0
   13.1292  -18.2263   24.5827 C   0  0  1  0  0  0  0  0  0  0  0  0
   12.9297  -16.7856   24.1508 N   0  0  0  0  0  0  0  0  0  0  0  0
   11.9235  -16.7311   23.1099 C   0  0  0  0  0  0  0  0  0  0  0  0
   14.1854  -16.1584   23.7198 O   0  0  0  0  0  0  0  0  0  0  0  0
   15.2493  -15.9079   24.5997 O   0  0  0  0  0  0  0  0  0  0  0  0
  1  2  1  0
  2  3  1  0
  3 13  1  0
  4  3  2  0
  6  8  1  0
  6  5  1  0
  7  6  2  0
  9 10  1  0
  9  8  1  0
 11 10  1  0
 12 11  1  1
 12 14  1  0
 13 12  1  0
 14 19  1  0
 14 15  2  0
 16 17  1  0
 18 17  1  1
 18 20  1  0
 19 18  1  0
 20 21  1  0
 22 20  2  0
M  END
$$$$
