GRS.pdb
     RDKit          3D

 22 21  0  0  1  0  0  0  0  0999 V2000
    8.3896  -19.5282   18.3640 N   0  0  0  0  0  0  0  0  0  0  0  0
    8.0985  -20.3697   19.4801 C   0  0  0  0  0  0  0  0  0  0  0  0
    7.6069  -19.6494   20.6612 C   0  0  0  0  0  0  0  0  0  0  0  0
    8.0421  -18.5385   21.0603 O   0  0  0  0  0  0  0  0  0  0  0  0
   -0.5045  -19.3848   23.1656 N   0  0  0  0  0  0  0  0  0  0  0  0
    0.1634  -20.4655   22.5325 C   0  0  0  0  0  0  0  0  0  0  0  0
   -0.4705  -21.5468   22.2728 N   0  0  0  0  0  0  0  0  0  0  0  0
    1.5416  -20.3839   22.1702 N   0  0  0  0  0  0  0  0  0  0  0  0
    2.3399  -19.2120   22.4037 C   0  0  0  0  0  0  0  0  0  0  0  0
    3.7320  -19.4499   21.8929 C   0  0  0  0  0  0  0  0  0  0  0  0
    4.6311  -20.0812   22.9225 C   0  0  0  0  0  0  0  0  0  0  0  0
    6.0733  -19.6840   22.6286 C   0  0  2  0  0  0  0  0  0  0  0  0
    6.5445  -20.2768   21.4095 N   0  0  0  0  0  0  0  0  0  0  0  0
    6.9306  -20.1403   23.7468 C   0  0  0  0  0  0  0  0  0  0  0  0
    7.1528  -21.3532   23.9334 O   0  0  0  0  0  0  0  0  0  0  0  0
   -0.0325  -22.3776   21.8274 O   0  0  0  0  0  0  0  0  0  0  0  0
    9.3707  -17.3886   25.8062 C   0  0  0  0  0  0  0  0  0  0  0  0
    9.6630  -18.7422   25.6753 C   0  0  1  0  0  0  0  0  0  0  0  0
    8.4026  -19.5865   25.7058 N   0  0  0  0  0  0  0  0  0  0  0  0
    7.5194  -19.1700   24.6357 C   0  0  0  0  0  0  0  0  0  0  0  0
    7.7315  -19.5314   27.0107 O   0  0  0  0  0  0  0  0  0  0  0  0
    8.3324  -19.9902   28.1927 O   0  0  0  0  0  0  0  0  0  0  0  0
  1  2  1  0
  2  3  1  0
  3 13  1  0
  4  3  2  0
  6  8  1  0
  6  5  1  0
  7  6  2  0
  9 10  1  0
  9  8  1  0
 11 10  1  0
 12 11  1  1
 12 14  1  0
 13 12  1  0
 14 19  1  0
 14 15  2  0
 16 17  1  0
 18 17  1  6
 18 20  1  0
 19 18  1  0
 20 21  1  0
 22 20  2  0
M  END
$$$$
