GRS.pdb
     RDKit          3D

 22 21  0  0  1  0  0  0  0  0999 V2000
    7.7601  -21.3401   21.6888 N   0  0  0  0  0  0  0  0  0  0  0  0
    7.8070  -20.1857   22.5276 C   0  0  0  0  0  0  0  0  0  0  0  0
    8.8452  -19.2166   22.1555 C   0  0  0  0  0  0  0  0  0  0  0  0
    9.9707  -19.5142   21.6783 O   0  0  0  0  0  0  0  0  0  0  0  0
    6.7894  -12.7452   19.0183 N   0  0  0  0  0  0  0  0  0  0  0  0
    7.4818  -13.5637   18.0880 C   0  0  0  0  0  0  0  0  0  0  0  0
    7.6438  -13.1670   16.8818 N   0  0  0  0  0  0  0  0  0  0  0  0
    8.0119  -14.8356   18.4603 N   0  0  0  0  0  0  0  0  0  0  0  0
    7.8592  -15.3870   19.7786 C   0  0  0  0  0  0  0  0  0  0  0  0
    8.9327  -14.8377   20.6737 C   0  0  0  0  0  0  0  0  0  0  0  0
    8.8881  -15.4186   22.0621 C   0  0  0  0  0  0  0  0  0  0  0  0
    9.5032  -16.8132   22.0337 C   0  0  2  0  0  0  0  0  0  0  0  0
    8.5354  -17.8220   22.3587 N   0  0  0  0  0  0  0  0  0  0  0  0
   10.6045  -16.8687   23.0224 C   0  0  0  0  0  0  0  0  0  0  0  0
   10.3934  -16.6559   24.2330 O   0  0  0  0  0  0  0  0  0  0  0  0
    8.1193  -13.7311   16.1496 O   0  0  0  0  0  0  0  0  0  0  0  0
   14.1850  -18.6948   22.0136 C   0  0  0  0  0  0  0  0  0  0  0  0
   13.8108  -18.5129   23.3409 C   0  0  1  0  0  0  0  0  0  0  0  0
   13.0405  -17.2190   23.5269 N   0  0  0  0  0  0  0  0  0  0  0  0
   11.9431  -17.1732   22.5822 C   0  0  0  0  0  0  0  0  0  0  0  0
   13.9051  -16.0383   23.4061 O   0  0  0  0  0  0  0  0  0  0  0  0
   14.9125  -15.7375   24.3354 O   0  0  0  0  0  0  0  0  0  0  0  0
  1  2  1  0
  2  3  1  0
  3 13  1  0
  4  3  2  0
  6  8  1  0
  6  5  1  0
  7  6  2  0
  9 10  1  0
  9  8  1  0
 11 10  1  0
 12 11  1  1
 12 14  1  0
 13 12  1  0
 14 19  1  0
 14 15  2  0
 16 17  1  0
 18 17  1  1
 18 20  1  0
 19 18  1  0
 20 21  1  0
 22 20  2  0
M  END
$$$$
