GRS.pdb
     RDKit          3D

 22 21  0  0  1  0  0  0  0  0999 V2000
    5.2805  -20.5844   22.3955 N   0  0  0  0  0  0  0  0  0  0  0  0
    5.6242  -19.4281   23.1592 C   0  0  0  0  0  0  0  0  0  0  0  0
    6.7475  -18.6591   22.6092 C   0  0  0  0  0  0  0  0  0  0  0  0
    7.5851  -19.1000   21.7804 O   0  0  0  0  0  0  0  0  0  0  0  0
    6.6380  -12.3776   18.8108 N   0  0  0  0  0  0  0  0  0  0  0  0
    7.6362  -13.2475   18.2991 C   0  0  0  0  0  0  0  0  0  0  0  0
    7.9787  -13.1758   17.0678 N   0  0  0  0  0  0  0  0  0  0  0  0
    8.2807  -14.2154   19.1268 N   0  0  0  0  0  0  0  0  0  0  0  0
    7.6333  -14.8326   20.2516 C   0  0  0  0  0  0  0  0  0  0  0  0
    8.2605  -14.3325   21.5212 C   0  0  0  0  0  0  0  0  0  0  0  0
    7.7196  -15.0174   22.7482 C   0  0  0  0  0  0  0  0  0  0  0  0
    8.0138  -16.5100   22.6505 C   0  0  2  0  0  0  0  0  0  0  0  0
    6.8869  -17.2968   23.0639 N   0  0  0  0  0  0  0  0  0  0  0  0
    9.1667  -16.8268   23.5245 C   0  0  0  0  0  0  0  0  0  0  0  0
    9.0973  -16.6760   24.7606 O   0  0  0  0  0  0  0  0  0  0  0  0
    8.7225  -13.7642   16.6424 O   0  0  0  0  0  0  0  0  0  0  0  0
   12.5767  -18.6569   21.8671 C   0  0  0  0  0  0  0  0  0  0  0  0
   12.2551  -18.8371   23.2084 C   0  0  1  0  0  0  0  0  0  0  0  0
   11.5353  -17.6265   23.7729 N   0  0  0  0  0  0  0  0  0  0  0  0
   10.3903  -17.3174   22.9410 C   0  0  0  0  0  0  0  0  0  0  0  0
   12.4272  -16.4686   23.9139 O   0  0  0  0  0  0  0  0  0  0  0  0
   13.4819  -16.4318   24.8386 O   0  0  0  0  0  0  0  0  0  0  0  0
  1  2  1  0
  2  3  1  0
  3 13  1  0
  4  3  2  0
  6  8  1  0
  6  5  1  0
  7  6  2  0
  9 10  1  0
  9  8  1  0
 11 10  1  0
 12 11  1  1
 12 14  1  0
 13 12  1  0
 14 19  1  0
 14 15  2  0
 16 17  1  0
 18 17  1  1
 18 20  1  0
 19 18  1  0
 20 21  1  0
 22 20  2  0
M  END
$$$$
