GRS.pdb
     RDKit          3D

 22 21  0  0  1  0  0  0  0  0999 V2000
    7.6754  -12.8272   18.3226 N   0  0  0  0  0  0  0  0  0  0  0  0
    7.7866  -14.2078   18.6692 C   0  0  0  0  0  0  0  0  0  0  0  0
    7.3454  -14.5201   20.0342 C   0  0  0  0  0  0  0  0  0  0  0  0
    7.0197  -13.6664   20.8991 O   0  0  0  0  0  0  0  0  0  0  0  0
    4.1012  -20.3609   19.5858 N   0  0  0  0  0  0  0  0  0  0  0  0
    2.8657  -19.8373   20.0486 C   0  0  0  0  0  0  0  0  0  0  0  0
    1.8427  -20.6005   20.1468 N   0  0  0  0  0  0  0  0  0  0  0  0
    2.7249  -18.4646   20.4138 N   0  0  0  0  0  0  0  0  0  0  0  0
    3.6082  -17.8109   21.3398 C   0  0  0  0  0  0  0  0  0  0  0  0
    4.9317  -17.5650   20.6740 C   0  0  0  0  0  0  0  0  0  0  0  0
    6.0917  -17.6587   21.6295 C   0  0  0  0  0  0  0  0  0  0  0  0
    6.7956  -16.3077   21.6854 C   0  0  2  0  0  0  0  0  0  0  0  0
    7.2864  -15.9161   20.3948 N   0  0  0  0  0  0  0  0  0  0  0  0
    7.9373  -16.4036   22.6240 C   0  0  0  0  0  0  0  0  0  0  0  0
    9.0064  -16.9476   22.2828 O   0  0  0  0  0  0  0  0  0  0  0  0
    0.9194  -20.2821   20.5026 O   0  0  0  0  0  0  0  0  0  0  0  0
    7.5712  -14.7085   26.4613 C   0  0  0  0  0  0  0  0  0  0  0  0
    8.8134  -14.7115   25.8354 C   0  0  1  0  0  0  0  0  0  0  0  0
    8.9414  -15.8701   24.8641 N   0  0  0  0  0  0  0  0  0  0  0  0
    7.8146  -15.8607   23.9538 C   0  0  0  0  0  0  0  0  0  0  0  0
    9.0653  -17.1599   25.5550 O   0  0  0  0  0  0  0  0  0  0  0  0
   10.2175  -17.5336   26.2631 O   0  0  0  0  0  0  0  0  0  0  0  0
  1  2  1  0
  2  3  1  0
  3 13  1  0
  4  3  2  0
  6  8  1  0
  6  5  1  0
  7  6  2  0
  9 10  1  0
  9  8  1  0
 11 10  1  0
 12 11  1  6
 12 14  1  0
 13 12  1  0
 14 19  1  0
 14 15  2  0
 16 17  1  0
 18 17  1  6
 18 20  1  0
 19 18  1  0
 20 21  1  0
 22 20  2  0
M  END
$$$$
