GRS.pdb
     RDKit          3D

 22 21  0  0  1  0  0  0  0  0999 V2000
    5.8623  -21.0769   23.0405 N   0  0  0  0  0  0  0  0  0  0  0  0
    5.5978  -19.6746   23.0874 C   0  0  0  0  0  0  0  0  0  0  0  0
    6.7853  -18.8492   23.3404 C   0  0  0  0  0  0  0  0  0  0  0  0
    7.9347  -19.2972   23.5873 O   0  0  0  0  0  0  0  0  0  0  0  0
    8.5335  -13.6324   18.8056 N   0  0  0  0  0  0  0  0  0  0  0  0
    8.5935  -12.7087   19.8817 C   0  0  0  0  0  0  0  0  0  0  0  0
    9.3741  -11.6964   19.8145 N   0  0  0  0  0  0  0  0  0  0  0  0
    7.7984  -12.8750   21.0554 N   0  0  0  0  0  0  0  0  0  0  0  0
    6.6737  -13.7676   21.1138 C   0  0  0  0  0  0  0  0  0  0  0  0
    7.1295  -15.1082   21.6142 C   0  0  0  0  0  0  0  0  0  0  0  0
    7.4051  -15.1154   23.0944 C   0  0  0  0  0  0  0  0  0  0  0  0
    7.7158  -16.5424   23.5318 C   0  0  2  0  0  0  0  0  0  0  0  0
    6.6030  -17.4184   23.2990 N   0  0  0  0  0  0  0  0  0  0  0  0
    8.0297  -16.5396   24.9792 C   0  0  0  0  0  0  0  0  0  0  0  0
    7.1495  -16.2936   25.8277 O   0  0  0  0  0  0  0  0  0  0  0  0
    9.4205  -10.9564   20.5429 O   0  0  0  0  0  0  0  0  0  0  0  0
    9.0510  -18.9866   28.3477 C   0  0  0  0  0  0  0  0  0  0  0  0
    8.7882  -18.4897   27.0753 C   0  0  1  0  0  0  0  0  0  0  0  0
    9.6308  -17.2644   26.7742 N   0  0  0  0  0  0  0  0  0  0  0  0
    9.3728  -16.8254   25.4180 C   0  0  0  0  0  0  0  0  0  0  0  0
   11.0614  -17.5081   26.9988 O   0  0  0  0  0  0  0  0  0  0  0  0
   12.0309  -17.3027   26.0056 O   0  0  0  0  0  0  0  0  0  0  0  0
  1  2  1  0
  2  3  1  0
  3 13  1  0
  4  3  2  0
  6  8  1  0
  6  5  1  0
  7  6  2  0
  9 10  1  0
  9  8  1  0
 11 10  1  0
 12 11  1  1
 12 14  1  0
 13 12  1  0
 14 19  1  0
 14 15  2  0
 16 17  1  0
 18 17  1  1
 18 20  1  0
 19 18  1  0
 20 21  1  0
 22 20  2  0
M  END
$$$$
