GRS.pdb
     RDKit          3D

 22 21  0  0  1  0  0  0  0  0999 V2000
   13.6667  -18.7132   16.3935 N   0  0  0  0  0  0  0  0  0  0  0  0
   12.4691  -18.8578   17.1572 C   0  0  0  0  0  0  0  0  0  0  0  0
   12.3025  -17.8455   18.2075 C   0  0  0  0  0  0  0  0  0  0  0  0
   13.2087  -17.0731   18.6139 O   0  0  0  0  0  0  0  0  0  0  0  0
    6.5864  -12.3163   19.7732 N   0  0  0  0  0  0  0  0  0  0  0  0
    7.1416  -13.3628   18.9913 C   0  0  0  0  0  0  0  0  0  0  0  0
    6.9494  -13.3886   17.7260 N   0  0  0  0  0  0  0  0  0  0  0  0
    7.9200  -14.4044   19.5801 N   0  0  0  0  0  0  0  0  0  0  0  0
    8.3083  -14.3989   20.9637 C   0  0  0  0  0  0  0  0  0  0  0  0
    9.0936  -15.6434   21.2637 C   0  0  0  0  0  0  0  0  0  0  0  0
    9.2778  -16.5224   20.0552 C   0  0  0  0  0  0  0  0  0  0  0  0
   10.7639  -16.8127   19.8778 C   0  0  2  0  0  0  0  0  0  0  0  0
   10.9947  -17.7417   18.8085 N   0  0  0  0  0  0  0  0  0  0  0  0
   11.2905  -17.3891   21.1364 C   0  0  0  0  0  0  0  0  0  0  0  0
   10.8408  -18.4599   21.5910 O   0  0  0  0  0  0  0  0  0  0  0  0
    7.3310  -14.1263   17.1011 O   0  0  0  0  0  0  0  0  0  0  0  0
   14.6438  -16.9555   24.6758 C   0  0  0  0  0  0  0  0  0  0  0  0
   14.0784  -16.4422   23.5131 C   0  0  2  0  0  0  0  0  0  0  0  0
   12.8498  -17.2307   23.0997 N   0  0  0  0  0  0  0  0  0  0  0  0
   12.3393  -16.7046   21.8501 C   0  0  0  0  0  0  0  0  0  0  0  0
   11.8178  -17.2347   24.1443 O   0  0  0  0  0  0  0  0  0  0  0  0
   11.8328  -18.1332   25.2219 O   0  0  0  0  0  0  0  0  0  0  0  0
  1  2  1  0
  2  3  1  0
  3 13  1  0
  4  3  2  0
  6  8  1  0
  6  5  1  0
  7  6  2  0
  9 10  1  0
  9  8  1  0
 11 10  1  0
 12 11  1  1
 12 14  1  0
 13 12  1  0
 14 19  1  0
 14 15  2  0
 16 17  1  0
 18 17  1  6
 18 20  1  0
 19 18  1  0
 20 21  1  0
 22 20  2  0
M  END
$$$$
