GRS.pdb
     RDKit          3D

 22 21  0  0  1  0  0  0  0  0999 V2000
    3.5419  -20.7252   21.8853 N   0  0  0  0  0  0  0  0  0  0  0  0
    3.6906  -19.3684   22.3041 C   0  0  0  0  0  0  0  0  0  0  0  0
    5.0535  -19.0160   22.7209 C   0  0  0  0  0  0  0  0  0  0  0  0
    6.0012  -19.8333   22.8505 O   0  0  0  0  0  0  0  0  0  0  0  0
    8.1403  -11.7938   19.8875 N   0  0  0  0  0  0  0  0  0  0  0  0
    8.2995  -13.0405   19.2278 C   0  0  0  0  0  0  0  0  0  0  0  0
    8.5752  -13.0738   17.9783 N   0  0  0  0  0  0  0  0  0  0  0  0
    8.1595  -14.2785   19.9244 N   0  0  0  0  0  0  0  0  0  0  0  0
    7.9486  -14.3537   21.3439 C   0  0  0  0  0  0  0  0  0  0  0  0
    7.0401  -15.5097   21.6502 C   0  0  0  0  0  0  0  0  0  0  0  0
    6.8292  -15.7102   23.1275 C   0  0  0  0  0  0  0  0  0  0  0  0
    6.6188  -17.1955   23.3989 C   0  0  2  0  0  0  0  0  0  0  0  0
    5.3084  -17.6232   22.9990 N   0  0  0  0  0  0  0  0  0  0  0  0
    6.7821  -17.4426   24.8500 C   0  0  0  0  0  0  0  0  0  0  0  0
    6.0376  -16.8903   25.6843 O   0  0  0  0  0  0  0  0  0  0  0  0
    8.6283  -13.9515   17.4240 O   0  0  0  0  0  0  0  0  0  0  0  0
    8.4856  -20.8865   26.2602 C   0  0  0  0  0  0  0  0  0  0  0  0
    7.7092  -20.0300   27.0339 C   0  0  1  0  0  0  0  0  0  0  0  0
    8.0124  -18.5759   26.7243 N   0  0  0  0  0  0  0  0  0  0  0  0
    7.8169  -18.3351   25.3093 C   0  0  0  0  0  0  0  0  0  0  0  0
    9.3615  -18.1883   27.1555 O   0  0  0  0  0  0  0  0  0  0  0  0
    9.8136  -18.3543   28.4734 O   0  0  0  0  0  0  0  0  0  0  0  0
  1  2  1  0
  2  3  1  0
  3 13  1  0
  4  3  2  0
  6  8  1  0
  6  5  1  0
  7  6  2  0
  9 10  1  0
  9  8  1  0
 11 10  1  0
 12 11  1  1
 12 14  1  0
 13 12  1  0
 14 19  1  0
 14 15  2  0
 16 17  1  0
 18 17  1  1
 18 20  1  0
 19 18  1  0
 20 21  1  0
 22 20  2  0
M  END
$$$$
