GRS.pdb
     RDKit          3D

 22 21  0  0  1  0  0  0  0  0999 V2000
    5.6317  -21.7679   23.6420 N   0  0  0  0  0  0  0  0  0  0  0  0
    5.8667  -20.5012   24.2576 C   0  0  0  0  0  0  0  0  0  0  0  0
    6.8899  -19.6898   23.5868 C   0  0  0  0  0  0  0  0  0  0  0  0
    7.9708  -20.1344   23.1210 O   0  0  0  0  0  0  0  0  0  0  0  0
    9.9220  -13.2934   19.5880 N   0  0  0  0  0  0  0  0  0  0  0  0
    8.5841  -13.1018   19.1541 C   0  0  0  0  0  0  0  0  0  0  0  0
    8.3261  -12.2600   18.2249 N   0  0  0  0  0  0  0  0  0  0  0  0
    7.4996  -13.8296   19.7299 N   0  0  0  0  0  0  0  0  0  0  0  0
    7.3171  -13.9616   21.1491 C   0  0  0  0  0  0  0  0  0  0  0  0
    7.8825  -15.2772   21.6020 C   0  0  0  0  0  0  0  0  0  0  0  0
    6.9034  -16.0852   22.4117 C   0  0  0  0  0  0  0  0  0  0  0  0
    7.5372  -17.4283   22.7557 C   0  0  2  0  0  0  0  0  0  0  0  0
    6.6200  -18.2779   23.4606 N   0  0  0  0  0  0  0  0  0  0  0  0
    8.7240  -17.1907   23.6092 C   0  0  0  0  0  0  0  0  0  0  0  0
    8.6151  -16.6422   24.7240 O   0  0  0  0  0  0  0  0  0  0  0  0
    7.3679  -12.0723   17.8685 O   0  0  0  0  0  0  0  0  0  0  0  0
   12.2274  -19.2810   22.9521 C   0  0  0  0  0  0  0  0  0  0  0  0
   11.9611  -18.6445   24.1600 C   0  0  1  0  0  0  0  0  0  0  0  0
   11.2087  -17.3443   23.9468 N   0  0  0  0  0  0  0  0  0  0  0  0
   10.0274  -17.5983   23.1476 C   0  0  0  0  0  0  0  0  0  0  0  0
   12.0554  -16.3079   23.3425 O   0  0  0  0  0  0  0  0  0  0  0  0
   11.7959  -15.7584   22.0778 O   0  0  0  0  0  0  0  0  0  0  0  0
  1  2  1  0
  2  3  1  0
  3 13  1  0
  4  3  2  0
  6  8  1  0
  6  5  1  0
  7  6  2  0
  9 10  1  0
  9  8  1  0
 11 10  1  0
 12 11  1  1
 12 14  1  0
 13 12  1  0
 14 19  1  0
 14 15  2  0
 16 17  1  0
 18 17  1  1
 18 20  1  0
 19 18  1  0
 20 21  1  0
 22 20  2  0
M  END
$$$$
