GRS.pdb
     RDKit          3D

 22 21  0  0  1  0  0  0  0  0999 V2000
    9.3661  -22.1845   19.5155 N   0  0  0  0  0  0  0  0  0  0  0  0
    8.8705  -21.1688   20.3881 C   0  0  0  0  0  0  0  0  0  0  0  0
    9.7267  -19.9789   20.4696 C   0  0  0  0  0  0  0  0  0  0  0  0
   10.8381  -19.8504   19.8942 O   0  0  0  0  0  0  0  0  0  0  0  0
    6.9348  -12.0654   20.2710 N   0  0  0  0  0  0  0  0  0  0  0  0
    8.1271  -12.6905   19.8210 C   0  0  0  0  0  0  0  0  0  0  0  0
    9.0355  -11.9974   19.2438 N   0  0  0  0  0  0  0  0  0  0  0  0
    8.3495  -14.0897   19.9942 N   0  0  0  0  0  0  0  0  0  0  0  0
    7.3897  -14.9593   20.6171 C   0  0  0  0  0  0  0  0  0  0  0  0
    7.9525  -16.3498   20.6881 C   0  0  0  0  0  0  0  0  0  0  0  0
    9.0523  -16.4826   21.7079 C   0  0  0  0  0  0  0  0  0  0  0  0
    9.9593  -17.6408   21.3079 C   0  0  2  0  0  0  0  0  0  0  0  0
    9.2422  -18.8836   21.2743 N   0  0  0  0  0  0  0  0  0  0  0  0
   11.0589  -17.7477   22.2942 C   0  0  0  0  0  0  0  0  0  0  0  0
   10.9977  -18.5581   23.2403 O   0  0  0  0  0  0  0  0  0  0  0  0
    9.9121  -12.4033   18.8602 O   0  0  0  0  0  0  0  0  0  0  0  0
   15.6045  -16.2941   23.4003 C   0  0  0  0  0  0  0  0  0  0  0  0
   14.5083  -16.2156   22.5476 C   0  0  1  0  0  0  0  0  0  0  0  0
   13.3501  -17.0538   23.0557 N   0  0  0  0  0  0  0  0  0  0  0  0
   12.2199  -16.9034   22.1621 C   0  0  0  0  0  0  0  0  0  0  0  0
   12.9910  -16.7198   24.4398 O   0  0  0  0  0  0  0  0  0  0  0  0
   13.7150  -17.1902   25.5459 O   0  0  0  0  0  0  0  0  0  0  0  0
  1  2  1  0
  2  3  1  0
  3 13  1  0
  4  3  2  0
  6  8  1  0
  6  5  1  0
  7  6  2  0
  9 10  1  0
  9  8  1  0
 11 10  1  0
 12 11  1  1
 12 14  1  0
 13 12  1  0
 14 19  1  0
 14 15  2  0
 16 17  1  0
 18 17  1  6
 18 20  1  0
 19 18  1  0
 20 21  1  0
 22 20  2  0
M  END
$$$$
