GRS.pdb
     RDKit          3D

 22 21  0  0  1  0  0  0  0  0999 V2000
   11.0948  -18.7781   16.1726 N   0  0  0  0  0  0  0  0  0  0  0  0
   10.3351  -19.0686   17.3461 C   0  0  0  0  0  0  0  0  0  0  0  0
   10.5151  -18.0970   18.4320 C   0  0  0  0  0  0  0  0  0  0  0  0
   11.4282  -17.2329   18.4815 O   0  0  0  0  0  0  0  0  0  0  0  0
    8.0795  -11.0764   19.9904 N   0  0  0  0  0  0  0  0  0  0  0  0
    8.0501  -12.4495   19.6323 C   0  0  0  0  0  0  0  0  0  0  0  0
    8.5402  -12.8304   18.5127 N   0  0  0  0  0  0  0  0  0  0  0  0
    7.4824  -13.4354   20.4943 N   0  0  0  0  0  0  0  0  0  0  0  0
    8.2407  -14.5341   21.0262 C   0  0  0  0  0  0  0  0  0  0  0  0
    7.5455  -15.8235   20.6951 C   0  0  0  0  0  0  0  0  0  0  0  0
    8.2551  -17.0287   21.2527 C   0  0  0  0  0  0  0  0  0  0  0  0
    9.6071  -17.1688   20.5622 C   0  0  2  0  0  0  0  0  0  0  0  0
    9.5646  -18.1508   19.5164 N   0  0  0  0  0  0  0  0  0  0  0  0
   10.6148  -17.5805   21.5664 C   0  0  0  0  0  0  0  0  0  0  0  0
   10.4213  -18.5668   22.3048 O   0  0  0  0  0  0  0  0  0  0  0  0
    8.5506  -13.8205   18.1963 O   0  0  0  0  0  0  0  0  0  0  0  0
   14.0838  -15.2711   22.0284 C   0  0  0  0  0  0  0  0  0  0  0  0
   14.2108  -16.6512   22.1479 C   0  0  1  0  0  0  0  0  0  0  0  0
   12.9016  -17.2938   22.5662 N   0  0  0  0  0  0  0  0  0  0  0  0
   11.8399  -16.8318   21.6955 C   0  0  0  0  0  0  0  0  0  0  0  0
   12.5882  -17.0420   23.9785 O   0  0  0  0  0  0  0  0  0  0  0  0
   13.4097  -17.4812   25.0278 O   0  0  0  0  0  0  0  0  0  0  0  0
  1  2  1  0
  2  3  1  0
  3 13  1  0
  4  3  2  0
  6  8  1  0
  6  5  1  0
  7  6  2  0
  9 10  1  0
  9  8  1  0
 11 10  1  0
 12 11  1  1
 12 14  1  0
 13 12  1  0
 14 19  1  0
 14 15  2  0
 16 17  1  0
 18 17  1  6
 18 20  1  0
 19 18  1  0
 20 21  1  0
 22 20  2  0
M  END
$$$$
