GRS.pdb
     RDKit          3D

 22 21  0  0  1  0  0  0  0  0999 V2000
   12.6144  -18.5612   16.6019 N   0  0  0  0  0  0  0  0  0  0  0  0
   11.8775  -18.8034   17.8006 C   0  0  0  0  0  0  0  0  0  0  0  0
   11.9615  -17.7176   18.7852 C   0  0  0  0  0  0  0  0  0  0  0  0
   12.9249  -16.9156   18.8928 O   0  0  0  0  0  0  0  0  0  0  0  0
    8.0476  -12.2333   20.6098 N   0  0  0  0  0  0  0  0  0  0  0  0
    7.2800  -12.9813   19.6792 C   0  0  0  0  0  0  0  0  0  0  0  0
    7.0503  -12.5092   18.5117 N   0  0  0  0  0  0  0  0  0  0  0  0
    6.7472  -14.2639   20.0086 N   0  0  0  0  0  0  0  0  0  0  0  0
    7.3897  -15.1605   20.9297 C   0  0  0  0  0  0  0  0  0  0  0  0
    8.8043  -15.3989   20.4853 C   0  0  0  0  0  0  0  0  0  0  0  0
    9.5385  -16.3696   21.3718 C   0  0  0  0  0  0  0  0  0  0  0  0
   10.9160  -16.6375   20.7762 C   0  0  2  0  0  0  0  0  0  0  0  0
   10.8469  -17.5732   19.6901 N   0  0  0  0  0  0  0  0  0  0  0  0
   11.7924  -17.1928   21.8330 C   0  0  0  0  0  0  0  0  0  0  0  0
   11.6981  -18.3853   22.1859 O   0  0  0  0  0  0  0  0  0  0  0  0
    6.5062  -13.0138   17.7839 O   0  0  0  0  0  0  0  0  0  0  0  0
   15.7405  -16.4541   24.5936 C   0  0  0  0  0  0  0  0  0  0  0  0
   14.8393  -15.9515   23.6607 C   0  0  2  0  0  0  0  0  0  0  0  0
   13.6343  -16.8609   23.5088 N   0  0  0  0  0  0  0  0  0  0  0  0
   12.7712  -16.3447   22.4662 C   0  0  0  0  0  0  0  0  0  0  0  0
   12.9082  -17.0329   24.7735 O   0  0  0  0  0  0  0  0  0  0  0  0
   13.3585  -17.8798   25.7976 O   0  0  0  0  0  0  0  0  0  0  0  0
  1  2  1  0
  2  3  1  0
  3 13  1  0
  4  3  2  0
  6  8  1  0
  6  5  1  0
  7  6  2  0
  9 10  1  0
  9  8  1  0
 11 10  1  0
 12 11  1  1
 12 14  1  0
 13 12  1  0
 14 19  1  0
 14 15  2  0
 16 17  1  0
 18 17  1  6
 18 20  1  0
 19 18  1  0
 20 21  1  0
 22 20  2  0
M  END
$$$$
