GRS.pdb
     RDKit          3D

 22 21  0  0  1  0  0  0  0  0999 V2000
   11.0945  -19.3744   17.8644 N   0  0  0  0  0  0  0  0  0  0  0  0
   10.2457  -19.2660   19.0074 C   0  0  0  0  0  0  0  0  0  0  0  0
   10.6065  -18.1740   19.9200 C   0  0  0  0  0  0  0  0  0  0  0  0
   11.6604  -17.4910   19.8451 O   0  0  0  0  0  0  0  0  0  0  0  0
    8.8969  -13.0039   19.5033 N   0  0  0  0  0  0  0  0  0  0  0  0
    7.4813  -12.9968   19.6074 C   0  0  0  0  0  0  0  0  0  0  0  0
    6.7719  -12.4996   18.6651 N   0  0  0  0  0  0  0  0  0  0  0  0
    6.8125  -13.5350   20.7478 N   0  0  0  0  0  0  0  0  0  0  0  0
    7.5120  -14.1483   21.8431 C   0  0  0  0  0  0  0  0  0  0  0  0
    8.0112  -15.4997   21.4188 C   0  0  0  0  0  0  0  0  0  0  0  0
    8.7253  -16.2312   22.5243 C   0  0  0  0  0  0  0  0  0  0  0  0
    9.9856  -16.8744   21.9570 C   0  0  2  0  0  0  0  0  0  0  0  0
    9.6708  -17.8744   20.9768 N   0  0  0  0  0  0  0  0  0  0  0  0
   10.7374  -17.5080   23.0646 C   0  0  0  0  0  0  0  0  0  0  0  0
   10.3376  -18.5657   23.5909 O   0  0  0  0  0  0  0  0  0  0  0  0
    5.7327  -12.4851   18.6737 O   0  0  0  0  0  0  0  0  0  0  0  0
   14.7531  -17.1844   23.4674 C   0  0  0  0  0  0  0  0  0  0  0  0
   14.0962  -16.9217   24.6652 C   0  0  2  0  0  0  0  0  0  0  0  0
   12.6825  -17.4726   24.6540 N   0  0  0  0  0  0  0  0  0  0  0  0
   11.9508  -16.8956   23.5448 C   0  0  0  0  0  0  0  0  0  0  0  0
   11.9916  -17.2486   25.9302 O   0  0  0  0  0  0  0  0  0  0  0  0
   12.4498  -17.7815   27.1446 O   0  0  0  0  0  0  0  0  0  0  0  0
  1  2  1  0
  2  3  1  0
  3 13  1  0
  4  3  2  0
  6  8  1  0
  6  5  1  0
  7  6  2  0
  9 10  1  0
  9  8  1  0
 11 10  1  0
 12 11  1  1
 12 14  1  0
 13 12  1  0
 14 19  1  0
 14 15  2  0
 16 17  1  0
 18 17  1  6
 18 20  1  0
 19 18  1  0
 20 21  1  0
 22 20  2  0
M  END
$$$$
