QDP.pdb
     RDKit          3D

 25 25  0  0  1  0  0  0  0  0999 V2000
   23.2763  -14.4092  -18.5155 N   0  0  0  0  0  0  0  0  0  0  0  0
   22.2842  -13.9205  -17.6434 C   0  0  0  0  0  0  0  0  0  0  0  0
   22.1027  -12.6782  -17.5803 O   0  0  0  0  0  0  0  0  0  0  0  0
   21.4704  -14.8463  -16.8170 C   0  0  0  0  0  0  0  0  0  0  0  0
   21.8566  -16.2858  -17.0615 C   0  0  0  0  0  0  0  0  0  0  0  0
   20.9503  -17.2122  -16.3209 C   0  0  2  0  0  0  0  0  0  0  0  0
   19.7056  -16.5816  -16.0019 N   0  0  0  0  0  0  0  0  0  0  0  0
   21.6316  -17.7663  -15.1244 C   0  0  0  0  0  0  0  0  0  0  0  0
   22.4524  -17.1285  -14.4278 O   0  0  0  0  0  0  0  0  0  0  0  0
   21.3477  -19.1296  -14.7131 N   0  0  0  0  0  0  0  0  0  0  0  0
   22.0555  -19.7438  -13.6331 C   0  0  1  0  0  0  0  0  0  0  0  0
   21.3097  -20.9783  -13.1883 C   0  0  0  0  0  0  0  0  0  0  0  0
   19.9867  -20.6013  -12.6674 C   0  0  0  0  0  0  0  0  0  0  0  0
   19.7291  -19.5112  -12.1216 O   0  0  0  0  0  0  0  0  0  0  0  0
   23.4436  -20.1548  -13.8943 C   0  0  0  0  0  0  0  0  0  0  0  0
   23.8262  -19.8235  -15.0979 O   0  0  0  0  0  0  0  0  0  0  0  0
   18.8960  -21.4860  -12.7606 O   0  0  0  0  0  0  0  0  0  0  0  0
   24.3307  -20.8156  -13.0506 N   0  0  0  0  0  0  0  0  0  0  0  0
   23.9606  -21.2693  -11.7211 C   0  0  0  0  0  0  0  0  0  0  0  0
   25.2092  -21.0203  -10.9193 C   0  0  0  0  0  0  0  0  0  0  0  0
   26.3142  -20.7618  -11.9057 C   0  0  0  0  0  0  0  0  0  0  0  0
   25.6773  -21.1910  -13.2512 C   0  0  1  0  0  0  0  0  0  0  0  0
   25.9284  -22.6533  -13.3443 C   0  0  0  0  0  0  0  0  0  0  0  0
   24.9124  -23.5826  -13.0916 O   0  0  0  0  0  0  0  0  0  0  0  0
   27.0417  -23.1347  -13.6482 O   0  0  0  0  0  0  0  0  0  0  0  0
  1  2  1  0
  2  4  1  0
  3  2  2  0
  4  5  1  0
  6  8  1  0
  6  5  1  0
  6  7  1  1
  8  9  2  0
 10 11  1  0
 10  8  1  0
 11 12  1  6
 12 13  1  0
 13 14  2  0
 13 17  1  0
 15 11  1  0
 16 15  2  0
 18 15  1  0
 18 22  1  0
 19 20  1  0
 19 18  1  0
 20 21  1  0
 21 22  1  0
 22 23  1  1
 23 24  1  0
 25 23  2  0
M  END
$$$$
