QDP.pdb
     RDKit          3D

 25 25  0  0  1  0  0  0  0  0999 V2000
   27.0351  -18.2912  -14.7398 N   0  0  0  0  0  0  0  0  0  0  0  0
   28.1139  -19.1456  -15.0397 C   0  0  0  0  0  0  0  0  0  0  0  0
   28.6993  -19.0047  -16.1432 O   0  0  0  0  0  0  0  0  0  0  0  0
   28.5522  -20.1884  -14.0791 C   0  0  0  0  0  0  0  0  0  0  0  0
   27.8192  -20.0679  -12.7641 C   0  0  0  0  0  0  0  0  0  0  0  0
   26.7617  -21.1149  -12.6473 C   0  0  2  0  0  0  0  0  0  0  0  0
   26.7541  -21.9795  -13.7881 N   0  0  0  0  0  0  0  0  0  0  0  0
   25.4372  -20.4957  -12.3925 C   0  0  0  0  0  0  0  0  0  0  0  0
   25.1992  -19.7177  -11.4418 O   0  0  0  0  0  0  0  0  0  0  0  0
   24.3308  -20.7928  -13.2848 N   0  0  0  0  0  0  0  0  0  0  0  0
   23.0365  -20.2200  -13.0817 C   0  0  1  0  0  0  0  0  0  0  0  0
   22.5755  -19.5669  -14.3619 C   0  0  0  0  0  0  0  0  0  0  0  0
   21.2926  -18.8828  -14.1392 C   0  0  0  0  0  0  0  0  0  0  0  0
   21.1787  -17.7371  -13.6625 O   0  0  0  0  0  0  0  0  0  0  0  0
   21.9632  -21.1321  -12.6574 C   0  0  0  0  0  0  0  0  0  0  0  0
   21.9568  -22.2306  -13.3633 O   0  0  0  0  0  0  0  0  0  0  0  0
   20.0749  -19.5091  -14.4651 O   0  0  0  0  0  0  0  0  0  0  0  0
   21.0179  -20.9582  -11.6516 N   0  0  0  0  0  0  0  0  0  0  0  0
   20.8962  -19.7257  -10.8923 C   0  0  0  0  0  0  0  0  0  0  0  0
   20.5667  -20.2130   -9.5075 C   0  0  0  0  0  0  0  0  0  0  0  0
   20.1871  -21.6622   -9.6361 C   0  0  0  0  0  0  0  0  0  0  0  0
   20.0247  -21.8374  -11.1669 C   0  0  1  0  0  0  0  0  0  0  0  0
   18.6210  -21.4385  -11.4510 C   0  0  0  0  0  0  0  0  0  0  0  0
   18.3287  -20.2946  -12.2030 O   0  0  0  0  0  0  0  0  0  0  0  0
   17.6332  -22.0878  -11.0434 O   0  0  0  0  0  0  0  0  0  0  0  0
  1  2  1  0
  2  4  1  0
  3  2  2  0
  4  5  1  0
  6  8  1  0
  6  5  1  0
  6  7  1  6
  8  9  2  0
 10 11  1  0
 10  8  1  0
 11 12  1  6
 12 13  1  0
 13 14  2  0
 13 17  1  0
 15 11  1  0
 16 15  2  0
 18 15  1  0
 18 22  1  0
 19 20  1  0
 19 18  1  0
 20 21  1  0
 21 22  1  0
 22 23  1  6
 23 24  1  0
 25 23  2  0
M  END
$$$$
