QDP.pdb
     RDKit          3D

 25 25  0  0  1  0  0  0  0  0999 V2000
   24.4123  -10.8419  -14.7002 N   0  0  0  0  0  0  0  0  0  0  0  0
   23.9402  -10.2623  -15.8939 C   0  0  0  0  0  0  0  0  0  0  0  0
   24.7406   -9.5844  -16.5868 O   0  0  0  0  0  0  0  0  0  0  0  0
   22.5326  -10.4448  -16.3271 C   0  0  0  0  0  0  0  0  0  0  0  0
   21.7508  -11.2623  -15.3263 C   0  0  0  0  0  0  0  0  0  0  0  0
   20.3770  -11.5513  -15.8338 C   0  0  2  0  0  0  0  0  0  0  0  0
   20.4148  -12.3705  -17.0069 N   0  0  0  0  0  0  0  0  0  0  0  0
   19.6198  -10.2920  -16.0422 C   0  0  0  0  0  0  0  0  0  0  0  0
   19.4775   -9.7363  -17.1542 O   0  0  0  0  0  0  0  0  0  0  0  0
   18.9948   -9.6423  -14.9037 N   0  0  0  0  0  0  0  0  0  0  0  0
   18.2870   -8.4082  -15.0473 C   0  0  1  0  0  0  0  0  0  0  0  0
   17.2647   -8.2902  -13.9433 C   0  0  0  0  0  0  0  0  0  0  0  0
   17.8005   -8.8718  -12.7029 C   0  0  0  0  0  0  0  0  0  0  0  0
   18.2426  -10.0324  -12.6027 O   0  0  0  0  0  0  0  0  0  0  0  0
   19.0872   -7.1741  -15.0216 C   0  0  0  0  0  0  0  0  0  0  0  0
   20.2251   -7.3500  -14.4058 O   0  0  0  0  0  0  0  0  0  0  0  0
   17.8452   -8.1195  -11.5141 O   0  0  0  0  0  0  0  0  0  0  0  0
   18.7789   -5.9239  -15.5482 N   0  0  0  0  0  0  0  0  0  0  0  0
   17.4638   -5.5933  -16.0693 C   0  0  0  0  0  0  0  0  0  0  0  0
   17.7791   -4.7183  -17.2520 C   0  0  0  0  0  0  0  0  0  0  0  0
   19.2261   -4.3282  -17.1299 C   0  0  0  0  0  0  0  0  0  0  0  0
   19.5766   -4.7666  -15.6859 C   0  0  1  0  0  0  0  0  0  0  0  0
   19.1877   -3.6142  -14.8310 C   0  0  0  0  0  0  0  0  0  0  0  0
   19.9882   -2.4689  -14.7471 O   0  0  0  0  0  0  0  0  0  0  0  0
   18.1412   -3.5969  -14.1469 O   0  0  0  0  0  0  0  0  0  0  0  0
  1  2  1  0
  2  4  1  0
  3  2  2  0
  4  5  1  0
  6  8  1  0
  6  5  1  0
  6  7  1  6
  8  9  2  0
 10 11  1  0
 10  8  1  0
 11 12  1  1
 12 13  1  0
 13 14  2  0
 13 17  1  0
 15 11  1  0
 16 15  2  0
 18 15  1  0
 18 22  1  0
 19 20  1  0
 19 18  1  0
 20 21  1  0
 21 22  1  0
 22 23  1  1
 23 24  1  0
 25 23  2  0
M  END
$$$$
