QDP.pdb
     RDKit          3D

 25 25  0  0  1  0  0  0  0  0999 V2000
   14.1463  -13.0052  -16.0885 N   0  0  0  0  0  0  0  0  0  0  0  0
   15.2459  -13.8560  -16.3140 C   0  0  0  0  0  0  0  0  0  0  0  0
   15.0234  -15.0697  -16.5541 O   0  0  0  0  0  0  0  0  0  0  0  0
   16.6353  -13.3364  -16.2702 C   0  0  0  0  0  0  0  0  0  0  0  0
   16.6560  -11.8332  -16.1259 C   0  0  0  0  0  0  0  0  0  0  0  0
   18.0574  -11.3191  -16.1227 C   0  0  2  0  0  0  0  0  0  0  0  0
   18.9291  -12.1821  -15.3849 N   0  0  0  0  0  0  0  0  0  0  0  0
   18.1000   -9.9168  -15.6385 C   0  0  0  0  0  0  0  0  0  0  0  0
   17.5526   -8.9565  -16.2249 O   0  0  0  0  0  0  0  0  0  0  0  0
   18.8136   -9.6104  -14.4114 N   0  0  0  0  0  0  0  0  0  0  0  0
   18.9414   -8.2663  -13.9407 C   0  0  1  0  0  0  0  0  0  0  0  0
   18.9622   -8.2681  -12.4315 C   0  0  0  0  0  0  0  0  0  0  0  0
   17.5967   -8.4447  -11.9140 C   0  0  0  0  0  0  0  0  0  0  0  0
   16.5615   -8.2880  -12.5897 O   0  0  0  0  0  0  0  0  0  0  0  0
   20.1265   -7.5153  -14.3829 C   0  0  0  0  0  0  0  0  0  0  0  0
   21.1492   -8.3022  -14.5825 O   0  0  0  0  0  0  0  0  0  0  0  0
   17.3753   -8.8153  -10.5743 O   0  0  0  0  0  0  0  0  0  0  0  0
   20.2626   -6.1471  -14.5953 N   0  0  0  0  0  0  0  0  0  0  0  0
   19.1671   -5.2108  -14.4122 C   0  0  0  0  0  0  0  0  0  0  0  0
   19.3790   -4.2209  -15.5253 C   0  0  0  0  0  0  0  0  0  0  0  0
   20.7645   -4.4581  -16.0592 C   0  0  0  0  0  0  0  0  0  0  0  0
   21.3874   -5.3894  -14.9891 C   0  0  1  0  0  0  0  0  0  0  0  0
   21.9362   -4.4719  -13.9561 C   0  0  0  0  0  0  0  0  0  0  0  0
   23.1832   -3.8570  -14.1190 O   0  0  0  0  0  0  0  0  0  0  0  0
   21.3295   -4.1978  -12.8977 O   0  0  0  0  0  0  0  0  0  0  0  0
  1  2  1  0
  2  4  1  0
  3  2  2  0
  4  5  1  0
  6  8  1  0
  6  5  1  0
  6  7  1  1
  8  9  2  0
 10 11  1  0
 10  8  1  0
 11 12  1  1
 12 13  1  0
 13 14  2  0
 13 17  1  0
 15 11  1  0
 16 15  2  0
 18 15  1  0
 18 22  1  0
 19 20  1  0
 19 18  1  0
 20 21  1  0
 21 22  1  0
 22 23  1  1
 23 24  1  0
 25 23  2  0
M  END
$$$$
