QDP.pdb
     RDKit          3D

 25 25  0  0  1  0  0  0  0  0999 V2000
   15.6426  -13.2220  -15.5904 N   0  0  0  0  0  0  0  0  0  0  0  0
   15.5050  -14.6215  -15.6692 C   0  0  0  0  0  0  0  0  0  0  0  0
   14.3482  -15.1041  -15.7649 O   0  0  0  0  0  0  0  0  0  0  0  0
   16.6942  -15.5087  -15.6403 C   0  0  0  0  0  0  0  0  0  0  0  0
   17.9749  -14.7102  -15.5825 C   0  0  0  0  0  0  0  0  0  0  0  0
   18.6386  -14.6731  -16.9190 C   0  0  2  0  0  0  0  0  0  0  0  0
   19.3365  -15.8930  -17.1901 N   0  0  0  0  0  0  0  0  0  0  0  0
   19.5115  -13.4786  -17.0375 C   0  0  0  0  0  0  0  0  0  0  0  0
   20.7280  -13.4686  -16.7448 O   0  0  0  0  0  0  0  0  0  0  0  0
   18.9465  -12.2310  -17.5199 N   0  0  0  0  0  0  0  0  0  0  0  0
   19.7360  -11.0424  -17.6106 C   0  0  1  0  0  0  0  0  0  0  0  0
   19.1132  -10.1077  -18.6189 C   0  0  0  0  0  0  0  0  0  0  0  0
   19.9760   -8.9315  -18.8084 C   0  0  0  0  0  0  0  0  0  0  0  0
   20.9541   -8.8923  -19.5795 O   0  0  0  0  0  0  0  0  0  0  0  0
   19.9235  -10.2707  -16.3723 C   0  0  0  0  0  0  0  0  0  0  0  0
   18.8538  -10.2925  -15.6240 O   0  0  0  0  0  0  0  0  0  0  0  0
   19.7347   -7.7386  -18.1015 O   0  0  0  0  0  0  0  0  0  0  0  0
   21.0450   -9.5671  -15.9447 N   0  0  0  0  0  0  0  0  0  0  0  0
   22.2421   -9.4285  -16.7559 C   0  0  0  0  0  0  0  0  0  0  0  0
   23.3495   -9.5088  -15.7406 C   0  0  0  0  0  0  0  0  0  0  0  0
   22.7117   -9.3460  -14.3887 C   0  0  0  0  0  0  0  0  0  0  0  0
   21.2818   -8.8655  -14.7422 C   0  0  1  0  0  0  0  0  0  0  0  0
   21.3955   -7.3890  -14.8729 C   0  0  0  0  0  0  0  0  0  0  0  0
   21.5185   -6.5671  -13.7464 O   0  0  0  0  0  0  0  0  0  0  0  0
   21.3886   -6.8008  -15.9763 O   0  0  0  0  0  0  0  0  0  0  0  0
  1  2  1  0
  2  4  1  0
  3  2  2  0
  4  5  1  0
  6  8  1  0
  6  5  1  0
  6  7  1  1
  8  9  2  0
 10 11  1  0
 10  8  1  0
 11 12  1  6
 12 13  1  0
 13 14  2  0
 13 17  1  0
 15 11  1  0
 16 15  2  0
 18 15  1  0
 18 22  1  0
 19 20  1  0
 19 18  1  0
 20 21  1  0
 21 22  1  0
 22 23  1  6
 23 24  1  0
 25 23  2  0
M  END
$$$$
