QDP.pdb
     RDKit          3D

 25 25  0  0  1  0  0  0  0  0999 V2000
   15.1243  -13.1910  -14.2946 N   0  0  0  0  0  0  0  0  0  0  0  0
   15.0882  -14.0955  -15.3737 C   0  0  0  0  0  0  0  0  0  0  0  0
   14.0806  -14.8366  -15.4993 O   0  0  0  0  0  0  0  0  0  0  0  0
   16.2105  -14.1750  -16.3414 C   0  0  0  0  0  0  0  0  0  0  0  0
   17.2721  -13.1443  -16.0385 C   0  0  0  0  0  0  0  0  0  0  0  0
   18.3834  -13.2183  -17.0324 C   0  0  2  0  0  0  0  0  0  0  0  0
   19.0155  -14.5025  -17.0149 N   0  0  0  0  0  0  0  0  0  0  0  0
   19.3451  -12.1068  -16.8267 C   0  0  0  0  0  0  0  0  0  0  0  0
   20.2778  -12.1331  -15.9930 O   0  0  0  0  0  0  0  0  0  0  0  0
   19.2204  -10.9023  -17.6280 N   0  0  0  0  0  0  0  0  0  0  0  0
   20.0878   -9.7831  -17.4292 C   0  0  1  0  0  0  0  0  0  0  0  0
   20.2496   -9.0416  -18.7338 C   0  0  0  0  0  0  0  0  0  0  0  0
   20.9106   -9.9082  -19.7216 C   0  0  0  0  0  0  0  0  0  0  0  0
   20.3305  -10.4540  -20.6799 O   0  0  0  0  0  0  0  0  0  0  0  0
   19.6766   -8.7918  -16.4231 C   0  0  0  0  0  0  0  0  0  0  0  0
   18.3870   -8.8167  -16.2206 O   0  0  0  0  0  0  0  0  0  0  0  0
   22.2891  -10.1792  -19.6355 O   0  0  0  0  0  0  0  0  0  0  0  0
   20.4646   -7.8910  -15.7136 N   0  0  0  0  0  0  0  0  0  0  0  0
   21.9000   -7.7802  -15.9077 C   0  0  0  0  0  0  0  0  0  0  0  0
   22.4106   -7.5253  -14.5155 C   0  0  0  0  0  0  0  0  0  0  0  0
   21.2167   -7.1691  -13.6738 C   0  0  0  0  0  0  0  0  0  0  0  0
   20.1094   -6.9391  -14.7327 C   0  0  1  0  0  0  0  0  0  0  0  0
   20.2562   -5.5161  -15.1372 C   0  0  0  0  0  0  0  0  0  0  0  0
   19.7366   -4.4802  -14.3520 O   0  0  0  0  0  0  0  0  0  0  0  0
   20.8418   -5.1630  -16.1840 O   0  0  0  0  0  0  0  0  0  0  0  0
  1  2  1  0
  2  4  1  0
  3  2  2  0
  4  5  1  0
  6  8  1  0
  6  5  1  0
  6  7  1  1
  8  9  2  0
 10 11  1  0
 10  8  1  0
 11 12  1  6
 12 13  1  0
 13 14  2  0
 13 17  1  0
 15 11  1  0
 16 15  2  0
 18 15  1  0
 18 22  1  0
 19 20  1  0
 19 18  1  0
 20 21  1  0
 21 22  1  0
 22 23  1  6
 23 24  1  0
 25 23  2  0
M  END
$$$$
