QDP.pdb
     RDKit          3D

 25 25  0  0  1  0  0  0  0  0999 V2000
   22.0750  -30.9146  -15.4033 N   0  0  0  0  0  0  0  0  0  0  0  0
   21.6115  -31.1966  -16.7031 C   0  0  0  0  0  0  0  0  0  0  0  0
   20.5976  -31.9287  -16.8306 O   0  0  0  0  0  0  0  0  0  0  0  0
   22.3003  -30.6447  -17.8961 C   0  0  0  0  0  0  0  0  0  0  0  0
   23.4574  -29.7577  -17.5019 C   0  0  0  0  0  0  0  0  0  0  0  0
   24.7004  -30.1516  -18.2285 C   0  0  2  0  0  0  0  0  0  0  0  0
   25.4329  -31.1487  -17.5086 N   0  0  0  0  0  0  0  0  0  0  0  0
   25.5231  -28.9575  -18.5450 C   0  0  0  0  0  0  0  0  0  0  0  0
   25.1217  -27.9933  -19.2341 O   0  0  0  0  0  0  0  0  0  0  0  0
   26.8810  -28.8756  -18.0371 N   0  0  0  0  0  0  0  0  0  0  0  0
   27.7015  -27.7317  -18.2876 C   0  0  1  0  0  0  0  0  0  0  0  0
   28.7720  -27.6460  -17.2271 C   0  0  0  0  0  0  0  0  0  0  0  0
   28.1661  -27.2935  -15.9339 C   0  0  0  0  0  0  0  0  0  0  0  0
   27.2653  -26.4454  -15.7859 O   0  0  0  0  0  0  0  0  0  0  0  0
   28.3846  -27.6737  -19.5892 C   0  0  0  0  0  0  0  0  0  0  0  0
   28.5950  -28.8665  -20.0768 O   0  0  0  0  0  0  0  0  0  0  0  0
   28.5869  -27.9197  -14.7456 O   0  0  0  0  0  0  0  0  0  0  0  0
   28.8022  -26.5567  -20.3057 N   0  0  0  0  0  0  0  0  0  0  0  0
   28.6149  -25.1990  -19.8241 C   0  0  0  0  0  0  0  0  0  0  0  0
   28.2955  -24.4358  -21.0807 C   0  0  0  0  0  0  0  0  0  0  0  0
   28.6536  -25.3304  -22.2349 C   0  0  0  0  0  0  0  0  0  0  0  0
   29.4612  -26.4621  -21.5512 C   0  0  1  0  0  0  0  0  0  0  0  0
   30.8589  -25.9580  -21.5006 C   0  0  0  0  0  0  0  0  0  0  0  0
   31.6374  -25.8573  -22.6596 O   0  0  0  0  0  0  0  0  0  0  0  0
   31.4152  -25.5996  -20.4397 O   0  0  0  0  0  0  0  0  0  0  0  0
  1  2  1  0
  2  4  1  0
  3  2  2  0
  4  5  1  0
  6  8  1  0
  6  5  1  0
  6  7  1  1
  8  9  2  0
 10 11  1  0
 10  8  1  0
 11 12  1  1
 12 13  1  0
 13 14  2  0
 13 17  1  0
 15 11  1  0
 16 15  2  0
 18 15  1  0
 18 22  1  0
 19 20  1  0
 19 18  1  0
 20 21  1  0
 21 22  1  0
 22 23  1  1
 23 24  1  0
 25 23  2  0
M  END
$$$$
