QDP.pdb
     RDKit          3D

 25 25  0  0  1  0  0  0  0  0999 V2000
   18.3848  -12.3136  -15.6510 N   0  0  0  0  0  0  0  0  0  0  0  0
   19.5088  -13.1619  -15.6801 C   0  0  0  0  0  0  0  0  0  0  0  0
   19.5302  -14.1528  -14.9068 O   0  0  0  0  0  0  0  0  0  0  0  0
   20.6426  -12.8962  -16.5999 C   0  0  0  0  0  0  0  0  0  0  0  0
   20.3543  -11.7205  -17.5031 C   0  0  0  0  0  0  0  0  0  0  0  0
   21.1252  -10.5173  -17.0714 C   0  0  2  0  0  0  0  0  0  0  0  0
   21.5783  -10.6442  -15.7195 N   0  0  0  0  0  0  0  0  0  0  0  0
   20.3349   -9.2810  -17.2940 C   0  0  0  0  0  0  0  0  0  0  0  0
   20.1667   -8.7497  -18.4143 O   0  0  0  0  0  0  0  0  0  0  0  0
   19.7068   -8.6258  -16.1606 N   0  0  0  0  0  0  0  0  0  0  0  0
   18.9773   -7.4060  -16.3166 C   0  0  1  0  0  0  0  0  0  0  0  0
   17.9516   -7.2958  -15.2148 C   0  0  0  0  0  0  0  0  0  0  0  0
   17.0941   -6.1234  -15.4469 C   0  0  0  0  0  0  0  0  0  0  0  0
   17.2825   -5.0013  -14.9389 O   0  0  0  0  0  0  0  0  0  0  0  0
   19.7554   -6.1576  -16.3016 C   0  0  0  0  0  0  0  0  0  0  0  0
   20.7511   -6.2201  -15.4593 O   0  0  0  0  0  0  0  0  0  0  0  0
   15.9693   -6.2078  -16.2888 O   0  0  0  0  0  0  0  0  0  0  0  0
   19.5543   -4.9959  -17.0403 N   0  0  0  0  0  0  0  0  0  0  0  0
   18.4587   -4.8433  -17.9819 C   0  0  0  0  0  0  0  0  0  0  0  0
   19.0816   -4.0522  -19.0998 C   0  0  0  0  0  0  0  0  0  0  0  0
   20.3846   -3.5138  -18.5771 C   0  0  0  0  0  0  0  0  0  0  0  0
   20.2789   -3.7838  -17.0551 C   0  0  1  0  0  0  0  0  0  0  0  0
   19.5634   -2.6022  -16.5056 C   0  0  0  0  0  0  0  0  0  0  0  0
   20.1981   -1.3605  -16.3832 O   0  0  0  0  0  0  0  0  0  0  0  0
   18.3728   -2.6435  -16.1258 O   0  0  0  0  0  0  0  0  0  0  0  0
  1  2  1  0
  2  4  1  0
  3  2  2  0
  4  5  1  0
  6  8  1  0
  6  5  1  0
  6  7  1  1
  8  9  2  0
 10 11  1  0
 10  8  1  0
 11 12  1  1
 12 13  1  0
 13 14  2  0
 13 17  1  0
 15 11  1  0
 16 15  2  0
 18 15  1  0
 18 22  1  0
 19 20  1  0
 19 18  1  0
 20 21  1  0
 21 22  1  0
 22 23  1  1
 23 24  1  0
 25 23  2  0
M  END
$$$$
