QDP.pdb
     RDKit          3D

 25 25  0  0  1  0  0  0  0  0999 V2000
   19.0520  -17.3537  -13.8538 N   0  0  0  0  0  0  0  0  0  0  0  0
   19.4196  -18.3632  -14.7646 C   0  0  0  0  0  0  0  0  0  0  0  0
   19.2009  -19.5605  -14.4505 O   0  0  0  0  0  0  0  0  0  0  0  0
   20.0501  -18.0259  -16.0650 C   0  0  0  0  0  0  0  0  0  0  0  0
   20.1277  -16.5312  -16.2674 C   0  0  0  0  0  0  0  0  0  0  0  0
   21.3514  -16.1623  -17.0385 C   0  0  2  0  0  0  0  0  0  0  0  0
   22.2305  -17.2817  -17.1908 N   0  0  0  0  0  0  0  0  0  0  0  0
   22.0232  -14.9894  -16.4257 C   0  0  0  0  0  0  0  0  0  0  0  0
   22.2347  -14.8656  -15.1987 O   0  0  0  0  0  0  0  0  0  0  0  0
   22.4735  -13.9033  -17.2779 N   0  0  0  0  0  0  0  0  0  0  0  0
   23.1278  -12.7536  -16.7350 C   0  0  1  0  0  0  0  0  0  0  0  0
   23.8682  -12.0363  -17.8374 C   0  0  0  0  0  0  0  0  0  0  0  0
   24.9276  -12.9044  -18.3739 C   0  0  0  0  0  0  0  0  0  0  0  0
   25.8710  -13.3625  -17.7009 O   0  0  0  0  0  0  0  0  0  0  0  0
   22.2768  -11.7537  -16.0717 C   0  0  0  0  0  0  0  0  0  0  0  0
   21.0606  -11.7644  -16.5466 O   0  0  0  0  0  0  0  0  0  0  0  0
   24.9342  -13.2804  -19.7302 O   0  0  0  0  0  0  0  0  0  0  0  0
   22.6101  -10.8581  -15.0606 N   0  0  0  0  0  0  0  0  0  0  0  0
   23.9468  -10.7690  -14.4988 C   0  0  0  0  0  0  0  0  0  0  0  0
   23.6838  -10.5094  -13.0404 C   0  0  0  0  0  0  0  0  0  0  0  0
   22.2339  -10.1293  -12.9216 C   0  0  0  0  0  0  0  0  0  0  0  0
   21.8216   -9.8930  -14.3962 C   0  0  1  0  0  0  0  0  0  0  0  0
   22.1768   -8.4756  -14.6704 C   0  0  0  0  0  0  0  0  0  0  0  0
   23.2558   -8.1440  -15.4982 O   0  0  0  0  0  0  0  0  0  0  0  0
   21.5456   -7.5102  -14.1877 O   0  0  0  0  0  0  0  0  0  0  0  0
  1  2  1  0
  2  4  1  0
  3  2  2  0
  4  5  1  0
  6  8  1  0
  6  5  1  0
  6  7  1  1
  8  9  2  0
 10 11  1  0
 10  8  1  0
 11 12  1  6
 12 13  1  0
 13 14  2  0
 13 17  1  0
 15 11  1  0
 16 15  2  0
 18 15  1  0
 18 22  1  0
 19 20  1  0
 19 18  1  0
 20 21  1  0
 21 22  1  0
 22 23  1  6
 23 24  1  0
 25 23  2  0
M  END
$$$$
