IIM.pdb
     RDKit          3D

 25 24  0  0  1  0  0  0  0  0999 V2000
   27.3235  -20.4067  -19.8710 C   0  0  0  0  0  0  0  0  0  0  0  0
   27.9032  -20.8012  -18.5568 C   0  0  0  0  0  0  0  0  0  0  0  0
   26.9224  -21.2097  -17.5117 C   0  0  2  0  0  0  0  0  0  0  0  0
   25.9831  -20.0401  -17.2336 C   0  0  0  0  0  0  0  0  0  0  0  0
   27.5304  -21.6015  -16.2089 C   0  0  2  0  0  0  0  0  0  0  0  0
   28.5013  -22.6623  -16.3767 N   0  0  0  0  0  0  0  0  0  0  0  0
   26.5443  -21.9425  -15.1661 C   0  0  0  0  0  0  0  0  0  0  0  0
   25.9731  -23.0592  -15.2534 O   0  0  0  0  0  0  0  0  0  0  0  0
   25.6894  -21.0200   -9.2568 C   0  0  0  0  0  0  0  0  0  0  0  0
   24.9167  -21.4797  -10.5169 C   0  0  0  0  0  0  0  0  0  0  0  0
   25.7995  -21.1624  -11.6890 C   0  0  2  0  0  0  0  0  0  0  0  0
   26.1582  -19.6883  -11.5562 C   0  0  0  0  0  0  0  0  0  0  0  0
   25.2609  -21.5024  -13.0357 C   0  0  2  0  0  0  0  0  0  0  0  0
   26.2161  -21.0802  -14.0858 N   0  0  0  0  0  0  0  0  0  0  0  0
   23.9341  -20.9862  -13.3661 C   0  0  0  0  0  0  0  0  0  0  0  0
   23.7544  -19.7277  -13.5613 O   0  0  0  0  0  0  0  0  0  0  0  0
   19.2835  -23.5656  -17.2747 C   0  0  0  0  0  0  0  0  0  0  0  0
   18.3183  -23.0207  -15.8401 S   0  0  0  0  0  0  0  0  0  0  0  0
   19.2543  -21.6899  -14.9839 C   0  0  0  0  0  0  0  0  0  0  0  0
   20.6015  -22.1865  -14.5654 C   0  0  0  0  0  0  0  0  0  0  0  0
   21.4608  -21.1639  -13.8757 C   0  0  2  0  0  0  0  0  0  0  0  0
   22.7579  -21.7673  -13.5068 N   0  0  0  0  0  0  0  0  0  0  0  0
   20.8259  -20.5675  -12.6798 C   0  0  0  0  0  0  0  0  0  0  0  0
   20.9364  -21.1477  -11.5581 O   0  0  0  0  0  0  0  0  0  0  0  0
   20.1045  -19.3920  -12.7070 O   0  0  0  0  0  0  0  0  0  0  0  0
  2  1  1  0
  3  2  1  0
  3  5  1  0
  3  4  1  1
  5  6  1  6
  7  5  1  0
  7  8  2  0
 10  9  1  0
 11 13  1  0
 11 10  1  0
 11 12  1  6
 13 14  1  6
 14  7  1  0
 15 13  1  0
 16 15  2  0
 18 17  1  0
 19 18  1  0
 21 20  1  1
 20 19  1  0
 21 22  1  0
 22 15  1  0
 23 25  1  0
 23 21  1  0
 24 23  2  0
M  END
$$$$
