IIM.pdb
     RDKit          3D

 25 24  0  0  1  0  0  0  0  0999 V2000
   24.6449  -26.6675  -16.8480 C   0  0  0  0  0  0  0  0  0  0  0  0
   25.0280  -25.2910  -17.2689 C   0  0  0  0  0  0  0  0  0  0  0  0
   25.7459  -24.4767  -16.2478 C   0  0  2  0  0  0  0  0  0  0  0  0
   24.8413  -24.3029  -15.0316 C   0  0  0  0  0  0  0  0  0  0  0  0
   26.1337  -23.1118  -16.7029 C   0  0  2  0  0  0  0  0  0  0  0  0
   27.0822  -23.1687  -17.7953 N   0  0  0  0  0  0  0  0  0  0  0  0
   26.6203  -22.2353  -15.6206 C   0  0  0  0  0  0  0  0  0  0  0  0
   27.7828  -22.4412  -15.1883 O   0  0  0  0  0  0  0  0  0  0  0  0
   26.8194  -17.0243  -15.7957 C   0  0  0  0  0  0  0  0  0  0  0  0
   27.1634  -18.5074  -15.5161 C   0  0  0  0  0  0  0  0  0  0  0  0
   26.3348  -18.9139  -14.3320 C   0  0  2  0  0  0  0  0  0  0  0  0
   26.7524  -17.9934  -13.1928 C   0  0  0  0  0  0  0  0  0  0  0  0
   26.3823  -20.3538  -13.9526 C   0  0  2  0  0  0  0  0  0  0  0  0
   25.8471  -21.1868  -15.0540 N   0  0  0  0  0  0  0  0  0  0  0  0
   25.7176  -20.7307  -12.7067 C   0  0  0  0  0  0  0  0  0  0  0  0
   24.4622  -21.0099  -12.6963 O   0  0  0  0  0  0  0  0  0  0  0  0
   27.9377  -19.0164   -6.9032 C   0  0  0  0  0  0  0  0  0  0  0  0
   26.7961  -20.2961   -6.3154 S   0  0  0  0  0  0  0  0  0  0  0  0
   25.6694  -20.7461   -7.6968 C   0  0  0  0  0  0  0  0  0  0  0  0
   26.3898  -20.6639   -9.0049 C   0  0  0  0  0  0  0  0  0  0  0  0
   25.5663  -21.0539  -10.2005 C   0  0  2  0  0  0  0  0  0  0  0  0
   26.3433  -20.8318  -11.4372 N   0  0  0  0  0  0  0  0  0  0  0  0
   24.2724  -20.3413  -10.2853 C   0  0  0  0  0  0  0  0  0  0  0  0
   24.2127  -19.2216  -10.8767 O   0  0  0  0  0  0  0  0  0  0  0  0
   23.0981  -20.8287   -9.7500 O   0  0  0  0  0  0  0  0  0  0  0  0
  2  1  1  0
  3  2  1  0
  3  5  1  0
  3  4  1  1
  5  6  1  6
  7  5  1  0
  7  8  2  0
 10  9  1  0
 11 13  1  0
 11 10  1  0
 11 12  1  1
 13 14  1  6
 14  7  1  0
 15 13  1  0
 16 15  2  0
 18 17  1  0
 19 18  1  0
 21 20  1  1
 20 19  1  0
 21 22  1  0
 22 15  1  0
 23 25  1  0
 23 21  1  0
 24 23  2  0
M  END
$$$$
