IIM.pdb
     RDKit          3D

 25 24  0  0  1  0  0  0  0  0999 V2000
   28.3192  -18.2604  -17.5216 C   0  0  0  0  0  0  0  0  0  0  0  0
   28.3945  -19.2869  -16.4450 C   0  0  0  0  0  0  0  0  0  0  0  0
   27.6405  -18.9753  -15.1978 C   0  0  2  0  0  0  0  0  0  0  0  0
   28.2271  -17.7149  -14.5695 C   0  0  0  0  0  0  0  0  0  0  0  0
   27.6880  -20.0438  -14.1602 C   0  0  2  0  0  0  0  0  0  0  0  0
   27.3251  -21.3324  -14.7118 N   0  0  0  0  0  0  0  0  0  0  0  0
   26.8983  -19.7407  -12.9516 C   0  0  0  0  0  0  0  0  0  0  0  0
   27.0200  -18.5923  -12.4543 O   0  0  0  0  0  0  0  0  0  0  0  0
   21.7034  -20.6591  -12.6352 C   0  0  0  0  0  0  0  0  0  0  0  0
   23.1039  -20.0072  -12.5371 C   0  0  0  0  0  0  0  0  0  0  0  0
   23.7872  -20.6556  -11.3681 C   0  0  2  0  0  0  0  0  0  0  0  0
   22.9157  -20.3572  -10.1553 C   0  0  0  0  0  0  0  0  0  0  0  0
   25.2158  -20.2934  -11.1508 C   0  0  2  0  0  0  0  0  0  0  0  0
   26.0212  -20.6724  -12.3344 N   0  0  0  0  0  0  0  0  0  0  0  0
   25.8570  -20.8262   -9.9504 C   0  0  0  0  0  0  0  0  0  0  0  0
   26.2061  -22.0626   -9.8920 O   0  0  0  0  0  0  0  0  0  0  0  0
   30.0009  -18.3092   -5.5771 C   0  0  0  0  0  0  0  0  0  0  0  0
   28.7746  -19.0254   -4.4502 S   0  0  0  0  0  0  0  0  0  0  0  0
   27.8228  -20.3037   -5.3668 C   0  0  0  0  0  0  0  0  0  0  0  0
   27.3084  -19.7462   -6.6558 C   0  0  0  0  0  0  0  0  0  0  0  0
   26.6007  -20.7417   -7.5320 C   0  0  2  0  0  0  0  0  0  0  0  0
   26.1567  -20.0845   -8.7785 N   0  0  0  0  0  0  0  0  0  0  0  0
   25.4500  -21.3974   -6.8724 C   0  0  0  0  0  0  0  0  0  0  0  0
   24.2821  -20.9376   -7.0501 O   0  0  0  0  0  0  0  0  0  0  0  0
   25.5687  -22.5039   -6.0573 O   0  0  0  0  0  0  0  0  0  0  0  0
  2  1  1  0
  3  2  1  0
  3  5  1  0
  3  4  1  1
  5  6  1  6
  7  5  1  0
  7  8  2  0
 10  9  1  0
 11 13  1  0
 11 10  1  0
 11 12  1  1
 13 14  1  6
 14  7  1  0
 15 13  1  0
 16 15  2  0
 18 17  1  0
 19 18  1  0
 21 20  1  1
 20 19  1  0
 21 22  1  0
 22 15  1  0
 23 25  1  0
 23 21  1  0
 24 23  2  0
M  END
$$$$
