IIM.pdb
     RDKit          3D

 25 24  0  0  1  0  0  0  0  0999 V2000
   28.5992  -19.4272   -4.8400 C   0  0  0  0  0  0  0  0  0  0  0  0
   28.4938  -20.3937   -5.9684 C   0  0  0  0  0  0  0  0  0  0  0  0
   27.4407  -20.0970   -6.9804 C   0  0  2  0  0  0  0  0  0  0  0  0
   26.0738  -20.1807   -6.3079 C   0  0  0  0  0  0  0  0  0  0  0  0
   27.4147  -21.0307   -8.1414 C   0  0  2  0  0  0  0  0  0  0  0  0
   28.7533  -21.3661   -8.5797 N   0  0  0  0  0  0  0  0  0  0  0  0
   26.5873  -20.5614   -9.2690 C   0  0  0  0  0  0  0  0  0  0  0  0
   26.2587  -19.3479   -9.2794 O   0  0  0  0  0  0  0  0  0  0  0  0
   28.4583  -20.8317  -13.9047 C   0  0  0  0  0  0  0  0  0  0  0  0
   27.6963  -20.3672  -12.6400 C   0  0  0  0  0  0  0  0  0  0  0  0
   26.3337  -20.9928  -12.7180 C   0  0  2  0  0  0  0  0  0  0  0  0
   25.6869  -20.4319  -13.9775 C   0  0  0  0  0  0  0  0  0  0  0  0
   25.4675  -20.8470  -11.5148 C   0  0  2  0  0  0  0  0  0  0  0  0
   26.1520  -21.4051  -10.3259 N   0  0  0  0  0  0  0  0  0  0  0  0
   24.1225  -21.4130  -11.5969 C   0  0  0  0  0  0  0  0  0  0  0  0
   23.9218  -22.6568  -11.3387 O   0  0  0  0  0  0  0  0  0  0  0  0
   19.7749  -22.8927   -8.0957 C   0  0  0  0  0  0  0  0  0  0  0  0
   18.7311  -21.9234   -9.2171 S   0  0  0  0  0  0  0  0  0  0  0  0
   19.5111  -21.9266  -10.8821 C   0  0  0  0  0  0  0  0  0  0  0  0
   20.8916  -21.3556  -10.8121 C   0  0  0  0  0  0  0  0  0  0  0  0
   21.6445  -21.3730  -12.1131 C   0  0  2  0  0  0  0  0  0  0  0  0
   22.9478  -20.6976  -11.9459 N   0  0  0  0  0  0  0  0  0  0  0  0
   20.9008  -20.7591  -13.2351 C   0  0  0  0  0  0  0  0  0  0  0  0
   21.0866  -19.5365  -13.5140 O   0  0  0  0  0  0  0  0  0  0  0  0
   19.9968  -21.4480  -14.0169 O   0  0  0  0  0  0  0  0  0  0  0  0
  2  1  1  0
  3  2  1  0
  3  5  1  0
  3  4  1  1
  5  6  1  6
  7  5  1  0
  7  8  2  0
 10  9  1  0
 11 13  1  0
 11 10  1  0
 11 12  1  6
 13 14  1  1
 14  7  1  0
 15 13  1  0
 16 15  2  0
 18 17  1  0
 19 18  1  0
 21 20  1  1
 20 19  1  0
 21 22  1  0
 22 15  1  0
 23 25  1  0
 23 21  1  0
 24 23  2  0
M  END
$$$$
