IIM.pdb
     RDKit          3D

 25 24  0  0  1  0  0  0  0  0999 V2000
   28.3254  -18.3839  -14.8827 C   0  0  0  0  0  0  0  0  0  0  0  0
   27.4203  -19.5457  -15.1053 C   0  0  0  0  0  0  0  0  0  0  0  0
   27.0986  -20.3579  -13.8978 C   0  0  2  0  0  0  0  0  0  0  0  0
   27.2661  -21.8355  -14.2391 C   0  0  0  0  0  0  0  0  0  0  0  0
   25.7111  -20.1827  -13.3833 C   0  0  2  0  0  0  0  0  0  0  0  0
   25.3090  -18.7920  -13.4113 N   0  0  0  0  0  0  0  0  0  0  0  0
   25.4870  -20.7748  -12.0509 C   0  0  0  0  0  0  0  0  0  0  0  0
   25.6572  -22.0150  -11.9333 O   0  0  0  0  0  0  0  0  0  0  0  0
   27.2557  -19.2703   -7.3233 C   0  0  0  0  0  0  0  0  0  0  0  0
   26.7887  -20.1856   -8.4810 C   0  0  0  0  0  0  0  0  0  0  0  0
   25.2889  -20.1188   -8.4894 C   0  0  2  0  0  0  0  0  0  0  0  0
   24.8334  -20.7689   -7.1897 C   0  0  0  0  0  0  0  0  0  0  0  0
   24.6067  -20.6880   -9.6852 C   0  0  2  0  0  0  0  0  0  0  0  0
   25.0939  -20.0196  -10.9137 N   0  0  0  0  0  0  0  0  0  0  0  0
   23.1453  -20.6697   -9.6830 C   0  0  0  0  0  0  0  0  0  0  0  0
   22.5039  -19.7552  -10.3205 O   0  0  0  0  0  0  0  0  0  0  0  0
   20.7189  -22.4972  -13.6671 C   0  0  0  0  0  0  0  0  0  0  0  0
   19.0789  -22.6647  -12.9127 S   0  0  0  0  0  0  0  0  0  0  0  0
   19.2095  -22.2104  -11.1360 C   0  0  0  0  0  0  0  0  0  0  0  0
   20.6432  -22.0409  -10.7453 C   0  0  0  0  0  0  0  0  0  0  0  0
   20.8628  -21.6949   -9.2990 C   0  0  2  0  0  0  0  0  0  0  0  0
   22.3109  -21.6065   -9.0200 N   0  0  0  0  0  0  0  0  0  0  0  0
   20.2274  -22.6458   -8.3604 C   0  0  0  0  0  0  0  0  0  0  0  0
   18.9639  -22.7430   -8.3285 O   0  0  0  0  0  0  0  0  0  0  0  0
   20.9383  -23.4537   -7.4972 O   0  0  0  0  0  0  0  0  0  0  0  0
  2  1  1  0
  3  2  1  0
  3  5  1  0
  3  4  1  6
  5  6  1  1
  7  5  1  0
  7  8  2  0
 10  9  1  0
 11 13  1  0
 11 10  1  0
 11 12  1  1
 13 14  1  6
 14  7  1  0
 15 13  1  0
 16 15  2  0
 18 17  1  0
 19 18  1  0
 21 20  1  6
 20 19  1  0
 21 22  1  0
 22 15  1  0
 23 25  1  0
 23 21  1  0
 24 23  2  0
M  END
$$$$
