IIM.pdb
     RDKit          3D

 25 24  0  0  1  0  0  0  0  0999 V2000
   25.9102  -18.0380  -18.1968 C   0  0  0  0  0  0  0  0  0  0  0  0
   25.6342  -19.4595  -18.5457 C   0  0  0  0  0  0  0  0  0  0  0  0
   24.9604  -20.2674  -17.4901 C   0  0  2  0  0  0  0  0  0  0  0  0
   23.6557  -19.5790  -17.1007 C   0  0  0  0  0  0  0  0  0  0  0  0
   25.7531  -20.4408  -16.2402 C   0  0  2  0  0  0  0  0  0  0  0  0
   27.0026  -21.1255  -16.4979 N   0  0  0  0  0  0  0  0  0  0  0  0
   25.0082  -21.0873  -15.1433 C   0  0  0  0  0  0  0  0  0  0  0  0
   24.6204  -22.2693  -15.3256 O   0  0  0  0  0  0  0  0  0  0  0  0
   26.0118  -20.7558   -9.7626 C   0  0  0  0  0  0  0  0  0  0  0  0
   25.6695  -21.3456  -11.1522 C   0  0  0  0  0  0  0  0  0  0  0  0
   24.3316  -20.7791  -11.5302 C   0  0  2  0  0  0  0  0  0  0  0  0
   23.3633  -21.2326  -10.4457 C   0  0  0  0  0  0  0  0  0  0  0  0
   23.8431  -21.0917  -12.9024 C   0  0  2  0  0  0  0  0  0  0  0  0
   24.7138  -20.4449  -13.9108 N   0  0  0  0  0  0  0  0  0  0  0  0
   22.4500  -20.7633  -13.1982 C   0  0  0  0  0  0  0  0  0  0  0  0
   22.0364  -19.5479  -13.1219 O   0  0  0  0  0  0  0  0  0  0  0  0
   18.4685  -23.9744  -17.0019 C   0  0  0  0  0  0  0  0  0  0  0  0
   17.1480  -23.2504  -15.9925 S   0  0  0  0  0  0  0  0  0  0  0  0
   17.8904  -21.9750  -14.8959 C   0  0  0  0  0  0  0  0  0  0  0  0
   19.3410  -22.2613  -14.6708 C   0  0  0  0  0  0  0  0  0  0  0  0
   20.0384  -21.2899  -13.7600 C   0  0  2  0  0  0  0  0  0  0  0  0
   21.4495  -21.6916  -13.5864 N   0  0  0  0  0  0  0  0  0  0  0  0
   19.3898  -21.1487  -12.4378 C   0  0  0  0  0  0  0  0  0  0  0  0
   19.7462  -21.9022  -11.4827 O   0  0  0  0  0  0  0  0  0  0  0  0
   18.3987  -20.2271  -12.1703 O   0  0  0  0  0  0  0  0  0  0  0  0
  2  1  1  0
  3  2  1  0
  3  5  1  0
  3  4  1  1
  5  6  1  6
  7  5  1  0
  7  8  2  0
 10  9  1  0
 11 13  1  0
 11 10  1  0
 11 12  1  1
 13 14  1  6
 14  7  1  0
 15 13  1  0
 16 15  2  0
 18 17  1  0
 19 18  1  0
 21 20  1  6
 20 19  1  0
 21 22  1  0
 22 15  1  0
 23 25  1  0
 23 21  1  0
 24 23  2  0
M  END
$$$$
