IIM.pdb
     RDKit          3D

 25 24  0  0  1  0  0  0  0  0999 V2000
   19.6858  -21.2647  -16.2600 C   0  0  0  0  0  0  0  0  0  0  0  0
   21.0431  -20.8709  -16.7303 C   0  0  0  0  0  0  0  0  0  0  0  0
   22.1766  -21.2744  -15.8508 C   0  0  2  0  0  0  0  0  0  0  0  0
   21.9854  -20.6376  -14.4776 C   0  0  0  0  0  0  0  0  0  0  0  0
   23.5212  -20.8600  -16.3415 C   0  0  2  0  0  0  0  0  0  0  0  0
   23.8005  -21.4151  -17.6492 N   0  0  0  0  0  0  0  0  0  0  0  0
   24.6177  -21.1453  -15.3968 C   0  0  0  0  0  0  0  0  0  0  0  0
   25.0220  -22.3334  -15.3220 O   0  0  0  0  0  0  0  0  0  0  0  0
   28.7068  -21.1378  -15.5346 C   0  0  0  0  0  0  0  0  0  0  0  0
   28.0884  -19.7226  -15.4310 C   0  0  0  0  0  0  0  0  0  0  0  0
   27.5362  -19.6071  -14.0397 C   0  0  2  0  0  0  0  0  0  0  0  0
   28.7172  -19.8178  -13.1016 C   0  0  0  0  0  0  0  0  0  0  0  0
   26.3788  -20.4855  -13.7109 C   0  0  2  0  0  0  0  0  0  0  0  0
   25.2271  -20.1545  -14.5811 N   0  0  0  0  0  0  0  0  0  0  0  0
   25.9335  -20.4976  -12.3189 C   0  0  0  0  0  0  0  0  0  0  0  0
   25.1685  -19.5658  -11.8711 O   0  0  0  0  0  0  0  0  0  0  0  0
   29.1666  -19.9361   -7.2907 C   0  0  0  0  0  0  0  0  0  0  0  0
   27.5277  -19.3033   -6.8431 S   0  0  0  0  0  0  0  0  0  0  0  0
   26.2622  -20.2769   -7.7546 C   0  0  0  0  0  0  0  0  0  0  0  0
   26.7427  -20.5935   -9.1351 C   0  0  0  0  0  0  0  0  0  0  0  0
   25.7863  -21.4075   -9.9612 C   0  0  2  0  0  0  0  0  0  0  0  0
   26.2690  -21.4837  -11.3554 N   0  0  0  0  0  0  0  0  0  0  0  0
   24.3990  -20.8940   -9.9372 C   0  0  0  0  0  0  0  0  0  0  0  0
   24.1281  -19.7972  -10.5123 O   0  0  0  0  0  0  0  0  0  0  0  0
   23.3556  -21.5477   -9.3149 O   0  0  0  0  0  0  0  0  0  0  0  0
  2  1  1  0
  3  2  1  0
  3  5  1  0
  3  4  1  1
  5  6  1  6
  7  5  1  0
  7  8  2  0
 10  9  1  0
 11 13  1  0
 11 10  1  0
 11 12  1  1
 13 14  1  6
 14  7  1  0
 15 13  1  0
 16 15  2  0
 18 17  1  0
 19 18  1  0
 21 20  1  1
 20 19  1  0
 21 22  1  0
 22 15  1  0
 23 25  1  0
 23 21  1  0
 24 23  2  0
M  END
$$$$
