IIM.pdb
     RDKit          3D

 25 24  0  0  1  0  0  0  0  0999 V2000
   21.8826  -17.1795  -15.9602 C   0  0  0  0  0  0  0  0  0  0  0  0
   20.4912  -16.6527  -15.8901 C   0  0  0  0  0  0  0  0  0  0  0  0
   20.3171  -15.2264  -16.2858 C   0  0  2  0  0  0  0  0  0  0  0  0
   21.1275  -14.3493  -15.3362 C   0  0  0  0  0  0  0  0  0  0  0  0
   18.9105  -14.7367  -16.2400 C   0  0  2  0  0  0  0  0  0  0  0  0
   18.0316  -15.5806  -17.0221 N   0  0  0  0  0  0  0  0  0  0  0  0
   18.7577  -13.3178  -16.6139 C   0  0  0  0  0  0  0  0  0  0  0  0
   19.0996  -12.9865  -17.7776 O   0  0  0  0  0  0  0  0  0  0  0  0
   14.5306  -10.5695  -16.6720 C   0  0  0  0  0  0  0  0  0  0  0  0
   15.9730  -10.7874  -17.1897 C   0  0  0  0  0  0  0  0  0  0  0  0
   16.8868  -10.3404  -16.0855 C   0  0  2  0  0  0  0  0  0  0  0  0
   16.8625   -8.8178  -16.1124 C   0  0  0  0  0  0  0  0  0  0  0  0
   18.2703  -10.8923  -16.1057 C   0  0  2  0  0  0  0  0  0  0  0  0
   18.2506  -12.3254  -15.7328 N   0  0  0  0  0  0  0  0  0  0  0  0
   19.2681  -10.2035  -15.2895 C   0  0  0  0  0  0  0  0  0  0  0  0
   19.2197  -10.2711  -14.0061 O   0  0  0  0  0  0  0  0  0  0  0  0
   25.2048  -11.1366  -13.7065 C   0  0  0  0  0  0  0  0  0  0  0  0
   24.7439  -10.8089  -15.4289 S   0  0  0  0  0  0  0  0  0  0  0  0
   23.6369   -9.3414  -15.4631 C   0  0  0  0  0  0  0  0  0  0  0  0
   22.4564   -9.5581  -14.5707 C   0  0  0  0  0  0  0  0  0  0  0  0
   21.2641   -8.6992  -14.8877 C   0  0  2  0  0  0  0  0  0  0  0  0
   20.3472   -9.4286  -15.7878 N   0  0  0  0  0  0  0  0  0  0  0  0
   21.6184   -7.3920  -15.4832 C   0  0  0  0  0  0  0  0  0  0  0  0
   21.3622   -7.1713  -16.7050 O   0  0  0  0  0  0  0  0  0  0  0  0
   22.2236   -6.3727  -14.7776 O   0  0  0  0  0  0  0  0  0  0  0  0
  2  1  1  0
  3  2  1  0
  3  5  1  0
  3  4  1  1
  5  6  1  6
  7  5  1  0
  7  8  2  0
 10  9  1  0
 11 13  1  0
 11 10  1  0
 11 12  1  6
 13 14  1  1
 14  7  1  0
 15 13  1  0
 16 15  2  0
 18 17  1  0
 19 18  1  0
 21 20  1  6
 20 19  1  0
 21 22  1  0
 22 15  1  0
 23 25  1  0
 23 21  1  0
 24 23  2  0
M  END
$$$$
