IIM.pdb
     RDKit          3D

 25 24  0  0  1  0  0  0  0  0999 V2000
   22.4697  -18.8026  -18.0750 C   0  0  0  0  0  0  0  0  0  0  0  0
   23.6806  -19.1963  -17.3022 C   0  0  0  0  0  0  0  0  0  0  0  0
   23.4269  -19.8994  -16.0128 C   0  0  2  0  0  0  0  0  0  0  0  0
   22.5835  -18.9969  -15.1174 C   0  0  0  0  0  0  0  0  0  0  0  0
   24.6549  -20.2519  -15.2458 C   0  0  2  0  0  0  0  0  0  0  0  0
   25.5786  -21.0218  -16.0521 N   0  0  0  0  0  0  0  0  0  0  0  0
   24.3858  -20.9213  -13.9590 C   0  0  0  0  0  0  0  0  0  0  0  0
   24.0405  -22.1297  -13.9970 O   0  0  0  0  0  0  0  0  0  0  0  0
   25.9476  -20.8089   -8.0941 C   0  0  0  0  0  0  0  0  0  0  0  0
   24.8280  -21.3091   -9.0387 C   0  0  0  0  0  0  0  0  0  0  0  0
   25.0797  -20.6589  -10.3683 C   0  0  2  0  0  0  0  0  0  0  0  0
   25.2023  -19.1669  -10.0884 C   0  0  0  0  0  0  0  0  0  0  0  0
   24.1007  -20.9609  -11.4498 C   0  0  2  0  0  0  0  0  0  0  0  0
   24.4971  -20.2729  -12.6999 N   0  0  0  0  0  0  0  0  0  0  0  0
   22.6966  -20.6662  -11.1709 C   0  0  0  0  0  0  0  0  0  0  0  0
   22.1446  -19.6087  -11.6514 O   0  0  0  0  0  0  0  0  0  0  0  0
   18.8672  -24.1953  -14.0955 C   0  0  0  0  0  0  0  0  0  0  0  0
   18.2847  -22.4806  -14.0103 S   0  0  0  0  0  0  0  0  0  0  0  0
   18.5652  -21.8578  -12.3034 C   0  0  0  0  0  0  0  0  0  0  0  0
   20.0282  -21.8236  -11.9947 C   0  0  0  0  0  0  0  0  0  0  0  0
   20.3621  -21.4456  -10.5786 C   0  0  2  0  0  0  0  0  0  0  0  0
   21.8268  -21.4677  -10.3870 N   0  0  0  0  0  0  0  0  0  0  0  0
   19.7100  -22.3065   -9.5673 C   0  0  0  0  0  0  0  0  0  0  0  0
   18.4446  -22.3524   -9.5074 O   0  0  0  0  0  0  0  0  0  0  0  0
   20.4070  -23.0818   -8.6639 O   0  0  0  0  0  0  0  0  0  0  0  0
  2  1  1  0
  3  2  1  0
  3  5  1  0
  3  4  1  1
  5  6  1  6
  7  5  1  0
  7  8  2  0
 10  9  1  0
 11 13  1  0
 11 10  1  0
 11 12  1  1
 13 14  1  6
 14  7  1  0
 15 13  1  0
 16 15  2  0
 18 17  1  0
 19 18  1  0
 21 20  1  6
 20 19  1  0
 21 22  1  0
 22 15  1  0
 23 25  1  0
 23 21  1  0
 24 23  2  0
M  END
$$$$
