IIM.pdb
     RDKit          3D

 25 24  0  0  1  0  0  0  0  0999 V2000
   26.4296  -25.2473  -17.4342 C   0  0  0  0  0  0  0  0  0  0  0  0
   27.3863  -24.3540  -18.1450 C   0  0  0  0  0  0  0  0  0  0  0  0
   28.7982  -24.8282  -18.1996 C   0  0  2  0  0  0  0  0  0  0  0  0
   28.8027  -26.3368  -18.4274 C   0  0  0  0  0  0  0  0  0  0  0  0
   29.5879  -24.5706  -16.9625 C   0  0  2  0  0  0  0  0  0  0  0  0
   29.5523  -23.1706  -16.5950 N   0  0  0  0  0  0  0  0  0  0  0  0
   30.9747  -25.0701  -17.0222 C   0  0  0  0  0  0  0  0  0  0  0  0
   31.6821  -24.6978  -17.9927 O   0  0  0  0  0  0  0  0  0  0  0  0
   34.6511  -25.1017  -13.1394 C   0  0  0  0  0  0  0  0  0  0  0  0
   33.9001  -24.9726  -14.4868 C   0  0  0  0  0  0  0  0  0  0  0  0
   33.6809  -26.3733  -14.9806 C   0  0  2  0  0  0  0  0  0  0  0  0
   35.0642  -27.0014  -15.0865 C   0  0  0  0  0  0  0  0  0  0  0  0
   32.8878  -26.5180  -16.2333 C   0  0  2  0  0  0  0  0  0  0  0  0
   31.5374  -25.9387  -16.0490 N   0  0  0  0  0  0  0  0  0  0  0  0
   32.7547  -27.8676  -16.7784 C   0  0  0  0  0  0  0  0  0  0  0  0
   31.6769  -28.5434  -16.5897 O   0  0  0  0  0  0  0  0  0  0  0  0
   29.2242  -29.9081  -19.8887 C   0  0  0  0  0  0  0  0  0  0  0  0
   30.4817  -30.7233  -20.9089 S   0  0  0  0  0  0  0  0  0  0  0  0
   31.9879  -30.9706  -19.8839 C   0  0  0  0  0  0  0  0  0  0  0  0
   32.2526  -29.7604  -19.0459 C   0  0  0  0  0  0  0  0  0  0  0  0
   33.4698  -29.8583  -18.1692 C   0  0  2  0  0  0  0  0  0  0  0  0
   33.7393  -28.5493  -17.5395 N   0  0  0  0  0  0  0  0  0  0  0  0
   34.6765  -30.3304  -18.8832 C   0  0  0  0  0  0  0  0  0  0  0  0
   35.6248  -29.5207  -19.1117 O   0  0  0  0  0  0  0  0  0  0  0  0
   34.8408  -31.6264  -19.3265 O   0  0  0  0  0  0  0  0  0  0  0  0
  2  1  1  0
  3  2  1  0
  3  5  1  0
  3  4  1  1
  5  6  1  6
  7  5  1  0
  7  8  2  0
 10  9  1  0
 11 13  1  0
 11 10  1  0
 11 12  1  6
 13 14  1  1
 14  7  1  0
 15 13  1  0
 16 15  2  0
 18 17  1  0
 19 18  1  0
 21 20  1  6
 20 19  1  0
 21 22  1  0
 22 15  1  0
 23 25  1  0
 23 21  1  0
 24 23  2  0
M  END
$$$$
