IIM.pdb
     RDKit          3D

 25 24  0  0  1  0  0  0  0  0999 V2000
   43.9993  -34.0316  -52.5638 C   0  0  0  0  0  0  0  0  0  0  0  0
   44.2133  -35.4958  -52.3941 C   0  0  0  0  0  0  0  0  0  0  0  0
   43.2598  -36.3794  -53.1229 C   0  0  2  0  0  0  0  0  0  0  0  0
   42.7946  -37.4854  -52.1805 C   0  0  0  0  0  0  0  0  0  0  0  0
   43.8276  -37.0437  -54.3299 C   0  0  2  0  0  0  0  0  0  0  0  0
   44.9301  -36.2843  -54.8814 N   0  0  0  0  0  0  0  0  0  0  0  0
   42.8268  -37.3587  -55.3669 C   0  0  0  0  0  0  0  0  0  0  0  0
   42.9558  -36.7975  -56.4846 O   0  0  0  0  0  0  0  0  0  0  0  0
   39.1847  -40.5565  -55.5613 C   0  0  0  0  0  0  0  0  0  0  0  0
   38.4294  -39.2461  -55.8905 C   0  0  0  0  0  0  0  0  0  0  0  0
   39.4805  -38.1880  -56.0620 C   0  0  2  0  0  0  0  0  0  0  0  0
   38.9836  -37.2814  -57.1803 C   0  0  0  0  0  0  0  0  0  0  0  0
   40.8728  -38.6672  -56.2882 C   0  0  2  0  0  0  0  0  0  0  0  0
   41.7415  -38.2525  -55.1627 N   0  0  0  0  0  0  0  0  0  0  0  0
   41.5085  -38.2796  -57.5459 C   0  0  0  0  0  0  0  0  0  0  0  0
   41.8577  -39.1733  -58.4023 O   0  0  0  0  0  0  0  0  0  0  0  0
   39.3585  -35.0752  -60.8911 C   0  0  0  0  0  0  0  0  0  0  0  0
   38.9393  -36.8378  -60.8285 S   0  0  0  0  0  0  0  0  0  0  0  0
   38.6037  -37.2916  -59.0787 C   0  0  0  0  0  0  0  0  0  0  0  0
   39.4178  -36.4429  -58.1547 C   0  0  0  0  0  0  0  0  0  0  0  0
   40.7979  -36.1173  -58.6539 C   0  0  2  0  0  0  0  0  0  0  0  0
   41.7943  -36.9493  -57.9486 N   0  0  0  0  0  0  0  0  0  0  0  0
   41.1528  -34.6872  -58.5208 C   0  0  0  0  0  0  0  0  0  0  0  0
   41.1498  -34.1462  -57.3744 O   0  0  0  0  0  0  0  0  0  0  0  0
   41.4961  -33.8851  -59.5894 O   0  0  0  0  0  0  0  0  0  0  0  0
  2  1  1  0
  3  2  1  0
  3  5  1  0
  3  4  1  1
  5  6  1  6
  7  5  1  0
  7  8  2  0
 10  9  1  0
 11 13  1  0
 11 10  1  0
 11 12  1  6
 13 14  1  1
 14  7  1  0
 15 13  1  0
 16 15  2  0
 18 17  1  0
 19 18  1  0
 21 20  1  1
 20 19  1  0
 21 22  1  0
 22 15  1  0
 23 25  1  0
 23 21  1  0
 24 23  2  0
M  END
$$$$
