IIM.pdb
     RDKit          3D

 25 24  0  0  1  0  0  0  0  0999 V2000
   19.4186  -19.7648  -14.9137 C   0  0  0  0  0  0  0  0  0  0  0  0
   20.7297  -19.5287  -15.5799 C   0  0  0  0  0  0  0  0  0  0  0  0
   21.9038  -20.2049  -14.9590 C   0  0  2  0  0  0  0  0  0  0  0  0
   22.0087  -19.7693  -13.5007 C   0  0  0  0  0  0  0  0  0  0  0  0
   23.2112  -19.8946  -15.6031 C   0  0  2  0  0  0  0  0  0  0  0  0
   23.2102  -20.2608  -17.0039 N   0  0  0  0  0  0  0  0  0  0  0  0
   24.3753  -20.4703  -14.9033 C   0  0  0  0  0  0  0  0  0  0  0  0
   24.5993  -21.6968  -15.0659 O   0  0  0  0  0  0  0  0  0  0  0  0
   29.2231  -18.9601  -15.5749 C   0  0  0  0  0  0  0  0  0  0  0  0
   27.9339  -19.7833  -15.3371 C   0  0  0  0  0  0  0  0  0  0  0  0
   27.6653  -19.7246  -13.8611 C   0  0  2  0  0  0  0  0  0  0  0  0
   28.8945  -20.3205  -13.1878 C   0  0  0  0  0  0  0  0  0  0  0  0
   26.3960  -20.3482  -13.3930 C   0  0  2  0  0  0  0  0  0  0  0  0
   25.2400  -19.7140  -14.0675 N   0  0  0  0  0  0  0  0  0  0  0  0
   26.1572  -20.3574  -11.9511 C   0  0  0  0  0  0  0  0  0  0  0  0
   25.8444  -19.2726  -11.3352 O   0  0  0  0  0  0  0  0  0  0  0  0
   29.4899  -20.1869   -7.4509 C   0  0  0  0  0  0  0  0  0  0  0  0
   27.9838  -19.5961   -6.6329 S   0  0  0  0  0  0  0  0  0  0  0  0
   26.5316  -20.2867   -7.5242 C   0  0  0  0  0  0  0  0  0  0  0  0
   26.8875  -20.5891   -8.9451 C   0  0  0  0  0  0  0  0  0  0  0  0
   25.8836  -21.4354   -9.6770 C   0  0  2  0  0  0  0  0  0  0  0  0
   26.2332  -21.4984  -11.1110 N   0  0  0  0  0  0  0  0  0  0  0  0
   24.4889  -20.9673   -9.5199 C   0  0  0  0  0  0  0  0  0  0  0  0
   23.9223  -20.3581  -10.4764 O   0  0  0  0  0  0  0  0  0  0  0  0
   23.7470  -21.1562   -8.3724 O   0  0  0  0  0  0  0  0  0  0  0  0
  2  1  1  0
  3  2  1  0
  3  5  1  0
  3  4  1  1
  5  6  1  6
  7  5  1  0
  7  8  2  0
 10  9  1  0
 11 13  1  0
 11 10  1  0
 11 12  1  1
 13 14  1  6
 14  7  1  0
 15 13  1  0
 16 15  2  0
 18 17  1  0
 19 18  1  0
 21 20  1  1
 20 19  1  0
 21 22  1  0
 22 15  1  0
 23 25  1  0
 23 21  1  0
 24 23  2  0
M  END
$$$$
