MKH.pdb
     RDKit          3D

 28 28  0  0  1  0  0  0  0  0999 V2000
    6.4103  -11.2085   25.6778 C   0  0  0  0  0  0  0  0  0  0  0  0
    6.5620  -12.3327   27.0777 S   0  0  0  0  0  0  0  0  0  0  0  0
    6.0285  -13.9888   26.4948 C   0  0  0  0  0  0  0  0  0  0  0  0
    6.7660  -14.2446   25.2100 C   0  0  0  0  0  0  0  0  0  0  0  0
    6.4491  -15.5904   24.5986 C   0  0  2  0  0  0  0  0  0  0  0  0
    5.5444  -16.3652   25.3871 N   0  0  0  0  0  0  0  0  0  0  0  0
    7.7252  -16.2859   24.3237 C   0  0  0  0  0  0  0  0  0  0  0  0
    8.0514  -17.2473   25.0528 O   0  0  0  0  0  0  0  0  0  0  0  0
    8.6130  -15.8939   23.2403 N   0  0  0  0  0  0  0  0  0  0  0  0
    9.7898  -16.6199   22.9405 C   0  0  1  0  0  0  0  0  0  0  0  0
   10.4425  -16.5252   21.6387 C   0  0  0  0  0  0  0  0  0  0  0  0
   11.5827  -17.3843   21.3200 C   0  0  0  0  0  0  0  0  0  0  0  0
   12.1153  -17.2963   19.9472 C   0  0  0  0  0  0  0  0  0  0  0  0
   13.3778  -18.1303   19.8100 C   0  0  0  0  0  0  0  0  0  0  0  0
   13.1139  -19.3879   19.1523 N   0  0  0  0  0  0  0  0  0  0  0  0
   10.8111  -16.2949   24.0000 C   0  0  0  0  0  0  0  0  0  0  0  0
   10.8593  -15.1289   24.4914 O   0  0  0  0  0  0  0  0  0  0  0  0
   11.7426  -17.2208   24.4977 N   0  0  0  0  0  0  0  0  0  0  0  0
   12.0654  -17.2687   25.9244 C   0  0  1  0  0  0  0  0  0  0  0  0
   10.8226  -17.5239   26.7300 C   0  0  0  0  0  0  0  0  0  0  0  0
   10.4975  -16.3811   27.6039 C   0  0  0  0  0  0  0  0  0  0  0  0
   10.1536  -15.1201   27.1729 C   0  0  0  0  0  0  0  0  0  0  0  0
    9.9300  -14.3458   28.2360 N   0  0  0  0  0  0  0  0  0  0  0  0
   10.1295  -15.1054   29.3149 C   0  0  0  0  0  0  0  0  0  0  0  0
   10.4798  -16.3622   28.9310 N   0  0  0  0  0  0  0  0  0  0  0  0
   13.0990  -18.3080   26.1847 C   0  0  0  0  0  0  0  0  0  0  0  0
   13.2061  -19.3146   25.4150 O   0  0  0  0  0  0  0  0  0  0  0  0
   13.9693  -18.2325   27.2462 O   0  0  0  0  0  0  0  0  0  0  0  0
  1  2  1  0
  3  4  1  0
  3  2  1  0
  5  4  1  0
  5  6  1  1
  7  5  1  0
  8  7  2  0
  9  7  1  0
 10  9  1  0
 11 12  1  0
 10 11  1  6
 13 12  1  0
 14 13  1  0
 15 14  1  0
 16 10  1  0
 16 18  1  0
 17 16  2  0
 19 18  1  0
 19 20  1  1
 21 20  1  0
 21 25  1  0
 22 23  1  0
 22 21  2  0
 23 24  1  0
 24 25  2  0
 26 19  1  0
 27 26  2  0
 28 26  1  0
M  END
$$$$
