MKH.pdb
     RDKit          3D

 28 28  0  0  1  0  0  0  0  0999 V2000
    4.5331  -22.4213   25.0563 C   0  0  0  0  0  0  0  0  0  0  0  0
    5.4263  -20.9862   24.4325 S   0  0  0  0  0  0  0  0  0  0  0  0
    6.5835  -21.5941   23.1445 C   0  0  0  0  0  0  0  0  0  0  0  0
    7.4424  -20.4222   22.7583 C   0  0  0  0  0  0  0  0  0  0  0  0
    6.6533  -19.1513   22.5398 C   0  0  2  0  0  0  0  0  0  0  0  0
    5.7361  -19.2416   21.4485 N   0  0  0  0  0  0  0  0  0  0  0  0
    7.6090  -18.0303   22.4065 C   0  0  0  0  0  0  0  0  0  0  0  0
    8.8167  -18.2419   22.6497 O   0  0  0  0  0  0  0  0  0  0  0  0
    7.1977  -16.6942   22.0049 N   0  0  0  0  0  0  0  0  0  0  0  0
    8.1033  -15.6073   21.9916 C   0  0  1  0  0  0  0  0  0  0  0  0
    7.9928  -14.5247   21.0194 C   0  0  0  0  0  0  0  0  0  0  0  0
    8.1015  -14.8039   19.5877 C   0  0  0  0  0  0  0  0  0  0  0  0
    7.9451  -13.6557   18.6749 C   0  0  0  0  0  0  0  0  0  0  0  0
    8.1404  -14.0901   17.2322 C   0  0  0  0  0  0  0  0  0  0  0  0
    7.9766  -12.9846   16.3185 N   0  0  0  0  0  0  0  0  0  0  0  0
    8.1087  -14.9985   23.3703 C   0  0  0  0  0  0  0  0  0  0  0  0
    7.0124  -14.7518   23.9538 O   0  0  0  0  0  0  0  0  0  0  0  0
    9.2784  -14.6750   24.0772 N   0  0  0  0  0  0  0  0  0  0  0  0
    9.3589  -14.8691   25.5255 C   0  0  1  0  0  0  0  0  0  0  0  0
    7.9961  -15.1631   26.0868 C   0  0  0  0  0  0  0  0  0  0  0  0
    7.2214  -13.9275   26.3075 C   0  0  0  0  0  0  0  0  0  0  0  0
    7.6690  -12.6503   26.0574 C   0  0  0  0  0  0  0  0  0  0  0  0
    6.7050  -11.7845   26.3751 N   0  0  0  0  0  0  0  0  0  0  0  0
    5.6711  -12.5035   26.8164 C   0  0  0  0  0  0  0  0  0  0  0  0
    5.9840  -13.8265   26.7770 N   0  0  0  0  0  0  0  0  0  0  0  0
   10.3207  -15.9590   25.8472 C   0  0  0  0  0  0  0  0  0  0  0  0
   10.5945  -16.2377   27.0574 O   0  0  0  0  0  0  0  0  0  0  0  0
   10.9462  -16.7013   24.8738 O   0  0  0  0  0  0  0  0  0  0  0  0
  1  2  1  0
  3  4  1  0
  3  2  1  0
  5  4  1  0
  5  6  1  6
  7  5  1  0
  8  7  2  0
  9  7  1  0
 10  9  1  0
 11 12  1  0
 10 11  1  6
 13 12  1  0
 14 13  1  0
 15 14  1  0
 16 10  1  0
 16 18  1  0
 17 16  2  0
 19 18  1  0
 19 20  1  6
 21 20  1  0
 21 25  1  0
 22 23  1  0
 22 21  2  0
 23 24  1  0
 24 25  2  0
 26 19  1  0
 27 26  2  0
 28 26  1  0
M  END
$$$$
