MKH.pdb
     RDKit          3D

 28 28  0  0  1  0  0  0  0  0999 V2000
    4.6698  -10.5888   26.8959 C   0  0  0  0  0  0  0  0  0  0  0  0
    6.3506  -11.2358   26.8467 S   0  0  0  0  0  0  0  0  0  0  0  0
    6.4960  -12.2327   25.3129 C   0  0  0  0  0  0  0  0  0  0  0  0
    7.0518  -13.5673   25.7251 C   0  0  0  0  0  0  0  0  0  0  0  0
    6.3882  -14.7312   25.0249 C   0  0  2  0  0  0  0  0  0  0  0  0
    5.4906  -15.4549   25.8681 N   0  0  0  0  0  0  0  0  0  0  0  0
    7.4459  -15.5804   24.4349 C   0  0  0  0  0  0  0  0  0  0  0  0
    7.9708  -16.4632   25.1473 O   0  0  0  0  0  0  0  0  0  0  0  0
    7.8977  -15.4270   23.0609 N   0  0  0  0  0  0  0  0  0  0  0  0
    8.8545  -16.2980   22.4886 C   0  0  1  0  0  0  0  0  0  0  0  0
    9.0858  -16.3487   21.0486 C   0  0  0  0  0  0  0  0  0  0  0  0
   10.0093  -17.3321   20.4832 C   0  0  0  0  0  0  0  0  0  0  0  0
   10.0557  -17.4282   19.0119 C   0  0  0  0  0  0  0  0  0  0  0  0
   11.0897  -18.4525   18.5762 C   0  0  0  0  0  0  0  0  0  0  0  0
   10.7263  -19.7849   18.9960 N   0  0  0  0  0  0  0  0  0  0  0  0
   10.1754  -16.0356   23.1651 C   0  0  0  0  0  0  0  0  0  0  0  0
   10.6547  -14.8637   23.1773 O   0  0  0  0  0  0  0  0  0  0  0  0
   10.9373  -17.0280   23.8033 N   0  0  0  0  0  0  0  0  0  0  0  0
   12.2483  -16.7173   24.3749 C   0  0  1  0  0  0  0  0  0  0  0  0
   12.3817  -17.3385   25.7369 C   0  0  0  0  0  0  0  0  0  0  0  0
   11.6603  -16.5608   26.7617 C   0  0  0  0  0  0  0  0  0  0  0  0
   10.9444  -15.4082   26.5308 C   0  0  0  0  0  0  0  0  0  0  0  0
   10.4302  -14.9802   27.6850 N   0  0  0  0  0  0  0  0  0  0  0  0
   10.8153  -15.8470   28.6236 C   0  0  0  0  0  0  0  0  0  0  0  0
   11.5746  -16.8244   28.0598 N   0  0  0  0  0  0  0  0  0  0  0  0
   13.3309  -17.1795   23.4635 C   0  0  0  0  0  0  0  0  0  0  0  0
   13.0914  -18.0564   22.5742 O   0  0  0  0  0  0  0  0  0  0  0  0
   14.6142  -16.6921   23.5367 O   0  0  0  0  0  0  0  0  0  0  0  0
  1  2  1  0
  3  4  1  0
  3  2  1  0
  5  4  1  0
  5  6  1  1
  7  5  1  0
  8  7  2  0
  9  7  1  0
 10  9  1  0
 11 12  1  0
 10 11  1  6
 13 12  1  0
 14 13  1  0
 15 14  1  0
 16 10  1  0
 16 18  1  0
 17 16  2  0
 19 18  1  0
 19 20  1  1
 21 20  1  0
 21 25  1  0
 22 23  1  0
 22 21  2  0
 23 24  1  0
 24 25  2  0
 26 19  1  0
 27 26  2  0
 28 26  1  0
M  END
$$$$
