MKH.pdb
     RDKit          3D

 28 28  0  0  1  0  0  0  0  0999 V2000
    7.9335  -11.9060   27.4911 C   0  0  0  0  0  0  0  0  0  0  0  0
    6.6515  -11.4876   26.2961 S   0  0  0  0  0  0  0  0  0  0  0  0
    5.9281  -13.0692   25.7110 C   0  0  0  0  0  0  0  0  0  0  0  0
    7.0806  -14.0117   25.5025 C   0  0  0  0  0  0  0  0  0  0  0  0
    6.6617  -15.3494   24.9363 C   0  0  2  0  0  0  0  0  0  0  0  0
    5.7209  -16.0377   25.7618 N   0  0  0  0  0  0  0  0  0  0  0  0
    7.8823  -16.1383   24.6613 C   0  0  0  0  0  0  0  0  0  0  0  0
    8.2845  -16.9404   25.5316 O   0  0  0  0  0  0  0  0  0  0  0  0
    8.6308  -16.0159   23.4202 N   0  0  0  0  0  0  0  0  0  0  0  0
    9.6812  -16.9050   23.0918 C   0  0  1  0  0  0  0  0  0  0  0  0
   10.1559  -17.0633   21.7210 C   0  0  0  0  0  0  0  0  0  0  0  0
   11.1457  -18.0902   21.3962 C   0  0  0  0  0  0  0  0  0  0  0  0
   11.5762  -18.1735   19.9878 C   0  0  0  0  0  0  0  0  0  0  0  0
   12.5913  -19.2891   19.8050 C   0  0  0  0  0  0  0  0  0  0  0  0
   12.9241  -19.4808   18.4135 N   0  0  0  0  0  0  0  0  0  0  0  0
   10.8639  -16.5568   23.9586 C   0  0  0  0  0  0  0  0  0  0  0  0
   11.5311  -15.5072   23.7213 O   0  0  0  0  0  0  0  0  0  0  0  0
   11.2932  -17.3367   25.0449 N   0  0  0  0  0  0  0  0  0  0  0  0
   12.5189  -17.0028   25.7716 C   0  0  1  0  0  0  0  0  0  0  0  0
   12.3400  -17.2661   27.2404 C   0  0  0  0  0  0  0  0  0  0  0  0
   11.3950  -16.3130   27.8520 C   0  0  0  0  0  0  0  0  0  0  0  0
   10.7631  -15.2829   27.1934 C   0  0  0  0  0  0  0  0  0  0  0  0
    9.9856  -14.6293   28.0584 N   0  0  0  0  0  0  0  0  0  0  0  0
   10.1260  -15.2368   29.2382 C   0  0  0  0  0  0  0  0  0  0  0  0
   10.9944  -16.2764   29.1170 N   0  0  0  0  0  0  0  0  0  0  0  0
   13.6696  -17.7715   25.2227 C   0  0  0  0  0  0  0  0  0  0  0  0
   14.8472  -17.5610   25.6542 O   0  0  0  0  0  0  0  0  0  0  0  0
   13.5194  -18.7255   24.2444 O   0  0  0  0  0  0  0  0  0  0  0  0
  1  2  1  0
  3  4  1  0
  3  2  1  0
  5  4  1  0
  5  6  1  1
  7  5  1  0
  8  7  2  0
  9  7  1  0
 10  9  1  0
 11 12  1  0
 10 11  1  6
 13 12  1  0
 14 13  1  0
 15 14  1  0
 16 10  1  0
 16 18  1  0
 17 16  2  0
 19 18  1  0
 19 20  1  1
 21 20  1  0
 21 25  1  0
 22 23  1  0
 22 21  2  0
 23 24  1  0
 24 25  2  0
 26 19  1  0
 27 26  2  0
 28 26  1  0
M  END
$$$$
