MKH.pdb
     RDKit          3D

 28 28  0  0  1  0  0  0  0  0999 V2000
    5.7096  -10.3223   26.4356 C   0  0  0  0  0  0  0  0  0  0  0  0
    6.7662  -11.7808   26.3853 S   0  0  0  0  0  0  0  0  0  0  0  0
    5.9439  -13.0002   25.2878 C   0  0  0  0  0  0  0  0  0  0  0  0
    6.7558  -14.2626   25.3723 C   0  0  0  0  0  0  0  0  0  0  0  0
    7.9588  -14.2599   24.4567 C   0  0  2  0  0  0  0  0  0  0  0  0
    7.7370  -13.5418   23.2420 N   0  0  0  0  0  0  0  0  0  0  0  0
    8.3764  -15.6617   24.2370 C   0  0  0  0  0  0  0  0  0  0  0  0
    8.1742  -16.4954   25.1461 O   0  0  0  0  0  0  0  0  0  0  0  0
    9.0124  -16.1056   23.0066 N   0  0  0  0  0  0  0  0  0  0  0  0
    9.6027  -17.3862   22.8919 C   0  0  1  0  0  0  0  0  0  0  0  0
    9.9608  -17.9560   21.5970 C   0  0  0  0  0  0  0  0  0  0  0  0
   10.5333  -19.2995   21.5142 C   0  0  0  0  0  0  0  0  0  0  0  0
   10.9059  -19.7793   20.1700 C   0  0  0  0  0  0  0  0  0  0  0  0
   11.4682  -21.1888   20.2431 C   0  0  0  0  0  0  0  0  0  0  0  0
   12.0172  -21.6075   18.9755 N   0  0  0  0  0  0  0  0  0  0  0  0
   10.8301  -17.4050   23.7662 C   0  0  0  0  0  0  0  0  0  0  0  0
   11.7847  -16.6079   23.5284 O   0  0  0  0  0  0  0  0  0  0  0  0
   10.9970  -18.2696   24.8604 N   0  0  0  0  0  0  0  0  0  0  0  0
   11.3260  -17.7473   26.1873 C   0  0  1  0  0  0  0  0  0  0  0  0
   10.4041  -16.6150   26.5431 C   0  0  0  0  0  0  0  0  0  0  0  0
   10.6382  -16.1354   27.9181 C   0  0  0  0  0  0  0  0  0  0  0  0
   11.5533  -16.6616   28.8012 C   0  0  0  0  0  0  0  0  0  0  0  0
   11.4889  -15.9813   29.9470 N   0  0  0  0  0  0  0  0  0  0  0  0
   10.5513  -15.0453   29.7874 C   0  0  0  0  0  0  0  0  0  0  0  0
   10.0230  -15.1355   28.5375 N   0  0  0  0  0  0  0  0  0  0  0  0
   11.2591  -18.8354   27.2011 C   0  0  0  0  0  0  0  0  0  0  0  0
   11.9009  -18.7353   28.2944 O   0  0  0  0  0  0  0  0  0  0  0  0
   10.5167  -19.9765   27.0099 O   0  0  0  0  0  0  0  0  0  0  0  0
  1  2  1  0
  3  4  1  0
  3  2  1  0
  5  4  1  0
  5  6  1  6
  7  5  1  0
  8  7  2  0
  9  7  1  0
 10  9  1  0
 11 12  1  0
 10 11  1  6
 13 12  1  0
 14 13  1  0
 15 14  1  0
 16 10  1  0
 16 18  1  0
 17 16  2  0
 19 18  1  0
 19 20  1  1
 21 20  1  0
 21 25  1  0
 22 23  1  0
 22 21  2  0
 23 24  1  0
 24 25  2  0
 26 19  1  0
 27 26  2  0
 28 26  1  0
M  END
$$$$
