MKH.pdb
     RDKit          3D

 28 28  0  0  1  0  0  0  0  0999 V2000
    5.9321  -11.4316   26.4694 C   0  0  0  0  0  0  0  0  0  0  0  0
    6.7688  -12.5056   27.6496 S   0  0  0  0  0  0  0  0  0  0  0  0
    7.5019  -13.8873   26.6900 C   0  0  0  0  0  0  0  0  0  0  0  0
    6.3755  -14.8336   26.3804 C   0  0  0  0  0  0  0  0  0  0  0  0
    6.8312  -16.0936   25.6802 C   0  0  2  0  0  0  0  0  0  0  0  0
    8.0552  -16.6134   26.2018 N   0  0  0  0  0  0  0  0  0  0  0  0
    6.8857  -15.8218   24.2273 C   0  0  0  0  0  0  0  0  0  0  0  0
    6.1240  -16.4614   23.4703 O   0  0  0  0  0  0  0  0  0  0  0  0
    7.7904  -14.8416   23.6474 N   0  0  0  0  0  0  0  0  0  0  0  0
    8.2965  -14.9791   22.3334 C   0  0  1  0  0  0  0  0  0  0  0  0
    7.9145  -14.0654   21.2615 C   0  0  0  0  0  0  0  0  0  0  0  0
    8.4000  -14.2817   19.8988 C   0  0  0  0  0  0  0  0  0  0  0  0
    8.0064  -13.2814   18.8886 C   0  0  0  0  0  0  0  0  0  0  0  0
    8.5030  -13.6891   17.5118 C   0  0  0  0  0  0  0  0  0  0  0  0
    8.2883  -12.6441   16.5394 N   0  0  0  0  0  0  0  0  0  0  0  0
    9.8009  -14.9937   22.4211 C   0  0  0  0  0  0  0  0  0  0  0  0
   10.4021  -14.0937   23.0782 O   0  0  0  0  0  0  0  0  0  0  0  0
   10.6101  -15.9639   21.8075 N   0  0  0  0  0  0  0  0  0  0  0  0
   11.4920  -16.8191   22.6030 C   0  0  1  0  0  0  0  0  0  0  0  0
   10.7119  -17.4984   23.6933 C   0  0  0  0  0  0  0  0  0  0  0  0
   11.5455  -18.4592   24.4399 C   0  0  0  0  0  0  0  0  0  0  0  0
   12.8983  -18.6440   24.2670 C   0  0  0  0  0  0  0  0  0  0  0  0
   13.3162  -19.5914   25.1082 N   0  0  0  0  0  0  0  0  0  0  0  0
   12.2466  -19.9945   25.7968 C   0  0  0  0  0  0  0  0  0  0  0  0
   11.1512  -19.2995   25.3888 N   0  0  0  0  0  0  0  0  0  0  0  0
   12.1732  -17.8128   21.7286 C   0  0  0  0  0  0  0  0  0  0  0  0
   11.5107  -18.4675   20.8627 O   0  0  0  0  0  0  0  0  0  0  0  0
   13.5217  -18.0662   21.8121 O   0  0  0  0  0  0  0  0  0  0  0  0
  1  2  1  0
  3  4  1  0
  3  2  1  0
  5  4  1  0
  5  6  1  1
  7  5  1  0
  8  7  2  0
  9  7  1  0
 10  9  1  0
 11 12  1  0
 10 11  1  6
 13 12  1  0
 14 13  1  0
 15 14  1  0
 16 10  1  0
 16 18  1  0
 17 16  2  0
 19 18  1  0
 19 20  1  1
 21 20  1  0
 21 25  1  0
 22 23  1  0
 22 21  2  0
 23 24  1  0
 24 25  2  0
 26 19  1  0
 27 26  2  0
 28 26  1  0
M  END
$$$$
