MKH.pdb
     RDKit          3D

 28 28  0  0  1  0  0  0  0  0999 V2000
    8.4564  -11.4709   18.9557 C   0  0  0  0  0  0  0  0  0  0  0  0
    8.6860  -12.5016   20.4156 S   0  0  0  0  0  0  0  0  0  0  0  0
    7.6350  -13.9891   20.1916 C   0  0  0  0  0  0  0  0  0  0  0  0
    7.8389  -14.8409   21.4134 C   0  0  0  0  0  0  0  0  0  0  0  0
    7.1645  -16.1905   21.3184 C   0  0  2  0  0  0  0  0  0  0  0  0
    5.7467  -16.0995   21.1701 N   0  0  0  0  0  0  0  0  0  0  0  0
    7.5775  -16.9977   22.4870 C   0  0  0  0  0  0  0  0  0  0  0  0
    7.0366  -16.7719   23.5910 O   0  0  0  0  0  0  0  0  0  0  0  0
    8.5873  -18.0410   22.4006 N   0  0  0  0  0  0  0  0  0  0  0  0
    8.9689  -18.8050   23.5286 C   0  0  1  0  0  0  0  0  0  0  0  0
    9.3219  -20.2168   23.4189 C   0  0  0  0  0  0  0  0  0  0  0  0
    9.8692  -20.9328   24.5710 C   0  0  0  0  0  0  0  0  0  0  0  0
   10.2937  -22.3271   24.3439 C   0  0  0  0  0  0  0  0  0  0  0  0
   10.8718  -22.9231   25.6163 C   0  0  0  0  0  0  0  0  0  0  0  0
   11.4869  -24.2055   25.3697 N   0  0  0  0  0  0  0  0  0  0  0  0
   10.1110  -18.0887   24.2022 C   0  0  0  0  0  0  0  0  0  0  0  0
   10.8293  -17.2849   23.5380 O   0  0  0  0  0  0  0  0  0  0  0  0
   10.4468  -18.2531   25.5560 N   0  0  0  0  0  0  0  0  0  0  0  0
   10.6249  -17.0943   26.4319 C   0  0  1  0  0  0  0  0  0  0  0  0
    9.3867  -16.2425   26.4249 C   0  0  0  0  0  0  0  0  0  0  0  0
    9.5452  -15.0465   27.2733 C   0  0  0  0  0  0  0  0  0  0  0  0
    9.9815  -13.8147   26.8415 C   0  0  0  0  0  0  0  0  0  0  0  0
   10.0021  -12.9755   27.8784 N   0  0  0  0  0  0  0  0  0  0  0  0
    9.5867  -13.6664   28.9418 C   0  0  0  0  0  0  0  0  0  0  0  0
    9.3034  -14.9449   28.5744 N   0  0  0  0  0  0  0  0  0  0  0  0
   10.9657  -17.5380   27.8115 C   0  0  0  0  0  0  0  0  0  0  0  0
   11.4969  -16.7269   28.6345 O   0  0  0  0  0  0  0  0  0  0  0  0
   10.7282  -18.8176   28.2541 O   0  0  0  0  0  0  0  0  0  0  0  0
  1  2  1  0
  3  4  1  0
  3  2  1  0
  5  4  1  0
  5  6  1  1
  7  5  1  0
  8  7  2  0
  9  7  1  0
 10  9  1  0
 11 12  1  0
 10 11  1  6
 13 12  1  0
 14 13  1  0
 15 14  1  0
 16 10  1  0
 16 18  1  0
 17 16  2  0
 19 18  1  0
 19 20  1  1
 21 20  1  0
 21 25  1  0
 22 23  1  0
 22 21  2  0
 23 24  1  0
 24 25  2  0
 26 19  1  0
 27 26  2  0
 28 26  1  0
M  END
$$$$
