MKH.pdb
     RDKit          3D

 28 28  0  0  1  0  0  0  0  0999 V2000
    5.8378  -10.6388   26.6064 C   0  0  0  0  0  0  0  0  0  0  0  0
    7.0952  -11.8315   26.1137 S   0  0  0  0  0  0  0  0  0  0  0  0
    6.2228  -13.3965   25.7173 C   0  0  0  0  0  0  0  0  0  0  0  0
    7.2826  -14.3818   25.3100 C   0  0  0  0  0  0  0  0  0  0  0  0
    6.7179  -15.6601   24.7334 C   0  0  2  0  0  0  0  0  0  0  0  0
    5.9127  -16.3867   25.6630 N   0  0  0  0  0  0  0  0  0  0  0  0
    7.8385  -16.4559   24.1866 C   0  0  0  0  0  0  0  0  0  0  0  0
    8.3074  -17.3838   24.8804 O   0  0  0  0  0  0  0  0  0  0  0  0
    8.4144  -16.1997   22.8758 N   0  0  0  0  0  0  0  0  0  0  0  0
    9.3973  -17.0482   22.3140 C   0  0  1  0  0  0  0  0  0  0  0  0
    9.7212  -17.0154   20.8915 C   0  0  0  0  0  0  0  0  0  0  0  0
    8.6593  -17.1082   19.8899 C   0  0  0  0  0  0  0  0  0  0  0  0
    9.0686  -16.9918   18.4775 C   0  0  0  0  0  0  0  0  0  0  0  0
    7.8620  -17.1044   17.5611 C   0  0  0  0  0  0  0  0  0  0  0  0
    8.2119  -16.8317   16.1874 N   0  0  0  0  0  0  0  0  0  0  0  0
   10.6741  -16.8462   23.0888 C   0  0  0  0  0  0  0  0  0  0  0  0
   11.1633  -15.6840   23.2042 O   0  0  0  0  0  0  0  0  0  0  0  0
   11.3829  -17.8862   23.7121 N   0  0  0  0  0  0  0  0  0  0  0  0
   12.6342  -17.6217   24.4236 C   0  0  1  0  0  0  0  0  0  0  0  0
   12.9788  -18.7801   25.3169 C   0  0  0  0  0  0  0  0  0  0  0  0
   12.0223  -18.9094   26.4322 C   0  0  0  0  0  0  0  0  0  0  0  0
   11.0504  -17.9916   26.7596 C   0  0  0  0  0  0  0  0  0  0  0  0
   10.3755  -18.4366   27.8209 N   0  0  0  0  0  0  0  0  0  0  0  0
   10.9128  -19.6117   28.1544 C   0  0  0  0  0  0  0  0  0  0  0  0
   11.9293  -19.9086   27.3010 N   0  0  0  0  0  0  0  0  0  0  0  0
   13.7297  -17.3441   23.4545 C   0  0  0  0  0  0  0  0  0  0  0  0
   13.5259  -17.4580   22.2045 O   0  0  0  0  0  0  0  0  0  0  0  0
   14.9875  -16.9594   23.8543 O   0  0  0  0  0  0  0  0  0  0  0  0
  1  2  1  0
  3  4  1  0
  3  2  1  0
  5  4  1  0
  5  6  1  1
  7  5  1  0
  8  7  2  0
  9  7  1  0
 10  9  1  0
 11 12  1  0
 10 11  1  6
 13 12  1  0
 14 13  1  0
 15 14  1  0
 16 10  1  0
 16 18  1  0
 17 16  2  0
 19 18  1  0
 19 20  1  6
 21 20  1  0
 21 25  1  0
 22 23  1  0
 22 21  2  0
 23 24  1  0
 24 25  2  0
 26 19  1  0
 27 26  2  0
 28 26  1  0
M  END
$$$$
