MKH.pdb
     RDKit          3D

 28 28  0  0  1  0  0  0  0  0999 V2000
    8.2068  -12.1925   19.6046 C   0  0  0  0  0  0  0  0  0  0  0  0
    8.9786  -12.9646   18.1713 S   0  0  0  0  0  0  0  0  0  0  0  0
    8.1713  -14.5966   17.9427 C   0  0  0  0  0  0  0  0  0  0  0  0
    8.8619  -15.5469   18.8809 C   0  0  0  0  0  0  0  0  0  0  0  0
    8.2363  -16.9229   18.9026 C   0  0  2  0  0  0  0  0  0  0  0  0
    7.0646  -17.0189   18.0913 N   0  0  0  0  0  0  0  0  0  0  0  0
    8.0012  -17.3023   20.3128 C   0  0  0  0  0  0  0  0  0  0  0  0
    6.9196  -16.9758   20.8476 O   0  0  0  0  0  0  0  0  0  0  0  0
    8.9788  -18.0383   21.0991 N   0  0  0  0  0  0  0  0  0  0  0  0
    8.7040  -18.4674   22.4190 C   0  0  1  0  0  0  0  0  0  0  0  0
    9.4366  -19.5663   23.0398 C   0  0  0  0  0  0  0  0  0  0  0  0
    9.2229  -19.8930   24.4495 C   0  0  0  0  0  0  0  0  0  0  0  0
   10.0641  -20.9640   25.0163 C   0  0  0  0  0  0  0  0  0  0  0  0
    9.6763  -21.2404   26.4590 C   0  0  0  0  0  0  0  0  0  0  0  0
   10.5907  -22.1645   27.0865 N   0  0  0  0  0  0  0  0  0  0  0  0
    8.8097  -17.2659   23.3227 C   0  0  0  0  0  0  0  0  0  0  0  0
    9.8402  -16.5317   23.2760 O   0  0  0  0  0  0  0  0  0  0  0  0
    7.8164  -16.8895   24.2417 N   0  0  0  0  0  0  0  0  0  0  0  0
    7.9323  -15.6470   25.0062 C   0  0  1  0  0  0  0  0  0  0  0  0
    6.5681  -15.0899   25.3021 C   0  0  0  0  0  0  0  0  0  0  0  0
    6.6488  -13.8425   26.0850 C   0  0  0  0  0  0  0  0  0  0  0  0
    7.7855  -13.0888   26.2691 C   0  0  0  0  0  0  0  0  0  0  0  0
    7.4866  -12.0346   27.0302 N   0  0  0  0  0  0  0  0  0  0  0  0
    6.1869  -12.1238   27.3190 C   0  0  0  0  0  0  0  0  0  0  0  0
    5.6647  -13.2373   26.7385 N   0  0  0  0  0  0  0  0  0  0  0  0
    8.7016  -15.8819   26.2589 C   0  0  0  0  0  0  0  0  0  0  0  0
    8.6936  -17.0267   26.8126 O   0  0  0  0  0  0  0  0  0  0  0  0
    9.4421  -14.8951   26.8653 O   0  0  0  0  0  0  0  0  0  0  0  0
  1  2  1  0
  3  4  1  0
  3  2  1  0
  5  4  1  0
  5  6  1  6
  7  5  1  0
  8  7  2  0
  9  7  1  0
 10  9  1  0
 11 12  1  0
 10 11  1  1
 13 12  1  0
 14 13  1  0
 15 14  1  0
 16 10  1  0
 16 18  1  0
 17 16  2  0
 19 18  1  0
 19 20  1  1
 21 20  1  0
 21 25  1  0
 22 23  1  0
 22 21  2  0
 23 24  1  0
 24 25  2  0
 26 19  1  0
 27 26  2  0
 28 26  1  0
M  END
$$$$
