MKH.pdb
     RDKit          3D

 28 28  0  0  1  0  0  0  0  0999 V2000
    9.4454  -11.5707   20.0158 C   0  0  0  0  0  0  0  0  0  0  0  0
    7.6843  -11.8795   19.7928 S   0  0  0  0  0  0  0  0  0  0  0  0
    7.5268  -13.5135   18.9729 C   0  0  0  0  0  0  0  0  0  0  0  0
    7.5848  -14.5442   20.0658 C   0  0  0  0  0  0  0  0  0  0  0  0
    8.5792  -15.6492   19.7908 C   0  0  2  0  0  0  0  0  0  0  0  0
    8.2828  -16.3876   18.6044 N   0  0  0  0  0  0  0  0  0  0  0  0
    8.6725  -16.4989   20.9979 C   0  0  0  0  0  0  0  0  0  0  0  0
    7.6921  -16.5482   21.7717 O   0  0  0  0  0  0  0  0  0  0  0  0
    9.8592  -17.2765   21.3182 N   0  0  0  0  0  0  0  0  0  0  0  0
    9.9068  -18.1369   22.4403 C   0  0  1  0  0  0  0  0  0  0  0  0
   10.8920  -19.2080   22.5483 C   0  0  0  0  0  0  0  0  0  0  0  0
   10.9053  -20.0838   23.7198 C   0  0  0  0  0  0  0  0  0  0  0  0
   10.4871  -21.4823   23.5063 C   0  0  0  0  0  0  0  0  0  0  0  0
   10.6276  -22.2833   24.7897 C   0  0  0  0  0  0  0  0  0  0  0  0
   10.2407  -23.6610   24.6002 N   0  0  0  0  0  0  0  0  0  0  0  0
   10.0149  -17.2766   23.6730 C   0  0  0  0  0  0  0  0  0  0  0  0
   10.8483  -16.3239   23.7048 O   0  0  0  0  0  0  0  0  0  0  0  0
    9.2334  -17.4606   24.8254 N   0  0  0  0  0  0  0  0  0  0  0  0
    9.5227  -16.7219   26.0552 C   0  0  1  0  0  0  0  0  0  0  0  0
    8.2548  -16.1596   26.6340 C   0  0  0  0  0  0  0  0  0  0  0  0
    7.8265  -14.9408   25.9223 C   0  0  0  0  0  0  0  0  0  0  0  0
    8.5394  -14.3031   24.9326 C   0  0  0  0  0  0  0  0  0  0  0  0
    7.8497  -13.2380   24.5208 N   0  0  0  0  0  0  0  0  0  0  0  0
    6.7246  -13.2065   25.2378 C   0  0  0  0  0  0  0  0  0  0  0  0
    6.7048  -14.2547   26.1041 N   0  0  0  0  0  0  0  0  0  0  0  0
   10.2178  -17.6020   27.0342 C   0  0  0  0  0  0  0  0  0  0  0  0
   10.5323  -17.1606   28.1847 O   0  0  0  0  0  0  0  0  0  0  0  0
   10.5466  -18.9060   26.7494 O   0  0  0  0  0  0  0  0  0  0  0  0
  1  2  1  0
  3  4  1  0
  3  2  1  0
  5  4  1  0
  5  6  1  6
  7  5  1  0
  8  7  2  0
  9  7  1  0
 10  9  1  0
 11 12  1  0
 10 11  1  6
 13 12  1  0
 14 13  1  0
 15 14  1  0
 16 10  1  0
 16 18  1  0
 17 16  2  0
 19 18  1  0
 19 20  1  1
 21 20  1  0
 21 25  1  0
 22 23  1  0
 22 21  2  0
 23 24  1  0
 24 25  2  0
 26 19  1  0
 27 26  2  0
 28 26  1  0
M  END
$$$$
