MKH.pdb
     RDKit          3D

 28 28  0  0  1  0  0  0  0  0999 V2000
    8.0211  -11.5251   19.6469 C   0  0  0  0  0  0  0  0  0  0  0  0
    7.0014  -12.7866   18.8627 S   0  0  0  0  0  0  0  0  0  0  0  0
    7.8949  -14.3802   19.0342 C   0  0  0  0  0  0  0  0  0  0  0  0
    8.3358  -14.4675   20.4688 C   0  0  0  0  0  0  0  0  0  0  0  0
    9.1341  -15.7148   20.7721 C   0  0  2  0  0  0  0  0  0  0  0  0
    9.2789  -16.5764   19.6419 N   0  0  0  0  0  0  0  0  0  0  0  0
    8.5212  -16.3840   21.9402 C   0  0  0  0  0  0  0  0  0  0  0  0
    8.0593  -15.6758   22.8607 O   0  0  0  0  0  0  0  0  0  0  0  0
    8.4366  -17.8312   22.0583 N   0  0  0  0  0  0  0  0  0  0  0  0
    7.7826  -18.4538   23.1474 C   0  0  1  0  0  0  0  0  0  0  0  0
    7.5945  -19.8997   23.2084 C   0  0  0  0  0  0  0  0  0  0  0  0
    6.8999  -20.5068   24.3435 C   0  0  0  0  0  0  0  0  0  0  0  0
    6.6560  -21.9598   24.2709 C   0  0  0  0  0  0  0  0  0  0  0  0
    5.8197  -22.4205   25.4527 C   0  0  0  0  0  0  0  0  0  0  0  0
    5.5324  -23.8333   25.3808 N   0  0  0  0  0  0  0  0  0  0  0  0
    8.4815  -18.0200   24.4102 C   0  0  0  0  0  0  0  0  0  0  0  0
    9.7384  -18.1389   24.5069 O   0  0  0  0  0  0  0  0  0  0  0  0
    7.8189  -17.4759   25.5227 N   0  0  0  0  0  0  0  0  0  0  0  0
    8.5705  -16.9798   26.6763 C   0  0  1  0  0  0  0  0  0  0  0  0
    7.7243  -16.0321   27.4792 C   0  0  0  0  0  0  0  0  0  0  0  0
    7.8549  -14.6447   26.9961 C   0  0  0  0  0  0  0  0  0  0  0  0
    8.7072  -14.2237   26.0009 C   0  0  0  0  0  0  0  0  0  0  0  0
    8.5576  -12.9090   25.8310 N   0  0  0  0  0  0  0  0  0  0  0  0
    7.6289  -12.5109   26.7027 C   0  0  0  0  0  0  0  0  0  0  0  0
    7.1917  -13.5776   27.4243 N   0  0  0  0  0  0  0  0  0  0  0  0
    9.0450  -18.1176   27.5109 C   0  0  0  0  0  0  0  0  0  0  0  0
    8.3204  -19.1523   27.6582 O   0  0  0  0  0  0  0  0  0  0  0  0
   10.2624  -18.1063   28.1491 O   0  0  0  0  0  0  0  0  0  0  0  0
  1  2  1  0
  3  4  1  0
  3  2  1  0
  5  4  1  0
  5  6  1  6
  7  5  1  0
  8  7  2  0
  9  7  1  0
 10  9  1  0
 11 12  1  0
 10 11  1  6
 13 12  1  0
 14 13  1  0
 15 14  1  0
 16 10  1  0
 16 18  1  0
 17 16  2  0
 19 18  1  0
 19 20  1  1
 21 20  1  0
 21 25  1  0
 22 23  1  0
 22 21  2  0
 23 24  1  0
 24 25  2  0
 26 19  1  0
 27 26  2  0
 28 26  1  0
M  END
$$$$
