MKH.pdb
     RDKit          3D

 28 28  0  0  1  0  0  0  0  0999 V2000
    7.2966  -11.3390   26.9554 C   0  0  0  0  0  0  0  0  0  0  0  0
    5.8140  -11.7719   26.0277 S   0  0  0  0  0  0  0  0  0  0  0  0
    6.3703  -12.5510   24.4621 C   0  0  0  0  0  0  0  0  0  0  0  0
    7.2362  -13.7165   24.8523 C   0  0  0  0  0  0  0  0  0  0  0  0
    8.3542  -13.9833   23.8704 C   0  0  2  0  0  0  0  0  0  0  0  0
    7.9676  -13.7767   22.5109 N   0  0  0  0  0  0  0  0  0  0  0  0
    8.8808  -15.3416   24.1264 C   0  0  0  0  0  0  0  0  0  0  0  0
    8.8086  -15.8021   25.2862 O   0  0  0  0  0  0  0  0  0  0  0  0
    9.4784  -16.1594   23.0826 N   0  0  0  0  0  0  0  0  0  0  0  0
    9.9703  -17.4600   23.3437 C   0  0  1  0  0  0  0  0  0  0  0  0
    9.9266  -18.5163   22.3377 C   0  0  0  0  0  0  0  0  0  0  0  0
   10.3834  -19.8668   22.6646 C   0  0  0  0  0  0  0  0  0  0  0  0
   10.2677  -20.8812   21.5999 C   0  0  0  0  0  0  0  0  0  0  0  0
   11.1808  -22.0614   21.8856 C   0  0  0  0  0  0  0  0  0  0  0  0
   11.2443  -22.9670   20.7632 N   0  0  0  0  0  0  0  0  0  0  0  0
   11.3946  -17.3246   23.8175 C   0  0  0  0  0  0  0  0  0  0  0  0
   12.3294  -17.8796   23.1684 O   0  0  0  0  0  0  0  0  0  0  0  0
   11.7720  -16.6046   24.9628 N   0  0  0  0  0  0  0  0  0  0  0  0
   12.2398  -17.2963   26.1647 C   0  0  1  0  0  0  0  0  0  0  0  0
   11.0782  -17.6257   27.0598 C   0  0  0  0  0  0  0  0  0  0  0  0
   10.7283  -16.4914   27.9352 C   0  0  0  0  0  0  0  0  0  0  0  0
   10.4031  -15.2244   27.5072 C   0  0  0  0  0  0  0  0  0  0  0  0
   10.1471  -14.4612   28.5710 N   0  0  0  0  0  0  0  0  0  0  0  0
   10.3081  -15.2334   29.6473 C   0  0  0  0  0  0  0  0  0  0  0  0
   10.6667  -16.4872   29.2611 N   0  0  0  0  0  0  0  0  0  0  0  0
   12.9976  -18.5224   25.7923 C   0  0  0  0  0  0  0  0  0  0  0  0
   13.7665  -19.0834   26.6357 O   0  0  0  0  0  0  0  0  0  0  0  0
   12.9056  -19.0959   24.5464 O   0  0  0  0  0  0  0  0  0  0  0  0
  1  2  1  0
  3  4  1  0
  3  2  1  0
  5  4  1  0
  5  6  1  6
  7  5  1  0
  8  7  2  0
  9  7  1  0
 10  9  1  0
 11 12  1  0
 10 11  1  6
 13 12  1  0
 14 13  1  0
 15 14  1  0
 16 10  1  0
 16 18  1  0
 17 16  2  0
 19 18  1  0
 19 20  1  1
 21 20  1  0
 21 25  1  0
 22 23  1  0
 22 21  2  0
 23 24  1  0
 24 25  2  0
 26 19  1  0
 27 26  2  0
 28 26  1  0
M  END
$$$$
