MKH.pdb
     RDKit          3D

 28 28  0  0  1  0  0  0  0  0999 V2000
    7.0156  -12.2996   16.0741 C   0  0  0  0  0  0  0  0  0  0  0  0
    7.2765  -12.4112   17.8533 S   0  0  0  0  0  0  0  0  0  0  0  0
    8.6677  -13.5781   18.1183 C   0  0  0  0  0  0  0  0  0  0  0  0
    8.9324  -13.5940   19.5982 C   0  0  0  0  0  0  0  0  0  0  0  0
    9.9775  -14.6074   20.0058 C   0  0  2  0  0  0  0  0  0  0  0  0
   10.5561  -15.2938   18.8947 N   0  0  0  0  0  0  0  0  0  0  0  0
    9.3750  -15.5178   21.0037 C   0  0  0  0  0  0  0  0  0  0  0  0
    8.6119  -15.0362   21.8687 O   0  0  0  0  0  0  0  0  0  0  0  0
    9.6367  -16.9485   21.0170 N   0  0  0  0  0  0  0  0  0  0  0  0
    9.2178  -17.7735   22.0873 C   0  0  1  0  0  0  0  0  0  0  0  0
    9.3834  -19.2230   22.0528 C   0  0  0  0  0  0  0  0  0  0  0  0
    8.9903  -20.0388   23.2016 C   0  0  0  0  0  0  0  0  0  0  0  0
    7.5783  -20.4611   23.2621 C   0  0  0  0  0  0  0  0  0  0  0  0
    7.3403  -21.3574   24.4656 C   0  0  0  0  0  0  0  0  0  0  0  0
    5.9409  -21.6750   24.6221 N   0  0  0  0  0  0  0  0  0  0  0  0
    9.8692  -17.2585   23.3449 C   0  0  0  0  0  0  0  0  0  0  0  0
   11.0902  -16.9236   23.3298 O   0  0  0  0  0  0  0  0  0  0  0  0
    9.1990  -17.1185   24.5713 N   0  0  0  0  0  0  0  0  0  0  0  0
    9.8714  -16.5345   25.7325 C   0  0  1  0  0  0  0  0  0  0  0  0
    8.8898  -15.7591   26.5657 C   0  0  0  0  0  0  0  0  0  0  0  0
    9.5140  -15.2383   27.7963 C   0  0  0  0  0  0  0  0  0  0  0  0
   10.8222  -15.4397   28.1738 C   0  0  0  0  0  0  0  0  0  0  0  0
   11.0352  -14.8262   29.3391 N   0  0  0  0  0  0  0  0  0  0  0  0
    9.8831  -14.2501   29.6877 C   0  0  0  0  0  0  0  0  0  0  0  0
    8.9409  -14.5010   28.7396 N   0  0  0  0  0  0  0  0  0  0  0  0
   10.5352  -17.5992   26.5337 C   0  0  0  0  0  0  0  0  0  0  0  0
   11.7016  -17.4150   27.0058 O   0  0  0  0  0  0  0  0  0  0  0  0
    9.9337  -18.8069   26.7969 O   0  0  0  0  0  0  0  0  0  0  0  0
  1  2  1  0
  3  4  1  0
  3  2  1  0
  5  4  1  0
  5  6  1  6
  7  5  1  0
  8  7  2  0
  9  7  1  0
 10  9  1  0
 11 12  1  0
 10 11  1  6
 13 12  1  0
 14 13  1  0
 15 14  1  0
 16 10  1  0
 16 18  1  0
 17 16  2  0
 19 18  1  0
 19 20  1  1
 21 20  1  0
 21 25  1  0
 22 23  1  0
 22 21  2  0
 23 24  1  0
 24 25  2  0
 26 19  1  0
 27 26  2  0
 28 26  1  0
M  END
$$$$
