RVH.pdb
     RDKit          3D

 29 29  0  0  1  0  0  0  0  0999 V2000
    8.0201  -12.8120   15.8387 N   0  0  0  0  0  0  0  0  0  0  0  0
    8.0164  -14.1144   16.4082 C   0  0  0  0  0  0  0  0  0  0  0  0
    7.1241  -14.9791   16.0739 N   0  0  0  0  0  0  0  0  0  0  0  0
    9.0153  -14.4648   17.3632 N   0  0  0  0  0  0  0  0  0  0  0  0
    9.0333  -15.7891   18.0070 C   0  0  0  0  0  0  0  0  0  0  0  0
    8.1397  -15.6877   19.1931 C   0  0  0  0  0  0  0  0  0  0  0  0
    8.7852  -15.7556   20.5346 C   0  0  0  0  0  0  0  0  0  0  0  0
    7.8020  -15.7673   21.6502 C   0  0  2  0  0  0  0  0  0  0  0  0
    6.5692  -15.1011   21.2329 N   0  0  0  0  0  0  0  0  0  0  0  0
    8.2866  -14.9787   22.8318 C   0  0  0  0  0  0  0  0  0  0  0  0
    9.3373  -14.2933   22.7929 O   0  0  0  0  0  0  0  0  0  0  0  0
    7.1132  -15.9417   16.4738 C   0  0  0  0  0  0  0  0  0  0  0  0
    6.5821  -12.3443   24.9356 C   0  0  1  0  0  0  0  0  0  0  0  0
    6.9725  -13.4895   25.7960 C   0  0  0  0  0  0  0  0  0  0  0  0
    7.2411  -12.9667   27.1914 C   0  0  2  0  0  0  0  0  0  0  0  0
    8.0848  -14.3555   25.2873 N   0  0  0  0  0  0  0  0  0  0  0  0
    7.5716  -14.9712   24.0602 C   0  0  0  0  0  0  0  0  0  0  0  0
    8.5206  -15.4062   26.2382 O   0  0  0  0  0  0  0  0  0  0  0  0
    7.6564  -16.1078   26.8714 N   0  0  0  0  0  0  0  0  0  0  0  0
    9.8821  -15.6960   26.5001 C   0  0  2  0  0  0  0  0  0  0  0  0
   10.2906  -16.7094   27.4546 C   0  0  0  0  0  0  0  0  0  0  0  0
   11.7069  -17.1378   27.2091 C   0  0  0  0  0  0  0  0  0  0  0  0
   12.2099  -18.1396   28.1862 C   0  0  0  0  0  0  0  0  0  0  0  0
   11.5997  -19.3133   28.5730 N   0  0  0  0  0  0  0  0  0  0  0  0
   12.3877  -19.9201   29.4709 C   0  0  0  0  0  0  0  0  0  0  0  0
   13.4655  -19.1537   29.6481 N   0  0  0  0  0  0  0  0  0  0  0  0
   13.3580  -18.0706   28.8671 C   0  0  0  0  0  0  0  0  0  0  0  0
   10.1609  -16.2231   28.8526 O   0  0  0  0  0  0  0  0  0  0  0  0
   10.2360  -14.8885   29.1368 O   0  0  0  0  0  0  0  0  0  0  0  0
  1  2  1  0
  2  3  2  0
  4  5  1  0
  4  2  1  0
  6  5  1  0
  7  6  1  0
  8 10  1  0
  8  7  1  0
  8  9  1  6
 10 11  2  0
 13 12  1  1
 13 15  1  0
 14 13  1  0
 15 16  1  6
 16 10  1  0
 17 15  1  0
 17 18  2  0
 19 17  1  0
 20 19  1  0
 20 27  1  0
 20 21  1  1
 22 26  1  0
 22 21  1  0
 23 22  2  0
 24 23  1  0
 24 25  1  0
 25 26  2  0
 27 29  2  0
 27 28  1  0
M  END
$$$$
