RVH.pdb
     RDKit          3D

 29 29  0  0  1  0  0  0  0  0999 V2000
    4.7695  -19.5378   19.0619 N   0  0  0  0  0  0  0  0  0  0  0  0
    5.9101  -19.3816   18.2281 C   0  0  0  0  0  0  0  0  0  0  0  0
    5.8364  -19.5943   16.9611 N   0  0  0  0  0  0  0  0  0  0  0  0
    7.1518  -18.9848   18.8056 N   0  0  0  0  0  0  0  0  0  0  0  0
    7.3750  -19.0359   20.2602 C   0  0  0  0  0  0  0  0  0  0  0  0
    8.1359  -17.8048   20.6083 C   0  0  0  0  0  0  0  0  0  0  0  0
    7.8095  -17.1522   21.9077 C   0  0  0  0  0  0  0  0  0  0  0  0
    7.7561  -15.6691   21.8133 C   0  0  2  0  0  0  0  0  0  0  0  0
    8.5959  -15.2112   20.7074 N   0  0  0  0  0  0  0  0  0  0  0  0
    8.3302  -15.0095   23.0333 C   0  0  0  0  0  0  0  0  0  0  0  0
    9.5668  -14.8762   23.2021 O   0  0  0  0  0  0  0  0  0  0  0  0
    6.6822  -19.5885   16.3517 C   0  0  0  0  0  0  0  0  0  0  0  0
    6.5194  -11.8807   24.8977 C   0  0  1  0  0  0  0  0  0  0  0  0
    6.9107  -13.0014   25.7894 C   0  0  0  0  0  0  0  0  0  0  0  0
    7.2035  -12.4365   27.1634 C   0  0  2  0  0  0  0  0  0  0  0  0
    8.0075  -13.8943   25.2940 N   0  0  0  0  0  0  0  0  0  0  0  0
    7.4928  -14.5004   24.0627 C   0  0  0  0  0  0  0  0  0  0  0  0
    8.4086  -14.9529   26.2514 O   0  0  0  0  0  0  0  0  0  0  0  0
    7.6149  -15.9220   26.5179 N   0  0  0  0  0  0  0  0  0  0  0  0
    9.6604  -14.9628   26.9140 C   0  0  1  0  0  0  0  0  0  0  0  0
   10.0401  -16.0125   27.8409 C   0  0  0  0  0  0  0  0  0  0  0  0
   11.3624  -16.6105   27.4618 C   0  0  0  0  0  0  0  0  0  0  0  0
   11.8867  -17.5872   28.4529 C   0  0  0  0  0  0  0  0  0  0  0  0
   11.2841  -18.0019   29.6210 N   0  0  0  0  0  0  0  0  0  0  0  0
   12.0923  -18.8875   30.2190 C   0  0  0  0  0  0  0  0  0  0  0  0
   13.1753  -19.0301   29.4527 N   0  0  0  0  0  0  0  0  0  0  0  0
   13.0509  -18.2395   28.3784 C   0  0  0  0  0  0  0  0  0  0  0  0
   10.1131  -15.5055   29.2357 O   0  0  0  0  0  0  0  0  0  0  0  0
   10.1303  -16.3714   30.2928 O   0  0  0  0  0  0  0  0  0  0  0  0
  1  2  1  0
  2  3  2  0
  4  5  1  0
  4  2  1  0
  6  5  1  0
  7  6  1  0
  8 10  1  0
  8  7  1  0
  8  9  1  6
 10 11  2  0
 13 12  1  1
 13 15  1  0
 14 13  1  0
 15 16  1  6
 16 10  1  0
 17 15  1  0
 17 18  2  0
 19 17  1  0
 20 19  1  0
 20 27  1  0
 20 21  1  1
 22 26  1  0
 22 21  1  0
 23 22  2  0
 24 23  1  0
 24 25  1  0
 25 26  2  0
 27 29  2  0
 27 28  1  0
M  END
$$$$
