RVH.pdb
     RDKit          3D

 29 29  0  0  1  0  0  0  0  0999 V2000
    8.0769  -13.0772   16.4427 N   0  0  0  0  0  0  0  0  0  0  0  0
    7.7016  -14.3904   16.0486 C   0  0  0  0  0  0  0  0  0  0  0  0
    7.2371  -14.6192   14.8707 N   0  0  0  0  0  0  0  0  0  0  0  0
    7.8419  -15.4668   16.9729 N   0  0  0  0  0  0  0  0  0  0  0  0
    8.5426  -15.2926   18.2563 C   0  0  0  0  0  0  0  0  0  0  0  0
    7.5051  -15.4126   19.3169 C   0  0  0  0  0  0  0  0  0  0  0  0
    7.9720  -15.3476   20.7307 C   0  0  0  0  0  0  0  0  0  0  0  0
    7.6067  -14.0723   21.4028 C   0  0  2  0  0  0  0  0  0  0  0  0
    8.1009  -12.9396   20.6213 N   0  0  0  0  0  0  0  0  0  0  0  0
    8.2694  -13.9358   22.7426 C   0  0  0  0  0  0  0  0  0  0  0  0
    9.4948  -13.6909   22.8608 O   0  0  0  0  0  0  0  0  0  0  0  0
    7.0431  -15.5865   14.5337 C   0  0  0  0  0  0  0  0  0  0  0  0
    6.9041  -11.6918   25.4343 C   0  0  1  0  0  0  0  0  0  0  0  0
    7.1769  -13.0238   26.0306 C   0  0  0  0  0  0  0  0  0  0  0  0
    7.5934  -12.8238   27.4725 C   0  0  2  0  0  0  0  0  0  0  0  0
    8.1263  -13.9074   25.2798 N   0  0  0  0  0  0  0  0  0  0  0  0
    7.5336  -14.0785   23.9503 C   0  0  0  0  0  0  0  0  0  0  0  0
    8.3515  -15.2308   25.9090 O   0  0  0  0  0  0  0  0  0  0  0  0
    7.3702  -16.0276   26.1146 N   0  0  0  0  0  0  0  0  0  0  0  0
    9.6302  -15.6887   26.3110 C   0  0  1  0  0  0  0  0  0  0  0  0
    9.8405  -17.0090   26.8745 C   0  0  0  0  0  0  0  0  0  0  0  0
   11.0967  -17.6279   26.3372 C   0  0  0  0  0  0  0  0  0  0  0  0
   11.1155  -17.7607   24.8563 C   0  0  0  0  0  0  0  0  0  0  0  0
   10.0460  -18.0078   24.0228 N   0  0  0  0  0  0  0  0  0  0  0  0
   10.4974  -18.0518   22.7621 C   0  0  0  0  0  0  0  0  0  0  0  0
   11.8142  -17.8389   22.7952 N   0  0  0  0  0  0  0  0  0  0  0  0
   12.1909  -17.6619   24.0686 C   0  0  0  0  0  0  0  0  0  0  0  0
    9.9131  -16.9615   28.3578 O   0  0  0  0  0  0  0  0  0  0  0  0
    9.9799  -18.1131   29.0904 O   0  0  0  0  0  0  0  0  0  0  0  0
  1  2  1  0
  2  3  2  0
  4  5  1  0
  4  2  1  0
  6  5  1  0
  7  6  1  0
  8 10  1  0
  8  7  1  0
  8  9  1  6
 10 11  2  0
 13 12  1  1
 13 15  1  0
 14 13  1  0
 15 16  1  6
 16 10  1  0
 17 15  1  0
 17 18  2  0
 19 17  1  0
 20 19  1  0
 20 27  1  0
 20 21  1  1
 22 26  1  0
 22 21  1  0
 23 22  2  0
 24 23  1  0
 24 25  1  0
 25 26  2  0
 27 29  2  0
 27 28  1  0
M  END
$$$$
