RVH.pdb
     RDKit          3D

 29 29  0  0  1  0  0  0  0  0999 V2000
    7.0982  -15.5688   16.4502 N   0  0  0  0  0  0  0  0  0  0  0  0
    7.7864  -14.3275   16.5285 C   0  0  0  0  0  0  0  0  0  0  0  0
    7.3630  -13.2958   15.8866 N   0  0  0  0  0  0  0  0  0  0  0  0
    8.9621  -14.2268   17.3288 N   0  0  0  0  0  0  0  0  0  0  0  0
    9.5067  -15.3919   18.0459 C   0  0  0  0  0  0  0  0  0  0  0  0
    8.6418  -15.5865   19.2418 C   0  0  0  0  0  0  0  0  0  0  0  0
    9.3290  -15.8272   20.5421 C   0  0  0  0  0  0  0  0  0  0  0  0
    8.3806  -16.0149   21.6720 C   0  0  2  0  0  0  0  0  0  0  0  0
    7.0496  -15.5490   21.2859 N   0  0  0  0  0  0  0  0  0  0  0  0
    8.7534  -15.1776   22.8606 C   0  0  0  0  0  0  0  0  0  0  0  0
    9.7554  -14.4217   22.8584 O   0  0  0  0  0  0  0  0  0  0  0  0
    7.8835  -12.3925   15.8914 C   0  0  0  0  0  0  0  0  0  0  0  0
    6.7452  -12.6719   24.7314 C   0  0  1  0  0  0  0  0  0  0  0  0
    7.2017  -13.7011   25.6993 C   0  0  0  0  0  0  0  0  0  0  0  0
    7.4010  -13.0346   27.0442 C   0  0  2  0  0  0  0  0  0  0  0  0
    8.3860  -14.5223   25.2885 N   0  0  0  0  0  0  0  0  0  0  0  0
    7.9820  -15.2018   24.0542 C   0  0  0  0  0  0  0  0  0  0  0  0
    8.8147  -15.5187   26.2991 O   0  0  0  0  0  0  0  0  0  0  0  0
    8.0681  -16.5204   26.5809 N   0  0  0  0  0  0  0  0  0  0  0  0
   10.0435  -15.4320   26.9982 C   0  0  1  0  0  0  0  0  0  0  0  0
   10.4429  -16.4116   27.9912 C   0  0  0  0  0  0  0  0  0  0  0  0
   11.8984  -16.7485   27.8574 C   0  0  0  0  0  0  0  0  0  0  0  0
   12.4124  -17.6329   28.9366 C   0  0  0  0  0  0  0  0  0  0  0  0
   12.1208  -17.5701   30.2823 N   0  0  0  0  0  0  0  0  0  0  0  0
   12.7928  -18.5486   30.9036 C   0  0  0  0  0  0  0  0  0  0  0  0
   13.4898  -19.2121   29.9794 N   0  0  0  0  0  0  0  0  0  0  0  0
   13.2590  -18.6556   28.7828 C   0  0  0  0  0  0  0  0  0  0  0  0
   10.1766  -15.9270   29.3703 O   0  0  0  0  0  0  0  0  0  0  0  0
   10.0912  -16.8050   30.4140 O   0  0  0  0  0  0  0  0  0  0  0  0
  1  2  1  0
  2  3  2  0
  4  5  1  0
  4  2  1  0
  6  5  1  0
  7  6  1  0
  8 10  1  0
  8  7  1  0
  8  9  1  6
 10 11  2  0
 13 12  1  1
 13 15  1  0
 14 13  1  0
 15 16  1  6
 16 10  1  0
 17 15  1  0
 17 18  2  0
 19 17  1  0
 20 19  1  0
 20 27  1  0
 20 21  1  1
 22 26  1  0
 22 21  1  0
 23 22  2  0
 24 23  1  0
 24 25  1  0
 25 26  2  0
 27 29  2  0
 27 28  1  0
M  END
$$$$
