RVH.pdb
     RDKit          3D

 29 29  0  0  1  0  0  0  0  0999 V2000
    5.8297  -19.1301   17.0359 N   0  0  0  0  0  0  0  0  0  0  0  0
    6.9696  -18.3936   16.6128 C   0  0  0  0  0  0  0  0  0  0  0  0
    7.4929  -18.5941   15.4544 N   0  0  0  0  0  0  0  0  0  0  0  0
    7.5396  -17.4210   17.4855 N   0  0  0  0  0  0  0  0  0  0  0  0
    6.7255  -16.7194   18.4922 C   0  0  0  0  0  0  0  0  0  0  0  0
    7.6614  -15.8413   19.2464 C   0  0  0  0  0  0  0  0  0  0  0  0
    7.4819  -15.7720   20.7242 C   0  0  0  0  0  0  0  0  0  0  0  0
    7.0630  -14.4246   21.1938 C   0  0  2  0  0  0  0  0  0  0  0  0
    7.4283  -13.4164   20.1999 N   0  0  0  0  0  0  0  0  0  0  0  0
    7.7884  -14.0165   22.4428 C   0  0  0  0  0  0  0  0  0  0  0  0
    9.0278  -13.8190   22.4621 O   0  0  0  0  0  0  0  0  0  0  0  0
    8.3412  -18.0780   15.1368 C   0  0  0  0  0  0  0  0  0  0  0  0
    6.2693  -11.6376   25.3229 C   0  0  1  0  0  0  0  0  0  0  0  0
    6.7908  -12.9315   25.8310 C   0  0  0  0  0  0  0  0  0  0  0  0
    7.3143  -12.7153   27.2352 C   0  0  2  0  0  0  0  0  0  0  0  0
    7.7799  -13.6401   24.9562 N   0  0  0  0  0  0  0  0  0  0  0  0
    7.0994  -13.8328   23.6724 C   0  0  0  0  0  0  0  0  0  0  0  0
    8.2367  -14.9459   25.4892 O   0  0  0  0  0  0  0  0  0  0  0  0
    7.5624  -16.0111   25.2639 N   0  0  0  0  0  0  0  0  0  0  0  0
    9.4159  -15.0974   26.2592 C   0  0  1  0  0  0  0  0  0  0  0  0
    9.9617  -16.3989   26.5958 C   0  0  0  0  0  0  0  0  0  0  0  0
   11.1552  -16.7166   25.7446 C   0  0  0  0  0  0  0  0  0  0  0  0
   10.8124  -17.3262   24.4324 C   0  0  0  0  0  0  0  0  0  0  0  0
    9.5560  -17.6124   23.9433 N   0  0  0  0  0  0  0  0  0  0  0  0
    9.6929  -18.1547   22.7258 C   0  0  0  0  0  0  0  0  0  0  0  0
   10.9973  -18.2107   22.4510 N   0  0  0  0  0  0  0  0  0  0  0  0
   11.6789  -17.7071   23.4886 C   0  0  0  0  0  0  0  0  0  0  0  0
   10.3481  -16.4721   28.0287 O   0  0  0  0  0  0  0  0  0  0  0  0
   10.6104  -17.6758   28.6200 O   0  0  0  0  0  0  0  0  0  0  0  0
  1  2  1  0
  2  3  2  0
  4  5  1  0
  4  2  1  0
  6  5  1  0
  7  6  1  0
  8 10  1  0
  8  7  1  0
  8  9  1  6
 10 11  2  0
 13 12  1  1
 13 15  1  0
 14 13  1  0
 15 16  1  6
 16 10  1  0
 17 15  1  0
 17 18  2  0
 19 17  1  0
 20 19  1  0
 20 27  1  0
 20 21  1  1
 22 26  1  0
 22 21  1  0
 23 22  2  0
 24 23  1  0
 24 25  1  0
 25 26  2  0
 27 29  2  0
 27 28  1  0
M  END
$$$$
