RVH.pdb
     RDKit          3D

 29 29  0  0  1  0  0  0  0  0999 V2000
    5.6567  -18.9313   20.6285 N   0  0  0  0  0  0  0  0  0  0  0  0
    6.6288  -19.2428   21.6177 C   0  0  0  0  0  0  0  0  0  0  0  0
    6.3038  -19.8860   22.6838 N   0  0  0  0  0  0  0  0  0  0  0  0
    7.9813  -18.8354   21.4245 N   0  0  0  0  0  0  0  0  0  0  0  0
    8.3416  -17.8110   20.4299 C   0  0  0  0  0  0  0  0  0  0  0  0
    8.4846  -16.5337   21.1807 C   0  0  0  0  0  0  0  0  0  0  0  0
    8.1927  -15.2754   20.4374 C   0  0  0  0  0  0  0  0  0  0  0  0
    7.2894  -14.3591   21.1829 C   0  0  2  0  0  0  0  0  0  0  0  0
    7.0136  -13.1700   20.3781 N   0  0  0  0  0  0  0  0  0  0  0  0
    7.9309  -13.8375   22.4356 C   0  0  0  0  0  0  0  0  0  0  0  0
    8.9105  -13.0532   22.4087 O   0  0  0  0  0  0  0  0  0  0  0  0
    7.0082  -20.1427   23.4082 C   0  0  0  0  0  0  0  0  0  0  0  0
    5.8993  -12.3158   25.2800 C   0  0  2  0  0  0  0  0  0  0  0  0
    6.8274  -13.3396   25.8231 C   0  0  0  0  0  0  0  0  0  0  0  0
    7.2261  -12.9255   27.2238 C   0  0  2  0  0  0  0  0  0  0  0  0
    8.0112  -13.6838   24.9711 N   0  0  0  0  0  0  0  0  0  0  0  0
    7.4545  -14.2105   23.7217 C   0  0  0  0  0  0  0  0  0  0  0  0
    8.9276  -14.6790   25.5775 O   0  0  0  0  0  0  0  0  0  0  0  0
    9.4863  -14.4444   26.7057 N   0  0  0  0  0  0  0  0  0  0  0  0
    9.2355  -15.9197   24.9674 C   0  0  1  0  0  0  0  0  0  0  0  0
   10.1563  -16.8702   25.5622 C   0  0  0  0  0  0  0  0  0  0  0  0
    9.6840  -18.2782   25.3520 C   0  0  0  0  0  0  0  0  0  0  0  0
    8.4478  -18.6164   26.1059 C   0  0  0  0  0  0  0  0  0  0  0  0
    7.9216  -17.9541   27.1941 N   0  0  0  0  0  0  0  0  0  0  0  0
    6.8011  -18.5859   27.5687 C   0  0  0  0  0  0  0  0  0  0  0  0
    6.6221  -19.6183   26.7426 N   0  0  0  0  0  0  0  0  0  0  0  0
    7.6233  -19.6375   25.8527 C   0  0  0  0  0  0  0  0  0  0  0  0
   11.5251  -16.7236   25.0029 O   0  0  0  0  0  0  0  0  0  0  0  0
   12.5487  -17.5120   25.4478 O   0  0  0  0  0  0  0  0  0  0  0  0
  1  2  1  0
  2  3  2  0
  4  5  1  0
  4  2  1  0
  6  5  1  0
  7  6  1  0
  8 10  1  0
  8  7  1  0
  8  9  1  6
 10 11  2  0
 13 12  1  1
 13 15  1  0
 14 13  1  0
 15 16  1  6
 16 10  1  0
 17 15  1  0
 17 18  2  0
 19 17  1  0
 20 19  1  0
 20 27  1  0
 20 21  1  1
 22 26  1  0
 22 21  1  0
 23 22  2  0
 24 23  1  0
 24 25  1  0
 25 26  2  0
 27 29  2  0
 27 28  1  0
M  END
$$$$
