RVH.pdb
     RDKit          3D

 29 29  0  0  1  0  0  0  0  0999 V2000
    8.8462  -21.2511   15.0125 N   0  0  0  0  0  0  0  0  0  0  0  0
    7.4300  -21.2380   15.1342 C   0  0  0  0  0  0  0  0  0  0  0  0
    6.6820  -21.7026   14.1958 N   0  0  0  0  0  0  0  0  0  0  0  0
    6.8323  -20.7016   16.3123 N   0  0  0  0  0  0  0  0  0  0  0  0
    7.5512  -19.7481   17.1739 C   0  0  0  0  0  0  0  0  0  0  0  0
    8.6889  -19.2316   16.3648 C   0  0  0  0  0  0  0  0  0  0  0  0
    9.5599  -18.2032   17.0010 C   0  0  0  0  0  0  0  0  0  0  0  0
    8.9960  -16.8302   16.9095 C   0  0  2  0  0  0  0  0  0  0  0  0
    9.5495  -16.1426   15.7439 N   0  0  0  0  0  0  0  0  0  0  0  0
    9.3930  -15.9826   18.0829 C   0  0  0  0  0  0  0  0  0  0  0  0
   10.5836  -15.6444   18.2911 O   0  0  0  0  0  0  0  0  0  0  0  0
    5.6455  -21.7561   14.2935 C   0  0  0  0  0  0  0  0  0  0  0  0
    7.3578  -12.8218   19.4156 C   0  0  2  0  0  0  0  0  0  0  0  0
    7.6219  -13.8381   20.4652 C   0  0  0  0  0  0  0  0  0  0  0  0
    7.7169  -13.1301   21.8002 C   0  0  2  0  0  0  0  0  0  0  0  0
    8.7795  -14.7588   20.2240 N   0  0  0  0  0  0  0  0  0  0  0  0
    8.4306  -15.5194   19.0206 C   0  0  0  0  0  0  0  0  0  0  0  0
    9.0627  -15.6859   21.3458 O   0  0  0  0  0  0  0  0  0  0  0  0
    8.2310  -16.6112   21.6493 N   0  0  0  0  0  0  0  0  0  0  0  0
   10.2387  -15.6125   22.1319 C   0  0  1  0  0  0  0  0  0  0  0  0
   10.4492  -16.4542   23.2948 C   0  0  0  0  0  0  0  0  0  0  0  0
   11.9110  -16.7053   23.5178 C   0  0  0  0  0  0  0  0  0  0  0  0
   12.5172  -17.6414   22.5342 C   0  0  0  0  0  0  0  0  0  0  0  0
   11.8729  -18.3465   21.5406 N   0  0  0  0  0  0  0  0  0  0  0  0
   12.7859  -19.0719   20.8808 C   0  0  0  0  0  0  0  0  0  0  0  0
   13.9739  -18.8338   21.4396 N   0  0  0  0  0  0  0  0  0  0  0  0
   13.8112  -17.9639   22.4454 C   0  0  0  0  0  0  0  0  0  0  0  0
    9.8638  -15.8473   24.5181 O   0  0  0  0  0  0  0  0  0  0  0  0
    9.8061  -16.5519   25.6875 O   0  0  0  0  0  0  0  0  0  0  0  0
  1  2  1  0
  2  3  2  0
  4  5  1  0
  4  2  1  0
  6  5  1  0
  7  6  1  0
  8 10  1  0
  8  7  1  0
  8  9  1  6
 10 11  2  0
 13 12  1  1
 13 15  1  0
 14 13  1  0
 15 16  1  6
 16 10  1  0
 17 15  1  0
 17 18  2  0
 19 17  1  0
 20 19  1  0
 20 27  1  0
 20 21  1  1
 22 26  1  0
 22 21  1  0
 23 22  2  0
 24 23  1  0
 24 25  1  0
 25 26  2  0
 27 29  2  0
 27 28  1  0
M  END
$$$$
