RVH.pdb
     RDKit          3D

 29 29  0  0  1  0  0  0  0  0999 V2000
   10.8325  -20.3466   19.1587 N   0  0  0  0  0  0  0  0  0  0  0  0
    9.5026  -19.9287   19.4368 C   0  0  0  0  0  0  0  0  0  0  0  0
    8.6090  -19.9094   18.5111 N   0  0  0  0  0  0  0  0  0  0  0  0
    9.1567  -19.5250   20.7597 N   0  0  0  0  0  0  0  0  0  0  0  0
    7.7832  -19.1236   21.1072 C   0  0  0  0  0  0  0  0  0  0  0  0
    7.7560  -17.6365   21.0465 C   0  0  0  0  0  0  0  0  0  0  0  0
    8.0214  -16.9023   22.3160 C   0  0  0  0  0  0  0  0  0  0  0  0
    7.8590  -15.4306   22.1783 C   0  0  2  0  0  0  0  0  0  0  0  0
    8.6479  -14.9475   21.0461 N   0  0  0  0  0  0  0  0  0  0  0  0
    8.4002  -14.6939   23.3688 C   0  0  0  0  0  0  0  0  0  0  0  0
    9.6261  -14.4672   23.5144 O   0  0  0  0  0  0  0  0  0  0  0  0
    7.6619  -19.5033   18.6686 C   0  0  0  0  0  0  0  0  0  0  0  0
    5.7129  -12.7805   26.2220 C   0  0  1  0  0  0  0  0  0  0  0  0
    7.1314  -12.4618   25.9211 C   0  0  0  0  0  0  0  0  0  0  0  0
    7.1631  -11.4344   24.8093 C   0  0  1  0  0  0  0  0  0  0  0  0
    8.0317  -13.6279   25.6462 N   0  0  0  0  0  0  0  0  0  0  0  0
    7.5421  -14.2142   24.3953 C   0  0  0  0  0  0  0  0  0  0  0  0
    8.0424  -14.6532   26.7171 O   0  0  0  0  0  0  0  0  0  0  0  0
    7.0660  -15.4725   26.8413 N   0  0  0  0  0  0  0  0  0  0  0  0
    9.1032  -14.7912   27.6454 C   0  0  1  0  0  0  0  0  0  0  0  0
    9.6047  -16.0866   28.0645 C   0  0  0  0  0  0  0  0  0  0  0  0
   10.3595  -16.7547   26.9538 C   0  0  0  0  0  0  0  0  0  0  0  0
   10.8368  -18.1225   27.2892 C   0  0  0  0  0  0  0  0  0  0  0  0
   10.1771  -19.0842   28.0236 N   0  0  0  0  0  0  0  0  0  0  0  0
   10.9578  -20.1711   28.0896 C   0  0  0  0  0  0  0  0  0  0  0  0
   12.0794  -19.9063   27.4170 N   0  0  0  0  0  0  0  0  0  0  0  0
   12.0065  -18.6604   26.9300 C   0  0  0  0  0  0  0  0  0  0  0  0
   10.4863  -15.9688   29.2548 O   0  0  0  0  0  0  0  0  0  0  0  0
   10.9063  -17.0831   29.9250 O   0  0  0  0  0  0  0  0  0  0  0  0
  1  2  1  0
  2  3  2  0
  4  5  1  0
  4  2  1  0
  6  5  1  0
  7  6  1  0
  8 10  1  0
  8  7  1  0
  8  9  1  6
 10 11  2  0
 13 12  1  1
 13 15  1  0
 14 13  1  0
 15 16  1  6
 16 10  1  0
 17 15  1  0
 17 18  2  0
 19 17  1  0
 20 19  1  0
 20 27  1  0
 20 21  1  1
 22 26  1  0
 22 21  1  0
 23 22  2  0
 24 23  1  0
 24 25  1  0
 25 26  2  0
 27 29  2  0
 27 28  1  0
M  END
$$$$
