RVH.pdb
     RDKit          3D

 29 29  0  0  1  0  0  0  0  0999 V2000
   16.5387  -14.8656   17.5195 N   0  0  0  0  0  0  0  0  0  0  0  0
   16.2934  -15.1025   18.8995 C   0  0  0  0  0  0  0  0  0  0  0  0
   16.8316  -14.3609   19.8029 N   0  0  0  0  0  0  0  0  0  0  0  0
   15.4399  -16.1773   19.2856 N   0  0  0  0  0  0  0  0  0  0  0  0
   14.7581  -17.0157   18.2853 C   0  0  0  0  0  0  0  0  0  0  0  0
   13.3338  -16.5831   18.2805 C   0  0  0  0  0  0  0  0  0  0  0  0
   12.9043  -15.6806   17.1751 C   0  0  0  0  0  0  0  0  0  0  0  0
   11.4362  -15.4445   17.1579 C   0  0  2  0  0  0  0  0  0  0  0  0
   11.0841  -14.5873   16.0269 N   0  0  0  0  0  0  0  0  0  0  0  0
   10.9762  -14.6909   18.3718 C   0  0  0  0  0  0  0  0  0  0  0  0
   11.5851  -13.6816   18.8029 O   0  0  0  0  0  0  0  0  0  0  0  0
   16.6396  -14.5025   20.8177 C   0  0  0  0  0  0  0  0  0  0  0  0
    7.8084  -12.9000   19.0341 C   0  0  1  0  0  0  0  0  0  0  0  0
    7.9674  -13.9763   20.0444 C   0  0  0  0  0  0  0  0  0  0  0  0
    7.2346  -13.5605   21.3024 C   0  0  2  0  0  0  0  0  0  0  0  0
    9.3695  -14.4259   20.3230 N   0  0  0  0  0  0  0  0  0  0  0  0
    9.8193  -15.0886   19.0955 C   0  0  0  0  0  0  0  0  0  0  0  0
    9.4935  -15.3519   21.4742 O   0  0  0  0  0  0  0  0  0  0  0  0
    9.0544  -16.5521   21.3923 N   0  0  0  0  0  0  0  0  0  0  0  0
   10.0901  -14.9813   22.7042 C   0  0  1  0  0  0  0  0  0  0  0  0
   10.1972  -15.8990   23.8229 C   0  0  0  0  0  0  0  0  0  0  0  0
   10.8838  -15.2482   24.9869 C   0  0  0  0  0  0  0  0  0  0  0  0
   11.0563  -16.1444   26.1609 C   0  0  0  0  0  0  0  0  0  0  0  0
   10.6294  -17.4485   26.2901 N   0  0  0  0  0  0  0  0  0  0  0  0
   10.9870  -17.8890   27.5039 C   0  0  0  0  0  0  0  0  0  0  0  0
   11.6218  -16.8937   28.1258 N   0  0  0  0  0  0  0  0  0  0  0  0
   11.6642  -15.8322   27.3096 C   0  0  0  0  0  0  0  0  0  0  0  0
    8.8622  -16.3896   24.2530 O   0  0  0  0  0  0  0  0  0  0  0  0
    8.6850  -17.6916   24.6282 O   0  0  0  0  0  0  0  0  0  0  0  0
  1  2  1  0
  2  3  2  0
  4  5  1  0
  4  2  1  0
  6  5  1  0
  7  6  1  0
  8 10  1  0
  8  7  1  0
  8  9  1  6
 10 11  2  0
 13 12  1  6
 13 15  1  0
 14 13  1  0
 15 16  1  1
 16 10  1  0
 17 15  1  0
 17 18  2  0
 19 17  1  0
 20 19  1  0
 20 27  1  0
 20 21  1  1
 22 26  1  0
 22 21  1  0
 23 22  2  0
 24 23  1  0
 24 25  1  0
 25 26  2  0
 27 29  2  0
 27 28  1  0
M  END
$$$$
