RVH.pdb
     RDKit          3D

 29 29  0  0  1  0  0  0  0  0999 V2000
    6.1596  -18.0683   13.3145 N   0  0  0  0  0  0  0  0  0  0  0  0
    6.0816  -18.9126   14.4554 C   0  0  0  0  0  0  0  0  0  0  0  0
    5.0008  -18.9865   15.1497 N   0  0  0  0  0  0  0  0  0  0  0  0
    7.2177  -19.6862   14.8343 N   0  0  0  0  0  0  0  0  0  0  0  0
    8.5452  -19.0718   15.0031 C   0  0  0  0  0  0  0  0  0  0  0  0
    8.7053  -18.8203   16.4615 C   0  0  0  0  0  0  0  0  0  0  0  0
    9.9531  -18.1313   16.8965 C   0  0  0  0  0  0  0  0  0  0  0  0
    9.8936  -16.6566   16.7145 C   0  0  2  0  0  0  0  0  0  0  0  0
   11.0205  -16.2112   15.8962 N   0  0  0  0  0  0  0  0  0  0  0  0
   10.0482  -15.9252   18.0160 C   0  0  0  0  0  0  0  0  0  0  0  0
   11.1581  -15.8099   18.5906 O   0  0  0  0  0  0  0  0  0  0  0  0
    4.9245  -19.6052   15.9854 C   0  0  0  0  0  0  0  0  0  0  0  0
    7.4412  -12.8452   19.1502 C   0  0  2  0  0  0  0  0  0  0  0  0
    7.7251  -13.9250   20.1289 C   0  0  0  0  0  0  0  0  0  0  0  0
    7.5542  -13.3605   21.5234 C   0  0  2  0  0  0  0  0  0  0  0  0
    9.0262  -14.6494   19.9619 N   0  0  0  0  0  0  0  0  0  0  0  0
    8.9352  -15.3237   18.6638 C   0  0  0  0  0  0  0  0  0  0  0  0
    9.3123  -15.6386   21.0285 O   0  0  0  0  0  0  0  0  0  0  0  0
    8.6372  -16.7241   21.1055 N   0  0  0  0  0  0  0  0  0  0  0  0
   10.3232  -15.4545   22.0035 C   0  0  1  0  0  0  0  0  0  0  0  0
   10.5551  -16.4088   23.0714 C   0  0  0  0  0  0  0  0  0  0  0  0
   11.9742  -16.8944   23.0583 C   0  0  0  0  0  0  0  0  0  0  0  0
   12.2448  -17.9324   22.0285 C   0  0  0  0  0  0  0  0  0  0  0  0
   11.3410  -18.5114   21.1639 N   0  0  0  0  0  0  0  0  0  0  0  0
   11.9969  -19.3976   20.4024 C   0  0  0  0  0  0  0  0  0  0  0  0
   13.2785  -19.3810   20.7733 N   0  0  0  0  0  0  0  0  0  0  0  0
   13.4300  -18.4902   21.7624 C   0  0  0  0  0  0  0  0  0  0  0  0
   10.2506  -15.8205   24.4015 O   0  0  0  0  0  0  0  0  0  0  0  0
    9.8319  -14.5244   24.5118 O   0  0  0  0  0  0  0  0  0  0  0  0
  1  2  1  0
  2  3  2  0
  4  5  1  0
  4  2  1  0
  6  5  1  0
  7  6  1  0
  8 10  1  0
  8  7  1  0
  8  9  1  6
 10 11  2  0
 13 12  1  6
 13 15  1  0
 14 13  1  0
 15 16  1  1
 16 10  1  0
 17 15  1  0
 17 18  2  0
 19 17  1  0
 20 19  1  0
 20 27  1  0
 20 21  1  1
 22 26  1  0
 22 21  1  0
 23 22  2  0
 24 23  1  0
 24 25  1  0
 25 26  2  0
 27 29  2  0
 27 28  1  0
M  END
$$$$
