RVH.pdb
     RDKit          3D

 29 29  0  0  1  0  0  0  0  0999 V2000
    8.0098  -12.4769   13.8607 N   0  0  0  0  0  0  0  0  0  0  0  0
    8.1979  -13.6464   13.0750 C   0  0  0  0  0  0  0  0  0  0  0  0
    8.3323  -13.5694   11.7975 N   0  0  0  0  0  0  0  0  0  0  0  0
    8.2369  -14.9209   13.7128 N   0  0  0  0  0  0  0  0  0  0  0  0
    7.5925  -15.1485   15.0171 C   0  0  0  0  0  0  0  0  0  0  0  0
    8.6912  -15.2084   16.0196 C   0  0  0  0  0  0  0  0  0  0  0  0
    9.4130  -16.5051   16.1560 C   0  0  0  0  0  0  0  0  0  0  0  0
    9.0978  -17.2122   17.4257 C   0  0  2  0  0  0  0  0  0  0  0  0
    7.6491  -17.3376   17.5780 N   0  0  0  0  0  0  0  0  0  0  0  0
    9.5466  -16.4323   18.6271 C   0  0  0  0  0  0  0  0  0  0  0  0
   10.7575  -16.1927   18.8547 O   0  0  0  0  0  0  0  0  0  0  0  0
    8.4371  -14.4191   11.2028 C   0  0  0  0  0  0  0  0  0  0  0  0
    6.6161  -14.4882   21.2062 C   0  0  1  0  0  0  0  0  0  0  0  0
    8.0270  -14.1026   20.9511 C   0  0  0  0  0  0  0  0  0  0  0  0
    8.0548  -13.1490   19.7753 C   0  0  1  0  0  0  0  0  0  0  0  0
    9.0068  -15.2261   20.7978 N   0  0  0  0  0  0  0  0  0  0  0  0
    8.6131  -15.9243   19.5708 C   0  0  0  0  0  0  0  0  0  0  0  0
    9.0270  -16.1746   21.9371 O   0  0  0  0  0  0  0  0  0  0  0  0
    8.4218  -17.3003   21.8557 N   0  0  0  0  0  0  0  0  0  0  0  0
    9.6990  -15.9068   23.1549 C   0  0  1  0  0  0  0  0  0  0  0  0
   10.3435  -16.9490   23.9317 C   0  0  0  0  0  0  0  0  0  0  0  0
   11.3680  -17.6743   23.1106 C   0  0  0  0  0  0  0  0  0  0  0  0
   12.1040  -18.7266   23.8603 C   0  0  0  0  0  0  0  0  0  0  0  0
   11.9534  -19.0723   25.1860 N   0  0  0  0  0  0  0  0  0  0  0  0
   12.8079  -20.0672   25.4601 C   0  0  0  0  0  0  0  0  0  0  0  0
   13.4804  -20.3441   24.3414 N   0  0  0  0  0  0  0  0  0  0  0  0
   13.0528  -19.5290   23.3680 C   0  0  0  0  0  0  0  0  0  0  0  0
   10.9923  -16.3970   25.1491 O   0  0  0  0  0  0  0  0  0  0  0  0
   11.4067  -17.2240   26.1549 O   0  0  0  0  0  0  0  0  0  0  0  0
  1  2  1  0
  2  3  2  0
  4  5  1  0
  4  2  1  0
  6  5  1  0
  7  6  1  0
  8 10  1  0
  8  7  1  0
  8  9  1  1
 10 11  2  0
 13 12  1  1
 13 15  1  0
 14 13  1  0
 15 16  1  6
 16 10  1  0
 17 15  1  0
 17 18  2  0
 19 17  1  0
 20 19  1  0
 20 27  1  0
 20 21  1  1
 22 26  1  0
 22 21  1  0
 23 22  2  0
 24 23  1  0
 24 25  1  0
 25 26  2  0
 27 29  2  0
 27 28  1  0
M  END
$$$$
