RVH.pdb
     RDKit          3D

 29 29  0  0  1  0  0  0  0  0999 V2000
   11.2755  -21.4493   15.9721 N   0  0  0  0  0  0  0  0  0  0  0  0
   10.3952  -21.2641   14.8715 C   0  0  0  0  0  0  0  0  0  0  0  0
   10.8262  -21.3376   13.6612 N   0  0  0  0  0  0  0  0  0  0  0  0
    9.0168  -20.9924   15.1140 N   0  0  0  0  0  0  0  0  0  0  0  0
    8.4144  -19.6960   14.7605 C   0  0  0  0  0  0  0  0  0  0  0  0
    9.1131  -18.6732   15.5859 C   0  0  0  0  0  0  0  0  0  0  0  0
    8.3072  -17.9817   16.6317 C   0  0  0  0  0  0  0  0  0  0  0  0
    8.2498  -16.5084   16.4382 C   0  0  2  0  0  0  0  0  0  0  0  0
    9.0837  -16.1239   15.3004 N   0  0  0  0  0  0  0  0  0  0  0  0
    8.8274  -15.7672   17.6086 C   0  0  0  0  0  0  0  0  0  0  0  0
   10.0414  -15.4544   17.6689 O   0  0  0  0  0  0  0  0  0  0  0  0
   10.2192  -21.1071   12.8457 C   0  0  0  0  0  0  0  0  0  0  0  0
    7.4500  -12.5919   19.3220 C   0  0  1  0  0  0  0  0  0  0  0  0
    7.6047  -13.6922   20.3067 C   0  0  0  0  0  0  0  0  0  0  0  0
    7.9199  -13.0824   21.6563 C   0  0  2  0  0  0  0  0  0  0  0  0
    8.5599  -14.7863   19.9377 N   0  0  0  0  0  0  0  0  0  0  0  0
    8.0192  -15.3813   18.7122 C   0  0  0  0  0  0  0  0  0  0  0  0
    8.7218  -15.8288   20.9794 O   0  0  0  0  0  0  0  0  0  0  0  0
    8.2295  -16.9987   20.8091 N   0  0  0  0  0  0  0  0  0  0  0  0
    9.4129  -15.6065   22.1955 C   0  0  1  0  0  0  0  0  0  0  0  0
   10.2394  -16.6247   22.8163 C   0  0  0  0  0  0  0  0  0  0  0  0
   11.2966  -17.1088   21.8688 C   0  0  0  0  0  0  0  0  0  0  0  0
   10.9384  -18.3658   21.1597 C   0  0  0  0  0  0  0  0  0  0  0  0
    9.7759  -19.0959   21.2829 N   0  0  0  0  0  0  0  0  0  0  0  0
    9.8584  -20.1571   20.4691 C   0  0  0  0  0  0  0  0  0  0  0  0
   11.0381  -20.1014   19.8483 N   0  0  0  0  0  0  0  0  0  0  0  0
   11.6956  -19.0122   20.2679 C   0  0  0  0  0  0  0  0  0  0  0  0
   10.8856  -16.1192   24.0551 O   0  0  0  0  0  0  0  0  0  0  0  0
   11.3424  -16.9862   25.0075 O   0  0  0  0  0  0  0  0  0  0  0  0
  1  2  1  0
  2  3  2  0
  4  5  1  0
  4  2  1  0
  6  5  1  0
  7  6  1  0
  8 10  1  0
  8  7  1  0
  8  9  1  6
 10 11  2  0
 13 12  1  1
 13 15  1  0
 14 13  1  0
 15 16  1  6
 16 10  1  0
 17 15  1  0
 17 18  2  0
 19 17  1  0
 20 19  1  0
 20 27  1  0
 20 21  1  1
 22 26  1  0
 22 21  1  0
 23 22  2  0
 24 23  1  0
 24 25  1  0
 25 26  2  0
 27 29  2  0
 27 28  1  0
M  END
$$$$
