CWM.pdb
     RDKit          3D

 29 30  0  0  1  0  0  0  0  0999 V2000
   28.6319  -20.9383  -15.4499 N   0  0  0  0  0  0  0  0  0  0  0  0
   28.4752  -19.9684  -14.4057 C   0  0  1  0  0  0  0  0  0  0  0  0
   27.8325  -18.7182  -14.9117 C   0  0  0  0  0  0  0  0  0  0  0  0
   28.9204  -17.9036  -16.0802 S   0  0  0  0  0  0  0  0  0  0  0  0
   27.7038  -20.5802  -13.2682 C   0  0  0  0  0  0  0  0  0  0  0  0
   26.8268  -21.4111  -13.5474 O   0  0  0  0  0  0  0  0  0  0  0  0
   27.9645  -20.2250  -11.9272 N   0  0  0  0  0  0  0  0  0  0  0  0
   27.2695  -20.7161  -10.7762 C   0  0  1  0  0  0  0  0  0  0  0  0
   27.9513  -20.4597   -9.4425 C   0  0  0  0  0  0  0  0  0  0  0  0
   27.0753  -20.6612   -8.2795 C   0  0  0  0  0  0  0  0  0  0  0  0
   25.8193  -21.1791   -8.1263 C   0  0  0  0  0  0  0  0  0  0  0  0
   25.4443  -21.1577   -6.8120 N   0  0  0  0  0  0  0  0  0  0  0  0
   26.4470  -20.6283   -6.0959 C   0  0  0  0  0  0  0  0  0  0  0  0
   26.5666  -20.3909   -4.7393 C   0  0  0  0  0  0  0  0  0  0  0  0
   27.7189  -19.8332   -4.2656 C   0  0  0  0  0  0  0  0  0  0  0  0
   28.7549  -19.5069   -5.1154 C   0  0  0  0  0  0  0  0  0  0  0  0
   28.6074  -19.7566   -6.4751 C   0  0  0  0  0  0  0  0  0  0  0  0
   27.4579  -20.3166   -6.9763 C   0  0  0  0  0  0  0  0  0  0  0  0
   25.8795  -20.2155  -10.7636 C   0  0  0  0  0  0  0  0  0  0  0  0
   25.6706  -18.9722  -10.9547 O   0  0  0  0  0  0  0  0  0  0  0  0
   23.3413  -24.4833  -14.3231 C   0  0  0  0  0  0  0  0  0  0  0  0
   21.7911  -23.6315  -13.8971 S   0  0  0  0  0  0  0  0  0  0  0  0
   22.0946  -22.1484  -12.9546 C   0  0  0  0  0  0  0  0  0  0  0  0
   23.3309  -22.0805  -12.1623 C   0  0  0  0  0  0  0  0  0  0  0  0
   23.5534  -20.8471  -11.3699 C   0  0  2  0  0  0  0  0  0  0  0  0
   24.7653  -21.0488  -10.5495 N   0  0  0  0  0  0  0  0  0  0  0  0
   22.5037  -20.4589  -10.4432 C   0  0  0  0  0  0  0  0  0  0  0  0
   22.6022  -20.8053   -9.2156 O   0  0  0  0  0  0  0  0  0  0  0  0
   21.3725  -19.7277  -10.7394 O   0  0  0  0  0  0  0  0  0  0  0  0
  2  1  1  6
  2  5  1  0
  3  2  1  0
  4  3  1  0
  5  6  2  0
  5  7  1  0
  7  8  1  0
  8 19  1  0
  8  9  1  1
 10  9  1  0
 10 18  1  0
 11 10  2  0
 12 11  1  0
 12 13  1  0
 13 14  1  0
 13 18  2  0
 14 15  2  0
 15 16  1  0
 17 16  2  0
 18 17  1  0
 19 20  2  0
 22 21  1  0
 23 24  1  0
 23 22  1  0
 25 24  1  1
 25 27  1  0
 26 25  1  0
 26 19  1  0
 27 28  2  0
 27 29  1  0
M  END
$$$$
