CWM.pdb
     RDKit          3D

 29 30  0  0  1  0  0  0  0  0999 V2000
   27.6823  -23.8771  -16.4116 N   0  0  0  0  0  0  0  0  0  0  0  0
   27.3843  -22.5214  -16.0525 C   0  0  1  0  0  0  0  0  0  0  0  0
   26.7940  -21.7682  -17.1999 C   0  0  0  0  0  0  0  0  0  0  0  0
   25.1154  -22.3232  -17.4939 S   0  0  0  0  0  0  0  0  0  0  0  0
   26.4846  -22.5110  -14.8467 C   0  0  0  0  0  0  0  0  0  0  0  0
   26.0791  -23.6024  -14.4205 O   0  0  0  0  0  0  0  0  0  0  0  0
   26.1115  -21.3038  -14.2176 N   0  0  0  0  0  0  0  0  0  0  0  0
   25.3765  -21.1840  -12.9951 C   0  0  1  0  0  0  0  0  0  0  0  0
   25.8714  -20.1131  -12.0372 C   0  0  0  0  0  0  0  0  0  0  0  0
   27.1161  -20.4687  -11.3411 C   0  0  0  0  0  0  0  0  0  0  0  0
   28.3376  -20.9128  -11.7655 C   0  0  0  0  0  0  0  0  0  0  0  0
   29.1832  -21.0887  -10.7060 N   0  0  0  0  0  0  0  0  0  0  0  0
   28.5261  -20.7626   -9.5833 C   0  0  0  0  0  0  0  0  0  0  0  0
   28.9309  -20.7656   -8.2615 C   0  0  0  0  0  0  0  0  0  0  0  0
   28.0446  -20.3773   -7.2986 C   0  0  0  0  0  0  0  0  0  0  0  0
   26.7632  -19.9859   -7.6252 C   0  0  0  0  0  0  0  0  0  0  0  0
   26.3830  -19.9926   -8.9625 C   0  0  0  0  0  0  0  0  0  0  0  0
   27.2561  -20.3792   -9.9496 C   0  0  0  0  0  0  0  0  0  0  0  0
   23.9360  -21.0158  -13.2768 C   0  0  0  0  0  0  0  0  0  0  0  0
   23.5793  -20.2303  -14.2158 O   0  0  0  0  0  0  0  0  0  0  0  0
   16.9264  -24.4244  -13.6395 C   0  0  0  0  0  0  0  0  0  0  0  0
   18.5080  -24.3563  -12.7430 S   0  0  0  0  0  0  0  0  0  0  0  0
   19.3980  -22.8517  -13.0951 C   0  0  0  0  0  0  0  0  0  0  0  0
   20.7936  -22.7589  -12.6429 C   0  0  0  0  0  0  0  0  0  0  0  0
   21.5199  -21.5056  -12.9601 C   0  0  2  0  0  0  0  0  0  0  0  0
   22.9293  -21.6843  -12.5547 N   0  0  0  0  0  0  0  0  0  0  0  0
   21.0652  -20.2934  -12.3003 C   0  0  0  0  0  0  0  0  0  0  0  0
   21.6474  -19.9181  -11.2248 O   0  0  0  0  0  0  0  0  0  0  0  0
   20.0448  -19.4634  -12.7148 O   0  0  0  0  0  0  0  0  0  0  0  0
  2  1  1  6
  2  5  1  0
  3  2  1  0
  4  3  1  0
  5  6  2  0
  5  7  1  0
  7  8  1  0
  8 19  1  0
  8  9  1  6
 10  9  1  0
 10 18  1  0
 11 10  2  0
 12 11  1  0
 12 13  1  0
 13 14  1  0
 13 18  2  0
 14 15  2  0
 15 16  1  0
 17 16  2  0
 18 17  1  0
 19 20  2  0
 22 21  1  0
 23 24  1  0
 23 22  1  0
 25 24  1  1
 25 27  1  0
 26 25  1  0
 26 19  1  0
 27 28  2  0
 27 29  1  0
M  END
$$$$
