CWM.pdb
     RDKit          3D

 29 30  0  0  1  0  0  0  0  0999 V2000
   28.9751  -21.0026  -14.4518 N   0  0  0  0  0  0  0  0  0  0  0  0
   28.7988  -20.4208  -13.1534 C   0  0  1  0  0  0  0  0  0  0  0  0
   28.7076  -18.9315  -13.2285 C   0  0  0  0  0  0  0  0  0  0  0  0
   27.2859  -18.4569  -14.2114 S   0  0  0  0  0  0  0  0  0  0  0  0
   27.5906  -21.0286  -12.4943 C   0  0  0  0  0  0  0  0  0  0  0  0
   26.7329  -21.5444  -13.2262 O   0  0  0  0  0  0  0  0  0  0  0  0
   27.4329  -21.0155  -11.0917 N   0  0  0  0  0  0  0  0  0  0  0  0
   26.3155  -21.5381  -10.3655 C   0  0  1  0  0  0  0  0  0  0  0  0
   26.5244  -21.6942   -8.8684 C   0  0  0  0  0  0  0  0  0  0  0  0
   26.9643  -20.4619   -8.1987 C   0  0  0  0  0  0  0  0  0  0  0  0
   26.7891  -19.1324   -8.4651 C   0  0  0  0  0  0  0  0  0  0  0  0
   27.3978  -18.3639   -7.5125 N   0  0  0  0  0  0  0  0  0  0  0  0
   27.9745  -19.1797   -6.6177 C   0  0  0  0  0  0  0  0  0  0  0  0
   28.7038  -18.9040   -5.4762 C   0  0  0  0  0  0  0  0  0  0  0  0
   29.1824  -19.9429   -4.7314 C   0  0  0  0  0  0  0  0  0  0  0  0
   28.9495  -21.2513   -5.1001 C   0  0  0  0  0  0  0  0  0  0  0  0
   28.2130  -21.4994   -6.2529 C   0  0  0  0  0  0  0  0  0  0  0  0
   27.7209  -20.4714   -7.0192 C   0  0  0  0  0  0  0  0  0  0  0  0
   25.1023  -20.7442  -10.6496 C   0  0  0  0  0  0  0  0  0  0  0  0
   25.1327  -19.4835  -10.4611 O   0  0  0  0  0  0  0  0  0  0  0  0
   23.3177  -19.5674  -15.9671 C   0  0  0  0  0  0  0  0  0  0  0  0
   21.8613  -18.8280  -15.1656 S   0  0  0  0  0  0  0  0  0  0  0  0
   21.7854  -19.2408  -13.4325 C   0  0  0  0  0  0  0  0  0  0  0  0
   22.8834  -20.0396  -12.8693 C   0  0  0  0  0  0  0  0  0  0  0  0
   22.7682  -20.4269  -11.4426 C   0  0  2  0  0  0  0  0  0  0  0  0
   23.9048  -21.3144  -11.1215 N   0  0  0  0  0  0  0  0  0  0  0  0
   21.5719  -21.1518  -11.0492 C   0  0  0  0  0  0  0  0  0  0  0  0
   21.6166  -22.4284  -10.9785 O   0  0  0  0  0  0  0  0  0  0  0  0
   20.3476  -20.6061  -10.7245 O   0  0  0  0  0  0  0  0  0  0  0  0
  2  1  1  6
  2  5  1  0
  3  2  1  0
  4  3  1  0
  5  6  2  0
  5  7  1  0
  7  8  1  0
  8 19  1  0
  8  9  1  1
 10  9  1  0
 10 18  1  0
 11 10  2  0
 12 11  1  0
 12 13  1  0
 13 14  1  0
 13 18  2  0
 14 15  2  0
 15 16  1  0
 17 16  2  0
 18 17  1  0
 19 20  2  0
 22 21  1  0
 23 24  1  0
 23 22  1  0
 25 24  1  6
 25 27  1  0
 26 25  1  0
 26 19  1  0
 27 28  2  0
 27 29  1  0
M  END
$$$$
