CWM.pdb
     RDKit          3D

 29 30  0  0  1  0  0  0  0  0999 V2000
   18.5181  -11.6925    5.8991 N   0  0  0  0  0  0  0  0  0  0  0  0
   19.5489  -12.6271    6.2450 C   0  0  1  0  0  0  0  0  0  0  0  0
   20.5517  -12.0187    7.1704 C   0  0  0  0  0  0  0  0  0  0  0  0
   21.8026  -11.1488    6.2266 S   0  0  0  0  0  0  0  0  0  0  0  0
   18.9242  -13.8670    6.8245 C   0  0  0  0  0  0  0  0  0  0  0  0
   17.9458  -13.7239    7.5727 O   0  0  0  0  0  0  0  0  0  0  0  0
   19.4293  -15.1518    6.5304 N   0  0  0  0  0  0  0  0  0  0  0  0
   18.8555  -16.3965    6.9432 C   0  0  1  0  0  0  0  0  0  0  0  0
   18.2245  -17.2243    5.8361 C   0  0  0  0  0  0  0  0  0  0  0  0
   17.2543  -16.4816    5.0189 C   0  0  0  0  0  0  0  0  0  0  0  0
   16.0784  -15.8443    5.3021 C   0  0  0  0  0  0  0  0  0  0  0  0
   15.5494  -15.2815    4.1743 N   0  0  0  0  0  0  0  0  0  0  0  0
   16.3708  -15.5438    3.1471 C   0  0  0  0  0  0  0  0  0  0  0  0
   16.2908  -15.1998    1.8105 C   0  0  0  0  0  0  0  0  0  0  0  0
   17.2840  -15.6017    0.9647 C   0  0  0  0  0  0  0  0  0  0  0  0
   18.3555  -16.3393    1.4227 C   0  0  0  0  0  0  0  0  0  0  0  0
   18.4102  -16.6711    2.7717 C   0  0  0  0  0  0  0  0  0  0  0  0
   17.4235  -16.2789    3.6427 C   0  0  0  0  0  0  0  0  0  0  0  0
   19.8448  -17.1920    7.6991 C   0  0  0  0  0  0  0  0  0  0  0  0
   21.0293  -17.3000    7.2396 O   0  0  0  0  0  0  0  0  0  0  0  0
   24.2511  -18.0751   13.6780 C   0  0  0  0  0  0  0  0  0  0  0  0
   23.2152  -17.1646   12.4914 S   0  0  0  0  0  0  0  0  0  0  0  0
   22.0921  -18.2507   11.6318 C   0  0  0  0  0  0  0  0  0  0  0  0
   21.1906  -17.6553   10.6350 C   0  0  0  0  0  0  0  0  0  0  0  0
   20.6163  -18.5696    9.6186 C   0  0  2  0  0  0  0  0  0  0  0  0
   19.5429  -17.8421    8.9107 N   0  0  0  0  0  0  0  0  0  0  0  0
   20.0133  -19.8000   10.1022 C   0  0  0  0  0  0  0  0  0  0  0  0
   18.7406  -19.8625   10.2165 O   0  0  0  0  0  0  0  0  0  0  0  0
   20.6747  -20.9557   10.4612 O   0  0  0  0  0  0  0  0  0  0  0  0
  2  1  1  1
  2  5  1  0
  3  2  1  0
  4  3  1  0
  5  6  2  0
  5  7  1  0
  7  8  1  0
  8 19  1  0
  8  9  1  6
 10  9  1  0
 10 18  1  0
 11 10  2  0
 12 11  1  0
 12 13  1  0
 13 14  1  0
 13 18  2  0
 14 15  2  0
 15 16  1  0
 17 16  2  0
 18 17  1  0
 19 20  2  0
 22 21  1  0
 23 24  1  0
 23 22  1  0
 25 24  1  1
 25 27  1  0
 26 25  1  0
 26 19  1  0
 27 28  2  0
 27 29  1  0
M  END
$$$$
