CWM.pdb
     RDKit          3D

 29 30  0  0  1  0  0  0  0  0999 V2000
   28.6406  -21.6745  -15.4564 N   0  0  0  0  0  0  0  0  0  0  0  0
   27.7176  -20.6782  -14.9969 C   0  0  1  0  0  0  0  0  0  0  0  0
   26.9881  -20.0412  -16.1346 C   0  0  0  0  0  0  0  0  0  0  0  0
   28.0326  -18.8122  -16.9162 S   0  0  0  0  0  0  0  0  0  0  0  0
   26.7775  -21.2930  -13.9960 C   0  0  0  0  0  0  0  0  0  0  0  0
   26.4224  -22.4661  -14.1835 O   0  0  0  0  0  0  0  0  0  0  0  0
   26.3123  -20.5649  -12.8798 N   0  0  0  0  0  0  0  0  0  0  0  0
   25.4458  -21.0601  -11.8536 C   0  0  1  0  0  0  0  0  0  0  0  0
   25.7101  -20.5197  -10.4582 C   0  0  0  0  0  0  0  0  0  0  0  0
   27.0210  -20.8998   -9.9127 C   0  0  0  0  0  0  0  0  0  0  0  0
   28.0819  -21.6005  -10.4155 C   0  0  0  0  0  0  0  0  0  0  0  0
   29.0935  -21.6706   -9.4989 N   0  0  0  0  0  0  0  0  0  0  0  0
   28.7059  -21.0190   -8.3925 C   0  0  0  0  0  0  0  0  0  0  0  0
   29.3572  -20.8006   -7.1929 C   0  0  0  0  0  0  0  0  0  0  0  0
   28.7219  -20.0889   -6.2166 C   0  0  0  0  0  0  0  0  0  0  0  0
   27.4509  -19.5900   -6.4106 C   0  0  0  0  0  0  0  0  0  0  0  0
   26.8196  -19.8247   -7.6268 C   0  0  0  0  0  0  0  0  0  0  0  0
   27.4375  -20.5380   -8.6246 C   0  0  0  0  0  0  0  0  0  0  0  0
   24.0325  -20.8646  -12.2369 C   0  0  0  0  0  0  0  0  0  0  0  0
   23.6013  -19.6782  -12.4169 O   0  0  0  0  0  0  0  0  0  0  0  0
   20.3755  -25.1695  -15.5018 C   0  0  0  0  0  0  0  0  0  0  0  0
   19.3372  -23.6946  -15.2637 S   0  0  0  0  0  0  0  0  0  0  0  0
   19.7346  -22.8503  -13.7441 C   0  0  0  0  0  0  0  0  0  0  0  0
   21.1235  -22.9148  -13.2670 C   0  0  0  0  0  0  0  0  0  0  0  0
   21.7530  -21.6357  -12.8590 C   0  0  2  0  0  0  0  0  0  0  0  0
   23.1306  -21.9309  -12.4144 N   0  0  0  0  0  0  0  0  0  0  0  0
   21.1274  -20.9105  -11.7661 C   0  0  0  0  0  0  0  0  0  0  0  0
   20.1429  -20.1344  -12.0213 O   0  0  0  0  0  0  0  0  0  0  0  0
   21.4784  -20.9658  -10.4336 O   0  0  0  0  0  0  0  0  0  0  0  0
  2  1  1  6
  2  5  1  0
  3  2  1  0
  4  3  1  0
  5  6  2  0
  5  7  1  0
  7  8  1  0
  8 19  1  0
  8  9  1  1
 10  9  1  0
 10 18  1  0
 11 10  2  0
 12 11  1  0
 12 13  1  0
 13 14  1  0
 13 18  2  0
 14 15  2  0
 15 16  1  0
 17 16  2  0
 18 17  1  0
 19 20  2  0
 22 21  1  0
 23 24  1  0
 23 22  1  0
 25 24  1  1
 25 27  1  0
 26 25  1  0
 26 19  1  0
 27 28  2  0
 27 29  1  0
M  END
$$$$
