CWM.pdb
     RDKit          3D

 29 30  0  0  1  0  0  0  0  0999 V2000
   28.2149  -23.8703  -16.8803 N   0  0  0  0  0  0  0  0  0  0  0  0
   28.1736  -22.5275  -16.3795 C   0  0  1  0  0  0  0  0  0  0  0  0
   27.5890  -21.5869  -17.3823 C   0  0  0  0  0  0  0  0  0  0  0  0
   28.6263  -21.5315  -18.8429 S   0  0  0  0  0  0  0  0  0  0  0  0
   27.4216  -22.5039  -15.0768 C   0  0  0  0  0  0  0  0  0  0  0  0
   26.4776  -23.2965  -14.9415 O   0  0  0  0  0  0  0  0  0  0  0  0
   27.7734  -21.6129  -14.0401 N   0  0  0  0  0  0  0  0  0  0  0  0
   27.0961  -21.4699  -12.7871 C   0  0  1  0  0  0  0  0  0  0  0  0
   27.8370  -20.6660  -11.7318 C   0  0  0  0  0  0  0  0  0  0  0  0
   27.0344  -20.3749  -10.5353 C   0  0  0  0  0  0  0  0  0  0  0  0
   25.6992  -20.1693  -10.3252 C   0  0  0  0  0  0  0  0  0  0  0  0
   25.4469  -19.9440   -9.0008 N   0  0  0  0  0  0  0  0  0  0  0  0
   26.6096  -20.0001   -8.3346 C   0  0  0  0  0  0  0  0  0  0  0  0
   26.8938  -19.8445   -6.9907 C   0  0  0  0  0  0  0  0  0  0  0  0
   28.1883  -19.9560   -6.5724 C   0  0  0  0  0  0  0  0  0  0  0  0
   29.2059  -20.2194   -7.4651 C   0  0  0  0  0  0  0  0  0  0  0  0
   28.8913  -20.3713   -8.8108 C   0  0  0  0  0  0  0  0  0  0  0  0
   27.5968  -20.2635   -9.2566 C   0  0  0  0  0  0  0  0  0  0  0  0
   25.7344  -20.9368  -12.9978 C   0  0  0  0  0  0  0  0  0  0  0  0
   25.5961  -19.8182  -13.5941 O   0  0  0  0  0  0  0  0  0  0  0  0
   22.2369  -23.4169  -17.2104 C   0  0  0  0  0  0  0  0  0  0  0  0
   20.9777  -23.2423  -15.9088 S   0  0  0  0  0  0  0  0  0  0  0  0
   21.4840  -22.0769  -14.6577 C   0  0  0  0  0  0  0  0  0  0  0  0
   22.8369  -22.2148  -14.0995 C   0  0  0  0  0  0  0  0  0  0  0  0
   23.2648  -21.1908  -13.1161 C   0  0  2  0  0  0  0  0  0  0  0  0
   24.5728  -21.6069  -12.5697 N   0  0  0  0  0  0  0  0  0  0  0  0
   22.4016  -20.9769  -11.9670 C   0  0  0  0  0  0  0  0  0  0  0  0
   22.6922  -21.5476  -10.8595 O   0  0  0  0  0  0  0  0  0  0  0  0
   21.2653  -20.1965  -11.9244 O   0  0  0  0  0  0  0  0  0  0  0  0
  2  1  1  6
  2  5  1  0
  3  2  1  0
  4  3  1  0
  5  6  2  0
  5  7  1  0
  7  8  1  0
  8 19  1  0
  8  9  1  1
 10  9  1  0
 10 18  1  0
 11 10  2  0
 12 11  1  0
 12 13  1  0
 13 14  1  0
 13 18  2  0
 14 15  2  0
 15 16  1  0
 17 16  2  0
 18 17  1  0
 19 20  2  0
 22 21  1  0
 23 24  1  0
 23 22  1  0
 25 24  1  6
 25 27  1  0
 26 25  1  0
 26 19  1  0
 27 28  2  0
 27 29  1  0
M  END
$$$$
