CWM.pdb
     RDKit          3D

 29 30  0  0  1  0  0  0  0  0999 V2000
   26.8391  -19.1223  -16.3850 N   0  0  0  0  0  0  0  0  0  0  0  0
   27.5519  -19.5908  -15.2326 C   0  0  1  0  0  0  0  0  0  0  0  0
   28.9222  -19.0001  -15.1589 C   0  0  0  0  0  0  0  0  0  0  0  0
   29.9642  -19.7180  -16.4283 S   0  0  0  0  0  0  0  0  0  0  0  0
   26.7450  -19.3029  -13.9959 C   0  0  0  0  0  0  0  0  0  0  0  0
   26.2339  -18.1783  -13.8898 O   0  0  0  0  0  0  0  0  0  0  0  0
   26.5717  -20.2753  -12.9875 N   0  0  0  0  0  0  0  0  0  0  0  0
   25.5300  -20.2935  -12.0059 C   0  0  1  0  0  0  0  0  0  0  0  0
   24.3386  -21.1779  -12.3338 C   0  0  0  0  0  0  0  0  0  0  0  0
   23.3646  -20.5503  -13.2383 C   0  0  0  0  0  0  0  0  0  0  0  0
   23.4700  -19.6222  -14.2367 C   0  0  0  0  0  0  0  0  0  0  0  0
   22.2485  -19.3751  -14.7983 N   0  0  0  0  0  0  0  0  0  0  0  0
   21.3364  -20.1361  -14.1758 C   0  0  0  0  0  0  0  0  0  0  0  0
   19.9727  -20.2578  -14.3675 C   0  0  0  0  0  0  0  0  0  0  0  0
   19.2702  -21.1249  -13.5814 C   0  0  0  0  0  0  0  0  0  0  0  0
   19.8980  -21.8735  -12.6081 C   0  0  0  0  0  0  0  0  0  0  0  0
   21.2703  -21.7310  -12.4372 C   0  0  0  0  0  0  0  0  0  0  0  0
   21.9993  -20.8652  -13.2151 C   0  0  0  0  0  0  0  0  0  0  0  0
   26.0833  -20.6244  -10.6766 C   0  0  0  0  0  0  0  0  0  0  0  0
   26.5652  -21.7888  -10.4821 O   0  0  0  0  0  0  0  0  0  0  0  0
   29.2900  -20.2087   -4.0691 C   0  0  0  0  0  0  0  0  0  0  0  0
   28.9246  -19.9945   -5.8386 S   0  0  0  0  0  0  0  0  0  0  0  0
   27.3468  -19.2032   -6.0920 C   0  0  0  0  0  0  0  0  0  0  0  0
   26.9097  -18.9733   -7.4766 C   0  0  0  0  0  0  0  0  0  0  0  0
   26.5754  -20.1721   -8.2826 C   0  0  2  0  0  0  0  0  0  0  0  0
   26.1053  -19.7114   -9.6053 N   0  0  0  0  0  0  0  0  0  0  0  0
   25.5321  -21.0436   -7.7693 C   0  0  0  0  0  0  0  0  0  0  0  0
   25.8619  -22.0397   -7.0374 O   0  0  0  0  0  0  0  0  0  0  0  0
   24.1752  -20.9165   -7.9802 O   0  0  0  0  0  0  0  0  0  0  0  0
  2  1  1  6
  2  5  1  0
  3  2  1  0
  4  3  1  0
  5  6  2  0
  5  7  1  0
  7  8  1  0
  8 19  1  0
  8  9  1  6
 10  9  1  0
 10 18  1  0
 11 10  2  0
 12 11  1  0
 12 13  1  0
 13 14  1  0
 13 18  2  0
 14 15  2  0
 15 16  1  0
 17 16  2  0
 18 17  1  0
 19 20  2  0
 22 21  1  0
 23 24  1  0
 23 22  1  0
 25 24  1  1
 25 27  1  0
 26 25  1  0
 26 19  1  0
 27 28  2  0
 27 29  1  0
M  END
$$$$
