CWM.pdb
     RDKit          3D

 29 30  0  0  1  0  0  0  0  0999 V2000
   14.9572  -23.8763   -5.0841 N   0  0  0  0  0  0  0  0  0  0  0  0
   14.5313  -24.3156   -3.7875 C   0  0  1  0  0  0  0  0  0  0  0  0
   15.4090  -25.4048   -3.2628 C   0  0  0  0  0  0  0  0  0  0  0  0
   15.6271  -26.6681   -4.5153 S   0  0  0  0  0  0  0  0  0  0  0  0
   14.4749  -23.1364   -2.8549 C   0  0  0  0  0  0  0  0  0  0  0  0
   15.2932  -22.2217   -3.0319 O   0  0  0  0  0  0  0  0  0  0  0  0
   13.5256  -23.0673   -1.8126 N   0  0  0  0  0  0  0  0  0  0  0  0
   13.4465  -22.0462   -0.8125 C   0  0  1  0  0  0  0  0  0  0  0  0
   12.0602  -21.4715   -0.5737 C   0  0  0  0  0  0  0  0  0  0  0  0
   11.7286  -20.3381   -1.4488 C   0  0  0  0  0  0  0  0  0  0  0  0
   11.7748  -20.1495   -2.8022 C   0  0  0  0  0  0  0  0  0  0  0  0
   11.3392  -18.8963   -3.1311 N   0  0  0  0  0  0  0  0  0  0  0  0
   11.0050  -18.2559   -2.0011 C   0  0  0  0  0  0  0  0  0  0  0  0
   10.5130  -16.9810   -1.7920 C   0  0  0  0  0  0  0  0  0  0  0  0
   10.2509  -16.5756   -0.5152 C   0  0  0  0  0  0  0  0  0  0  0  0
   10.4687  -17.4139    0.5580 C   0  0  0  0  0  0  0  0  0  0  0  0
   10.9640  -18.6907    0.3184 C   0  0  0  0  0  0  0  0  0  0  0  0
   11.2358  -19.1221   -0.9567 C   0  0  0  0  0  0  0  0  0  0  0  0
   14.0475  -22.5186    0.4518 C   0  0  0  0  0  0  0  0  0  0  0  0
   13.8066  -23.7085    0.8418 O   0  0  0  0  0  0  0  0  0  0  0  0
   20.4905  -23.5973    4.4111 C   0  0  0  0  0  0  0  0  0  0  0  0
   19.6052  -22.8757    2.9949 S   0  0  0  0  0  0  0  0  0  0  0  0
   17.8451  -22.8265    3.2769 C   0  0  0  0  0  0  0  0  0  0  0  0
   16.9855  -22.3839    2.1697 C   0  0  0  0  0  0  0  0  0  0  0  0
   15.5286  -22.3150    2.4373 C   0  0  2  0  0  0  0  0  0  0  0  0
   14.8791  -21.7145    1.2540 N   0  0  0  0  0  0  0  0  0  0  0  0
   15.1028  -21.5172    3.5747 C   0  0  0  0  0  0  0  0  0  0  0  0
   14.6265  -20.3481    3.3673 O   0  0  0  0  0  0  0  0  0  0  0  0
   15.1470  -21.8867    4.9026 O   0  0  0  0  0  0  0  0  0  0  0  0
  2  1  1  6
  2  5  1  0
  3  2  1  0
  4  3  1  0
  5  6  2  0
  5  7  1  0
  7  8  1  0
  8 19  1  0
  8  9  1  1
 10  9  1  0
 10 18  1  0
 11 10  2  0
 12 11  1  0
 12 13  1  0
 13 14  1  0
 13 18  2  0
 14 15  2  0
 15 16  1  0
 17 16  2  0
 18 17  1  0
 19 20  2  0
 22 21  1  0
 23 24  1  0
 23 22  1  0
 25 24  1  6
 25 27  1  0
 26 25  1  0
 26 19  1  0
 27 28  2  0
 27 29  1  0
M  END
$$$$
