PEP.pdb
     RDKit          3D

 24 25  0  0  1  0  0  0  0  0999 V2000
   32.9250  -15.0018  -21.2746 N   0  0  0  0  0  0  0  0  0  0  0  0
   33.8137  -14.0389  -21.8004 C   0  0  0  0  0  0  0  0  0  0  0  0
   34.6410  -13.5006  -20.6703 C   0  0  0  0  0  0  0  0  0  0  0  0
   34.2857  -14.3301  -19.4748 C   0  0  0  0  0  0  0  0  0  0  0  0
   32.9904  -14.9841  -19.8741 C   0  0  1  0  0  0  0  0  0  0  0  0
   31.8821  -14.2137  -19.2029 C   0  0  0  0  0  0  0  0  0  0  0  0
   31.9577  -13.9470  -17.9716 O   0  0  0  0  0  0  0  0  0  0  0  0
   30.7288  -13.7566  -19.8751 N   0  0  0  0  0  0  0  0  0  0  0  0
   29.6174  -13.0867  -19.3601 C   0  0  1  0  0  0  0  0  0  0  0  0
   29.0150  -12.0352  -20.3017 C   0  0  0  0  0  0  0  0  0  0  0  0
   29.9701  -10.9254  -20.6196 C   0  0  0  0  0  0  0  0  0  0  0  0
   29.3506   -9.9325  -21.5533 C   0  0  0  0  0  0  0  0  0  0  0  0
   29.3711  -10.0508  -22.7929 O   0  0  0  0  0  0  0  0  0  0  0  0
   28.5132  -13.7790  -18.7525 C   0  0  0  0  0  0  0  0  0  0  0  0
   27.9792  -14.6919  -19.4994 O   0  0  0  0  0  0  0  0  0  0  0  0
   28.7274   -8.8329  -20.9995 O   0  0  0  0  0  0  0  0  0  0  0  0
   27.9211  -13.6217  -17.4734 N   0  0  0  0  0  0  0  0  0  0  0  0
   28.4024  -12.7309  -16.4721 C   0  0  0  0  0  0  0  0  0  0  0  0
   27.2815  -12.6064  -15.4861 C   0  0  0  0  0  0  0  0  0  0  0  0
   26.3790  -13.7634  -15.7003 C   0  0  0  0  0  0  0  0  0  0  0  0
   26.8012  -14.3607  -17.0074 C   0  0  1  0  0  0  0  0  0  0  0  0
   25.6530  -14.2815  -17.9916 C   0  0  0  0  0  0  0  0  0  0  0  0
   24.6788  -15.2532  -18.0700 O   0  0  0  0  0  0  0  0  0  0  0  0
   25.5971  -13.2998  -18.7525 O   0  0  0  0  0  0  0  0  0  0  0  0
  1  2  1  0
  2  3  1  0
  4  3  1  0
  5  4  1  0
  5  1  1  0
  5  6  1  1
  6  7  2  0
  8  6  1  0
  8  9  1  0
  9 14  1  0
  9 10  1  6
 11 10  1  0
 12 16  1  0
 12 11  1  0
 13 12  2  0
 14 17  1  0
 14 15  2  0
 17 21  1  0
 18 17  1  0
 18 19  1  0
 19 20  1  0
 20 21  1  0
 21 22  1  6
 22 24  2  0
 22 23  1  0
M  END
$$$$
