PEP.pdb
     RDKit          3D

 24 25  0  0  1  0  0  0  0  0999 V2000
   22.2202  -18.4397  -17.9706 N   0  0  0  0  0  0  0  0  0  0  0  0
   20.9122  -18.8885  -17.6862 C   0  0  0  0  0  0  0  0  0  0  0  0
   20.5170  -18.3536  -16.3412 C   0  0  0  0  0  0  0  0  0  0  0  0
   21.6217  -17.4294  -15.9303 C   0  0  0  0  0  0  0  0  0  0  0  0
   22.7596  -17.8189  -16.8351 C   0  0  1  0  0  0  0  0  0  0  0  0
   23.6891  -18.6870  -16.0260 C   0  0  0  0  0  0  0  0  0  0  0  0
   23.4992  -19.9336  -15.9735 O   0  0  0  0  0  0  0  0  0  0  0  0
   24.7907  -18.1881  -15.2989 N   0  0  0  0  0  0  0  0  0  0  0  0
   25.6879  -18.8751  -14.4788 C   0  0  1  0  0  0  0  0  0  0  0  0
   27.0847  -18.2448  -14.3951 C   0  0  0  0  0  0  0  0  0  0  0  0
   28.0676  -18.8857  -15.3269 C   0  0  0  0  0  0  0  0  0  0  0  0
   27.7767  -18.5223  -16.7498 C   0  0  0  0  0  0  0  0  0  0  0  0
   27.5840  -17.3533  -17.1338 O   0  0  0  0  0  0  0  0  0  0  0  0
   25.3458  -19.3009  -13.1488 C   0  0  0  0  0  0  0  0  0  0  0  0
   24.8007  -18.3820  -12.4174 O   0  0  0  0  0  0  0  0  0  0  0  0
   27.7218  -19.5447  -17.6749 O   0  0  0  0  0  0  0  0  0  0  0  0
   25.5090  -20.5595  -12.5158 N   0  0  0  0  0  0  0  0  0  0  0  0
   26.0323  -21.7174  -13.1587 C   0  0  0  0  0  0  0  0  0  0  0  0
   26.3855  -22.6575  -12.0472 C   0  0  0  0  0  0  0  0  0  0  0  0
   25.6442  -22.2105  -10.8431 C   0  0  0  0  0  0  0  0  0  0  0  0
   25.1328  -20.8426  -11.1758 C   0  0  1  0  0  0  0  0  0  0  0  0
   25.7347  -19.8338  -10.2201 C   0  0  0  0  0  0  0  0  0  0  0  0
   26.9391  -19.2105  -10.4657 O   0  0  0  0  0  0  0  0  0  0  0  0
   25.1112  -19.5657   -9.1783 O   0  0  0  0  0  0  0  0  0  0  0  0
  1  2  1  0
  2  3  1  0
  4  3  1  0
  5  4  1  0
  5  1  1  0
  5  6  1  1
  6  7  2  0
  8  6  1  0
  8  9  1  0
  9 14  1  0
  9 10  1  1
 11 10  1  0
 12 16  1  0
 12 11  1  0
 13 12  2  0
 14 17  1  0
 14 15  2  0
 17 21  1  0
 18 17  1  0
 18 19  1  0
 19 20  1  0
 20 21  1  0
 21 22  1  1
 22 24  2  0
 22 23  1  0
M  END
$$$$
