PEP.pdb
     RDKit          3D

 24 25  0  0  1  0  0  0  0  0999 V2000
   27.2227  -20.4151  -14.0132 N   0  0  0  0  0  0  0  0  0  0  0  0
   28.4085  -19.7852  -14.4498 C   0  0  0  0  0  0  0  0  0  0  0  0
   29.5361  -20.2589  -13.5807 C   0  0  0  0  0  0  0  0  0  0  0  0
   28.9560  -21.3305  -12.7097 C   0  0  0  0  0  0  0  0  0  0  0  0
   27.4719  -21.1063  -12.8191 C   0  0  1  0  0  0  0  0  0  0  0  0
   27.0426  -20.3789  -11.5705 C   0  0  0  0  0  0  0  0  0  0  0  0
   26.9954  -19.1177  -11.5621 O   0  0  0  0  0  0  0  0  0  0  0  0
   26.6796  -21.0292  -10.3721 N   0  0  0  0  0  0  0  0  0  0  0  0
   26.2526  -20.4744   -9.1641 C   0  0  1  0  0  0  0  0  0  0  0  0
   24.7539  -20.6435   -8.8804 C   0  0  0  0  0  0  0  0  0  0  0  0
   23.8906  -20.1139   -9.9845 C   0  0  0  0  0  0  0  0  0  0  0  0
   22.4566  -20.4888   -9.7740 C   0  0  0  0  0  0  0  0  0  0  0  0
   21.8640  -20.3520   -8.6871 O   0  0  0  0  0  0  0  0  0  0  0  0
   26.9380  -20.7105   -7.9223 C   0  0  0  0  0  0  0  0  0  0  0  0
   26.8433  -21.9247   -7.4826 O   0  0  0  0  0  0  0  0  0  0  0  0
   21.7658  -21.0123  -10.8478 O   0  0  0  0  0  0  0  0  0  0  0  0
   27.6965  -19.8304   -7.1090 N   0  0  0  0  0  0  0  0  0  0  0  0
   27.9049  -18.4518   -7.3986 C   0  0  0  0  0  0  0  0  0  0  0  0
   28.3998  -17.8523   -6.1181 C   0  0  0  0  0  0  0  0  0  0  0  0
   28.8918  -18.9676   -5.2736 C   0  0  0  0  0  0  0  0  0  0  0  0
   28.3826  -20.2157   -5.9266 C   0  0  1  0  0  0  0  0  0  0  0  0
   27.4544  -20.9398   -4.9739 C   0  0  0  0  0  0  0  0  0  0  0  0
   27.9146  -21.6133   -3.8630 O   0  0  0  0  0  0  0  0  0  0  0  0
   26.2344  -20.9202   -5.2125 O   0  0  0  0  0  0  0  0  0  0  0  0
  1  2  1  0
  2  3  1  0
  4  3  1  0
  5  4  1  0
  5  1  1  0
  5  6  1  1
  6  7  2  0
  8  6  1  0
  8  9  1  0
  9 14  1  0
  9 10  1  1
 11 10  1  0
 12 16  1  0
 12 11  1  0
 13 12  2  0
 14 17  1  0
 14 15  2  0
 17 21  1  0
 18 17  1  0
 18 19  1  0
 19 20  1  0
 20 21  1  0
 21 22  1  1
 22 24  2  0
 22 23  1  0
M  END
$$$$
