PEP.pdb
     RDKit          3D

 24 25  0  0  1  0  0  0  0  0999 V2000
   27.4032  -21.0845  -13.5773 N   0  0  0  0  0  0  0  0  0  0  0  0
   28.4640  -20.3733  -14.1792 C   0  0  0  0  0  0  0  0  0  0  0  0
   29.6906  -20.5623  -13.3360 C   0  0  0  0  0  0  0  0  0  0  0  0
   29.3134  -21.5634  -12.2876 C   0  0  0  0  0  0  0  0  0  0  0  0
   27.8088  -21.5559  -12.3206 C   0  0  1  0  0  0  0  0  0  0  0  0
   27.3463  -20.7182  -11.1559 C   0  0  0  0  0  0  0  0  0  0  0  0
   27.2969  -19.4618  -11.2651 O   0  0  0  0  0  0  0  0  0  0  0  0
   26.9536  -21.2568   -9.9122 N   0  0  0  0  0  0  0  0  0  0  0  0
   26.5230  -20.5926   -8.7620 C   0  0  1  0  0  0  0  0  0  0  0  0
   25.0097  -20.6611   -8.5162 C   0  0  0  0  0  0  0  0  0  0  0  0
   24.2076  -20.3331   -9.7385 C   0  0  0  0  0  0  0  0  0  0  0  0
   22.7395  -20.3919   -9.4511 C   0  0  0  0  0  0  0  0  0  0  0  0
   22.1532  -21.4275   -9.0835 O   0  0  0  0  0  0  0  0  0  0  0  0
   27.1582  -20.7723   -7.4846 C   0  0  0  0  0  0  0  0  0  0  0  0
   26.9586  -21.9335   -6.9476 O   0  0  0  0  0  0  0  0  0  0  0  0
   22.0084  -19.2318   -9.6053 O   0  0  0  0  0  0  0  0  0  0  0  0
   27.9635  -19.8855   -6.7254 N   0  0  0  0  0  0  0  0  0  0  0  0
   28.3730  -18.5961   -7.1698 C   0  0  0  0  0  0  0  0  0  0  0  0
   28.8460  -17.8882   -5.9373 C   0  0  0  0  0  0  0  0  0  0  0  0
   29.1222  -18.9260   -4.9146 C   0  0  0  0  0  0  0  0  0  0  0  0
   28.5028  -20.1822   -5.4454 C   0  0  1  0  0  0  0  0  0  0  0  0
   27.4188  -20.6491   -4.4964 C   0  0  0  0  0  0  0  0  0  0  0  0
   27.7020  -21.2823   -3.3055 O   0  0  0  0  0  0  0  0  0  0  0  0
   26.2333  -20.4493   -4.8135 O   0  0  0  0  0  0  0  0  0  0  0  0
  1  2  1  0
  2  3  1  0
  4  3  1  0
  5  4  1  0
  5  1  1  0
  5  6  1  1
  6  7  2  0
  8  6  1  0
  8  9  1  0
  9 14  1  0
  9 10  1  1
 11 10  1  0
 12 16  1  0
 12 11  1  0
 13 12  2  0
 14 17  1  0
 14 15  2  0
 17 21  1  0
 18 17  1  0
 18 19  1  0
 19 20  1  0
 20 21  1  0
 21 22  1  1
 22 24  2  0
 22 23  1  0
M  END
$$$$
