PEP.pdb
     RDKit          3D

 24 25  0  0  1  0  0  0  0  0999 V2000
   24.0008  -12.3603  -15.7012 N   0  0  0  0  0  0  0  0  0  0  0  0
   23.1594  -13.4770  -15.5053 C   0  0  0  0  0  0  0  0  0  0  0  0
   22.4727  -13.7780  -16.8049 C   0  0  0  0  0  0  0  0  0  0  0  0
   23.0917  -12.8605  -17.8142 C   0  0  0  0  0  0  0  0  0  0  0  0
   23.7631  -11.8116  -16.9693 C   0  0  1  0  0  0  0  0  0  0  0  0
   22.8646  -10.6013  -16.9721 C   0  0  0  0  0  0  0  0  0  0  0  0
   22.6065  -10.0121  -18.0580 O   0  0  0  0  0  0  0  0  0  0  0  0
   22.2741  -10.0628  -15.8093 N   0  0  0  0  0  0  0  0  0  0  0  0
   21.4495   -8.9437  -15.6783 C   0  0  1  0  0  0  0  0  0  0  0  0
   20.0722   -9.2357  -15.0676 C   0  0  0  0  0  0  0  0  0  0  0  0
   19.1760   -9.9988  -15.9947 C   0  0  0  0  0  0  0  0  0  0  0  0
   17.8396  -10.2486  -15.3679 C   0  0  0  0  0  0  0  0  0  0  0  0
   17.5159   -9.8147  -14.2462 O   0  0  0  0  0  0  0  0  0  0  0  0
   21.9081   -7.7123  -15.0946 C   0  0  0  0  0  0  0  0  0  0  0  0
   22.4552   -7.8451  -13.9286 O   0  0  0  0  0  0  0  0  0  0  0  0
   16.9273  -11.0003  -16.0798 O   0  0  0  0  0  0  0  0  0  0  0  0
   21.8571   -6.3846  -15.5907 N   0  0  0  0  0  0  0  0  0  0  0  0
   21.3452   -6.0270  -16.8706 C   0  0  0  0  0  0  0  0  0  0  0  0
   21.1256   -4.5466  -16.8056 C   0  0  0  0  0  0  0  0  0  0  0  0
   21.9332   -4.0331  -15.6727 C   0  0  0  0  0  0  0  0  0  0  0  0
   22.3482   -5.2460  -14.8981 C   0  0  1  0  0  0  0  0  0  0  0  0
   21.7710   -5.1724  -13.5000 C   0  0  0  0  0  0  0  0  0  0  0  0
   22.3731   -4.4551  -12.4889 O   0  0  0  0  0  0  0  0  0  0  0  0
   20.7151   -5.7860  -13.2664 O   0  0  0  0  0  0  0  0  0  0  0  0
  1  2  1  0
  2  3  1  0
  4  3  1  0
  5  4  1  0
  5  1  1  0
  5  6  1  1
  6  7  2  0
  8  6  1  0
  8  9  1  0
  9 14  1  0
  9 10  1  1
 11 10  1  0
 12 16  1  0
 12 11  1  0
 13 12  2  0
 14 17  1  0
 14 15  2  0
 17 21  1  0
 18 17  1  0
 18 19  1  0
 19 20  1  0
 20 21  1  0
 21 22  1  1
 22 24  2  0
 22 23  1  0
M  END
$$$$
