PEP.pdb
     RDKit          3D

 24 25  0  0  1  0  0  0  0  0999 V2000
   27.2818  -21.3079  -15.4011 N   0  0  0  0  0  0  0  0  0  0  0  0
   26.5842  -20.9133  -16.5634 C   0  0  0  0  0  0  0  0  0  0  0  0
   26.8169  -19.4458  -16.7720 C   0  0  0  0  0  0  0  0  0  0  0  0
   27.8283  -19.0438  -15.7430 C   0  0  0  0  0  0  0  0  0  0  0  0
   27.7856  -20.1734  -14.7493 C   0  0  1  0  0  0  0  0  0  0  0  0
   26.9593  -19.7014  -13.5803 C   0  0  0  0  0  0  0  0  0  0  0  0
   27.2493  -18.6177  -13.0018 O   0  0  0  0  0  0  0  0  0  0  0  0
   25.8503  -20.4089  -13.0698 N   0  0  0  0  0  0  0  0  0  0  0  0
   25.0431  -20.1065  -11.9715 C   0  0  1  0  0  0  0  0  0  0  0  0
   23.5468  -19.9931  -12.2931 C   0  0  0  0  0  0  0  0  0  0  0  0
   23.2648  -19.0423  -13.4162 C   0  0  0  0  0  0  0  0  0  0  0  0
   22.6449  -19.7516  -14.5797 C   0  0  0  0  0  0  0  0  0  0  0  0
   23.0837  -19.6755  -15.7428 O   0  0  0  0  0  0  0  0  0  0  0  0
   25.1455  -20.8110  -10.7223 C   0  0  0  0  0  0  0  0  0  0  0  0
   24.7259  -22.0352  -10.7636 O   0  0  0  0  0  0  0  0  0  0  0  0
   21.5294  -20.5273  -14.3383 O   0  0  0  0  0  0  0  0  0  0  0  0
   25.6306  -20.3806   -9.4610 N   0  0  0  0  0  0  0  0  0  0  0  0
   26.2703  -19.1288   -9.2336 C   0  0  0  0  0  0  0  0  0  0  0  0
   26.2483  -18.9410   -7.7476 C   0  0  0  0  0  0  0  0  0  0  0  0
   26.0158  -20.2741   -7.1410 C   0  0  0  0  0  0  0  0  0  0  0  0
   25.5828  -21.1557   -8.2718 C   0  0  1  0  0  0  0  0  0  0  0  0
   24.1785  -21.6582   -8.0094 C   0  0  0  0  0  0  0  0  0  0  0  0
   23.9075  -22.6456   -7.0869 O   0  0  0  0  0  0  0  0  0  0  0  0
   23.2433  -21.1550   -8.6559 O   0  0  0  0  0  0  0  0  0  0  0  0
  1  2  1  0
  2  3  1  0
  4  3  1  0
  5  4  1  0
  5  1  1  0
  5  6  1  1
  6  7  2  0
  8  6  1  0
  8  9  1  0
  9 14  1  0
  9 10  1  6
 11 10  1  0
 12 16  1  0
 12 11  1  0
 13 12  2  0
 14 17  1  0
 14 15  2  0
 17 21  1  0
 18 17  1  0
 18 19  1  0
 19 20  1  0
 20 21  1  0
 21 22  1  1
 22 24  2  0
 22 23  1  0
M  END
$$$$
