PEP.pdb
     RDKit          3D

 24 25  0  0  1  0  0  0  0  0999 V2000
   19.7869  -11.5945  -15.8306 N   0  0  0  0  0  0  0  0  0  0  0  0
   18.9660  -12.7421  -15.7817 C   0  0  0  0  0  0  0  0  0  0  0  0
   17.5476  -12.3119  -16.0148 C   0  0  0  0  0  0  0  0  0  0  0  0
   17.6157  -10.8567  -16.3627 C   0  0  0  0  0  0  0  0  0  0  0  0
   18.9841  -10.4465  -15.8890 C   0  0  1  0  0  0  0  0  0  0  0  0
   18.8009   -9.7399  -14.5702 C   0  0  0  0  0  0  0  0  0  0  0  0
   18.4825  -10.3993  -13.5422 O   0  0  0  0  0  0  0  0  0  0  0  0
   18.9641   -8.3488  -14.3988 N   0  0  0  0  0  0  0  0  0  0  0  0
   18.8030   -7.5794  -13.2449 C   0  0  1  0  0  0  0  0  0  0  0  0
   19.6581   -6.3056  -13.2046 C   0  0  0  0  0  0  0  0  0  0  0  0
   21.1284   -6.5921  -13.2375 C   0  0  0  0  0  0  0  0  0  0  0  0
   21.9258   -5.3325  -13.1004 C   0  0  0  0  0  0  0  0  0  0  0  0
   22.5108   -4.7835  -14.0532 O   0  0  0  0  0  0  0  0  0  0  0  0
   17.5085   -7.2251  -12.7290 C   0  0  0  0  0  0  0  0  0  0  0  0
   16.7039   -6.7179  -13.6075 O   0  0  0  0  0  0  0  0  0  0  0  0
   22.0098   -4.7592  -11.8480 O   0  0  0  0  0  0  0  0  0  0  0  0
   16.9769   -7.3431  -11.4194 N   0  0  0  0  0  0  0  0  0  0  0  0
   17.6811   -7.9055  -10.3168 C   0  0  0  0  0  0  0  0  0  0  0  0
   16.9193   -7.4717   -9.1022 C   0  0  0  0  0  0  0  0  0  0  0  0
   15.5664   -7.0669   -9.5549 C   0  0  0  0  0  0  0  0  0  0  0  0
   15.6618   -6.9583  -11.0458 C   0  0  1  0  0  0  0  0  0  0  0  0
   15.3752   -5.5320  -11.4662 C   0  0  0  0  0  0  0  0  0  0  0  0
   14.0937   -5.0592  -11.6501 O   0  0  0  0  0  0  0  0  0  0  0  0
   16.3387   -4.7680  -11.6501 O   0  0  0  0  0  0  0  0  0  0  0  0
  1  2  1  0
  2  3  1  0
  4  3  1  0
  5  4  1  0
  5  1  1  0
  5  6  1  1
  6  7  2  0
  8  6  1  0
  8  9  1  0
  9 14  1  0
  9 10  1  6
 11 10  1  0
 12 16  1  0
 12 11  1  0
 13 12  2  0
 14 17  1  0
 14 15  2  0
 17 21  1  0
 18 17  1  0
 18 19  1  0
 19 20  1  0
 20 21  1  0
 21 22  1  1
 22 24  2  0
 22 23  1  0
M  END
$$$$
