PEP.pdb
     RDKit          3D

 24 25  0  0  1  0  0  0  0  0999 V2000
   39.8143  -25.6472    4.3653 N   0  0  0  0  0  0  0  0  0  0  0  0
   40.5194  -24.6149    3.7091 C   0  0  0  0  0  0  0  0  0  0  0  0
   40.5742  -23.4298    4.6276 C   0  0  0  0  0  0  0  0  0  0  0  0
   39.9926  -23.8950    5.9272 C   0  0  0  0  0  0  0  0  0  0  0  0
   39.2544  -25.1515    5.5512 C   0  0  1  0  0  0  0  0  0  0  0  0
   37.7936  -24.7926    5.4545 C   0  0  0  0  0  0  0  0  0  0  0  0
   37.3099  -24.4169    4.3509 O   0  0  0  0  0  0  0  0  0  0  0  0
   36.9007  -24.8474    6.5457 N   0  0  0  0  0  0  0  0  0  0  0  0
   35.5105  -24.7178    6.5528 C   0  0  1  0  0  0  0  0  0  0  0  0
   34.7723  -25.8197    7.3248 C   0  0  0  0  0  0  0  0  0  0  0  0
   33.2822  -25.6849    7.2464 C   0  0  0  0  0  0  0  0  0  0  0  0
   32.6019  -26.7575    8.0390 C   0  0  0  0  0  0  0  0  0  0  0  0
   32.4604  -27.9261    7.6322 O   0  0  0  0  0  0  0  0  0  0  0  0
   34.8534  -23.4790    6.8702 C   0  0  0  0  0  0  0  0  0  0  0  0
   35.1492  -23.0011    8.0367 O   0  0  0  0  0  0  0  0  0  0  0  0
   32.1100  -26.4215    9.2838 O   0  0  0  0  0  0  0  0  0  0  0  0
   33.9394  -22.7026    6.1130 N   0  0  0  0  0  0  0  0  0  0  0  0
   33.4862  -23.0464    4.8075 C   0  0  0  0  0  0  0  0  0  0  0  0
   32.2783  -22.1918    4.5738 C   0  0  0  0  0  0  0  0  0  0  0  0
   32.3392  -21.0722    5.5444 C   0  0  0  0  0  0  0  0  0  0  0  0
   33.3915  -21.4624    6.5363 C   0  0  1  0  0  0  0  0  0  0  0  0
   32.7670  -21.5874    7.9102 C   0  0  0  0  0  0  0  0  0  0  0  0
   32.2189  -22.7661    8.3682 O   0  0  0  0  0  0  0  0  0  0  0  0
   32.7529  -20.5835    8.6435 O   0  0  0  0  0  0  0  0  0  0  0  0
  1  2  1  0
  2  3  1  0
  4  3  1  0
  5  4  1  0
  5  1  1  0
  5  6  1  6
  6  7  2  0
  8  6  1  0
  8  9  1  0
  9 14  1  0
  9 10  1  1
 11 10  1  0
 12 16  1  0
 12 11  1  0
 13 12  2  0
 14 17  1  0
 14 15  2  0
 17 21  1  0
 18 17  1  0
 18 19  1  0
 19 20  1  0
 20 21  1  0
 21 22  1  1
 22 24  2  0
 22 23  1  0
M  END
$$$$
