PEP.pdb
     RDKit          3D

 24 25  0  0  1  0  0  0  0  0999 V2000
   16.3879  -15.0476    3.6712 N   0  0  0  0  0  0  0  0  0  0  0  0
   16.5331  -13.6504    3.8126 C   0  0  0  0  0  0  0  0  0  0  0  0
   17.9413  -13.3688    4.2472 C   0  0  0  0  0  0  0  0  0  0  0  0
   18.6542  -14.6850    4.1947 C   0  0  0  0  0  0  0  0  0  0  0  0
   17.5340  -15.6895    4.1613 C   0  0  1  0  0  0  0  0  0  0  0  0
   17.3961  -16.2431    5.5566 C   0  0  0  0  0  0  0  0  0  0  0  0
   16.2516  -16.5075    6.0181 O   0  0  0  0  0  0  0  0  0  0  0  0
   18.4911  -16.4929    6.4108 N   0  0  0  0  0  0  0  0  0  0  0  0
   18.7190  -17.5821    7.2539 C   0  0  1  0  0  0  0  0  0  0  0  0
   18.4250  -18.9492    6.6215 C   0  0  0  0  0  0  0  0  0  0  0  0
   16.9704  -19.3062    6.6606 C   0  0  0  0  0  0  0  0  0  0  0  0
   16.7319  -20.6598    6.0671 C   0  0  0  0  0  0  0  0  0  0  0  0
   17.6354  -21.4968    5.8819 O   0  0  0  0  0  0  0  0  0  0  0  0
   19.9316  -17.7294    8.0125 C   0  0  0  0  0  0  0  0  0  0  0  0
   20.9372  -18.1766    7.3305 O   0  0  0  0  0  0  0  0  0  0  0  0
   15.4392  -20.9854    5.7104 O   0  0  0  0  0  0  0  0  0  0  0  0
   20.1988  -17.4635    9.3798 N   0  0  0  0  0  0  0  0  0  0  0  0
   19.2458  -16.9286   10.2928 C   0  0  0  0  0  0  0  0  0  0  0  0
   19.8184  -17.1854   11.6530 C   0  0  0  0  0  0  0  0  0  0  0  0
   21.2685  -17.4411   11.4767 C   0  0  0  0  0  0  0  0  0  0  0  0
   21.4593  -17.6530   10.0063 C   0  0  1  0  0  0  0  0  0  0  0  0
   21.9795  -19.0543    9.7628 C   0  0  0  0  0  0  0  0  0  0  0  0
   23.3056  -19.3897    9.9309 O   0  0  0  0  0  0  0  0  0  0  0  0
   21.1720  -19.9263    9.3974 O   0  0  0  0  0  0  0  0  0  0  0  0
  1  2  1  0
  2  3  1  0
  4  3  1  0
  5  4  1  0
  5  1  1  0
  5  6  1  1
  6  7  2  0
  8  6  1  0
  8  9  1  0
  9 14  1  0
  9 10  1  6
 11 10  1  0
 12 16  1  0
 12 11  1  0
 13 12  2  0
 14 17  1  0
 14 15  2  0
 17 21  1  0
 18 17  1  0
 18 19  1  0
 19 20  1  0
 20 21  1  0
 21 22  1  1
 22 24  2  0
 22 23  1  0
M  END
$$$$
