PEP.pdb
     RDKit          3D

 24 25  0  0  1  0  0  0  0  0999 V2000
   38.5431  -28.0291    3.5095 N   0  0  0  0  0  0  0  0  0  0  0  0
   38.9765  -27.5720    2.2459 C   0  0  0  0  0  0  0  0  0  0  0  0
   39.3150  -26.1153    2.3671 C   0  0  0  0  0  0  0  0  0  0  0  0
   39.2027  -25.7915    3.8252 C   0  0  0  0  0  0  0  0  0  0  0  0
   38.3999  -26.9380    4.3784 C   0  0  1  0  0  0  0  0  0  0  0  0
   36.9843  -26.4467    4.5423 C   0  0  0  0  0  0  0  0  0  0  0  0
   36.1460  -26.6232    3.6155 O   0  0  0  0  0  0  0  0  0  0  0  0
   36.5159  -25.7809    5.6948 N   0  0  0  0  0  0  0  0  0  0  0  0
   35.2170  -25.3790    6.0123 C   0  0  1  0  0  0  0  0  0  0  0  0
   34.5294  -26.2361    7.0836 C   0  0  0  0  0  0  0  0  0  0  0  0
   34.2006  -27.6157    6.6005 C   0  0  0  0  0  0  0  0  0  0  0  0
   33.4259  -28.3770    7.6308 C   0  0  0  0  0  0  0  0  0  0  0  0
   33.0450  -27.8810    8.7079 O   0  0  0  0  0  0  0  0  0  0  0  0
   34.8820  -24.0105    6.2994 C   0  0  0  0  0  0  0  0  0  0  0  0
   35.6166  -23.4612    7.2132 O   0  0  0  0  0  0  0  0  0  0  0  0
   33.1242  -29.6964    7.3617 O   0  0  0  0  0  0  0  0  0  0  0  0
   33.8816  -23.1728    5.7436 N   0  0  0  0  0  0  0  0  0  0  0  0
   33.0156  -23.5566    4.6803 C   0  0  0  0  0  0  0  0  0  0  0  0
   31.9058  -22.5505    4.6957 C   0  0  0  0  0  0  0  0  0  0  0  0
   32.3927  -21.3725    5.4536 C   0  0  0  0  0  0  0  0  0  0  0  0
   33.6415  -21.8308    6.1420 C   0  0  1  0  0  0  0  0  0  0  0  0
   33.4532  -21.7369    7.6417 C   0  0  0  0  0  0  0  0  0  0  0  0
   33.7372  -20.5902    8.3516 O   0  0  0  0  0  0  0  0  0  0  0  0
   33.0268  -22.7370    8.2448 O   0  0  0  0  0  0  0  0  0  0  0  0
  1  2  1  0
  2  3  1  0
  4  3  1  0
  5  4  1  0
  5  1  1  0
  5  6  1  6
  6  7  2  0
  8  6  1  0
  8  9  1  0
  9 14  1  0
  9 10  1  1
 11 10  1  0
 12 16  1  0
 12 11  1  0
 13 12  2  0
 14 17  1  0
 14 15  2  0
 17 21  1  0
 18 17  1  0
 18 19  1  0
 19 20  1  0
 20 21  1  0
 21 22  1  1
 22 24  2  0
 22 23  1  0
M  END
$$$$
