PEP.pdb
     RDKit          3D

 24 25  0  0  1  0  0  0  0  0999 V2000
   27.7283  -19.5564  -17.4476 N   0  0  0  0  0  0  0  0  0  0  0  0
   28.1273  -18.3580  -18.0785 C   0  0  0  0  0  0  0  0  0  0  0  0
   28.9401  -17.5631  -17.0994 C   0  0  0  0  0  0  0  0  0  0  0  0
   29.1237  -18.4511  -15.9072 C   0  0  0  0  0  0  0  0  0  0  0  0
   28.0629  -19.5034  -16.0871 C   0  0  1  0  0  0  0  0  0  0  0  0
   26.9210  -19.1393  -15.1728 C   0  0  0  0  0  0  0  0  0  0  0  0
   27.1045  -18.3149  -14.2350 O   0  0  0  0  0  0  0  0  0  0  0  0
   25.6207  -19.6734  -15.2945 N   0  0  0  0  0  0  0  0  0  0  0  0
   24.5221  -19.5169  -14.4472 C   0  0  1  0  0  0  0  0  0  0  0  0
   23.2102  -19.1684  -15.1633 C   0  0  0  0  0  0  0  0  0  0  0  0
   22.1162  -18.7820  -14.2154 C   0  0  0  0  0  0  0  0  0  0  0  0
   20.8174  -18.5999  -14.9372 C   0  0  0  0  0  0  0  0  0  0  0  0
   19.7470  -18.3216  -14.3643 O   0  0  0  0  0  0  0  0  0  0  0  0
   24.1941  -20.4740  -13.4255 C   0  0  0  0  0  0  0  0  0  0  0  0
   23.4976  -21.4827  -13.8424 O   0  0  0  0  0  0  0  0  0  0  0  0
   20.8188  -18.7509  -16.3089 O   0  0  0  0  0  0  0  0  0  0  0  0
   24.5110  -20.4883  -12.0431 N   0  0  0  0  0  0  0  0  0  0  0  0
   25.3439  -19.5271  -11.4025 C   0  0  0  0  0  0  0  0  0  0  0  0
   25.0810  -19.6947   -9.9373 C   0  0  0  0  0  0  0  0  0  0  0  0
   24.4639  -21.0305   -9.7528 C   0  0  0  0  0  0  0  0  0  0  0  0
   24.0778  -21.4836  -11.1272 C   0  0  1  0  0  0  0  0  0  0  0  0
   22.5757  -21.6640  -11.1945 C   0  0  0  0  0  0  0  0  0  0  0  0
   21.7393  -20.7049  -11.7237 O   0  0  0  0  0  0  0  0  0  0  0  0
   22.0897  -22.7198  -10.7528 O   0  0  0  0  0  0  0  0  0  0  0  0
  1  2  1  0
  2  3  1  0
  4  3  1  0
  5  4  1  0
  5  1  1  0
  5  6  1  1
  6  7  2  0
  8  6  1  0
  8  9  1  0
  9 14  1  0
  9 10  1  6
 11 10  1  0
 12 16  1  0
 12 11  1  0
 13 12  2  0
 14 17  1  0
 14 15  2  0
 17 21  1  0
 18 17  1  0
 18 19  1  0
 19 20  1  0
 20 21  1  0
 21 22  1  1
 22 24  2  0
 22 23  1  0
M  END
$$$$
