VSI.pdb
     RDKit          3D

 22 21  0  0  1  0  0  0  0  0999 V2000
   14.7454  -10.4313  -14.7496 C   0  0  0  0  0  0  0  0  0  0  0  0
   15.4473  -10.6898  -16.0692 C   0  0  2  0  0  0  0  0  0  0  0  0
   15.0636  -12.0152  -16.6452 C   0  0  0  0  0  0  0  0  0  0  0  0
   16.9481  -10.5621  -15.9330 C   0  0  2  0  0  0  0  0  0  0  0  0
   17.5170  -11.5269  -15.0486 N   0  0  0  0  0  0  0  0  0  0  0  0
   17.2393   -9.2035  -15.4195 C   0  0  0  0  0  0  0  0  0  0  0  0
   16.8645   -8.1868  -16.0404 O   0  0  0  0  0  0  0  0  0  0  0  0
   18.6574   -8.5393  -11.5194 O   0  0  0  0  0  0  0  0  0  0  0  0
   17.9288   -7.5793  -12.2106 C   0  0  0  0  0  0  0  0  0  0  0  0
   18.1853   -7.7138  -13.6819 C   0  0  2  0  0  0  0  0  0  0  0  0
   17.9482   -9.0046  -14.2144 N   0  0  0  0  0  0  0  0  0  0  0  0
   19.5400   -7.2613  -14.0526 C   0  0  0  0  0  0  0  0  0  0  0  0
   20.4545   -8.0963  -14.2276 O   0  0  0  0  0  0  0  0  0  0  0  0
   20.1210   -3.9676  -17.9614 C   0  0  0  0  0  0  0  0  0  0  0  0
   20.3863   -5.0091  -16.8924 C   0  0  0  0  0  0  0  0  0  0  0  0
   21.0289   -4.3986  -15.6709 C   0  0  2  0  0  0  0  0  0  0  0  0
   22.3567   -3.7733  -15.9467 C   0  0  0  0  0  0  0  0  0  0  0  0
   21.1473   -5.4164  -14.5729 C   0  0  2  0  0  0  0  0  0  0  0  0
   19.8315   -5.8874  -14.2165 N   0  0  0  0  0  0  0  0  0  0  0  0
   21.8291   -4.8622  -13.3705 C   0  0  0  0  0  0  0  0  0  0  0  0
   21.2092   -4.2142  -12.4915 O   0  0  0  0  0  0  0  0  0  0  0  0
   23.1920   -5.0525  -13.1898 O   0  0  0  0  0  0  0  0  0  0  0  0
  2  1  1  1
  3  2  1  0
  4  2  1  0
  4  5  1  1
  6  4  1  0
  6  7  2  0
  8  9  1  0
 10  9  1  1
 10 11  1  0
 10 12  1  0
 11  6  1  0
 12 13  2  0
 12 19  1  0
 14 15  1  0
 16 17  1  6
 16 15  1  0
 18 16  1  0
 18 19  1  1
 20 22  1  0
 20 18  1  0
 21 20  2  0
M  END
$$$$
