VSI.pdb
     RDKit          3D

 22 21  0  0  1  0  0  0  0  0999 V2000
   21.4652  -18.6851  -14.4552 C   0  0  0  0  0  0  0  0  0  0  0  0
   21.8439  -18.0731  -15.7905 C   0  0  2  0  0  0  0  0  0  0  0  0
   20.7289  -17.2516  -16.3542 C   0  0  0  0  0  0  0  0  0  0  0  0
   22.3028  -19.1271  -16.7730 C   0  0  2  0  0  0  0  0  0  0  0  0
   21.2547  -20.0002  -17.1923 N   0  0  0  0  0  0  0  0  0  0  0  0
   23.3631  -19.9247  -16.1146 C   0  0  0  0  0  0  0  0  0  0  0  0
   23.0821  -20.9405  -15.4446 O   0  0  0  0  0  0  0  0  0  0  0  0
   27.5067  -18.8710  -16.2307 O   0  0  0  0  0  0  0  0  0  0  0  0
   27.1035  -20.1996  -16.1808 C   0  0  0  0  0  0  0  0  0  0  0  0
   25.7464  -20.2916  -15.5496 C   0  0  2  0  0  0  0  0  0  0  0  0
   24.7264  -19.5708  -16.2175 N   0  0  0  0  0  0  0  0  0  0  0  0
   25.7715  -19.9162  -14.1228 C   0  0  0  0  0  0  0  0  0  0  0  0
   25.1463  -18.9073  -13.7283 O   0  0  0  0  0  0  0  0  0  0  0  0
   22.8049  -20.3750  -11.1367 C   0  0  0  0  0  0  0  0  0  0  0  0
   24.1279  -19.9490  -11.7418 C   0  0  0  0  0  0  0  0  0  0  0  0
   25.2881  -20.6733  -11.1039 C   0  0  2  0  0  0  0  0  0  0  0  0
   25.3970  -20.4427   -9.6324 C   0  0  0  0  0  0  0  0  0  0  0  0
   26.5756  -20.3118  -11.7873 C   0  0  2  0  0  0  0  0  0  0  0  0
   26.4956  -20.6808  -13.1793 N   0  0  0  0  0  0  0  0  0  0  0  0
   27.7483  -20.9765  -11.1543 C   0  0  0  0  0  0  0  0  0  0  0  0
   28.1070  -22.1379  -11.4691 O   0  0  0  0  0  0  0  0  0  0  0  0
   28.4865  -20.3150  -10.1827 O   0  0  0  0  0  0  0  0  0  0  0  0
  2  1  1  1
  3  2  1  0
  4  2  1  0
  4  5  1  1
  6  4  1  0
  6  7  2  0
  8  9  1  0
 10  9  1  6
 10 11  1  0
 10 12  1  0
 11  6  1  0
 12 13  2  0
 12 19  1  0
 14 15  1  0
 16 17  1  1
 16 15  1  0
 18 16  1  0
 18 19  1  6
 20 22  1  0
 20 18  1  0
 21 20  2  0
M  END
$$$$
