VSI.pdb
     RDKit          3D

 22 21  0  0  1  0  0  0  0  0999 V2000
   28.2377  -19.0751  -13.7099 C   0  0  0  0  0  0  0  0  0  0  0  0
   27.7905  -20.5234  -13.7684 C   0  0  2  0  0  0  0  0  0  0  0  0
   28.2680  -21.1959  -15.0156 C   0  0  0  0  0  0  0  0  0  0  0  0
   26.2910  -20.6470  -13.6154 C   0  0  2  0  0  0  0  0  0  0  0  0
   25.5644  -20.0397  -14.6830 N   0  0  0  0  0  0  0  0  0  0  0  0
   25.9135  -19.9947  -12.3402 C   0  0  0  0  0  0  0  0  0  0  0  0
   25.5075  -18.8139  -12.3168 O   0  0  0  0  0  0  0  0  0  0  0  0
   23.5632  -21.2030   -9.8525 O   0  0  0  0  0  0  0  0  0  0  0  0
   24.1596  -19.9671   -9.6354 C   0  0  0  0  0  0  0  0  0  0  0  0
   25.6355  -20.0691   -9.8804 C   0  0  2  0  0  0  0  0  0  0  0  0
   25.9971  -20.6779  -11.1070 N   0  0  0  0  0  0  0  0  0  0  0  0
   26.3382  -20.7338   -8.7661 C   0  0  0  0  0  0  0  0  0  0  0  0
   26.6210  -21.9500   -8.8390 O   0  0  0  0  0  0  0  0  0  0  0  0
   29.4096  -17.8536   -5.2349 C   0  0  0  0  0  0  0  0  0  0  0  0
   28.8443  -18.9447   -6.1226 C   0  0  0  0  0  0  0  0  0  0  0  0
   27.7079  -19.6743   -5.4489 C   0  0  2  0  0  0  0  0  0  0  0  0
   28.0987  -20.3276   -4.1642 C   0  0  0  0  0  0  0  0  0  0  0  0
   27.0989  -20.6797   -6.3837 C   0  0  2  0  0  0  0  0  0  0  0  0
   26.7037  -20.0181   -7.6027 N   0  0  0  0  0  0  0  0  0  0  0  0
   25.9245  -21.3652   -5.7765 C   0  0  0  0  0  0  0  0  0  0  0  0
   24.7740  -20.8625   -5.7981 O   0  0  0  0  0  0  0  0  0  0  0  0
   26.0770  -22.5996   -5.1607 O   0  0  0  0  0  0  0  0  0  0  0  0
  2  1  1  6
  3  2  1  0
  4  2  1  0
  4  5  1  6
  6  4  1  0
  6  7  2  0
  8  9  1  0
 10  9  1  1
 10 11  1  0
 10 12  1  0
 11  6  1  0
 12 13  2  0
 12 19  1  0
 14 15  1  0
 16 17  1  1
 16 15  1  0
 18 16  1  0
 18 19  1  6
 20 22  1  0
 20 18  1  0
 21 20  2  0
M  END
$$$$
