VSI.pdb
     RDKit          3D

 22 21  0  0  1  0  0  0  0  0999 V2000
   23.9837  -12.6936  -16.3849 C   0  0  0  0  0  0  0  0  0  0  0  0
   22.8548  -13.3760  -15.6360 C   0  0  2  0  0  0  0  0  0  0  0  0
   23.2719  -14.7133  -15.1130 C   0  0  0  0  0  0  0  0  0  0  0  0
   21.6092  -13.4815  -16.4871 C   0  0  2  0  0  0  0  0  0  0  0  0
   21.7623  -14.3586  -17.6025 N   0  0  0  0  0  0  0  0  0  0  0  0
   21.2850  -12.1229  -16.9805 C   0  0  0  0  0  0  0  0  0  0  0  0
   21.6122  -11.7605  -18.1300 O   0  0  0  0  0  0  0  0  0  0  0  0
   18.1720   -9.7884  -15.6218 O   0  0  0  0  0  0  0  0  0  0  0  0
   18.8547   -9.5743  -16.8128 C   0  0  0  0  0  0  0  0  0  0  0  0
   20.3113   -9.8745  -16.6203 C   0  0  2  0  0  0  0  0  0  0  0  0
   20.5971  -11.1885  -16.1756 N   0  0  0  0  0  0  0  0  0  0  0  0
   20.9676   -8.8933  -15.7350 C   0  0  0  0  0  0  0  0  0  0  0  0
   21.2440   -9.1998  -14.5543 O   0  0  0  0  0  0  0  0  0  0  0  0
   25.0695   -6.2546  -17.4669 C   0  0  0  0  0  0  0  0  0  0  0  0
   24.0048   -6.9185  -16.6165 C   0  0  0  0  0  0  0  0  0  0  0  0
   23.0051   -5.9147  -16.0962 C   0  0  2  0  0  0  0  0  0  0  0  0
   23.6189   -4.8454  -15.2537 C   0  0  0  0  0  0  0  0  0  0  0  0
   21.9050   -6.6072  -15.3441 C   0  0  2  0  0  0  0  0  0  0  0  0
   21.2955   -7.5977  -16.1970 N   0  0  0  0  0  0  0  0  0  0  0  0
   20.8713   -5.6497  -14.8618 C   0  0  0  0  0  0  0  0  0  0  0  0
   19.9521   -5.2293  -15.6069 O   0  0  0  0  0  0  0  0  0  0  0  0
   20.9002   -5.1908  -13.5523 O   0  0  0  0  0  0  0  0  0  0  0  0
  2  1  1  6
  3  2  1  0
  4  2  1  0
  4  5  1  6
  6  4  1  0
  6  7  2  0
  8  9  1  0
 10  9  1  1
 10 11  1  0
 10 12  1  0
 11  6  1  0
 12 13  2  0
 12 19  1  0
 14 15  1  0
 16 17  1  1
 16 15  1  0
 18 16  1  0
 18 19  1  6
 20 22  1  0
 20 18  1  0
 21 20  2  0
M  END
$$$$
