VSI.pdb
     RDKit          3D

 22 21  0  0  1  0  0  0  0  0999 V2000
   16.4141  -14.6152  -19.8877 C   0  0  0  0  0  0  0  0  0  0  0  0
   16.7433  -13.4520  -18.9715 C   0  0  2  0  0  0  0  0  0  0  0  0
   16.5618  -12.1391  -19.6637 C   0  0  0  0  0  0  0  0  0  0  0  0
   18.1333  -13.5807  -18.3899 C   0  0  2  0  0  0  0  0  0  0  0  0
   18.3127  -14.7672  -17.6175 N   0  0  0  0  0  0  0  0  0  0  0  0
   18.3710  -12.4005  -17.5268 C   0  0  0  0  0  0  0  0  0  0  0  0
   17.7957  -12.2829  -16.4246 O   0  0  0  0  0  0  0  0  0  0  0  0
   21.5997   -9.8234  -18.1168 O   0  0  0  0  0  0  0  0  0  0  0  0
   20.9740   -9.9456  -16.8823 C   0  0  0  0  0  0  0  0  0  0  0  0
   19.5197  -10.2520  -17.0820 C   0  0  2  0  0  0  0  0  0  0  0  0
   19.2524  -11.3671  -17.9134 N   0  0  0  0  0  0  0  0  0  0  0  0
   18.7663   -9.0779  -17.5631 C   0  0  0  0  0  0  0  0  0  0  0  0
   18.4032   -9.0119  -18.7581 O   0  0  0  0  0  0  0  0  0  0  0  0
   14.0240   -5.9203  -17.0573 C   0  0  0  0  0  0  0  0  0  0  0  0
   15.5206   -5.7362  -17.2130 C   0  0  0  0  0  0  0  0  0  0  0  0
   16.2764   -6.9814  -16.8182 C   0  0  2  0  0  0  0  0  0  0  0  0
   16.0963   -7.3573  -15.3842 C   0  0  0  0  0  0  0  0  0  0  0  0
   17.7357   -6.8377  -17.1427 C   0  0  2  0  0  0  0  0  0  0  0  0
   18.4414   -8.0121  -16.6925 N   0  0  0  0  0  0  0  0  0  0  0  0
   18.3280   -5.6217  -16.5196 C   0  0  0  0  0  0  0  0  0  0  0  0
   18.9818   -5.6720  -15.4487 O   0  0  0  0  0  0  0  0  0  0  0  0
   18.1682   -4.3803  -17.1194 O   0  0  0  0  0  0  0  0  0  0  0  0
  2  1  1  6
  3  2  1  0
  4  2  1  0
  4  5  1  1
  6  4  1  0
  6  7  2  0
  8  9  1  0
 10  9  1  6
 10 11  1  0
 10 12  1  0
 11  6  1  0
 12 13  2  0
 12 19  1  0
 14 15  1  0
 16 17  1  1
 16 15  1  0
 18 16  1  0
 18 19  1  1
 20 22  1  0
 20 18  1  0
 21 20  2  0
M  END
$$$$
