VSI.pdb
     RDKit          3D

 22 21  0  0  1  0  0  0  0  0999 V2000
   15.8150  -14.1242  -16.9121 C   0  0  0  0  0  0  0  0  0  0  0  0
   16.0075  -13.7837  -18.3777 C   0  0  2  0  0  0  0  0  0  0  0  0
   16.1208  -15.0155  -19.2177 C   0  0  0  0  0  0  0  0  0  0  0  0
   17.1922  -12.8663  -18.5826 C   0  0  2  0  0  0  0  0  0  0  0  0
   18.4311  -13.4482  -18.1783 N   0  0  0  0  0  0  0  0  0  0  0  0
   16.9526  -11.6381  -17.7900 C   0  0  0  0  0  0  0  0  0  0  0  0
   15.9214  -10.9541  -17.9588 O   0  0  0  0  0  0  0  0  0  0  0  0
   19.6981  -10.3181  -14.8947 O   0  0  0  0  0  0  0  0  0  0  0  0
   18.3512  -10.0386  -14.6993 C   0  0  0  0  0  0  0  0  0  0  0  0
   17.6374  -10.0491  -16.0181 C   0  0  2  0  0  0  0  0  0  0  0  0
   17.8751  -11.1939  -16.8173 N   0  0  0  0  0  0  0  0  0  0  0  0
   17.9030   -8.8279  -16.8025 C   0  0  0  0  0  0  0  0  0  0  0  0
   18.7090   -8.8590  -17.7584 O   0  0  0  0  0  0  0  0  0  0  0  0
   13.9555   -6.0322  -18.5276 C   0  0  0  0  0  0  0  0  0  0  0  0
   15.3381   -6.6254  -18.3416 C   0  0  0  0  0  0  0  0  0  0  0  0
   16.2324   -5.7077  -17.5442 C   0  0  2  0  0  0  0  0  0  0  0  0
   16.4868   -4.3965  -18.2122 C   0  0  0  0  0  0  0  0  0  0  0  0
   17.5300   -6.3893  -17.2171 C   0  0  2  0  0  0  0  0  0  0  0  0
   17.2589   -7.6075  -16.4941 N   0  0  0  0  0  0  0  0  0  0  0  0
   18.4319   -5.5157  -16.4162 C   0  0  0  0  0  0  0  0  0  0  0  0
   18.3366   -5.4251  -15.1674 O   0  0  0  0  0  0  0  0  0  0  0  0
   19.4178   -4.7668  -17.0434 O   0  0  0  0  0  0  0  0  0  0  0  0
  2  1  1  1
  3  2  1  0
  4  2  1  0
  4  5  1  1
  6  4  1  0
  6  7  2  0
  8  9  1  0
 10  9  1  1
 10 11  1  0
 10 12  1  0
 11  6  1  0
 12 13  2  0
 12 19  1  0
 14 15  1  0
 16 17  1  6
 16 15  1  0
 18 16  1  0
 18 19  1  1
 20 22  1  0
 20 18  1  0
 21 20  2  0
M  END
$$$$
