VSI.pdb
     RDKit          3D

 22 21  0  0  1  0  0  0  0  0999 V2000
   28.8114  -18.1324  -13.6777 C   0  0  0  0  0  0  0  0  0  0  0  0
   28.4309  -19.4935  -14.2285 C   0  0  2  0  0  0  0  0  0  0  0  0
   29.1131  -19.7697  -15.5300 C   0  0  0  0  0  0  0  0  0  0  0  0
   26.9309  -19.6425  -14.3503 C   0  0  2  0  0  0  0  0  0  0  0  0
   26.3531  -18.7556  -15.3076 N   0  0  0  0  0  0  0  0  0  0  0  0
   26.3419  -19.3683  -13.0192 C   0  0  0  0  0  0  0  0  0  0  0  0
   26.2360  -18.2001  -12.5904 O   0  0  0  0  0  0  0  0  0  0  0  0
   23.8213  -22.0225  -11.1623 O   0  0  0  0  0  0  0  0  0  0  0  0
   23.8563  -20.6780  -10.8137 C   0  0  0  0  0  0  0  0  0  0  0  0
   25.2585  -20.1611  -10.9379 C   0  0  2  0  0  0  0  0  0  0  0  0
   25.8792  -20.4108  -12.1863 N   0  0  0  0  0  0  0  0  0  0  0  0
   26.1253  -20.6400   -9.8441 C   0  0  0  0  0  0  0  0  0  0  0  0
   26.9941  -21.5114  -10.0676 O   0  0  0  0  0  0  0  0  0  0  0  0
   29.2469  -19.6210   -4.9039 C   0  0  0  0  0  0  0  0  0  0  0  0
   28.2407  -20.5370   -5.5720 C   0  0  0  0  0  0  0  0  0  0  0  0
   27.5228  -19.8413   -6.7026 C   0  0  2  0  0  0  0  0  0  0  0  0
   26.8041  -18.6028   -6.2785 C   0  0  0  0  0  0  0  0  0  0  0  0
   26.5780  -20.7862   -7.3882 C   0  0  2  0  0  0  0  0  0  0  0  0
   25.9944  -20.1295   -8.5319 N   0  0  0  0  0  0  0  0  0  0  0  0
   25.5025  -21.2601   -6.4736 C   0  0  0  0  0  0  0  0  0  0  0  0
   24.3348  -20.8010   -6.5227 O   0  0  0  0  0  0  0  0  0  0  0  0
   25.7708  -22.2392   -5.5271 O   0  0  0  0  0  0  0  0  0  0  0  0
  2  1  1  6
  3  2  1  0
  4  2  1  0
  4  5  1  6
  6  4  1  0
  6  7  2  0
  8  9  1  0
 10  9  1  6
 10 11  1  0
 10 12  1  0
 11  6  1  0
 12 13  2  0
 12 19  1  0
 14 15  1  0
 16 17  1  1
 16 15  1  0
 18 16  1  0
 18 19  1  6
 20 22  1  0
 20 18  1  0
 21 20  2  0
M  END
$$$$
