VSI.pdb
     RDKit          3D

 22 21  0  0  1  0  0  0  0  0999 V2000
   28.1158  -17.4068  -17.6374 C   0  0  0  0  0  0  0  0  0  0  0  0
   27.4025  -17.5115  -16.3029 C   0  0  2  0  0  0  0  0  0  0  0  0
   28.3356  -17.9321  -15.2128 C   0  0  0  0  0  0  0  0  0  0  0  0
   26.2033  -18.4291  -16.3859 C   0  0  2  0  0  0  0  0  0  0  0  0
   25.2908  -18.0702  -17.4228 N   0  0  0  0  0  0  0  0  0  0  0  0
   25.5018  -18.3719  -15.0825 C   0  0  0  0  0  0  0  0  0  0  0  0
   24.6409  -17.4968  -14.8527 O   0  0  0  0  0  0  0  0  0  0  0  0
   23.4193  -21.0369  -13.8407 O   0  0  0  0  0  0  0  0  0  0  0  0
   23.4969  -19.7752  -13.2642 C   0  0  0  0  0  0  0  0  0  0  0  0
   24.9249  -19.4587  -12.9332 C   0  0  2  0  0  0  0  0  0  0  0  0
   25.7767  -19.2991  -14.0534 N   0  0  0  0  0  0  0  0  0  0  0  0
   25.5080  -20.4393  -11.9975 C   0  0  0  0  0  0  0  0  0  0  0  0
   25.8958  -21.5523  -12.4160 O   0  0  0  0  0  0  0  0  0  0  0  0
   27.7275  -18.9093   -7.0247 C   0  0  0  0  0  0  0  0  0  0  0  0
   26.6875  -19.3803   -8.0220 C   0  0  0  0  0  0  0  0  0  0  0  0
   27.1848  -20.5549   -8.8286 C   0  0  2  0  0  0  0  0  0  0  0  0
   28.3649  -20.2319   -9.6850 C   0  0  0  0  0  0  0  0  0  0  0  0
   26.0754  -21.1305   -9.6612 C   0  0  2  0  0  0  0  0  0  0  0  0
   25.6400  -20.1456  -10.6206 N   0  0  0  0  0  0  0  0  0  0  0  0
   24.9221  -21.5684   -8.8270 C   0  0  0  0  0  0  0  0  0  0  0  0
   25.0226  -22.4920   -7.9822 O   0  0  0  0  0  0  0  0  0  0  0  0
   23.6853  -20.9542   -8.9663 O   0  0  0  0  0  0  0  0  0  0  0  0
  2  1  1  6
  3  2  1  0
  4  2  1  0
  4  5  1  6
  6  4  1  0
  6  7  2  0
  8  9  1  0
 10  9  1  6
 10 11  1  0
 10 12  1  0
 11  6  1  0
 12 13  2  0
 12 19  1  0
 14 15  1  0
 16 17  1  6
 16 15  1  0
 18 16  1  0
 18 19  1  6
 20 22  1  0
 20 18  1  0
 21 20  2  0
M  END
$$$$
