VSI.pdb
     RDKit          3D

 22 21  0  0  1  0  0  0  0  0999 V2000
   25.6611  -33.8974   -9.1570 C   0  0  0  0  0  0  0  0  0  0  0  0
   24.2009  -33.8074   -9.5577 C   0  0  2  0  0  0  0  0  0  0  0  0
   24.0356  -33.8445  -11.0433 C   0  0  0  0  0  0  0  0  0  0  0  0
   23.5363  -32.5876   -8.9598 C   0  0  2  0  0  0  0  0  0  0  0  0
   24.0536  -31.3586   -9.4686 N   0  0  0  0  0  0  0  0  0  0  0  0
   23.7484  -32.6324   -7.4945 C   0  0  0  0  0  0  0  0  0  0  0  0
   24.6846  -32.0019   -6.9600 O   0  0  0  0  0  0  0  0  0  0  0  0
   22.1412  -33.5155   -3.0997 O   0  0  0  0  0  0  0  0  0  0  0  0
   21.8940  -33.7790   -4.4412 C   0  0  0  0  0  0  0  0  0  0  0  0
   23.1180  -33.4686   -5.2502 C   0  0  2  0  0  0  0  0  0  0  0  0
   22.9053  -33.3855   -6.6480 N   0  0  0  0  0  0  0  0  0  0  0  0
   24.2223  -34.4055   -4.9674 C   0  0  0  0  0  0  0  0  0  0  0  0
   24.2835  -35.5022   -5.5656 O   0  0  0  0  0  0  0  0  0  0  0  0
   29.0863  -33.7359   -5.8503 C   0  0  0  0  0  0  0  0  0  0  0  0
   27.7880  -34.4229   -5.4756 C   0  0  0  0  0  0  0  0  0  0  0  0
   27.5962  -34.4678   -3.9793 C   0  0  2  0  0  0  0  0  0  0  0  0
   28.6703  -35.2193   -3.2639 C   0  0  0  0  0  0  0  0  0  0  0  0
   26.2465  -35.0306   -3.6372 C   0  0  2  0  0  0  0  0  0  0  0  0
   25.2258  -34.0877   -4.0233 N   0  0  0  0  0  0  0  0  0  0  0  0
   26.1243  -35.3426   -2.1862 C   0  0  0  0  0  0  0  0  0  0  0  0
   25.7058  -34.4991   -1.3554 O   0  0  0  0  0  0  0  0  0  0  0  0
   26.4770  -36.5972   -1.7088 O   0  0  0  0  0  0  0  0  0  0  0  0
  2  1  1  6
  3  2  1  0
  4  2  1  0
  4  5  1  6
  6  4  1  0
  6  7  2  0
  8  9  1  0
 10  9  1  1
 10 11  1  0
 10 12  1  0
 11  6  1  0
 12 13  2  0
 12 19  1  0
 14 15  1  0
 16 17  1  1
 16 15  1  0
 18 16  1  0
 18 19  1  1
 20 22  1  0
 20 18  1  0
 21 20  2  0
M  END
$$$$
