VSI.pdb
     RDKit          3D

 22 21  0  0  1  0  0  0  0  0999 V2000
   19.5024  -15.1256  -18.6923 C   0  0  0  0  0  0  0  0  0  0  0  0
   18.9387  -13.7686  -18.3159 C   0  0  2  0  0  0  0  0  0  0  0  0
   19.5138  -12.6802  -19.1646 C   0  0  0  0  0  0  0  0  0  0  0  0
   19.1293  -13.4782  -16.8440 C   0  0  2  0  0  0  0  0  0  0  0  0
   18.5381  -14.4615  -15.9952 N   0  0  0  0  0  0  0  0  0  0  0  0
   18.5129  -12.1612  -16.5617 C   0  0  0  0  0  0  0  0  0  0  0  0
   17.2720  -12.0217  -16.5446 O   0  0  0  0  0  0  0  0  0  0  0  0
   19.4392   -9.6002  -13.8277 O   0  0  0  0  0  0  0  0  0  0  0  0
   18.3304   -9.4697  -14.6545 C   0  0  0  0  0  0  0  0  0  0  0  0
   18.7256   -9.7422  -16.0752 C   0  0  2  0  0  0  0  0  0  0  0  0
   19.2992  -11.0172  -16.3020 N   0  0  0  0  0  0  0  0  0  0  0  0
   19.6106   -8.6926  -16.6159 C   0  0  0  0  0  0  0  0  0  0  0  0
   20.8300   -8.9207  -16.7753 O   0  0  0  0  0  0  0  0  0  0  0  0
   17.6260   -5.1434  -20.2938 C   0  0  0  0  0  0  0  0  0  0  0  0
   18.0724   -5.5555  -18.9050 C   0  0  0  0  0  0  0  0  0  0  0  0
   19.4928   -6.0654  -18.9078 C   0  0  2  0  0  0  0  0  0  0  0  0
   19.6998   -7.2453  -19.7996 C   0  0  0  0  0  0  0  0  0  0  0  0
   19.9430   -6.3801  -17.5100 C   0  0  2  0  0  0  0  0  0  0  0  0
   19.1050   -7.4183  -16.9624 N   0  0  0  0  0  0  0  0  0  0  0  0
   19.9034   -5.1804  -16.6285 C   0  0  0  0  0  0  0  0  0  0  0  0
   20.6635   -4.1968  -16.8060 O   0  0  0  0  0  0  0  0  0  0  0  0
   19.0081   -5.1202  -15.5696 O   0  0  0  0  0  0  0  0  0  0  0  0
  2  1  1  6
  3  2  1  0
  4  2  1  0
  4  5  1  1
  6  4  1  0
  6  7  2  0
  8  9  1  0
 10  9  1  1
 10 11  1  0
 10 12  1  0
 11  6  1  0
 12 13  2  0
 12 19  1  0
 14 15  1  0
 16 17  1  6
 16 15  1  0
 18 16  1  0
 18 19  1  1
 20 22  1  0
 20 18  1  0
 21 20  2  0
M  END
$$$$
