VSI.pdb
     RDKit          3D

 22 21  0  0  1  0  0  0  0  0999 V2000
   19.1423  -12.8954  -16.0770 C   0  0  0  0  0  0  0  0  0  0  0  0
   18.0415  -11.9049  -16.4059 C   0  0  2  0  0  0  0  0  0  0  0  0
   17.0926  -12.4556  -17.4218 C   0  0  0  0  0  0  0  0  0  0  0  0
   18.6074  -10.5732  -16.8455 C   0  0  2  0  0  0  0  0  0  0  0  0
   19.3876  -10.6591  -18.0374 N   0  0  0  0  0  0  0  0  0  0  0  0
   19.4576  -10.0606  -15.7462 C   0  0  0  0  0  0  0  0  0  0  0  0
   18.9996   -9.9126  -14.5938 O   0  0  0  0  0  0  0  0  0  0  0  0
   23.6962   -9.9563  -15.6838 O   0  0  0  0  0  0  0  0  0  0  0  0
   22.8463   -9.9029  -14.5860 C   0  0  0  0  0  0  0  0  0  0  0  0
   21.6092   -9.1340  -14.9426 C   0  0  2  0  0  0  0  0  0  0  0  0
   20.8122   -9.7207  -15.9559 N   0  0  0  0  0  0  0  0  0  0  0  0
   21.9086   -7.7319  -15.2912 C   0  0  0  0  0  0  0  0  0  0  0  0
   22.1442   -7.4170  -16.4785 O   0  0  0  0  0  0  0  0  0  0  0  0
   18.5925   -3.9474  -14.6257 C   0  0  0  0  0  0  0  0  0  0  0  0
   19.8278   -4.6668  -14.1213 C   0  0  0  0  0  0  0  0  0  0  0  0
   20.8955   -4.7477  -15.1849 C   0  0  2  0  0  0  0  0  0  0  0  0
   20.4680   -5.5018  -16.4009 C   0  0  0  0  0  0  0  0  0  0  0  0
   22.1578   -5.3346  -14.6215 C   0  0  2  0  0  0  0  0  0  0  0  0
   21.9355   -6.7230  -14.3008 N   0  0  0  0  0  0  0  0  0  0  0  0
   22.6199   -4.6031  -13.4094 C   0  0  0  0  0  0  0  0  0  0  0  0
   22.9675   -3.3971  -13.4501 O   0  0  0  0  0  0  0  0  0  0  0  0
   22.6783   -5.2496  -12.1826 O   0  0  0  0  0  0  0  0  0  0  0  0
  2  1  1  6
  3  2  1  0
  4  2  1  0
  4  5  1  6
  6  4  1  0
  6  7  2  0
  8  9  1  0
 10  9  1  6
 10 11  1  0
 10 12  1  0
 11  6  1  0
 12 13  2  0
 12 19  1  0
 14 15  1  0
 16 17  1  6
 16 15  1  0
 18 16  1  0
 18 19  1  1
 20 22  1  0
 20 18  1  0
 21 20  2  0
M  END
$$$$
