VSI.pdb
     RDKit          3D

 22 21  0  0  1  0  0  0  0  0999 V2000
   15.0605  -13.4771  -16.4321 C   0  0  0  0  0  0  0  0  0  0  0  0
   16.2436  -14.2118  -17.0333 C   0  0  2  0  0  0  0  0  0  0  0  0
   16.1373  -15.6885  -16.8239 C   0  0  0  0  0  0  0  0  0  0  0  0
   17.5555  -13.6739  -16.5074 C   0  0  2  0  0  0  0  0  0  0  0  0
   17.7285  -13.8832  -15.1064 N   0  0  0  0  0  0  0  0  0  0  0  0
   17.5903  -12.2198  -16.7877 C   0  0  0  0  0  0  0  0  0  0  0  0
   17.5702  -11.7896  -17.9600 O   0  0  0  0  0  0  0  0  0  0  0  0
   15.8733   -9.3753  -14.6050 O   0  0  0  0  0  0  0  0  0  0  0  0
   16.4108   -9.1447  -15.8653 C   0  0  0  0  0  0  0  0  0  0  0  0
   17.7135   -9.8752  -15.9996 C   0  0  2  0  0  0  0  0  0  0  0  0
   17.6471  -11.2672  -15.7467 N   0  0  0  0  0  0  0  0  0  0  0  0
   18.7774   -9.2679  -15.1770 C   0  0  0  0  0  0  0  0  0  0  0  0
   18.8958   -9.5823  -13.9723 O   0  0  0  0  0  0  0  0  0  0  0  0
   23.5258   -8.0698  -17.5582 C   0  0  0  0  0  0  0  0  0  0  0  0
   22.1933   -7.6705  -16.9557 C   0  0  0  0  0  0  0  0  0  0  0  0
   22.0642   -8.1481  -15.5299 C   0  0  2  0  0  0  0  0  0  0  0  0
   22.2622   -9.6203  -15.3753 C   0  0  0  0  0  0  0  0  0  0  0  0
   20.7409   -7.7342  -14.9529 C   0  0  2  0  0  0  0  0  0  0  0  0
   19.6778   -8.3264  -15.7269 N   0  0  0  0  0  0  0  0  0  0  0  0
   20.5832   -6.2536  -14.9264 C   0  0  0  0  0  0  0  0  0  0  0  0
   19.7768   -5.6551  -15.6804 O   0  0  0  0  0  0  0  0  0  0  0  0
   21.3383   -5.4856  -14.0511 O   0  0  0  0  0  0  0  0  0  0  0  0
  2  1  1  1
  3  2  1  0
  4  2  1  0
  4  5  1  1
  6  4  1  0
  6  7  2  0
  8  9  1  0
 10  9  1  1
 10 11  1  0
 10 12  1  0
 11  6  1  0
 12 13  2  0
 12 19  1  0
 14 15  1  0
 16 17  1  6
 16 15  1  0
 18 16  1  0
 18 19  1  6
 20 22  1  0
 20 18  1  0
 21 20  2  0
M  END
$$$$
