DHL.pdb
     RDKit          3D

 27 27  0  0  1  0  0  0  0  0999 V2000
   11.9693  -18.9203   19.2160 N   0  0  0  0  0  0  0  0  0  0  0  0
   12.2490  -18.1302   20.3927 C   0  0  1  0  0  0  0  0  0  0  0  0
   13.0890  -16.9193   19.9695 C   0  0  0  0  0  0  0  0  0  0  0  0
   14.5309  -17.3268   19.8611 C   0  0  0  0  0  0  0  0  0  0  0  0
   15.0995  -18.0127   20.7593 O   0  0  0  0  0  0  0  0  0  0  0  0
   10.9725  -17.5895   20.9087 C   0  0  0  0  0  0  0  0  0  0  0  0
   10.2326  -16.9398   20.1397 O   0  0  0  0  0  0  0  0  0  0  0  0
   15.2992  -16.9662   18.7684 O   0  0  0  0  0  0  0  0  0  0  0  0
   10.5393  -17.7743   22.2536 N   0  0  0  0  0  0  0  0  0  0  0  0
    9.2279  -17.3758   22.7204 C   0  0  1  0  0  0  0  0  0  0  0  0
    8.3891  -18.5722   23.0968 C   0  0  0  0  0  0  0  0  0  0  0  0
    7.9689  -19.3552   21.9130 C   0  0  0  0  0  0  0  0  0  0  0  0
    8.5245  -20.5195   21.3910 C   0  0  0  0  0  0  0  0  0  0  0  0
    7.8335  -20.8995   20.3048 N   0  0  0  0  0  0  0  0  0  0  0  0
    6.8554  -20.0191   20.1137 C   0  0  0  0  0  0  0  0  0  0  0  0
    6.9384  -19.0777   21.0946 N   0  0  0  0  0  0  0  0  0  0  0  0
    9.3023  -16.3766   23.8045 C   0  0  0  0  0  0  0  0  0  0  0  0
   10.3209  -16.3313   24.5452 O   0  0  0  0  0  0  0  0  0  0  0  0
    8.3507  -12.4294   27.0832 C   0  0  0  0  0  0  0  0  0  0  0  0
    7.3765  -12.2928   25.9269 C   0  0  2  0  0  0  0  0  0  0  0  0
    6.0670  -11.7201   26.3323 C   0  0  0  0  0  0  0  0  0  0  0  0
    7.3986  -13.3948   24.9530 C   0  0  0  0  0  0  0  0  0  0  0  0
    8.4414  -14.4353   25.1020 C   0  0  2  0  0  0  0  0  0  0  0  0
    8.2592  -15.4477   24.0546 N   0  0  0  0  0  0  0  0  0  0  0  0
    8.3816  -15.1325   26.3782 C   0  0  0  0  0  0  0  0  0  0  0  0
    9.2928  -14.9914   27.4157 O   0  0  0  0  0  0  0  0  0  0  0  0
    7.4265  -15.9565   26.5972 O   0  0  0  0  0  0  0  0  0  0  0  0
  2  1  1  6
  2  3  1  0
  4  3  1  0
  5  4  2  0
  6  2  1  0
  7  6  2  0
  8  4  1  0
  9  6  1  0
 10  9  1  0
 11 12  1  0
 10 11  1  1
 12 13  2  0
 13 14  1  0
 15 14  1  0
 16 12  1  0
 16 15  2  0
 17 18  2  0
 17 10  1  0
 20 19  1  1
 21 20  1  0
 23 22  1  1
 22 20  1  0
 23 24  1  0
 24 17  1  0
 25 23  1  0
 26 25  1  0
 27 25  2  0
M  END
$$$$
