DHL.pdb
     RDKit          3D

 27 27  0  0  1  0  0  0  0  0999 V2000
   11.2740  -20.2764   17.6221 N   0  0  0  0  0  0  0  0  0  0  0  0
   10.8885  -18.8875   17.7202 C   0  0  1  0  0  0  0  0  0  0  0  0
    9.8527  -18.5983   16.6275 C   0  0  0  0  0  0  0  0  0  0  0  0
   10.5145  -18.6750   15.2810 C   0  0  0  0  0  0  0  0  0  0  0  0
   11.7401  -18.9627   15.1556 O   0  0  0  0  0  0  0  0  0  0  0  0
   10.1970  -18.6831   19.0118 C   0  0  0  0  0  0  0  0  0  0  0  0
    9.5101  -17.6527   19.1770 O   0  0  0  0  0  0  0  0  0  0  0  0
    9.8063  -18.4326   14.1174 O   0  0  0  0  0  0  0  0  0  0  0  0
   10.2756  -19.6126   20.0890 N   0  0  0  0  0  0  0  0  0  0  0  0
    9.5152  -19.4662   21.3125 C   0  0  1  0  0  0  0  0  0  0  0  0
    9.3327  -20.7913   22.0108 C   0  0  0  0  0  0  0  0  0  0  0  0
    8.3764  -21.6703   21.3008 C   0  0  0  0  0  0  0  0  0  0  0  0
    7.0376  -21.4427   20.9969 C   0  0  0  0  0  0  0  0  0  0  0  0
    6.5389  -22.5032   20.3421 N   0  0  0  0  0  0  0  0  0  0  0  0
    7.5117  -23.4009   20.2167 C   0  0  0  0  0  0  0  0  0  0  0  0
    8.6321  -22.8925   20.8014 N   0  0  0  0  0  0  0  0  0  0  0  0
   10.0844  -18.4346   22.2020 C   0  0  0  0  0  0  0  0  0  0  0  0
   11.3010  -18.1220   22.1000 O   0  0  0  0  0  0  0  0  0  0  0  0
    9.3932  -14.2048   22.5247 C   0  0  0  0  0  0  0  0  0  0  0  0
    8.3676  -14.8389   23.4471 C   0  0  2  0  0  0  0  0  0  0  0  0
    7.2867  -13.9022   23.8488 C   0  0  0  0  0  0  0  0  0  0  0  0
    8.9129  -15.7659   24.4505 C   0  0  0  0  0  0  0  0  0  0  0  0
    9.9435  -16.7359   24.0153 C   0  0  2  0  0  0  0  0  0  0  0  0
    9.3089  -17.7669   23.1849 N   0  0  0  0  0  0  0  0  0  0  0  0
   10.5907  -17.4245   25.1222 C   0  0  0  0  0  0  0  0  0  0  0  0
   11.6839  -16.9519   25.8351 O   0  0  0  0  0  0  0  0  0  0  0  0
   10.1464  -18.5659   25.4951 O   0  0  0  0  0  0  0  0  0  0  0  0
  2  1  1  1
  2  3  1  0
  4  3  1  0
  5  4  2  0
  6  2  1  0
  7  6  2  0
  8  4  1  0
  9  6  1  0
 10  9  1  0
 11 12  1  0
 10 11  1  1
 12 13  2  0
 13 14  1  0
 15 14  1  0
 16 12  1  0
 16 15  2  0
 17 18  2  0
 17 10  1  0
 20 19  1  1
 21 20  1  0
 23 22  1  1
 22 20  1  0
 23 24  1  0
 24 17  1  0
 25 23  1  0
 26 25  1  0
 27 25  2  0
M  END
$$$$
