DHL.pdb
     RDKit          3D

 27 27  0  0  1  0  0  0  0  0999 V2000
    9.6733  -18.3202   19.3681 N   0  0  0  0  0  0  0  0  0  0  0  0
   10.1952  -17.7897   20.6064 C   0  0  1  0  0  0  0  0  0  0  0  0
   11.4741  -17.0050   20.2913 C   0  0  0  0  0  0  0  0  0  0  0  0
   12.5851  -17.9672   19.9806 C   0  0  0  0  0  0  0  0  0  0  0  0
   12.5934  -19.1467   20.4381 O   0  0  0  0  0  0  0  0  0  0  0  0
    9.2268  -16.8074   21.1405 C   0  0  0  0  0  0  0  0  0  0  0  0
    9.2149  -15.6492   20.6722 O   0  0  0  0  0  0  0  0  0  0  0  0
   13.6499  -17.6001   19.1770 O   0  0  0  0  0  0  0  0  0  0  0  0
    8.2964  -17.1190   22.1739 N   0  0  0  0  0  0  0  0  0  0  0  0
    7.3147  -16.1727   22.6613 C   0  0  1  0  0  0  0  0  0  0  0  0
    6.0438  -16.8659   23.0869 C   0  0  0  0  0  0  0  0  0  0  0  0
    5.3811  -17.5598   21.9598 C   0  0  0  0  0  0  0  0  0  0  0  0
    5.5051  -17.3266   20.5935 C   0  0  0  0  0  0  0  0  0  0  0  0
    4.7251  -18.1855   19.9183 N   0  0  0  0  0  0  0  0  0  0  0  0
    4.1066  -18.9598   20.8050 C   0  0  0  0  0  0  0  0  0  0  0  0
    4.5070  -18.5779   22.0497 N   0  0  0  0  0  0  0  0  0  0  0  0
    7.8605  -15.2986   23.7183 C   0  0  0  0  0  0  0  0  0  0  0  0
    7.8360  -14.0473   23.5705 O   0  0  0  0  0  0  0  0  0  0  0  0
    8.6129  -12.0007   25.9449 C   0  0  0  0  0  0  0  0  0  0  0  0
    7.3214  -12.7875   26.0776 C   0  0  2  0  0  0  0  0  0  0  0  0
    6.2278  -12.0099   26.7151 C   0  0  0  0  0  0  0  0  0  0  0  0
    7.4832  -14.2061   26.4311 C   0  0  0  0  0  0  0  0  0  0  0  0
    8.7287  -14.8899   26.0146 C   0  0  2  0  0  0  0  0  0  0  0  0
    8.4219  -15.8135   24.9155 N   0  0  0  0  0  0  0  0  0  0  0  0
    9.3336  -15.6820   27.0754 C   0  0  0  0  0  0  0  0  0  0  0  0
   10.3653  -15.2630   27.9040 O   0  0  0  0  0  0  0  0  0  0  0  0
    8.9089  -16.8708   27.2888 O   0  0  0  0  0  0  0  0  0  0  0  0
  2  1  1  6
  2  3  1  0
  4  3  1  0
  5  4  2  0
  6  2  1  0
  7  6  2  0
  8  4  1  0
  9  6  1  0
 10  9  1  0
 11 12  1  0
 10 11  1  1
 12 13  2  0
 13 14  1  0
 15 14  1  0
 16 12  1  0
 16 15  2  0
 17 18  2  0
 17 10  1  0
 20 19  1  1
 21 20  1  0
 23 22  1  1
 22 20  1  0
 23 24  1  0
 24 17  1  0
 25 23  1  0
 26 25  1  0
 27 25  2  0
M  END
$$$$
