DHL.pdb
     RDKit          3D

 27 27  0  0  1  0  0  0  0  0999 V2000
   12.7286  -14.6857   18.9861 N   0  0  0  0  0  0  0  0  0  0  0  0
   12.5434  -15.3473   20.2571 C   0  0  1  0  0  0  0  0  0  0  0  0
   13.7827  -15.0839   21.1205 C   0  0  0  0  0  0  0  0  0  0  0  0
   14.9406  -15.8772   20.5851 C   0  0  0  0  0  0  0  0  0  0  0  0
   16.0099  -15.3205   20.2011 O   0  0  0  0  0  0  0  0  0  0  0  0
   11.4071  -14.7089   20.9567 C   0  0  0  0  0  0  0  0  0  0  0  0
   11.4454  -13.4809   21.1834 O   0  0  0  0  0  0  0  0  0  0  0  0
   14.8839  -17.2564   20.4899 O   0  0  0  0  0  0  0  0  0  0  0  0
   10.2583  -15.4321   21.3899 N   0  0  0  0  0  0  0  0  0  0  0  0
    9.0813  -14.7879   21.9342 C   0  0  1  0  0  0  0  0  0  0  0  0
    7.8604  -15.0673   21.0927 C   0  0  0  0  0  0  0  0  0  0  0  0
    8.0154  -14.5800   19.7036 C   0  0  0  0  0  0  0  0  0  0  0  0
    8.1997  -13.2782   19.2477 C   0  0  0  0  0  0  0  0  0  0  0  0
    8.2938  -13.2799   17.9086 N   0  0  0  0  0  0  0  0  0  0  0  0
    8.1761  -14.5372   17.4921 C   0  0  0  0  0  0  0  0  0  0  0  0
    8.0064  -15.3296   18.5870 N   0  0  0  0  0  0  0  0  0  0  0  0
    8.8723  -15.1199   23.3574 C   0  0  0  0  0  0  0  0  0  0  0  0
    9.6320  -15.9502   23.9245 O   0  0  0  0  0  0  0  0  0  0  0  0
    8.1380  -12.2117   27.0280 C   0  0  0  0  0  0  0  0  0  0  0  0
    6.9115  -12.6217   26.2330 C   0  0  2  0  0  0  0  0  0  0  0  0
    5.7610  -11.7004   26.4194 C   0  0  0  0  0  0  0  0  0  0  0  0
    6.6587  -14.0693   26.1694 C   0  0  0  0  0  0  0  0  0  0  0  0
    7.6850  -14.9284   25.5361 C   0  0  2  0  0  0  0  0  0  0  0  0
    7.8353  -14.5354   24.1297 N   0  0  0  0  0  0  0  0  0  0  0  0
    7.3384  -16.3420   25.5448 C   0  0  0  0  0  0  0  0  0  0  0  0
    6.9912  -17.0923   24.4299 O   0  0  0  0  0  0  0  0  0  0  0  0
    7.3378  -16.9795   26.6551 O   0  0  0  0  0  0  0  0  0  0  0  0
  2  1  1  6
  2  3  1  0
  4  3  1  0
  5  4  2  0
  6  2  1  0
  7  6  2  0
  8  4  1  0
  9  6  1  0
 10  9  1  0
 11 12  1  0
 10 11  1  6
 12 13  2  0
 13 14  1  0
 15 14  1  0
 16 12  1  0
 16 15  2  0
 17 18  2  0
 17 10  1  0
 20 19  1  1
 21 20  1  0
 23 22  1  6
 22 20  1  0
 23 24  1  0
 24 17  1  0
 25 23  1  0
 26 25  1  0
 27 25  2  0
M  END
$$$$
