DHL.pdb
     RDKit          3D

 27 27  0  0  1  0  0  0  0  0999 V2000
    9.4827  -14.7729   19.4537 N   0  0  0  0  0  0  0  0  0  0  0  0
    8.0734  -14.5016   19.6198 C   0  0  1  0  0  0  0  0  0  0  0  0
    7.3161  -15.1736   18.4684 C   0  0  0  0  0  0  0  0  0  0  0  0
    8.2152  -15.2672   17.2685 C   0  0  0  0  0  0  0  0  0  0  0  0
    8.7299  -14.2399   16.7390 O   0  0  0  0  0  0  0  0  0  0  0  0
    7.6121  -15.1617   20.8607 C   0  0  0  0  0  0  0  0  0  0  0  0
    6.3967  -15.1336   21.1483 O   0  0  0  0  0  0  0  0  0  0  0  0
    8.5180  -16.4875   16.6910 O   0  0  0  0  0  0  0  0  0  0  0  0
    8.4941  -15.8354   21.7545 N   0  0  0  0  0  0  0  0  0  0  0  0
    8.0814  -16.3117   23.0581 C   0  0  1  0  0  0  0  0  0  0  0  0
    8.2965  -17.7988   23.1958 C   0  0  0  0  0  0  0  0  0  0  0  0
    8.5548  -18.4494   21.8916 C   0  0  0  0  0  0  0  0  0  0  0  0
    8.6307  -17.8750   20.6263 C   0  0  0  0  0  0  0  0  0  0  0  0
    8.8830  -18.8275   19.7147 N   0  0  0  0  0  0  0  0  0  0  0  0
    8.9712  -19.9909   20.3525 C   0  0  0  0  0  0  0  0  0  0  0  0
    8.7711  -19.7598   21.6799 N   0  0  0  0  0  0  0  0  0  0  0  0
    8.7090  -15.5479   24.1545 C   0  0  0  0  0  0  0  0  0  0  0  0
    9.9132  -15.1890   24.0580 O   0  0  0  0  0  0  0  0  0  0  0  0
    8.1131  -11.5880   25.5593 C   0  0  0  0  0  0  0  0  0  0  0  0
    7.1421  -12.4901   26.2995 C   0  0  2  0  0  0  0  0  0  0  0  0
    5.9872  -11.7548   26.8762 C   0  0  0  0  0  0  0  0  0  0  0  0
    7.7605  -13.5692   27.0847 C   0  0  0  0  0  0  0  0  0  0  0  0
    8.7125  -14.4722   26.3987 C   0  0  2  0  0  0  0  0  0  0  0  0
    8.0043  -15.1933   25.3340 N   0  0  0  0  0  0  0  0  0  0  0  0
    9.2890  -15.4780   27.2788 C   0  0  0  0  0  0  0  0  0  0  0  0
   10.2583  -15.2423   28.2439 O   0  0  0  0  0  0  0  0  0  0  0  0
    8.8983  -16.6933   27.1810 O   0  0  0  0  0  0  0  0  0  0  0  0
  2  1  1  6
  2  3  1  0
  4  3  1  0
  5  4  2  0
  6  2  1  0
  7  6  2  0
  8  4  1  0
  9  6  1  0
 10  9  1  0
 11 12  1  0
 10 11  1  1
 12 13  2  0
 13 14  1  0
 15 14  1  0
 16 12  1  0
 16 15  2  0
 17 18  2  0
 17 10  1  0
 20 19  1  1
 21 20  1  0
 23 22  1  1
 22 20  1  0
 23 24  1  0
 24 17  1  0
 25 23  1  0
 26 25  1  0
 27 25  2  0
M  END
$$$$
