DHL.pdb
     RDKit          3D

 27 27  0  0  1  0  0  0  0  0999 V2000
    9.2197  -18.2620   20.4173 N   0  0  0  0  0  0  0  0  0  0  0  0
   10.5115  -17.7026   20.7426 C   0  0  1  0  0  0  0  0  0  0  0  0
   11.3912  -17.7648   19.4884 C   0  0  0  0  0  0  0  0  0  0  0  0
   11.5181  -19.1927   19.0393 C   0  0  0  0  0  0  0  0  0  0  0  0
   11.6786  -20.1393   19.8632 O   0  0  0  0  0  0  0  0  0  0  0  0
   10.3356  -16.2675   21.0551 C   0  0  0  0  0  0  0  0  0  0  0  0
   11.3468  -15.5460   21.1882 O   0  0  0  0  0  0  0  0  0  0  0  0
   11.4643  -19.5319   17.6990 O   0  0  0  0  0  0  0  0  0  0  0  0
    9.0565  -15.6596   21.2137 N   0  0  0  0  0  0  0  0  0  0  0  0
    8.8822  -14.2411   21.4461 C   0  0  1  0  0  0  0  0  0  0  0  0
    7.6830  -13.7037   20.7045 C   0  0  0  0  0  0  0  0  0  0  0  0
    7.8193  -13.8534   19.2382 C   0  0  0  0  0  0  0  0  0  0  0  0
    8.3151  -12.9451   18.3077 C   0  0  0  0  0  0  0  0  0  0  0  0
    8.2599  -13.4845   17.0797 N   0  0  0  0  0  0  0  0  0  0  0  0
    7.7463  -14.7058   17.1922 C   0  0  0  0  0  0  0  0  0  0  0  0
    7.4777  -14.9303   18.5086 N   0  0  0  0  0  0  0  0  0  0  0  0
    8.8483  -13.9123   22.8849 C   0  0  0  0  0  0  0  0  0  0  0  0
    8.9822  -12.7158   23.2569 O   0  0  0  0  0  0  0  0  0  0  0  0
    5.4581  -12.6900   26.8688 C   0  0  0  0  0  0  0  0  0  0  0  0
    6.8870  -13.1851   26.7358 C   0  0  2  0  0  0  0  0  0  0  0  0
    7.8658  -12.3466   27.4747 C   0  0  0  0  0  0  0  0  0  0  0  0
    7.2529  -13.6992   25.4071 C   0  0  0  0  0  0  0  0  0  0  0  0
    8.5043  -14.4809   25.2832 C   0  0  2  0  0  0  0  0  0  0  0  0
    8.6684  -14.9015   23.8863 N   0  0  0  0  0  0  0  0  0  0  0  0
    8.5103  -15.6910   26.0920 C   0  0  0  0  0  0  0  0  0  0  0  0
    8.6457  -16.9837   25.6050 O   0  0  0  0  0  0  0  0  0  0  0  0
    8.3771  -15.5959   27.3617 O   0  0  0  0  0  0  0  0  0  0  0  0
  2  1  1  6
  2  3  1  0
  4  3  1  0
  5  4  2  0
  6  2  1  0
  7  6  2  0
  8  4  1  0
  9  6  1  0
 10  9  1  0
 11 12  1  0
 10 11  1  1
 12 13  2  0
 13 14  1  0
 15 14  1  0
 16 12  1  0
 16 15  2  0
 17 18  2  0
 17 10  1  0
 20 19  1  6
 21 20  1  0
 23 22  1  6
 22 20  1  0
 23 24  1  0
 24 17  1  0
 25 23  1  0
 26 25  1  0
 27 25  2  0
M  END
$$$$
