DHL.pdb
     RDKit          3D

 27 27  0  0  1  0  0  0  0  0999 V2000
    8.0978  -16.9937   18.6189 N   0  0  0  0  0  0  0  0  0  0  0  0
    8.5421  -15.8722   19.4140 C   0  0  1  0  0  0  0  0  0  0  0  0
    7.9328  -14.5945   18.8249 C   0  0  0  0  0  0  0  0  0  0  0  0
    8.6369  -14.2523   17.5427 C   0  0  0  0  0  0  0  0  0  0  0  0
    9.5693  -14.9721   17.0811 O   0  0  0  0  0  0  0  0  0  0  0  0
    7.9797  -16.0105   20.7752 C   0  0  0  0  0  0  0  0  0  0  0  0
    6.7479  -15.8822   20.9397 O   0  0  0  0  0  0  0  0  0  0  0  0
    8.2920  -13.1297   16.8111 O   0  0  0  0  0  0  0  0  0  0  0  0
    8.7810  -16.2857   21.9209 N   0  0  0  0  0  0  0  0  0  0  0  0
    8.2190  -16.5920   23.2198 C   0  0  1  0  0  0  0  0  0  0  0  0
    8.2830  -18.0706   23.5139 C   0  0  0  0  0  0  0  0  0  0  0  0
    7.2819  -18.8384   22.7397 C   0  0  0  0  0  0  0  0  0  0  0  0
    7.4759  -19.6758   21.6453 C   0  0  0  0  0  0  0  0  0  0  0  0
    6.2952  -20.1740   21.2457 N   0  0  0  0  0  0  0  0  0  0  0  0
    5.3529  -19.6846   22.0462 C   0  0  0  0  0  0  0  0  0  0  0  0
    5.9551  -18.8703   22.9571 N   0  0  0  0  0  0  0  0  0  0  0  0
    8.8216  -15.7776   24.2935 C   0  0  0  0  0  0  0  0  0  0  0  0
   10.0748  -15.6665   24.3666 O   0  0  0  0  0  0  0  0  0  0  0  0
    7.7076  -11.6795   25.2445 C   0  0  0  0  0  0  0  0  0  0  0  0
    6.9207  -12.5822   26.1776 C   0  0  2  0  0  0  0  0  0  0  0  0
    5.7432  -11.9094   26.7840 C   0  0  0  0  0  0  0  0  0  0  0  0
    7.7307  -13.4836   27.0111 C   0  0  0  0  0  0  0  0  0  0  0  0
    8.7150  -14.3599   26.3361 C   0  0  2  0  0  0  0  0  0  0  0  0
    8.0387  -15.1017   25.2649 N   0  0  0  0  0  0  0  0  0  0  0  0
    9.3105  -15.3482   27.2233 C   0  0  0  0  0  0  0  0  0  0  0  0
   10.2621  -15.0843   28.1986 O   0  0  0  0  0  0  0  0  0  0  0  0
    8.9559  -16.5743   27.1223 O   0  0  0  0  0  0  0  0  0  0  0  0
  2  1  1  6
  2  3  1  0
  4  3  1  0
  5  4  2  0
  6  2  1  0
  7  6  2  0
  8  4  1  0
  9  6  1  0
 10  9  1  0
 11 12  1  0
 10 11  1  1
 12 13  2  0
 13 14  1  0
 15 14  1  0
 16 12  1  0
 16 15  2  0
 17 18  2  0
 17 10  1  0
 20 19  1  1
 21 20  1  0
 23 22  1  1
 22 20  1  0
 23 24  1  0
 24 17  1  0
 25 23  1  0
 26 25  1  0
 27 25  2  0
M  END
$$$$
