DHL.pdb
     RDKit          3D

 27 27  0  0  1  0  0  0  0  0999 V2000
    6.1018  -17.7647   19.4753 N   0  0  0  0  0  0  0  0  0  0  0  0
    7.3040  -17.2505   20.0896 C   0  0  1  0  0  0  0  0  0  0  0  0
    7.5097  -15.8090   19.6095 C   0  0  0  0  0  0  0  0  0  0  0  0
    8.2890  -15.8182   18.3251 C   0  0  0  0  0  0  0  0  0  0  0  0
    8.7817  -16.8830   17.8515 O   0  0  0  0  0  0  0  0  0  0  0  0
    7.0879  -17.1740   21.5510 C   0  0  0  0  0  0  0  0  0  0  0  0
    6.0491  -16.6318   21.9842 O   0  0  0  0  0  0  0  0  0  0  0  0
    8.5005  -14.6561   17.6046 O   0  0  0  0  0  0  0  0  0  0  0  0
    8.0152  -17.6934   22.5001 N   0  0  0  0  0  0  0  0  0  0  0  0
    7.7704  -17.6832   23.9272 C   0  0  1  0  0  0  0  0  0  0  0  0
    8.0911  -19.0188   24.5517 C   0  0  0  0  0  0  0  0  0  0  0  0
    7.8036  -19.0405   26.0036 C   0  0  0  0  0  0  0  0  0  0  0  0
    6.9437  -18.2296   26.7381 C   0  0  0  0  0  0  0  0  0  0  0  0
    6.9829  -18.5881   28.0312 N   0  0  0  0  0  0  0  0  0  0  0  0
    7.8376  -19.5998   28.1493 C   0  0  0  0  0  0  0  0  0  0  0  0
    8.3378  -19.8753   26.9127 N   0  0  0  0  0  0  0  0  0  0  0  0
    8.4593  -16.5658   24.6025 C   0  0  0  0  0  0  0  0  0  0  0  0
    9.6464  -16.2814   24.2894 O   0  0  0  0  0  0  0  0  0  0  0  0
    7.2267  -12.2860   24.8149 C   0  0  0  0  0  0  0  0  0  0  0  0
    6.6323  -13.0373   25.9926 C   0  0  2  0  0  0  0  0  0  0  0  0
    5.5042  -12.3154   26.6354 C   0  0  0  0  0  0  0  0  0  0  0  0
    7.6038  -13.7394   26.8451 C   0  0  0  0  0  0  0  0  0  0  0  0
    8.5677  -14.6555   26.1940 C   0  0  2  0  0  0  0  0  0  0  0  0
    7.8333  -15.7831   25.6070 N   0  0  0  0  0  0  0  0  0  0  0  0
    9.5404  -15.2201   27.1179 C   0  0  0  0  0  0  0  0  0  0  0  0
    9.6827  -16.5693   27.4111 O   0  0  0  0  0  0  0  0  0  0  0  0
   10.3456  -14.4384   27.7340 O   0  0  0  0  0  0  0  0  0  0  0  0
  2  1  1  6
  2  3  1  0
  4  3  1  0
  5  4  2  0
  6  2  1  0
  7  6  2  0
  8  4  1  0
  9  6  1  0
 10  9  1  0
 11 12  1  0
 10 11  1  1
 12 13  2  0
 13 14  1  0
 15 14  1  0
 16 12  1  0
 16 15  2  0
 17 18  2  0
 17 10  1  0
 20 19  1  1
 21 20  1  0
 23 22  1  1
 22 20  1  0
 23 24  1  0
 24 17  1  0
 25 23  1  0
 26 25  1  0
 27 25  2  0
M  END
$$$$
