DHL.pdb
     RDKit          3D

 27 27  0  0  1  0  0  0  0  0999 V2000
    9.2380  -18.3042   19.4318 N   0  0  0  0  0  0  0  0  0  0  0  0
    8.6772  -16.9817   19.5855 C   0  0  1  0  0  0  0  0  0  0  0  0
    7.5835  -16.7979   18.5269 C   0  0  0  0  0  0  0  0  0  0  0  0
    8.2120  -16.7583   17.1630 C   0  0  0  0  0  0  0  0  0  0  0  0
    9.4605  -16.8824   17.0001 O   0  0  0  0  0  0  0  0  0  0  0  0
    7.9999  -16.9095   20.8986 C   0  0  0  0  0  0  0  0  0  0  0  0
    6.8226  -16.4949   20.9532 O   0  0  0  0  0  0  0  0  0  0  0  0
    7.4464  -16.5835   16.0239 O   0  0  0  0  0  0  0  0  0  0  0  0
    8.6296  -17.2932   22.1180 N   0  0  0  0  0  0  0  0  0  0  0  0
    7.9569  -17.2493   23.3994 C   0  0  1  0  0  0  0  0  0  0  0  0
    7.9065  -18.6130   24.0433 C   0  0  0  0  0  0  0  0  0  0  0  0
    6.9578  -19.5198   23.3585 C   0  0  0  0  0  0  0  0  0  0  0  0
    5.5668  -19.5237   23.3981 C   0  0  0  0  0  0  0  0  0  0  0  0
    5.0981  -20.5192   22.6292 N   0  0  0  0  0  0  0  0  0  0  0  0
    6.1406  -21.1521   22.0992 C   0  0  0  0  0  0  0  0  0  0  0  0
    7.2744  -20.5423   22.5442 N   0  0  0  0  0  0  0  0  0  0  0  0
    8.5299  -16.2248   24.2946 C   0  0  0  0  0  0  0  0  0  0  0  0
    9.7613  -15.9625   24.2385 O   0  0  0  0  0  0  0  0  0  0  0  0
    5.8654  -11.6837   26.5548 C   0  0  0  0  0  0  0  0  0  0  0  0
    7.1832  -12.3508   26.2041 C   0  0  2  0  0  0  0  0  0  0  0  0
    7.6171  -12.0866   24.8080 C   0  0  0  0  0  0  0  0  0  0  0  0
    7.3746  -13.6973   26.7643 C   0  0  0  0  0  0  0  0  0  0  0  0
    8.4007  -14.5687   26.1478 C   0  0  2  0  0  0  0  0  0  0  0  0
    7.7419  -15.5087   25.2326 N   0  0  0  0  0  0  0  0  0  0  0  0
    9.1358  -15.3680   27.1170 C   0  0  0  0  0  0  0  0  0  0  0  0
    9.0258  -16.7426   27.2752 O   0  0  0  0  0  0  0  0  0  0  0  0
    9.9578  -14.7900   27.9103 O   0  0  0  0  0  0  0  0  0  0  0  0
  2  1  1  6
  2  3  1  0
  4  3  1  0
  5  4  2  0
  6  2  1  0
  7  6  2  0
  8  4  1  0
  9  6  1  0
 10  9  1  0
 11 12  1  0
 10 11  1  1
 12 13  2  0
 13 14  1  0
 15 14  1  0
 16 12  1  0
 16 15  2  0
 17 18  2  0
 17 10  1  0
 20 19  1  6
 21 20  1  0
 23 22  1  1
 22 20  1  0
 23 24  1  0
 24 17  1  0
 25 23  1  0
 26 25  1  0
 27 25  2  0
M  END
$$$$
