DHL.pdb
     RDKit          3D

 27 27  0  0  1  0  0  0  0  0999 V2000
   11.5161  -16.9415   18.8320 N   0  0  0  0  0  0  0  0  0  0  0  0
   11.9282  -16.0795   19.9157 C   0  0  1  0  0  0  0  0  0  0  0  0
   12.2492  -14.6975   19.3344 C   0  0  0  0  0  0  0  0  0  0  0  0
   13.7071  -14.6338   18.9773 C   0  0  0  0  0  0  0  0  0  0  0  0
   14.5253  -15.5226   19.3531 O   0  0  0  0  0  0  0  0  0  0  0  0
   10.7783  -15.8893   20.8266 C   0  0  0  0  0  0  0  0  0  0  0  0
    9.8344  -15.1533   20.4684 O   0  0  0  0  0  0  0  0  0  0  0  0
   14.2163  -13.5947   18.2188 O   0  0  0  0  0  0  0  0  0  0  0  0
   10.6920  -16.5102   22.1063 N   0  0  0  0  0  0  0  0  0  0  0  0
    9.4710  -16.5452   22.8839 C   0  0  1  0  0  0  0  0  0  0  0  0
    8.9311  -17.9493   23.0005 C   0  0  0  0  0  0  0  0  0  0  0  0
    8.2665  -18.3979   21.7562 C   0  0  0  0  0  0  0  0  0  0  0  0
    8.1308  -17.7263   20.5449 C   0  0  0  0  0  0  0  0  0  0  0  0
    7.4558  -18.4965   19.6771 N   0  0  0  0  0  0  0  0  0  0  0  0
    7.1551  -19.6372   20.2909 C   0  0  0  0  0  0  0  0  0  0  0  0
    7.6496  -19.5765   21.5586 N   0  0  0  0  0  0  0  0  0  0  0  0
    9.6286  -15.8914   24.1980 C   0  0  0  0  0  0  0  0  0  0  0  0
   10.7751  -15.7831   24.7098 O   0  0  0  0  0  0  0  0  0  0  0  0
    8.3883  -11.8548   26.1401 C   0  0  0  0  0  0  0  0  0  0  0  0
    7.2530  -12.8618   26.1010 C   0  0  2  0  0  0  0  0  0  0  0  0
    5.9171  -12.2423   26.2972 C   0  0  0  0  0  0  0  0  0  0  0  0
    7.5372  -14.1546   26.7425 C   0  0  0  0  0  0  0  0  0  0  0  0
    8.7358  -14.9030   26.3003 C   0  0  2  0  0  0  0  0  0  0  0  0
    8.5267  -15.3699   24.9243 N   0  0  0  0  0  0  0  0  0  0  0  0
    9.0101  -16.0816   27.1091 C   0  0  0  0  0  0  0  0  0  0  0  0
    9.6344  -16.0793   28.3487 O   0  0  0  0  0  0  0  0  0  0  0  0
    8.6663  -17.2347   26.6718 O   0  0  0  0  0  0  0  0  0  0  0  0
  2  1  1  6
  2  3  1  0
  4  3  1  0
  5  4  2  0
  6  2  1  0
  7  6  2  0
  8  4  1  0
  9  6  1  0
 10  9  1  0
 11 12  1  0
 10 11  1  1
 12 13  2  0
 13 14  1  0
 15 14  1  0
 16 12  1  0
 16 15  2  0
 17 18  2  0
 17 10  1  0
 20 19  1  1
 21 20  1  0
 23 22  1  1
 22 20  1  0
 23 24  1  0
 24 17  1  0
 25 23  1  0
 26 25  1  0
 27 25  2  0
M  END
$$$$
