DHL.pdb
     RDKit          3D

 27 27  0  0  1  0  0  0  0  0999 V2000
   13.1268  -14.5762   18.6041 N   0  0  0  0  0  0  0  0  0  0  0  0
   12.7152  -15.2541   19.8117 C   0  0  1  0  0  0  0  0  0  0  0  0
   13.7918  -15.0284   20.8798 C   0  0  0  0  0  0  0  0  0  0  0  0
   15.0592  -15.7190   20.4632 C   0  0  0  0  0  0  0  0  0  0  0  0
   16.1124  -15.0729   20.1912 O   0  0  0  0  0  0  0  0  0  0  0  0
   11.4862  -14.6050   20.3180 C   0  0  0  0  0  0  0  0  0  0  0  0
   11.4567  -13.3607   20.4267 O   0  0  0  0  0  0  0  0  0  0  0  0
   15.1260  -17.0971   20.3596 O   0  0  0  0  0  0  0  0  0  0  0  0
   10.3213  -15.3355   20.6921 N   0  0  0  0  0  0  0  0  0  0  0  0
    9.1055  -14.6973   21.1517 C   0  0  1  0  0  0  0  0  0  0  0  0
    7.9135  -15.1258   20.3318 C   0  0  0  0  0  0  0  0  0  0  0  0
    8.0000  -14.6548   18.9311 C   0  0  0  0  0  0  0  0  0  0  0  0
    8.1352  -13.3557   18.4510 C   0  0  0  0  0  0  0  0  0  0  0  0
    8.1741  -13.3742   17.1093 N   0  0  0  0  0  0  0  0  0  0  0  0
    8.0686  -14.6395   16.7145 C   0  0  0  0  0  0  0  0  0  0  0  0
    7.9625  -15.4201   17.8258 N   0  0  0  0  0  0  0  0  0  0  0  0
    8.8902  -14.8865   22.5999 C   0  0  0  0  0  0  0  0  0  0  0  0
    9.6315  -15.6754   23.2451 O   0  0  0  0  0  0  0  0  0  0  0  0
    5.4667  -12.3513   27.1462 C   0  0  0  0  0  0  0  0  0  0  0  0
    6.7030  -13.1280   26.7306 C   0  0  2  0  0  0  0  0  0  0  0  0
    7.8555  -12.9224   27.6452 C   0  0  0  0  0  0  0  0  0  0  0  0
    6.9487  -13.1900   25.2817 C   0  0  0  0  0  0  0  0  0  0  0  0
    7.8953  -14.2115   24.7788 C   0  0  2  0  0  0  0  0  0  0  0  0
    7.8672  -14.2074   23.3111 N   0  0  0  0  0  0  0  0  0  0  0  0
    7.5635  -15.5635   25.2038 C   0  0  0  0  0  0  0  0  0  0  0  0
    8.1666  -16.2491   26.2492 O   0  0  0  0  0  0  0  0  0  0  0  0
    6.6479  -16.2079   24.5829 O   0  0  0  0  0  0  0  0  0  0  0  0
  2  1  1  6
  2  3  1  0
  4  3  1  0
  5  4  2  0
  6  2  1  0
  7  6  2  0
  8  4  1  0
  9  6  1  0
 10  9  1  0
 11 12  1  0
 10 11  1  6
 12 13  2  0
 13 14  1  0
 15 14  1  0
 16 12  1  0
 16 15  2  0
 17 18  2  0
 17 10  1  0
 20 19  1  6
 21 20  1  0
 23 22  1  1
 22 20  1  0
 23 24  1  0
 24 17  1  0
 25 23  1  0
 26 25  1  0
 27 25  2  0
M  END
$$$$
