DHL.pdb
     RDKit          3D

 27 27  0  0  1  0  0  0  0  0999 V2000
   12.0476  -16.1782   18.9374 N   0  0  0  0  0  0  0  0  0  0  0  0
   12.5185  -15.4422   20.0880 C   0  0  1  0  0  0  0  0  0  0  0  0
   13.4517  -14.3291   19.5969 C   0  0  0  0  0  0  0  0  0  0  0  0
   14.7440  -14.9340   19.1267 C   0  0  0  0  0  0  0  0  0  0  0  0
   15.0410  -16.1406   19.3642 O   0  0  0  0  0  0  0  0  0  0  0  0
   11.3628  -14.7668   20.7175 C   0  0  0  0  0  0  0  0  0  0  0  0
   11.3565  -13.5199   20.7963 O   0  0  0  0  0  0  0  0  0  0  0  0
   15.6664  -14.1915   18.4110 O   0  0  0  0  0  0  0  0  0  0  0  0
   10.2439  -15.4745   21.2446 N   0  0  0  0  0  0  0  0  0  0  0  0
    9.1054  -14.8122   21.8460 C   0  0  1  0  0  0  0  0  0  0  0  0
    7.8468  -15.0433   21.0464 C   0  0  0  0  0  0  0  0  0  0  0  0
    7.9411  -14.4809   19.6804 C   0  0  0  0  0  0  0  0  0  0  0  0
    8.0190  -13.1489   19.2854 C   0  0  0  0  0  0  0  0  0  0  0  0
    8.0902  -13.0805   17.9466 N   0  0  0  0  0  0  0  0  0  0  0  0
    8.0605  -14.3222   17.4717 C   0  0  0  0  0  0  0  0  0  0  0  0
    7.9696  -15.1758   18.5293 N   0  0  0  0  0  0  0  0  0  0  0  0
    8.9417  -15.1681   23.2693 C   0  0  0  0  0  0  0  0  0  0  0  0
    9.7618  -15.9531   23.8166 O   0  0  0  0  0  0  0  0  0  0  0  0
    7.8904  -12.3372   27.0193 C   0  0  0  0  0  0  0  0  0  0  0  0
    6.7332  -12.8760   26.1977 C   0  0  2  0  0  0  0  0  0  0  0  0
    5.4775  -12.1039   26.3827 C   0  0  0  0  0  0  0  0  0  0  0  0
    6.6579  -14.3419   26.1038 C   0  0  0  0  0  0  0  0  0  0  0  0
    7.7895  -15.0584   25.4724 C   0  0  2  0  0  0  0  0  0  0  0  0
    7.8829  -14.6565   24.0636 N   0  0  0  0  0  0  0  0  0  0  0  0
    7.6366  -16.5058   25.4894 C   0  0  0  0  0  0  0  0  0  0  0  0
    7.8901  -17.3289   26.5779 O   0  0  0  0  0  0  0  0  0  0  0  0
    7.2422  -17.1061   24.4296 O   0  0  0  0  0  0  0  0  0  0  0  0
  2  1  1  6
  2  3  1  0
  4  3  1  0
  5  4  2  0
  6  2  1  0
  7  6  2  0
  8  4  1  0
  9  6  1  0
 10  9  1  0
 11 12  1  0
 10 11  1  6
 12 13  2  0
 13 14  1  0
 15 14  1  0
 16 12  1  0
 16 15  2  0
 17 18  2  0
 17 10  1  0
 20 19  1  1
 21 20  1  0
 23 22  1  6
 22 20  1  0
 23 24  1  0
 24 17  1  0
 25 23  1  0
 26 25  1  0
 27 25  2  0
M  END
$$$$
