DHL.pdb
     RDKit          3D

 27 27  0  0  1  0  0  0  0  0999 V2000
    9.8707  -18.9993   20.2047 N   0  0  0  0  0  0  0  0  0  0  0  0
    8.9524  -18.4522   21.1765 C   0  0  1  0  0  0  0  0  0  0  0  0
    9.1438  -19.2080   22.4967 C   0  0  0  0  0  0  0  0  0  0  0  0
    9.5738  -20.6177   22.2058 C   0  0  0  0  0  0  0  0  0  0  0  0
    9.3679  -21.1592   21.0810 O   0  0  0  0  0  0  0  0  0  0  0  0
    9.3338  -17.0481   21.4433 C   0  0  0  0  0  0  0  0  0  0  0  0
   10.5449  -16.7430   21.4758 O   0  0  0  0  0  0  0  0  0  0  0  0
   10.2159  -21.3848   23.1616 O   0  0  0  0  0  0  0  0  0  0  0  0
    8.3789  -16.0145   21.6677 N   0  0  0  0  0  0  0  0  0  0  0  0
    8.7521  -14.6608   22.0210 C   0  0  1  0  0  0  0  0  0  0  0  0
    7.8315  -13.6500   21.3825 C   0  0  0  0  0  0  0  0  0  0  0  0
    7.9120  -13.6758   19.9047 C   0  0  0  0  0  0  0  0  0  0  0  0
    8.3737  -12.6918   19.0356 C   0  0  0  0  0  0  0  0  0  0  0  0
    8.2713  -13.1262   17.7696 N   0  0  0  0  0  0  0  0  0  0  0  0
    7.7603  -14.3534   17.7985 C   0  0  0  0  0  0  0  0  0  0  0  0
    7.5414  -14.6881   19.1006 N   0  0  0  0  0  0  0  0  0  0  0  0
    8.8640  -14.4770   23.4815 C   0  0  0  0  0  0  0  0  0  0  0  0
    9.5037  -13.4935   23.9415 O   0  0  0  0  0  0  0  0  0  0  0  0
    8.5056  -12.3016   26.8284 C   0  0  0  0  0  0  0  0  0  0  0  0
    7.2748  -13.0584   26.3627 C   0  0  2  0  0  0  0  0  0  0  0  0
    6.0024  -12.3906   26.7396 C   0  0  0  0  0  0  0  0  0  0  0  0
    7.3637  -14.5234   26.4600 C   0  0  0  0  0  0  0  0  0  0  0  0
    8.5305  -15.1930   25.8415 C   0  0  2  0  0  0  0  0  0  0  0  0
    8.2725  -15.3746   24.4077 N   0  0  0  0  0  0  0  0  0  0  0  0
    8.7965  -16.5134   26.3932 C   0  0  0  0  0  0  0  0  0  0  0  0
    9.3116  -16.7686   27.6566 O   0  0  0  0  0  0  0  0  0  0  0  0
    8.5526  -17.5497   25.6822 O   0  0  0  0  0  0  0  0  0  0  0  0
  2  1  1  6
  2  3  1  0
  4  3  1  0
  5  4  2  0
  6  2  1  0
  7  6  2  0
  8  4  1  0
  9  6  1  0
 10  9  1  0
 11 12  1  0
 10 11  1  1
 12 13  2  0
 13 14  1  0
 15 14  1  0
 16 12  1  0
 16 15  2  0
 17 18  2  0
 17 10  1  0
 20 19  1  1
 21 20  1  0
 23 22  1  1
 22 20  1  0
 23 24  1  0
 24 17  1  0
 25 23  1  0
 26 25  1  0
 27 25  2  0
M  END
$$$$
