DHL.pdb
     RDKit          3D

 27 27  0  0  1  0  0  0  0  0999 V2000
   11.2532  -16.1130   18.5328 N   0  0  0  0  0  0  0  0  0  0  0  0
   11.7551  -15.8837   19.8680 C   0  0  1  0  0  0  0  0  0  0  0  0
   12.2929  -14.4496   19.9390 C   0  0  0  0  0  0  0  0  0  0  0  0
   13.7585  -14.4504   19.6089 C   0  0  0  0  0  0  0  0  0  0  0  0
   14.3989  -15.5249   19.4195 O   0  0  0  0  0  0  0  0  0  0  0  0
   10.6191  -15.9479   20.8133 C   0  0  0  0  0  0  0  0  0  0  0  0
    9.4770  -15.6376   20.4129 O   0  0  0  0  0  0  0  0  0  0  0  0
   14.4707  -13.2693   19.4983 O   0  0  0  0  0  0  0  0  0  0  0  0
   10.7634  -16.3504   22.1726 N   0  0  0  0  0  0  0  0  0  0  0  0
    9.6345  -16.5841   23.0487 C   0  0  1  0  0  0  0  0  0  0  0  0
    9.3780  -18.0591   23.2367 C   0  0  0  0  0  0  0  0  0  0  0  0
    8.8118  -18.6874   22.0218 C   0  0  0  0  0  0  0  0  0  0  0  0
    9.4248  -19.5439   21.1123 C   0  0  0  0  0  0  0  0  0  0  0  0
    8.5494  -19.8807   20.1519 N   0  0  0  0  0  0  0  0  0  0  0  0
    7.3982  -19.2697   20.4153 C   0  0  0  0  0  0  0  0  0  0  0  0
    7.5587  -18.5421   21.5557 N   0  0  0  0  0  0  0  0  0  0  0  0
    9.7680  -15.8676   24.3325 C   0  0  0  0  0  0  0  0  0  0  0  0
   10.9046  -15.7358   24.8606 O   0  0  0  0  0  0  0  0  0  0  0  0
    8.1371  -11.7763   25.6298 C   0  0  0  0  0  0  0  0  0  0  0  0
    7.1446  -12.9019   25.8594 C   0  0  2  0  0  0  0  0  0  0  0  0
    5.7454  -12.4246   26.0062 C   0  0  0  0  0  0  0  0  0  0  0  0
    7.6184  -13.9901   26.7281 C   0  0  0  0  0  0  0  0  0  0  0  0
    8.8522  -14.7081   26.3351 C   0  0  2  0  0  0  0  0  0  0  0  0
    8.6533  -15.3104   25.0111 N   0  0  0  0  0  0  0  0  0  0  0  0
    9.2032  -15.7904   27.2429 C   0  0  0  0  0  0  0  0  0  0  0  0
    9.1627  -17.1434   26.9357 O   0  0  0  0  0  0  0  0  0  0  0  0
    9.5804  -15.5108   28.4340 O   0  0  0  0  0  0  0  0  0  0  0  0
  2  1  1  6
  2  3  1  0
  4  3  1  0
  5  4  2  0
  6  2  1  0
  7  6  2  0
  8  4  1  0
  9  6  1  0
 10  9  1  0
 11 12  1  0
 10 11  1  1
 12 13  2  0
 13 14  1  0
 15 14  1  0
 16 12  1  0
 16 15  2  0
 17 18  2  0
 17 10  1  0
 20 19  1  1
 21 20  1  0
 23 22  1  1
 22 20  1  0
 23 24  1  0
 24 17  1  0
 25 23  1  0
 26 25  1  0
 27 25  2  0
M  END
$$$$
