DHL.pdb
     RDKit          3D

 27 27  0  0  1  0  0  0  0  0999 V2000
    9.7149  -18.3661   18.9986 N   0  0  0  0  0  0  0  0  0  0  0  0
   10.5649  -18.0773   20.1306 C   0  0  1  0  0  0  0  0  0  0  0  0
   11.2908  -16.7541   19.8607 C   0  0  0  0  0  0  0  0  0  0  0  0
   12.3967  -16.9855   18.8707 C   0  0  0  0  0  0  0  0  0  0  0  0
   12.9187  -18.1265   18.7084 O   0  0  0  0  0  0  0  0  0  0  0  0
    9.7075  -17.8464   21.3137 C   0  0  0  0  0  0  0  0  0  0  0  0
    8.6695  -17.1625   21.1879 O   0  0  0  0  0  0  0  0  0  0  0  0
   12.8916  -15.9543   18.0923 O   0  0  0  0  0  0  0  0  0  0  0  0
   10.0092  -18.3704   22.6040 N   0  0  0  0  0  0  0  0  0  0  0  0
    9.1126  -18.2454   23.7340 C   0  0  1  0  0  0  0  0  0  0  0  0
    9.2008  -19.4459   24.6439 C   0  0  0  0  0  0  0  0  0  0  0  0
    8.3624  -19.2929   25.8541 C   0  0  0  0  0  0  0  0  0  0  0  0
    8.7576  -19.1464   27.1804 C   0  0  0  0  0  0  0  0  0  0  0  0
    7.6726  -19.0390   27.9635 N   0  0  0  0  0  0  0  0  0  0  0  0
    6.5973  -19.1117   27.1846 C   0  0  0  0  0  0  0  0  0  0  0  0
    7.0185  -19.2665   25.8984 N   0  0  0  0  0  0  0  0  0  0  0  0
    9.3041  -16.9739   24.4592 C   0  0  0  0  0  0  0  0  0  0  0  0
   10.4530  -16.4608   24.5304 O   0  0  0  0  0  0  0  0  0  0  0  0
    8.3445  -12.6135   27.3389 C   0  0  0  0  0  0  0  0  0  0  0  0
    7.2123  -12.8889   26.3658 C   0  0  2  0  0  0  0  0  0  0  0  0
    5.9265  -12.2684   26.7765 C   0  0  0  0  0  0  0  0  0  0  0  0
    7.1953  -14.2414   25.7879 C   0  0  0  0  0  0  0  0  0  0  0  0
    8.4797  -14.9708   25.6845 C   0  0  2  0  0  0  0  0  0  0  0  0
    8.2330  -16.2908   25.0912 N   0  0  0  0  0  0  0  0  0  0  0  0
    9.1179  -15.1995   26.9725 C   0  0  0  0  0  0  0  0  0  0  0  0
   10.2116  -14.5004   27.4640 O   0  0  0  0  0  0  0  0  0  0  0  0
    8.6641  -16.1166   27.7420 O   0  0  0  0  0  0  0  0  0  0  0  0
  2  1  1  6
  2  3  1  0
  4  3  1  0
  5  4  2  0
  6  2  1  0
  7  6  2  0
  8  4  1  0
  9  6  1  0
 10  9  1  0
 11 12  1  0
 10 11  1  1
 12 13  2  0
 13 14  1  0
 15 14  1  0
 16 12  1  0
 16 15  2  0
 17 18  2  0
 17 10  1  0
 20 19  1  1
 21 20  1  0
 23 22  1  1
 22 20  1  0
 23 24  1  0
 24 17  1  0
 25 23  1  0
 26 25  1  0
 27 25  2  0
M  END
$$$$
