GVC.pdb
     RDKit          3D

 18 17  0  0  1  0  0  0  0  0999 V2000
   24.6996  -20.8997   -9.0173 N   0  0  0  0  0  0  0  0  0  0  0  0
   24.4903  -21.0513  -10.4417 C   0  0  0  0  0  0  0  0  0  0  0  0
   25.4305  -20.1736  -11.1722 C   0  0  0  0  0  0  0  0  0  0  0  0
   26.0317  -19.2787  -10.5395 O   0  0  0  0  0  0  0  0  0  0  0  0
   27.0680  -21.2322  -14.9088 C   0  0  0  0  0  0  0  0  0  0  0  0
   27.6205  -20.2640  -13.9291 C   0  0  2  0  0  0  0  0  0  0  0  0
   28.5007  -20.9861  -12.9403 C   0  0  0  0  0  0  0  0  0  0  0  0
   26.5886  -19.3977  -13.2987 C   0  0  2  0  0  0  0  0  0  0  0  0
   25.6783  -20.3075  -12.5679 N   0  0  0  0  0  0  0  0  0  0  0  0
   25.8283  -18.5255  -14.1860 C   0  0  0  0  0  0  0  0  0  0  0  0
   24.7553  -18.9078  -14.7782 O   0  0  0  0  0  0  0  0  0  0  0  0
   26.1996  -17.1948  -14.4676 N   0  0  0  0  0  0  0  0  0  0  0  0
   25.4137  -16.3506  -15.3846 C   0  0  1  0  0  0  0  0  0  0  0  0
   25.7231  -14.9209  -14.9898 C   0  0  0  0  0  0  0  0  0  0  0  0
   24.7760  -13.8387  -16.0877 S   0  0  0  0  0  0  0  0  0  0  0  0
   25.8190  -16.6249  -16.7888 C   0  0  0  0  0  0  0  0  0  0  0  0
   24.8637  -16.6169  -17.7781 O   0  0  0  0  0  0  0  0  0  0  0  0
   27.0076  -16.8638  -17.0986 O   0  0  0  0  0  0  0  0  0  0  0  0
  2  3  1  0
  2  1  1  0
  3  4  2  0
  6  5  1  1
  6  7  1  0
  6  8  1  0
  8 10  1  0
  8  9  1  6
  9  3  1  0
 10 11  2  0
 10 12  1  0
 12 13  1  0
 13 16  1  0
 13 14  1  1
 14 15  1  0
 16 18  2  0
 16 17  1  0
M  END
$$$$
