GVC.pdb
     RDKit          3D

 18 17  0  0  1  0  0  0  0  0999 V2000
   20.7077  -33.6465   -7.5441 N   0  0  0  0  0  0  0  0  0  0  0  0
   21.8141  -32.9630   -8.1799 C   0  0  0  0  0  0  0  0  0  0  0  0
   23.0877  -33.5642   -7.7276 C   0  0  0  0  0  0  0  0  0  0  0  0
   23.0478  -34.5916   -7.0166 O   0  0  0  0  0  0  0  0  0  0  0  0
   27.7530  -32.5940   -8.3935 C   0  0  0  0  0  0  0  0  0  0  0  0
   26.5821  -33.4134   -8.7935 C   0  0  2  0  0  0  0  0  0  0  0  0
   25.9425  -32.8213  -10.0241 C   0  0  0  0  0  0  0  0  0  0  0  0
   25.6276  -33.6733   -7.6826 C   0  0  2  0  0  0  0  0  0  0  0  0
   24.3577  -33.0191   -8.0698 N   0  0  0  0  0  0  0  0  0  0  0  0
   26.0337  -33.2425   -6.3501 C   0  0  0  0  0  0  0  0  0  0  0  0
   26.0406  -32.0089   -5.9946 O   0  0  0  0  0  0  0  0  0  0  0  0
   26.4486  -34.1357   -5.3411 N   0  0  0  0  0  0  0  0  0  0  0  0
   26.7943  -33.6665   -3.9878 C   0  0  1  0  0  0  0  0  0  0  0  0
   25.4836  -33.2470   -3.3538 C   0  0  0  0  0  0  0  0  0  0  0  0
   24.4822  -34.7390   -3.1423 S   0  0  0  0  0  0  0  0  0  0  0  0
   27.4370  -34.7692   -3.2247 C   0  0  0  0  0  0  0  0  0  0  0  0
   27.9255  -34.5185   -1.9638 O   0  0  0  0  0  0  0  0  0  0  0  0
   27.5473  -35.9226   -3.6971 O   0  0  0  0  0  0  0  0  0  0  0  0
  2  3  1  0
  2  1  1  0
  3  4  2  0
  6  5  1  1
  6  7  1  0
  6  8  1  0
  8 10  1  0
  8  9  1  6
  9  3  1  0
 10 11  2  0
 10 12  1  0
 12 13  1  0
 13 16  1  0
 13 14  1  1
 14 15  1  0
 16 18  2  0
 16 17  1  0
M  END
$$$$
