GVC.pdb
     RDKit          3D

 18 17  0  0  1  0  0  0  0  0999 V2000
   11.4674  -12.0868  -10.6734 N   0  0  0  0  0  0  0  0  0  0  0  0
   12.3418  -11.3675  -11.5753 C   0  0  0  0  0  0  0  0  0  0  0  0
   13.4813  -10.8104  -10.8143 C   0  0  0  0  0  0  0  0  0  0  0  0
   13.4491  -10.8558   -9.5654 O   0  0  0  0  0  0  0  0  0  0  0  0
   16.9709   -9.0655  -12.7561 C   0  0  0  0  0  0  0  0  0  0  0  0
   16.9477   -9.8008  -11.4672 C   0  0  2  0  0  0  0  0  0  0  0  0
   17.2783  -11.2530  -11.7033 C   0  0  0  0  0  0  0  0  0  0  0  0
   15.7049   -9.5849  -10.6788 C   0  0  2  0  0  0  0  0  0  0  0  0
   14.6138  -10.2244  -11.4475 N   0  0  0  0  0  0  0  0  0  0  0  0
   15.3584   -8.2051  -10.3591 C   0  0  0  0  0  0  0  0  0  0  0  0
   14.7145   -7.4480  -11.1719 O   0  0  0  0  0  0  0  0  0  0  0  0
   15.6943   -7.5860   -9.1377 N   0  0  0  0  0  0  0  0  0  0  0  0
   15.3197   -6.1903   -8.8498 C   0  0  1  0  0  0  0  0  0  0  0  0
   14.5384   -6.2364   -7.5525 C   0  0  0  0  0  0  0  0  0  0  0  0
   14.1916   -4.5280   -7.0680 S   0  0  0  0  0  0  0  0  0  0  0  0
   16.5463   -5.3606   -8.7146 C   0  0  0  0  0  0  0  0  0  0  0  0
   16.5662   -4.0968   -9.2566 O   0  0  0  0  0  0  0  0  0  0  0  0
   17.5648   -5.7793   -8.1202 O   0  0  0  0  0  0  0  0  0  0  0  0
  2  3  1  0
  2  1  1  0
  3  4  2  0
  6  5  1  6
  6  7  1  0
  6  8  1  0
  8 10  1  0
  8  9  1  6
  9  3  1  0
 10 11  2  0
 10 12  1  0
 12 13  1  0
 13 16  1  0
 13 14  1  1
 14 15  1  0
 16 18  2  0
 16 17  1  0
M  END
$$$$
