GVC.pdb
     RDKit          3D

 18 17  0  0  1  0  0  0  0  0999 V2000
   21.5780  -12.5568  -19.7532 N   0  0  0  0  0  0  0  0  0  0  0  0
   22.4517  -11.5265  -19.2329 C   0  0  0  0  0  0  0  0  0  0  0  0
   21.7627  -10.8035  -18.1418 C   0  0  0  0  0  0  0  0  0  0  0  0
   20.5410  -10.5652  -18.2569 O   0  0  0  0  0  0  0  0  0  0  0  0
   21.5883   -9.5869  -13.4117 C   0  0  0  0  0  0  0  0  0  0  0  0
   22.1644  -10.2425  -14.6120 C   0  0  2  0  0  0  0  0  0  0  0  0
   23.6584  -10.3727  -14.4536 C   0  0  0  0  0  0  0  0  0  0  0  0
   21.7455   -9.6152  -15.8941 C   0  0  2  0  0  0  0  0  0  0  0  0
   22.4357  -10.3679  -16.9652 N   0  0  0  0  0  0  0  0  0  0  0  0
   21.9919   -8.1854  -16.0398 C   0  0  0  0  0  0  0  0  0  0  0  0
   23.1575   -7.7064  -16.2855 O   0  0  0  0  0  0  0  0  0  0  0  0
   20.9797   -7.2104  -15.9279 N   0  0  0  0  0  0  0  0  0  0  0  0
   21.2809   -5.7704  -16.0108 C   0  0  1  0  0  0  0  0  0  0  0  0
   20.3801   -5.2268  -17.1011 C   0  0  0  0  0  0  0  0  0  0  0  0
   20.9779   -5.8862  -18.6764 S   0  0  0  0  0  0  0  0  0  0  0  0
   20.9983   -5.1238  -14.7018 C   0  0  0  0  0  0  0  0  0  0  0  0
   21.5924   -3.9195  -14.4047 O   0  0  0  0  0  0  0  0  0  0  0  0
   20.2334   -5.6443  -13.8594 O   0  0  0  0  0  0  0  0  0  0  0  0
  2  3  1  0
  2  1  1  0
  3  4  2  0
  6  5  1  1
  6  7  1  0
  6  8  1  0
  8 10  1  0
  8  9  1  6
  9  3  1  0
 10 11  2  0
 10 12  1  0
 12 13  1  0
 13 16  1  0
 13 14  1  6
 14 15  1  0
 16 18  2  0
 16 17  1  0
M  END
$$$$
