GVC.pdb
     RDKit          3D

 18 17  0  0  1  0  0  0  0  0999 V2000
   11.7338  -13.7155  -10.5393 N   0  0  0  0  0  0  0  0  0  0  0  0
   12.1399  -12.6622  -11.4455 C   0  0  0  0  0  0  0  0  0  0  0  0
   13.3995  -12.0565  -10.9613 C   0  0  0  0  0  0  0  0  0  0  0  0
   13.7936  -12.3316   -9.8074 O   0  0  0  0  0  0  0  0  0  0  0  0
   16.1773  -10.0384  -13.5601 C   0  0  0  0  0  0  0  0  0  0  0  0
   16.4541  -10.7412  -12.2826 C   0  0  2  0  0  0  0  0  0  0  0  0
   16.7567  -12.1931  -12.5553 C   0  0  0  0  0  0  0  0  0  0  0  0
   15.4104  -10.5265  -11.2447 C   0  0  2  0  0  0  0  0  0  0  0  0
   14.1813  -11.1721  -11.7574 N   0  0  0  0  0  0  0  0  0  0  0  0
   15.1359   -9.1467  -10.8613 C   0  0  0  0  0  0  0  0  0  0  0  0
   14.2933   -8.4094  -11.4895 O   0  0  0  0  0  0  0  0  0  0  0  0
   15.7642   -8.5061   -9.7737 N   0  0  0  0  0  0  0  0  0  0  0  0
   15.5210   -7.0854   -9.4679 C   0  0  1  0  0  0  0  0  0  0  0  0
   15.6401   -6.9655   -7.9622 C   0  0  0  0  0  0  0  0  0  0  0  0
   15.5049   -5.2099   -7.5462 S   0  0  0  0  0  0  0  0  0  0  0  0
   16.5328   -6.2440  -10.1604 C   0  0  0  0  0  0  0  0  0  0  0  0
   16.1479   -5.0414  -10.7053 O   0  0  0  0  0  0  0  0  0  0  0  0
   17.7285   -6.5986  -10.2625 O   0  0  0  0  0  0  0  0  0  0  0  0
  2  3  1  0
  2  1  1  0
  3  4  2  0
  6  5  1  6
  6  7  1  0
  6  8  1  0
  8 10  1  0
  8  9  1  6
  9  3  1  0
 10 11  2  0
 10 12  1  0
 12 13  1  0
 13 16  1  0
 13 14  1  1
 14 15  1  0
 16 18  2  0
 16 17  1  0
M  END
$$$$
