GVC.pdb
     RDKit          3D

 18 17  0  0  1  0  0  0  0  0999 V2000
   19.5339  -12.5625  -18.7471 N   0  0  0  0  0  0  0  0  0  0  0  0
   20.4951  -11.4816  -18.8027 C   0  0  0  0  0  0  0  0  0  0  0  0
   20.6541  -10.8961  -17.4536 C   0  0  0  0  0  0  0  0  0  0  0  0
   19.6722  -10.8948  -16.6799 O   0  0  0  0  0  0  0  0  0  0  0  0
   24.4810  -10.1700  -15.6866 C   0  0  0  0  0  0  0  0  0  0  0  0
   23.1833  -10.4453  -15.0213 C   0  0  2  0  0  0  0  0  0  0  0  0
   22.9920  -11.9339  -14.8743 C   0  0  0  0  0  0  0  0  0  0  0  0
   22.0299   -9.7475  -15.6502 C   0  0  2  0  0  0  0  0  0  0  0  0
   21.8812  -10.3338  -17.0009 N   0  0  0  0  0  0  0  0  0  0  0  0
   22.1051   -8.2937  -15.7342 C   0  0  0  0  0  0  0  0  0  0  0  0
   22.8635   -7.6882  -16.5746 O   0  0  0  0  0  0  0  0  0  0  0  0
   21.3552   -7.4312  -14.9086 N   0  0  0  0  0  0  0  0  0  0  0  0
   21.4431   -5.9662  -15.0393 C   0  0  1  0  0  0  0  0  0  0  0  0
   20.0157   -5.4839  -15.1989 C   0  0  0  0  0  0  0  0  0  0  0  0
   19.4097   -6.1017  -16.7878 S   0  0  0  0  0  0  0  0  0  0  0  0
   22.0762   -5.3922  -13.8223 C   0  0  0  0  0  0  0  0  0  0  0  0
   22.4107   -4.0583  -13.8039 O   0  0  0  0  0  0  0  0  0  0  0  0
   22.3146   -6.0889  -12.8106 O   0  0  0  0  0  0  0  0  0  0  0  0
  2  3  1  0
  2  1  1  0
  3  4  2  0
  6  5  1  6
  6  7  1  0
  6  8  1  0
  8 10  1  0
  8  9  1  6
  9  3  1  0
 10 11  2  0
 10 12  1  0
 12 13  1  0
 13 16  1  0
 13 14  1  1
 14 15  1  0
 16 18  2  0
 16 17  1  0
M  END
$$$$
