GVC.pdb
     RDKit          3D

 18 17  0  0  1  0  0  0  0  0999 V2000
   15.2730  -13.1931  -13.0034 N   0  0  0  0  0  0  0  0  0  0  0  0
   15.3959  -12.7467  -11.6318 C   0  0  0  0  0  0  0  0  0  0  0  0
   15.0215  -11.3184  -11.5450 C   0  0  0  0  0  0  0  0  0  0  0  0
   14.7466  -10.7044  -12.5986 O   0  0  0  0  0  0  0  0  0  0  0  0
   13.6195   -9.6645   -7.9058 C   0  0  0  0  0  0  0  0  0  0  0  0
   13.2713   -9.2916   -9.2994 C   0  0  2  0  0  0  0  0  0  0  0  0
   12.1524  -10.1712   -9.7976 C   0  0  0  0  0  0  0  0  0  0  0  0
   14.4442   -9.2314  -10.2123 C   0  0  2  0  0  0  0  0  0  0  0  0
   14.9618  -10.6146  -10.3087 N   0  0  0  0  0  0  0  0  0  0  0  0
   15.5168   -8.3133   -9.8478 C   0  0  0  0  0  0  0  0  0  0  0  0
   16.3471   -8.5615   -8.9005 O   0  0  0  0  0  0  0  0  0  0  0  0
   15.7373   -7.0829  -10.5002 N   0  0  0  0  0  0  0  0  0  0  0  0
   16.7958   -6.1555  -10.0640 C   0  0  1  0  0  0  0  0  0  0  0  0
   17.5364   -5.7587  -11.3249 C   0  0  0  0  0  0  0  0  0  0  0  0
   18.3261   -7.2486  -11.9807 S   0  0  0  0  0  0  0  0  0  0  0  0
   16.1837   -4.9738   -9.4004 C   0  0  0  0  0  0  0  0  0  0  0  0
   16.9707   -4.1563   -8.6234 O   0  0  0  0  0  0  0  0  0  0  0  0
   14.9694   -4.6998   -9.5283 O   0  0  0  0  0  0  0  0  0  0  0  0
  2  3  1  0
  2  1  1  0
  3  4  2  0
  6  5  1  1
  6  7  1  0
  6  8  1  0
  8 10  1  0
  8  9  1  1
  9  3  1  0
 10 11  2  0
 10 12  1  0
 12 13  1  0
 13 16  1  0
 13 14  1  6
 14 15  1  0
 16 18  2  0
 16 17  1  0
M  END
$$$$
