GVC.pdb
     RDKit          3D

 18 17  0  0  1  0  0  0  0  0999 V2000
   24.5265  -16.1453  -16.3085 N   0  0  0  0  0  0  0  0  0  0  0  0
   25.0918  -16.5786  -15.0483 C   0  0  0  0  0  0  0  0  0  0  0  0
   25.4451  -18.0123  -15.1357 C   0  0  0  0  0  0  0  0  0  0  0  0
   24.9932  -18.6853  -16.0874 O   0  0  0  0  0  0  0  0  0  0  0  0
   28.5438  -21.6271  -14.1700 C   0  0  0  0  0  0  0  0  0  0  0  0
   28.0481  -20.2329  -14.0563 C   0  0  2  0  0  0  0  0  0  0  0  0
   28.5621  -19.6118  -12.7820 C   0  0  0  0  0  0  0  0  0  0  0  0
   26.5774  -20.1052  -14.2399 C   0  0  2  0  0  0  0  0  0  0  0  0
   26.2795  -18.6567  -14.1789 N   0  0  0  0  0  0  0  0  0  0  0  0
   25.7304  -20.8365  -13.3051 C   0  0  0  0  0  0  0  0  0  0  0  0
   25.5907  -22.1119  -13.3515 O   0  0  0  0  0  0  0  0  0  0  0  0
   24.9982  -20.2133  -12.2739 N   0  0  0  0  0  0  0  0  0  0  0  0
   24.1499  -20.9880  -11.3513 C   0  0  1  0  0  0  0  0  0  0  0  0
   24.4768  -20.4715   -9.9649 C   0  0  0  0  0  0  0  0  0  0  0  0
   26.2027  -20.8932   -9.6227 S   0  0  0  0  0  0  0  0  0  0  0  0
   22.7175  -20.7709  -11.6867 C   0  0  0  0  0  0  0  0  0  0  0  0
   21.7498  -21.4144  -10.9513 O   0  0  0  0  0  0  0  0  0  0  0  0
   22.3648  -20.0175  -12.6214 O   0  0  0  0  0  0  0  0  0  0  0  0
  2  3  1  0
  2  1  1  0
  3  4  2  0
  6  5  1  1
  6  7  1  0
  6  8  1  0
  8 10  1  0
  8  9  1  1
  9  3  1  0
 10 11  2  0
 10 12  1  0
 12 13  1  0
 13 16  1  0
 13 14  1  1
 14 15  1  0
 16 18  2  0
 16 17  1  0
M  END
$$$$
