GVC.pdb
     RDKit          3D

 18 17  0  0  1  0  0  0  0  0999 V2000
   26.2318  -21.7608  -10.5227 N   0  0  0  0  0  0  0  0  0  0  0  0
   25.1063  -21.0314  -11.0673 C   0  0  0  0  0  0  0  0  0  0  0  0
   25.3233  -20.8010  -12.5122 C   0  0  0  0  0  0  0  0  0  0  0  0
   26.3761  -21.2247  -13.0365 O   0  0  0  0  0  0  0  0  0  0  0  0
   23.5358  -21.1161  -16.8045 C   0  0  0  0  0  0  0  0  0  0  0  0
   23.3632  -20.7510  -15.3765 C   0  0  2  0  0  0  0  0  0  0  0  0
   22.0468  -20.0400  -15.1881 C   0  0  0  0  0  0  0  0  0  0  0  0
   24.5282  -20.0275  -14.8001 C   0  0  2  0  0  0  0  0  0  0  0  0
   24.3808  -20.1156  -13.3300 N   0  0  0  0  0  0  0  0  0  0  0  0
   24.7105  -18.6398  -15.2088 C   0  0  0  0  0  0  0  0  0  0  0  0
   24.0792  -17.6679  -14.6564 O   0  0  0  0  0  0  0  0  0  0  0  0
   25.5912  -18.2452  -16.2366 N   0  0  0  0  0  0  0  0  0  0  0  0
   25.7497  -16.8309  -16.6182 C   0  0  1  0  0  0  0  0  0  0  0  0
   27.2016  -16.6773  -17.0231 C   0  0  0  0  0  0  0  0  0  0  0  0
   28.2106  -17.0126  -15.5593 S   0  0  0  0  0  0  0  0  0  0  0  0
   24.8356  -16.5115  -17.7468 C   0  0  0  0  0  0  0  0  0  0  0  0
   24.5914  -15.1954  -18.0625 O   0  0  0  0  0  0  0  0  0  0  0  0
   24.2797  -17.4076  -18.4205 O   0  0  0  0  0  0  0  0  0  0  0  0
  2  3  1  0
  2  1  1  0
  3  4  2  0
  6  5  1  6
  6  7  1  0
  6  8  1  0
  8 10  1  0
  8  9  1  1
  9  3  1  0
 10 11  2  0
 10 12  1  0
 12 13  1  0
 13 16  1  0
 13 14  1  6
 14 15  1  0
 16 18  2  0
 16 17  1  0
M  END
$$$$
