GVC.pdb
     RDKit          3D

 18 17  0  0  1  0  0  0  0  0999 V2000
   17.3945  -12.9103  -14.9975 N   0  0  0  0  0  0  0  0  0  0  0  0
   16.8106  -11.5891  -14.9036 C   0  0  0  0  0  0  0  0  0  0  0  0
   17.7463  -10.5970  -15.4765 C   0  0  0  0  0  0  0  0  0  0  0  0
   18.8702  -10.9846  -15.8629 O   0  0  0  0  0  0  0  0  0  0  0  0
   16.3264   -6.9390  -16.9122 C   0  0  0  0  0  0  0  0  0  0  0  0
   17.5694   -7.6201  -17.3524 C   0  0  2  0  0  0  0  0  0  0  0  0
   17.2586   -8.5641  -18.4864 C   0  0  0  0  0  0  0  0  0  0  0  0
   18.3345   -8.2440  -16.2397 C   0  0  2  0  0  0  0  0  0  0  0  0
   17.4179   -9.2176  -15.6054 N   0  0  0  0  0  0  0  0  0  0  0  0
   18.8912   -7.3441  -15.2365 C   0  0  0  0  0  0  0  0  0  0  0  0
   18.2309   -6.9703  -14.2009 O   0  0  0  0  0  0  0  0  0  0  0  0
   20.1944   -6.8116  -15.3127 N   0  0  0  0  0  0  0  0  0  0  0  0
   20.7222   -5.9084  -14.2750 C   0  0  1  0  0  0  0  0  0  0  0  0
   21.9921   -6.5634  -13.7709 C   0  0  0  0  0  0  0  0  0  0  0  0
   22.7509   -5.4303  -12.5819 S   0  0  0  0  0  0  0  0  0  0  0  0
   20.9996   -4.5730  -14.8677 C   0  0  0  0  0  0  0  0  0  0  0  0
   21.1391   -4.4583  -16.2310 O   0  0  0  0  0  0  0  0  0  0  0  0
   21.1104   -3.5467  -14.1605 O   0  0  0  0  0  0  0  0  0  0  0  0
  2  3  1  0
  2  1  1  0
  3  4  2  0
  6  5  1  1
  6  7  1  0
  6  8  1  0
  8 10  1  0
  8  9  1  1
  9  3  1  0
 10 11  2  0
 10 12  1  0
 12 13  1  0
 13 16  1  0
 13 14  1  6
 14 15  1  0
 16 18  2  0
 16 17  1  0
M  END
$$$$
