LVM.pdb
     RDKit          3D

 24 23  0  0  1  0  0  0  0  0999 V2000
    7.5090  -12.1428   19.2412 C   0  0  0  0  0  0  0  0  0  0  0  0
    8.0173  -13.5628   19.1063 C   0  0  1  0  0  0  0  0  0  0  0  0
    9.3604  -13.5599   18.3815 C   0  0  0  0  0  0  0  0  0  0  0  0
    8.1074  -14.2462   20.4165 C   0  0  0  0  0  0  0  0  0  0  0  0
    8.4714  -15.7046   20.3112 C   0  0  2  0  0  0  0  0  0  0  0  0
    7.2648  -16.3753   19.7461 N   0  0  0  0  0  0  0  0  0  0  0  0
    8.6834  -16.3400   21.6569 C   0  0  0  0  0  0  0  0  0  0  0  0
    7.6737  -16.6428   22.3575 O   0  0  0  0  0  0  0  0  0  0  0  0
   12.5360  -17.9510   23.0612 C   0  0  0  0  0  0  0  0  0  0  0  0
   11.1683  -18.2111   23.5826 C   0  0  2  0  0  0  0  0  0  0  0  0
   10.5900  -19.3883   22.7825 C   0  0  0  0  0  0  0  0  0  0  0  0
   10.2025  -17.1030   23.4957 C   0  0  2  0  0  0  0  0  0  0  0  0
    9.9788  -16.6125   22.1629 N   0  0  0  0  0  0  0  0  0  0  0  0
   10.3222  -16.0194   24.4839 C   0  0  0  0  0  0  0  0  0  0  0  0
   10.7931  -14.9228   24.1226 O   0  0  0  0  0  0  0  0  0  0  0  0
    6.6921  -12.0036   25.9661 C   0  0  0  0  0  0  0  0  0  0  0  0
    6.9463  -12.4995   27.7106 S   0  0  0  0  0  0  0  0  0  0  0  0
    8.5903  -13.2859   27.7947 C   0  0  0  0  0  0  0  0  0  0  0  0
    8.6147  -14.3988   26.7819 C   0  0  0  0  0  0  0  0  0  0  0  0
    9.9656  -15.0585   26.7868 C   0  0  2  0  0  0  0  0  0  0  0  0
    9.9267  -16.1634   25.8294 N   0  0  0  0  0  0  0  0  0  0  0  0
   10.3890  -15.5211   28.1137 C   0  0  0  0  0  0  0  0  0  0  0  0
   10.6320  -14.6963   29.0254 O   0  0  0  0  0  0  0  0  0  0  0  0
   10.5188  -16.8672   28.3546 O   0  0  0  0  0  0  0  0  0  0  0  0
  2  1  1  1
  3  2  1  0
  4  2  1  0
  4  5  1  0
  5  6  1  1
  5  7  1  0
  7  8  2  0
 10  9  1  6
 10 11  1  0
 12 10  1  0
 13  7  1  0
 12 13  1  6
 14 12  1  0
 14 15  2  0
 16 17  1  0
 17 18  1  0
 18 19  1  0
 20 19  1  1
 20 21  1  0
 21 14  1  0
 22 24  1  0
 22 20  1  0
 23 22  2  0
M  END
$$$$
