LVM.pdb
     RDKit          3D

 24 23  0  0  1  0  0  0  0  0999 V2000
   12.9691  -21.3765   20.1168 C   0  0  0  0  0  0  0  0  0  0  0  0
   12.5635  -20.0988   19.4127 C   0  0  1  0  0  0  0  0  0  0  0  0
   11.2282  -20.3060   18.7033 C   0  0  0  0  0  0  0  0  0  0  0  0
   12.5137  -18.9463   20.3406 C   0  0  0  0  0  0  0  0  0  0  0  0
   11.9042  -17.7095   19.7327 C   0  0  2  0  0  0  0  0  0  0  0  0
   13.0370  -16.9843   19.0878 N   0  0  0  0  0  0  0  0  0  0  0  0
   11.3701  -16.7645   20.7725 C   0  0  0  0  0  0  0  0  0  0  0  0
   12.1746  -15.9882   21.3660 O   0  0  0  0  0  0  0  0  0  0  0  0
    7.6752  -14.2096   22.7706 C   0  0  0  0  0  0  0  0  0  0  0  0
    8.1911  -15.2155   21.8052 C   0  0  2  0  0  0  0  0  0  0  0  0
    7.1384  -16.3295   21.6990 C   0  0  0  0  0  0  0  0  0  0  0  0
    9.4763  -15.8542   22.1348 C   0  0  2  0  0  0  0  0  0  0  0  0
    9.9936  -16.7148   21.1058 N   0  0  0  0  0  0  0  0  0  0  0  0
    9.6220  -16.4315   23.4803 C   0  0  0  0  0  0  0  0  0  0  0  0
    9.6199  -17.6719   23.6080 O   0  0  0  0  0  0  0  0  0  0  0  0
    9.2060  -12.8743   28.6732 C   0  0  0  0  0  0  0  0  0  0  0  0
   10.9005  -13.5459   28.8507 S   0  0  0  0  0  0  0  0  0  0  0  0
   10.9475  -15.1006   27.8972 C   0  0  0  0  0  0  0  0  0  0  0  0
    9.7578  -15.1052   26.9754 C   0  0  0  0  0  0  0  0  0  0  0  0
    9.8948  -16.2211   25.9774 C   0  0  2  0  0  0  0  0  0  0  0  0
    9.7647  -15.6430   24.6402 N   0  0  0  0  0  0  0  0  0  0  0  0
    8.9336  -17.3116   26.1794 C   0  0  0  0  0  0  0  0  0  0  0  0
    7.7576  -17.2069   25.7592 O   0  0  0  0  0  0  0  0  0  0  0  0
    9.3286  -18.4531   26.8335 O   0  0  0  0  0  0  0  0  0  0  0  0
  2  1  1  1
  3  2  1  0
  4  2  1  0
  4  5  1  0
  5  6  1  1
  5  7  1  0
  7  8  2  0
 10  9  1  1
 10 11  1  0
 12 10  1  0
 13  7  1  0
 12 13  1  6
 14 12  1  0
 14 15  2  0
 16 17  1  0
 17 18  1  0
 18 19  1  0
 20 19  1  1
 20 21  1  0
 21 14  1  0
 22 24  1  0
 22 20  1  0
 23 22  2  0
M  END
$$$$
