LVM.pdb
     RDKit          3D

 24 23  0  0  1  0  0  0  0  0999 V2000
    9.5891  -12.7514   19.3792 C   0  0  0  0  0  0  0  0  0  0  0  0
    8.2670  -13.4143   19.7038 C   0  0  1  0  0  0  0  0  0  0  0  0
    7.1476  -12.3782   19.6525 C   0  0  0  0  0  0  0  0  0  0  0  0
    7.9880  -14.5616   18.8107 C   0  0  0  0  0  0  0  0  0  0  0  0
    8.9493  -15.7087   18.9858 C   0  0  2  0  0  0  0  0  0  0  0  0
    8.4317  -16.7982   18.1082 N   0  0  0  0  0  0  0  0  0  0  0  0
    8.9181  -16.2740   20.3783 C   0  0  0  0  0  0  0  0  0  0  0  0
    7.8172  -16.6857   20.8480 O   0  0  0  0  0  0  0  0  0  0  0  0
   10.7750  -19.3061   21.6621 C   0  0  0  0  0  0  0  0  0  0  0  0
   11.0303  -18.1477   22.5584 C   0  0  2  0  0  0  0  0  0  0  0  0
   10.9737  -18.6663   24.0035 C   0  0  0  0  0  0  0  0  0  0  0  0
   10.0960  -17.0138   22.4607 C   0  0  2  0  0  0  0  0  0  0  0  0
   10.0839  -16.3622   21.1792 N   0  0  0  0  0  0  0  0  0  0  0  0
   10.0677  -16.0593   23.5801 C   0  0  0  0  0  0  0  0  0  0  0  0
   11.0340  -15.2875   23.7394 O   0  0  0  0  0  0  0  0  0  0  0  0
    5.6453  -12.0264   25.9519 C   0  0  0  0  0  0  0  0  0  0  0  0
    7.2873  -12.0383   26.7626 S   0  0  0  0  0  0  0  0  0  0  0  0
    7.6472  -13.7762   27.1852 C   0  0  0  0  0  0  0  0  0  0  0  0
    7.6719  -14.5610   25.9013 C   0  0  0  0  0  0  0  0  0  0  0  0
    9.0391  -15.1510   25.6946 C   0  0  2  0  0  0  0  0  0  0  0  0
    8.9920  -15.9757   24.4876 N   0  0  0  0  0  0  0  0  0  0  0  0
    9.5269  -15.9215   26.8446 C   0  0  0  0  0  0  0  0  0  0  0  0
    9.3598  -17.1626   26.8936 O   0  0  0  0  0  0  0  0  0  0  0  0
   10.1702  -15.2753   27.8719 O   0  0  0  0  0  0  0  0  0  0  0  0
  2  1  1  6
  3  2  1  0
  4  2  1  0
  4  5  1  0
  5  6  1  6
  5  7  1  0
  7  8  2  0
 10  9  1  6
 10 11  1  0
 12 10  1  0
 13  7  1  0
 12 13  1  6
 14 12  1  0
 14 15  2  0
 16 17  1  0
 17 18  1  0
 18 19  1  0
 20 19  1  1
 20 21  1  0
 21 14  1  0
 22 24  1  0
 22 20  1  0
 23 22  2  0
M  END
$$$$
