LVM.pdb
     RDKit          3D

 24 23  0  0  1  0  0  0  0  0999 V2000
    6.3545  -12.0406   27.3611 C   0  0  0  0  0  0  0  0  0  0  0  0
    6.0947  -12.7747   26.0625 C   0  0  1  0  0  0  0  0  0  0  0  0
    6.3601  -11.8418   24.8842 C   0  0  0  0  0  0  0  0  0  0  0  0
    6.8895  -14.0196   25.9608 C   0  0  0  0  0  0  0  0  0  0  0  0
    6.5747  -14.8366   24.7344 C   0  0  2  0  0  0  0  0  0  0  0  0
    5.4128  -15.6915   25.1142 N   0  0  0  0  0  0  0  0  0  0  0  0
    7.6772  -15.7982   24.3890 C   0  0  0  0  0  0  0  0  0  0  0  0
    7.8095  -16.8519   25.0778 O   0  0  0  0  0  0  0  0  0  0  0  0
    9.1850  -16.5570   20.5764 C   0  0  0  0  0  0  0  0  0  0  0  0
   10.1871  -16.3466   21.6542 C   0  0  2  0  0  0  0  0  0  0  0  0
   11.2641  -17.4307   21.4954 C   0  0  0  0  0  0  0  0  0  0  0  0
    9.6955  -16.4140   23.0405 C   0  0  2  0  0  0  0  0  0  0  0  0
    8.5704  -15.5619   23.3145 N   0  0  0  0  0  0  0  0  0  0  0  0
   10.6975  -16.3907   24.1178 C   0  0  0  0  0  0  0  0  0  0  0  0
   11.4638  -15.4111   24.2078 O   0  0  0  0  0  0  0  0  0  0  0  0
   10.5783  -13.2352   27.7650 C   0  0  0  0  0  0  0  0  0  0  0  0
   11.0620  -14.6110   28.8728 S   0  0  0  0  0  0  0  0  0  0  0  0
   12.1093  -15.7318   27.8852 C   0  0  0  0  0  0  0  0  0  0  0  0
   11.2246  -16.8225   27.3443 C   0  0  0  0  0  0  0  0  0  0  0  0
   11.8486  -17.4162   26.1121 C   0  0  2  0  0  0  0  0  0  0  0  0
   10.8330  -17.4308   25.0597 N   0  0  0  0  0  0  0  0  0  0  0  0
   12.4111  -18.7550   26.3249 C   0  0  0  0  0  0  0  0  0  0  0  0
   11.7474  -19.7763   26.0299 O   0  0  0  0  0  0  0  0  0  0  0  0
   13.6732  -18.8860   26.8508 O   0  0  0  0  0  0  0  0  0  0  0  0
  2  1  1  1
  3  2  1  0
  4  2  1  0
  4  5  1  0
  5  6  1  1
  5  7  1  0
  7  8  2  0
 10  9  1  6
 10 11  1  0
 12 10  1  0
 13  7  1  0
 12 13  1  1
 14 12  1  0
 14 15  2  0
 16 17  1  0
 17 18  1  0
 18 19  1  0
 20 19  1  1
 20 21  1  0
 21 14  1  0
 22 24  1  0
 22 20  1  0
 23 22  2  0
M  END
$$$$
