LVM.pdb
     RDKit          3D

 24 23  0  0  1  0  0  0  0  0999 V2000
    6.7536  -11.6978   27.0023 C   0  0  0  0  0  0  0  0  0  0  0  0
    6.2009  -12.7377   26.0504 C   0  0  1  0  0  0  0  0  0  0  0  0
    5.8884  -12.0873   24.7057 C   0  0  0  0  0  0  0  0  0  0  0  0
    7.1161  -13.8913   25.8975 C   0  0  0  0  0  0  0  0  0  0  0  0
    6.5848  -14.9643   24.9825 C   0  0  2  0  0  0  0  0  0  0  0  0
    5.6492  -15.7714   25.8182 N   0  0  0  0  0  0  0  0  0  0  0  0
    7.6549  -15.9255   24.5461 C   0  0  0  0  0  0  0  0  0  0  0  0
    8.0647  -16.7994   25.3650 O   0  0  0  0  0  0  0  0  0  0  0  0
   10.6687  -17.6965   20.9831 C   0  0  0  0  0  0  0  0  0  0  0  0
    9.5798  -16.7859   21.4251 C   0  0  2  0  0  0  0  0  0  0  0  0
    9.9013  -15.3878   20.8753 C   0  0  0  0  0  0  0  0  0  0  0  0
    9.3749  -16.6516   22.8771 C   0  0  2  0  0  0  0  0  0  0  0  0
    8.2161  -15.8844   23.2455 N   0  0  0  0  0  0  0  0  0  0  0  0
   10.5505  -16.3307   23.7017 C   0  0  0  0  0  0  0  0  0  0  0  0
   10.9860  -15.1623   23.7024 O   0  0  0  0  0  0  0  0  0  0  0  0
    9.9172  -13.8878   28.5218 C   0  0  0  0  0  0  0  0  0  0  0  0
   10.5044  -15.4868   29.1941 S   0  0  0  0  0  0  0  0  0  0  0  0
   11.7272  -16.1346   28.0053 C   0  0  0  0  0  0  0  0  0  0  0  0
   11.0125  -16.3752   26.7029 C   0  0  0  0  0  0  0  0  0  0  0  0
   11.9759  -16.9318   25.6919 C   0  0  2  0  0  0  0  0  0  0  0  0
   11.2124  -17.2886   24.4965 N   0  0  0  0  0  0  0  0  0  0  0  0
   12.7518  -18.0751   26.1865 C   0  0  0  0  0  0  0  0  0  0  0  0
   12.4542  -19.2419   25.8388 O   0  0  0  0  0  0  0  0  0  0  0  0
   13.8101  -17.8618   27.0357 O   0  0  0  0  0  0  0  0  0  0  0  0
  2  1  1  1
  3  2  1  0
  4  2  1  0
  4  5  1  0
  5  6  1  1
  5  7  1  0
  7  8  2  0
 10  9  1  1
 10 11  1  0
 12 10  1  0
 13  7  1  0
 12 13  1  6
 14 12  1  0
 14 15  2  0
 16 17  1  0
 17 18  1  0
 18 19  1  0
 20 19  1  1
 20 21  1  0
 21 14  1  0
 22 24  1  0
 22 20  1  0
 23 22  2  0
M  END
$$$$
