LVM.pdb
     RDKit          3D

 24 23  0  0  1  0  0  0  0  0999 V2000
    6.8961  -22.2258   25.2502 C   0  0  0  0  0  0  0  0  0  0  0  0
    6.4599  -21.4713   24.0120 C   0  0  1  0  0  0  0  0  0  0  0  0
    4.9520  -21.2397   24.0573 C   0  0  0  0  0  0  0  0  0  0  0  0
    7.2010  -20.2003   23.8474 C   0  0  0  0  0  0  0  0  0  0  0  0
    6.7491  -19.3889   22.6608 C   0  0  2  0  0  0  0  0  0  0  0  0
    6.9354  -20.2779   21.4776 N   0  0  0  0  0  0  0  0  0  0  0  0
    7.6364  -18.2023   22.4076 C   0  0  0  0  0  0  0  0  0  0  0  0
    8.7934  -18.3928   21.9311 O   0  0  0  0  0  0  0  0  0  0  0  0
    6.4808  -13.7530   22.3919 C   0  0  0  0  0  0  0  0  0  0  0  0
    7.3815  -14.6691   21.6438 C   0  0  2  0  0  0  0  0  0  0  0  0
    6.5385  -15.3521   20.5561 C   0  0  0  0  0  0  0  0  0  0  0  0
    8.0424  -15.7312   22.4205 C   0  0  2  0  0  0  0  0  0  0  0  0
    7.2155  -16.8775   22.6836 N   0  0  0  0  0  0  0  0  0  0  0  0
    8.8323  -15.3233   23.5930 C   0  0  0  0  0  0  0  0  0  0  0  0
    9.3080  -14.1712   23.6287 O   0  0  0  0  0  0  0  0  0  0  0  0
    6.7331  -11.3288   26.2765 C   0  0  0  0  0  0  0  0  0  0  0  0
    8.0804  -12.1316   27.2222 S   0  0  0  0  0  0  0  0  0  0  0  0
    8.8964  -13.2967   26.0798 C   0  0  0  0  0  0  0  0  0  0  0  0
    8.4502  -14.6854   26.4506 C   0  0  0  0  0  0  0  0  0  0  0  0
    9.4798  -15.6848   26.0021 C   0  0  2  0  0  0  0  0  0  0  0  0
    9.0784  -16.1795   24.6856 N   0  0  0  0  0  0  0  0  0  0  0  0
    9.6762  -16.7906   26.9469 C   0  0  0  0  0  0  0  0  0  0  0  0
    9.2589  -17.9403   26.6737 O   0  0  0  0  0  0  0  0  0  0  0  0
   10.3219  -16.5607   28.1373 O   0  0  0  0  0  0  0  0  0  0  0  0
  2  1  1  1
  3  2  1  0
  4  2  1  0
  4  5  1  0
  5  6  1  6
  5  7  1  0
  7  8  2  0
 10  9  1  1
 10 11  1  0
 12 10  1  0
 13  7  1  0
 12 13  1  1
 14 12  1  0
 14 15  2  0
 16 17  1  0
 17 18  1  0
 18 19  1  0
 20 19  1  1
 20 21  1  0
 21 14  1  0
 22 24  1  0
 22 20  1  0
 23 22  2  0
M  END
$$$$
