LVM.pdb
     RDKit          3D

 24 23  0  0  1  0  0  0  0  0999 V2000
    6.5412  -19.6236   17.3090 C   0  0  0  0  0  0  0  0  0  0  0  0
    6.8844  -19.5781   18.7831 C   0  0  1  0  0  0  0  0  0  0  0  0
    7.1708  -20.9900   19.2868 C   0  0  0  0  0  0  0  0  0  0  0  0
    8.0131  -18.6614   19.0614 C   0  0  0  0  0  0  0  0  0  0  0  0
    8.2998  -18.4879   20.5306 C   0  0  2  0  0  0  0  0  0  0  0  0
    6.9639  -18.4315   21.1919 N   0  0  0  0  0  0  0  0  0  0  0  0
    8.9480  -17.1662   20.8349 C   0  0  0  0  0  0  0  0  0  0  0  0
   10.1534  -16.9823   20.4956 O   0  0  0  0  0  0  0  0  0  0  0  0
    6.7595  -13.4555   22.1195 C   0  0  0  0  0  0  0  0  0  0  0  0
    7.9931  -13.6922   21.3243 C   0  0  2  0  0  0  0  0  0  0  0  0
    7.5606  -13.9352   19.8703 C   0  0  0  0  0  0  0  0  0  0  0  0
    8.8360  -14.8297   21.7289 C   0  0  2  0  0  0  0  0  0  0  0  0
    8.2495  -16.1199   21.4872 N   0  0  0  0  0  0  0  0  0  0  0  0
    9.5028  -14.7486   23.0381 C   0  0  0  0  0  0  0  0  0  0  0  0
   10.2811  -13.8002   23.2608 O   0  0  0  0  0  0  0  0  0  0  0  0
    6.9386  -11.2620   26.0108 C   0  0  0  0  0  0  0  0  0  0  0  0
    6.4127  -12.7184   26.9886 S   0  0  0  0  0  0  0  0  0  0  0  0
    7.8071  -13.8946   26.9627 C   0  0  0  0  0  0  0  0  0  0  0  0
    7.9507  -14.3992   25.5522 C   0  0  0  0  0  0  0  0  0  0  0  0
    9.1312  -15.3258   25.4635 C   0  0  2  0  0  0  0  0  0  0  0  0
    9.3017  -15.6991   24.0596 N   0  0  0  0  0  0  0  0  0  0  0  0
    9.0116  -16.5136   26.3173 C   0  0  0  0  0  0  0  0  0  0  0  0
    8.5353  -17.5786   25.8596 O   0  0  0  0  0  0  0  0  0  0  0  0
    9.4252  -16.4543   27.6258 O   0  0  0  0  0  0  0  0  0  0  0  0
  2  1  1  6
  3  2  1  0
  4  2  1  0
  4  5  1  0
  5  6  1  1
  5  7  1  0
  7  8  2  0
 10  9  1  1
 10 11  1  0
 12 10  1  0
 13  7  1  0
 12 13  1  1
 14 12  1  0
 14 15  2  0
 16 17  1  0
 17 18  1  0
 18 19  1  0
 20 19  1  6
 20 21  1  0
 21 14  1  0
 22 24  1  0
 22 20  1  0
 23 22  2  0
M  END
$$$$
