LVM.pdb
     RDKit          3D

 24 23  0  0  1  0  0  0  0  0999 V2000
    7.0156  -12.3169   20.0112 C   0  0  0  0  0  0  0  0  0  0  0  0
    7.6679  -13.5964   19.5312 C   0  0  1  0  0  0  0  0  0  0  0  0
    8.8131  -13.2622   18.5793 C   0  0  0  0  0  0  0  0  0  0  0  0
    8.1252  -14.4418   20.6572 C   0  0  0  0  0  0  0  0  0  0  0  0
    8.7560  -15.7384   20.2194 C   0  0  2  0  0  0  0  0  0  0  0  0
    7.6477  -16.5366   19.6196 N   0  0  0  0  0  0  0  0  0  0  0  0
    9.2487  -16.5558   21.3806 C   0  0  0  0  0  0  0  0  0  0  0  0
    8.4738  -17.4109   21.9007 O   0  0  0  0  0  0  0  0  0  0  0  0
   12.7570  -18.5209   21.7807 C   0  0  0  0  0  0  0  0  0  0  0  0
   12.4355  -17.6047   22.9065 C   0  0  2  0  0  0  0  0  0  0  0  0
   12.8011  -18.3339   24.2084 C   0  0  0  0  0  0  0  0  0  0  0  0
   11.0352  -17.1655   23.0262 C   0  0  2  0  0  0  0  0  0  0  0  0
   10.5546  -16.3998   21.9082 N   0  0  0  0  0  0  0  0  0  0  0  0
   10.6068  -16.6080   24.3187 C   0  0  0  0  0  0  0  0  0  0  0  0
   10.9057  -17.2148   25.3662 O   0  0  0  0  0  0  0  0  0  0  0  0
    7.0878  -10.8685   26.7506 C   0  0  0  0  0  0  0  0  0  0  0  0
    6.2622  -12.4519   26.3448 S   0  0  0  0  0  0  0  0  0  0  0  0
    7.4476  -13.7773   26.7526 C   0  0  0  0  0  0  0  0  0  0  0  0
    8.0160  -14.2936   25.4582 C   0  0  0  0  0  0  0  0  0  0  0  0
    9.3640  -14.9107   25.7074 C   0  0  2  0  0  0  0  0  0  0  0  0
    9.8691  -15.4117   24.4296 N   0  0  0  0  0  0  0  0  0  0  0  0
    9.3469  -15.9700   26.7230 C   0  0  0  0  0  0  0  0  0  0  0  0
    9.4836  -15.6879   27.9365 O   0  0  0  0  0  0  0  0  0  0  0  0
    9.1799  -17.2779   26.3380 O   0  0  0  0  0  0  0  0  0  0  0  0
  2  1  1  1
  3  2  1  0
  4  2  1  0
  4  5  1  0
  5  6  1  1
  5  7  1  0
  7  8  2  0
 10  9  1  6
 10 11  1  0
 12 10  1  0
 13  7  1  0
 12 13  1  6
 14 12  1  0
 14 15  2  0
 16 17  1  0
 17 18  1  0
 18 19  1  0
 20 19  1  6
 20 21  1  0
 21 14  1  0
 22 24  1  0
 22 20  1  0
 23 22  2  0
M  END
$$$$
