LVM.pdb
     RDKit          3D

 24 23  0  0  1  0  0  0  0  0999 V2000
    6.1381  -11.6815   26.1201 C   0  0  0  0  0  0  0  0  0  0  0  0
    5.9473  -12.8732   25.2056 C   0  0  1  0  0  0  0  0  0  0  0  0
    6.2932  -12.4800   23.7721 C   0  0  0  0  0  0  0  0  0  0  0  0
    6.7319  -14.0463   25.6527 C   0  0  0  0  0  0  0  0  0  0  0  0
    6.5155  -15.2738   24.8059 C   0  0  2  0  0  0  0  0  0  0  0  0
    5.5986  -16.1451   25.5965 N   0  0  0  0  0  0  0  0  0  0  0  0
    7.7735  -16.0780   24.6320 C   0  0  0  0  0  0  0  0  0  0  0  0
    8.1792  -16.7963   25.5919 O   0  0  0  0  0  0  0  0  0  0  0  0
   10.5817  -15.6724   21.1849 C   0  0  0  0  0  0  0  0  0  0  0  0
   10.1518  -16.9393   21.8331 C   0  0  2  0  0  0  0  0  0  0  0  0
    8.9834  -17.5013   21.0089 C   0  0  0  0  0  0  0  0  0  0  0  0
    9.7010  -16.8499   23.2320 C   0  0  2  0  0  0  0  0  0  0  0  0
    8.5166  -16.0583   23.4255 N   0  0  0  0  0  0  0  0  0  0  0  0
   10.7233  -16.5976   24.2598 C   0  0  0  0  0  0  0  0  0  0  0  0
   11.2210  -15.4578   24.3485 O   0  0  0  0  0  0  0  0  0  0  0  0
    9.7833  -14.3476   28.7352 C   0  0  0  0  0  0  0  0  0  0  0  0
   11.4891  -14.8629   29.1580 S   0  0  0  0  0  0  0  0  0  0  0  0
   11.6199  -16.6319   28.7317 C   0  0  0  0  0  0  0  0  0  0  0  0
   10.9189  -16.8359   27.4156 C   0  0  0  0  0  0  0  0  0  0  0  0
   11.9112  -17.2777   26.3764 C   0  0  2  0  0  0  0  0  0  0  0  0
   11.1698  -17.5908   25.1552 N   0  0  0  0  0  0  0  0  0  0  0  0
   12.7396  -18.4129   26.7996 C   0  0  0  0  0  0  0  0  0  0  0  0
   13.6062  -18.2677   27.6932 O   0  0  0  0  0  0  0  0  0  0  0  0
   12.5614  -19.6410   26.2107 O   0  0  0  0  0  0  0  0  0  0  0  0
  2  1  1  1
  3  2  1  0
  4  2  1  0
  4  5  1  0
  5  6  1  1
  5  7  1  0
  7  8  2  0
 10  9  1  6
 10 11  1  0
 12 10  1  0
 13  7  1  0
 12 13  1  6
 14 12  1  0
 14 15  2  0
 16 17  1  0
 17 18  1  0
 18 19  1  0
 20 19  1  1
 20 21  1  0
 21 14  1  0
 22 24  1  0
 22 20  1  0
 23 22  2  0
M  END
$$$$
