LVM.pdb
     RDKit          3D

 24 23  0  0  1  0  0  0  0  0999 V2000
    6.5726  -11.6651   27.2464 C   0  0  0  0  0  0  0  0  0  0  0  0
    6.1180  -12.5503   26.1052 C   0  0  1  0  0  0  0  0  0  0  0  0
    6.5776  -11.9528   24.7782 C   0  0  0  0  0  0  0  0  0  0  0  0
    6.5866  -13.9455   26.2652 C   0  0  0  0  0  0  0  0  0  0  0  0
    6.1619  -14.8560   25.1421 C   0  0  2  0  0  0  0  0  0  0  0  0
    5.2362  -15.8474   25.7630 N   0  0  0  0  0  0  0  0  0  0  0  0
    7.3051  -15.6677   24.6001 C   0  0  0  0  0  0  0  0  0  0  0  0
    7.7976  -16.5874   25.3167 O   0  0  0  0  0  0  0  0  0  0  0  0
    9.5188  -14.8197   20.7286 C   0  0  0  0  0  0  0  0  0  0  0  0
    9.1519  -16.1161   21.3570 C   0  0  2  0  0  0  0  0  0  0  0  0
    7.8040  -16.5486   20.7600 C   0  0  0  0  0  0  0  0  0  0  0  0
    9.0081  -16.1267   22.8224 C   0  0  2  0  0  0  0  0  0  0  0  0
    7.8456  -15.4360   23.3108 N   0  0  0  0  0  0  0  0  0  0  0  0
   10.2098  -15.8473   23.6243 C   0  0  0  0  0  0  0  0  0  0  0  0
   10.8461  -14.7963   23.4115 O   0  0  0  0  0  0  0  0  0  0  0  0
   11.6323  -15.0687   29.4326 C   0  0  0  0  0  0  0  0  0  0  0  0
   10.2706  -14.3918   28.4122 S   0  0  0  0  0  0  0  0  0  0  0  0
   10.5903  -14.9243   26.6968 C   0  0  0  0  0  0  0  0  0  0  0  0
   11.5799  -16.0570   26.7489 C   0  0  0  0  0  0  0  0  0  0  0  0
   11.9295  -16.4888   25.3520 C   0  0  2  0  0  0  0  0  0  0  0  0
   10.6789  -16.7179   24.6290 N   0  0  0  0  0  0  0  0  0  0  0  0
   12.7955  -17.6726   25.3021 C   0  0  0  0  0  0  0  0  0  0  0  0
   12.3593  -18.7594   24.8556 O   0  0  0  0  0  0  0  0  0  0  0  0
   14.0917  -17.5857   25.7482 O   0  0  0  0  0  0  0  0  0  0  0  0
  2  1  1  1
  3  2  1  0
  4  2  1  0
  4  5  1  0
  5  6  1  1
  5  7  1  0
  7  8  2  0
 10  9  1  6
 10 11  1  0
 12 10  1  0
 13  7  1  0
 12 13  1  6
 14 12  1  0
 14 15  2  0
 16 17  1  0
 17 18  1  0
 18 19  1  0
 20 19  1  1
 20 21  1  0
 21 14  1  0
 22 24  1  0
 22 20  1  0
 23 22  2  0
M  END
$$$$
