LVM.pdb
     RDKit          3D

 24 23  0  0  1  0  0  0  0  0999 V2000
    6.9678  -12.8194   20.7427 C   0  0  0  0  0  0  0  0  0  0  0  0
    7.7676  -13.8105   19.9236 C   0  0  1  0  0  0  0  0  0  0  0  0
    8.2178  -13.1543   18.6214 C   0  0  0  0  0  0  0  0  0  0  0  0
    8.9149  -14.3585   20.6821 C   0  0  0  0  0  0  0  0  0  0  0  0
    8.5148  -15.3371   21.7558 C   0  0  2  0  0  0  0  0  0  0  0  0
    7.0330  -15.4663   21.6432 N   0  0  0  0  0  0  0  0  0  0  0  0
    8.7613  -14.8018   23.1386 C   0  0  0  0  0  0  0  0  0  0  0  0
    9.9403  -14.4838   23.4714 O   0  0  0  0  0  0  0  0  0  0  0  0
    6.5385  -12.1479   25.2955 C   0  0  0  0  0  0  0  0  0  0  0  0
    6.8792  -13.4021   26.0174 C   0  0  2  0  0  0  0  0  0  0  0  0
    7.3212  -13.0083   27.4351 C   0  0  0  0  0  0  0  0  0  0  0  0
    7.9480  -14.2327   25.4377 C   0  0  2  0  0  0  0  0  0  0  0  0
    7.7135  -14.6401   24.0790 N   0  0  0  0  0  0  0  0  0  0  0  0
    8.4884  -15.3203   26.2684 C   0  0  0  0  0  0  0  0  0  0  0  0
    7.7543  -16.2893   26.5457 O   0  0  0  0  0  0  0  0  0  0  0  0
   13.2281  -18.9979   25.1055 C   0  0  0  0  0  0  0  0  0  0  0  0
   13.7326  -18.5458   26.8069 S   0  0  0  0  0  0  0  0  0  0  0  0
   12.2182  -18.0182   27.6767 C   0  0  0  0  0  0  0  0  0  0  0  0
   11.6397  -16.8544   26.9180 C   0  0  0  0  0  0  0  0  0  0  0  0
   10.3520  -16.4204   27.5610 C   0  0  2  0  0  0  0  0  0  0  0  0
    9.8063  -15.3184   26.7691 N   0  0  0  0  0  0  0  0  0  0  0  0
   10.4982  -16.0388   28.9706 C   0  0  0  0  0  0  0  0  0  0  0  0
   10.6667  -16.9149   29.8509 O   0  0  0  0  0  0  0  0  0  0  0  0
   10.4497  -14.7124   29.3242 O   0  0  0  0  0  0  0  0  0  0  0  0
  2  1  1  1
  3  2  1  0
  4  2  1  0
  4  5  1  0
  5  6  1  1
  5  7  1  0
  7  8  2  0
 10  9  1  6
 10 11  1  0
 12 10  1  0
 13  7  1  0
 12 13  1  6
 14 12  1  0
 14 15  2  0
 16 17  1  0
 17 18  1  0
 18 19  1  0
 20 19  1  6
 20 21  1  0
 21 14  1  0
 22 24  1  0
 22 20  1  0
 23 22  2  0
M  END
$$$$
