LVM.pdb
     RDKit          3D

 24 23  0  0  1  0  0  0  0  0999 V2000
    5.9870  -12.5557   26.1569 C   0  0  0  0  0  0  0  0  0  0  0  0
    7.0909  -13.5140   26.5518 C   0  0  1  0  0  0  0  0  0  0  0  0
    7.8940  -12.9230   27.7072 C   0  0  0  0  0  0  0  0  0  0  0  0
    6.5658  -14.8575   26.8850 C   0  0  0  0  0  0  0  0  0  0  0  0
    5.9924  -15.5910   25.7001 C   0  0  2  0  0  0  0  0  0  0  0  0
    5.5168  -16.8996   26.2353 N   0  0  0  0  0  0  0  0  0  0  0  0
    7.0406  -15.9381   24.6801 C   0  0  0  0  0  0  0  0  0  0  0  0
    7.7282  -16.9884   24.8411 O   0  0  0  0  0  0  0  0  0  0  0  0
    8.9996  -15.3150   20.1678 C   0  0  0  0  0  0  0  0  0  0  0  0
    8.0839  -14.8619   21.2477 C   0  0  2  0  0  0  0  0  0  0  0  0
    8.2132  -13.3342   21.3461 C   0  0  0  0  0  0  0  0  0  0  0  0
    8.3205  -15.4114   22.5932 C   0  0  2  0  0  0  0  0  0  0  0  0
    7.2797  -15.1266   23.5433 N   0  0  0  0  0  0  0  0  0  0  0  0
    9.6668  -15.2506   23.1648 C   0  0  0  0  0  0  0  0  0  0  0  0
   10.1440  -14.1035   23.2709 O   0  0  0  0  0  0  0  0  0  0  0  0
   10.6849  -14.5495   28.8735 C   0  0  0  0  0  0  0  0  0  0  0  0
   10.6281  -13.4074   27.4431 S   0  0  0  0  0  0  0  0  0  0  0  0
   11.5282  -14.2280   26.0849 C   0  0  0  0  0  0  0  0  0  0  0  0
   10.8560  -15.5495   25.8265 C   0  0  0  0  0  0  0  0  0  0  0  0
   11.4805  -16.2098   24.6291 C   0  0  2  0  0  0  0  0  0  0  0  0
   10.4480  -16.3399   23.6013 N   0  0  0  0  0  0  0  0  0  0  0  0
   12.0973  -17.5075   24.9284 C   0  0  0  0  0  0  0  0  0  0  0  0
   13.2219  -17.5637   25.4785 O   0  0  0  0  0  0  0  0  0  0  0  0
   11.4352  -18.6660   24.6022 O   0  0  0  0  0  0  0  0  0  0  0  0
  2  1  1  1
  3  2  1  0
  4  2  1  0
  4  5  1  0
  5  6  1  1
  5  7  1  0
  7  8  2  0
 10  9  1  6
 10 11  1  0
 12 10  1  0
 13  7  1  0
 12 13  1  1
 14 12  1  0
 14 15  2  0
 16 17  1  0
 17 18  1  0
 18 19  1  0
 20 19  1  1
 20 21  1  0
 21 14  1  0
 22 24  1  0
 22 20  1  0
 23 22  2  0
M  END
$$$$
