LVM.pdb
     RDKit          3D

 24 23  0  0  1  0  0  0  0  0999 V2000
    7.6340  -12.1151   19.1047 C   0  0  0  0  0  0  0  0  0  0  0  0
    8.1241  -13.5438   18.9977 C   0  0  1  0  0  0  0  0  0  0  0  0
    9.4733  -13.5710   18.2850 C   0  0  0  0  0  0  0  0  0  0  0  0
    8.1934  -14.2066   20.3197 C   0  0  0  0  0  0  0  0  0  0  0  0
    8.6290  -15.6474   20.2490 C   0  0  2  0  0  0  0  0  0  0  0  0
    7.4751  -16.3824   19.6545 N   0  0  0  0  0  0  0  0  0  0  0  0
    8.8249  -16.2534   21.6106 C   0  0  0  0  0  0  0  0  0  0  0  0
    7.8121  -16.4598   22.3410 O   0  0  0  0  0  0  0  0  0  0  0  0
   10.8226  -19.5162   22.7360 C   0  0  0  0  0  0  0  0  0  0  0  0
   11.2381  -18.2891   23.4653 C   0  0  2  0  0  0  0  0  0  0  0  0
   11.4149  -18.6728   24.9424 C   0  0  0  0  0  0  0  0  0  0  0  0
   10.3157  -17.1425   23.4156 C   0  0  2  0  0  0  0  0  0  0  0  0
   10.1084  -16.6029   22.0993 N   0  0  0  0  0  0  0  0  0  0  0  0
   10.4790  -16.0953   24.4363 C   0  0  0  0  0  0  0  0  0  0  0  0
   11.4167  -15.2816   24.3209 O   0  0  0  0  0  0  0  0  0  0  0  0
    5.7981  -12.9243   26.8877 C   0  0  0  0  0  0  0  0  0  0  0  0
    7.2191  -11.8360   27.2755 S   0  0  0  0  0  0  0  0  0  0  0  0
    8.6671  -12.9253   27.4875 C   0  0  0  0  0  0  0  0  0  0  0  0
    8.5429  -14.0465   26.4913 C   0  0  0  0  0  0  0  0  0  0  0  0
    9.7716  -14.9110   26.5460 C   0  0  2  0  0  0  0  0  0  0  0  0
    9.6193  -15.9676   25.5462 N   0  0  0  0  0  0  0  0  0  0  0  0
   10.0361  -15.4731   27.8756 C   0  0  0  0  0  0  0  0  0  0  0  0
   10.3987  -14.7305   28.8178 O   0  0  0  0  0  0  0  0  0  0  0  0
    9.8843  -16.8221   28.0856 O   0  0  0  0  0  0  0  0  0  0  0  0
  2  1  1  1
  3  2  1  0
  4  2  1  0
  4  5  1  0
  5  6  1  1
  5  7  1  0
  7  8  2  0
 10  9  1  6
 10 11  1  0
 12 10  1  0
 13  7  1  0
 12 13  1  6
 14 12  1  0
 14 15  2  0
 16 17  1  0
 17 18  1  0
 18 19  1  0
 20 19  1  1
 20 21  1  0
 21 14  1  0
 22 24  1  0
 22 20  1  0
 23 22  2  0
M  END
$$$$
