LVM.pdb
     RDKit          3D

 24 23  0  0  1  0  0  0  0  0999 V2000
    7.5500  -12.3055   18.7470 C   0  0  0  0  0  0  0  0  0  0  0  0
    7.5817  -13.5910   19.5466 C   0  0  1  0  0  0  0  0  0  0  0  0
    8.3356  -14.6629   18.7643 C   0  0  0  0  0  0  0  0  0  0  0  0
    8.1616  -13.3916   20.8941 C   0  0  0  0  0  0  0  0  0  0  0  0
    8.1951  -14.6468   21.7271 C   0  0  2  0  0  0  0  0  0  0  0  0
    6.7699  -15.0588   21.8820 N   0  0  0  0  0  0  0  0  0  0  0  0
    8.6878  -14.3933   23.1244 C   0  0  0  0  0  0  0  0  0  0  0  0
    9.9204  -14.1724   23.3089 O   0  0  0  0  0  0  0  0  0  0  0  0
    7.9911  -12.5761   27.5690 C   0  0  0  0  0  0  0  0  0  0  0  0
    7.4711  -13.0571   26.2619 C   0  0  2  0  0  0  0  0  0  0  0  0
    6.0709  -13.6376   26.5123 C   0  0  0  0  0  0  0  0  0  0  0  0
    8.2603  -14.0921   25.5734 C   0  0  2  0  0  0  0  0  0  0  0  0
    7.8138  -14.3913   24.2399 N   0  0  0  0  0  0  0  0  0  0  0  0
    8.6080  -15.3007   26.3373 C   0  0  0  0  0  0  0  0  0  0  0  0
    7.7324  -16.1685   26.5246 O   0  0  0  0  0  0  0  0  0  0  0  0
   13.1679  -17.8148   23.2132 C   0  0  0  0  0  0  0  0  0  0  0  0
   13.1674  -17.9155   25.0417 S   0  0  0  0  0  0  0  0  0  0  0  0
   11.5351  -17.3184   25.5961 C   0  0  0  0  0  0  0  0  0  0  0  0
   11.5725  -17.2199   27.0974 C   0  0  0  0  0  0  0  0  0  0  0  0
   10.2418  -16.7404   27.6068 C   0  0  2  0  0  0  0  0  0  0  0  0
    9.8933  -15.5253   26.8712 N   0  0  0  0  0  0  0  0  0  0  0  0
   10.2157  -16.5090   29.0558 C   0  0  0  0  0  0  0  0  0  0  0  0
   10.2480  -17.4752   29.8534 O   0  0  0  0  0  0  0  0  0  0  0  0
   10.1556  -15.2241   29.5378 O   0  0  0  0  0  0  0  0  0  0  0  0
  2  1  1  6
  3  2  1  0
  4  2  1  0
  4  5  1  0
  5  6  1  1
  5  7  1  0
  7  8  2  0
 10  9  1  1
 10 11  1  0
 12 10  1  0
 13  7  1  0
 12 13  1  6
 14 12  1  0
 14 15  2  0
 16 17  1  0
 17 18  1  0
 18 19  1  0
 20 19  1  6
 20 21  1  0
 21 14  1  0
 22 24  1  0
 22 20  1  0
 23 22  2  0
M  END
$$$$
