RTL.pdb
     RDKit          3D

 27 26  0  0  1  0  0  0  0  0999 V2000
   14.1412  -14.0380   20.6815 N   0  0  0  0  0  0  0  0  0  0  0  0
   14.3963  -14.4346   19.3327 C   0  0  0  0  0  0  0  0  0  0  0  0
   15.5994  -14.3992   18.9032 N   0  0  0  0  0  0  0  0  0  0  0  0
   13.3343  -14.8602   18.4815 N   0  0  0  0  0  0  0  0  0  0  0  0
   11.9368  -14.8084   18.9830 C   0  0  0  0  0  0  0  0  0  0  0  0
   11.3289  -13.4989   18.5739 C   0  0  0  0  0  0  0  0  0  0  0  0
    9.9563  -13.2222   19.0521 C   0  0  0  0  0  0  0  0  0  0  0  0
    8.8814  -14.2068   18.7458 C   0  0  2  0  0  0  0  0  0  0  0  0
    8.0380  -13.6687   17.6901 N   0  0  0  0  0  0  0  0  0  0  0  0
    8.1049  -14.5782   19.9379 C   0  0  0  0  0  0  0  0  0  0  0  0
    7.2190  -13.8077   20.3935 O   0  0  0  0  0  0  0  0  0  0  0  0
   15.8433  -14.7686   17.9738 C   0  0  0  0  0  0  0  0  0  0  0  0
    6.7160  -18.3061   20.7460 C   0  0  2  0  0  0  0  0  0  0  0  0
    7.3494  -17.6730   21.9476 O   0  0  0  0  0  0  0  0  0  0  0  0
    8.5702  -18.2756   22.2593 C   0  0  2  0  0  0  0  0  0  0  0  0
    7.5879  -16.2095   21.8090 N   0  0  0  0  0  0  0  0  0  0  0  0
    8.3228  -15.8266   20.6339 C   0  0  0  0  0  0  0  0  0  0  0  0
    8.1638  -15.5880   23.0455 O   0  0  0  0  0  0  0  0  0  0  0  0
    9.3274  -15.1124   23.0550 C   0  0  0  0  0  0  0  0  0  0  0  0
    5.7451  -12.2898   27.4849 C   0  0  1  0  0  0  0  0  0  0  0  0
    7.0655  -12.9465   27.0545 C   0  0  0  0  0  0  0  0  0  0  0  0
    8.0491  -11.8221   26.8158 C   0  0  0  0  0  0  0  0  0  0  0  0
    6.7713  -13.7223   25.8192 C   0  0  2  0  0  0  0  0  0  0  0  0
    7.8145  -14.6926   25.3943 N   0  0  0  0  0  0  0  0  0  0  0  0
    7.4307  -15.5061   24.2589 C   0  0  0  0  0  0  0  0  0  0  0  0
    8.3899  -15.5122   26.4880 O   0  0  0  0  0  0  0  0  0  0  0  0
    8.2115  -16.8976   26.4776 O   0  0  0  0  0  0  0  0  0  0  0  0
  2  1  1  0
  3  2  2  0
  4  2  1  0
  5  4  1  0
  6  5  1  0
  7  6  1  0
  8 10  1  0
  8  7  1  0
  8  9  1  6
 10 11  2  0
 13 12  1  1
 13 14  1  0
 15 13  1  0
 16 10  1  0
 15 16  1  1
 17 18  2  0
 17 15  1  0
 20 19  1  1
 20 21  1  0
 20 22  1  0
 23 22  1  6
 23 24  1  0
 24 17  1  0
 25 26  1  0
 25 23  1  0
 27 25  2  0
M  END
$$$$
