RTL.pdb
     RDKit          3D

 27 26  0  0  1  0  0  0  0  0999 V2000
    7.2374  -12.6646   13.5066 N   0  0  0  0  0  0  0  0  0  0  0  0
    7.6548  -14.0260   13.6260 C   0  0  0  0  0  0  0  0  0  0  0  0
    6.9433  -14.9331   13.0745 N   0  0  0  0  0  0  0  0  0  0  0  0
    8.8380  -14.3686   14.3445 N   0  0  0  0  0  0  0  0  0  0  0  0
    8.9999  -13.8963   15.7437 C   0  0  0  0  0  0  0  0  0  0  0  0
    7.7643  -14.2537   16.5165 C   0  0  0  0  0  0  0  0  0  0  0  0
    7.7313  -13.8586   17.9419 C   0  0  0  0  0  0  0  0  0  0  0  0
    8.6803  -14.5118   18.8860 C   0  0  2  0  0  0  0  0  0  0  0  0
    9.1174  -15.7756   18.3140 N   0  0  0  0  0  0  0  0  0  0  0  0
    8.1068  -14.6824   20.2292 C   0  0  0  0  0  0  0  0  0  0  0  0
    7.7752  -13.6817   20.9182 O   0  0  0  0  0  0  0  0  0  0  0  0
    7.1952  -15.9281   13.1540 C   0  0  0  0  0  0  0  0  0  0  0  0
    5.9121  -18.0408   21.4393 C   0  0  2  0  0  0  0  0  0  0  0  0
    6.9066  -17.5465   22.4455 O   0  0  0  0  0  0  0  0  0  0  0  0
    7.9973  -18.4121   22.5542 C   0  0  2  0  0  0  0  0  0  0  0  0
    7.4353  -16.1840   22.1589 N   0  0  0  0  0  0  0  0  0  0  0  0
    7.9038  -15.9893   20.8136 C   0  0  0  0  0  0  0  0  0  0  0  0
    8.4446  -15.7213   23.1659 O   0  0  0  0  0  0  0  0  0  0  0  0
    9.3649  -14.9258   22.8487 C   0  0  0  0  0  0  0  0  0  0  0  0
    6.0584  -12.4513   26.6243 C   0  0  1  0  0  0  0  0  0  0  0  0
    7.3846  -13.2210   26.7195 C   0  0  0  0  0  0  0  0  0  0  0  0
    8.4889  -12.1915   26.6234 C   0  0  0  0  0  0  0  0  0  0  0  0
    7.3990  -14.1845   25.5856 C   0  0  2  0  0  0  0  0  0  0  0  0
    8.4147  -15.2674   25.6627 N   0  0  0  0  0  0  0  0  0  0  0  0
    8.4132  -16.1548   24.5178 C   0  0  0  0  0  0  0  0  0  0  0  0
    8.4323  -16.0193   26.9407 O   0  0  0  0  0  0  0  0  0  0  0  0
    7.4279  -16.9537   27.2041 O   0  0  0  0  0  0  0  0  0  0  0  0
  2  1  1  0
  3  2  2  0
  4  2  1  0
  5  4  1  0
  6  5  1  0
  7  6  1  0
  8 10  1  0
  8  7  1  0
  8  9  1  6
 10 11  2  0
 13 12  1  1
 13 14  1  0
 15 13  1  0
 16 10  1  0
 15 16  1  1
 17 18  2  0
 17 15  1  0
 20 19  1  1
 20 21  1  0
 20 22  1  0
 23 22  1  6
 23 24  1  0
 24 17  1  0
 25 26  1  0
 25 23  1  0
 27 25  2  0
M  END
$$$$
