RTL.pdb
     RDKit          3D

 27 26  0  0  1  0  0  0  0  0999 V2000
   15.8164  -20.4206   18.4027 N   0  0  0  0  0  0  0  0  0  0  0  0
   15.7070  -20.4311   19.8274 C   0  0  0  0  0  0  0  0  0  0  0  0
   15.9432  -21.5221   20.4496 N   0  0  0  0  0  0  0  0  0  0  0  0
   15.3419  -19.2525   20.5423 N   0  0  0  0  0  0  0  0  0  0  0  0
   15.0672  -18.0021   19.7886 C   0  0  0  0  0  0  0  0  0  0  0  0
   13.6557  -18.0481   19.2816 C   0  0  0  0  0  0  0  0  0  0  0  0
   12.5922  -17.6555   20.2324 C   0  0  0  0  0  0  0  0  0  0  0  0
   11.1729  -17.7303   19.7868 C   0  0  2  0  0  0  0  0  0  0  0  0
   11.1419  -17.9046   18.3432 N   0  0  0  0  0  0  0  0  0  0  0  0
   10.3872  -16.5651   20.2194 C   0  0  0  0  0  0  0  0  0  0  0  0
   10.6472  -15.4147   19.7774 O   0  0  0  0  0  0  0  0  0  0  0  0
   15.8515  -21.5810   21.4732 C   0  0  0  0  0  0  0  0  0  0  0  0
    6.9878  -15.5751   19.4888 C   0  0  2  0  0  0  0  0  0  0  0  0
    7.0640  -15.6542   20.9834 O   0  0  0  0  0  0  0  0  0  0  0  0
    6.4787  -16.8279   21.4637 C   0  0  2  0  0  0  0  0  0  0  0  0
    8.4490  -15.5826   21.5262 N   0  0  0  0  0  0  0  0  0  0  0  0
    9.2974  -16.6849   21.1620 C   0  0  0  0  0  0  0  0  0  0  0  0
    8.4894  -15.3207   23.0015 O   0  0  0  0  0  0  0  0  0  0  0  0
    9.0991  -16.0925   23.7844 C   0  0  0  0  0  0  0  0  0  0  0  0
    5.5053  -11.5859   26.9476 C   0  0  1  0  0  0  0  0  0  0  0  0
    6.7036  -12.5386   26.8187 C   0  0  0  0  0  0  0  0  0  0  0  0
    7.8871  -11.8300   27.4401 C   0  0  0  0  0  0  0  0  0  0  0  0
    6.8881  -12.7949   25.3646 C   0  0  2  0  0  0  0  0  0  0  0  0
    7.7242  -13.9721   25.0106 N   0  0  0  0  0  0  0  0  0  0  0  0
    7.8460  -14.1972   23.5849 C   0  0  0  0  0  0  0  0  0  0  0  0
    7.3876  -15.2203   25.7372 O   0  0  0  0  0  0  0  0  0  0  0  0
    8.1780  -15.6240   26.8158 O   0  0  0  0  0  0  0  0  0  0  0  0
  2  1  1  0
  3  2  2  0
  4  2  1  0
  5  4  1  0
  6  5  1  0
  7  6  1  0
  8 10  1  0
  8  7  1  0
  8  9  1  6
 10 11  2  0
 13 12  1  1
 13 14  1  0
 15 13  1  0
 16 10  1  0
 15 16  1  1
 17 18  2  0
 17 15  1  0
 20 19  1  1
 20 21  1  0
 20 22  1  0
 23 22  1  6
 23 24  1  0
 24 17  1  0
 25 26  1  0
 25 23  1  0
 27 25  2  0
M  END
$$$$
