RTL.pdb
     RDKit          3D

 27 26  0  0  1  0  0  0  0  0999 V2000
    8.0373  -13.7684   16.2976 N   0  0  0  0  0  0  0  0  0  0  0  0
    8.7635  -13.5073   17.5002 C   0  0  0  0  0  0  0  0  0  0  0  0
    8.7632  -12.3177   17.9672 N   0  0  0  0  0  0  0  0  0  0  0  0
    9.4745  -14.5483   18.1666 N   0  0  0  0  0  0  0  0  0  0  0  0
    8.9524  -15.0751   19.4539 C   0  0  0  0  0  0  0  0  0  0  0  0
    7.4563  -14.9602   19.4475 C   0  0  0  0  0  0  0  0  0  0  0  0
    6.7495  -15.3823   20.6769 C   0  0  0  0  0  0  0  0  0  0  0  0
    6.8030  -16.8168   21.0744 C   0  0  2  0  0  0  0  0  0  0  0  0
    5.7557  -17.5393   20.3697 N   0  0  0  0  0  0  0  0  0  0  0  0
    6.7155  -16.9987   22.5309 C   0  0  0  0  0  0  0  0  0  0  0  0
    5.6303  -16.8019   23.1390 O   0  0  0  0  0  0  0  0  0  0  0  0
    9.2937  -12.0799   18.8168 C   0  0  0  0  0  0  0  0  0  0  0  0
    8.0665  -18.9130   26.8035 C   0  0  2  0  0  0  0  0  0  0  0  0
    8.1826  -18.8210   25.3122 O   0  0  0  0  0  0  0  0  0  0  0  0
    7.3807  -19.7720   24.6773 C   0  0  1  0  0  0  0  0  0  0  0  0
    7.8294  -17.4853   24.7561 N   0  0  0  0  0  0  0  0  0  0  0  0
    7.8570  -17.4028   23.3209 C   0  0  0  0  0  0  0  0  0  0  0  0
    8.5984  -16.3639   25.3870 O   0  0  0  0  0  0  0  0  0  0  0  0
    9.7971  -16.1416   25.0803 C   0  0  0  0  0  0  0  0  0  0  0  0
    7.9459  -12.3194   24.9802 C   0  0  1  0  0  0  0  0  0  0  0  0
    7.0386  -12.8294   26.1103 C   0  0  0  0  0  0  0  0  0  0  0  0
    6.1079  -11.6902   26.4638 C   0  0  0  0  0  0  0  0  0  0  0  0
    7.9344  -13.2080   27.2364 C   0  0  2  0  0  0  0  0  0  0  0  0
    8.7300  -14.4497   27.0480 N   0  0  0  0  0  0  0  0  0  0  0  0
    8.0170  -15.5032   26.3554 C   0  0  0  0  0  0  0  0  0  0  0  0
    9.4035  -14.9530   28.2696 O   0  0  0  0  0  0  0  0  0  0  0  0
    9.1045  -16.2328   28.7432 O   0  0  0  0  0  0  0  0  0  0  0  0
  2  1  1  0
  3  2  2  0
  4  2  1  0
  5  4  1  0
  6  5  1  0
  7  6  1  0
  8 10  1  0
  8  7  1  0
  8  9  1  6
 10 11  2  0
 13 12  1  1
 13 14  1  0
 15 13  1  0
 16 10  1  0
 15 16  1  6
 17 18  2  0
 17 15  1  0
 20 19  1  6
 20 21  1  0
 20 22  1  0
 23 22  1  6
 23 24  1  0
 24 17  1  0
 25 26  1  0
 25 23  1  0
 27 25  2  0
M  END
$$$$
