RTL.pdb
     RDKit          3D

 27 26  0  0  1  0  0  0  0  0999 V2000
    9.1464  -12.7974   16.2060 N   0  0  0  0  0  0  0  0  0  0  0  0
    8.2819  -13.6715   15.4778 C   0  0  0  0  0  0  0  0  0  0  0  0
    7.6630  -13.2090   14.4598 N   0  0  0  0  0  0  0  0  0  0  0  0
    8.1104  -15.0301   15.8756 N   0  0  0  0  0  0  0  0  0  0  0  0
    8.7045  -15.4918   17.1567 C   0  0  0  0  0  0  0  0  0  0  0  0
    8.3158  -14.5291   18.2400 C   0  0  0  0  0  0  0  0  0  0  0  0
    7.6234  -15.0952   19.4187 C   0  0  0  0  0  0  0  0  0  0  0  0
    8.1564  -16.3457   20.0275 C   0  0  2  0  0  0  0  0  0  0  0  0
    7.7338  -17.4790   19.2198 N   0  0  0  0  0  0  0  0  0  0  0  0
    7.7639  -16.4949   21.4367 C   0  0  0  0  0  0  0  0  0  0  0  0
    6.5602  -16.6905   21.7513 O   0  0  0  0  0  0  0  0  0  0  0  0
    7.0948  -13.8222   13.8591 C   0  0  0  0  0  0  0  0  0  0  0  0
    8.0561  -19.1268   23.5703 C   0  0  2  0  0  0  0  0  0  0  0  0
    8.6968  -18.0365   24.3744 O   0  0  0  0  0  0  0  0  0  0  0  0
   10.0860  -18.1764   24.4100 C   0  0  2  0  0  0  0  0  0  0  0  0
    8.3913  -16.6625   23.8877 N   0  0  0  0  0  0  0  0  0  0  0  0
    8.7288  -16.4212   22.5111 C   0  0  0  0  0  0  0  0  0  0  0  0
    8.9306  -15.5883   24.7833 O   0  0  0  0  0  0  0  0  0  0  0  0
   10.0147  -15.0068   24.5246 C   0  0  0  0  0  0  0  0  0  0  0  0
    7.6235  -11.7839   25.2687 C   0  0  2  0  0  0  0  0  0  0  0  0
    6.7836  -12.6986   26.1732 C   0  0  0  0  0  0  0  0  0  0  0  0
    5.6360  -11.8589   26.6895 C   0  0  0  0  0  0  0  0  0  0  0  0
    7.6860  -13.1661   27.2601 C   0  0  2  0  0  0  0  0  0  0  0  0
    8.7269  -14.1513   26.8653 N   0  0  0  0  0  0  0  0  0  0  0  0
    8.2502  -15.1765   25.9598 C   0  0  0  0  0  0  0  0  0  0  0  0
    9.5013  -14.7287   27.9904 O   0  0  0  0  0  0  0  0  0  0  0  0
    9.5596  -16.1157   28.1464 O   0  0  0  0  0  0  0  0  0  0  0  0
  2  1  1  0
  3  2  2  0
  4  2  1  0
  5  4  1  0
  6  5  1  0
  7  6  1  0
  8 10  1  0
  8  7  1  0
  8  9  1  6
 10 11  2  0
 13 12  1  1
 13 14  1  0
 15 13  1  0
 16 10  1  0
 15 16  1  1
 17 18  2  0
 17 15  1  0
 20 19  1  6
 20 21  1  0
 20 22  1  0
 23 22  1  6
 23 24  1  0
 24 17  1  0
 25 26  1  0
 25 23  1  0
 27 25  2  0
M  END
$$$$
