RTL.pdb
     RDKit          3D

 27 26  0  0  1  0  0  0  0  0999 V2000
    7.4206  -13.2359   15.7885 N   0  0  0  0  0  0  0  0  0  0  0  0
    8.5895  -13.9436   16.2061 C   0  0  0  0  0  0  0  0  0  0  0  0
    9.1789  -14.7006   15.3618 N   0  0  0  0  0  0  0  0  0  0  0  0
    9.0898  -13.8113   17.5349 N   0  0  0  0  0  0  0  0  0  0  0  0
    8.2713  -13.1014   18.5513 C   0  0  0  0  0  0  0  0  0  0  0  0
    7.0932  -13.9612   18.9039 C   0  0  0  0  0  0  0  0  0  0  0  0
    7.1495  -14.6708   20.2010 C   0  0  0  0  0  0  0  0  0  0  0  0
    7.8672  -15.9741   20.2713 C   0  0  2  0  0  0  0  0  0  0  0  0
    7.1918  -16.9299   19.4078 N   0  0  0  0  0  0  0  0  0  0  0  0
    7.9960  -16.4698   21.6496 C   0  0  0  0  0  0  0  0  0  0  0  0
    7.0489  -17.0913   22.2001 O   0  0  0  0  0  0  0  0  0  0  0  0
   10.0226  -15.2305   15.6209 C   0  0  0  0  0  0  0  0  0  0  0  0
    9.7458  -19.1098   22.9641 C   0  0  2  0  0  0  0  0  0  0  0  0
   10.1844  -18.0024   23.8735 O   0  0  0  0  0  0  0  0  0  0  0  0
   11.5166  -17.6504   23.6449 C   0  0  2  0  0  0  0  0  0  0  0  0
    9.3630  -16.7649   23.7647 N   0  0  0  0  0  0  0  0  0  0  0  0
    9.1983  -16.2658   22.4264 C   0  0  0  0  0  0  0  0  0  0  0  0
    9.8015  -15.6836   24.7056 O   0  0  0  0  0  0  0  0  0  0  0  0
   10.1110  -14.5398   24.2857 C   0  0  0  0  0  0  0  0  0  0  0  0
    9.3624  -12.1530   26.7395 C   0  0  2  0  0  0  0  0  0  0  0  0
    8.2593  -12.9836   26.0661 C   0  0  0  0  0  0  0  0  0  0  0  0
    6.9857  -12.1734   26.1687 C   0  0  0  0  0  0  0  0  0  0  0  0
    8.1817  -14.2698   26.8103 C   0  0  2  0  0  0  0  0  0  0  0  0
    9.4797  -14.9307   27.1077 N   0  0  0  0  0  0  0  0  0  0  0  0
    9.8894  -15.8946   26.1071 C   0  0  0  0  0  0  0  0  0  0  0  0
    9.6038  -15.4774   28.4806 O   0  0  0  0  0  0  0  0  0  0  0  0
   10.2023  -14.7043   29.4784 O   0  0  0  0  0  0  0  0  0  0  0  0
  2  1  1  0
  3  2  2  0
  4  2  1  0
  5  4  1  0
  6  5  1  0
  7  6  1  0
  8 10  1  0
  8  7  1  0
  8  9  1  6
 10 11  2  0
 13 12  1  1
 13 14  1  0
 15 13  1  0
 16 10  1  0
 15 16  1  1
 17 18  2  0
 17 15  1  0
 20 19  1  6
 20 21  1  0
 20 22  1  0
 23 22  1  6
 23 24  1  0
 24 17  1  0
 25 26  1  0
 25 23  1  0
 27 25  2  0
M  END
$$$$
