RTL.pdb
     RDKit          3D

 27 26  0  0  1  0  0  0  0  0999 V2000
    7.5828  -12.5867   14.9280 N   0  0  0  0  0  0  0  0  0  0  0  0
    7.7595  -13.9928   14.7455 C   0  0  0  0  0  0  0  0  0  0  0  0
    7.8985  -14.4412   13.5568 N   0  0  0  0  0  0  0  0  0  0  0  0
    7.7802  -14.8791   15.8624 N   0  0  0  0  0  0  0  0  0  0  0  0
    8.7476  -14.6367   16.9636 C   0  0  0  0  0  0  0  0  0  0  0  0
    8.0642  -13.8390   18.0352 C   0  0  0  0  0  0  0  0  0  0  0  0
    7.6464  -14.5735   19.2498 C   0  0  0  0  0  0  0  0  0  0  0  0
    8.6840  -14.9453   20.2516 C   0  0  2  0  0  0  0  0  0  0  0  0
    9.4888  -16.0310   19.7139 N   0  0  0  0  0  0  0  0  0  0  0  0
    8.1046  -15.2830   21.5601 C   0  0  0  0  0  0  0  0  0  0  0  0
    7.3716  -14.4602   22.1700 O   0  0  0  0  0  0  0  0  0  0  0  0
    8.0708  -15.4411   13.3825 C   0  0  0  0  0  0  0  0  0  0  0  0
    7.3817  -18.5926   25.2606 C   0  0  2  0  0  0  0  0  0  0  0  0
    7.8800  -18.3016   23.8775 O   0  0  0  0  0  0  0  0  0  0  0  0
    7.0921  -18.9264   22.9082 C   0  0  1  0  0  0  0  0  0  0  0  0
    7.9418  -16.8509   23.5462 N   0  0  0  0  0  0  0  0  0  0  0  0
    8.3498  -16.5566   22.1993 C   0  0  0  0  0  0  0  0  0  0  0  0
    8.7237  -16.0527   24.5453 O   0  0  0  0  0  0  0  0  0  0  0  0
    9.9726  -15.9400   24.4563 C   0  0  0  0  0  0  0  0  0  0  0  0
    7.9075  -11.8586   25.4513 C   0  0  1  0  0  0  0  0  0  0  0  0
    7.0516  -12.8155   26.2950 C   0  0  0  0  0  0  0  0  0  0  0  0
    6.0380  -11.9601   27.0228 C   0  0  0  0  0  0  0  0  0  0  0  0
    7.9831  -13.5137   27.2219 C   0  0  2  0  0  0  0  0  0  0  0  0
    8.8022  -14.6020   26.6262 N   0  0  0  0  0  0  0  0  0  0  0  0
    8.0988  -15.3890   25.6341 C   0  0  0  0  0  0  0  0  0  0  0  0
    9.5114  -15.4598   27.6062 O   0  0  0  0  0  0  0  0  0  0  0  0
   10.4599  -14.8913   28.4597 O   0  0  0  0  0  0  0  0  0  0  0  0
  2  1  1  0
  3  2  2  0
  4  2  1  0
  5  4  1  0
  6  5  1  0
  7  6  1  0
  8 10  1  0
  8  7  1  0
  8  9  1  6
 10 11  2  0
 13 12  1  1
 13 14  1  0
 15 13  1  0
 16 10  1  0
 15 16  1  6
 17 18  2  0
 17 15  1  0
 20 19  1  6
 20 21  1  0
 20 22  1  0
 23 22  1  6
 23 24  1  0
 24 17  1  0
 25 26  1  0
 25 23  1  0
 27 25  2  0
M  END
$$$$
