RTL.pdb
     RDKit          3D

 27 26  0  0  1  0  0  0  0  0999 V2000
    2.0011  -19.2838   22.5037 N   0  0  0  0  0  0  0  0  0  0  0  0
    2.0513  -20.1942   21.4035 C   0  0  0  0  0  0  0  0  0  0  0  0
    0.9509  -20.5880   20.8866 N   0  0  0  0  0  0  0  0  0  0  0  0
    3.2996  -20.6558   20.8916 N   0  0  0  0  0  0  0  0  0  0  0  0
    4.2895  -19.6670   20.3918 C   0  0  0  0  0  0  0  0  0  0  0  0
    4.8611  -18.9260   21.5647 C   0  0  0  0  0  0  0  0  0  0  0  0
    6.3306  -18.9723   21.7312 C   0  0  0  0  0  0  0  0  0  0  0  0
    7.1806  -18.1879   20.7927 C   0  0  2  0  0  0  0  0  0  0  0  0
    8.0418  -19.1036   20.0612 N   0  0  0  0  0  0  0  0  0  0  0  0
    7.9472  -17.1358   21.4764 C   0  0  0  0  0  0  0  0  0  0  0  0
    9.1268  -17.3484   21.8630 O   0  0  0  0  0  0  0  0  0  0  0  0
    0.9413  -21.2160   20.0709 C   0  0  0  0  0  0  0  0  0  0  0  0
    8.8725  -13.5351   20.3786 C   0  0  2  0  0  0  0  0  0  0  0  0
    8.1517  -13.4834   21.6915 O   0  0  0  0  0  0  0  0  0  0  0  0
    6.8364  -13.0402   21.5355 C   0  0  2  0  0  0  0  0  0  0  0  0
    8.1094  -14.7852   22.4135 N   0  0  0  0  0  0  0  0  0  0  0  0
    7.3878  -15.8279   21.7356 C   0  0  0  0  0  0  0  0  0  0  0  0
    7.6724  -14.6517   23.8411 O   0  0  0  0  0  0  0  0  0  0  0  0
    6.5893  -15.1492   24.2409 C   0  0  0  0  0  0  0  0  0  0  0  0
    9.1439  -15.3495   28.2714 C   0  0  1  0  0  0  0  0  0  0  0  0
    9.9877  -14.3507   27.4648 C   0  0  0  0  0  0  0  0  0  0  0  0
   11.1041  -13.8930   28.3775 C   0  0  0  0  0  0  0  0  0  0  0  0
    9.0755  -13.2417   27.0746 C   0  0  2  0  0  0  0  0  0  0  0  0
    7.9855  -13.5961   26.1277 N   0  0  0  0  0  0  0  0  0  0  0  0
    8.4529  -13.9620   24.8064 C   0  0  0  0  0  0  0  0  0  0  0  0
    6.8690  -12.6222   26.0655 O   0  0  0  0  0  0  0  0  0  0  0  0
    5.9955  -12.5056   27.1494 O   0  0  0  0  0  0  0  0  0  0  0  0
  2  1  1  0
  3  2  2  0
  4  2  1  0
  5  4  1  0
  6  5  1  0
  7  6  1  0
  8 10  1  0
  8  7  1  0
  8  9  1  1
 10 11  2  0
 13 12  1  1
 13 14  1  0
 15 13  1  0
 16 10  1  0
 15 16  1  1
 17 18  2  0
 17 15  1  0
 20 19  1  6
 20 21  1  0
 20 22  1  0
 23 22  1  1
 23 24  1  0
 24 17  1  0
 25 26  1  0
 25 23  1  0
 27 25  2  0
M  END
$$$$
