RTL.pdb
     RDKit          3D

 27 26  0  0  1  0  0  0  0  0999 V2000
   11.3245  -18.9826   12.5783 N   0  0  0  0  0  0  0  0  0  0  0  0
   11.3912  -20.3729   12.9016 C   0  0  0  0  0  0  0  0  0  0  0  0
   11.6310  -21.2068   11.9634 N   0  0  0  0  0  0  0  0  0  0  0  0
   11.1945  -20.8235   14.2402 N   0  0  0  0  0  0  0  0  0  0  0  0
   11.1659  -19.8294   15.3439 C   0  0  0  0  0  0  0  0  0  0  0  0
    9.7461  -19.3953   15.5615 C   0  0  0  0  0  0  0  0  0  0  0  0
    9.4960  -18.4738   16.6918 C   0  0  0  0  0  0  0  0  0  0  0  0
    9.8125  -17.0287   16.5183 C   0  0  2  0  0  0  0  0  0  0  0  0
   11.0489  -16.9057   15.7621 N   0  0  0  0  0  0  0  0  0  0  0  0
    9.8752  -16.3106   17.7998 C   0  0  0  0  0  0  0  0  0  0  0  0
   10.9128  -16.3567   18.5123 O   0  0  0  0  0  0  0  0  0  0  0  0
   11.6391  -22.2206   12.1422 C   0  0  0  0  0  0  0  0  0  0  0  0
    7.8570  -12.9225   20.9081 C   0  0  2  0  0  0  0  0  0  0  0  0
    7.7493  -13.7447   19.6597 O   0  0  0  0  0  0  0  0  0  0  0  0
    7.7760  -12.9436   18.5160 C   0  0  1  0  0  0  0  0  0  0  0  0
    8.8147  -14.7755   19.5169 N   0  0  0  0  0  0  0  0  0  0  0  0
    8.7621  -15.5322   18.2954 C   0  0  0  0  0  0  0  0  0  0  0  0
    8.9317  -15.6698   20.7141 O   0  0  0  0  0  0  0  0  0  0  0  0
    8.9032  -16.9213   20.5985 C   0  0  0  0  0  0  0  0  0  0  0  0
   10.8237  -18.7506   23.3189 C   0  0  2  0  0  0  0  0  0  0  0  0
   11.1217  -17.7324   22.2077 C   0  0  0  0  0  0  0  0  0  0  0  0
   12.5031  -18.0577   21.6835 C   0  0  0  0  0  0  0  0  0  0  0  0
   11.0494  -16.3852   22.8352 C   0  0  2  0  0  0  0  0  0  0  0  0
    9.6844  -15.8748   23.1291 N   0  0  0  0  0  0  0  0  0  0  0  0
    9.0789  -15.1532   22.0286 C   0  0  0  0  0  0  0  0  0  0  0  0
    9.5542  -15.1362   24.4084 O   0  0  0  0  0  0  0  0  0  0  0  0
    9.3725  -13.7513   24.3887 O   0  0  0  0  0  0  0  0  0  0  0  0
  2  1  1  0
  3  2  2  0
  4  2  1  0
  5  4  1  0
  6  5  1  0
  7  6  1  0
  8 10  1  0
  8  7  1  0
  8  9  1  1
 10 11  2  0
 13 12  1  1
 13 14  1  0
 15 13  1  0
 16 10  1  0
 15 16  1  1
 17 18  2  0
 17 15  1  0
 20 19  1  6
 20 21  1  0
 20 22  1  0
 23 22  1  6
 23 24  1  0
 24 17  1  0
 25 26  1  0
 25 23  1  0
 27 25  2  0
M  END
$$$$
