RTL.pdb
     RDKit          3D

 27 26  0  0  1  0  0  0  0  0999 V2000
    8.0133  -15.2373   16.0691 N   0  0  0  0  0  0  0  0  0  0  0  0
    7.9996  -13.9574   15.4341 C   0  0  0  0  0  0  0  0  0  0  0  0
    8.1519  -13.9035   14.1663 N   0  0  0  0  0  0  0  0  0  0  0  0
    7.8209  -12.7646   16.1948 N   0  0  0  0  0  0  0  0  0  0  0  0
    7.8037  -12.8453   17.6781 C   0  0  0  0  0  0  0  0  0  0  0  0
    8.4770  -14.1193   18.0968 C   0  0  0  0  0  0  0  0  0  0  0  0
    8.0461  -14.7102   19.3830 C   0  0  0  0  0  0  0  0  0  0  0  0
    8.7201  -15.9496   19.8607 C   0  0  2  0  0  0  0  0  0  0  0  0
    8.3591  -17.0501   18.9810 N   0  0  0  0  0  0  0  0  0  0  0  0
    8.4168  -16.2457   21.2687 C   0  0  0  0  0  0  0  0  0  0  0  0
    7.2293  -16.2276   21.6878 O   0  0  0  0  0  0  0  0  0  0  0  0
    8.2420  -13.0009   13.6795 C   0  0  0  0  0  0  0  0  0  0  0  0
    9.3630  -18.7879   25.3047 C   0  0  2  0  0  0  0  0  0  0  0  0
    9.7516  -18.3117   23.9379 O   0  0  0  0  0  0  0  0  0  0  0  0
    9.3746  -19.2260   22.9516 C   0  0  1  0  0  0  0  0  0  0  0  0
    9.1801  -16.9864   23.5705 N   0  0  0  0  0  0  0  0  0  0  0  0
    9.4547  -16.5633   22.2240 C   0  0  0  0  0  0  0  0  0  0  0  0
    9.5049  -15.9108   24.5627 O   0  0  0  0  0  0  0  0  0  0  0  0
   10.6462  -15.3853   24.6047 C   0  0  0  0  0  0  0  0  0  0  0  0
    7.9529  -11.8295   25.5582 C   0  0  1  0  0  0  0  0  0  0  0  0
    6.9906  -12.9466   25.9897 C   0  0  0  0  0  0  0  0  0  0  0  0
    5.7401  -12.2655   26.5007 C   0  0  0  0  0  0  0  0  0  0  0  0
    7.6909  -13.7263   27.0461 C   0  0  2  0  0  0  0  0  0  0  0  0
    8.8510  -14.5396   26.5956 N   0  0  0  0  0  0  0  0  0  0  0  0
    8.5482  -15.4350   25.4980 C   0  0  0  0  0  0  0  0  0  0  0  0
    9.5902  -15.2300   27.6801 O   0  0  0  0  0  0  0  0  0  0  0  0
   10.3888  -14.4855   28.5515 O   0  0  0  0  0  0  0  0  0  0  0  0
  2  1  1  0
  3  2  2  0
  4  2  1  0
  5  4  1  0
  6  5  1  0
  7  6  1  0
  8 10  1  0
  8  7  1  0
  8  9  1  6
 10 11  2  0
 13 12  1  1
 13 14  1  0
 15 13  1  0
 16 10  1  0
 15 16  1  1
 17 18  2  0
 17 15  1  0
 20 19  1  6
 20 21  1  0
 20 22  1  0
 23 22  1  6
 23 24  1  0
 24 17  1  0
 25 26  1  0
 25 23  1  0
 27 25  2  0
M  END
$$$$
