RTL.pdb
     RDKit          3D

 27 26  0  0  1  0  0  0  0  0999 V2000
    7.0018  -14.0022   13.9055 N   0  0  0  0  0  0  0  0  0  0  0  0
    8.3540  -13.5843   13.7091 C   0  0  0  0  0  0  0  0  0  0  0  0
    8.5820  -12.6083   12.9161 N   0  0  0  0  0  0  0  0  0  0  0  0
    9.4277  -14.2397   14.3805 N   0  0  0  0  0  0  0  0  0  0  0  0
    9.2830  -14.5826   15.8188 C   0  0  0  0  0  0  0  0  0  0  0  0
    7.8212  -14.6533   16.1501 C   0  0  0  0  0  0  0  0  0  0  0  0
    7.4692  -14.9111   17.5639 C   0  0  0  0  0  0  0  0  0  0  0  0
    8.5317  -14.7798   18.5995 C   0  0  2  0  0  0  0  0  0  0  0  0
    9.4917  -15.8588   18.4276 N   0  0  0  0  0  0  0  0  0  0  0  0
    7.9836  -14.7402   19.9634 C   0  0  0  0  0  0  0  0  0  0  0  0
    7.0903  -13.9082   20.2731 O   0  0  0  0  0  0  0  0  0  0  0  0
    9.5408  -12.2744   12.7459 C   0  0  0  0  0  0  0  0  0  0  0  0
    6.2541  -17.5809   21.6265 C   0  0  2  0  0  0  0  0  0  0  0  0
    7.2604  -17.0781   22.6166 O   0  0  0  0  0  0  0  0  0  0  0  0
    8.3330  -17.9627   22.7495 C   0  0  2  0  0  0  0  0  0  0  0  0
    7.8169  -15.7359   22.2894 N   0  0  0  0  0  0  0  0  0  0  0  0
    8.4418  -15.6403   20.9980 C   0  0  0  0  0  0  0  0  0  0  0  0
    8.6983  -15.1857   23.3698 O   0  0  0  0  0  0  0  0  0  0  0  0
    9.8904  -15.5648   23.4950 C   0  0  0  0  0  0  0  0  0  0  0  0
    6.0577  -11.8436   27.2713 C   0  0  1  0  0  0  0  0  0  0  0  0
    7.4070  -12.1566   26.6067 C   0  0  0  0  0  0  0  0  0  0  0  0
    7.3539  -11.5567   25.2189 C   0  0  0  0  0  0  0  0  0  0  0  0
    7.5367  -13.6388   26.5857 C   0  0  2  0  0  0  0  0  0  0  0  0
    8.5978  -14.1884   25.7013 N   0  0  0  0  0  0  0  0  0  0  0  0
    8.2354  -14.2169   24.2991 C   0  0  0  0  0  0  0  0  0  0  0  0
    9.1767  -15.4793   26.1456 O   0  0  0  0  0  0  0  0  0  0  0  0
    8.3795  -16.6264   26.1502 O   0  0  0  0  0  0  0  0  0  0  0  0
  2  1  1  0
  3  2  2  0
  4  2  1  0
  5  4  1  0
  6  5  1  0
  7  6  1  0
  8 10  1  0
  8  7  1  0
  8  9  1  1
 10 11  2  0
 13 12  1  1
 13 14  1  0
 15 13  1  0
 16 10  1  0
 15 16  1  1
 17 18  2  0
 17 15  1  0
 20 19  1  1
 20 21  1  0
 20 22  1  0
 23 22  1  6
 23 24  1  0
 24 17  1  0
 25 26  1  0
 25 23  1  0
 27 25  2  0
M  END
$$$$
