RTL.pdb
     RDKit          3D

 27 26  0  0  1  0  0  0  0  0999 V2000
   16.1954  -14.6980   15.3537 N   0  0  0  0  0  0  0  0  0  0  0  0
   16.8200  -14.5267   16.6274 C   0  0  0  0  0  0  0  0  0  0  0  0
   18.0184  -14.0845   16.6650 N   0  0  0  0  0  0  0  0  0  0  0  0
   16.1249  -14.8420   17.8319 N   0  0  0  0  0  0  0  0  0  0  0  0
   14.7399  -15.3737   17.7529 C   0  0  0  0  0  0  0  0  0  0  0  0
   13.7795  -14.2503   18.0122 C   0  0  0  0  0  0  0  0  0  0  0  0
   12.9275  -14.3655   19.2164 C   0  0  0  0  0  0  0  0  0  0  0  0
   11.5924  -15.0131   19.0871 C   0  0  2  0  0  0  0  0  0  0  0  0
   11.1330  -14.8733   17.7142 N   0  0  0  0  0  0  0  0  0  0  0  0
   10.6171  -14.4849   20.0523 C   0  0  0  0  0  0  0  0  0  0  0  0
   10.2904  -13.2687   20.0356 O   0  0  0  0  0  0  0  0  0  0  0  0
   18.5669  -14.1082   17.5358 C   0  0  0  0  0  0  0  0  0  0  0  0
    7.1270  -14.5420   20.4813 C   0  0  2  0  0  0  0  0  0  0  0  0
    7.6435  -15.1357   21.7567 O   0  0  0  0  0  0  0  0  0  0  0  0
    7.4959  -16.5245   21.7707 C   0  0  2  0  0  0  0  0  0  0  0  0
    9.0739  -14.8284   22.0348 N   0  0  0  0  0  0  0  0  0  0  0  0
    9.9997  -15.3258   21.0535 C   0  0  0  0  0  0  0  0  0  0  0  0
    9.4947  -15.1970   23.4255 O   0  0  0  0  0  0  0  0  0  0  0  0
   10.3156  -16.1261   23.6337 C   0  0  0  0  0  0  0  0  0  0  0  0
    8.2343  -13.2846   29.2222 C   0  0  1  0  0  0  0  0  0  0  0  0
    8.9507  -14.3465   28.3741 C   0  0  0  0  0  0  0  0  0  0  0  0
   10.4053  -14.3212   28.7894 C   0  0  0  0  0  0  0  0  0  0  0  0
    8.7542  -13.9575   26.9513 C   0  0  2  0  0  0  0  0  0  0  0  0
    9.2408  -14.9287   25.9363 N   0  0  0  0  0  0  0  0  0  0  0  0
    8.9915  -14.5215   24.5687 C   0  0  0  0  0  0  0  0  0  0  0  0
    8.8379  -16.3361   26.1728 O   0  0  0  0  0  0  0  0  0  0  0  0
    7.6267  -16.8020   25.6558 O   0  0  0  0  0  0  0  0  0  0  0  0
  2  1  1  0
  3  2  2  0
  4  2  1  0
  5  4  1  0
  6  5  1  0
  7  6  1  0
  8 10  1  0
  8  7  1  0
  8  9  1  6
 10 11  2  0
 13 12  1  1
 13 14  1  0
 15 13  1  0
 16 10  1  0
 15 16  1  1
 17 18  2  0
 17 15  1  0
 20 19  1  1
 20 21  1  0
 20 22  1  0
 23 22  1  6
 23 24  1  0
 24 17  1  0
 25 26  1  0
 25 23  1  0
 27 25  2  0
M  END
$$$$
