IGY.pdb
     RDKit          3D

 25 25  0  0  1  0  0  0  0  0999 V2000
   24.5120  -13.2034  -18.6460 C   0  0  0  0  0  0  0  0  0  0  0  0
   25.1997  -14.5514  -18.6923 C   0  0  0  0  0  0  0  0  0  0  0  0
   25.7986  -14.8666  -17.3393 C   0  0  2  0  0  0  0  0  0  0  0  0
   26.7776  -13.8079  -16.9230 C   0  0  0  0  0  0  0  0  0  0  0  0
   26.4689  -16.2370  -17.4214 C   0  0  2  0  0  0  0  0  0  0  0  0
   25.5571  -17.1747  -18.0143 N   0  0  0  0  0  0  0  0  0  0  0  0
   26.8990  -16.6683  -16.0567 C   0  0  0  0  0  0  0  0  0  0  0  0
   27.7575  -15.9852  -15.4462 O   0  0  0  0  0  0  0  0  0  0  0  0
   26.3719  -17.8175  -15.4322 N   0  0  0  0  0  0  0  0  0  0  0  0
   26.7065  -18.1551  -14.0658 C   0  0  0  0  0  0  0  0  0  0  0  0
   26.0039  -19.3761  -13.6117 C   0  0  0  0  0  0  0  0  0  0  0  0
   25.1105  -19.8603  -14.3420 O   0  0  0  0  0  0  0  0  0  0  0  0
   27.1067  -18.8401   -6.3236 O   0  0  0  0  0  0  0  0  0  0  0  0
   26.9389  -19.6161   -7.4721 C   0  0  0  0  0  0  0  0  0  0  0  0
   25.8085  -20.3792   -7.6227 C   0  0  0  0  0  0  0  0  0  0  0  0
   25.6415  -21.1541   -8.7702 C   0  0  0  0  0  0  0  0  0  0  0  0
   26.5903  -21.1759   -9.7690 C   0  0  0  0  0  0  0  0  0  0  0  0
   26.3593  -22.0102  -10.9522 C   0  0  0  0  0  0  0  0  0  0  0  0
   25.6800  -21.2700  -12.0828 C   0  0  2  0  0  0  0  0  0  0  0  0
   26.2995  -20.0196  -12.3864 N   0  0  0  0  0  0  0  0  0  0  0  0
   24.2843  -21.0232  -11.6622 C   0  0  0  0  0  0  0  0  0  0  0  0
   23.3778  -22.0625  -11.7314 O   0  0  0  0  0  0  0  0  0  0  0  0
   27.7114  -20.3986   -9.5846 C   0  0  0  0  0  0  0  0  0  0  0  0
   27.8974  -19.6216   -8.4529 C   0  0  0  0  0  0  0  0  0  0  0  0
   23.8646  -19.9133  -11.2402 O   0  0  0  0  0  0  0  0  0  0  0  0
  2  1  1  0
  2  3  1  0
  3  4  1  6
  5  3  1  0
  5  6  1  1
  7  5  1  0
  7  9  1  0
  8  7  2  0
 10  9  1  0
 11 10  1  0
 12 11  2  0
 13 14  1  0
 14 24  2  0
 14 15  1  0
 15 16  2  0
 16 17  1  0
 17 18  1  0
 19 18  1  1
 19 20  1  0
 20 11  1  0
 21 22  1  0
 21 19  1  0
 23 17  2  0
 24 23  1  0
 25 21  2  0
M  END
$$$$
