IGY.pdb
     RDKit          3D

 25 25  0  0  1  0  0  0  0  0999 V2000
   24.2950  -14.9427  -19.7908 C   0  0  0  0  0  0  0  0  0  0  0  0
   25.2387  -14.9579  -18.6071 C   0  0  0  0  0  0  0  0  0  0  0  0
   25.4586  -16.3820  -18.1467 C   0  0  2  0  0  0  0  0  0  0  0  0
   24.1540  -17.0567  -17.8383 C   0  0  0  0  0  0  0  0  0  0  0  0
   26.3686  -16.3522  -16.9198 C   0  0  2  0  0  0  0  0  0  0  0  0
   27.5759  -15.6454  -17.2436 N   0  0  0  0  0  0  0  0  0  0  0  0
   26.6475  -17.7489  -16.4673 C   0  0  0  0  0  0  0  0  0  0  0  0
   25.7492  -18.3812  -15.8593 O   0  0  0  0  0  0  0  0  0  0  0  0
   27.8868  -18.3798  -16.7009 N   0  0  0  0  0  0  0  0  0  0  0  0
   28.6285  -19.0074  -15.6291 C   0  0  0  0  0  0  0  0  0  0  0  0
   27.8858  -20.1418  -15.0353 C   0  0  0  0  0  0  0  0  0  0  0  0
   28.4193  -21.2737  -15.0358 O   0  0  0  0  0  0  0  0  0  0  0  0
   24.3565  -20.4547   -7.2351 O   0  0  0  0  0  0  0  0  0  0  0  0
   25.0185  -20.5323   -8.4620 C   0  0  0  0  0  0  0  0  0  0  0  0
   26.2690  -19.9846   -8.6002 C   0  0  0  0  0  0  0  0  0  0  0  0
   26.9296  -20.0624   -9.8260 C   0  0  0  0  0  0  0  0  0  0  0  0
   26.3560  -20.6808  -10.9154 C   0  0  0  0  0  0  0  0  0  0  0  0
   27.0989  -20.7314  -12.1783 C   0  0  0  0  0  0  0  0  0  0  0  0
   26.2065  -20.8571  -13.3929 C   0  0  2  0  0  0  0  0  0  0  0  0
   26.5974  -20.0007  -14.4668 N   0  0  0  0  0  0  0  0  0  0  0  0
   24.8386  -20.4943  -12.9649 C   0  0  0  0  0  0  0  0  0  0  0  0
   24.2592  -19.3570  -13.4918 O   0  0  0  0  0  0  0  0  0  0  0  0
   25.1010  -21.2190  -10.7409 C   0  0  0  0  0  0  0  0  0  0  0  0
   24.4270  -21.1530   -9.5324 C   0  0  0  0  0  0  0  0  0  0  0  0
   24.1606  -21.1636  -12.1413 O   0  0  0  0  0  0  0  0  0  0  0  0
  2  1  1  0
  2  3  1  0
  3  4  1  1
  5  3  1  0
  5  6  1  6
  7  5  1  0
  7  9  1  0
  8  7  2  0
 10  9  1  0
 11 10  1  0
 12 11  2  0
 13 14  1  0
 14 24  2  0
 14 15  1  0
 15 16  2  0
 16 17  1  0
 17 18  1  0
 19 18  1  1
 19 20  1  0
 20 11  1  0
 21 22  1  0
 21 19  1  0
 23 17  2  0
 24 23  1  0
 25 21  2  0
M  END
$$$$
