IGY.pdb
     RDKit          3D

 25 25  0  0  1  0  0  0  0  0999 V2000
   22.2402  -22.2090  -16.5583 C   0  0  0  0  0  0  0  0  0  0  0  0
   23.5779  -22.7101  -16.0566 C   0  0  0  0  0  0  0  0  0  0  0  0
   24.6912  -21.8707  -16.6436 C   0  0  2  0  0  0  0  0  0  0  0  0
   25.1961  -22.4651  -17.9258 C   0  0  0  0  0  0  0  0  0  0  0  0
   25.8078  -21.7655  -15.6062 C   0  0  2  0  0  0  0  0  0  0  0  0
   26.2018  -23.0853  -15.2000 N   0  0  0  0  0  0  0  0  0  0  0  0
   25.3414  -20.9444  -14.4479 C   0  0  0  0  0  0  0  0  0  0  0  0
   25.0968  -19.7260  -14.6264 O   0  0  0  0  0  0  0  0  0  0  0  0
   25.1671  -21.4936  -13.1608 N   0  0  0  0  0  0  0  0  0  0  0  0
   24.7410  -20.6792  -12.0437 C   0  0  0  0  0  0  0  0  0  0  0  0
   25.6617  -20.7993  -10.8910 C   0  0  0  0  0  0  0  0  0  0  0  0
   26.6924  -21.4976  -11.0172 O   0  0  0  0  0  0  0  0  0  0  0  0
   30.4063  -20.0107   -3.6540 O   0  0  0  0  0  0  0  0  0  0  0  0
   29.5609  -19.7807   -4.7412 C   0  0  0  0  0  0  0  0  0  0  0  0
   29.8446  -20.3450   -5.9593 C   0  0  0  0  0  0  0  0  0  0  0  0
   28.9999  -20.1150   -7.0449 C   0  0  0  0  0  0  0  0  0  0  0  0
   27.8751  -19.3279   -6.9282 C   0  0  0  0  0  0  0  0  0  0  0  0
   27.0249  -19.1221   -8.1047 C   0  0  0  0  0  0  0  0  0  0  0  0
   26.3237  -20.3811   -8.5638 C   0  0  2  0  0  0  0  0  0  0  0  0
   25.4259  -20.1579   -9.6517 N   0  0  0  0  0  0  0  0  0  0  0  0
   25.5576  -20.8960   -7.4088 C   0  0  0  0  0  0  0  0  0  0  0  0
   24.1785  -20.9004   -7.4774 O   0  0  0  0  0  0  0  0  0  0  0  0
   27.6213  -18.7779   -5.6920 C   0  0  0  0  0  0  0  0  0  0  0  0
   28.4469  -18.9935   -4.6006 C   0  0  0  0  0  0  0  0  0  0  0  0
   26.0884  -21.3357   -6.3548 O   0  0  0  0  0  0  0  0  0  0  0  0
  2  1  1  0
  2  3  1  0
  3  4  1  6
  5  3  1  0
  5  6  1  1
  7  5  1  0
  7  9  1  0
  8  7  2  0
 10  9  1  0
 11 10  1  0
 12 11  2  0
 13 14  1  0
 14 24  2  0
 14 15  1  0
 15 16  2  0
 16 17  1  0
 17 18  1  0
 19 18  1  1
 19 20  1  0
 20 11  1  0
 21 22  1  0
 21 19  1  0
 23 17  2  0
 24 23  1  0
 25 21  2  0
M  END
$$$$
