IGY.pdb
     RDKit          3D

 25 25  0  0  1  0  0  0  0  0999 V2000
   27.3700  -20.0287   -3.4947 C   0  0  0  0  0  0  0  0  0  0  0  0
   27.2886  -19.3352   -4.8380 C   0  0  0  0  0  0  0  0  0  0  0  0
   27.9228  -20.2044   -5.9014 C   0  0  2  0  0  0  0  0  0  0  0  0
   29.3215  -20.5909   -5.5186 C   0  0  0  0  0  0  0  0  0  0  0  0
   27.9041  -19.4347   -7.2210 C   0  0  2  0  0  0  0  0  0  0  0  0
   26.5425  -19.1984   -7.6114 N   0  0  0  0  0  0  0  0  0  0  0  0
   28.6543  -20.2024   -8.2609 C   0  0  0  0  0  0  0  0  0  0  0  0
   29.8250  -20.5805   -8.0102 O   0  0  0  0  0  0  0  0  0  0  0  0
   28.0900  -20.5160   -9.5146 N   0  0  0  0  0  0  0  0  0  0  0  0
   28.8663  -21.1583  -10.5527 C   0  0  0  0  0  0  0  0  0  0  0  0
   28.0745  -21.3632  -11.7863 C   0  0  0  0  0  0  0  0  0  0  0  0
   28.6401  -21.8592  -12.7863 O   0  0  0  0  0  0  0  0  0  0  0  0
   21.0126  -20.1908   -9.2503 O   0  0  0  0  0  0  0  0  0  0  0  0
   21.9390  -20.6810  -10.1728 C   0  0  0  0  0  0  0  0  0  0  0  0
   23.1748  -21.0970   -9.7457 C   0  0  0  0  0  0  0  0  0  0  0  0
   24.0997  -21.5865  -10.6676 C   0  0  0  0  0  0  0  0  0  0  0  0
   23.8048  -21.6654  -12.0111 C   0  0  0  0  0  0  0  0  0  0  0  0
   24.8177  -22.1888  -12.9328 C   0  0  0  0  0  0  0  0  0  0  0  0
   26.0046  -21.2670  -13.1037 C   0  0  2  0  0  0  0  0  0  0  0  0
   26.7044  -21.0220  -11.8832 N   0  0  0  0  0  0  0  0  0  0  0  0
   25.4854  -19.9841  -13.6237 C   0  0  0  0  0  0  0  0  0  0  0  0
   24.9217  -19.9596  -14.8840 O   0  0  0  0  0  0  0  0  0  0  0  0
   22.5561  -21.2395  -12.4041 C   0  0  0  0  0  0  0  0  0  0  0  0
   21.6225  -20.7499  -11.5054 C   0  0  0  0  0  0  0  0  0  0  0  0
   25.5249  -18.9002  -12.9837 O   0  0  0  0  0  0  0  0  0  0  0  0
  2  1  1  0
  2  3  1  0
  3  4  1  1
  5  3  1  0
  5  6  1  6
  7  5  1  0
  7  9  1  0
  8  7  2  0
 10  9  1  0
 11 10  1  0
 12 11  2  0
 13 14  1  0
 14 24  2  0
 14 15  1  0
 15 16  2  0
 16 17  1  0
 17 18  1  0
 19 18  1  1
 19 20  1  0
 20 11  1  0
 21 22  1  0
 21 19  1  0
 23 17  2  0
 24 23  1  0
 25 21  2  0
M  END
$$$$
