IGY.pdb
     RDKit          3D

 25 25  0  0  1  0  0  0  0  0999 V2000
   16.8101  -18.9730  -21.4308 C   0  0  0  0  0  0  0  0  0  0  0  0
   18.0183  -18.9772  -20.5184 C   0  0  0  0  0  0  0  0  0  0  0  0
   18.8362  -17.7254  -20.7473 C   0  0  2  0  0  0  0  0  0  0  0  0
   20.2277  -18.0648  -21.1955 C   0  0  0  0  0  0  0  0  0  0  0  0
   18.8549  -16.9229  -19.4474 C   0  0  2  0  0  0  0  0  0  0  0  0
   17.5254  -16.4662  -19.1544 N   0  0  0  0  0  0  0  0  0  0  0  0
   19.8171  -15.7863  -19.5726 C   0  0  0  0  0  0  0  0  0  0  0  0
   21.0347  -16.0377  -19.7475 O   0  0  0  0  0  0  0  0  0  0  0  0
   19.4021  -14.4406  -19.5008 N   0  0  0  0  0  0  0  0  0  0  0  0
   20.3558  -13.3534  -19.5344 C   0  0  0  0  0  0  0  0  0  0  0  0
   20.3790  -12.6008  -18.2600 C   0  0  0  0  0  0  0  0  0  0  0  0
   19.4240  -12.7408  -17.4637 O   0  0  0  0  0  0  0  0  0  0  0  0
   22.1650   -6.9616  -11.7661 O   0  0  0  0  0  0  0  0  0  0  0  0
   22.2877   -7.8116  -12.8670 C   0  0  0  0  0  0  0  0  0  0  0  0
   22.0853   -7.3238  -14.1334 C   0  0  0  0  0  0  0  0  0  0  0  0
   22.2081   -8.1733  -15.2327 C   0  0  0  0  0  0  0  0  0  0  0  0
   22.5305   -9.5043  -15.0819 C   0  0  0  0  0  0  0  0  0  0  0  0
   22.6454  -10.3486  -16.2749 C   0  0  0  0  0  0  0  0  0  0  0  0
   21.3264  -10.9420  -16.7173 C   0  0  2  0  0  0  0  0  0  0  0  0
   21.4357  -11.7293  -17.9037 N   0  0  0  0  0  0  0  0  0  0  0  0
   20.4080   -9.8125  -16.9753 C   0  0  0  0  0  0  0  0  0  0  0  0
   19.5298   -9.4320  -15.9800 O   0  0  0  0  0  0  0  0  0  0  0  0
   22.7264   -9.9595  -13.7975 C   0  0  0  0  0  0  0  0  0  0  0  0
   22.6096   -9.1331  -12.6918 C   0  0  0  0  0  0  0  0  0  0  0  0
   20.3751   -9.1680  -18.0568 O   0  0  0  0  0  0  0  0  0  0  0  0
  2  1  1  0
  2  3  1  0
  3  4  1  1
  5  3  1  0
  5  6  1  6
  7  5  1  0
  7  9  1  0
  8  7  2  0
 10  9  1  0
 11 10  1  0
 12 11  2  0
 13 14  1  0
 14 24  2  0
 14 15  1  0
 15 16  2  0
 16 17  1  0
 17 18  1  0
 19 18  1  6
 19 20  1  0
 20 11  1  0
 21 22  1  0
 21 19  1  0
 23 17  2  0
 24 23  1  0
 25 21  2  0
M  END
$$$$
