IGY.pdb
     RDKit          3D

 25 25  0  0  1  0  0  0  0  0999 V2000
   17.4912  -21.0943    1.6580 C   0  0  0  0  0  0  0  0  0  0  0  0
   16.2884  -20.6123    2.4408 C   0  0  0  0  0  0  0  0  0  0  0  0
   16.7205  -19.5783    3.4570 C   0  0  2  0  0  0  0  0  0  0  0  0
   17.6434  -20.1778    4.4774 C   0  0  0  0  0  0  0  0  0  0  0  0
   15.4677  -19.0032    4.1156 C   0  0  2  0  0  0  0  0  0  0  0  0
   14.5547  -18.5682    3.0961 N   0  0  0  0  0  0  0  0  0  0  0  0
   15.8496  -17.8862    5.0319 C   0  0  0  0  0  0  0  0  0  0  0  0
   15.6777  -16.7022    4.6511 O   0  0  0  0  0  0  0  0  0  0  0  0
   16.3970  -18.1186    6.3106 N   0  0  0  0  0  0  0  0  0  0  0  0
   16.6450  -17.0333    7.2344 C   0  0  0  0  0  0  0  0  0  0  0  0
   18.0823  -16.9080    7.5649 C   0  0  0  0  0  0  0  0  0  0  0  0
   18.9050  -17.6131    6.9388 O   0  0  0  0  0  0  0  0  0  0  0  0
   20.9972  -10.1872    6.1574 O   0  0  0  0  0  0  0  0  0  0  0  0
   20.8252  -11.2958    6.9886 C   0  0  0  0  0  0  0  0  0  0  0  0
   21.9194  -11.9134    7.5399 C   0  0  0  0  0  0  0  0  0  0  0  0
   21.7470  -13.0207    8.3701 C   0  0  0  0  0  0  0  0  0  0  0  0
   20.4945  -13.5184    8.6561 C   0  0  0  0  0  0  0  0  0  0  0  0
   20.3759  -14.6853    9.5356 C   0  0  0  0  0  0  0  0  0  0  0  0
   19.9705  -15.9463    8.8053 C   0  0  2  0  0  0  0  0  0  0  0  0
   18.5660  -16.0245    8.5590 N   0  0  0  0  0  0  0  0  0  0  0  0
   20.3718  -17.0873    9.6556 C   0  0  0  0  0  0  0  0  0  0  0  0
   19.3857  -17.8702   10.2225 O   0  0  0  0  0  0  0  0  0  0  0  0
   19.4196  -12.8743    8.0860 C   0  0  0  0  0  0  0  0  0  0  0  0
   19.5683  -11.7731    7.2587 C   0  0  0  0  0  0  0  0  0  0  0  0
   21.5687  -17.3943    9.8985 O   0  0  0  0  0  0  0  0  0  0  0  0
  2  1  1  0
  2  3  1  0
  3  4  1  1
  5  3  1  0
  5  6  1  6
  7  5  1  0
  7  9  1  0
  8  7  2  0
 10  9  1  0
 11 10  1  0
 12 11  2  0
 13 14  1  0
 14 24  2  0
 14 15  1  0
 15 16  2  0
 16 17  1  0
 17 18  1  0
 19 18  1  1
 19 20  1  0
 20 11  1  0
 21 22  1  0
 21 19  1  0
 23 17  2  0
 24 23  1  0
 25 21  2  0
M  END
$$$$
