IGY.pdb
     RDKit          3D

 25 25  0  0  1  0  0  0  0  0999 V2000
   17.4512  -14.5320  -16.1409 C   0  0  0  0  0  0  0  0  0  0  0  0
   18.4876  -13.5125  -16.5634 C   0  0  0  0  0  0  0  0  0  0  0  0
   17.9669  -12.1161  -16.3036 C   0  0  2  0  0  0  0  0  0  0  0  0
   16.7163  -11.8519  -17.0901 C   0  0  0  0  0  0  0  0  0  0  0  0
   19.0679  -11.1208  -16.6661 C   0  0  2  0  0  0  0  0  0  0  0  0
   20.1823  -11.3047  -15.7793 N   0  0  0  0  0  0  0  0  0  0  0  0
   18.5286   -9.7287  -16.5983 C   0  0  0  0  0  0  0  0  0  0  0  0
   17.6555   -9.3744  -17.4282 O   0  0  0  0  0  0  0  0  0  0  0  0
   18.9684   -8.8000  -15.6326 N   0  0  0  0  0  0  0  0  0  0  0  0
   18.4715   -7.4415  -15.6102 C   0  0  0  0  0  0  0  0  0  0  0  0
   19.0885   -6.6467  -14.5247 C   0  0  0  0  0  0  0  0  0  0  0  0
   18.8712   -6.9814  -13.3387 O   0  0  0  0  0  0  0  0  0  0  0  0
   25.1464   -7.4688  -17.4582 O   0  0  0  0  0  0  0  0  0  0  0  0
   24.3133   -7.0693  -16.4113 C   0  0  0  0  0  0  0  0  0  0  0  0
   24.3489   -5.7718  -15.9662 C   0  0  0  0  0  0  0  0  0  0  0  0
   23.5166   -5.3733  -14.9205 C   0  0  0  0  0  0  0  0  0  0  0  0
   22.6491   -6.2555  -14.3142 C   0  0  0  0  0  0  0  0  0  0  0  0
   21.7985   -5.7785  -13.2195 C   0  0  0  0  0  0  0  0  0  0  0  0
   20.6361   -4.9328  -13.6899 C   0  0  2  0  0  0  0  0  0  0  0  0
   19.9141   -5.5239  -14.7710 N   0  0  0  0  0  0  0  0  0  0  0  0
   21.1947   -3.6393  -14.1377 C   0  0  0  0  0  0  0  0  0  0  0  0
   20.9640   -3.2321  -15.4368 O   0  0  0  0  0  0  0  0  0  0  0  0
   22.6398   -7.5487  -14.7861 C   0  0  0  0  0  0  0  0  0  0  0  0
   23.4580   -7.9656  -15.8234 C   0  0  0  0  0  0  0  0  0  0  0  0
   21.8750   -2.8766  -13.4019 O   0  0  0  0  0  0  0  0  0  0  0  0
  2  1  1  0
  2  3  1  0
  3  4  1  6
  5  3  1  0
  5  6  1  1
  7  5  1  0
  7  9  1  0
  8  7  2  0
 10  9  1  0
 11 10  1  0
 12 11  2  0
 13 14  1  0
 14 24  2  0
 14 15  1  0
 15 16  2  0
 16 17  1  0
 17 18  1  0
 19 18  1  6
 19 20  1  0
 20 11  1  0
 21 22  1  0
 21 19  1  0
 23 17  2  0
 24 23  1  0
 25 21  2  0
M  END
$$$$
