IGY.pdb
     RDKit          3D

 25 25  0  0  1  0  0  0  0  0999 V2000
   27.0275  -25.2449  -19.4889 C   0  0  0  0  0  0  0  0  0  0  0  0
   27.1181  -25.1258  -17.9823 C   0  0  0  0  0  0  0  0  0  0  0  0
   26.4587  -23.8414  -17.5304 C   0  0  2  0  0  0  0  0  0  0  0  0
   27.0972  -22.6494  -18.1813 C   0  0  0  0  0  0  0  0  0  0  0  0
   26.5626  -23.7612  -16.0083 C   0  0  2  0  0  0  0  0  0  0  0  0
   25.8793  -24.8830  -15.4279 N   0  0  0  0  0  0  0  0  0  0  0  0
   25.9977  -22.4615  -15.5341 C   0  0  0  0  0  0  0  0  0  0  0  0
   26.6310  -21.4027  -15.7673 O   0  0  0  0  0  0  0  0  0  0  0  0
   24.7764  -22.3854  -14.8333 N   0  0  0  0  0  0  0  0  0  0  0  0
   24.2114  -21.1140  -14.4366 C   0  0  0  0  0  0  0  0  0  0  0  0
   22.9467  -21.2829  -13.6864 C   0  0  0  0  0  0  0  0  0  0  0  0
   22.3714  -22.3935  -13.7233 O   0  0  0  0  0  0  0  0  0  0  0  0
   19.1125  -23.1098   -6.7321 O   0  0  0  0  0  0  0  0  0  0  0  0
   19.5789  -22.3023   -7.7713 C   0  0  0  0  0  0  0  0  0  0  0  0
   20.6115  -21.4271   -7.5466 C   0  0  0  0  0  0  0  0  0  0  0  0
   21.0769  -20.6208   -8.5850 C   0  0  0  0  0  0  0  0  0  0  0  0
   20.5230  -20.6783   -9.8452 C   0  0  0  0  0  0  0  0  0  0  0  0
   21.0543  -19.8059  -10.8969 C   0  0  0  0  0  0  0  0  0  0  0  0
   21.1252  -20.4760  -12.2510 C   0  0  2  0  0  0  0  0  0  0  0  0
   22.3602  -20.2413  -12.9286 N   0  0  0  0  0  0  0  0  0  0  0  0
   20.0204  -19.9258  -13.0650 C   0  0  0  0  0  0  0  0  0  0  0  0
   18.8062  -20.5834  -13.0650 O   0  0  0  0  0  0  0  0  0  0  0  0
   19.4891  -21.5673  -10.0348 C   0  0  0  0  0  0  0  0  0  0  0  0
   19.0115  -22.3773   -9.0175 C   0  0  0  0  0  0  0  0  0  0  0  0
   20.1170  -18.8841  -13.7661 O   0  0  0  0  0  0  0  0  0  0  0  0
  2  1  1  0
  2  3  1  0
  3  4  1  6
  5  3  1  0
  5  6  1  1
  7  5  1  0
  7  9  1  0
  8  7  2  0
 10  9  1  0
 11 10  1  0
 12 11  2  0
 13 14  1  0
 14 24  2  0
 14 15  1  0
 15 16  2  0
 16 17  1  0
 17 18  1  0
 19 18  1  1
 19 20  1  0
 20 11  1  0
 21 22  1  0
 21 19  1  0
 23 17  2  0
 24 23  1  0
 25 21  2  0
M  END
$$$$
