IGY.pdb
     RDKit          3D

 25 25  0  0  1  0  0  0  0  0999 V2000
   27.5562  -22.6244  -20.9121 C   0  0  0  0  0  0  0  0  0  0  0  0
   28.5417  -22.2474  -19.8264 C   0  0  0  0  0  0  0  0  0  0  0  0
   27.8172  -22.1009  -18.5066 C   0  0  2  0  0  0  0  0  0  0  0  0
   26.6974  -21.1074  -18.6135 C   0  0  0  0  0  0  0  0  0  0  0  0
   28.8338  -21.6754  -17.4484 C   0  0  2  0  0  0  0  0  0  0  0  0
   29.7156  -22.7743  -17.1710 N   0  0  0  0  0  0  0  0  0  0  0  0
   28.1175  -21.2149  -16.2203 C   0  0  0  0  0  0  0  0  0  0  0  0
   27.8577  -22.0499  -15.3195 O   0  0  0  0  0  0  0  0  0  0  0  0
   27.7240  -19.8728  -16.0403 N   0  0  0  0  0  0  0  0  0  0  0  0
   27.1222  -19.4217  -14.8045 C   0  0  0  0  0  0  0  0  0  0  0  0
   25.9033  -20.1925  -14.4713 C   0  0  0  0  0  0  0  0  0  0  0  0
   25.2312  -20.6846  -15.4052 O   0  0  0  0  0  0  0  0  0  0  0  0
   26.8223  -19.4253   -7.2359 O   0  0  0  0  0  0  0  0  0  0  0  0
   26.3066  -20.1211   -8.3310 C   0  0  0  0  0  0  0  0  0  0  0  0
   27.1558  -20.7794   -9.1844 C   0  0  0  0  0  0  0  0  0  0  0  0
   26.6402  -21.4742  -10.2782 C   0  0  0  0  0  0  0  0  0  0  0  0
   25.2862  -21.5193  -10.5296 C   0  0  0  0  0  0  0  0  0  0  0  0
   24.8031  -22.2658  -11.6952 C   0  0  0  0  0  0  0  0  0  0  0  0
   24.4656  -21.3811  -12.8746 C   0  0  2  0  0  0  0  0  0  0  0  0
   25.4653  -20.3967  -13.1411 N   0  0  0  0  0  0  0  0  0  0  0  0
   23.1944  -20.6978  -12.5539 C   0  0  0  0  0  0  0  0  0  0  0  0
   23.1902  -19.3209  -12.4498 O   0  0  0  0  0  0  0  0  0  0  0  0
   24.4640  -20.8478   -9.6532 C   0  0  0  0  0  0  0  0  0  0  0  0
   24.9550  -20.1516   -8.5608 C   0  0  0  0  0  0  0  0  0  0  0  0
   22.1030  -21.2979  -12.3675 O   0  0  0  0  0  0  0  0  0  0  0  0
  2  1  1  0
  2  3  1  0
  3  4  1  6
  5  3  1  0
  5  6  1  1
  7  5  1  0
  7  9  1  0
  8  7  2  0
 10  9  1  0
 11 10  1  0
 12 11  2  0
 13 14  1  0
 14 24  2  0
 14 15  1  0
 15 16  2  0
 16 17  1  0
 17 18  1  0
 19 18  1  1
 19 20  1  0
 20 11  1  0
 21 22  1  0
 21 19  1  0
 23 17  2  0
 24 23  1  0
 25 21  2  0
M  END
$$$$
