IGY.pdb
     RDKit          3D

 25 25  0  0  1  0  0  0  0  0999 V2000
   18.9344  -15.8987  -17.5496 C   0  0  0  0  0  0  0  0  0  0  0  0
   18.8808  -16.9839  -16.4953 C   0  0  0  0  0  0  0  0  0  0  0  0
   20.0445  -17.9331  -16.6789 C   0  0  2  0  0  0  0  0  0  0  0  0
   20.0839  -18.4735  -18.0785 C   0  0  0  0  0  0  0  0  0  0  0  0
   19.9082  -19.0593  -15.6556 C   0  0  2  0  0  0  0  0  0  0  0  0
   20.0044  -18.5101  -14.3323 N   0  0  0  0  0  0  0  0  0  0  0  0
   20.9574  -20.0939  -15.9048 C   0  0  0  0  0  0  0  0  0  0  0  0
   20.9951  -20.6639  -17.0228 O   0  0  0  0  0  0  0  0  0  0  0  0
   21.9066  -20.4509  -14.9249 N   0  0  0  0  0  0  0  0  0  0  0  0
   22.9452  -21.4204  -15.1974 C   0  0  0  0  0  0  0  0  0  0  0  0
   24.2688  -20.7787  -15.3622 C   0  0  0  0  0  0  0  0  0  0  0  0
   24.4168  -19.9355  -16.2749 O   0  0  0  0  0  0  0  0  0  0  0  0
   24.6691  -21.0450   -8.5770 O   0  0  0  0  0  0  0  0  0  0  0  0
   25.1698  -20.6137   -9.8070 C   0  0  0  0  0  0  0  0  0  0  0  0
   26.5099  -20.7291  -10.0783 C   0  0  0  0  0  0  0  0  0  0  0  0
   27.0094  -20.2982  -11.3070 C   0  0  0  0  0  0  0  0  0  0  0  0
   26.1861  -19.7533  -12.2681 C   0  0  0  0  0  0  0  0  0  0  0  0
   26.7687  -19.3180  -13.5410 C   0  0  0  0  0  0  0  0  0  0  0  0
   26.5760  -20.3171  -14.6601 C   0  0  2  0  0  0  0  0  0  0  0  0
   25.3745  -21.0783  -14.5312 N   0  0  0  0  0  0  0  0  0  0  0  0
   27.7322  -21.2377  -14.6229 C   0  0  0  0  0  0  0  0  0  0  0  0
   27.5100  -22.5692  -14.3324 O   0  0  0  0  0  0  0  0  0  0  0  0
   24.8476  -19.6528  -11.9622 C   0  0  0  0  0  0  0  0  0  0  0  0
   24.3305  -20.0746  -10.7481 C   0  0  0  0  0  0  0  0  0  0  0  0
   28.9201  -20.8811  -14.8416 O   0  0  0  0  0  0  0  0  0  0  0  0
  2  1  1  0
  2  3  1  0
  3  4  1  6
  5  3  1  0
  5  6  1  1
  7  5  1  0
  7  9  1  0
  8  7  2  0
 10  9  1  0
 11 10  1  0
 12 11  2  0
 13 14  1  0
 14 24  2  0
 14 15  1  0
 15 16  2  0
 16 17  1  0
 17 18  1  0
 19 18  1  1
 19 20  1  0
 20 11  1  0
 21 22  1  0
 21 19  1  0
 23 17  2  0
 24 23  1  0
 25 21  2  0
M  END
$$$$
