AFF.pdb
     RDKit          3D

 28 29  0  0  1  0  0  0  0  0999 V2000
    9.6805  -19.2324   19.6390 C   0  0  0  0  0  0  0  0  0  0  0  0
    9.5316  -17.7652   19.3803 C   0  0  2  0  0  0  0  0  0  0  0  0
   10.3891  -17.2952   18.3254 N   0  0  0  0  0  0  0  0  0  0  0  0
    9.6855  -16.9600   20.6216 C   0  0  0  0  0  0  0  0  0  0  0  0
   10.8379  -16.5470   20.9158 O   0  0  0  0  0  0  0  0  0  0  0  0
    8.5920  -16.6559   21.4580 N   0  0  0  0  0  0  0  0  0  0  0  0
    8.7082  -15.7626   22.6369 C   0  0  1  0  0  0  0  0  0  0  0  0
    7.4027  -15.0920   22.8794 C   0  0  0  0  0  0  0  0  0  0  0  0
    7.2353  -14.3863   24.1512 C   0  0  0  0  0  0  0  0  0  0  0  0
    6.4495  -14.9050   25.1884 C   0  0  0  0  0  0  0  0  0  0  0  0
    6.3002  -14.2781   26.4034 C   0  0  0  0  0  0  0  0  0  0  0  0
    6.9344  -13.0897   26.6462 C   0  0  0  0  0  0  0  0  0  0  0  0
    7.7143  -12.5511   25.6500 C   0  0  0  0  0  0  0  0  0  0  0  0
    7.8628  -13.1798   24.4346 C   0  0  0  0  0  0  0  0  0  0  0  0
    9.2619  -16.5656   23.7271 C   0  0  0  0  0  0  0  0  0  0  0  0
    8.8763  -17.7824   23.8809 O   0  0  0  0  0  0  0  0  0  0  0  0
   10.2257  -16.1570   24.6867 N   0  0  0  0  0  0  0  0  0  0  0  0
   10.8228  -17.0642   25.6434 C   0  0  1  0  0  0  0  0  0  0  0  0
   11.7653  -16.2049   26.5040 C   0  0  0  0  0  0  0  0  0  0  0  0
   11.0146  -15.3470   27.4233 C   0  0  0  0  0  0  0  0  0  0  0  0
   10.4786  -14.1265   27.0742 C   0  0  0  0  0  0  0  0  0  0  0  0
    9.7724  -13.3499   27.9895 C   0  0  0  0  0  0  0  0  0  0  0  0
    9.5875  -13.7846   29.2843 C   0  0  0  0  0  0  0  0  0  0  0  0
   10.1156  -14.9950   29.6413 C   0  0  0  0  0  0  0  0  0  0  0  0
   10.8174  -15.7611   28.7223 C   0  0  0  0  0  0  0  0  0  0  0  0
    9.8697  -17.7983   26.4602 C   0  0  0  0  0  0  0  0  0  0  0  0
    8.5086  -17.5782   26.4174 O   0  0  0  0  0  0  0  0  0  0  0  0
   10.2559  -18.6960   27.2689 O   0  0  0  0  0  0  0  0  0  0  0  0
  2  1  1  1
  3  2  1  0
  4  2  1  0
  4  5  2  0
  6  4  1  0
  7  6  1  0
  7  8  1  1
  9 14  1  0
  9  8  1  0
 10  9  2  0
 11 12  2  0
 11 10  1  0
 12 13  1  0
 13 14  2  0
 15  7  1  0
 15 17  1  0
 16 15  2  0
 18 17  1  0
 18 26  1  0
 19 20  1  0
 18 19  1  1
 20 25  2  0
 21 22  2  0
 21 20  1  0
 22 23  1  0
 23 24  2  0
 25 24  1  0
 26 28  2  0
 26 27  1  0
M  END
$$$$
