AFF.pdb
     RDKit          3D

 28 29  0  0  1  0  0  0  0  0999 V2000
    9.7965  -17.6661   18.6978 C   0  0  0  0  0  0  0  0  0  0  0  0
   10.0680  -17.9706   20.1384 C   0  0  2  0  0  0  0  0  0  0  0  0
    9.3471  -19.1223   20.6103 N   0  0  0  0  0  0  0  0  0  0  0  0
    9.8532  -16.7849   21.0106 C   0  0  0  0  0  0  0  0  0  0  0  0
   10.5660  -15.7674   20.8063 O   0  0  0  0  0  0  0  0  0  0  0  0
    8.8891  -16.7761   22.0394 N   0  0  0  0  0  0  0  0  0  0  0  0
    8.7249  -15.6363   22.9749 C   0  0  1  0  0  0  0  0  0  0  0  0
    7.2906  -15.5048   23.3467 C   0  0  0  0  0  0  0  0  0  0  0  0
    6.9222  -14.3904   24.2220 C   0  0  0  0  0  0  0  0  0  0  0  0
    6.2357  -14.5901   25.4265 C   0  0  0  0  0  0  0  0  0  0  0  0
    5.9048  -13.5649   26.2814 C   0  0  0  0  0  0  0  0  0  0  0  0
    6.2463  -12.2758   25.9734 C   0  0  0  0  0  0  0  0  0  0  0  0
    6.9212  -12.0427   24.7983 C   0  0  0  0  0  0  0  0  0  0  0  0
    7.2517  -13.0699   23.9437 C   0  0  0  0  0  0  0  0  0  0  0  0
    9.6835  -15.8353   24.0617 C   0  0  0  0  0  0  0  0  0  0  0  0
   10.7807  -15.1652   24.0734 O   0  0  0  0  0  0  0  0  0  0  0  0
    9.5517  -16.7153   25.1685 N   0  0  0  0  0  0  0  0  0  0  0  0
   10.6766  -17.1600   25.9633 C   0  0  1  0  0  0  0  0  0  0  0  0
   10.2544  -16.9695   27.4306 C   0  0  0  0  0  0  0  0  0  0  0  0
   10.2735  -15.5557   27.8119 C   0  0  0  0  0  0  0  0  0  0  0  0
   11.3761  -14.9122   28.3306 C   0  0  0  0  0  0  0  0  0  0  0  0
   11.3395  -13.5639   28.6770 C   0  0  0  0  0  0  0  0  0  0  0  0
   10.1871  -12.8267   28.5092 C   0  0  0  0  0  0  0  0  0  0  0  0
    9.0866  -13.4559   27.9949 C   0  0  0  0  0  0  0  0  0  0  0  0
    9.1332  -14.7993   27.6530 C   0  0  0  0  0  0  0  0  0  0  0  0
   11.1036  -18.5249   25.7004 C   0  0  0  0  0  0  0  0  0  0  0  0
   10.4325  -19.3772   24.8482 O   0  0  0  0  0  0  0  0  0  0  0  0
   12.1375  -19.0056   26.2563 O   0  0  0  0  0  0  0  0  0  0  0  0
  2  1  1  6
  3  2  1  0
  4  2  1  0
  4  5  2  0
  6  4  1  0
  7  6  1  0
  7  8  1  1
  9 14  1  0
  9  8  1  0
 10  9  2  0
 11 12  2  0
 11 10  1  0
 12 13  1  0
 13 14  2  0
 15  7  1  0
 15 17  1  0
 16 15  2  0
 18 17  1  0
 18 26  1  0
 19 20  1  0
 18 19  1  1
 20 25  2  0
 21 22  2  0
 21 20  1  0
 22 23  1  0
 23 24  2  0
 25 24  1  0
 26 28  2  0
 26 27  1  0
M  END
$$$$
