AFF.pdb
     RDKit          3D

 28 29  0  0  1  0  0  0  0  0999 V2000
    9.9514  -19.0527   19.7276 C   0  0  0  0  0  0  0  0  0  0  0  0
    9.6825  -17.6127   19.4182 C   0  0  2  0  0  0  0  0  0  0  0  0
   10.5429  -17.0935   18.3889 N   0  0  0  0  0  0  0  0  0  0  0  0
    9.7039  -16.7647   20.6401 C   0  0  0  0  0  0  0  0  0  0  0  0
   10.8026  -16.2543   20.9829 O   0  0  0  0  0  0  0  0  0  0  0  0
    8.5449  -16.5253   21.4066 N   0  0  0  0  0  0  0  0  0  0  0  0
    8.5600  -15.7220   22.6538 C   0  0  1  0  0  0  0  0  0  0  0  0
    7.2132  -15.1311   22.8775 C   0  0  0  0  0  0  0  0  0  0  0  0
    6.9949  -14.4114   24.1336 C   0  0  0  0  0  0  0  0  0  0  0  0
    7.4422  -13.0974   24.3218 C   0  0  0  0  0  0  0  0  0  0  0  0
    7.2237  -12.3880   25.4796 C   0  0  0  0  0  0  0  0  0  0  0  0
    6.5406  -12.9609   26.5181 C   0  0  0  0  0  0  0  0  0  0  0  0
    6.0866  -14.2501   26.3681 C   0  0  0  0  0  0  0  0  0  0  0  0
    6.3061  -14.9588   25.2086 C   0  0  0  0  0  0  0  0  0  0  0  0
    9.0983  -16.5816   23.7080 C   0  0  0  0  0  0  0  0  0  0  0  0
    8.7389  -17.8145   23.7694 O   0  0  0  0  0  0  0  0  0  0  0  0
   10.0197  -16.2144   24.7243 N   0  0  0  0  0  0  0  0  0  0  0  0
   10.5789  -17.1621   25.6645 C   0  0  1  0  0  0  0  0  0  0  0  0
   11.6685  -16.3955   26.4342 C   0  0  0  0  0  0  0  0  0  0  0  0
   11.0833  -15.4475   27.3848 C   0  0  0  0  0  0  0  0  0  0  0  0
   10.8183  -15.7436   28.7042 C   0  0  0  0  0  0  0  0  0  0  0  0
   10.2600  -14.8030   29.5663 C   0  0  0  0  0  0  0  0  0  0  0  0
    9.9534  -13.5357   29.1196 C   0  0  0  0  0  0  0  0  0  0  0  0
   10.2126  -13.2313   27.8113 C   0  0  0  0  0  0  0  0  0  0  0  0
   10.7688  -14.1752   26.9605 C   0  0  0  0  0  0  0  0  0  0  0  0
    9.6105  -17.7673   26.5647 C   0  0  0  0  0  0  0  0  0  0  0  0
    8.2728  -17.4305   26.5747 O   0  0  0  0  0  0  0  0  0  0  0  0
    9.9602  -18.6536   27.4020 O   0  0  0  0  0  0  0  0  0  0  0  0
  2  1  1  1
  3  2  1  0
  4  2  1  0
  4  5  2  0
  6  4  1  0
  7  6  1  0
  7  8  1  1
  9 14  1  0
  9  8  1  0
 10  9  2  0
 11 12  2  0
 11 10  1  0
 12 13  1  0
 13 14  2  0
 15  7  1  0
 15 17  1  0
 16 15  2  0
 18 17  1  0
 18 26  1  0
 19 20  1  0
 18 19  1  1
 20 25  2  0
 21 22  2  0
 21 20  1  0
 22 23  1  0
 23 24  2  0
 25 24  1  0
 26 28  2  0
 26 27  1  0
M  END
$$$$
