AFF.pdb
     RDKit          3D

 28 29  0  0  1  0  0  0  0  0999 V2000
    9.5503  -19.9464   21.9805 C   0  0  0  0  0  0  0  0  0  0  0  0
    9.2441  -18.8081   21.0572 C   0  0  2  0  0  0  0  0  0  0  0  0
    9.7330  -19.0261   19.7222 N   0  0  0  0  0  0  0  0  0  0  0  0
    9.6977  -17.5033   21.6088 C   0  0  0  0  0  0  0  0  0  0  0  0
   10.8265  -17.0743   21.2523 O   0  0  0  0  0  0  0  0  0  0  0  0
    8.9077  -16.7524   22.5033 N   0  0  0  0  0  0  0  0  0  0  0  0
    9.3126  -15.4151   23.0023 C   0  0  1  0  0  0  0  0  0  0  0  0
    8.1589  -14.4811   22.9046 C   0  0  0  0  0  0  0  0  0  0  0  0
    7.7990  -13.9942   21.5716 C   0  0  0  0  0  0  0  0  0  0  0  0
    8.4083  -12.8672   21.0051 C   0  0  0  0  0  0  0  0  0  0  0  0
    8.1112  -12.4070   19.7436 C   0  0  0  0  0  0  0  0  0  0  0  0
    7.1814  -13.0555   18.9766 C   0  0  0  0  0  0  0  0  0  0  0  0
    6.5631  -14.1661   19.5011 C   0  0  0  0  0  0  0  0  0  0  0  0
    6.8615  -14.6255   20.7638 C   0  0  0  0  0  0  0  0  0  0  0  0
    9.9030  -15.6147   24.3257 C   0  0  0  0  0  0  0  0  0  0  0  0
   10.9028  -14.8942   24.6920 O   0  0  0  0  0  0  0  0  0  0  0  0
    9.4909  -16.5468   25.3148 N   0  0  0  0  0  0  0  0  0  0  0  0
   10.0084  -16.5460   26.6664 C   0  0  1  0  0  0  0  0  0  0  0  0
    8.8226  -16.1625   27.5688 C   0  0  0  0  0  0  0  0  0  0  0  0
    8.2557  -14.8683   27.1835 C   0  0  0  0  0  0  0  0  0  0  0  0
    7.0807  -14.7208   26.4789 C   0  0  0  0  0  0  0  0  0  0  0  0
    6.5860  -13.4644   26.1379 C   0  0  0  0  0  0  0  0  0  0  0  0
    7.2648  -12.3206   26.4992 C   0  0  0  0  0  0  0  0  0  0  0  0
    8.4325  -12.4559   27.1989 C   0  0  0  0  0  0  0  0  0  0  0  0
    8.9169  -13.7117   27.5338 C   0  0  0  0  0  0  0  0  0  0  0  0
   10.6177  -17.7985   27.0839 C   0  0  0  0  0  0  0  0  0  0  0  0
   11.2474  -17.9658   28.2998 O   0  0  0  0  0  0  0  0  0  0  0  0
   10.5976  -18.8189   26.3306 O   0  0  0  0  0  0  0  0  0  0  0  0
  2  1  1  1
  3  2  1  0
  4  2  1  0
  4  5  2  0
  6  4  1  0
  7  6  1  0
  7  8  1  1
  9 14  1  0
  9  8  1  0
 10  9  2  0
 11 12  2  0
 11 10  1  0
 12 13  1  0
 13 14  2  0
 15  7  1  0
 15 17  1  0
 16 15  2  0
 18 17  1  0
 18 26  1  0
 19 20  1  0
 18 19  1  1
 20 25  2  0
 21 22  2  0
 21 20  1  0
 22 23  1  0
 23 24  2  0
 25 24  1  0
 26 28  2  0
 26 27  1  0
M  END
$$$$
