AFF.pdb
     RDKit          3D

 28 29  0  0  1  0  0  0  0  0999 V2000
   10.0181  -18.9784   19.5229 C   0  0  0  0  0  0  0  0  0  0  0  0
    9.9083  -17.5012   19.3046 C   0  0  2  0  0  0  0  0  0  0  0  0
   10.8663  -17.0055   18.3529 N   0  0  0  0  0  0  0  0  0  0  0  0
    9.9516  -16.7422   20.5832 C   0  0  0  0  0  0  0  0  0  0  0  0
   11.0660  -16.2994   20.9670 O   0  0  0  0  0  0  0  0  0  0  0  0
    8.7963  -16.5129   21.3581 N   0  0  0  0  0  0  0  0  0  0  0  0
    8.8346  -15.8193   22.6691 C   0  0  1  0  0  0  0  0  0  0  0  0
    7.4639  -15.3673   23.0293 C   0  0  0  0  0  0  0  0  0  0  0  0
    7.3025  -14.6549   24.2982 C   0  0  0  0  0  0  0  0  0  0  0  0
    7.7047  -13.3225   24.4560 C   0  0  0  0  0  0  0  0  0  0  0  0
    7.5368  -12.6207   25.6268 C   0  0  0  0  0  0  0  0  0  0  0  0
    6.9528  -13.2203   26.7098 C   0  0  0  0  0  0  0  0  0  0  0  0
    6.5456  -14.5282   26.5905 C   0  0  0  0  0  0  0  0  0  0  0  0
    6.7143  -15.2292   25.4180 C   0  0  0  0  0  0  0  0  0  0  0  0
    9.5126  -16.7152   23.6058 C   0  0  0  0  0  0  0  0  0  0  0  0
   10.3382  -17.5948   23.1609 O   0  0  0  0  0  0  0  0  0  0  0  0
    9.3753  -16.7387   25.0191 N   0  0  0  0  0  0  0  0  0  0  0  0
   10.3572  -17.3358   25.8990 C   0  0  1  0  0  0  0  0  0  0  0  0
   11.2284  -16.1729   26.4051 C   0  0  0  0  0  0  0  0  0  0  0  0
   10.5058  -15.3482   27.3759 C   0  0  0  0  0  0  0  0  0  0  0  0
   10.3609  -15.6737   28.7070 C   0  0  0  0  0  0  0  0  0  0  0  0
    9.6625  -14.8520   29.5883 C   0  0  0  0  0  0  0  0  0  0  0  0
    9.0903  -13.6774   29.1496 C   0  0  0  0  0  0  0  0  0  0  0  0
    9.2283  -13.3449   27.8298 C   0  0  0  0  0  0  0  0  0  0  0  0
    9.9259  -14.1700   26.9599 C   0  0  0  0  0  0  0  0  0  0  0  0
    9.7982  -18.1059   26.9984 C   0  0  0  0  0  0  0  0  0  0  0  0
    8.4443  -18.1989   27.2461 O   0  0  0  0  0  0  0  0  0  0  0  0
   10.5482  -18.7425   27.7993 O   0  0  0  0  0  0  0  0  0  0  0  0
  2  1  1  1
  3  2  1  0
  4  2  1  0
  4  5  2  0
  6  4  1  0
  7  6  1  0
  7  8  1  1
  9 14  1  0
  9  8  1  0
 10  9  2  0
 11 12  2  0
 11 10  1  0
 12 13  1  0
 13 14  2  0
 15  7  1  0
 15 17  1  0
 16 15  2  0
 18 17  1  0
 18 26  1  0
 19 20  1  0
 18 19  1  1
 20 25  2  0
 21 22  2  0
 21 20  1  0
 22 23  1  0
 23 24  2  0
 25 24  1  0
 26 28  2  0
 26 27  1  0
M  END
$$$$
