AFF.pdb
     RDKit          3D

 28 29  0  0  1  0  0  0  0  0999 V2000
   10.0820  -19.3362   19.8981 C   0  0  0  0  0  0  0  0  0  0  0  0
    9.7378  -17.9314   19.5112 C   0  0  2  0  0  0  0  0  0  0  0  0
   10.5385  -17.4411   18.4215 N   0  0  0  0  0  0  0  0  0  0  0  0
    9.7618  -17.0083   20.6774 C   0  0  0  0  0  0  0  0  0  0  0  0
   10.8490  -16.4361   20.9525 O   0  0  0  0  0  0  0  0  0  0  0  0
    8.6176  -16.7656   21.4648 N   0  0  0  0  0  0  0  0  0  0  0  0
    8.6402  -15.8935   22.6649 C   0  0  1  0  0  0  0  0  0  0  0  0
    7.3011  -15.2728   22.8500 C   0  0  0  0  0  0  0  0  0  0  0  0
    7.1020  -14.4465   24.0421 C   0  0  0  0  0  0  0  0  0  0  0  0
    7.5102  -13.1075   24.0919 C   0  0  0  0  0  0  0  0  0  0  0  0
    7.3078  -12.3007   25.1872 C   0  0  0  0  0  0  0  0  0  0  0  0
    6.6813  -12.7955   26.2990 C   0  0  0  0  0  0  0  0  0  0  0  0
    6.2670  -14.1065   26.2851 C   0  0  0  0  0  0  0  0  0  0  0  0
    6.4702  -14.9127   25.1881 C   0  0  0  0  0  0  0  0  0  0  0  0
    9.1635  -16.6996   23.7677 C   0  0  0  0  0  0  0  0  0  0  0  0
    8.7859  -17.9217   23.8980 O   0  0  0  0  0  0  0  0  0  0  0  0
   10.0882  -16.2888   24.7642 N   0  0  0  0  0  0  0  0  0  0  0  0
   10.6578  -17.1968   25.7367 C   0  0  1  0  0  0  0  0  0  0  0  0
   11.7057  -16.3783   26.5108 C   0  0  0  0  0  0  0  0  0  0  0  0
   11.0704  -15.4177   27.4155 C   0  0  0  0  0  0  0  0  0  0  0  0
   10.6350  -14.1682   27.0305 C   0  0  0  0  0  0  0  0  0  0  0  0
   10.0365  -13.2928   27.9333 C   0  0  0  0  0  0  0  0  0  0  0  0
    9.8606  -13.6550   29.2514 C   0  0  0  0  0  0  0  0  0  0  0  0
   10.2892  -14.8934   29.6440 C   0  0  0  0  0  0  0  0  0  0  0  0
   10.8843  -15.7581   28.7372 C   0  0  0  0  0  0  0  0  0  0  0  0
    9.6908  -17.8135   26.6306 C   0  0  0  0  0  0  0  0  0  0  0  0
    9.9993  -18.8619   27.4725 O   0  0  0  0  0  0  0  0  0  0  0  0
    8.4906  -17.4058   26.6779 O   0  0  0  0  0  0  0  0  0  0  0  0
  2  1  1  1
  3  2  1  0
  4  2  1  0
  4  5  2  0
  6  4  1  0
  7  6  1  0
  7  8  1  1
  9 14  1  0
  9  8  1  0
 10  9  2  0
 11 12  2  0
 11 10  1  0
 12 13  1  0
 13 14  2  0
 15  7  1  0
 15 17  1  0
 16 15  2  0
 18 17  1  0
 18 26  1  0
 19 20  1  0
 18 19  1  1
 20 25  2  0
 21 22  2  0
 21 20  1  0
 22 23  1  0
 23 24  2  0
 25 24  1  0
 26 28  2  0
 26 27  1  0
M  END
$$$$
