AFF.pdb
     RDKit          3D

 28 29  0  0  1  0  0  0  0  0999 V2000
   12.4446  -18.3419   21.0504 C   0  0  0  0  0  0  0  0  0  0  0  0
   11.7445  -17.1950   20.3899 C   0  0  2  0  0  0  0  0  0  0  0  0
   12.6209  -16.4069   19.5654 N   0  0  0  0  0  0  0  0  0  0  0  0
   10.9989  -16.3573   21.3672 C   0  0  0  0  0  0  0  0  0  0  0  0
   11.4707  -15.2254   21.6524 O   0  0  0  0  0  0  0  0  0  0  0  0
    9.8006  -16.7942   21.9682 N   0  0  0  0  0  0  0  0  0  0  0  0
    8.9804  -15.9243   22.8467 C   0  0  1  0  0  0  0  0  0  0  0  0
    7.5982  -15.8365   22.3039 C   0  0  0  0  0  0  0  0  0  0  0  0
    7.3331  -14.8004   21.3040 C   0  0  0  0  0  0  0  0  0  0  0  0
    7.8047  -13.4898   21.4523 C   0  0  0  0  0  0  0  0  0  0  0  0
    7.5963  -12.5057   20.5144 C   0  0  0  0  0  0  0  0  0  0  0  0
    6.8995  -12.7838   19.3696 C   0  0  0  0  0  0  0  0  0  0  0  0
    6.4216  -14.0606   19.1907 C   0  0  0  0  0  0  0  0  0  0  0  0
    6.6310  -15.0444   20.1304 C   0  0  0  0  0  0  0  0  0  0  0  0
    9.1339  -16.4300   24.2107 C   0  0  0  0  0  0  0  0  0  0  0  0
   10.0407  -17.3047   24.4670 O   0  0  0  0  0  0  0  0  0  0  0  0
    8.3752  -16.0574   25.3519 N   0  0  0  0  0  0  0  0  0  0  0  0
    8.5222  -16.6965   26.6422 C   0  0  1  0  0  0  0  0  0  0  0  0
    7.6499  -15.8833   27.6144 C   0  0  0  0  0  0  0  0  0  0  0  0
    7.6797  -14.4553   27.2909 C   0  0  0  0  0  0  0  0  0  0  0  0
    8.6975  -13.6027   27.6596 C   0  0  0  0  0  0  0  0  0  0  0  0
    8.6755  -12.2509   27.3253 C   0  0  0  0  0  0  0  0  0  0  0  0
    7.6240  -11.7217   26.6085 C   0  0  0  0  0  0  0  0  0  0  0  0
    6.6082  -12.5595   26.2375 C   0  0  0  0  0  0  0  0  0  0  0  0
    6.6394  -13.9045   26.5753 C   0  0  0  0  0  0  0  0  0  0  0  0
    8.1760  -18.1086   26.6630 C   0  0  0  0  0  0  0  0  0  0  0  0
    7.6118  -18.7657   25.5892 O   0  0  0  0  0  0  0  0  0  0  0  0
    8.3818  -18.8176   27.6945 O   0  0  0  0  0  0  0  0  0  0  0  0
  2  1  1  1
  3  2  1  0
  4  2  1  0
  4  5  2  0
  6  4  1  0
  7  6  1  0
  7  8  1  6
  9 14  1  0
  9  8  1  0
 10  9  2  0
 11 12  2  0
 11 10  1  0
 12 13  1  0
 13 14  2  0
 15  7  1  0
 15 17  1  0
 16 15  2  0
 18 17  1  0
 18 26  1  0
 19 20  1  0
 18 19  1  1
 20 25  2  0
 21 22  2  0
 21 20  1  0
 22 23  1  0
 23 24  2  0
 25 24  1  0
 26 28  2  0
 26 27  1  0
M  END
$$$$
