AFF.pdb
     RDKit          3D

 28 29  0  0  1  0  0  0  0  0999 V2000
    9.9699  -19.3722   19.6658 C   0  0  0  0  0  0  0  0  0  0  0  0
    9.7438  -17.9176   19.3919 C   0  0  2  0  0  0  0  0  0  0  0  0
   10.5759  -17.4140   18.3322 N   0  0  0  0  0  0  0  0  0  0  0  0
    9.8543  -17.0927   20.6247 C   0  0  0  0  0  0  0  0  0  0  0  0
   10.9837  -16.6186   20.9162 O   0  0  0  0  0  0  0  0  0  0  0  0
    8.7451  -16.8356   21.4563 N   0  0  0  0  0  0  0  0  0  0  0  0
    8.8095  -15.9138   22.6171 C   0  0  1  0  0  0  0  0  0  0  0  0
    7.4704  -15.3057   22.8403 C   0  0  0  0  0  0  0  0  0  0  0  0
    7.3118  -14.4391   24.0097 C   0  0  0  0  0  0  0  0  0  0  0  0
    6.7305  -14.8983   25.1985 C   0  0  0  0  0  0  0  0  0  0  0  0
    6.5974  -14.1149   26.3211 C   0  0  0  0  0  0  0  0  0  0  0  0
    7.0427  -12.8207   26.3128 C   0  0  0  0  0  0  0  0  0  0  0  0
    7.6190  -12.3364   25.1621 C   0  0  0  0  0  0  0  0  0  0  0  0
    7.7515  -13.1217   24.0394 C   0  0  0  0  0  0  0  0  0  0  0  0
    9.3977  -16.6651   23.7259 C   0  0  0  0  0  0  0  0  0  0  0  0
    9.1039  -17.9072   23.8799 O   0  0  0  0  0  0  0  0  0  0  0  0
   10.3041  -16.1774   24.7044 N   0  0  0  0  0  0  0  0  0  0  0  0
   11.0240  -17.0413   25.6156 C   0  0  1  0  0  0  0  0  0  0  0  0
   11.9121  -16.1117   26.4609 C   0  0  0  0  0  0  0  0  0  0  0  0
   11.1193  -15.3541   27.4316 C   0  0  0  0  0  0  0  0  0  0  0  0
   10.4709  -14.1730   27.1428 C   0  0  0  0  0  0  0  0  0  0  0  0
    9.7293  -13.4923   28.1053 C   0  0  0  0  0  0  0  0  0  0  0  0
    9.6216  -13.9858   29.3876 C   0  0  0  0  0  0  0  0  0  0  0  0
   10.2616  -15.1578   29.6849 C   0  0  0  0  0  0  0  0  0  0  0  0
   10.9978  -15.8283   28.7192 C   0  0  0  0  0  0  0  0  0  0  0  0
   10.1799  -17.8819   26.4495 C   0  0  0  0  0  0  0  0  0  0  0  0
    8.8026  -17.8043   26.4537 O   0  0  0  0  0  0  0  0  0  0  0  0
   10.6839  -18.7455   27.2300 O   0  0  0  0  0  0  0  0  0  0  0  0
  2  1  1  1
  3  2  1  0
  4  2  1  0
  4  5  2  0
  6  4  1  0
  7  6  1  0
  7  8  1  1
  9 14  1  0
  9  8  1  0
 10  9  2  0
 11 12  2  0
 11 10  1  0
 12 13  1  0
 13 14  2  0
 15  7  1  0
 15 17  1  0
 16 15  2  0
 18 17  1  0
 18 26  1  0
 19 20  1  0
 18 19  1  1
 20 25  2  0
 21 22  2  0
 21 20  1  0
 22 23  1  0
 23 24  2  0
 25 24  1  0
 26 28  2  0
 26 27  1  0
M  END
$$$$
