AFF.pdb
     RDKit          3D

 28 29  0  0  1  0  0  0  0  0999 V2000
    9.4023  -16.8038   17.7630 C   0  0  0  0  0  0  0  0  0  0  0  0
    9.5253  -17.4566   19.1049 C   0  0  2  0  0  0  0  0  0  0  0  0
    8.5462  -18.4893   19.3144 N   0  0  0  0  0  0  0  0  0  0  0  0
    9.5302  -16.4629   20.2117 C   0  0  0  0  0  0  0  0  0  0  0  0
   10.4667  -15.6220   20.2432 O   0  0  0  0  0  0  0  0  0  0  0  0
    8.5300  -16.4428   21.2054 N   0  0  0  0  0  0  0  0  0  0  0  0
    8.6031  -15.5649   22.3992 C   0  0  1  0  0  0  0  0  0  0  0  0
    7.2602  -14.9845   22.6688 C   0  0  0  0  0  0  0  0  0  0  0  0
    7.1017  -14.1962   23.8923 C   0  0  0  0  0  0  0  0  0  0  0  0
    7.5682  -12.8791   23.9905 C   0  0  0  0  0  0  0  0  0  0  0  0
    7.4053  -12.1064   25.1165 C   0  0  0  0  0  0  0  0  0  0  0  0
    6.7618  -12.6153   26.2121 C   0  0  0  0  0  0  0  0  0  0  0  0
    6.2905  -13.9056   26.1509 C   0  0  0  0  0  0  0  0  0  0  0  0
    6.4543  -14.6776   25.0232 C   0  0  0  0  0  0  0  0  0  0  0  0
    9.2210  -16.3495   23.4681 C   0  0  0  0  0  0  0  0  0  0  0  0
    8.5017  -17.1597   24.1603 O   0  0  0  0  0  0  0  0  0  0  0  0
   10.5862  -16.3371   23.8590 N   0  0  0  0  0  0  0  0  0  0  0  0
   11.0171  -16.0900   25.2185 C   0  0  1  0  0  0  0  0  0  0  0  0
    9.8441  -15.3691   25.9053 C   0  0  0  0  0  0  0  0  0  0  0  0
   10.1549  -15.0549   27.3015 C   0  0  0  0  0  0  0  0  0  0  0  0
   10.3461  -16.0050   28.2811 C   0  0  0  0  0  0  0  0  0  0  0  0
   10.6401  -15.6505   29.5954 C   0  0  0  0  0  0  0  0  0  0  0  0
   10.7493  -14.3252   29.9577 C   0  0  0  0  0  0  0  0  0  0  0  0
   10.5613  -13.3739   28.9928 C   0  0  0  0  0  0  0  0  0  0  0  0
   10.2689  -13.7372   27.6864 C   0  0  0  0  0  0  0  0  0  0  0  0
   11.4210  -17.2784   25.9527 C   0  0  0  0  0  0  0  0  0  0  0  0
   11.0252  -18.5535   25.6056 O   0  0  0  0  0  0  0  0  0  0  0  0
   12.1735  -17.1946   26.9703 O   0  0  0  0  0  0  0  0  0  0  0  0
  2  1  1  6
  3  2  1  0
  4  2  1  0
  4  5  2  0
  6  4  1  0
  7  6  1  0
  7  8  1  1
  9 14  1  0
  9  8  1  0
 10  9  2  0
 11 12  2  0
 11 10  1  0
 12 13  1  0
 13 14  2  0
 15  7  1  0
 15 17  1  0
 16 15  2  0
 18 17  1  0
 18 26  1  0
 19 20  1  0
 18 19  1  1
 20 25  2  0
 21 22  2  0
 21 20  1  0
 22 23  1  0
 23 24  2  0
 25 24  1  0
 26 28  2  0
 26 27  1  0
M  END
$$$$
