AFF.pdb
     RDKit          3D

 28 29  0  0  1  0  0  0  0  0999 V2000
   10.1526  -18.8752   19.5431 C   0  0  0  0  0  0  0  0  0  0  0  0
   10.0045  -17.4024   19.3173 C   0  0  2  0  0  0  0  0  0  0  0  0
   10.9968  -16.8733   18.4205 N   0  0  0  0  0  0  0  0  0  0  0  0
    9.9497  -16.6435   20.5955 C   0  0  0  0  0  0  0  0  0  0  0  0
   11.0336  -16.2167   21.0732 O   0  0  0  0  0  0  0  0  0  0  0  0
    8.7360  -16.3971   21.2694 N   0  0  0  0  0  0  0  0  0  0  0  0
    8.6642  -15.6311   22.5380 C   0  0  1  0  0  0  0  0  0  0  0  0
    7.3069  -15.0399   22.6823 C   0  0  0  0  0  0  0  0  0  0  0  0
    7.0405  -14.2539   23.8884 C   0  0  0  0  0  0  0  0  0  0  0  0
    7.3317  -12.8856   23.9602 C   0  0  0  0  0  0  0  0  0  0  0  0
    7.0636  -12.1177   25.0692 C   0  0  0  0  0  0  0  0  0  0  0  0
    6.4853  -12.6832   26.1733 C   0  0  0  0  0  0  0  0  0  0  0  0
    6.1857  -14.0247   26.1380 C   0  0  0  0  0  0  0  0  0  0  0  0
    6.4546  -14.7919   25.0273 C   0  0  0  0  0  0  0  0  0  0  0  0
    9.1226  -16.5245   23.6018 C   0  0  0  0  0  0  0  0  0  0  0  0
    8.7730  -17.7617   23.5888 O   0  0  0  0  0  0  0  0  0  0  0  0
    9.9526  -16.1876   24.7038 N   0  0  0  0  0  0  0  0  0  0  0  0
   10.5006  -17.1731   25.6112 C   0  0  1  0  0  0  0  0  0  0  0  0
   11.6493  -16.4671   26.3525 C   0  0  0  0  0  0  0  0  0  0  0  0
   11.1410  -15.5631   27.3865 C   0  0  0  0  0  0  0  0  0  0  0  0
   10.9564  -15.9246   28.7034 C   0  0  0  0  0  0  0  0  0  0  0  0
   10.4692  -15.0237   29.6470 C   0  0  0  0  0  0  0  0  0  0  0  0
   10.1545  -13.7311   29.2870 C   0  0  0  0  0  0  0  0  0  0  0  0
   10.3340  -13.3618   27.9820 C   0  0  0  0  0  0  0  0  0  0  0  0
   10.8198  -14.2665   27.0496 C   0  0  0  0  0  0  0  0  0  0  0  0
    9.5375  -17.7479   26.5366 C   0  0  0  0  0  0  0  0  0  0  0  0
    9.8309  -18.8024   27.3764 O   0  0  0  0  0  0  0  0  0  0  0  0
    8.3553  -17.2952   26.6156 O   0  0  0  0  0  0  0  0  0  0  0  0
  2  1  1  1
  3  2  1  0
  4  2  1  0
  4  5  2  0
  6  4  1  0
  7  6  1  0
  7  8  1  1
  9 14  1  0
  9  8  1  0
 10  9  2  0
 11 12  2  0
 11 10  1  0
 12 13  1  0
 13 14  2  0
 15  7  1  0
 15 17  1  0
 16 15  2  0
 18 17  1  0
 18 26  1  0
 19 20  1  0
 18 19  1  1
 20 25  2  0
 21 22  2  0
 21 20  1  0
 22 23  1  0
 23 24  2  0
 25 24  1  0
 26 28  2  0
 26 27  1  0
M  END
$$$$
