AFF.pdb
     RDKit          3D

 28 29  0  0  1  0  0  0  0  0999 V2000
    9.5734  -19.3969   20.4256 C   0  0  0  0  0  0  0  0  0  0  0  0
    9.3264  -17.9845   19.9946 C   0  0  2  0  0  0  0  0  0  0  0  0
   10.1703  -17.5790   18.9026 N   0  0  0  0  0  0  0  0  0  0  0  0
    9.3968  -17.0316   21.1346 C   0  0  0  0  0  0  0  0  0  0  0  0
   10.5100  -16.5020   21.3907 O   0  0  0  0  0  0  0  0  0  0  0  0
    8.2680  -16.7154   21.9180 N   0  0  0  0  0  0  0  0  0  0  0  0
    8.3326  -15.8030   23.0863 C   0  0  1  0  0  0  0  0  0  0  0  0
    7.1509  -14.8995   23.0736 C   0  0  0  0  0  0  0  0  0  0  0  0
    7.0263  -13.9400   24.1724 C   0  0  0  0  0  0  0  0  0  0  0  0
    7.5114  -12.6299   24.0704 C   0  0  0  0  0  0  0  0  0  0  0  0
    7.3803  -11.6999   25.0751 C   0  0  0  0  0  0  0  0  0  0  0  0
    6.7518  -12.0349   26.2439 C   0  0  0  0  0  0  0  0  0  0  0  0
    6.2630  -13.3129   26.3787 C   0  0  0  0  0  0  0  0  0  0  0  0
    6.3950  -14.2426   25.3723 C   0  0  0  0  0  0  0  0  0  0  0  0
    8.5237  -16.6400   24.2707 C   0  0  0  0  0  0  0  0  0  0  0  0
    7.5013  -17.1415   24.8674 O   0  0  0  0  0  0  0  0  0  0  0  0
    9.7575  -16.9949   24.8776 N   0  0  0  0  0  0  0  0  0  0  0  0
   10.8896  -16.0962   24.9517 C   0  0  1  0  0  0  0  0  0  0  0  0
   10.3715  -14.8263   25.6492 C   0  0  0  0  0  0  0  0  0  0  0  0
   10.3187  -14.9996   27.1024 C   0  0  0  0  0  0  0  0  0  0  0  0
   10.3595  -16.2234   27.7346 C   0  0  0  0  0  0  0  0  0  0  0  0
   10.3059  -16.3312   29.1220 C   0  0  0  0  0  0  0  0  0  0  0  0
   10.2094  -15.2052   29.9108 C   0  0  0  0  0  0  0  0  0  0  0  0
   10.1682  -13.9852   29.2933 C   0  0  0  0  0  0  0  0  0  0  0  0
   10.2222  -13.8883   27.9106 C   0  0  0  0  0  0  0  0  0  0  0  0
   12.0551  -16.6426   25.6280 C   0  0  0  0  0  0  0  0  0  0  0  0
   12.0785  -17.8970   26.2018 O   0  0  0  0  0  0  0  0  0  0  0  0
   13.1291  -15.9746   25.7237 O   0  0  0  0  0  0  0  0  0  0  0  0
  2  1  1  1
  3  2  1  0
  4  2  1  0
  4  5  2  0
  6  4  1  0
  7  6  1  0
  7  8  1  1
  9 14  1  0
  9  8  1  0
 10  9  2  0
 11 12  2  0
 11 10  1  0
 12 13  1  0
 13 14  2  0
 15  7  1  0
 15 17  1  0
 16 15  2  0
 18 17  1  0
 18 26  1  0
 19 20  1  0
 18 19  1  1
 20 25  2  0
 21 22  2  0
 21 20  1  0
 22 23  1  0
 23 24  2  0
 25 24  1  0
 26 28  2  0
 26 27  1  0
M  END
$$$$
