AFF.pdb
     RDKit          3D

 28 29  0  0  1  0  0  0  0  0999 V2000
    6.1870  -20.5470   22.6150 C   0  0  0  0  0  0  0  0  0  0  0  0
    5.1255  -19.5694   23.0146 C   0  0  2  0  0  0  0  0  0  0  0  0
    3.9974  -19.5757   22.1222 N   0  0  0  0  0  0  0  0  0  0  0  0
    5.6718  -18.1997   23.2098 C   0  0  0  0  0  0  0  0  0  0  0  0
    5.6756  -17.4213   22.2202 O   0  0  0  0  0  0  0  0  0  0  0  0
    6.1746  -17.7635   24.4528 N   0  0  0  0  0  0  0  0  0  0  0  0
    6.7589  -16.4144   24.6527 C   0  0  1  0  0  0  0  0  0  0  0  0
    6.5413  -15.9853   26.0603 C   0  0  0  0  0  0  0  0  0  0  0  0
    6.8401  -14.5910   26.3920 C   0  0  0  0  0  0  0  0  0  0  0  0
    8.0958  -14.1963   26.8712 C   0  0  0  0  0  0  0  0  0  0  0  0
    8.4125  -12.8897   27.1612 C   0  0  0  0  0  0  0  0  0  0  0  0
    7.4818  -11.9016   26.9853 C   0  0  0  0  0  0  0  0  0  0  0  0
    6.2380  -12.2530   26.5161 C   0  0  0  0  0  0  0  0  0  0  0  0
    5.9226  -13.5612   26.2264 C   0  0  0  0  0  0  0  0  0  0  0  0
    8.1406  -16.4734   24.1760 C   0  0  0  0  0  0  0  0  0  0  0  0
    8.7876  -17.5828   24.2353 O   0  0  0  0  0  0  0  0  0  0  0  0
    8.9005  -15.4097   23.6211 N   0  0  0  0  0  0  0  0  0  0  0  0
   10.1901  -15.6030   22.9931 C   0  0  1  0  0  0  0  0  0  0  0  0
   10.4864  -14.2977   22.2342 C   0  0  0  0  0  0  0  0  0  0  0  0
    9.3062  -13.8227   21.5089 C   0  0  0  0  0  0  0  0  0  0  0  0
    8.6898  -12.6136   21.7477 C   0  0  0  0  0  0  0  0  0  0  0  0
    7.5682  -12.2103   21.0274 C   0  0  0  0  0  0  0  0  0  0  0  0
    7.0370  -13.0176   20.0447 C   0  0  0  0  0  0  0  0  0  0  0  0
    7.6414  -14.2201   19.7995 C   0  0  0  0  0  0  0  0  0  0  0  0
    8.7582  -14.6128   20.5224 C   0  0  0  0  0  0  0  0  0  0  0  0
   11.2656  -15.9475   23.9090 C   0  0  0  0  0  0  0  0  0  0  0  0
   12.5363  -16.2856   23.4915 O   0  0  0  0  0  0  0  0  0  0  0  0
   11.0799  -15.9534   25.1638 O   0  0  0  0  0  0  0  0  0  0  0  0
  2  1  1  6
  3  2  1  0
  4  2  1  0
  4  5  2  0
  6  4  1  0
  7  6  1  0
  7  8  1  1
  9 14  1  0
  9  8  1  0
 10  9  2  0
 11 12  2  0
 11 10  1  0
 12 13  1  0
 13 14  2  0
 15  7  1  0
 15 17  1  0
 16 15  2  0
 18 17  1  0
 18 26  1  0
 19 20  1  0
 18 19  1  1
 20 25  2  0
 21 22  2  0
 21 20  1  0
 22 23  1  0
 23 24  2  0
 25 24  1  0
 26 28  2  0
 26 27  1  0
M  END
$$$$
