AFF.pdb
     RDKit          3D

 28 29  0  0  1  0  0  0  0  0999 V2000
   10.4352  -19.1727   19.6285 C   0  0  0  0  0  0  0  0  0  0  0  0
    9.9321  -17.7904   19.3493 C   0  0  2  0  0  0  0  0  0  0  0  0
   10.6527  -17.1384   18.2888 N   0  0  0  0  0  0  0  0  0  0  0  0
    9.8785  -16.9558   20.5794 C   0  0  0  0  0  0  0  0  0  0  0  0
   10.9362  -16.3795   20.9459 O   0  0  0  0  0  0  0  0  0  0  0  0
    8.6939  -16.7994   21.3280 N   0  0  0  0  0  0  0  0  0  0  0  0
    8.6232  -15.9644   22.5524 C   0  0  1  0  0  0  0  0  0  0  0  0
    7.2251  -15.4974   22.7521 C   0  0  0  0  0  0  0  0  0  0  0  0
    6.9699  -14.6033   23.8830 C   0  0  0  0  0  0  0  0  0  0  0  0
    6.5224  -15.0834   25.1205 C   0  0  0  0  0  0  0  0  0  0  0  0
    6.3044  -14.2697   26.2076 C   0  0  0  0  0  0  0  0  0  0  0  0
    6.5245  -12.9221   26.1126 C   0  0  0  0  0  0  0  0  0  0  0  0
    6.9643  -12.4160   24.9122 C   0  0  0  0  0  0  0  0  0  0  0  0
    7.1820  -13.2317   23.8251 C   0  0  0  0  0  0  0  0  0  0  0  0
    9.2315  -16.7403   23.6331 C   0  0  0  0  0  0  0  0  0  0  0  0
    8.9958  -18.0010   23.7223 O   0  0  0  0  0  0  0  0  0  0  0  0
   10.0997  -16.2586   24.6485 N   0  0  0  0  0  0  0  0  0  0  0  0
   10.7414  -17.1231   25.6158 C   0  0  1  0  0  0  0  0  0  0  0  0
   11.8211  -16.2630   26.2952 C   0  0  0  0  0  0  0  0  0  0  0  0
   11.2401  -15.3802   27.3090 C   0  0  0  0  0  0  0  0  0  0  0  0
   11.1799  -15.6835   28.6519 C   0  0  0  0  0  0  0  0  0  0  0  0
   10.6155  -14.8063   29.5745 C   0  0  0  0  0  0  0  0  0  0  0  0
   10.0955  -13.5968   29.1666 C   0  0  0  0  0  0  0  0  0  0  0  0
   10.1502  -13.2858   27.8355 C   0  0  0  0  0  0  0  0  0  0  0  0
   10.7144  -14.1664   26.9243 C   0  0  0  0  0  0  0  0  0  0  0  0
    9.8401  -17.7203   26.5881 C   0  0  0  0  0  0  0  0  0  0  0  0
   10.2232  -18.7137   27.4652 O   0  0  0  0  0  0  0  0  0  0  0  0
    8.6313  -17.3460   26.6760 O   0  0  0  0  0  0  0  0  0  0  0  0
  2  1  1  1
  3  2  1  0
  4  2  1  0
  4  5  2  0
  6  4  1  0
  7  6  1  0
  7  8  1  1
  9 14  1  0
  9  8  1  0
 10  9  2  0
 11 12  2  0
 11 10  1  0
 12 13  1  0
 13 14  2  0
 15  7  1  0
 15 17  1  0
 16 15  2  0
 18 17  1  0
 18 26  1  0
 19 20  1  0
 18 19  1  1
 20 25  2  0
 21 22  2  0
 21 20  1  0
 22 23  1  0
 23 24  2  0
 25 24  1  0
 26 28  2  0
 26 27  1  0
M  END
$$$$
