AFF.pdb
     RDKit          3D

 28 29  0  0  1  0  0  0  0  0999 V2000
    9.2286  -18.6726   20.6731 C   0  0  0  0  0  0  0  0  0  0  0  0
    9.0972  -17.2154   20.3551 C   0  0  2  0  0  0  0  0  0  0  0  0
    9.9155  -16.8113   19.2433 N   0  0  0  0  0  0  0  0  0  0  0  0
    9.3225  -16.3597   21.5508 C   0  0  0  0  0  0  0  0  0  0  0  0
   10.4828  -15.9097   21.7419 O   0  0  0  0  0  0  0  0  0  0  0  0
    8.2869  -16.0482   22.4555 N   0  0  0  0  0  0  0  0  0  0  0  0
    8.4859  -15.1606   23.6276 C   0  0  1  0  0  0  0  0  0  0  0  0
    7.2197  -14.4366   23.9198 C   0  0  0  0  0  0  0  0  0  0  0  0
    7.1841  -13.6030   25.1229 C   0  0  0  0  0  0  0  0  0  0  0  0
    7.7660  -12.3293   25.1591 C   0  0  0  0  0  0  0  0  0  0  0  0
    7.7203  -11.5137   26.2656 C   0  0  0  0  0  0  0  0  0  0  0  0
    7.0848  -11.9332   27.4029 C   0  0  0  0  0  0  0  0  0  0  0  0
    6.5021  -13.1787   27.4030 C   0  0  0  0  0  0  0  0  0  0  0  0
    6.5487  -13.9938   26.2948 C   0  0  0  0  0  0  0  0  0  0  0  0
    9.0482  -15.9858   24.6966 C   0  0  0  0  0  0  0  0  0  0  0  0
    8.4556  -17.0740   25.0393 O   0  0  0  0  0  0  0  0  0  0  0  0
   10.2298  -15.7316   25.4422 N   0  0  0  0  0  0  0  0  0  0  0  0
   10.6413  -16.5386   26.5710 C   0  0  1  0  0  0  0  0  0  0  0  0
   12.1375  -16.8268   26.3567 C   0  0  0  0  0  0  0  0  0  0  0  0
   12.3572  -17.6478   25.1642 C   0  0  0  0  0  0  0  0  0  0  0  0
   12.3002  -19.0246   25.1552 C   0  0  0  0  0  0  0  0  0  0  0  0
   12.5176  -19.7574   23.9910 C   0  0  0  0  0  0  0  0  0  0  0  0
   12.7989  -19.1197   22.8020 C   0  0  0  0  0  0  0  0  0  0  0  0
   12.8579  -17.7529   22.7999 C   0  0  0  0  0  0  0  0  0  0  0  0
   12.6398  -17.0321   23.9647 C   0  0  0  0  0  0  0  0  0  0  0  0
   10.3913  -15.9366   27.8708 C   0  0  0  0  0  0  0  0  0  0  0  0
   10.5515  -16.6136   29.0621 O   0  0  0  0  0  0  0  0  0  0  0  0
   10.0049  -14.7326   27.9708 O   0  0  0  0  0  0  0  0  0  0  0  0
  2  1  1  1
  3  2  1  0
  4  2  1  0
  4  5  2  0
  6  4  1  0
  7  6  1  0
  7  8  1  1
  9 14  1  0
  9  8  1  0
 10  9  2  0
 11 12  2  0
 11 10  1  0
 12 13  1  0
 13 14  2  0
 15  7  1  0
 15 17  1  0
 16 15  2  0
 18 17  1  0
 18 26  1  0
 19 20  1  0
 18 19  1  6
 20 25  2  0
 21 22  2  0
 21 20  1  0
 22 23  1  0
 23 24  2  0
 25 24  1  0
 26 28  2  0
 26 27  1  0
M  END
$$$$
