HCD.pdb
     RDKit          3D

 25 25  0  0  1  0  0  0  0  0999 V2000
   19.4947  -13.1640  -17.1718 N   0  0  0  0  0  0  0  0  0  0  0  0
   20.8677  -13.5614  -17.2492 C   0  0  1  0  0  0  0  0  0  0  0  0
   21.1368  -14.5136  -18.3776 C   0  0  0  0  0  0  0  0  0  0  0  0
   20.3233  -15.7341  -18.1838 C   0  0  0  0  0  0  0  0  0  0  0  0
   20.7704  -16.9352  -17.6965 C   0  0  0  0  0  0  0  0  0  0  0  0
   19.7245  -17.8141  -17.6660 N   0  0  0  0  0  0  0  0  0  0  0  0
   18.6480  -17.1628  -18.1283 C   0  0  0  0  0  0  0  0  0  0  0  0
   19.0214  -15.8933  -18.4425 N   0  0  0  0  0  0  0  0  0  0  0  0
   21.7439  -12.3435  -17.4041 C   0  0  0  0  0  0  0  0  0  0  0  0
   22.9168  -12.4842  -17.7871 O   0  0  0  0  0  0  0  0  0  0  0  0
   21.2099  -11.0767  -17.1106 N   0  0  0  0  0  0  0  0  0  0  0  0
   21.9747   -9.8823  -17.2381 C   0  0  1  0  0  0  0  0  0  0  0  0
   22.7365   -9.7234  -18.5043 C   0  0  0  0  0  0  0  0  0  0  0  0
   23.6461   -8.1887  -18.6319 S   0  0  0  0  0  0  0  0  0  0  0  0
   21.1695   -8.6258  -16.9652 C   0  0  0  0  0  0  0  0  0  0  0  0
   20.2525   -8.2292  -17.7265 O   0  0  0  0  0  0  0  0  0  0  0  0
   21.4242   -7.8378  -15.8219 N   0  0  0  0  0  0  0  0  0  0  0  0
   20.4272   -6.8123  -15.4582 C   0  0  1  0  0  0  0  0  0  0  0  0
   19.6309   -7.2548  -14.2767 C   0  0  0  0  0  0  0  0  0  0  0  0
   18.3338   -6.5953  -14.1372 C   0  0  0  0  0  0  0  0  0  0  0  0
   17.9713   -5.7226  -14.9537 O   0  0  0  0  0  0  0  0  0  0  0  0
   21.2758   -5.6220  -15.1057 C   0  0  0  0  0  0  0  0  0  0  0  0
   22.5241   -5.6937  -15.0363 O   0  0  0  0  0  0  0  0  0  0  0  0
   17.4325   -6.8817  -13.1148 O   0  0  0  0  0  0  0  0  0  0  0  0
   20.7103   -4.3684  -14.8364 O   0  0  0  0  0  0  0  0  0  0  0  0
  2  1  1  6
  3  2  1  0
  4  3  1  0
  5  4  2  0
  6  7  1  0
  6  5  1  0
  7  8  2  0
  8  4  1  0
  9 10  2  0
  9  2  1  0
 11  9  1  0
 12 11  1  0
 12 15  1  0
 12 13  1  6
 14 13  1  0
 15 17  1  0
 16 15  2  0
 17 18  1  0
 18 22  1  0
 18 19  1  1
 19 20  1  0
 20 21  2  0
 22 23  2  0
 22 25  1  0
 24 20  1  0
M  END
$$$$
