HCD.pdb
     RDKit          3D

 25 25  0  0  1  0  0  0  0  0999 V2000
   25.3541  -19.4010  -16.1057 N   0  0  0  0  0  0  0  0  0  0  0  0
   26.1896  -19.5773  -14.9566 C   0  0  1  0  0  0  0  0  0  0  0  0
   26.9397  -18.3319  -14.5842 C   0  0  0  0  0  0  0  0  0  0  0  0
   27.6400  -17.8142  -15.7802 C   0  0  0  0  0  0  0  0  0  0  0  0
   27.5898  -18.3491  -17.0417 C   0  0  0  0  0  0  0  0  0  0  0  0
   28.3666  -17.5910  -17.8719 N   0  0  0  0  0  0  0  0  0  0  0  0
   28.8879  -16.6027  -17.1315 C   0  0  0  0  0  0  0  0  0  0  0  0
   28.4398  -16.7456  -15.8553 N   0  0  0  0  0  0  0  0  0  0  0  0
   25.3557  -20.0276  -13.7832 C   0  0  0  0  0  0  0  0  0  0  0  0
   25.9090  -20.2432  -12.6925 O   0  0  0  0  0  0  0  0  0  0  0  0
   23.9702  -20.1923  -13.9537 N   0  0  0  0  0  0  0  0  0  0  0  0
   23.1122  -20.5651  -12.8800 C   0  0  1  0  0  0  0  0  0  0  0  0
   23.2292  -19.7594  -11.6367 C   0  0  0  0  0  0  0  0  0  0  0  0
   22.0120  -20.1496  -10.3859 S   0  0  0  0  0  0  0  0  0  0  0  0
   21.6545  -20.6660  -13.2881 C   0  0  0  0  0  0  0  0  0  0  0  0
   20.9909  -19.6757  -13.6840 O   0  0  0  0  0  0  0  0  0  0  0  0
   20.9734  -21.9015  -13.2383 N   0  0  0  0  0  0  0  0  0  0  0  0
   19.5778  -21.9367  -13.7166 C   0  0  1  0  0  0  0  0  0  0  0  0
   19.1283  -23.3460  -13.9108 C   0  0  0  0  0  0  0  0  0  0  0  0
   18.8608  -23.7120  -15.3006 C   0  0  0  0  0  0  0  0  0  0  0  0
   18.9675  -22.8671  -16.2141 O   0  0  0  0  0  0  0  0  0  0  0  0
   18.8159  -21.2908  -12.5927 C   0  0  0  0  0  0  0  0  0  0  0  0
   19.0803  -21.5241  -11.3911 O   0  0  0  0  0  0  0  0  0  0  0  0
   18.4785  -24.9909  -15.6981 O   0  0  0  0  0  0  0  0  0  0  0  0
   17.7682  -20.3920  -12.8343 O   0  0  0  0  0  0  0  0  0  0  0  0
  2  1  1  6
  3  2  1  0
  4  3  1  0
  5  4  2  0
  6  7  1  0
  6  5  1  0
  7  8  2  0
  8  4  1  0
  9 10  2  0
  9  2  1  0
 11  9  1  0
 12 11  1  0
 12 15  1  0
 12 13  1  1
 14 13  1  0
 15 17  1  0
 16 15  2  0
 17 18  1  0
 18 22  1  0
 18 19  1  1
 19 20  1  0
 20 21  2  0
 22 23  2  0
 22 25  1  0
 24 20  1  0
M  END
$$$$
