HCD.pdb
     RDKit          3D

 25 25  0  0  1  0  0  0  0  0999 V2000
   22.8823  -13.5654  -17.4787 N   0  0  0  0  0  0  0  0  0  0  0  0
   23.0531  -12.6067  -16.4294 C   0  0  1  0  0  0  0  0  0  0  0  0
   24.4358  -12.0243  -16.3907 C   0  0  0  0  0  0  0  0  0  0  0  0
   25.4092  -13.1082  -16.1328 C   0  0  0  0  0  0  0  0  0  0  0  0
   26.2519  -13.6747  -17.0543 C   0  0  0  0  0  0  0  0  0  0  0  0
   26.9956  -14.6396  -16.4352 N   0  0  0  0  0  0  0  0  0  0  0  0
   26.6159  -14.6667  -15.1500 C   0  0  0  0  0  0  0  0  0  0  0  0
   25.6469  -13.7290  -14.9729 N   0  0  0  0  0  0  0  0  0  0  0  0
   22.0470  -11.4939  -16.5855 C   0  0  0  0  0  0  0  0  0  0  0  0
   21.8948  -10.9649  -17.6987 O   0  0  0  0  0  0  0  0  0  0  0  0
   21.3050  -11.0825  -15.4648 N   0  0  0  0  0  0  0  0  0  0  0  0
   20.2583  -10.1214  -15.5584 C   0  0  1  0  0  0  0  0  0  0  0  0
   19.0172  -10.4272  -14.8002 C   0  0  0  0  0  0  0  0  0  0  0  0
   18.3030  -12.0257  -15.1654 S   0  0  0  0  0  0  0  0  0  0  0  0
   20.7146   -8.7092  -15.2434 C   0  0  0  0  0  0  0  0  0  0  0  0
   21.5690   -8.4540  -14.3586 O   0  0  0  0  0  0  0  0  0  0  0  0
   20.1866   -7.6049  -15.9465 N   0  0  0  0  0  0  0  0  0  0  0  0
   20.7797   -6.2784  -15.6883 C   0  0  1  0  0  0  0  0  0  0  0  0
   21.5883   -5.8315  -16.8598 C   0  0  0  0  0  0  0  0  0  0  0  0
   22.1267   -4.4774  -16.7449 C   0  0  0  0  0  0  0  0  0  0  0  0
   21.9614   -3.8121  -15.7009 O   0  0  0  0  0  0  0  0  0  0  0  0
   19.5756   -5.3953  -15.5116 C   0  0  0  0  0  0  0  0  0  0  0  0
   18.4978   -5.6145  -16.1102 O   0  0  0  0  0  0  0  0  0  0  0  0
   22.8422   -3.8466  -17.7597 O   0  0  0  0  0  0  0  0  0  0  0  0
   19.5992   -4.2788  -14.6649 O   0  0  0  0  0  0  0  0  0  0  0  0
  2  1  1  6
  3  2  1  0
  4  3  1  0
  5  4  2  0
  6  7  1  0
  6  5  1  0
  7  8  2  0
  8  4  1  0
  9 10  2  0
  9  2  1  0
 11  9  1  0
 12 11  1  0
 12 15  1  0
 12 13  1  1
 14 13  1  0
 15 17  1  0
 16 15  2  0
 17 18  1  0
 18 22  1  0
 18 19  1  6
 19 20  1  0
 20 21  2  0
 22 23  2  0
 22 25  1  0
 24 20  1  0
M  END
$$$$
