HCD.pdb
     RDKit          3D

 25 25  0  0  1  0  0  0  0  0999 V2000
   19.5867  -16.5573  -17.0046 N   0  0  0  0  0  0  0  0  0  0  0  0
   20.1910  -15.3506  -17.4823 C   0  0  1  0  0  0  0  0  0  0  0  0
   20.4440  -15.3709  -18.9614 C   0  0  0  0  0  0  0  0  0  0  0  0
   21.3558  -16.4917  -19.2800 C   0  0  0  0  0  0  0  0  0  0  0  0
   21.0075  -17.6694  -19.8898 C   0  0  0  0  0  0  0  0  0  0  0  0
   22.1234  -18.4488  -20.0102 N   0  0  0  0  0  0  0  0  0  0  0  0
   23.1448  -17.7603  -19.4818 C   0  0  0  0  0  0  0  0  0  0  0  0
   22.6684  -16.5663  -19.0378 N   0  0  0  0  0  0  0  0  0  0  0  0
   19.3146  -14.1711  -17.1419 C   0  0  0  0  0  0  0  0  0  0  0  0
   18.0829  -14.2755  -17.2615 O   0  0  0  0  0  0  0  0  0  0  0  0
   19.9151  -12.9807  -16.6968 N   0  0  0  0  0  0  0  0  0  0  0  0
   19.1503  -11.8655  -16.2503 C   0  0  1  0  0  0  0  0  0  0  0  0
   18.1912  -12.1279  -15.1457 C   0  0  0  0  0  0  0  0  0  0  0  0
   17.5204  -10.6554  -14.3840 S   0  0  0  0  0  0  0  0  0  0  0  0
   20.0006  -10.6555  -15.9118 C   0  0  0  0  0  0  0  0  0  0  0  0
   20.8726  -10.6708  -15.0078 O   0  0  0  0  0  0  0  0  0  0  0  0
   19.8422   -9.4411  -16.6139 N   0  0  0  0  0  0  0  0  0  0  0  0
   20.7750   -8.3406  -16.3026 C   0  0  1  0  0  0  0  0  0  0  0  0
   20.8300   -7.3680  -17.4327 C   0  0  0  0  0  0  0  0  0  0  0  0
   21.7106   -6.2235  -17.2063 C   0  0  0  0  0  0  0  0  0  0  0  0
   22.3447   -6.1088  -16.1365 O   0  0  0  0  0  0  0  0  0  0  0  0
   20.1574   -7.7035  -15.0887 C   0  0  0  0  0  0  0  0  0  0  0  0
   18.9516   -7.3670  -15.0563 O   0  0  0  0  0  0  0  0  0  0  0  0
   21.9028   -5.2062  -18.1379 O   0  0  0  0  0  0  0  0  0  0  0  0
   20.9028   -7.4536  -13.9285 O   0  0  0  0  0  0  0  0  0  0  0  0
  2  1  1  6
  3  2  1  0
  4  3  1  0
  5  4  2  0
  6  7  1  0
  6  5  1  0
  7  8  2  0
  8  4  1  0
  9 10  2  0
  9  2  1  0
 11  9  1  0
 12 11  1  0
 12 15  1  0
 12 13  1  1
 14 13  1  0
 15 17  1  0
 16 15  2  0
 17 18  1  0
 18 22  1  0
 18 19  1  6
 19 20  1  0
 20 21  2  0
 22 23  2  0
 22 25  1  0
 24 20  1  0
M  END
$$$$
