HCD.pdb
     RDKit          3D

 25 25  0  0  1  0  0  0  0  0999 V2000
   21.7192  -12.9725  -18.1959 N   0  0  0  0  0  0  0  0  0  0  0  0
   22.0007  -11.5944  -18.4625 C   0  0  1  0  0  0  0  0  0  0  0  0
   21.6764  -11.1949  -19.8723 C   0  0  0  0  0  0  0  0  0  0  0  0
   22.5546  -11.9416  -20.7999 C   0  0  0  0  0  0  0  0  0  0  0  0
   23.3953  -11.3944  -21.7346 C   0  0  0  0  0  0  0  0  0  0  0  0
   24.0365  -12.4048  -22.3943 N   0  0  0  0  0  0  0  0  0  0  0  0
   23.5966  -13.5585  -21.8726 C   0  0  0  0  0  0  0  0  0  0  0  0
   22.6918  -13.2677  -20.8997 N   0  0  0  0  0  0  0  0  0  0  0  0
   21.2280  -10.7210  -17.5059 C   0  0  0  0  0  0  0  0  0  0  0  0
   20.0604  -11.0263  -17.2131 O   0  0  0  0  0  0  0  0  0  0  0  0
   21.8500   -9.5807  -16.9685 N   0  0  0  0  0  0  0  0  0  0  0  0
   21.2289   -8.7762  -15.9710 C   0  0  1  0  0  0  0  0  0  0  0  0
   20.8427   -9.4705  -14.7150 C   0  0  0  0  0  0  0  0  0  0  0  0
   22.0410  -10.6629  -14.1312 S   0  0  0  0  0  0  0  0  0  0  0  0
   22.0158   -7.5221  -15.6402 C   0  0  0  0  0  0  0  0  0  0  0  0
   23.2559   -7.5325  -15.4402 O   0  0  0  0  0  0  0  0  0  0  0  0
   21.3725   -6.2693  -15.5429 N   0  0  0  0  0  0  0  0  0  0  0  0
   22.2143   -5.0813  -15.3023 C   0  0  1  0  0  0  0  0  0  0  0  0
   21.5927   -3.8695  -15.9115 C   0  0  0  0  0  0  0  0  0  0  0  0
   21.5119   -3.8970  -17.3708 C   0  0  0  0  0  0  0  0  0  0  0  0
   20.4129   -3.7733  -17.9509 O   0  0  0  0  0  0  0  0  0  0  0  0
   22.2262   -4.9700  -13.8028 C   0  0  0  0  0  0  0  0  0  0  0  0
   21.5391   -5.7232  -13.0756 O   0  0  0  0  0  0  0  0  0  0  0  0
   22.6204   -4.0584  -18.1984 O   0  0  0  0  0  0  0  0  0  0  0  0
   23.0097   -4.0146  -13.1415 O   0  0  0  0  0  0  0  0  0  0  0  0
  2  1  1  6
  3  2  1  0
  4  3  1  0
  5  4  2  0
  6  7  1  0
  6  5  1  0
  7  8  2  0
  8  4  1  0
  9 10  2  0
  9  2  1  0
 11  9  1  0
 12 11  1  0
 12 15  1  0
 12 13  1  1
 14 13  1  0
 15 17  1  0
 16 15  2  0
 17 18  1  0
 18 22  1  0
 18 19  1  6
 19 20  1  0
 20 21  2  0
 22 23  2  0
 22 25  1  0
 24 20  1  0
M  END
$$$$
