HCD.pdb
     RDKit          3D

 25 25  0  0  1  0  0  0  0  0999 V2000
   22.0714  -12.5456  -16.8391 N   0  0  0  0  0  0  0  0  0  0  0  0
   21.3304  -11.3357  -17.0300 C   0  0  1  0  0  0  0  0  0  0  0  0
   19.9103  -11.4405  -16.5560 C   0  0  0  0  0  0  0  0  0  0  0  0
   19.1934  -12.4274  -17.3934 C   0  0  0  0  0  0  0  0  0  0  0  0
   19.6905  -13.0580  -18.5048 C   0  0  0  0  0  0  0  0  0  0  0  0
   18.7309  -13.8945  -19.0016 N   0  0  0  0  0  0  0  0  0  0  0  0
   17.6576  -13.7804  -18.2068 C   0  0  0  0  0  0  0  0  0  0  0  0
   17.9475  -12.8826  -17.2271 N   0  0  0  0  0  0  0  0  0  0  0  0
   22.0140  -10.1994  -16.3112 C   0  0  0  0  0  0  0  0  0  0  0  0
   22.2711  -10.3134  -15.1016 O   0  0  0  0  0  0  0  0  0  0  0  0
   22.3438   -9.0373  -17.0299 N   0  0  0  0  0  0  0  0  0  0  0  0
   22.9770   -7.9192  -16.4161 C   0  0  1  0  0  0  0  0  0  0  0  0
   24.3203   -7.5575  -16.9390 C   0  0  0  0  0  0  0  0  0  0  0  0
   24.9931   -6.0440  -16.2643 S   0  0  0  0  0  0  0  0  0  0  0  0
   22.0966   -6.6844  -16.3719 C   0  0  0  0  0  0  0  0  0  0  0  0
   21.6280   -6.1483  -17.4067 O   0  0  0  0  0  0  0  0  0  0  0  0
   21.7626   -6.0781  -15.1416 N   0  0  0  0  0  0  0  0  0  0  0  0
   20.9420   -4.8521  -15.1801 C   0  0  1  0  0  0  0  0  0  0  0  0
   19.5130   -5.1718  -14.8943 C   0  0  0  0  0  0  0  0  0  0  0  0
   18.6343   -4.0063  -14.8149 C   0  0  0  0  0  0  0  0  0  0  0  0
   19.0532   -2.8700  -15.1202 O   0  0  0  0  0  0  0  0  0  0  0  0
   21.5261   -4.0162  -14.0751 C   0  0  0  0  0  0  0  0  0  0  0  0
   22.5010   -4.4056  -13.3923 O   0  0  0  0  0  0  0  0  0  0  0  0
   17.3048   -4.0732  -14.4052 O   0  0  0  0  0  0  0  0  0  0  0  0
   21.0071   -2.7550  -13.7528 O   0  0  0  0  0  0  0  0  0  0  0  0
  2  1  1  1
  3  2  1  0
  4  3  1  0
  5  4  2  0
  6  7  1  0
  6  5  1  0
  7  8  2  0
  8  4  1  0
  9 10  2  0
  9  2  1  0
 11  9  1  0
 12 11  1  0
 12 15  1  0
 12 13  1  6
 14 13  1  0
 15 17  1  0
 16 15  2  0
 17 18  1  0
 18 22  1  0
 18 19  1  1
 19 20  1  0
 20 21  2  0
 22 23  2  0
 22 25  1  0
 24 20  1  0
M  END
$$$$
