HCD.pdb
     RDKit          3D

 25 25  0  0  1  0  0  0  0  0999 V2000
   27.1432  -20.7609  -16.9589 N   0  0  0  0  0  0  0  0  0  0  0  0
   26.9225  -19.9984  -15.7676 C   0  0  1  0  0  0  0  0  0  0  0  0
   26.3455  -18.6405  -16.0426 C   0  0  0  0  0  0  0  0  0  0  0  0
   27.3403  -17.8344  -16.7841 C   0  0  0  0  0  0  0  0  0  0  0  0
   28.6720  -17.7142  -16.4807 C   0  0  0  0  0  0  0  0  0  0  0  0
   29.2582  -16.8858  -17.3958 N   0  0  0  0  0  0  0  0  0  0  0  0
   28.3004  -16.5012  -18.2510 C   0  0  0  0  0  0  0  0  0  0  0  0
   27.1319  -17.0844  -17.8710 N   0  0  0  0  0  0  0  0  0  0  0  0
   26.0023  -20.7534  -14.8412 C   0  0  0  0  0  0  0  0  0  0  0  0
   25.0802  -21.4323  -15.3219 O   0  0  0  0  0  0  0  0  0  0  0  0
   26.2118  -20.6697  -13.4537 N   0  0  0  0  0  0  0  0  0  0  0  0
   25.2633  -21.1604  -12.5118 C   0  0  1  0  0  0  0  0  0  0  0  0
   25.7212  -21.2394  -11.1001 C   0  0  0  0  0  0  0  0  0  0  0  0
   27.3867  -21.8584  -10.8969 S   0  0  0  0  0  0  0  0  0  0  0  0
   23.9297  -20.4399  -12.5767 C   0  0  0  0  0  0  0  0  0  0  0  0
   23.8338  -19.1876  -12.5554 O   0  0  0  0  0  0  0  0  0  0  0  0
   22.7207  -21.1630  -12.6659 N   0  0  0  0  0  0  0  0  0  0  0  0
   21.4801  -20.4007  -12.9062 C   0  0  1  0  0  0  0  0  0  0  0  0
   21.5336  -19.7223  -14.2340 C   0  0  0  0  0  0  0  0  0  0  0  0
   20.2769  -19.1021  -14.6500 C   0  0  0  0  0  0  0  0  0  0  0  0
   19.9061  -18.0179  -14.1534 O   0  0  0  0  0  0  0  0  0  0  0  0
   20.4190  -21.4661  -12.9013 C   0  0  0  0  0  0  0  0  0  0  0  0
   19.1989  -21.1882  -12.9471 O   0  0  0  0  0  0  0  0  0  0  0  0
   19.4250  -19.6567  -15.6019 O   0  0  0  0  0  0  0  0  0  0  0  0
   20.7436  -22.8283  -12.8450 O   0  0  0  0  0  0  0  0  0  0  0  0
  2  1  1  6
  3  2  1  0
  4  3  1  0
  5  4  2  0
  6  7  1  0
  6  5  1  0
  7  8  2  0
  8  4  1  0
  9 10  2  0
  9  2  1  0
 11  9  1  0
 12 11  1  0
 12 15  1  0
 12 13  1  1
 14 13  1  0
 15 17  1  0
 16 15  2  0
 17 18  1  0
 18 22  1  0
 18 19  1  6
 19 20  1  0
 20 21  2  0
 22 23  2  0
 22 25  1  0
 24 20  1  0
M  END
$$$$
