HCD.pdb
     RDKit          3D

 25 25  0  0  1  0  0  0  0  0999 V2000
   28.4176  -20.4196  -17.6954 N   0  0  0  0  0  0  0  0  0  0  0  0
   28.1393  -19.5507  -16.5923 C   0  0  1  0  0  0  0  0  0  0  0  0
   27.1575  -18.4686  -16.9352 C   0  0  0  0  0  0  0  0  0  0  0  0
   27.7900  -17.5257  -17.8839 C   0  0  0  0  0  0  0  0  0  0  0  0
   28.0682  -17.7712  -19.2039 C   0  0  0  0  0  0  0  0  0  0  0  0
   28.6504  -16.6594  -19.7445 N   0  0  0  0  0  0  0  0  0  0  0  0
   28.7294  -15.7419  -18.7706 C   0  0  0  0  0  0  0  0  0  0  0  0
   28.2022  -16.2781  -17.6373 N   0  0  0  0  0  0  0  0  0  0  0  0
   27.6110  -20.3540  -15.4301 C   0  0  0  0  0  0  0  0  0  0  0  0
   26.7962  -21.2666  -15.6434 O   0  0  0  0  0  0  0  0  0  0  0  0
   28.0550  -20.0491  -14.1317 N   0  0  0  0  0  0  0  0  0  0  0  0
   27.5724  -20.7384  -12.9829 C   0  0  1  0  0  0  0  0  0  0  0  0
   28.4404  -20.6921  -11.7774 C   0  0  0  0  0  0  0  0  0  0  0  0
   30.1878  -20.8634  -12.1178 S   0  0  0  0  0  0  0  0  0  0  0  0
   26.1544  -20.3520  -12.6066 C   0  0  0  0  0  0  0  0  0  0  0  0
   25.7401  -19.1670  -12.6506 O   0  0  0  0  0  0  0  0  0  0  0  0
   25.2267  -21.3286  -12.1844 N   0  0  0  0  0  0  0  0  0  0  0  0
   23.8549  -20.8834  -11.8713 C   0  0  1  0  0  0  0  0  0  0  0  0
   22.8545  -21.7922  -12.5032 C   0  0  0  0  0  0  0  0  0  0  0  0
   21.6744  -21.1168  -13.0399 C   0  0  0  0  0  0  0  0  0  0  0  0
   20.8517  -21.7361  -13.7465 O   0  0  0  0  0  0  0  0  0  0  0  0
   23.7944  -20.9937  -10.3730 C   0  0  0  0  0  0  0  0  0  0  0  0
   24.6358  -21.6537   -9.7213 O   0  0  0  0  0  0  0  0  0  0  0  0
   21.3878  -19.7733  -12.8108 O   0  0  0  0  0  0  0  0  0  0  0  0
   22.7900  -20.3611   -9.6280 O   0  0  0  0  0  0  0  0  0  0  0  0
  2  1  1  6
  3  2  1  0
  4  3  1  0
  5  4  2  0
  6  7  1  0
  6  5  1  0
  7  8  2  0
  8  4  1  0
  9 10  2  0
  9  2  1  0
 11  9  1  0
 12 11  1  0
 12 15  1  0
 12 13  1  1
 14 13  1  0
 15 17  1  0
 16 15  2  0
 17 18  1  0
 18 22  1  0
 18 19  1  6
 19 20  1  0
 20 21  2  0
 22 23  2  0
 22 25  1  0
 24 20  1  0
M  END
$$$$
