HCD.pdb
     RDKit          3D

 25 25  0  0  1  0  0  0  0  0999 V2000
   20.8607  -15.5426  -16.6367 N   0  0  0  0  0  0  0  0  0  0  0  0
   20.1682  -14.3010  -16.8038 C   0  0  1  0  0  0  0  0  0  0  0  0
   18.7210  -14.3832  -16.4149 C   0  0  0  0  0  0  0  0  0  0  0  0
   18.0327  -15.3355  -17.3140 C   0  0  0  0  0  0  0  0  0  0  0  0
   17.9127  -16.6876  -17.1209 C   0  0  0  0  0  0  0  0  0  0  0  0
   17.2113  -17.2203  -18.1657 N   0  0  0  0  0  0  0  0  0  0  0  0
   16.9036  -16.2098  -18.9908 C   0  0  0  0  0  0  0  0  0  0  0  0
   17.4086  -15.0619  -18.4642 N   0  0  0  0  0  0  0  0  0  0  0  0
   20.8436  -13.2258  -15.9896 C   0  0  0  0  0  0  0  0  0  0  0  0
   21.5618  -13.5518  -15.0304 O   0  0  0  0  0  0  0  0  0  0  0  0
   20.6428  -11.8788  -16.3375 N   0  0  0  0  0  0  0  0  0  0  0  0
   21.4134  -10.8249  -15.7688 C   0  0  1  0  0  0  0  0  0  0  0  0
   22.8896  -10.9875  -15.8252 C   0  0  0  0  0  0  0  0  0  0  0  0
   23.5590  -12.0942  -14.5900 S   0  0  0  0  0  0  0  0  0  0  0  0
   21.0300   -9.4543  -16.2943 C   0  0  0  0  0  0  0  0  0  0  0  0
   21.0884   -9.1544  -17.5127 O   0  0  0  0  0  0  0  0  0  0  0  0
   20.5833   -8.4425  -15.4172 N   0  0  0  0  0  0  0  0  0  0  0  0
   20.0955   -7.1832  -16.0122 C   0  0  1  0  0  0  0  0  0  0  0  0
   18.6556   -6.9737  -15.6821 C   0  0  0  0  0  0  0  0  0  0  0  0
   18.0999   -5.7103  -16.1637 C   0  0  0  0  0  0  0  0  0  0  0  0
   18.7936   -4.9279  -16.8466 O   0  0  0  0  0  0  0  0  0  0  0  0
   20.9464   -6.1387  -15.3446 C   0  0  0  0  0  0  0  0  0  0  0  0
   21.7712   -6.4280  -14.4478 O   0  0  0  0  0  0  0  0  0  0  0  0
   16.7954   -5.2968  -15.9050 O   0  0  0  0  0  0  0  0  0  0  0  0
   20.8590   -4.7842  -15.6937 O   0  0  0  0  0  0  0  0  0  0  0  0
  2  1  1  1
  3  2  1  0
  4  3  1  0
  5  4  2  0
  6  7  1  0
  6  5  1  0
  7  8  2  0
  8  4  1  0
  9 10  2  0
  9  2  1  0
 11  9  1  0
 12 11  1  0
 12 15  1  0
 12 13  1  6
 14 13  1  0
 15 17  1  0
 16 15  2  0
 17 18  1  0
 18 22  1  0
 18 19  1  1
 19 20  1  0
 20 21  2  0
 22 23  2  0
 22 25  1  0
 24 20  1  0
M  END
$$$$
