HCD.pdb
     RDKit          3D

 25 25  0  0  1  0  0  0  0  0999 V2000
   27.7352  -21.4970  -15.8094 N   0  0  0  0  0  0  0  0  0  0  0  0
   27.1167  -20.5999  -14.8810 C   0  0  1  0  0  0  0  0  0  0  0  0
   26.4609  -19.4279  -15.5509 C   0  0  0  0  0  0  0  0  0  0  0  0
   27.4893  -18.6470  -16.2731 C   0  0  0  0  0  0  0  0  0  0  0  0
   28.5155  -17.9387  -15.7029 C   0  0  0  0  0  0  0  0  0  0  0  0
   29.2510  -17.3544  -16.6953 N   0  0  0  0  0  0  0  0  0  0  0  0
   28.6853  -17.6983  -17.8607 C   0  0  0  0  0  0  0  0  0  0  0  0
   27.6100  -18.4876  -17.5950 N   0  0  0  0  0  0  0  0  0  0  0  0
   26.0928  -21.3419  -14.0587 C   0  0  0  0  0  0  0  0  0  0  0  0
   25.3263  -22.1411  -14.6207 O   0  0  0  0  0  0  0  0  0  0  0  0
   26.0317  -21.1099  -12.6736 N   0  0  0  0  0  0  0  0  0  0  0  0
   24.8835  -21.4396  -11.8986 C   0  0  1  0  0  0  0  0  0  0  0  0
   25.0245  -21.3013  -10.4256 C   0  0  0  0  0  0  0  0  0  0  0  0
   25.9828  -19.8839   -9.9047 S   0  0  0  0  0  0  0  0  0  0  0  0
   23.6265  -20.7267  -12.3606 C   0  0  0  0  0  0  0  0  0  0  0  0
   23.6506  -19.5982  -12.9118 O   0  0  0  0  0  0  0  0  0  0  0  0
   22.3555  -21.3157  -12.1862 N   0  0  0  0  0  0  0  0  0  0  0  0
   21.1878  -20.6095  -12.7480 C   0  0  1  0  0  0  0  0  0  0  0  0
   21.3058  -20.5046  -14.2316 C   0  0  0  0  0  0  0  0  0  0  0  0
   20.1260  -19.9552  -14.8972 C   0  0  0  0  0  0  0  0  0  0  0  0
   19.4824  -19.0170  -14.3820 O   0  0  0  0  0  0  0  0  0  0  0  0
   20.0370  -21.5016  -12.3727 C   0  0  0  0  0  0  0  0  0  0  0  0
   20.1967  -22.7147  -12.1064 O   0  0  0  0  0  0  0  0  0  0  0  0
   19.6455  -20.4224  -16.1180 O   0  0  0  0  0  0  0  0  0  0  0  0
   18.7234  -21.0184  -12.3019 O   0  0  0  0  0  0  0  0  0  0  0  0
  2  1  1  6
  3  2  1  0
  4  3  1  0
  5  4  2  0
  6  7  1  0
  6  5  1  0
  7  8  2  0
  8  4  1  0
  9 10  2  0
  9  2  1  0
 11  9  1  0
 12 11  1  0
 12 15  1  0
 12 13  1  1
 14 13  1  0
 15 17  1  0
 16 15  2  0
 17 18  1  0
 18 22  1  0
 18 19  1  6
 19 20  1  0
 20 21  2  0
 22 23  2  0
 22 25  1  0
 24 20  1  0
M  END
$$$$
