HCD.pdb
     RDKit          3D

 25 25  0  0  1  0  0  0  0  0999 V2000
   17.3857  -10.2176  -12.9467 N   0  0  0  0  0  0  0  0  0  0  0  0
   17.7560   -9.0690  -12.1766 C   0  0  1  0  0  0  0  0  0  0  0  0
   18.4801   -8.0329  -12.9857 C   0  0  0  0  0  0  0  0  0  0  0  0
   19.7350   -8.6178  -13.5073 C   0  0  0  0  0  0  0  0  0  0  0  0
   20.8867   -8.8289  -12.7939 C   0  0  0  0  0  0  0  0  0  0  0  0
   21.8210   -9.3848  -13.6218 N   0  0  0  0  0  0  0  0  0  0  0  0
   21.2521   -9.5142  -14.8285 C   0  0  0  0  0  0  0  0  0  0  0  0
   19.9783   -9.0437  -14.7509 N   0  0  0  0  0  0  0  0  0  0  0  0
   16.5269   -8.4506  -11.5586 C   0  0  0  0  0  0  0  0  0  0  0  0
   15.5208   -8.2658  -12.2629 O   0  0  0  0  0  0  0  0  0  0  0  0
   16.5508   -8.0980  -10.1981 N   0  0  0  0  0  0  0  0  0  0  0  0
   15.4011   -7.5972   -9.5234 C   0  0  1  0  0  0  0  0  0  0  0  0
   14.7014   -8.5508   -8.6236 C   0  0  0  0  0  0  0  0  0  0  0  0
   14.4888  -10.1903   -9.3057 S   0  0  0  0  0  0  0  0  0  0  0  0
   15.6605   -6.2964   -8.7868 C   0  0  0  0  0  0  0  0  0  0  0  0
   16.5588   -6.1771   -7.9169 O   0  0  0  0  0  0  0  0  0  0  0  0
   14.8875   -5.1464   -9.0561 N   0  0  0  0  0  0  0  0  0  0  0  0
   15.2115   -3.9116   -8.3156 C   0  0  1  0  0  0  0  0  0  0  0  0
   15.4857   -2.7920   -9.2627 C   0  0  0  0  0  0  0  0  0  0  0  0
   15.6300   -1.4825   -8.6294 C   0  0  0  0  0  0  0  0  0  0  0  0
   15.5575   -1.3631   -7.3883 O   0  0  0  0  0  0  0  0  0  0  0  0
   13.9558   -3.6441   -7.5329 C   0  0  0  0  0  0  0  0  0  0  0  0
   13.8557   -2.6719   -6.7501 O   0  0  0  0  0  0  0  0  0  0  0  0
   15.8523   -0.3057   -9.3404 O   0  0  0  0  0  0  0  0  0  0  0  0
   12.8304   -4.4723   -7.6409 O   0  0  0  0  0  0  0  0  0  0  0  0
  2  1  1  6
  3  2  1  0
  4  3  1  0
  5  4  2  0
  6  7  1  0
  6  5  1  0
  7  8  2  0
  8  4  1  0
  9 10  2  0
  9  2  1  0
 11  9  1  0
 12 11  1  0
 12 15  1  0
 12 13  1  1
 14 13  1  0
 15 17  1  0
 16 15  2  0
 17 18  1  0
 18 22  1  0
 18 19  1  6
 19 20  1  0
 20 21  2  0
 22 23  2  0
 22 25  1  0
 24 20  1  0
M  END
$$$$
