HCD.pdb
     RDKit          3D

 25 25  0  0  1  0  0  0  0  0999 V2000
   17.1581  -12.2909  -15.0950 N   0  0  0  0  0  0  0  0  0  0  0  0
   17.6627  -11.2782  -15.9720 C   0  0  1  0  0  0  0  0  0  0  0  0
   16.5975  -10.3329  -16.4456 C   0  0  0  0  0  0  0  0  0  0  0  0
   15.6297  -11.0761  -17.2822 C   0  0  0  0  0  0  0  0  0  0  0  0
   15.8159  -11.4630  -18.5844 C   0  0  0  0  0  0  0  0  0  0  0  0
   14.6991  -12.1254  -19.0102 N   0  0  0  0  0  0  0  0  0  0  0  0
   13.8371  -12.1462  -17.9840 C   0  0  0  0  0  0  0  0  0  0  0  0
   14.4122  -11.5034  -16.9323 N   0  0  0  0  0  0  0  0  0  0  0  0
   18.7505  -10.4971  -15.2778 C   0  0  0  0  0  0  0  0  0  0  0  0
   18.6299  -10.2293  -14.0712 O   0  0  0  0  0  0  0  0  0  0  0  0
   19.8760  -10.0911  -16.0156 N   0  0  0  0  0  0  0  0  0  0  0  0
   20.9781   -9.4212  -15.4118 C   0  0  1  0  0  0  0  0  0  0  0  0
   22.3147  -10.0361  -15.6223 C   0  0  0  0  0  0  0  0  0  0  0  0
   23.6649   -9.1508  -14.8531 S   0  0  0  0  0  0  0  0  0  0  0  0
   21.0367   -7.9434  -15.7501 C   0  0  0  0  0  0  0  0  0  0  0  0
   21.0091   -7.5165  -16.9311 O   0  0  0  0  0  0  0  0  0  0  0  0
   21.1256   -6.9712  -14.7306 N   0  0  0  0  0  0  0  0  0  0  0  0
   21.0874   -5.5510  -15.1300 C   0  0  1  0  0  0  0  0  0  0  0  0
   20.3047   -4.7522  -14.1424 C   0  0  0  0  0  0  0  0  0  0  0  0
   20.2320   -3.3227  -14.4390 C   0  0  0  0  0  0  0  0  0  0  0  0
   20.3702   -2.9064  -15.6084 O   0  0  0  0  0  0  0  0  0  0  0  0
   22.5363   -5.1499  -15.1022 C   0  0  0  0  0  0  0  0  0  0  0  0
   23.3412   -5.6264  -14.2695 O   0  0  0  0  0  0  0  0  0  0  0  0
   20.0100   -2.3475  -13.4698 O   0  0  0  0  0  0  0  0  0  0  0  0
   23.0604   -4.2197  -16.0099 O   0  0  0  0  0  0  0  0  0  0  0  0
  2  1  1  1
  3  2  1  0
  4  3  1  0
  5  4  2  0
  6  7  1  0
  6  5  1  0
  7  8  2  0
  8  4  1  0
  9 10  2  0
  9  2  1  0
 11  9  1  0
 12 11  1  0
 12 15  1  0
 12 13  1  6
 14 13  1  0
 15 17  1  0
 16 15  2  0
 17 18  1  0
 18 22  1  0
 18 19  1  1
 19 20  1  0
 20 21  2  0
 22 23  2  0
 22 25  1  0
 24 20  1  0
M  END
$$$$
