HCD.pdb
     RDKit          3D

 25 25  0  0  1  0  0  0  0  0999 V2000
   19.9383  -10.6458  -15.3003 N   0  0  0  0  0  0  0  0  0  0  0  0
   19.0793   -9.5679  -14.9137 C   0  0  1  0  0  0  0  0  0  0  0  0
   17.6334   -9.9661  -14.8561 C   0  0  0  0  0  0  0  0  0  0  0  0
   17.2108  -10.4447  -16.1908 C   0  0  0  0  0  0  0  0  0  0  0  0
   16.8760  -11.7331  -16.5194 C   0  0  0  0  0  0  0  0  0  0  0  0
   16.5416  -11.7762  -17.8436 N   0  0  0  0  0  0  0  0  0  0  0  0
   16.6687  -10.5312  -18.3237 C   0  0  0  0  0  0  0  0  0  0  0  0
   17.0779   -9.7237  -17.3087 N   0  0  0  0  0  0  0  0  0  0  0  0
   19.5039   -9.0336  -13.5686 C   0  0  0  0  0  0  0  0  0  0  0  0
   20.4067   -9.6128  -12.9428 O   0  0  0  0  0  0  0  0  0  0  0  0
   18.8657   -7.8909  -13.0557 N   0  0  0  0  0  0  0  0  0  0  0  0
   19.4966   -7.0264  -12.1163 C   0  0  1  0  0  0  0  0  0  0  0  0
   20.8469   -6.5286  -12.4870 C   0  0  0  0  0  0  0  0  0  0  0  0
   21.5164   -5.3048  -11.3677 S   0  0  0  0  0  0  0  0  0  0  0  0
   18.6206   -5.8616  -11.6951 C   0  0  0  0  0  0  0  0  0  0  0  0
   18.3024   -4.9337  -12.4798 O   0  0  0  0  0  0  0  0  0  0  0  0
   18.1183   -5.7735  -10.3788 N   0  0  0  0  0  0  0  0  0  0  0  0
   16.9800   -4.8659  -10.1368 C   0  0  1  0  0  0  0  0  0  0  0  0
   16.1021   -5.4062   -9.0583 C   0  0  0  0  0  0  0  0  0  0  0  0
   14.9613   -4.5566   -8.7213 C   0  0  0  0  0  0  0  0  0  0  0  0
   14.6493   -3.5904   -9.4485 O   0  0  0  0  0  0  0  0  0  0  0  0
   17.6468   -3.5956   -9.6865 C   0  0  0  0  0  0  0  0  0  0  0  0
   18.8799   -3.5307   -9.4781 O   0  0  0  0  0  0  0  0  0  0  0  0
   14.1613   -4.7546   -7.5987 O   0  0  0  0  0  0  0  0  0  0  0  0
   16.9191   -2.4164   -9.4768 O   0  0  0  0  0  0  0  0  0  0  0  0
  2  1  1  1
  3  2  1  0
  4  3  1  0
  5  4  2  0
  6  7  1  0
  6  5  1  0
  7  8  2  0
  8  4  1  0
  9 10  2  0
  9  2  1  0
 11  9  1  0
 12 11  1  0
 12 15  1  0
 12 13  1  6
 14 13  1  0
 15 17  1  0
 16 15  2  0
 17 18  1  0
 18 22  1  0
 18 19  1  1
 19 20  1  0
 20 21  2  0
 22 23  2  0
 22 25  1  0
 24 20  1  0
M  END
$$$$
