HCD.pdb
     RDKit          3D

 25 25  0  0  1  0  0  0  0  0999 V2000
   21.8125  -15.6086  -20.2403 N   0  0  0  0  0  0  0  0  0  0  0  0
   21.4201  -14.9332  -19.0406 C   0  0  1  0  0  0  0  0  0  0  0  0
   21.5535  -15.7922  -17.8172 C   0  0  0  0  0  0  0  0  0  0  0  0
   20.6413  -16.9507  -17.9389 C   0  0  0  0  0  0  0  0  0  0  0  0
   19.7798  -17.1963  -18.9770 C   0  0  0  0  0  0  0  0  0  0  0  0
   19.1098  -18.3605  -18.7261 N   0  0  0  0  0  0  0  0  0  0  0  0
   19.5527  -18.8253  -17.5496 C   0  0  0  0  0  0  0  0  0  0  0  0
   20.4877  -17.9591  -17.0748 N   0  0  0  0  0  0  0  0  0  0  0  0
   22.2454  -13.6829  -18.8651 C   0  0  0  0  0  0  0  0  0  0  0  0
   23.4519  -13.7058  -19.1587 O   0  0  0  0  0  0  0  0  0  0  0  0
   21.6272  -12.5206  -18.3726 N   0  0  0  0  0  0  0  0  0  0  0  0
   22.3159  -11.2781  -18.2737 C   0  0  1  0  0  0  0  0  0  0  0  0
   22.9549  -10.7813  -19.5202 C   0  0  0  0  0  0  0  0  0  0  0  0
   23.7018   -9.1630  -19.3735 S   0  0  0  0  0  0  0  0  0  0  0  0
   21.4746  -10.1766  -17.6569 C   0  0  0  0  0  0  0  0  0  0  0  0
   20.3748   -9.8112  -18.1414 O   0  0  0  0  0  0  0  0  0  0  0  0
   21.9031   -9.5063  -16.4908 N   0  0  0  0  0  0  0  0  0  0  0  0
   20.9426   -8.6067  -15.8229 C   0  0  1  0  0  0  0  0  0  0  0  0
   20.5960   -9.1269  -14.4681 C   0  0  0  0  0  0  0  0  0  0  0  0
   19.6808   -8.2778  -13.7076 C   0  0  0  0  0  0  0  0  0  0  0  0
   19.1418   -7.2848  -14.2396 O   0  0  0  0  0  0  0  0  0  0  0  0
   21.7050   -7.3155  -15.7124 C   0  0  0  0  0  0  0  0  0  0  0  0
   22.8955   -7.2132  -16.0872 O   0  0  0  0  0  0  0  0  0  0  0  0
   19.3513   -8.5055  -12.3738 O   0  0  0  0  0  0  0  0  0  0  0  0
   21.1196   -6.1576  -15.1826 O   0  0  0  0  0  0  0  0  0  0  0  0
  2  1  1  6
  3  2  1  0
  4  3  1  0
  5  4  2  0
  6  7  1  0
  6  5  1  0
  7  8  2  0
  8  4  1  0
  9 10  2  0
  9  2  1  0
 11  9  1  0
 12 11  1  0
 12 15  1  0
 12 13  1  6
 14 13  1  0
 15 17  1  0
 16 15  2  0
 17 18  1  0
 18 22  1  0
 18 19  1  1
 19 20  1  0
 20 21  2  0
 22 23  2  0
 22 25  1  0
 24 20  1  0
M  END
$$$$
