HCD.pdb
     RDKit          3D

 25 25  0  0  1  0  0  0  0  0999 V2000
   22.4443  -12.3204  -18.3407 N   0  0  0  0  0  0  0  0  0  0  0  0
   21.6412  -11.1515  -18.5353 C   0  0  1  0  0  0  0  0  0  0  0  0
   20.2624  -11.4677  -19.0367 C   0  0  0  0  0  0  0  0  0  0  0  0
   20.3666  -12.0968  -20.3718 C   0  0  0  0  0  0  0  0  0  0  0  0
   20.0843  -13.4040  -20.6742 C   0  0  0  0  0  0  0  0  0  0  0  0
   20.3010  -13.6031  -22.0086 N   0  0  0  0  0  0  0  0  0  0  0  0
   20.7111  -12.4343  -22.5208 C   0  0  0  0  0  0  0  0  0  0  0  0
   20.7488  -11.5192  -21.5153 N   0  0  0  0  0  0  0  0  0  0  0  0
   21.5377  -10.3818  -17.2422 C   0  0  0  0  0  0  0  0  0  0  0  0
   21.0252  -10.9266  -16.2509 O   0  0  0  0  0  0  0  0  0  0  0  0
   22.0251   -9.0643  -17.1913 N   0  0  0  0  0  0  0  0  0  0  0  0
   22.0228   -8.3000  -15.9899 C   0  0  1  0  0  0  0  0  0  0  0  0
   23.0658   -8.6471  -14.9896 C   0  0  0  0  0  0  0  0  0  0  0  0
   24.7303   -8.6907  -15.6423 S   0  0  0  0  0  0  0  0  0  0  0  0
   22.0281   -6.8027  -16.2347 C   0  0  0  0  0  0  0  0  0  0  0  0
   22.7232   -6.2647  -17.1321 O   0  0  0  0  0  0  0  0  0  0  0  0
   21.2357   -5.9386  -15.4484 N   0  0  0  0  0  0  0  0  0  0  0  0
   21.3340   -4.4892  -15.7084 C   0  0  1  0  0  0  0  0  0  0  0  0
   20.0186   -3.9500  -16.1608 C   0  0  0  0  0  0  0  0  0  0  0  0
   19.9687   -2.4942  -16.2829 C   0  0  0  0  0  0  0  0  0  0  0  0
   20.8757   -1.8727  -16.8751 O   0  0  0  0  0  0  0  0  0  0  0  0
   21.6999   -3.9258  -14.3631 C   0  0  0  0  0  0  0  0  0  0  0  0
   21.6439   -4.6131  -13.3179 O   0  0  0  0  0  0  0  0  0  0  0  0
   18.9378   -1.7148  -15.7637 O   0  0  0  0  0  0  0  0  0  0  0  0
   22.1236   -2.5986  -14.2112 O   0  0  0  0  0  0  0  0  0  0  0  0
  2  1  1  1
  3  2  1  0
  4  3  1  0
  5  4  2  0
  6  7  1  0
  6  5  1  0
  7  8  2  0
  8  4  1  0
  9 10  2  0
  9  2  1  0
 11  9  1  0
 12 11  1  0
 12 15  1  0
 12 13  1  1
 14 13  1  0
 15 17  1  0
 16 15  2  0
 17 18  1  0
 18 22  1  0
 18 19  1  1
 19 20  1  0
 20 21  2  0
 22 23  2  0
 22 25  1  0
 24 20  1  0
M  END
$$$$
