HCD.pdb
     RDKit          3D

 25 25  0  0  1  0  0  0  0  0999 V2000
   27.7098  -21.6031  -15.5754 N   0  0  0  0  0  0  0  0  0  0  0  0
   26.8851  -20.5462  -15.0735 C   0  0  1  0  0  0  0  0  0  0  0  0
   26.2787  -19.7115  -16.1634 C   0  0  0  0  0  0  0  0  0  0  0  0
   27.3346  -18.8746  -16.7747 C   0  0  0  0  0  0  0  0  0  0  0  0
   27.9161  -17.7676  -16.2123 C   0  0  0  0  0  0  0  0  0  0  0  0
   28.8454  -17.2696  -17.0816 N   0  0  0  0  0  0  0  0  0  0  0  0
   28.8362  -18.0594  -18.1645 C   0  0  0  0  0  0  0  0  0  0  0  0
   27.9111  -19.0372  -17.9699 N   0  0  0  0  0  0  0  0  0  0  0  0
   25.7861  -21.1201  -14.2143 C   0  0  0  0  0  0  0  0  0  0  0  0
   25.2776  -22.2092  -14.5265 O   0  0  0  0  0  0  0  0  0  0  0  0
   25.3640  -20.4063  -13.0793 N   0  0  0  0  0  0  0  0  0  0  0  0
   24.3596  -20.9029  -12.2004 C   0  0  1  0  0  0  0  0  0  0  0  0
   24.5451  -20.6037  -10.7565 C   0  0  0  0  0  0  0  0  0  0  0  0
   23.1509  -21.0423   -9.7258 S   0  0  0  0  0  0  0  0  0  0  0  0
   22.9537  -20.5218  -12.6245 C   0  0  0  0  0  0  0  0  0  0  0  0
   22.5831  -19.3281  -12.7495 O   0  0  0  0  0  0  0  0  0  0  0  0
   21.9880  -21.5136  -12.9013 N   0  0  0  0  0  0  0  0  0  0  0  0
   20.6655  -21.0697  -13.3830 C   0  0  1  0  0  0  0  0  0  0  0  0
   20.1043  -22.0571  -14.3504 C   0  0  0  0  0  0  0  0  0  0  0  0
   18.7559  -21.7464  -14.8216 C   0  0  0  0  0  0  0  0  0  0  0  0
   18.1891  -20.6876  -14.4791 O   0  0  0  0  0  0  0  0  0  0  0  0
   19.8395  -21.0347  -12.1270 C   0  0  0  0  0  0  0  0  0  0  0  0
   19.0310  -20.1083  -11.8896 O   0  0  0  0  0  0  0  0  0  0  0  0
   18.0244  -22.5822  -15.6619 O   0  0  0  0  0  0  0  0  0  0  0  0
   19.9333  -22.0406  -11.1557 O   0  0  0  0  0  0  0  0  0  0  0  0
  2  1  1  6
  3  2  1  0
  4  3  1  0
  5  4  2  0
  6  7  1  0
  6  5  1  0
  7  8  2  0
  8  4  1  0
  9 10  2  0
  9  2  1  0
 11  9  1  0
 12 11  1  0
 12 15  1  0
 12 13  1  1
 14 13  1  0
 15 17  1  0
 16 15  2  0
 17 18  1  0
 18 22  1  0
 18 19  1  6
 19 20  1  0
 20 21  2  0
 22 23  2  0
 22 25  1  0
 24 20  1  0
M  END
$$$$
