TVP.pdb
     RDKit          3D

 22 22  0  0  1  0  0  0  0  0999 V2000
    7.8043  -20.5335   25.5199 C   0  0  0  0  0  0  0  0  0  0  0  0
    7.7005  -19.2205   24.7739 C   0  0  1  0  0  0  0  0  0  0  0  0
    8.0040  -19.3823   23.4228 O   0  0  0  0  0  0  0  0  0  0  0  0
    6.2710  -18.7463   24.9273 C   0  0  2  0  0  0  0  0  0  0  0  0
    5.3327  -19.6378   24.3287 N   0  0  0  0  0  0  0  0  0  0  0  0
    6.1229  -17.3779   24.2618 C   0  0  0  0  0  0  0  0  0  0  0  0
    5.4604  -17.3506   23.1879 O   0  0  0  0  0  0  0  0  0  0  0  0
    6.2288  -13.9919   26.5326 C   0  0  0  0  0  0  0  0  0  0  0  0
    7.4190  -14.1039   25.6273 C   0  0  2  0  0  0  0  0  0  0  0  0
    7.9545  -12.7478   25.3024 C   0  0  0  0  0  0  0  0  0  0  0  0
    7.0413  -14.9467   24.4018 C   0  0  2  0  0  0  0  0  0  0  0  0
    6.7055  -16.2969   24.8610 N   0  0  0  0  0  0  0  0  0  0  0  0
    8.2612  -15.1388   23.5561 C   0  0  0  0  0  0  0  0  0  0  0  0
    9.1041  -15.9897   23.9160 O   0  0  0  0  0  0  0  0  0  0  0  0
    8.4500  -14.3976   22.4031 N   0  0  0  0  0  0  0  0  0  0  0  0
    7.9239  -13.0402   22.1509 C   0  0  0  0  0  0  0  0  0  0  0  0
    7.9992  -12.8392   20.6765 C   0  0  0  0  0  0  0  0  0  0  0  0
    8.4089  -14.1922   20.1112 C   0  0  0  0  0  0  0  0  0  0  0  0
    9.2485  -14.7368   21.2478 C   0  0  1  0  0  0  0  0  0  0  0  0
   10.4731  -13.8692   21.3438 C   0  0  0  0  0  0  0  0  0  0  0  0
   10.6591  -12.9418   22.3324 O   0  0  0  0  0  0  0  0  0  0  0  0
   11.3738  -14.0044   20.4681 O   0  0  0  0  0  0  0  0  0  0  0  0
  2  1  1  1
  2  4  1  0
  3  2  1  0
  4  6  1  0
  4  5  1  6
  6  7  2  0
  9  8  1  1
  9 11  1  0
 10  9  1  0
 11 13  1  0
 12  6  1  0
 11 12  1  1
 13 14  2  0
 13 15  1  0
 15 16  1  0
 15 19  1  0
 16 17  1  0
 17 18  1  0
 19 18  1  0
 19 20  1  1
 20 21  1  0
 22 20  2  0
M  END
$$$$
