TVP.pdb
     RDKit          3D

 22 22  0  0  1  0  0  0  0  0999 V2000
    6.9803  -17.3152   21.7758 C   0  0  0  0  0  0  0  0  0  0  0  0
    8.2025  -16.4319   21.6433 C   0  0  1  0  0  0  0  0  0  0  0  0
    8.8804  -16.6839   20.4514 O   0  0  0  0  0  0  0  0  0  0  0  0
    7.7078  -15.0013   21.6616 C   0  0  2  0  0  0  0  0  0  0  0  0
    8.0249  -14.2984   20.4620 N   0  0  0  0  0  0  0  0  0  0  0  0
    8.3536  -14.2627   22.8341 C   0  0  0  0  0  0  0  0  0  0  0  0
    9.5422  -13.8753   22.6605 O   0  0  0  0  0  0  0  0  0  0  0  0
    6.0485  -12.1203   25.4611 C   0  0  0  0  0  0  0  0  0  0  0  0
    6.6548  -13.3450   26.0784 C   0  0  2  0  0  0  0  0  0  0  0  0
    6.8105  -13.1614   27.5525 C   0  0  0  0  0  0  0  0  0  0  0  0
    7.9563  -13.6881   25.3412 C   0  0  2  0  0  0  0  0  0  0  0  0
    7.6169  -14.0746   23.9694 N   0  0  0  0  0  0  0  0  0  0  0  0
    8.5348  -14.9315   25.9409 C   0  0  0  0  0  0  0  0  0  0  0  0
    8.2052  -16.0344   25.4520 O   0  0  0  0  0  0  0  0  0  0  0  0
    9.4153  -14.8631   27.0061 N   0  0  0  0  0  0  0  0  0  0  0  0
    9.4257  -13.8225   28.0550 C   0  0  0  0  0  0  0  0  0  0  0  0
   10.7647  -13.9073   28.7027 C   0  0  0  0  0  0  0  0  0  0  0  0
   11.5530  -14.8987   27.8578 C   0  0  0  0  0  0  0  0  0  0  0  0
   10.4442  -15.8088   27.3724 C   0  0  1  0  0  0  0  0  0  0  0  0
    9.9085  -16.5299   28.5785 C   0  0  0  0  0  0  0  0  0  0  0  0
    8.6953  -16.2462   29.1439 O   0  0  0  0  0  0  0  0  0  0  0  0
   10.6143  -17.4423   29.0940 O   0  0  0  0  0  0  0  0  0  0  0  0
  2  1  1  6
  2  4  1  0
  3  2  1  0
  4  6  1  0
  4  5  1  6
  6  7  2  0
  9  8  1  6
  9 11  1  0
 10  9  1  0
 11 13  1  0
 12  6  1  0
 11 12  1  6
 13 14  2  0
 13 15  1  0
 15 16  1  0
 15 19  1  0
 16 17  1  0
 17 18  1  0
 19 18  1  0
 19 20  1  1
 20 21  1  0
 22 20  2  0
M  END
$$$$
