TVP.pdb
     RDKit          3D

 22 22  0  0  1  0  0  0  0  0999 V2000
    7.4566  -17.6142   20.6892 C   0  0  0  0  0  0  0  0  0  0  0  0
    8.1291  -16.9341   21.8624 C   0  0  1  0  0  0  0  0  0  0  0  0
    9.4920  -17.2249   21.9010 O   0  0  0  0  0  0  0  0  0  0  0  0
    7.9253  -15.4456   21.6760 C   0  0  2  0  0  0  0  0  0  0  0  0
    8.4424  -14.9751   20.4331 N   0  0  0  0  0  0  0  0  0  0  0  0
    8.6360  -14.6975   22.8041 C   0  0  0  0  0  0  0  0  0  0  0  0
    9.8338  -14.3664   22.5837 O   0  0  0  0  0  0  0  0  0  0  0  0
    6.0863  -14.6296   26.0616 C   0  0  0  0  0  0  0  0  0  0  0  0
    7.0550  -13.4864   26.0040 C   0  0  2  0  0  0  0  0  0  0  0  0
    6.4017  -12.2808   25.4118 C   0  0  0  0  0  0  0  0  0  0  0  0
    8.3267  -13.9409   25.2751 C   0  0  2  0  0  0  0  0  0  0  0  0
    7.9420  -14.4416   23.9530 N   0  0  0  0  0  0  0  0  0  0  0  0
    8.8793  -15.1421   25.9765 C   0  0  0  0  0  0  0  0  0  0  0  0
    8.7563  -16.2586   25.4267 O   0  0  0  0  0  0  0  0  0  0  0  0
    9.5145  -15.0205   27.1998 N   0  0  0  0  0  0  0  0  0  0  0  0
    9.1892  -14.0328   28.2495 C   0  0  0  0  0  0  0  0  0  0  0  0
   10.3721  -13.9926   29.1545 C   0  0  0  0  0  0  0  0  0  0  0  0
   11.4272  -14.8492   28.4681 C   0  0  0  0  0  0  0  0  0  0  0  0
   10.5560  -15.8577   27.7490 C   0  0  1  0  0  0  0  0  0  0  0  0
    9.8812  -16.6877   28.8060 C   0  0  0  0  0  0  0  0  0  0  0  0
    8.5485  -16.5889   29.0994 O   0  0  0  0  0  0  0  0  0  0  0  0
   10.5804  -17.5168   29.4542 O   0  0  0  0  0  0  0  0  0  0  0  0
  2  1  1  6
  2  4  1  0
  3  2  1  0
  4  6  1  0
  4  5  1  6
  6  7  2  0
  9  8  1  6
  9 11  1  0
 10  9  1  0
 11 13  1  0
 12  6  1  0
 11 12  1  6
 13 14  2  0
 13 15  1  0
 15 16  1  0
 15 19  1  0
 16 17  1  0
 17 18  1  0
 19 18  1  0
 19 20  1  1
 20 21  1  0
 22 20  2  0
M  END
$$$$
