TVP.pdb
     RDKit          3D

 22 22  0  0  1  0  0  0  0  0999 V2000
    7.9065  -17.2039   22.2977 C   0  0  0  0  0  0  0  0  0  0  0  0
    8.3671  -16.1795   21.2830 C   0  0  1  0  0  0  0  0  0  0  0  0
    8.0859  -16.5954   19.9824 O   0  0  0  0  0  0  0  0  0  0  0  0
    7.6177  -14.8999   21.5876 C   0  0  2  0  0  0  0  0  0  0  0  0
    7.5439  -14.0288   20.4610 N   0  0  0  0  0  0  0  0  0  0  0  0
    8.3301  -14.1592   22.7195 C   0  0  0  0  0  0  0  0  0  0  0  0
    9.4348  -13.6242   22.4253 O   0  0  0  0  0  0  0  0  0  0  0  0
    5.9201  -14.3088   26.0554 C   0  0  0  0  0  0  0  0  0  0  0  0
    6.9496  -13.2184   26.0624 C   0  0  2  0  0  0  0  0  0  0  0  0
    6.3539  -11.9378   25.5763 C   0  0  0  0  0  0  0  0  0  0  0  0
    8.1811  -13.6843   25.2741 C   0  0  2  0  0  0  0  0  0  0  0  0
    7.7364  -14.1257   23.9498 N   0  0  0  0  0  0  0  0  0  0  0  0
    8.7197  -14.9258   25.9137 C   0  0  0  0  0  0  0  0  0  0  0  0
    8.5179  -16.0212   25.3450 O   0  0  0  0  0  0  0  0  0  0  0  0
    9.4268  -14.8633   27.1014 N   0  0  0  0  0  0  0  0  0  0  0  0
    9.1609  -13.9346   28.2193 C   0  0  0  0  0  0  0  0  0  0  0  0
   10.3960  -13.9324   29.0525 C   0  0  0  0  0  0  0  0  0  0  0  0
   11.4118  -14.7435   28.2599 C   0  0  0  0  0  0  0  0  0  0  0  0
   10.5035  -15.7199   27.5422 C   0  0  1  0  0  0  0  0  0  0  0  0
    9.8977  -16.6094   28.5925 C   0  0  0  0  0  0  0  0  0  0  0  0
   10.5895  -17.6119   29.2158 O   0  0  0  0  0  0  0  0  0  0  0  0
    8.6906  -16.4206   28.9145 O   0  0  0  0  0  0  0  0  0  0  0  0
  2  1  1  1
  2  4  1  0
  3  2  1  0
  4  6  1  0
  4  5  1  6
  6  7  2  0
  9  8  1  6
  9 11  1  0
 10  9  1  0
 11 13  1  0
 12  6  1  0
 11 12  1  6
 13 14  2  0
 13 15  1  0
 15 16  1  0
 15 19  1  0
 16 17  1  0
 17 18  1  0
 19 18  1  0
 19 20  1  1
 20 21  1  0
 22 20  2  0
M  END
$$$$
