TVP.pdb
     RDKit          3D

 22 22  0  0  1  0  0  0  0  0999 V2000
    6.9819  -16.8399   20.4508 C   0  0  0  0  0  0  0  0  0  0  0  0
    7.7205  -16.3051   21.6590 C   0  0  1  0  0  0  0  0  0  0  0  0
    9.0718  -16.6453   21.6158 O   0  0  0  0  0  0  0  0  0  0  0  0
    7.5675  -14.7993   21.6296 C   0  0  2  0  0  0  0  0  0  0  0  0
    8.0541  -14.2245   20.4187 N   0  0  0  0  0  0  0  0  0  0  0  0
    8.3496  -14.1933   22.7952 C   0  0  0  0  0  0  0  0  0  0  0  0
    9.5518  -13.8897   22.5601 O   0  0  0  0  0  0  0  0  0  0  0  0
    5.9186  -14.3423   26.0950 C   0  0  0  0  0  0  0  0  0  0  0  0
    6.9145  -13.2222   26.1423 C   0  0  2  0  0  0  0  0  0  0  0  0
    6.2760  -11.9404   25.7175 C   0  0  0  0  0  0  0  0  0  0  0  0
    8.1526  -13.6151   25.3251 C   0  0  2  0  0  0  0  0  0  0  0  0
    7.7087  -14.0238   23.9900 N   0  0  0  0  0  0  0  0  0  0  0  0
    8.7417  -14.8590   25.9134 C   0  0  0  0  0  0  0  0  0  0  0  0
    8.5942  -15.9353   25.2938 O   0  0  0  0  0  0  0  0  0  0  0  0
    9.4360  -14.8191   27.1096 N   0  0  0  0  0  0  0  0  0  0  0  0
    9.1527  -13.9170   28.2450 C   0  0  0  0  0  0  0  0  0  0  0  0
   10.3789  -13.9264   29.0913 C   0  0  0  0  0  0  0  0  0  0  0  0
   11.4078  -14.7138   28.2916 C   0  0  0  0  0  0  0  0  0  0  0  0
   10.5130  -15.6791   27.5427 C   0  0  1  0  0  0  0  0  0  0  0  0
    9.9015  -16.5953   28.5664 C   0  0  0  0  0  0  0  0  0  0  0  0
    8.5774  -16.5590   28.9091 O   0  0  0  0  0  0  0  0  0  0  0  0
   10.6481  -17.4397   29.1374 O   0  0  0  0  0  0  0  0  0  0  0  0
  2  1  1  6
  2  4  1  0
  3  2  1  0
  4  6  1  0
  4  5  1  6
  6  7  2  0
  9  8  1  6
  9 11  1  0
 10  9  1  0
 11 13  1  0
 12  6  1  0
 11 12  1  6
 13 14  2  0
 13 15  1  0
 15 16  1  0
 15 19  1  0
 16 17  1  0
 17 18  1  0
 19 18  1  0
 19 20  1  1
 20 21  1  0
 22 20  2  0
M  END
$$$$
