TVP.pdb
     RDKit          3D

 22 22  0  0  1  0  0  0  0  0999 V2000
    7.0177  -17.1824   22.2316 C   0  0  0  0  0  0  0  0  0  0  0  0
    8.1630  -16.3955   21.6313 C   0  0  1  0  0  0  0  0  0  0  0  0
    8.4110  -16.7884   20.3169 O   0  0  0  0  0  0  0  0  0  0  0  0
    7.7527  -14.9386   21.6643 C   0  0  2  0  0  0  0  0  0  0  0  0
    8.1686  -14.2276   20.5003 N   0  0  0  0  0  0  0  0  0  0  0  0
    8.3827  -14.2682   22.8854 C   0  0  0  0  0  0  0  0  0  0  0  0
    9.5715  -13.8672   22.7482 O   0  0  0  0  0  0  0  0  0  0  0  0
    6.1214  -12.0636   25.4606 C   0  0  0  0  0  0  0  0  0  0  0  0
    6.6238  -13.3351   26.0768 C   0  0  2  0  0  0  0  0  0  0  0  0
    6.7175  -13.1921   27.5606 C   0  0  0  0  0  0  0  0  0  0  0  0
    7.9375  -13.7397   25.3946 C   0  0  2  0  0  0  0  0  0  0  0  0
    7.6327  -14.1495   24.0215 N   0  0  0  0  0  0  0  0  0  0  0  0
    8.4524  -14.9859   26.0444 C   0  0  0  0  0  0  0  0  0  0  0  0
    8.0240  -16.0877   25.6366 O   0  0  0  0  0  0  0  0  0  0  0  0
    9.3822  -14.9215   27.0672 N   0  0  0  0  0  0  0  0  0  0  0  0
    9.4382  -13.8885   28.1221 C   0  0  0  0  0  0  0  0  0  0  0  0
   10.8068  -13.9724   28.7051 C   0  0  0  0  0  0  0  0  0  0  0  0
   11.5580  -14.9543   27.8164 C   0  0  0  0  0  0  0  0  0  0  0  0
   10.4309  -15.8655   27.3773 C   0  0  1  0  0  0  0  0  0  0  0  0
    9.9558  -16.5976   28.6020 C   0  0  0  0  0  0  0  0  0  0  0  0
    8.7723  -16.3193   29.2297 O   0  0  0  0  0  0  0  0  0  0  0  0
   10.6861  -17.5145   29.0734 O   0  0  0  0  0  0  0  0  0  0  0  0
  2  1  1  6
  2  4  1  0
  3  2  1  0
  4  6  1  0
  4  5  1  6
  6  7  2  0
  9  8  1  6
  9 11  1  0
 10  9  1  0
 11 13  1  0
 12  6  1  0
 11 12  1  6
 13 14  2  0
 13 15  1  0
 15 16  1  0
 15 19  1  0
 16 17  1  0
 17 18  1  0
 19 18  1  0
 19 20  1  1
 20 21  1  0
 22 20  2  0
M  END
$$$$
