TVP.pdb
     RDKit          3D

 22 22  0  0  1  0  0  0  0  0999 V2000
    7.8238  -17.3368   22.2731 C   0  0  0  0  0  0  0  0  0  0  0  0
    8.4711  -16.3752   21.2997 C   0  0  1  0  0  0  0  0  0  0  0  0
    8.3097  -16.8047   19.9832 O   0  0  0  0  0  0  0  0  0  0  0  0
    7.7882  -15.0378   21.4922 C   0  0  2  0  0  0  0  0  0  0  0  0
    7.9217  -14.1878   20.3550 N   0  0  0  0  0  0  0  0  0  0  0  0
    8.4075  -14.3276   22.6960 C   0  0  0  0  0  0  0  0  0  0  0  0
    9.5295  -13.7827   22.5036 O   0  0  0  0  0  0  0  0  0  0  0  0
    6.1221  -12.3022   25.2460 C   0  0  0  0  0  0  0  0  0  0  0  0
    6.7214  -13.4950   25.9293 C   0  0  2  0  0  0  0  0  0  0  0  0
    6.8519  -13.2429   27.3958 C   0  0  0  0  0  0  0  0  0  0  0  0
    8.0361  -13.8671   25.2305 C   0  0  2  0  0  0  0  0  0  0  0  0
    7.7198  -14.3294   23.8768 N   0  0  0  0  0  0  0  0  0  0  0  0
    8.6143  -15.0719   25.9047 C   0  0  0  0  0  0  0  0  0  0  0  0
    8.3554  -16.1990   25.4289 O   0  0  0  0  0  0  0  0  0  0  0  0
    9.4187  -14.9423   27.0231 N   0  0  0  0  0  0  0  0  0  0  0  0
    9.2970  -13.8972   28.0604 C   0  0  0  0  0  0  0  0  0  0  0  0
   10.5944  -13.8943   28.7930 C   0  0  0  0  0  0  0  0  0  0  0  0
   11.4954  -14.8392   28.0096 C   0  0  0  0  0  0  0  0  0  0  0  0
   10.4787  -15.8197   27.4634 C   0  0  1  0  0  0  0  0  0  0  0  0
    9.9126  -16.5660   28.6398 C   0  0  0  0  0  0  0  0  0  0  0  0
   10.5848  -17.5669   29.2866 O   0  0  0  0  0  0  0  0  0  0  0  0
    8.7595  -16.2524   29.0502 O   0  0  0  0  0  0  0  0  0  0  0  0
  2  1  1  1
  2  4  1  0
  3  2  1  0
  4  6  1  0
  4  5  1  6
  6  7  2  0
  9  8  1  6
  9 11  1  0
 10  9  1  0
 11 13  1  0
 12  6  1  0
 11 12  1  6
 13 14  2  0
 13 15  1  0
 15 16  1  0
 15 19  1  0
 16 17  1  0
 17 18  1  0
 19 18  1  0
 19 20  1  1
 20 21  1  0
 22 20  2  0
M  END
$$$$
