TVP.pdb
     RDKit          3D

 22 22  0  0  1  0  0  0  0  0999 V2000
    6.9362  -17.1166   22.1596 C   0  0  0  0  0  0  0  0  0  0  0  0
    8.1242  -16.3422   21.6303 C   0  0  1  0  0  0  0  0  0  0  0  0
    8.4297  -16.7180   20.3230 O   0  0  0  0  0  0  0  0  0  0  0  0
    7.7399  -14.8785   21.6687 C   0  0  2  0  0  0  0  0  0  0  0  0
    8.1765  -14.1687   20.5115 N   0  0  0  0  0  0  0  0  0  0  0  0
    8.3734  -14.2262   22.8977 C   0  0  0  0  0  0  0  0  0  0  0  0
    9.5736  -13.8558   22.7743 O   0  0  0  0  0  0  0  0  0  0  0  0
    6.0818  -12.0449   25.4188 C   0  0  0  0  0  0  0  0  0  0  0  0
    6.6053  -13.2828   26.0839 C   0  0  2  0  0  0  0  0  0  0  0  0
    6.7126  -13.0745   27.5591 C   0  0  0  0  0  0  0  0  0  0  0  0
    7.9166  -13.7019   25.4057 C   0  0  2  0  0  0  0  0  0  0  0  0
    7.6143  -14.0898   24.0257 N   0  0  0  0  0  0  0  0  0  0  0  0
    8.4054  -14.9645   26.0438 C   0  0  0  0  0  0  0  0  0  0  0  0
    7.9263  -16.0511   25.6515 O   0  0  0  0  0  0  0  0  0  0  0  0
    9.3661  -14.9316   27.0391 N   0  0  0  0  0  0  0  0  0  0  0  0
    9.5152  -13.8773   28.0634 C   0  0  0  0  0  0  0  0  0  0  0  0
   10.8921  -14.0309   28.6116 C   0  0  0  0  0  0  0  0  0  0  0  0
   11.5562  -15.0800   27.7304 C   0  0  0  0  0  0  0  0  0  0  0  0
   10.3633  -15.9306   27.3468 C   0  0  1  0  0  0  0  0  0  0  0  0
    9.8792  -16.6000   28.6034 C   0  0  0  0  0  0  0  0  0  0  0  0
   10.5317  -17.6478   29.1936 O   0  0  0  0  0  0  0  0  0  0  0  0
    8.8179  -16.1729   29.1395 O   0  0  0  0  0  0  0  0  0  0  0  0
  2  1  1  6
  2  4  1  0
  3  2  1  0
  4  6  1  0
  4  5  1  6
  6  7  2  0
  9  8  1  6
  9 11  1  0
 10  9  1  0
 11 13  1  0
 12  6  1  0
 11 12  1  6
 13 14  2  0
 13 15  1  0
 15 16  1  0
 15 19  1  0
 16 17  1  0
 17 18  1  0
 19 18  1  0
 19 20  1  1
 20 21  1  0
 22 20  2  0
M  END
$$$$
