TVP.pdb
     RDKit          3D

 22 22  0  0  1  0  0  0  0  0999 V2000
    7.9686  -17.6600   20.6343 C   0  0  0  0  0  0  0  0  0  0  0  0
    8.5478  -16.9715   21.8516 C   0  0  1  0  0  0  0  0  0  0  0  0
    9.8948  -17.2899   22.0184 O   0  0  0  0  0  0  0  0  0  0  0  0
    8.3953  -15.4830   21.6216 C   0  0  2  0  0  0  0  0  0  0  0  0
    9.1445  -15.0244   20.4983 N   0  0  0  0  0  0  0  0  0  0  0  0
    8.8827  -14.7320   22.8609 C   0  0  0  0  0  0  0  0  0  0  0  0
   10.0870  -14.3547   22.8447 O   0  0  0  0  0  0  0  0  0  0  0  0
    6.3199  -12.3575   25.0111 C   0  0  0  0  0  0  0  0  0  0  0  0
    6.7523  -13.5899   25.7479 C   0  0  2  0  0  0  0  0  0  0  0  0
    6.6664  -13.3708   27.2230 C   0  0  0  0  0  0  0  0  0  0  0  0
    8.1407  -14.0128   25.2496 C   0  0  2  0  0  0  0  0  0  0  0  0
    8.0006  -14.5229   23.8834 N   0  0  0  0  0  0  0  0  0  0  0  0
    8.5941  -15.1999   26.0405 C   0  0  0  0  0  0  0  0  0  0  0  0
    8.2236  -16.3356   25.6704 O   0  0  0  0  0  0  0  0  0  0  0  0
    9.4063  -15.0460   27.1501 N   0  0  0  0  0  0  0  0  0  0  0  0
    9.3160  -13.9566   28.1442 C   0  0  0  0  0  0  0  0  0  0  0  0
   10.6161  -13.9577   28.8720 C   0  0  0  0  0  0  0  0  0  0  0  0
   11.4890  -14.9569   28.1251 C   0  0  0  0  0  0  0  0  0  0  0  0
   10.4450  -15.9320   27.6226 C   0  0  1  0  0  0  0  0  0  0  0  0
    9.8646  -16.6148   28.8303 C   0  0  0  0  0  0  0  0  0  0  0  0
    8.6236  -16.3275   29.3297 O   0  0  0  0  0  0  0  0  0  0  0  0
   10.5579  -17.4968   29.4114 O   0  0  0  0  0  0  0  0  0  0  0  0
  2  1  1  6
  2  4  1  0
  3  2  1  0
  4  6  1  0
  4  5  1  6
  6  7  2  0
  9  8  1  6
  9 11  1  0
 10  9  1  0
 11 13  1  0
 12  6  1  0
 11 12  1  6
 13 14  2  0
 13 15  1  0
 15 16  1  0
 15 19  1  0
 16 17  1  0
 17 18  1  0
 19 18  1  0
 19 20  1  1
 20 21  1  0
 22 20  2  0
M  END
$$$$
