TVP.pdb
     RDKit          3D

 22 22  0  0  1  0  0  0  0  0999 V2000
    8.7453  -17.6182   22.5091 C   0  0  0  0  0  0  0  0  0  0  0  0
    9.1373  -16.7203   21.3552 C   0  0  1  0  0  0  0  0  0  0  0  0
    8.8089  -17.2999   20.1305 O   0  0  0  0  0  0  0  0  0  0  0  0
    8.3728  -15.4259   21.5336 C   0  0  2  0  0  0  0  0  0  0  0  0
    8.5013  -14.5565   20.4106 N   0  0  0  0  0  0  0  0  0  0  0  0
    8.9043  -14.6960   22.7673 C   0  0  0  0  0  0  0  0  0  0  0  0
   10.0506  -14.1795   22.6570 O   0  0  0  0  0  0  0  0  0  0  0  0
    6.3252  -12.6507   25.0974 C   0  0  0  0  0  0  0  0  0  0  0  0
    6.9326  -13.8090   25.8310 C   0  0  2  0  0  0  0  0  0  0  0  0
    6.9404  -13.5466   27.3015 C   0  0  0  0  0  0  0  0  0  0  0  0
    8.3131  -14.1142   25.2342 C   0  0  2  0  0  0  0  0  0  0  0  0
    8.1196  -14.6515   23.8851 N   0  0  0  0  0  0  0  0  0  0  0  0
    8.9264  -15.2469   25.9966 C   0  0  0  0  0  0  0  0  0  0  0  0
    8.8088  -16.4038   25.5364 O   0  0  0  0  0  0  0  0  0  0  0  0
    9.6102  -15.0201   27.1779 N   0  0  0  0  0  0  0  0  0  0  0  0
    9.3075  -13.9618   28.1636 C   0  0  0  0  0  0  0  0  0  0  0  0
   10.5267  -13.8297   29.0098 C   0  0  0  0  0  0  0  0  0  0  0  0
   11.5708  -14.7153   28.3438 C   0  0  0  0  0  0  0  0  0  0  0  0
   10.6929  -15.7926   27.7419 C   0  0  1  0  0  0  0  0  0  0  0  0
   10.0830  -16.5526   28.8872 C   0  0  0  0  0  0  0  0  0  0  0  0
    8.7633  -16.4537   29.2343 O   0  0  0  0  0  0  0  0  0  0  0  0
   10.8268  -17.3200   29.5613 O   0  0  0  0  0  0  0  0  0  0  0  0
  2  1  1  1
  2  4  1  0
  3  2  1  0
  4  6  1  0
  4  5  1  6
  6  7  2  0
  9  8  1  6
  9 11  1  0
 10  9  1  0
 11 13  1  0
 12  6  1  0
 11 12  1  6
 13 14  2  0
 13 15  1  0
 15 16  1  0
 15 19  1  0
 16 17  1  0
 17 18  1  0
 19 18  1  0
 19 20  1  1
 20 21  1  0
 22 20  2  0
M  END
$$$$
