TVP.pdb
     RDKit          3D

 22 22  0  0  1  0  0  0  0  0999 V2000
    7.5556  -19.2479   19.0015 C   0  0  0  0  0  0  0  0  0  0  0  0
    8.4300  -19.0778   17.7777 C   0  0  1  0  0  0  0  0  0  0  0  0
    7.9843  -19.8746   16.7242 O   0  0  0  0  0  0  0  0  0  0  0  0
    8.3508  -17.6172   17.3877 C   0  0  2  0  0  0  0  0  0  0  0  0
    8.9583  -17.3556   16.1243 N   0  0  0  0  0  0  0  0  0  0  0  0
    9.0656  -16.7765   18.4458 C   0  0  0  0  0  0  0  0  0  0  0  0
   10.3246  -16.8626   18.4673 O   0  0  0  0  0  0  0  0  0  0  0  0
    7.5493  -13.1881   19.3875 C   0  0  0  0  0  0  0  0  0  0  0  0
    7.5141  -14.1051   20.5735 C   0  0  2  0  0  0  0  0  0  0  0  0
    7.5663  -13.3172   21.8415 C   0  0  0  0  0  0  0  0  0  0  0  0
    8.6261  -15.1532   20.4321 C   0  0  2  0  0  0  0  0  0  0  0  0
    8.3101  -16.0031   19.2814 N   0  0  0  0  0  0  0  0  0  0  0  0
    8.5625  -16.0823   21.6039 C   0  0  0  0  0  0  0  0  0  0  0  0
    7.6240  -16.9072   21.6561 O   0  0  0  0  0  0  0  0  0  0  0  0
    9.5198  -16.0335   22.6017 N   0  0  0  0  0  0  0  0  0  0  0  0
   10.4886  -14.9393   22.8190 C   0  0  0  0  0  0  0  0  0  0  0  0
   11.5582  -15.5059   23.6877 C   0  0  0  0  0  0  0  0  0  0  0  0
   11.2430  -16.9920   23.7885 C   0  0  0  0  0  0  0  0  0  0  0  0
    9.7327  -16.9741   23.6775 C   0  0  1  0  0  0  0  0  0  0  0  0
    9.2099  -16.2907   24.9108 C   0  0  0  0  0  0  0  0  0  0  0  0
    8.7573  -14.9996   24.9176 O   0  0  0  0  0  0  0  0  0  0  0  0
    9.1880  -16.9420   25.9934 O   0  0  0  0  0  0  0  0  0  0  0  0
  2  1  1  1
  2  4  1  0
  3  2  1  0
  4  6  1  0
  4  5  1  6
  6  7  2  0
  9  8  1  6
  9 11  1  0
 10  9  1  0
 11 13  1  0
 12  6  1  0
 11 12  1  6
 13 14  2  0
 13 15  1  0
 15 16  1  0
 15 19  1  0
 16 17  1  0
 17 18  1  0
 19 18  1  0
 19 20  1  1
 20 21  1  0
 22 20  2  0
M  END
$$$$
