TVP.pdb
     RDKit          3D

 22 22  0  0  1  0  0  0  0  0999 V2000
    8.1656  -17.4758   22.5135 C   0  0  0  0  0  0  0  0  0  0  0  0
    8.8414  -16.6155   21.4674 C   0  0  1  0  0  0  0  0  0  0  0  0
    8.6672  -17.1448   20.1894 O   0  0  0  0  0  0  0  0  0  0  0  0
    8.1989  -15.2473   21.5499 C   0  0  2  0  0  0  0  0  0  0  0  0
    8.4756  -14.4440   20.4046 N   0  0  0  0  0  0  0  0  0  0  0  0
    8.7288  -14.5185   22.7850 C   0  0  0  0  0  0  0  0  0  0  0  0
    9.8893  -14.0320   22.6884 O   0  0  0  0  0  0  0  0  0  0  0  0
    6.2541  -12.3316   25.0026 C   0  0  0  0  0  0  0  0  0  0  0  0
    6.7596  -13.4973   25.7990 C   0  0  2  0  0  0  0  0  0  0  0  0
    6.7585  -13.1709   27.2565 C   0  0  0  0  0  0  0  0  0  0  0  0
    8.1248  -13.9294   25.2471 C   0  0  2  0  0  0  0  0  0  0  0  0
    7.9276  -14.4433   23.8894 N   0  0  0  0  0  0  0  0  0  0  0  0
    8.6033  -15.1162   26.0235 C   0  0  0  0  0  0  0  0  0  0  0  0
    8.2547  -16.2547   25.6410 O   0  0  0  0  0  0  0  0  0  0  0  0
    9.4143  -14.9588   27.1335 N   0  0  0  0  0  0  0  0  0  0  0  0
    9.3082  -13.8794   28.1368 C   0  0  0  0  0  0  0  0  0  0  0  0
   10.6090  -13.8662   28.8631 C   0  0  0  0  0  0  0  0  0  0  0  0
   11.4966  -14.8452   28.1069 C   0  0  0  0  0  0  0  0  0  0  0  0
   10.4674  -15.8324   27.5974 C   0  0  1  0  0  0  0  0  0  0  0  0
    9.8992  -16.5342   28.7999 C   0  0  0  0  0  0  0  0  0  0  0  0
   10.5369  -17.5626   29.4384 O   0  0  0  0  0  0  0  0  0  0  0  0
    8.7779  -16.1546   29.2415 O   0  0  0  0  0  0  0  0  0  0  0  0
  2  1  1  1
  2  4  1  0
  3  2  1  0
  4  6  1  0
  4  5  1  6
  6  7  2  0
  9  8  1  6
  9 11  1  0
 10  9  1  0
 11 13  1  0
 12  6  1  0
 11 12  1  6
 13 14  2  0
 13 15  1  0
 15 16  1  0
 15 19  1  0
 16 17  1  0
 17 18  1  0
 19 18  1  0
 19 20  1  1
 20 21  1  0
 22 20  2  0
M  END
$$$$
