TVP.pdb
     RDKit          3D

 22 22  0  0  1  0  0  0  0  0999 V2000
    9.7866  -16.9745   21.4505 C   0  0  0  0  0  0  0  0  0  0  0  0
    8.2819  -16.8702   21.5788 C   0  0  1  0  0  0  0  0  0  0  0  0
    7.8273  -17.5159   22.7277 O   0  0  0  0  0  0  0  0  0  0  0  0
    7.9543  -15.3941   21.6541 C   0  0  2  0  0  0  0  0  0  0  0  0
    8.2988  -14.6965   20.4590 N   0  0  0  0  0  0  0  0  0  0  0  0
    8.7284  -14.7676   22.8141 C   0  0  0  0  0  0  0  0  0  0  0  0
    9.9443  -14.5089   22.5960 O   0  0  0  0  0  0  0  0  0  0  0  0
    6.2147  -14.5567   26.1154 C   0  0  0  0  0  0  0  0  0  0  0  0
    7.2232  -13.4536   25.9934 C   0  0  2  0  0  0  0  0  0  0  0  0
    6.6100  -12.2586   25.3400 C   0  0  0  0  0  0  0  0  0  0  0  0
    8.4738  -13.9915   25.2853 C   0  0  2  0  0  0  0  0  0  0  0  0
    8.0667  -14.5336   23.9865 N   0  0  0  0  0  0  0  0  0  0  0  0
    8.9780  -15.1824   26.0389 C   0  0  0  0  0  0  0  0  0  0  0  0
    8.8295  -16.3140   25.5276 O   0  0  0  0  0  0  0  0  0  0  0  0
    9.5967  -15.0354   27.2678 N   0  0  0  0  0  0  0  0  0  0  0  0
    9.1797  -14.1102   28.3416 C   0  0  0  0  0  0  0  0  0  0  0  0
   10.3520  -13.9853   29.2526 C   0  0  0  0  0  0  0  0  0  0  0  0
   11.4830  -14.7225   28.5486 C   0  0  0  0  0  0  0  0  0  0  0  0
   10.7099  -15.7875   27.7994 C   0  0  1  0  0  0  0  0  0  0  0  0
   10.1124  -16.7040   28.8312 C   0  0  0  0  0  0  0  0  0  0  0  0
    8.7771  -16.7288   29.1285 O   0  0  0  0  0  0  0  0  0  0  0  0
   10.8823  -17.4892   29.4533 O   0  0  0  0  0  0  0  0  0  0  0  0
  2  1  1  1
  2  4  1  0
  3  2  1  0
  4  6  1  0
  4  5  1  6
  6  7  2  0
  9  8  1  6
  9 11  1  0
 10  9  1  0
 11 13  1  0
 12  6  1  0
 11 12  1  6
 13 14  2  0
 13 15  1  0
 15 16  1  0
 15 19  1  0
 16 17  1  0
 17 18  1  0
 19 18  1  0
 19 20  1  1
 20 21  1  0
 22 20  2  0
M  END
$$$$
