QVP.pdb
     RDKit          3D

 24 24  0  0  1  0  0  0  0  0999 V2000
    9.0970  -19.5290   23.2660 N   0  0  0  0  0  0  0  0  0  0  0  0
    9.6055  -19.8962   22.0047 C   0  0  0  0  0  0  0  0  0  0  0  0
    9.1630  -20.9240   21.4477 O   0  0  0  0  0  0  0  0  0  0  0  0
   10.6428  -19.0828   21.3468 C   0  0  0  0  0  0  0  0  0  0  0  0
   11.0164  -17.8253   22.0724 C   0  0  0  0  0  0  0  0  0  0  0  0
   10.1332  -16.6508   21.7002 C   0  0  2  0  0  0  0  0  0  0  0  0
   10.7435  -15.9514   20.5703 N   0  0  0  0  0  0  0  0  0  0  0  0
   10.0112  -15.6825   22.8115 C   0  0  0  0  0  0  0  0  0  0  0  0
   10.9280  -14.8443   23.0031 O   0  0  0  0  0  0  0  0  0  0  0  0
    7.0303  -13.9806   26.3631 C   0  0  0  0  0  0  0  0  0  0  0  0
    7.3898  -14.3996   24.9551 C   0  0  1  0  0  0  0  0  0  0  0  0
    6.8932  -13.4892   23.8986 C   0  0  0  0  0  0  0  0  0  0  0  0
    8.8949  -14.7126   24.8840 C   0  0  2  0  0  0  0  0  0  0  0  0
    8.9223  -15.6171   23.7016 N   0  0  0  0  0  0  0  0  0  0  0  0
    9.3338  -15.4492   26.0787 C   0  0  0  0  0  0  0  0  0  0  0  0
    9.3100  -16.7270   26.0129 O   0  0  0  0  0  0  0  0  0  0  0  0
    9.7849  -14.9183   27.2966 N   0  0  0  0  0  0  0  0  0  0  0  0
    9.4869  -13.5486   27.7321 C   0  0  0  0  0  0  0  0  0  0  0  0
   10.8196  -13.2166   28.4341 C   0  0  0  0  0  0  0  0  0  0  0  0
   10.9370  -14.4572   29.2910 C   0  0  0  0  0  0  0  0  0  0  0  0
   10.5912  -15.5585   28.3224 C   0  0  1  0  0  0  0  0  0  0  0  0
    9.8367  -16.5778   29.0808 C   0  0  0  0  0  0  0  0  0  0  0  0
   10.5669  -17.3982   29.9314 O   0  0  0  0  0  0  0  0  0  0  0  0
    8.6102  -16.7631   29.0229 O   0  0  0  0  0  0  0  0  0  0  0  0
  2  1  1  0
  2  3  2  0
  4  2  1  0
  5  4  1  0
  5  6  1  0
  6  7  1  6
  8  6  1  0
  8 14  1  0
  9  8  2  0
 11 10  1  1
 12 11  1  0
 13 14  1  6
 13 11  1  0
 15 13  1  0
 16 15  2  0
 17 15  1  0
 18 17  1  0
 19 18  1  0
 20 19  1  0
 20 21  1  0
 21 22  1  1
 21 17  1  0
 22 23  1  0
 24 22  2  0
M  END
$$$$
