QVP.pdb
     RDKit          3D

 24 24  0  0  1  0  0  0  0  0999 V2000
    9.8380  -19.9300   22.2287 N   0  0  0  0  0  0  0  0  0  0  0  0
   10.3027  -19.2164   21.1066 C   0  0  0  0  0  0  0  0  0  0  0  0
   11.0367  -19.7980   20.2788 O   0  0  0  0  0  0  0  0  0  0  0  0
    9.9302  -17.8052   20.9065 C   0  0  0  0  0  0  0  0  0  0  0  0
    9.0165  -17.2371   21.9504 C   0  0  0  0  0  0  0  0  0  0  0  0
    8.7362  -15.7619   21.7423 C   0  0  2  0  0  0  0  0  0  0  0  0
    9.6355  -15.2609   20.7040 N   0  0  0  0  0  0  0  0  0  0  0  0
    8.9901  -14.9769   22.9698 C   0  0  0  0  0  0  0  0  0  0  0  0
   10.1151  -14.4422   23.1387 O   0  0  0  0  0  0  0  0  0  0  0  0
    6.9881  -13.3023   27.1845 C   0  0  0  0  0  0  0  0  0  0  0  0
    6.9815  -13.6088   25.7035 C   0  0  1  0  0  0  0  0  0  0  0  0
    6.3941  -12.5437   24.8595 C   0  0  0  0  0  0  0  0  0  0  0  0
    8.3829  -14.0762   25.2724 C   0  0  2  0  0  0  0  0  0  0  0  0
    8.0506  -14.7706   23.9980 N   0  0  0  0  0  0  0  0  0  0  0  0
    8.9308  -15.0449   26.2338 C   0  0  0  0  0  0  0  0  0  0  0  0
    8.6456  -16.2774   26.0406 O   0  0  0  0  0  0  0  0  0  0  0  0
    9.7409  -14.7829   27.3489 N   0  0  0  0  0  0  0  0  0  0  0  0
    9.8336  -13.4599   27.9778 C   0  0  0  0  0  0  0  0  0  0  0  0
   11.3283  -13.4709   28.3584 C   0  0  0  0  0  0  0  0  0  0  0  0
   11.3782  -14.8237   29.0327 C   0  0  0  0  0  0  0  0  0  0  0  0
   10.6077  -15.6957   28.0754 C   0  0  1  0  0  0  0  0  0  0  0  0
    9.8497  -16.6664   28.8919 C   0  0  0  0  0  0  0  0  0  0  0  0
   10.5756  -17.6892   29.4893 O   0  0  0  0  0  0  0  0  0  0  0  0
    8.6238  -16.6462   29.0888 O   0  0  0  0  0  0  0  0  0  0  0  0
  2  1  1  0
  2  3  2  0
  4  2  1  0
  5  4  1  0
  5  6  1  0
  6  7  1  6
  8  6  1  0
  8 14  1  0
  9  8  2  0
 11 10  1  1
 12 11  1  0
 13 14  1  6
 13 11  1  0
 15 13  1  0
 16 15  2  0
 17 15  1  0
 18 17  1  0
 19 18  1  0
 20 19  1  0
 20 21  1  0
 21 22  1  1
 21 17  1  0
 22 23  1  0
 24 22  2  0
M  END
$$$$
