QVP.pdb
     RDKit          3D

 24 24  0  0  1  0  0  0  0  0999 V2000
   10.3682  -20.1433   22.0626 N   0  0  0  0  0  0  0  0  0  0  0  0
   10.5173  -19.4658   20.8367 C   0  0  0  0  0  0  0  0  0  0  0  0
   11.0634  -20.0559   19.8796 O   0  0  0  0  0  0  0  0  0  0  0  0
   10.0365  -18.0822   20.6794 C   0  0  0  0  0  0  0  0  0  0  0  0
    9.4373  -17.4759   21.9126 C   0  0  0  0  0  0  0  0  0  0  0  0
    8.8812  -16.0865   21.6705 C   0  0  2  0  0  0  0  0  0  0  0  0
    9.6381  -15.4670   20.5836 N   0  0  0  0  0  0  0  0  0  0  0  0
    9.0240  -15.2232   22.8628 C   0  0  0  0  0  0  0  0  0  0  0  0
   10.0761  -14.5530   23.0170 O   0  0  0  0  0  0  0  0  0  0  0  0
    6.7276  -13.5694   26.9156 C   0  0  0  0  0  0  0  0  0  0  0  0
    6.8558  -13.8463   25.4343 C   0  0  1  0  0  0  0  0  0  0  0  0
    6.3527  -12.7613   24.5618 C   0  0  0  0  0  0  0  0  0  0  0  0
    8.2891  -14.3134   25.1243 C   0  0  2  0  0  0  0  0  0  0  0  0
    8.0522  -15.0831   23.8719 N   0  0  0  0  0  0  0  0  0  0  0  0
    8.7837  -15.2178   26.1731 C   0  0  0  0  0  0  0  0  0  0  0  0
    8.4916  -16.4580   26.0538 O   0  0  0  0  0  0  0  0  0  0  0  0
    9.5493  -14.8863   27.3011 N   0  0  0  0  0  0  0  0  0  0  0  0
    9.5552  -13.5458   27.8988 C   0  0  0  0  0  0  0  0  0  0  0  0
   11.0379  -13.4675   28.3166 C   0  0  0  0  0  0  0  0  0  0  0  0
   11.1418  -14.7992   29.0256 C   0  0  0  0  0  0  0  0  0  0  0  0
   10.4440  -15.7338   28.0716 C   0  0  1  0  0  0  0  0  0  0  0  0
    9.7174  -16.7242   28.8931 C   0  0  0  0  0  0  0  0  0  0  0  0
   10.4802  -17.6950   29.5298 O   0  0  0  0  0  0  0  0  0  0  0  0
    8.4878  -16.7626   29.0621 O   0  0  0  0  0  0  0  0  0  0  0  0
  2  1  1  0
  2  3  2  0
  4  2  1  0
  5  4  1  0
  5  6  1  0
  6  7  1  6
  8  6  1  0
  8 14  1  0
  9  8  2  0
 11 10  1  1
 12 11  1  0
 13 14  1  6
 13 11  1  0
 15 13  1  0
 16 15  2  0
 17 15  1  0
 18 17  1  0
 19 18  1  0
 20 19  1  0
 20 21  1  0
 21 22  1  1
 21 17  1  0
 22 23  1  0
 24 22  2  0
M  END
$$$$
