QVP.pdb
     RDKit          3D

 24 24  0  0  1  0  0  0  0  0999 V2000
    7.4590  -18.9410   22.2815 N   0  0  0  0  0  0  0  0  0  0  0  0
    8.2698  -19.2742   21.1789 C   0  0  0  0  0  0  0  0  0  0  0  0
    7.8339  -20.0769   20.3256 O   0  0  0  0  0  0  0  0  0  0  0  0
    9.6122  -18.6864   21.0283 C   0  0  0  0  0  0  0  0  0  0  0  0
    9.9660  -17.6460   22.0480 C   0  0  0  0  0  0  0  0  0  0  0  0
    9.2930  -16.3138   21.7824 C   0  0  2  0  0  0  0  0  0  0  0  0
    9.9915  -15.6528   20.6810 N   0  0  0  0  0  0  0  0  0  0  0  0
    9.3649  -15.4191   22.9578 C   0  0  0  0  0  0  0  0  0  0  0  0
   10.4260  -14.7858   23.1873 O   0  0  0  0  0  0  0  0  0  0  0  0
    6.8612  -13.7217   26.8852 C   0  0  0  0  0  0  0  0  0  0  0  0
    7.0188  -14.0565   25.4188 C   0  0  1  0  0  0  0  0  0  0  0  0
    6.4558  -13.0459   24.4950 C   0  0  0  0  0  0  0  0  0  0  0  0
    8.4810  -14.4458   25.1381 C   0  0  2  0  0  0  0  0  0  0  0  0
    8.3138  -15.2092   23.8708 N   0  0  0  0  0  0  0  0  0  0  0  0
    8.9963  -15.3381   26.1873 C   0  0  0  0  0  0  0  0  0  0  0  0
    8.7737  -16.5901   26.0438 O   0  0  0  0  0  0  0  0  0  0  0  0
    9.7142  -14.9833   27.3393 N   0  0  0  0  0  0  0  0  0  0  0  0
    9.6697  -13.6396   27.9281 C   0  0  0  0  0  0  0  0  0  0  0  0
   11.1347  -13.5261   28.3972 C   0  0  0  0  0  0  0  0  0  0  0  0
   11.2427  -14.8512   29.1180 C   0  0  0  0  0  0  0  0  0  0  0  0
   10.5995  -15.8064   28.1462 C   0  0  1  0  0  0  0  0  0  0  0  0
    9.8663  -16.8079   28.9481 C   0  0  0  0  0  0  0  0  0  0  0  0
    8.4806  -16.7106   28.9627 O   0  0  0  0  0  0  0  0  0  0  0  0
   10.3811  -17.7255   29.6076 O   0  0  0  0  0  0  0  0  0  0  0  0
  2  1  1  0
  2  3  2  0
  4  2  1  0
  5  4  1  0
  5  6  1  0
  6  7  1  6
  8  6  1  0
  8 14  1  0
  9  8  2  0
 11 10  1  1
 12 11  1  0
 13 14  1  6
 13 11  1  0
 15 13  1  0
 16 15  2  0
 17 15  1  0
 18 17  1  0
 19 18  1  0
 20 19  1  0
 20 21  1  0
 21 22  1  1
 21 17  1  0
 22 23  1  0
 24 22  2  0
M  END
$$$$
