QVP.pdb
     RDKit          3D

 24 24  0  0  1  0  0  0  0  0999 V2000
   10.9076  -19.5139   21.8595 N   0  0  0  0  0  0  0  0  0  0  0  0
    9.6885  -19.4239   21.1596 C   0  0  0  0  0  0  0  0  0  0  0  0
    9.2287  -20.4466   20.6074 O   0  0  0  0  0  0  0  0  0  0  0  0
    8.9613  -18.1452   21.0782 C   0  0  0  0  0  0  0  0  0  0  0  0
    9.6233  -16.9947   21.7750 C   0  0  0  0  0  0  0  0  0  0  0  0
    8.8138  -15.7158   21.6909 C   0  0  2  0  0  0  0  0  0  0  0  0
    9.2691  -14.9543   20.5286 N   0  0  0  0  0  0  0  0  0  0  0  0
    9.0065  -14.8652   22.8854 C   0  0  0  0  0  0  0  0  0  0  0  0
   10.0885  -14.2426   23.0316 O   0  0  0  0  0  0  0  0  0  0  0  0
    6.9312  -13.2816   27.1009 C   0  0  0  0  0  0  0  0  0  0  0  0
    6.9407  -13.5763   25.6175 C   0  0  1  0  0  0  0  0  0  0  0  0
    6.3272  -12.5218   24.7788 C   0  0  0  0  0  0  0  0  0  0  0  0
    8.3572  -14.0000   25.1901 C   0  0  2  0  0  0  0  0  0  0  0  0
    8.0521  -14.6874   23.9051 N   0  0  0  0  0  0  0  0  0  0  0  0
    8.9253  -14.9651   26.1432 C   0  0  0  0  0  0  0  0  0  0  0  0
    8.6800  -16.2029   25.9299 O   0  0  0  0  0  0  0  0  0  0  0  0
    9.7162  -14.6944   27.2700 N   0  0  0  0  0  0  0  0  0  0  0  0
    9.8068  -13.3641   27.8835 C   0  0  0  0  0  0  0  0  0  0  0  0
   11.2939  -13.3808   28.2925 C   0  0  0  0  0  0  0  0  0  0  0  0
   11.3211  -14.7250   28.9849 C   0  0  0  0  0  0  0  0  0  0  0  0
   10.5623  -15.6039   28.0244 C   0  0  1  0  0  0  0  0  0  0  0  0
    9.7819  -16.5585   28.8388 C   0  0  0  0  0  0  0  0  0  0  0  0
   10.4900  -17.5735   29.4699 O   0  0  0  0  0  0  0  0  0  0  0  0
    8.5518  -16.5311   29.0066 O   0  0  0  0  0  0  0  0  0  0  0  0
  2  1  1  0
  2  3  2  0
  4  2  1  0
  5  4  1  0
  5  6  1  0
  6  7  1  6
  8  6  1  0
  8 14  1  0
  9  8  2  0
 11 10  1  1
 12 11  1  0
 13 14  1  6
 13 11  1  0
 15 13  1  0
 16 15  2  0
 17 15  1  0
 18 17  1  0
 19 18  1  0
 20 19  1  0
 20 21  1  0
 21 22  1  1
 21 17  1  0
 22 23  1  0
 24 22  2  0
M  END
$$$$
