QVP.pdb
     RDKit          3D

 24 24  0  0  1  0  0  0  0  0999 V2000
    9.7245  -19.9851   22.6429 N   0  0  0  0  0  0  0  0  0  0  0  0
   10.4878  -20.2568   21.4906 C   0  0  0  0  0  0  0  0  0  0  0  0
   10.2851  -21.3197   20.8649 O   0  0  0  0  0  0  0  0  0  0  0  0
   11.5104  -19.3040   21.0247 C   0  0  0  0  0  0  0  0  0  0  0  0
   11.6236  -18.0491   21.8370 C   0  0  0  0  0  0  0  0  0  0  0  0
   10.6681  -16.9661   21.3765 C   0  0  2  0  0  0  0  0  0  0  0  0
   11.2806  -16.2525   20.2569 N   0  0  0  0  0  0  0  0  0  0  0  0
   10.4034  -15.9778   22.4446 C   0  0  0  0  0  0  0  0  0  0  0  0
   11.2500  -15.0782   22.6765 O   0  0  0  0  0  0  0  0  0  0  0  0
    7.0387  -14.2701   25.6317 C   0  0  0  0  0  0  0  0  0  0  0  0
    7.5372  -14.7880   24.3010 C   0  0  1  0  0  0  0  0  0  0  0  0
    7.0713  -14.0138   23.1282 C   0  0  0  0  0  0  0  0  0  0  0  0
    9.0599  -14.9990   24.3731 C   0  0  2  0  0  0  0  0  0  0  0  0
    9.2484  -15.9576   23.2495 N   0  0  0  0  0  0  0  0  0  0  0  0
    9.4402  -15.6424   25.6396 C   0  0  0  0  0  0  0  0  0  0  0  0
    9.5096  -16.9202   25.6424 O   0  0  0  0  0  0  0  0  0  0  0  0
    9.7441  -15.0212   26.8604 N   0  0  0  0  0  0  0  0  0  0  0  0
    9.4251  -13.6171   27.1453 C   0  0  0  0  0  0  0  0  0  0  0  0
   10.6644  -13.2473   27.9858 C   0  0  0  0  0  0  0  0  0  0  0  0
   10.6419  -14.4163   28.9450 C   0  0  0  0  0  0  0  0  0  0  0  0
   10.3971  -15.5873   28.0288 C   0  0  1  0  0  0  0  0  0  0  0  0
    9.5280  -16.5322   28.7604 C   0  0  0  0  0  0  0  0  0  0  0  0
   10.1231  -17.2889   29.7620 O   0  0  0  0  0  0  0  0  0  0  0  0
    8.3155  -16.7071   28.5572 O   0  0  0  0  0  0  0  0  0  0  0  0
  2  1  1  0
  2  3  2  0
  4  2  1  0
  5  4  1  0
  5  6  1  0
  6  7  1  6
  8  6  1  0
  8 14  1  0
  9  8  2  0
 11 10  1  1
 12 11  1  0
 13 14  1  6
 13 11  1  0
 15 13  1  0
 16 15  2  0
 17 15  1  0
 18 17  1  0
 19 18  1  0
 20 19  1  0
 20 21  1  0
 21 22  1  1
 21 17  1  0
 22 23  1  0
 24 22  2  0
M  END
$$$$
