QVP.pdb
     RDKit          3D

 24 24  0  0  1  0  0  0  0  0999 V2000
   10.5899  -19.7714   21.9305 N   0  0  0  0  0  0  0  0  0  0  0  0
    9.6292  -19.5326   20.9283 C   0  0  0  0  0  0  0  0  0  0  0  0
    9.3144  -20.4630   20.1553 O   0  0  0  0  0  0  0  0  0  0  0  0
    9.0005  -18.2074   20.7905 C   0  0  0  0  0  0  0  0  0  0  0  0
    9.4249  -17.1957   21.8122 C   0  0  0  0  0  0  0  0  0  0  0  0
    8.6949  -15.8752   21.6661 C   0  0  2  0  0  0  0  0  0  0  0  0
    9.2647  -15.1535   20.5293 N   0  0  0  0  0  0  0  0  0  0  0  0
    8.8586  -15.0227   22.8636 C   0  0  0  0  0  0  0  0  0  0  0  0
    9.9150  -14.3570   23.0075 O   0  0  0  0  0  0  0  0  0  0  0  0
    6.7019  -13.4657   27.0430 C   0  0  0  0  0  0  0  0  0  0  0  0
    6.7442  -13.7648   25.5611 C   0  0  1  0  0  0  0  0  0  0  0  0
    6.1291  -12.7233   24.7074 C   0  0  0  0  0  0  0  0  0  0  0  0
    8.1753  -14.1660   25.1617 C   0  0  2  0  0  0  0  0  0  0  0  0
    7.9028  -14.8885   23.8887 N   0  0  0  0  0  0  0  0  0  0  0  0
    8.7517  -15.0968   26.1435 C   0  0  0  0  0  0  0  0  0  0  0  0
    8.5455  -16.3447   25.9494 O   0  0  0  0  0  0  0  0  0  0  0  0
    9.5128  -14.7828   27.2796 N   0  0  0  0  0  0  0  0  0  0  0  0
    9.5273  -13.4479   27.8897 C   0  0  0  0  0  0  0  0  0  0  0  0
   11.0078  -13.3875   28.3180 C   0  0  0  0  0  0  0  0  0  0  0  0
   11.0944  -14.7266   29.0154 C   0  0  0  0  0  0  0  0  0  0  0  0
   10.3942  -15.6457   28.0482 C   0  0  1  0  0  0  0  0  0  0  0  0
    9.6529  -16.6367   28.8557 C   0  0  0  0  0  0  0  0  0  0  0  0
   10.4015  -17.6247   29.4828 O   0  0  0  0  0  0  0  0  0  0  0  0
    8.4224  -16.6617   29.0209 O   0  0  0  0  0  0  0  0  0  0  0  0
  2  1  1  0
  2  3  2  0
  4  2  1  0
  5  4  1  0
  5  6  1  0
  6  7  1  6
  8  6  1  0
  8 14  1  0
  9  8  2  0
 11 10  1  1
 12 11  1  0
 13 14  1  6
 13 11  1  0
 15 13  1  0
 16 15  2  0
 17 15  1  0
 18 17  1  0
 19 18  1  0
 20 19  1  0
 20 21  1  0
 21 22  1  1
 21 17  1  0
 22 23  1  0
 24 22  2  0
M  END
$$$$
