QVP.pdb
     RDKit          3D

 24 24  0  0  1  0  0  0  0  0999 V2000
   14.7304  -17.0259   21.8818 N   0  0  0  0  0  0  0  0  0  0  0  0
   14.9620  -16.1646   20.7915 C   0  0  0  0  0  0  0  0  0  0  0  0
   16.0276  -16.2739   20.1473 O   0  0  0  0  0  0  0  0  0  0  0  0
   13.9648  -15.1491   20.4110 C   0  0  0  0  0  0  0  0  0  0  0  0
   12.7350  -15.1169   21.2676 C   0  0  0  0  0  0  0  0  0  0  0  0
   11.4599  -14.9992   20.4563 C   0  0  2  0  0  0  0  0  0  0  0  0
   11.6920  -14.0583   19.3614 N   0  0  0  0  0  0  0  0  0  0  0  0
   10.3404  -14.4733   21.2672 C   0  0  0  0  0  0  0  0  0  0  0  0
   10.1975  -13.2305   21.3894 O   0  0  0  0  0  0  0  0  0  0  0  0
    6.0216  -15.5727   23.3600 C   0  0  0  0  0  0  0  0  0  0  0  0
    7.1413  -15.6809   22.3491 C   0  0  1  0  0  0  0  0  0  0  0  0
    6.7015  -15.6121   20.9371 C   0  0  0  0  0  0  0  0  0  0  0  0
    8.2653  -14.6992   22.7249 C   0  0  2  0  0  0  0  0  0  0  0  0
    9.3911  -15.2700   21.9354 N   0  0  0  0  0  0  0  0  0  0  0  0
    8.5764  -14.7833   24.1597 C   0  0  0  0  0  0  0  0  0  0  0  0
    9.3381  -15.7419   24.5321 O   0  0  0  0  0  0  0  0  0  0  0  0
    8.1393  -13.9301   25.1841 N   0  0  0  0  0  0  0  0  0  0  0  0
    7.2502  -12.7863   24.9484 C   0  0  0  0  0  0  0  0  0  0  0  0
    7.8445  -11.7959   25.9707 C   0  0  0  0  0  0  0  0  0  0  0  0
    7.8796  -12.7103   27.1747 C   0  0  0  0  0  0  0  0  0  0  0  0
    8.4488  -13.9831   26.6032 C   0  0  1  0  0  0  0  0  0  0  0  0
    7.7716  -15.1035   27.2885 C   0  0  0  0  0  0  0  0  0  0  0  0
    8.2777  -15.4834   28.5252 O   0  0  0  0  0  0  0  0  0  0  0  0
    6.7924  -15.7323   26.8549 O   0  0  0  0  0  0  0  0  0  0  0  0
  2  1  1  0
  2  3  2  0
  4  2  1  0
  5  4  1  0
  5  6  1  0
  6  7  1  6
  8  6  1  0
  8 14  1  0
  9  8  2  0
 11 10  1  1
 12 11  1  0
 13 14  1  6
 13 11  1  0
 15 13  1  0
 16 15  2  0
 17 15  1  0
 18 17  1  0
 19 18  1  0
 20 19  1  0
 20 21  1  0
 21 22  1  1
 21 17  1  0
 22 23  1  0
 24 22  2  0
M  END
$$$$
