QVP.pdb
     RDKit          3D

 24 24  0  0  1  0  0  0  0  0999 V2000
    8.8218  -11.8591   19.9013 N   0  0  0  0  0  0  0  0  0  0  0  0
    9.6949  -12.9426   19.6825 C   0  0  0  0  0  0  0  0  0  0  0  0
   10.8904  -12.8390   20.0322 O   0  0  0  0  0  0  0  0  0  0  0  0
    9.2101  -14.1829   19.0524 C   0  0  0  0  0  0  0  0  0  0  0  0
    9.7543  -15.4484   19.6439 C   0  0  0  0  0  0  0  0  0  0  0  0
    8.6635  -16.4079   20.0772 C   0  0  2  0  0  0  0  0  0  0  0  0
    7.6895  -16.5229   18.9928 N   0  0  0  0  0  0  0  0  0  0  0  0
    7.9446  -15.9171   21.2729 C   0  0  0  0  0  0  0  0  0  0  0  0
    6.9558  -15.1546   21.1288 O   0  0  0  0  0  0  0  0  0  0  0  0
    6.6521  -17.1554   25.7609 C   0  0  0  0  0  0  0  0  0  0  0  0
    7.1417  -17.2840   24.3357 C   0  0  1  0  0  0  0  0  0  0  0  0
    6.3020  -18.1467   23.4742 C   0  0  0  0  0  0  0  0  0  0  0  0
    7.4276  -15.8834   23.7656 C   0  0  2  0  0  0  0  0  0  0  0  0
    8.2832  -16.2407   22.6007 N   0  0  0  0  0  0  0  0  0  0  0  0
    8.2045  -15.0779   24.7197 C   0  0  0  0  0  0  0  0  0  0  0  0
    9.4626  -15.3046   24.7796 O   0  0  0  0  0  0  0  0  0  0  0  0
    7.7324  -14.0762   25.5812 N   0  0  0  0  0  0  0  0  0  0  0  0
    6.3447  -13.5983   25.5688 C   0  0  0  0  0  0  0  0  0  0  0  0
    6.5943  -12.1052   25.8643 C   0  0  0  0  0  0  0  0  0  0  0  0
    7.5101  -12.2627   27.0575 C   0  0  0  0  0  0  0  0  0  0  0  0
    8.4597  -13.3402   26.6019 C   0  0  1  0  0  0  0  0  0  0  0  0
    8.7695  -14.1697   27.7849 C   0  0  0  0  0  0  0  0  0  0  0  0
    9.7016  -13.6637   28.6821 O   0  0  0  0  0  0  0  0  0  0  0  0
    8.2697  -15.2764   28.0446 O   0  0  0  0  0  0  0  0  0  0  0  0
  2  1  1  0
  2  3  2  0
  4  2  1  0
  5  4  1  0
  5  6  1  0
  6  7  1  6
  8  6  1  0
  8 14  1  0
  9  8  2  0
 11 10  1  1
 12 11  1  0
 13 14  1  6
 13 11  1  0
 15 13  1  0
 16 15  2  0
 17 15  1  0
 18 17  1  0
 19 18  1  0
 20 19  1  0
 20 21  1  0
 21 22  1  1
 21 17  1  0
 22 23  1  0
 24 22  2  0
M  END
$$$$
