QVP.pdb
     RDKit          3D

 24 24  0  0  1  0  0  0  0  0999 V2000
   12.1344  -14.7556   21.1519 N   0  0  0  0  0  0  0  0  0  0  0  0
   12.3497  -14.2441   19.8572 C   0  0  0  0  0  0  0  0  0  0  0  0
   13.4194  -14.5124   19.2688 O   0  0  0  0  0  0  0  0  0  0  0  0
   11.3312  -13.4058   19.2013 C   0  0  0  0  0  0  0  0  0  0  0  0
   10.1059  -13.1388   20.0227 C   0  0  0  0  0  0  0  0  0  0  0  0
    9.0766  -14.2466   19.9152 C   0  0  2  0  0  0  0  0  0  0  0  0
    8.1996  -13.9563   18.7818 N   0  0  0  0  0  0  0  0  0  0  0  0
    8.2302  -14.3281   21.1253 C   0  0  0  0  0  0  0  0  0  0  0  0
    7.2124  -13.5964   21.2169 O   0  0  0  0  0  0  0  0  0  0  0  0
    6.7425  -17.1315   24.8130 C   0  0  0  0  0  0  0  0  0  0  0  0
    7.3277  -16.7727   23.4654 C   0  0  1  0  0  0  0  0  0  0  0  0
    6.5890  -17.3277   22.3086 C   0  0  0  0  0  0  0  0  0  0  0  0
    7.5784  -15.2555   23.4050 C   0  0  2  0  0  0  0  0  0  0  0  0
    8.4743  -15.1817   22.2181 N   0  0  0  0  0  0  0  0  0  0  0  0
    8.3031  -14.7964   24.5994 C   0  0  0  0  0  0  0  0  0  0  0  0
    9.5003  -15.2225   24.7502 O   0  0  0  0  0  0  0  0  0  0  0  0
    7.8404  -13.9349   25.6056 N   0  0  0  0  0  0  0  0  0  0  0  0
    6.4861  -13.3692   25.6147 C   0  0  0  0  0  0  0  0  0  0  0  0
    6.8047  -11.9734   26.1886 C   0  0  0  0  0  0  0  0  0  0  0  0
    7.6378  -12.4035   27.3751 C   0  0  0  0  0  0  0  0  0  0  0  0
    8.5481  -13.4444   26.7764 C   0  0  1  0  0  0  0  0  0  0  0  0
    8.7387  -14.4911   27.8020 C   0  0  0  0  0  0  0  0  0  0  0  0
    7.9963  -15.6564   27.6579 O   0  0  0  0  0  0  0  0  0  0  0  0
    9.5030  -14.4182   28.7780 O   0  0  0  0  0  0  0  0  0  0  0  0
  2  1  1  0
  2  3  2  0
  4  2  1  0
  5  4  1  0
  5  6  1  0
  6  7  1  6
  8  6  1  0
  8 14  1  0
  9  8  2  0
 11 10  1  1
 12 11  1  0
 13 14  1  6
 13 11  1  0
 15 13  1  0
 16 15  2  0
 17 15  1  0
 18 17  1  0
 19 18  1  0
 20 19  1  0
 20 21  1  0
 21 22  1  1
 21 17  1  0
 22 23  1  0
 24 22  2  0
M  END
$$$$
