PDW.pdb
     RDKit          3D

 30 32  0  0  1  0  0  0  0  0999 V2000
    9.0123  -13.7737   19.7433 N   0  0  0  0  0  0  0  0  0  0  0  0
    8.3045  -12.9593   18.7439 C   0  0  0  0  0  0  0  0  0  0  0  0
    6.8574  -13.3323   18.8449 C   0  0  0  0  0  0  0  0  0  0  0  0
    6.8395  -14.4672   19.8769 C   0  0  0  0  0  0  0  0  0  0  0  0
    8.0189  -14.1192   20.7285 C   0  0  1  0  0  0  0  0  0  0  0  0
    8.5030  -15.1913   21.5986 C   0  0  0  0  0  0  0  0  0  0  0  0
    7.7068  -15.6802   22.4633 O   0  0  0  0  0  0  0  0  0  0  0  0
    9.8107  -15.7389   21.5541 N   0  0  0  0  0  0  0  0  0  0  0  0
   10.1546  -16.8871   22.4269 C   0  0  1  0  0  0  0  0  0  0  0  0
   11.4571  -17.4632   21.9271 C   0  0  0  0  0  0  0  0  0  0  0  0
   11.8091  -18.6572   22.7140 C   0  0  0  0  0  0  0  0  0  0  0  0
   10.9085  -19.5348   22.9877 O   0  0  0  0  0  0  0  0  0  0  0  0
   10.2306  -16.4028   23.8347 C   0  0  0  0  0  0  0  0  0  0  0  0
   10.8637  -15.3700   24.1264 O   0  0  0  0  0  0  0  0  0  0  0  0
   13.0579  -18.9595   23.2219 O   0  0  0  0  0  0  0  0  0  0  0  0
    9.5866  -17.0952   24.9021 N   0  0  0  0  0  0  0  0  0  0  0  0
    9.7263  -16.7571   26.3002 C   0  0  1  0  0  0  0  0  0  0  0  0
    8.3950  -16.6894   27.0057 C   0  0  0  0  0  0  0  0  0  0  0  0
    7.5106  -15.6603   26.4167 C   0  0  0  0  0  0  0  0  0  0  0  0
    6.4442  -15.9109   25.5812 C   0  0  0  0  0  0  0  0  0  0  0  0
    5.8920  -14.7303   25.2614 N   0  0  0  0  0  0  0  0  0  0  0  0
    6.5822  -13.7436   25.8731 C   0  0  0  0  0  0  0  0  0  0  0  0
    6.4349  -12.3629   25.8787 C   0  0  0  0  0  0  0  0  0  0  0  0
    7.2967  -11.5751   26.6035 C   0  0  0  0  0  0  0  0  0  0  0  0
    8.3083  -12.1537   27.3261 C   0  0  0  0  0  0  0  0  0  0  0  0
    8.4959  -13.5122   27.3529 C   0  0  0  0  0  0  0  0  0  0  0  0
    7.6129  -14.2998   26.6119 C   0  0  0  0  0  0  0  0  0  0  0  0
   10.6763  -17.6577   26.9831 C   0  0  0  0  0  0  0  0  0  0  0  0
   11.1469  -18.6331   26.3648 O   0  0  0  0  0  0  0  0  0  0  0  0
   11.0433  -17.4334   28.2847 O   0  0  0  0  0  0  0  0  0  0  0  0
  1  5  1  0
  2  1  1  0
  2  3  1  0
  3  4  1  0
  4  5  1  0
  5  6  1  6
  6  7  2  0
  8  9  1  0
  8  6  1  0
  9 13  1  0
  9 10  1  6
 11 15  1  0
 11 10  1  0
 12 11  2  0
 13 16  1  0
 13 14  2  0
 16 17  1  0
 17 28  1  0
 17 18  1  1
 19 18  1  0
 19 27  1  0
 20 19  2  0
 21 20  1  0
 21 22  1  0
 22 23  1  0
 22 27  2  0
 23 24  2  0
 24 25  1  0
 26 25  2  0
 27 26  1  0
 28 29  2  0
 28 30  1  0
M  END
$$$$
