PDW.pdb
     RDKit          3D

 30 32  0  0  1  0  0  0  0  0999 V2000
    9.0513  -13.9607   19.8085 N   0  0  0  0  0  0  0  0  0  0  0  0
    8.3714  -13.0926   18.8354 C   0  0  0  0  0  0  0  0  0  0  0  0
    6.9259  -13.0719   19.2271 C   0  0  0  0  0  0  0  0  0  0  0  0
    6.8461  -14.0597   20.3980 C   0  0  0  0  0  0  0  0  0  0  0  0
    8.2175  -13.9444   20.9839 C   0  0  1  0  0  0  0  0  0  0  0  0
    8.5989  -15.0158   21.9046 C   0  0  0  0  0  0  0  0  0  0  0  0
    7.8401  -15.2658   22.8957 O   0  0  0  0  0  0  0  0  0  0  0  0
    9.7661  -15.8117   21.7781 N   0  0  0  0  0  0  0  0  0  0  0  0
   10.0281  -16.8898   22.7618 C   0  0  1  0  0  0  0  0  0  0  0  0
   11.1945  -17.6988   22.2487 C   0  0  0  0  0  0  0  0  0  0  0  0
   10.9970  -18.0106   20.8231 C   0  0  0  0  0  0  0  0  0  0  0  0
   10.0446  -18.7979   20.4636 O   0  0  0  0  0  0  0  0  0  0  0  0
   10.2889  -16.2635   24.0891 C   0  0  0  0  0  0  0  0  0  0  0  0
   11.0630  -15.2937   24.2019 O   0  0  0  0  0  0  0  0  0  0  0  0
   11.7563  -17.5341   19.7718 O   0  0  0  0  0  0  0  0  0  0  0  0
    9.6681  -16.7431   25.2800 N   0  0  0  0  0  0  0  0  0  0  0  0
   10.2302  -16.6159   26.6053 C   0  0  1  0  0  0  0  0  0  0  0  0
    9.3864  -15.7436   27.5006 C   0  0  0  0  0  0  0  0  0  0  0  0
    8.1745  -15.2526   26.8089 C   0  0  0  0  0  0  0  0  0  0  0  0
    7.2164  -16.0487   26.2204 C   0  0  0  0  0  0  0  0  0  0  0  0
    6.2784  -15.2405   25.7026 N   0  0  0  0  0  0  0  0  0  0  0  0
    6.6205  -13.9574   25.9493 C   0  0  0  0  0  0  0  0  0  0  0  0
    6.0109  -12.7497   25.6369 C   0  0  0  0  0  0  0  0  0  0  0  0
    6.5879  -11.5615   26.0165 C   0  0  0  0  0  0  0  0  0  0  0  0
    7.7721  -11.5665   26.7078 C   0  0  0  0  0  0  0  0  0  0  0  0
    8.4136  -12.7324   27.0401 C   0  0  0  0  0  0  0  0  0  0  0  0
    7.8158  -13.9316   26.6479 C   0  0  0  0  0  0  0  0  0  0  0  0
   10.5035  -17.9363   27.2069 C   0  0  0  0  0  0  0  0  0  0  0  0
   10.0515  -18.9626   26.6613 O   0  0  0  0  0  0  0  0  0  0  0  0
   11.2450  -18.0440   28.3548 O   0  0  0  0  0  0  0  0  0  0  0  0
  1  5  1  0
  2  1  1  0
  2  3  1  0
  3  4  1  0
  4  5  1  0
  5  6  1  1
  6  7  2  0
  8  9  1  0
  8  6  1  0
  9 13  1  0
  9 10  1  6
 11 15  1  0
 11 10  1  0
 12 11  2  0
 13 16  1  0
 13 14  2  0
 16 17  1  0
 17 28  1  0
 17 18  1  1
 19 18  1  0
 19 27  1  0
 20 19  2  0
 21 20  1  0
 21 22  1  0
 22 23  1  0
 22 27  2  0
 23 24  2  0
 24 25  1  0
 26 25  2  0
 27 26  1  0
 28 29  2  0
 28 30  1  0
M  END
$$$$
