PDW.pdb
     RDKit          3D

 30 32  0  0  1  0  0  0  0  0999 V2000
    9.0445  -13.6331   19.5988 N   0  0  0  0  0  0  0  0  0  0  0  0
    8.3329  -12.7492   18.6632 C   0  0  0  0  0  0  0  0  0  0  0  0
    6.8948  -13.1662   18.7008 C   0  0  0  0  0  0  0  0  0  0  0  0
    6.8891  -14.3903   19.6253 C   0  0  0  0  0  0  0  0  0  0  0  0
    8.0434  -14.0917   20.5284 C   0  0  1  0  0  0  0  0  0  0  0  0
    8.5406  -15.2260   21.3076 C   0  0  0  0  0  0  0  0  0  0  0  0
    7.7201  -15.8697   22.0377 O   0  0  0  0  0  0  0  0  0  0  0  0
    9.8866  -15.6734   21.3135 N   0  0  0  0  0  0  0  0  0  0  0  0
   10.2825  -16.7939   22.2001 C   0  0  1  0  0  0  0  0  0  0  0  0
   11.6405  -17.2728   21.7478 C   0  0  0  0  0  0  0  0  0  0  0  0
   12.0668  -18.4158   22.5726 C   0  0  0  0  0  0  0  0  0  0  0  0
   13.0586  -18.2890   23.3829 O   0  0  0  0  0  0  0  0  0  0  0  0
   10.2731  -16.3063   23.6088 C   0  0  0  0  0  0  0  0  0  0  0  0
   10.8311  -15.2376   23.9233 O   0  0  0  0  0  0  0  0  0  0  0  0
   11.4987  -19.6752   22.5761 O   0  0  0  0  0  0  0  0  0  0  0  0
    9.6296  -17.0363   24.6512 N   0  0  0  0  0  0  0  0  0  0  0  0
    9.6237  -16.6450   26.0423 C   0  0  1  0  0  0  0  0  0  0  0  0
    8.2586  -16.7855   26.6679 C   0  0  0  0  0  0  0  0  0  0  0  0
    7.3434  -15.7039   26.2429 C   0  0  0  0  0  0  0  0  0  0  0  0
    6.1330  -15.8878   25.6112 C   0  0  0  0  0  0  0  0  0  0  0  0
    5.6007  -14.6755   25.3916 N   0  0  0  0  0  0  0  0  0  0  0  0
    6.4436  -13.7338   25.8680 C   0  0  0  0  0  0  0  0  0  0  0  0
    6.3782  -12.3472   25.8958 C   0  0  0  0  0  0  0  0  0  0  0  0
    7.3986  -11.6146   26.4535 C   0  0  0  0  0  0  0  0  0  0  0  0
    8.4880  -12.2546   26.9861 C   0  0  0  0  0  0  0  0  0  0  0  0
    8.5999  -13.6217   26.9829 C   0  0  0  0  0  0  0  0  0  0  0  0
    7.5559  -14.3527   26.4130 C   0  0  0  0  0  0  0  0  0  0  0  0
   10.6664  -17.3554   26.8093 C   0  0  0  0  0  0  0  0  0  0  0  0
   11.3252  -18.2579   26.2555 O   0  0  0  0  0  0  0  0  0  0  0  0
   10.9152  -17.0344   28.1186 O   0  0  0  0  0  0  0  0  0  0  0  0
  1  5  1  0
  2  1  1  0
  2  3  1  0
  3  4  1  0
  4  5  1  0
  5  6  1  6
  6  7  2  0
  8  9  1  0
  8  6  1  0
  9 13  1  0
  9 10  1  6
 11 15  1  0
 11 10  1  0
 12 11  2  0
 13 16  1  0
 13 14  2  0
 16 17  1  0
 17 28  1  0
 17 18  1  1
 19 18  1  0
 19 27  1  0
 20 19  2  0
 21 20  1  0
 21 22  1  0
 22 23  1  0
 22 27  2  0
 23 24  2  0
 24 25  1  0
 26 25  2  0
 27 26  1  0
 28 29  2  0
 28 30  1  0
M  END
$$$$
