PDW.pdb
     RDKit          3D

 30 32  0  0  1  0  0  0  0  0999 V2000
    9.2364  -14.1066   18.8990 N   0  0  0  0  0  0  0  0  0  0  0  0
    8.7997  -13.0742   17.9469 C   0  0  0  0  0  0  0  0  0  0  0  0
    7.3658  -12.7844   18.2683 C   0  0  0  0  0  0  0  0  0  0  0  0
    7.0238  -13.7918   19.3734 C   0  0  0  0  0  0  0  0  0  0  0  0
    8.3538  -13.9810   20.0312 C   0  0  1  0  0  0  0  0  0  0  0  0
    8.4615  -15.1501   20.9045 C   0  0  0  0  0  0  0  0  0  0  0  0
    7.7096  -15.2158   21.9296 O   0  0  0  0  0  0  0  0  0  0  0  0
    9.3515  -16.2346   20.6956 N   0  0  0  0  0  0  0  0  0  0  0  0
    9.4421  -17.3137   21.7083 C   0  0  1  0  0  0  0  0  0  0  0  0
   10.2341  -18.4442   21.0976 C   0  0  0  0  0  0  0  0  0  0  0  0
   10.4077  -19.5225   22.0853 C   0  0  0  0  0  0  0  0  0  0  0  0
   11.4446  -19.5348   22.8475 O   0  0  0  0  0  0  0  0  0  0  0  0
   10.0729  -16.7546   22.9378 C   0  0  0  0  0  0  0  0  0  0  0  0
   10.9771  -15.9003   22.8654 O   0  0  0  0  0  0  0  0  0  0  0  0
    9.5439  -20.5795   22.2983 O   0  0  0  0  0  0  0  0  0  0  0  0
    9.6720  -17.1695   24.2419 N   0  0  0  0  0  0  0  0  0  0  0  0
   10.1139  -16.5503   25.4706 C   0  0  1  0  0  0  0  0  0  0  0  0
    9.9007  -15.0573   25.4650 C   0  0  0  0  0  0  0  0  0  0  0  0
    8.4678  -14.7046   25.5668 C   0  0  0  0  0  0  0  0  0  0  0  0
    7.4177  -15.5621   25.3219 C   0  0  0  0  0  0  0  0  0  0  0  0
    6.2799  -14.8787   25.5205 N   0  0  0  0  0  0  0  0  0  0  0  0
    6.5857  -13.6143   25.8838 C   0  0  0  0  0  0  0  0  0  0  0  0
    5.7987  -12.5152   26.2007 C   0  0  0  0  0  0  0  0  0  0  0  0
    6.3816  -11.3187   26.5433 C   0  0  0  0  0  0  0  0  0  0  0  0
    7.7480  -11.2076   26.5732 C   0  0  0  0  0  0  0  0  0  0  0  0
    8.5688  -12.2634   26.2685 C   0  0  0  0  0  0  0  0  0  0  0  0
    7.9626  -13.4725   25.9222 C   0  0  0  0  0  0  0  0  0  0  0  0
    9.5085  -17.1975   26.6516 C   0  0  0  0  0  0  0  0  0  0  0  0
    8.5944  -18.0306   26.4914 O   0  0  0  0  0  0  0  0  0  0  0  0
    9.9390  -16.8917   27.9167 O   0  0  0  0  0  0  0  0  0  0  0  0
  1  5  1  0
  2  1  1  0
  2  3  1  0
  3  4  1  0
  4  5  1  0
  5  6  1  1
  6  7  2  0
  8  9  1  0
  8  6  1  0
  9 13  1  0
  9 10  1  6
 11 15  1  0
 11 10  1  0
 12 11  2  0
 13 16  1  0
 13 14  2  0
 16 17  1  0
 17 28  1  0
 17 18  1  6
 19 18  1  0
 19 27  1  0
 20 19  2  0
 21 20  1  0
 21 22  1  0
 22 23  1  0
 22 27  2  0
 23 24  2  0
 24 25  1  0
 26 25  2  0
 27 26  1  0
 28 29  2  0
 28 30  1  0
M  END
$$$$
