PDW.pdb
     RDKit          3D

 30 32  0  0  1  0  0  0  0  0999 V2000
    9.3894  -14.0515   18.5526 N   0  0  0  0  0  0  0  0  0  0  0  0
    8.5421  -13.3185   17.5998 C   0  0  0  0  0  0  0  0  0  0  0  0
    7.1252  -13.5766   18.0110 C   0  0  0  0  0  0  0  0  0  0  0  0
    7.2525  -14.5733   19.1701 C   0  0  0  0  0  0  0  0  0  0  0  0
    8.5861  -14.2055   19.7391 C   0  0  1  0  0  0  0  0  0  0  0  0
    9.1780  -15.1942   20.6409 C   0  0  0  0  0  0  0  0  0  0  0  0
    8.5082  -15.5707   21.6559 O   0  0  0  0  0  0  0  0  0  0  0  0
   10.4600  -15.7767   20.4708 N   0  0  0  0  0  0  0  0  0  0  0  0
   10.9635  -16.7460   21.4735 C   0  0  1  0  0  0  0  0  0  0  0  0
   12.2537  -17.3208   20.9415 C   0  0  0  0  0  0  0  0  0  0  0  0
   12.7862  -18.3137   21.8897 C   0  0  0  0  0  0  0  0  0  0  0  0
   12.0968  -19.3618   22.1771 O   0  0  0  0  0  0  0  0  0  0  0  0
   11.1312  -16.0353   22.7732 C   0  0  0  0  0  0  0  0  0  0  0  0
   11.6533  -14.9052   22.8257 O   0  0  0  0  0  0  0  0  0  0  0  0
   14.0014  -18.2463   22.5435 O   0  0  0  0  0  0  0  0  0  0  0  0
   10.7045  -16.6134   24.0049 N   0  0  0  0  0  0  0  0  0  0  0  0
    9.7439  -16.0131   24.9023 C   0  0  1  0  0  0  0  0  0  0  0  0
    8.5194  -15.5153   24.1761 C   0  0  0  0  0  0  0  0  0  0  0  0
    7.5141  -14.9588   25.1077 C   0  0  0  0  0  0  0  0  0  0  0  0
    6.3779  -15.6105   25.5347 C   0  0  0  0  0  0  0  0  0  0  0  0
    5.7254  -14.7859   26.3687 N   0  0  0  0  0  0  0  0  0  0  0  0
    6.4204  -13.6329   26.4778 C   0  0  0  0  0  0  0  0  0  0  0  0
    6.1932  -12.4679   27.1982 C   0  0  0  0  0  0  0  0  0  0  0  0
    7.0821  -11.4222   27.1263 C   0  0  0  0  0  0  0  0  0  0  0  0
    8.2002  -11.5279   26.3396 C   0  0  0  0  0  0  0  0  0  0  0  0
    8.4693  -12.6570   25.6090 C   0  0  0  0  0  0  0  0  0  0  0  0
    7.5576  -13.7111   25.6916 C   0  0  0  0  0  0  0  0  0  0  0  0
    9.4035  -16.9197   26.0169 C   0  0  0  0  0  0  0  0  0  0  0  0
    9.0531  -16.4378   27.1124 O   0  0  0  0  0  0  0  0  0  0  0  0
    9.4698  -18.2799   25.8597 O   0  0  0  0  0  0  0  0  0  0  0  0
  1  5  1  0
  2  1  1  0
  2  3  1  0
  3  4  1  0
  4  5  1  0
  5  6  1  1
  6  7  2  0
  8  9  1  0
  8  6  1  0
  9 13  1  0
  9 10  1  6
 11 15  1  0
 11 10  1  0
 12 11  2  0
 13 16  1  0
 13 14  2  0
 16 17  1  0
 17 28  1  0
 17 18  1  6
 19 18  1  0
 19 27  1  0
 20 19  2  0
 21 20  1  0
 21 22  1  0
 22 23  1  0
 22 27  2  0
 23 24  2  0
 24 25  1  0
 26 25  2  0
 27 26  1  0
 28 29  2  0
 28 30  1  0
M  END
$$$$
