PDW.pdb
     RDKit          3D

 30 32  0  0  1  0  0  0  0  0999 V2000
    9.3251  -13.7642   19.3869 N   0  0  0  0  0  0  0  0  0  0  0  0
    8.8317  -12.6999   18.5000 C   0  0  0  0  0  0  0  0  0  0  0  0
    7.3383  -12.8142   18.4951 C   0  0  0  0  0  0  0  0  0  0  0  0
    7.0605  -14.0630   19.3415 C   0  0  0  0  0  0  0  0  0  0  0  0
    8.2294  -14.0610   20.2747 C   0  0  1  0  0  0  0  0  0  0  0  0
    8.4657  -15.3169   20.9876 C   0  0  0  0  0  0  0  0  0  0  0  0
    7.5017  -15.8417   21.6324 O   0  0  0  0  0  0  0  0  0  0  0  0
    9.7041  -16.0079   21.0170 N   0  0  0  0  0  0  0  0  0  0  0  0
    9.7587  -17.3918   21.5464 C   0  0  1  0  0  0  0  0  0  0  0  0
   10.7274  -18.1684   20.6881 C   0  0  0  0  0  0  0  0  0  0  0  0
   12.0718  -17.5764   20.7923 C   0  0  0  0  0  0  0  0  0  0  0  0
   12.2541  -16.3389   20.4894 O   0  0  0  0  0  0  0  0  0  0  0  0
   10.1640  -17.3325   22.9797 C   0  0  0  0  0  0  0  0  0  0  0  0
   10.0922  -18.3390   23.7106 O   0  0  0  0  0  0  0  0  0  0  0  0
   13.2208  -18.2293   21.1952 O   0  0  0  0  0  0  0  0  0  0  0  0
   10.6486  -16.1299   23.5733 N   0  0  0  0  0  0  0  0  0  0  0  0
   10.0043  -15.4385   24.6666 C   0  0  1  0  0  0  0  0  0  0  0  0
    8.9050  -14.5216   24.1920 C   0  0  0  0  0  0  0  0  0  0  0  0
    7.7919  -14.4465   25.1634 C   0  0  0  0  0  0  0  0  0  0  0  0
    6.9812  -15.4991   25.5278 C   0  0  0  0  0  0  0  0  0  0  0  0
    6.0970  -15.0391   26.4265 N   0  0  0  0  0  0  0  0  0  0  0  0
    6.3294  -13.7254   26.6373 C   0  0  0  0  0  0  0  0  0  0  0  0
    5.7150  -12.7855   27.4540 C   0  0  0  0  0  0  0  0  0  0  0  0
    6.1621  -11.4861   27.4763 C   0  0  0  0  0  0  0  0  0  0  0  0
    7.2208  -11.1137   26.6884 C   0  0  0  0  0  0  0  0  0  0  0  0
    7.8610  -12.0041   25.8647 C   0  0  0  0  0  0  0  0  0  0  0  0
    7.3960  -13.3204   25.8525 C   0  0  0  0  0  0  0  0  0  0  0  0
    9.5385  -16.3805   25.7038 C   0  0  0  0  0  0  0  0  0  0  0  0
    9.0084  -17.4557   25.3601 O   0  0  0  0  0  0  0  0  0  0  0  0
    9.6815  -16.0850   27.0347 O   0  0  0  0  0  0  0  0  0  0  0  0
  1  5  1  0
  2  1  1  0
  2  3  1  0
  3  4  1  0
  4  5  1  0
  5  6  1  6
  6  7  2  0
  8  9  1  0
  8  6  1  0
  9 13  1  0
  9 10  1  6
 11 15  1  0
 11 10  1  0
 12 11  2  0
 13 16  1  0
 13 14  2  0
 16 17  1  0
 17 28  1  0
 17 18  1  6
 19 18  1  0
 19 27  1  0
 20 19  2  0
 21 20  1  0
 21 22  1  0
 22 23  1  0
 22 27  2  0
 23 24  2  0
 24 25  1  0
 26 25  2  0
 27 26  1  0
 28 29  2  0
 28 30  1  0
M  END
$$$$
