PDW.pdb
     RDKit          3D

 30 32  0  0  1  0  0  0  0  0999 V2000
    8.4503  -13.5156   20.4184 N   0  0  0  0  0  0  0  0  0  0  0  0
    8.2401  -12.5716   19.3104 C   0  0  0  0  0  0  0  0  0  0  0  0
    7.6358  -13.3630   18.1916 C   0  0  0  0  0  0  0  0  0  0  0  0
    7.6311  -14.8037   18.7185 C   0  0  0  0  0  0  0  0  0  0  0  0
    7.5110  -14.5851   20.1933 C   0  0  1  0  0  0  0  0  0  0  0  0
    7.8341  -15.7428   21.0278 C   0  0  0  0  0  0  0  0  0  0  0  0
    7.5634  -16.9059   20.5868 O   0  0  0  0  0  0  0  0  0  0  0  0
    8.4357  -15.6708   22.3103 N   0  0  0  0  0  0  0  0  0  0  0  0
    9.4960  -16.6399   22.6778 C   0  0  1  0  0  0  0  0  0  0  0  0
   10.5821  -16.5420   21.6343 C   0  0  0  0  0  0  0  0  0  0  0  0
   11.6355  -17.5317   21.9161 C   0  0  0  0  0  0  0  0  0  0  0  0
   11.3197  -18.6967   22.3625 O   0  0  0  0  0  0  0  0  0  0  0  0
    9.9740  -16.3168   24.0523 C   0  0  0  0  0  0  0  0  0  0  0  0
   10.7543  -15.3668   24.2553 O   0  0  0  0  0  0  0  0  0  0  0  0
   12.9945  -17.3447   21.7516 O   0  0  0  0  0  0  0  0  0  0  0  0
    9.5622  -17.0751   25.1876 N   0  0  0  0  0  0  0  0  0  0  0  0
    9.8408  -16.7141   26.5589 C   0  0  1  0  0  0  0  0  0  0  0  0
    8.5810  -16.4638   27.3493 C   0  0  0  0  0  0  0  0  0  0  0  0
    7.6272  -15.6082   26.6101 C   0  0  0  0  0  0  0  0  0  0  0  0
    6.6448  -16.0632   25.7581 C   0  0  0  0  0  0  0  0  0  0  0  0
    5.9887  -14.9923   25.2852 N   0  0  0  0  0  0  0  0  0  0  0  0
    6.5318  -13.8756   25.8166 C   0  0  0  0  0  0  0  0  0  0  0  0
    6.2369  -12.5275   25.6636 C   0  0  0  0  0  0  0  0  0  0  0  0
    6.9652  -11.5762   26.3371 C   0  0  0  0  0  0  0  0  0  0  0  0
    7.9889  -11.9584   27.1654 C   0  0  0  0  0  0  0  0  0  0  0  0
    8.3194  -13.2768   27.3500 C   0  0  0  0  0  0  0  0  0  0  0  0
    7.5711  -14.2319   26.6593 C   0  0  0  0  0  0  0  0  0  0  0  0
   10.7232  -17.7023   27.2107 C   0  0  0  0  0  0  0  0  0  0  0  0
   11.0135  -18.7547   26.6080 O   0  0  0  0  0  0  0  0  0  0  0  0
   11.2230  -17.4753   28.4668 O   0  0  0  0  0  0  0  0  0  0  0  0
  1  5  1  0
  2  1  1  0
  2  3  1  0
  3  4  1  0
  4  5  1  0
  5  6  1  1
  6  7  2  0
  8  9  1  0
  8  6  1  0
  9 13  1  0
  9 10  1  6
 11 15  1  0
 11 10  1  0
 12 11  2  0
 13 16  1  0
 13 14  2  0
 16 17  1  0
 17 28  1  0
 17 18  1  1
 19 18  1  0
 19 27  1  0
 20 19  2  0
 21 20  1  0
 21 22  1  0
 22 23  1  0
 22 27  2  0
 23 24  2  0
 24 25  1  0
 26 25  2  0
 27 26  1  0
 28 29  2  0
 28 30  1  0
M  END
$$$$
