PDW.pdb
     RDKit          3D

 30 32  0  0  1  0  0  0  0  0999 V2000
    9.1080  -14.1661   19.0001 N   0  0  0  0  0  0  0  0  0  0  0  0
    8.5151  -13.1886   18.0751 C   0  0  0  0  0  0  0  0  0  0  0  0
    7.0841  -13.0314   18.4886 C   0  0  0  0  0  0  0  0  0  0  0  0
    6.9110  -14.0557   19.6173 C   0  0  0  0  0  0  0  0  0  0  0  0
    8.2928  -14.1129   20.1873 C   0  0  1  0  0  0  0  0  0  0  0  0
    8.5666  -15.2582   21.0558 C   0  0  0  0  0  0  0  0  0  0  0  0
    7.8144  -15.4511   22.0645 O   0  0  0  0  0  0  0  0  0  0  0  0
    9.6208  -16.1866   20.8593 N   0  0  0  0  0  0  0  0  0  0  0  0
    9.8110  -17.2949   21.8257 C   0  0  1  0  0  0  0  0  0  0  0  0
   10.7085  -18.3178   21.1727 C   0  0  0  0  0  0  0  0  0  0  0  0
   10.9592  -19.4295   22.1053 C   0  0  0  0  0  0  0  0  0  0  0  0
   10.2512  -19.5438   23.1739 O   0  0  0  0  0  0  0  0  0  0  0  0
   10.3824  -16.7318   23.0821 C   0  0  0  0  0  0  0  0  0  0  0  0
   11.2659  -15.8539   23.0501 O   0  0  0  0  0  0  0  0  0  0  0  0
   11.9179  -20.4138   21.9611 O   0  0  0  0  0  0  0  0  0  0  0  0
    9.9460  -17.1699   24.3671 N   0  0  0  0  0  0  0  0  0  0  0  0
   10.2330  -16.4854   25.6071 C   0  0  1  0  0  0  0  0  0  0  0  0
    9.9485  -15.0069   25.5207 C   0  0  0  0  0  0  0  0  0  0  0  0
    8.5018  -14.7168   25.6258 C   0  0  0  0  0  0  0  0  0  0  0  0
    7.4896  -15.6235   25.3990 C   0  0  0  0  0  0  0  0  0  0  0  0
    6.3236  -14.9886   25.5945 N   0  0  0  0  0  0  0  0  0  0  0  0
    6.5747  -13.7067   25.9382 C   0  0  0  0  0  0  0  0  0  0  0  0
    5.7411  -12.6393   26.2439 C   0  0  0  0  0  0  0  0  0  0  0  0
    6.2720  -11.4133   26.5662 C   0  0  0  0  0  0  0  0  0  0  0  0
    7.6322  -11.2411   26.5867 C   0  0  0  0  0  0  0  0  0  0  0  0
    8.4976  -12.2637   26.2923 C   0  0  0  0  0  0  0  0  0  0  0  0
    7.9441  -13.5033   25.9666 C   0  0  0  0  0  0  0  0  0  0  0  0
    9.5459  -17.1217   26.7487 C   0  0  0  0  0  0  0  0  0  0  0  0
    9.7710  -16.7109   27.9044 O   0  0  0  0  0  0  0  0  0  0  0  0
    8.6678  -18.1556   26.5510 O   0  0  0  0  0  0  0  0  0  0  0  0
  1  5  1  0
  2  1  1  0
  2  3  1  0
  3  4  1  0
  4  5  1  0
  5  6  1  1
  6  7  2  0
  8  9  1  0
  8  6  1  0
  9 13  1  0
  9 10  1  6
 11 15  1  0
 11 10  1  0
 12 11  2  0
 13 16  1  0
 13 14  2  0
 16 17  1  0
 17 28  1  0
 17 18  1  6
 19 18  1  0
 19 27  1  0
 20 19  2  0
 21 20  1  0
 21 22  1  0
 22 23  1  0
 22 27  2  0
 23 24  2  0
 24 25  1  0
 26 25  2  0
 27 26  1  0
 28 29  2  0
 28 30  1  0
M  END
$$$$
