PDW.pdb
     RDKit          3D

 30 32  0  0  1  0  0  0  0  0999 V2000
    9.1942  -13.8764   19.8534 N   0  0  0  0  0  0  0  0  0  0  0  0
    8.5823  -12.8916   18.9486 C   0  0  0  0  0  0  0  0  0  0  0  0
    7.1370  -12.8078   19.3325 C   0  0  0  0  0  0  0  0  0  0  0  0
    6.9810  -13.8778   20.4206 C   0  0  0  0  0  0  0  0  0  0  0  0
    8.3506  -13.8988   21.0216 C   0  0  1  0  0  0  0  0  0  0  0  0
    8.6520  -15.0622   21.8562 C   0  0  0  0  0  0  0  0  0  0  0  0
    7.8263  -15.3872   22.7690 O   0  0  0  0  0  0  0  0  0  0  0  0
    9.8103  -15.8706   21.7265 N   0  0  0  0  0  0  0  0  0  0  0  0
   10.0814  -16.9289   22.7290 C   0  0  1  0  0  0  0  0  0  0  0  0
   11.2840  -17.7073   22.2536 C   0  0  0  0  0  0  0  0  0  0  0  0
   11.1014  -18.0970   20.8453 C   0  0  0  0  0  0  0  0  0  0  0  0
   10.0635  -18.7726   20.4950 O   0  0  0  0  0  0  0  0  0  0  0  0
   10.2907  -16.2799   24.0546 C   0  0  0  0  0  0  0  0  0  0  0  0
   11.0055  -15.2657   24.1685 O   0  0  0  0  0  0  0  0  0  0  0  0
   11.9606  -17.8097   19.8022 O   0  0  0  0  0  0  0  0  0  0  0  0
    9.6865  -16.7875   25.2423 N   0  0  0  0  0  0  0  0  0  0  0  0
   10.2501  -16.6606   26.5669 C   0  0  1  0  0  0  0  0  0  0  0  0
    9.4494  -15.7271   27.4398 C   0  0  0  0  0  0  0  0  0  0  0  0
    8.1900  -15.3067   26.7875 C   0  0  0  0  0  0  0  0  0  0  0  0
    7.2346  -16.1586   26.2781 C   0  0  0  0  0  0  0  0  0  0  0  0
    6.2454  -15.4050   25.7735 N   0  0  0  0  0  0  0  0  0  0  0  0
    6.5526  -14.1019   25.9517 C   0  0  0  0  0  0  0  0  0  0  0  0
    5.8865  -12.9296   25.6203 C   0  0  0  0  0  0  0  0  0  0  0  0
    6.4377  -11.7077   25.9236 C   0  0  0  0  0  0  0  0  0  0  0  0
    7.6521  -11.6438   26.5572 C   0  0  0  0  0  0  0  0  0  0  0  0
    8.3495  -12.7724   26.9052 C   0  0  0  0  0  0  0  0  0  0  0  0
    7.7773  -14.0065   26.5907 C   0  0  0  0  0  0  0  0  0  0  0  0
   10.4535  -17.9800   27.1978 C   0  0  0  0  0  0  0  0  0  0  0  0
    9.9383  -18.9912   26.6809 O   0  0  0  0  0  0  0  0  0  0  0  0
   11.1988  -18.1030   28.3417 O   0  0  0  0  0  0  0  0  0  0  0  0
  1  5  1  0
  2  1  1  0
  2  3  1  0
  3  4  1  0
  4  5  1  0
  5  6  1  6
  6  7  2  0
  8  9  1  0
  8  6  1  0
  9 13  1  0
  9 10  1  6
 11 15  1  0
 11 10  1  0
 12 11  2  0
 13 16  1  0
 13 14  2  0
 16 17  1  0
 17 28  1  0
 17 18  1  1
 19 18  1  0
 19 27  1  0
 20 19  2  0
 21 20  1  0
 21 22  1  0
 22 23  1  0
 22 27  2  0
 23 24  2  0
 24 25  1  0
 26 25  2  0
 27 26  1  0
 28 29  2  0
 28 30  1  0
M  END
$$$$
