PDW.pdb
     RDKit          3D

 30 32  0  0  1  0  0  0  0  0999 V2000
    9.0470  -14.0736   19.4282 N   0  0  0  0  0  0  0  0  0  0  0  0
    8.4764  -13.1932   18.3975 C   0  0  0  0  0  0  0  0  0  0  0  0
    7.0177  -13.0661   18.7125 C   0  0  0  0  0  0  0  0  0  0  0  0
    6.8133  -14.0102   19.9042 C   0  0  0  0  0  0  0  0  0  0  0  0
    8.1581  -13.9667   20.5575 C   0  0  1  0  0  0  0  0  0  0  0  0
    8.4202  -15.0319   21.5259 C   0  0  0  0  0  0  0  0  0  0  0  0
    7.5803  -15.2229   22.4633 O   0  0  0  0  0  0  0  0  0  0  0  0
    9.5544  -15.8834   21.5023 N   0  0  0  0  0  0  0  0  0  0  0  0
    9.6317  -17.0273   22.4424 C   0  0  1  0  0  0  0  0  0  0  0  0
   10.6386  -18.0047   21.8865 C   0  0  0  0  0  0  0  0  0  0  0  0
   11.9203  -17.3196   21.6487 C   0  0  0  0  0  0  0  0  0  0  0  0
   11.9931  -16.3783   20.7742 O   0  0  0  0  0  0  0  0  0  0  0  0
   10.0031  -16.5066   23.7889 C   0  0  0  0  0  0  0  0  0  0  0  0
   10.7880  -15.5469   23.9134 O   0  0  0  0  0  0  0  0  0  0  0  0
   13.1170  -17.5855   22.2859 O   0  0  0  0  0  0  0  0  0  0  0  0
    9.4802  -17.0796   24.9854 N   0  0  0  0  0  0  0  0  0  0  0  0
    9.8142  -16.6368   26.3199 C   0  0  1  0  0  0  0  0  0  0  0  0
    8.5875  -16.3778   27.1580 C   0  0  0  0  0  0  0  0  0  0  0  0
    7.6207  -15.4996   26.4637 C   0  0  0  0  0  0  0  0  0  0  0  0
    6.5610  -15.9319   25.6967 C   0  0  0  0  0  0  0  0  0  0  0  0
    5.9191  -14.8451   25.2406 N   0  0  0  0  0  0  0  0  0  0  0  0
    6.5464  -13.7406   25.6998 C   0  0  0  0  0  0  0  0  0  0  0  0
    6.2995  -12.3850   25.5292 C   0  0  0  0  0  0  0  0  0  0  0  0
    7.1143  -11.4503   26.1218 C   0  0  0  0  0  0  0  0  0  0  0  0
    8.1776  -11.8567   26.8865 C   0  0  0  0  0  0  0  0  0  0  0  0
    8.4636  -13.1833   27.0852 C   0  0  0  0  0  0  0  0  0  0  0  0
    7.6274  -14.1214   26.4770 C   0  0  0  0  0  0  0  0  0  0  0  0
   10.7563  -17.5637   26.9783 C   0  0  0  0  0  0  0  0  0  0  0  0
   11.0835  -18.6179   26.3980 O   0  0  0  0  0  0  0  0  0  0  0  0
   11.2713  -17.2781   28.2162 O   0  0  0  0  0  0  0  0  0  0  0  0
  1  5  1  0
  2  1  1  0
  2  3  1  0
  3  4  1  0
  4  5  1  0
  5  6  1  1
  6  7  2  0
  8  9  1  0
  8  6  1  0
  9 13  1  0
  9 10  1  6
 11 15  1  0
 11 10  1  0
 12 11  2  0
 13 16  1  0
 13 14  2  0
 16 17  1  0
 17 28  1  0
 17 18  1  1
 19 18  1  0
 19 27  1  0
 20 19  2  0
 21 20  1  0
 21 22  1  0
 22 23  1  0
 22 27  2  0
 23 24  2  0
 24 25  1  0
 26 25  2  0
 27 26  1  0
 28 29  2  0
 28 30  1  0
M  END
$$$$
