PDW.pdb
     RDKit          3D

 30 32  0  0  1  0  0  0  0  0999 V2000
    9.1356  -14.0475   19.7145 N   0  0  0  0  0  0  0  0  0  0  0  0
    8.4808  -13.1776   18.7259 C   0  0  0  0  0  0  0  0  0  0  0  0
    7.0164  -13.2126   19.0384 C   0  0  0  0  0  0  0  0  0  0  0  0
    6.9064  -14.2311   20.1802 C   0  0  0  0  0  0  0  0  0  0  0  0
    8.2397  -14.0868   20.8426 C   0  0  1  0  0  0  0  0  0  0  0  0
    8.6061  -15.1680   21.7580 C   0  0  0  0  0  0  0  0  0  0  0  0
    7.8155  -15.4498   22.7150 O   0  0  0  0  0  0  0  0  0  0  0  0
    9.7918  -15.9404   21.6615 N   0  0  0  0  0  0  0  0  0  0  0  0
   10.0176  -17.0578   22.6096 C   0  0  1  0  0  0  0  0  0  0  0  0
   11.2227  -17.8273   22.1258 C   0  0  0  0  0  0  0  0  0  0  0  0
   10.9771  -18.3355   20.7656 C   0  0  0  0  0  0  0  0  0  0  0  0
    9.8117  -18.7780   20.4458 O   0  0  0  0  0  0  0  0  0  0  0  0
   10.1966  -16.4881   23.9755 C   0  0  0  0  0  0  0  0  0  0  0  0
   10.9102  -15.4846   24.1655 O   0  0  0  0  0  0  0  0  0  0  0  0
   11.9008  -18.3989   19.7402 O   0  0  0  0  0  0  0  0  0  0  0  0
    9.5633  -17.0624   25.1168 N   0  0  0  0  0  0  0  0  0  0  0  0
    9.8640  -16.7085   26.4853 C   0  0  1  0  0  0  0  0  0  0  0  0
    8.6179  -16.4401   27.2913 C   0  0  0  0  0  0  0  0  0  0  0  0
    7.6754  -15.5560   26.5714 C   0  0  0  0  0  0  0  0  0  0  0  0
    6.6677  -15.9809   25.7334 C   0  0  0  0  0  0  0  0  0  0  0  0
    6.0327  -14.8908   25.2758 N   0  0  0  0  0  0  0  0  0  0  0  0
    6.6136  -13.7914   25.8032 C   0  0  0  0  0  0  0  0  0  0  0  0
    6.3521  -12.4352   25.6608 C   0  0  0  0  0  0  0  0  0  0  0  0
    7.1160  -11.5068   26.3266 C   0  0  0  0  0  0  0  0  0  0  0  0
    8.1424  -11.9198   27.1366 C   0  0  0  0  0  0  0  0  0  0  0  0
    8.4408  -13.2473   27.3100 C   0  0  0  0  0  0  0  0  0  0  0  0
    7.6565  -14.1790   26.6275 C   0  0  0  0  0  0  0  0  0  0  0  0
   10.7386  -17.7117   27.1247 C   0  0  0  0  0  0  0  0  0  0  0  0
   11.0331  -18.7517   26.5028 O   0  0  0  0  0  0  0  0  0  0  0  0
   11.2268  -17.5118   28.3899 O   0  0  0  0  0  0  0  0  0  0  0  0
  1  5  1  0
  2  1  1  0
  2  3  1  0
  3  4  1  0
  4  5  1  0
  5  6  1  1
  6  7  2  0
  8  9  1  0
  8  6  1  0
  9 13  1  0
  9 10  1  6
 11 15  1  0
 11 10  1  0
 12 11  2  0
 13 16  1  0
 13 14  2  0
 16 17  1  0
 17 28  1  0
 17 18  1  1
 19 18  1  0
 19 27  1  0
 20 19  2  0
 21 20  1  0
 21 22  1  0
 22 23  1  0
 22 27  2  0
 23 24  2  0
 24 25  1  0
 26 25  2  0
 27 26  1  0
 28 29  2  0
 28 30  1  0
M  END
$$$$
