PDW.pdb
     RDKit          3D

 30 32  0  0  1  0  0  0  0  0999 V2000
    8.6456  -13.2751   21.0201 N   0  0  0  0  0  0  0  0  0  0  0  0
    7.8490  -12.3693   20.1787 C   0  0  0  0  0  0  0  0  0  0  0  0
    6.8279  -13.2223   19.4910 C   0  0  0  0  0  0  0  0  0  0  0  0
    7.1858  -14.6495   19.9247 C   0  0  0  0  0  0  0  0  0  0  0  0
    7.7959  -14.4120   21.2696 C   0  0  1  0  0  0  0  0  0  0  0  0
    8.5700  -15.5281   21.8137 C   0  0  0  0  0  0  0  0  0  0  0  0
    7.9936  -16.6531   21.9638 O   0  0  0  0  0  0  0  0  0  0  0  0
    9.9349  -15.4550   22.1929 N   0  0  0  0  0  0  0  0  0  0  0  0
   10.6709  -16.6986   22.5247 C   0  0  1  0  0  0  0  0  0  0  0  0
   12.0491  -16.5858   21.9196 C   0  0  0  0  0  0  0  0  0  0  0  0
   12.8162  -17.8125   22.1935 C   0  0  0  0  0  0  0  0  0  0  0  0
   13.0664  -18.1561   23.4082 O   0  0  0  0  0  0  0  0  0  0  0  0
   10.6933  -16.8517   24.0074 C   0  0  0  0  0  0  0  0  0  0  0  0
   11.2989  -17.7973   24.5473 O   0  0  0  0  0  0  0  0  0  0  0  0
   13.3284  -18.6814   21.2492 O   0  0  0  0  0  0  0  0  0  0  0  0
   10.0276  -15.9291   24.8671 N   0  0  0  0  0  0  0  0  0  0  0  0
    9.9734  -16.0434   26.3067 C   0  0  1  0  0  0  0  0  0  0  0  0
    8.5922  -16.3969   26.7985 C   0  0  0  0  0  0  0  0  0  0  0  0
    7.5561  -15.5207   26.2094 C   0  0  0  0  0  0  0  0  0  0  0  0
    6.4809  -15.9504   25.4629 C   0  0  0  0  0  0  0  0  0  0  0  0
    5.7714  -14.8670   25.1109 N   0  0  0  0  0  0  0  0  0  0  0  0
    6.3713  -13.7672   25.6158 C   0  0  0  0  0  0  0  0  0  0  0  0
    6.0577  -12.4162   25.5491 C   0  0  0  0  0  0  0  0  0  0  0  0
    6.8585  -11.4858   26.1670 C   0  0  0  0  0  0  0  0  0  0  0  0
    7.9736  -11.8917   26.8540 C   0  0  0  0  0  0  0  0  0  0  0  0
    8.3262  -13.2138   26.9489 C   0  0  0  0  0  0  0  0  0  0  0  0
    7.5035  -14.1476   26.3162 C   0  0  0  0  0  0  0  0  0  0  0  0
   11.0031  -16.9712   26.8156 C   0  0  0  0  0  0  0  0  0  0  0  0
   11.6046  -17.7157   26.0162 O   0  0  0  0  0  0  0  0  0  0  0  0
   11.3018  -17.0225   28.1525 O   0  0  0  0  0  0  0  0  0  0  0  0
  1  5  1  0
  2  1  1  0
  2  3  1  0
  3  4  1  0
  4  5  1  0
  5  6  1  6
  6  7  2  0
  8  9  1  0
  8  6  1  0
  9 13  1  0
  9 10  1  1
 11 15  1  0
 11 10  1  0
 12 11  2  0
 13 16  1  0
 13 14  2  0
 16 17  1  0
 17 28  1  0
 17 18  1  6
 19 18  1  0
 19 27  1  0
 20 19  2  0
 21 20  1  0
 21 22  1  0
 22 23  1  0
 22 27  2  0
 23 24  2  0
 24 25  1  0
 26 25  2  0
 27 26  1  0
 28 29  2  0
 28 30  1  0
M  END
$$$$
