PDW.pdb
     RDKit          3D

 30 32  0  0  1  0  0  0  0  0999 V2000
    9.1538  -13.9762   19.4124 N   0  0  0  0  0  0  0  0  0  0  0  0
    8.6084  -12.9380   18.5249 C   0  0  0  0  0  0  0  0  0  0  0  0
    7.1598  -12.7991   18.8795 C   0  0  0  0  0  0  0  0  0  0  0  0
    6.9302  -13.8924   19.9307 C   0  0  0  0  0  0  0  0  0  0  0  0
    8.2831  -13.9942   20.5606 C   0  0  1  0  0  0  0  0  0  0  0  0
    8.5119  -15.1943   21.3658 C   0  0  0  0  0  0  0  0  0  0  0  0
    7.7477  -15.4158   22.3595 O   0  0  0  0  0  0  0  0  0  0  0  0
    9.5343  -16.1469   21.1225 N   0  0  0  0  0  0  0  0  0  0  0  0
    9.6489  -17.3386   21.9973 C   0  0  1  0  0  0  0  0  0  0  0  0
   10.3966  -18.3983   21.2253 C   0  0  0  0  0  0  0  0  0  0  0  0
   11.5976  -17.8115   20.6074 C   0  0  0  0  0  0  0  0  0  0  0  0
   12.0064  -16.6481   20.9756 O   0  0  0  0  0  0  0  0  0  0  0  0
   10.3385  -16.9349   23.2557 C   0  0  0  0  0  0  0  0  0  0  0  0
   11.5822  -16.9056   23.3268 O   0  0  0  0  0  0  0  0  0  0  0  0
   12.3756  -18.3931   19.6249 O   0  0  0  0  0  0  0  0  0  0  0  0
    9.6106  -16.5669   24.4255 N   0  0  0  0  0  0  0  0  0  0  0  0
   10.2062  -16.3323   25.7211 C   0  0  1  0  0  0  0  0  0  0  0  0
    9.8819  -14.9605   26.2572 C   0  0  0  0  0  0  0  0  0  0  0  0
    8.4581  -14.6128   26.0570 C   0  0  0  0  0  0  0  0  0  0  0  0
    7.4915  -15.4651   25.5701 C   0  0  0  0  0  0  0  0  0  0  0  0
    6.3328  -14.7889   25.5363 N   0  0  0  0  0  0  0  0  0  0  0  0
    6.5443  -13.5340   25.9888 C   0  0  0  0  0  0  0  0  0  0  0  0
    5.6996  -12.4448   26.1564 C   0  0  0  0  0  0  0  0  0  0  0  0
    6.1867  -11.2568   26.6466 C   0  0  0  0  0  0  0  0  0  0  0  0
    7.5138  -11.1445   26.9728 C   0  0  0  0  0  0  0  0  0  0  0  0
    8.3884  -12.1907   26.8254 C   0  0  0  0  0  0  0  0  0  0  0  0
    7.8796  -13.3911   26.3263 C   0  0  0  0  0  0  0  0  0  0  0  0
    9.8614  -17.4029   26.6777 C   0  0  0  0  0  0  0  0  0  0  0  0
   10.3918  -17.4090   27.8063 O   0  0  0  0  0  0  0  0  0  0  0  0
    8.9687  -18.3862   26.3380 O   0  0  0  0  0  0  0  0  0  0  0  0
  1  5  1  0
  2  1  1  0
  2  3  1  0
  3  4  1  0
  4  5  1  0
  5  6  1  6
  6  7  2  0
  8  9  1  0
  8  6  1  0
  9 13  1  0
  9 10  1  6
 11 15  1  0
 11 10  1  0
 12 11  2  0
 13 16  1  0
 13 14  2  0
 16 17  1  0
 17 28  1  0
 17 18  1  1
 19 18  1  0
 19 27  1  0
 20 19  2  0
 21 20  1  0
 21 22  1  0
 22 23  1  0
 22 27  2  0
 23 24  2  0
 24 25  1  0
 26 25  2  0
 27 26  1  0
 28 29  2  0
 28 30  1  0
M  END
$$$$
