PDW.pdb
     RDKit          3D

 30 32  0  0  1  0  0  0  0  0999 V2000
    9.2796  -14.3158   18.9737 N   0  0  0  0  0  0  0  0  0  0  0  0
    8.6695  -13.3852   18.0120 C   0  0  0  0  0  0  0  0  0  0  0  0
    7.2824  -13.1156   18.5087 C   0  0  0  0  0  0  0  0  0  0  0  0
    7.1421  -14.0334   19.7297 C   0  0  0  0  0  0  0  0  0  0  0  0
    8.5575  -14.1209   20.2055 C   0  0  1  0  0  0  0  0  0  0  0  0
    8.8372  -15.2053   21.1473 C   0  0  0  0  0  0  0  0  0  0  0  0
    8.1194  -15.3030   22.1941 O   0  0  0  0  0  0  0  0  0  0  0  0
    9.8613  -16.1729   20.9834 N   0  0  0  0  0  0  0  0  0  0  0  0
   10.0258  -17.2444   21.9949 C   0  0  1  0  0  0  0  0  0  0  0  0
   11.0693  -18.2032   21.4751 C   0  0  0  0  0  0  0  0  0  0  0  0
   10.7241  -18.6224   20.1063 C   0  0  0  0  0  0  0  0  0  0  0  0
    9.6725  -19.3345   19.8984 O   0  0  0  0  0  0  0  0  0  0  0  0
   10.4040  -16.6143   23.2918 C   0  0  0  0  0  0  0  0  0  0  0  0
   11.2240  -15.6772   23.3368 O   0  0  0  0  0  0  0  0  0  0  0  0
   11.4364  -18.3278   18.9596 O   0  0  0  0  0  0  0  0  0  0  0  0
    9.8481  -17.0530   24.5295 N   0  0  0  0  0  0  0  0  0  0  0  0
   10.2796  -16.5939   25.8300 C   0  0  1  0  0  0  0  0  0  0  0  0
    9.9008  -15.1559   26.0812 C   0  0  0  0  0  0  0  0  0  0  0  0
    8.4362  -14.9840   26.1980 C   0  0  0  0  0  0  0  0  0  0  0  0
    7.5014  -15.9811   26.0252 C   0  0  0  0  0  0  0  0  0  0  0  0
    6.2885  -15.4386   26.2136 N   0  0  0  0  0  0  0  0  0  0  0  0
    6.4349  -14.1268   26.5003 C   0  0  0  0  0  0  0  0  0  0  0  0
    5.5181  -13.1211   26.7758 C   0  0  0  0  0  0  0  0  0  0  0  0
    5.9476  -11.8424   27.0390 C   0  0  0  0  0  0  0  0  0  0  0  0
    7.2886  -11.5561   27.0301 C   0  0  0  0  0  0  0  0  0  0  0  0
    8.2334  -12.5140   26.7636 C   0  0  0  0  0  0  0  0  0  0  0  0
    7.7825  -13.8083   26.4980 C   0  0  0  0  0  0  0  0  0  0  0  0
    9.8111  -17.4918   26.9045 C   0  0  0  0  0  0  0  0  0  0  0  0
    9.0759  -18.4574   26.6177 O   0  0  0  0  0  0  0  0  0  0  0  0
   10.1742  -17.2743   28.2083 O   0  0  0  0  0  0  0  0  0  0  0  0
  1  5  1  0
  2  1  1  0
  2  3  1  0
  3  4  1  0
  4  5  1  0
  5  6  1  1
  6  7  2  0
  8  9  1  0
  8  6  1  0
  9 13  1  0
  9 10  1  6
 11 15  1  0
 11 10  1  0
 12 11  2  0
 13 16  1  0
 13 14  2  0
 16 17  1  0
 17 28  1  0
 17 18  1  1
 19 18  1  0
 19 27  1  0
 20 19  2  0
 21 20  1  0
 21 22  1  0
 22 23  1  0
 22 27  2  0
 23 24  2  0
 24 25  1  0
 26 25  2  0
 27 26  1  0
 28 29  2  0
 28 30  1  0
M  END
$$$$
