PDW.pdb
     RDKit          3D

 30 32  0  0  1  0  0  0  0  0999 V2000
    9.1597  -14.0960   18.8238 N   0  0  0  0  0  0  0  0  0  0  0  0
    8.5534  -13.0708   17.9610 C   0  0  0  0  0  0  0  0  0  0  0  0
    7.2590  -12.6865   18.6091 C   0  0  0  0  0  0  0  0  0  0  0  0
    7.1505  -13.6358   19.8092 C   0  0  0  0  0  0  0  0  0  0  0  0
    8.5905  -13.8820   20.1303 C   0  0  1  0  0  0  0  0  0  0  0  0
    8.8521  -15.0267   21.0034 C   0  0  0  0  0  0  0  0  0  0  0  0
    8.2854  -15.0658   22.1426 O   0  0  0  0  0  0  0  0  0  0  0  0
    9.7007  -16.1149   20.6754 N   0  0  0  0  0  0  0  0  0  0  0  0
    9.8930  -17.2144   21.6514 C   0  0  1  0  0  0  0  0  0  0  0  0
   10.8216  -18.2237   21.0213 C   0  0  0  0  0  0  0  0  0  0  0  0
   10.3545  -18.5523   19.6639 C   0  0  0  0  0  0  0  0  0  0  0  0
    9.3194  -19.3001   19.5041 O   0  0  0  0  0  0  0  0  0  0  0  0
   10.4298  -16.6342   22.9153 C   0  0  0  0  0  0  0  0  0  0  0  0
   11.5243  -16.0392   22.9360 O   0  0  0  0  0  0  0  0  0  0  0  0
   10.9297  -18.1320   18.4801 O   0  0  0  0  0  0  0  0  0  0  0  0
    9.7192  -16.7336   24.1477 N   0  0  0  0  0  0  0  0  0  0  0  0
   10.2892  -16.4571   25.4466 C   0  0  1  0  0  0  0  0  0  0  0  0
    9.9602  -15.0666   25.9288 C   0  0  0  0  0  0  0  0  0  0  0  0
    8.5013  -14.8236   25.9572 C   0  0  0  0  0  0  0  0  0  0  0  0
    7.5310  -15.7806   25.7556 C   0  0  0  0  0  0  0  0  0  0  0  0
    6.3368  -15.1772   25.8608 N   0  0  0  0  0  0  0  0  0  0  0  0
    6.5297  -13.8664   26.1231 C   0  0  0  0  0  0  0  0  0  0  0  0
    5.6481  -12.8120   26.3207 C   0  0  0  0  0  0  0  0  0  0  0  0
    6.1231  -11.5480   26.5765 C   0  0  0  0  0  0  0  0  0  0  0  0
    7.4746  -11.3246   26.6375 C   0  0  0  0  0  0  0  0  0  0  0  0
    8.3859  -12.3323   26.4492 C   0  0  0  0  0  0  0  0  0  0  0  0
    7.8890  -13.6110   26.1902 C   0  0  0  0  0  0  0  0  0  0  0  0
    9.9199  -17.4930   26.4319 C   0  0  0  0  0  0  0  0  0  0  0  0
    9.0506  -18.3367   26.1358 O   0  0  0  0  0  0  0  0  0  0  0  0
   10.5201  -17.5351   27.6636 O   0  0  0  0  0  0  0  0  0  0  0  0
  1  5  1  0
  2  1  1  0
  2  3  1  0
  3  4  1  0
  4  5  1  0
  5  6  1  1
  6  7  2  0
  8  9  1  0
  8  6  1  0
  9 13  1  0
  9 10  1  6
 11 15  1  0
 11 10  1  0
 12 11  2  0
 13 16  1  0
 13 14  2  0
 16 17  1  0
 17 28  1  0
 17 18  1  1
 19 18  1  0
 19 27  1  0
 20 19  2  0
 21 20  1  0
 21 22  1  0
 22 23  1  0
 22 27  2  0
 23 24  2  0
 24 25  1  0
 26 25  2  0
 27 26  1  0
 28 29  2  0
 28 30  1  0
M  END
$$$$
