YCW.pdb
     RDKit          3D

 33 35  0  0  1  0  0  0  0  0999 V2000
   22.6174   -7.2069  -21.8523 O   0  0  0  0  0  0  0  0  0  0  0  0
   22.0325   -8.4773  -21.7787 C   0  0  0  0  0  0  0  0  0  0  0  0
   21.1816   -8.9396  -22.7610 C   0  0  0  0  0  0  0  0  0  0  0  0
   20.6095  -10.1924  -22.6808 C   0  0  0  0  0  0  0  0  0  0  0  0
   20.8638  -11.0410  -21.6115 C   0  0  0  0  0  0  0  0  0  0  0  0
   20.2486  -12.3924  -21.5229 C   0  0  0  0  0  0  0  0  0  0  0  0
   21.2867  -13.4007  -21.9240 C   0  0  2  0  0  0  0  0  0  0  0  0
   21.6313  -13.2964  -23.3270 N   0  0  0  0  0  0  0  0  0  0  0  0
   20.9387  -14.7787  -21.5439 C   0  0  0  0  0  0  0  0  0  0  0  0
   20.2835  -15.4584  -22.3755 O   0  0  0  0  0  0  0  0  0  0  0  0
   21.7163  -10.5645  -20.6377 C   0  0  0  0  0  0  0  0  0  0  0  0
   22.2904   -9.3134  -20.7133 C   0  0  0  0  0  0  0  0  0  0  0  0
   21.3036  -15.3646  -20.3018 N   0  0  0  0  0  0  0  0  0  0  0  0
   20.9363  -16.7118  -20.0231 C   0  0  1  0  0  0  0  0  0  0  0  0
   21.8176  -17.1925  -18.8701 C   0  0  0  0  0  0  0  0  0  0  0  0
   21.2880  -18.8463  -18.3804 S   0  0  0  0  0  0  0  0  0  0  0  0
   19.5015  -16.8827  -19.7040 C   0  0  0  0  0  0  0  0  0  0  0  0
   18.9484  -16.0746  -18.9164 O   0  0  0  0  0  0  0  0  0  0  0  0
   18.7062  -17.9246  -20.2472 N   0  0  0  0  0  0  0  0  0  0  0  0
   17.3241  -18.1386  -19.9384 C   0  0  1  0  0  0  0  0  0  0  0  0
   16.4998  -18.4644  -21.1699 C   0  0  0  0  0  0  0  0  0  0  0  0
   15.0528  -18.4912  -20.8459 C   0  0  0  0  0  0  0  0  0  0  0  0
   14.3278  -17.6886  -19.9760 C   0  0  0  0  0  0  0  0  0  0  0  0
   13.0398  -18.0694  -19.9950 N   0  0  0  0  0  0  0  0  0  0  0  0
   12.8745  -19.0986  -20.8462 C   0  0  0  0  0  0  0  0  0  0  0  0
   11.7784  -19.8309  -21.2158 C   0  0  0  0  0  0  0  0  0  0  0  0
   11.9250  -20.8481  -22.1320 C   0  0  0  0  0  0  0  0  0  0  0  0
   13.1588  -21.1451  -22.6868 C   0  0  0  0  0  0  0  0  0  0  0  0
   14.2305  -20.3837  -22.2861 C   0  0  0  0  0  0  0  0  0  0  0  0
   14.1148  -19.3621  -21.3736 C   0  0  0  0  0  0  0  0  0  0  0  0
   17.2127  -19.2929  -19.0209 C   0  0  0  0  0  0  0  0  0  0  0  0
   16.3763  -19.3431  -17.9194 O   0  0  0  0  0  0  0  0  0  0  0  0
   17.9163  -20.3079  -19.2372 O   0  0  0  0  0  0  0  0  0  0  0  0
  2 12  2  0
  2  1  1  0
  3  2  1  0
  4  5  1  0
  4  3  2  0
  5 11  2  0
  6  5  1  0
  7  6  1  0
  7  8  1  6
  9 13  1  0
  9  7  1  0
 10  9  2  0
 11 12  1  0
 14 13  1  0
 14 15  1  1
 16 15  1  0
 17 14  1  0
 17 18  2  0
 19 17  1  0
 20 19  1  0
 20 21  1  6
 22 21  1  0
 22 30  1  0
 23 24  1  0
 23 22  2  0
 24 25  1  0
 25 30  2  0
 25 26  1  0
 26 27  2  0
 27 28  1  0
 29 28  2  0
 30 29  1  0
 31 20  1  0
 32 31  1  0
 33 31  2  0
M  END
$$$$
