YCW.pdb
     RDKit          3D

 33 35  0  0  1  0  0  0  0  0999 V2000
   21.3873  -16.0964  -21.5620 O   0  0  0  0  0  0  0  0  0  0  0  0
   21.9622  -16.9859  -20.6456 C   0  0  0  0  0  0  0  0  0  0  0  0
   23.1655  -16.7119  -20.0294 C   0  0  0  0  0  0  0  0  0  0  0  0
   23.7250  -17.5937  -19.1278 C   0  0  0  0  0  0  0  0  0  0  0  0
   23.1040  -18.7920  -18.8016 C   0  0  0  0  0  0  0  0  0  0  0  0
   23.7050  -19.7442  -17.8295 C   0  0  0  0  0  0  0  0  0  0  0  0
   25.1272  -19.9920  -18.2433 C   0  0  2  0  0  0  0  0  0  0  0  0
   25.2349  -21.0832  -19.1898 N   0  0  0  0  0  0  0  0  0  0  0  0
   26.0450  -20.1580  -17.1056 C   0  0  0  0  0  0  0  0  0  0  0  0
   26.4504  -21.3227  -16.8567 O   0  0  0  0  0  0  0  0  0  0  0  0
   21.9019  -19.0515  -19.4258 C   0  0  0  0  0  0  0  0  0  0  0  0
   21.3389  -18.1737  -20.3274 C   0  0  0  0  0  0  0  0  0  0  0  0
   26.4856  -19.0803  -16.2908 N   0  0  0  0  0  0  0  0  0  0  0  0
   26.9213  -19.3356  -14.9595 C   0  0  1  0  0  0  0  0  0  0  0  0
   27.4707  -18.0221  -14.4027 C   0  0  0  0  0  0  0  0  0  0  0  0
   27.7722  -18.2179  -12.6347 S   0  0  0  0  0  0  0  0  0  0  0  0
   25.8631  -19.8846  -14.0828 C   0  0  0  0  0  0  0  0  0  0  0  0
   24.6940  -19.4335  -14.1773 O   0  0  0  0  0  0  0  0  0  0  0  0
   26.1015  -20.9070  -13.1284 N   0  0  0  0  0  0  0  0  0  0  0  0
   25.0932  -21.4985  -12.3007 C   0  0  1  0  0  0  0  0  0  0  0  0
   25.6814  -22.2683  -11.1331 C   0  0  0  0  0  0  0  0  0  0  0  0
   26.3248  -21.3488  -10.1637 C   0  0  0  0  0  0  0  0  0  0  0  0
   25.7434  -20.4603   -9.2698 C   0  0  0  0  0  0  0  0  0  0  0  0
   26.7106  -19.8270   -8.5859 N   0  0  0  0  0  0  0  0  0  0  0  0
   27.9200  -20.2584   -8.9888 C   0  0  0  0  0  0  0  0  0  0  0  0
   29.1951  -19.9329   -8.6112 C   0  0  0  0  0  0  0  0  0  0  0  0
   30.2592  -20.5597   -9.2198 C   0  0  0  0  0  0  0  0  0  0  0  0
   30.0653  -21.5125  -10.2061 C   0  0  0  0  0  0  0  0  0  0  0  0
   28.7684  -21.8070  -10.5526 C   0  0  0  0  0  0  0  0  0  0  0  0
   27.6864  -21.1979   -9.9628 C   0  0  0  0  0  0  0  0  0  0  0  0
   24.2492  -20.4244  -11.7344 C   0  0  0  0  0  0  0  0  0  0  0  0
   24.6133  -19.0907  -11.6697 O   0  0  0  0  0  0  0  0  0  0  0  0
   23.1208  -20.7204  -11.2748 O   0  0  0  0  0  0  0  0  0  0  0  0
  2 12  2  0
  2  1  1  0
  3  2  1  0
  4  5  1  0
  4  3  2  0
  5 11  2  0
  6  5  1  0
  7  6  1  0
  7  8  1  6
  9 13  1  0
  9  7  1  0
 10  9  2  0
 11 12  1  0
 14 13  1  0
 14 15  1  1
 16 15  1  0
 17 14  1  0
 17 18  2  0
 19 17  1  0
 20 19  1  0
 20 21  1  1
 22 21  1  0
 22 30  1  0
 23 24  1  0
 23 22  2  0
 24 25  1  0
 25 30  2  0
 25 26  1  0
 26 27  2  0
 27 28  1  0
 29 28  2  0
 30 29  1  0
 31 20  1  0
 32 31  1  0
 33 31  2  0
M  END
$$$$
