YCW.pdb
     RDKit          3D

 33 35  0  0  1  0  0  0  0  0999 V2000
   18.5165  -16.8631  -17.4974 O   0  0  0  0  0  0  0  0  0  0  0  0
   19.3703  -17.6961  -16.7636 C   0  0  0  0  0  0  0  0  0  0  0  0
   19.1005  -19.0380  -16.5929 C   0  0  0  0  0  0  0  0  0  0  0  0
   19.9469  -19.8517  -15.8685 C   0  0  0  0  0  0  0  0  0  0  0  0
   21.1040  -19.3580  -15.2808 C   0  0  0  0  0  0  0  0  0  0  0  0
   22.0184  -20.2334  -14.4996 C   0  0  0  0  0  0  0  0  0  0  0  0
   23.2126  -20.5383  -15.3578 C   0  0  2  0  0  0  0  0  0  0  0  0
   22.8795  -21.4194  -16.4581 N   0  0  0  0  0  0  0  0  0  0  0  0
   24.3707  -21.0265  -14.5932 C   0  0  0  0  0  0  0  0  0  0  0  0
   24.2984  -22.1881  -14.1154 O   0  0  0  0  0  0  0  0  0  0  0  0
   21.3599  -18.0147  -15.4604 C   0  0  0  0  0  0  0  0  0  0  0  0
   20.5173  -17.1976  -16.1834 C   0  0  0  0  0  0  0  0  0  0  0  0
   25.5457  -20.2577  -14.3748 N   0  0  0  0  0  0  0  0  0  0  0  0
   26.4818  -20.6673  -13.3831 C   0  0  1  0  0  0  0  0  0  0  0  0
   27.7672  -19.8737  -13.6180 C   0  0  0  0  0  0  0  0  0  0  0  0
   28.4944  -20.3907  -15.1862 S   0  0  0  0  0  0  0  0  0  0  0  0
   25.9938  -20.4928  -11.9971 C   0  0  0  0  0  0  0  0  0  0  0  0
   25.1390  -19.6038  -11.7558 O   0  0  0  0  0  0  0  0  0  0  0  0
   26.4459  -21.2864  -10.9114 N   0  0  0  0  0  0  0  0  0  0  0  0
   26.1031  -21.0592   -9.5393 C   0  0  1  0  0  0  0  0  0  0  0  0
   27.0917  -21.6989   -8.5824 C   0  0  0  0  0  0  0  0  0  0  0  0
   26.9241  -21.1604   -7.2108 C   0  0  0  0  0  0  0  0  0  0  0  0
   25.7770  -21.0592   -6.4360 C   0  0  0  0  0  0  0  0  0  0  0  0
   26.0914  -20.5048   -5.2536 N   0  0  0  0  0  0  0  0  0  0  0  0
   27.4081  -20.2304   -5.2072 C   0  0  0  0  0  0  0  0  0  0  0  0
   28.2071  -19.6739   -4.2447 C   0  0  0  0  0  0  0  0  0  0  0  0
   29.5522  -19.5171   -4.4932 C   0  0  0  0  0  0  0  0  0  0  0  0
   30.1127  -19.9110   -5.6969 C   0  0  0  0  0  0  0  0  0  0  0  0
   29.2723  -20.4645   -6.6330 C   0  0  0  0  0  0  0  0  0  0  0  0
   27.9259  -20.6336   -6.4134 C   0  0  0  0  0  0  0  0  0  0  0  0
   26.1210  -19.6041   -9.2769 C   0  0  0  0  0  0  0  0  0  0  0  0
   25.1149  -18.9104   -8.6275 O   0  0  0  0  0  0  0  0  0  0  0  0
   27.1073  -18.9321   -9.6614 O   0  0  0  0  0  0  0  0  0  0  0  0
  2 12  2  0
  2  1  1  0
  3  2  1  0
  4  5  1  0
  4  3  2  0
  5 11  2  0
  6  5  1  0
  7  6  1  0
  7  8  1  6
  9 13  1  0
  9  7  1  0
 10  9  2  0
 11 12  1  0
 14 13  1  0
 14 15  1  1
 16 15  1  0
 17 14  1  0
 17 18  2  0
 19 17  1  0
 20 19  1  0
 20 21  1  1
 22 21  1  0
 22 30  1  0
 23 24  1  0
 23 22  2  0
 24 25  1  0
 25 30  2  0
 25 26  1  0
 26 27  2  0
 27 28  1  0
 29 28  2  0
 30 29  1  0
 31 20  1  0
 32 31  1  0
 33 31  2  0
M  END
$$$$
