YCW.pdb
     RDKit          3D

 33 35  0  0  1  0  0  0  0  0999 V2000
   28.5377  -14.3147  -17.4439 O   0  0  0  0  0  0  0  0  0  0  0  0
   27.8894  -15.4321  -16.9031 C   0  0  0  0  0  0  0  0  0  0  0  0
   27.6549  -15.5468  -15.5486 C   0  0  0  0  0  0  0  0  0  0  0  0
   27.0155  -16.6510  -15.0240 C   0  0  0  0  0  0  0  0  0  0  0  0
   26.5811  -17.6925  -15.8330 C   0  0  0  0  0  0  0  0  0  0  0  0
   25.8911  -18.8839  -15.2698 C   0  0  0  0  0  0  0  0  0  0  0  0
   26.9215  -19.7340  -14.5835 C   0  0  2  0  0  0  0  0  0  0  0  0
   27.8222  -20.3634  -15.5274 N   0  0  0  0  0  0  0  0  0  0  0  0
   26.3429  -20.7062  -13.6431 C   0  0  0  0  0  0  0  0  0  0  0  0
   26.0308  -21.8359  -14.1006 O   0  0  0  0  0  0  0  0  0  0  0  0
   26.8229  -17.5632  -17.1846 C   0  0  0  0  0  0  0  0  0  0  0  0
   27.4613  -16.4618  -17.7136 C   0  0  0  0  0  0  0  0  0  0  0  0
   26.1254  -20.4303  -12.2662 N   0  0  0  0  0  0  0  0  0  0  0  0
   25.0908  -21.1129  -11.5654 C   0  0  1  0  0  0  0  0  0  0  0  0
   25.3419  -20.9055  -10.0717 C   0  0  0  0  0  0  0  0  0  0  0  0
   24.0538  -21.7576   -9.1391 S   0  0  0  0  0  0  0  0  0  0  0  0
   23.7285  -20.6749  -11.9424 C   0  0  0  0  0  0  0  0  0  0  0  0
   23.4473  -19.4505  -11.9085 O   0  0  0  0  0  0  0  0  0  0  0  0
   22.7094  -21.5758  -12.3456 N   0  0  0  0  0  0  0  0  0  0  0  0
   21.3828  -21.1881  -12.7217 C   0  0  1  0  0  0  0  0  0  0  0  0
   21.0177  -21.6548  -14.1185 C   0  0  0  0  0  0  0  0  0  0  0  0
   21.6848  -20.8196  -15.1464 C   0  0  0  0  0  0  0  0  0  0  0  0
   22.9446  -20.9553  -15.7129 C   0  0  0  0  0  0  0  0  0  0  0  0
   23.1355  -19.9690  -16.6045 N   0  0  0  0  0  0  0  0  0  0  0  0
   22.0491  -19.1764  -16.6567 C   0  0  0  0  0  0  0  0  0  0  0  0
   21.7490  -18.0596  -17.3896 C   0  0  0  0  0  0  0  0  0  0  0  0
   20.5254  -17.4513  -17.2208 C   0  0  0  0  0  0  0  0  0  0  0  0
   19.5927  -17.9466  -16.3247 C   0  0  0  0  0  0  0  0  0  0  0  0
   19.9376  -19.0693  -15.6110 C   0  0  0  0  0  0  0  0  0  0  0  0
   21.1512  -19.6979  -15.7581 C   0  0  0  0  0  0  0  0  0  0  0  0
   20.4201  -21.8110  -11.7880 C   0  0  0  0  0  0  0  0  0  0  0  0
   19.0619  -21.5459  -11.7672 O   0  0  0  0  0  0  0  0  0  0  0  0
   20.8423  -22.6403  -10.9477 O   0  0  0  0  0  0  0  0  0  0  0  0
  2 12  2  0
  2  1  1  0
  3  2  1  0
  4  5  1  0
  4  3  2  0
  5 11  2  0
  6  5  1  0
  7  6  1  0
  7  8  1  6
  9 13  1  0
  9  7  1  0
 10  9  2  0
 11 12  1  0
 14 13  1  0
 14 15  1  1
 16 15  1  0
 17 14  1  0
 17 18  2  0
 19 17  1  0
 20 19  1  0
 20 21  1  6
 22 21  1  0
 22 30  1  0
 23 24  1  0
 23 22  2  0
 24 25  1  0
 25 30  2  0
 25 26  1  0
 26 27  2  0
 27 28  1  0
 29 28  2  0
 30 29  1  0
 31 20  1  0
 32 31  1  0
 33 31  2  0
M  END
$$$$
