YCW.pdb
     RDKit          3D

 33 35  0  0  1  0  0  0  0  0999 V2000
   24.1342  -13.3962  -15.9189 O   0  0  0  0  0  0  0  0  0  0  0  0
   25.0692  -14.4340  -15.8183 C   0  0  0  0  0  0  0  0  0  0  0  0
   25.5215  -14.8839  -14.5953 C   0  0  0  0  0  0  0  0  0  0  0  0
   26.4428  -15.9068  -14.5051 C   0  0  0  0  0  0  0  0  0  0  0  0
   26.9540  -16.5271  -15.6373 C   0  0  0  0  0  0  0  0  0  0  0  0
   27.9471  -17.6306  -15.5427 C   0  0  0  0  0  0  0  0  0  0  0  0
   27.2405  -18.9174  -15.8591 C   0  0  2  0  0  0  0  0  0  0  0  0
   26.5077  -18.8420  -17.1063 N   0  0  0  0  0  0  0  0  0  0  0  0
   26.3997  -19.4076  -14.7558 C   0  0  0  0  0  0  0  0  0  0  0  0
   25.1541  -19.2809  -14.8796 O   0  0  0  0  0  0  0  0  0  0  0  0
   26.4921  -16.0663  -16.8524 C   0  0  0  0  0  0  0  0  0  0  0  0
   25.5717  -15.0445  -16.9477 C   0  0  0  0  0  0  0  0  0  0  0  0
   26.9232  -20.0067  -13.5784 N   0  0  0  0  0  0  0  0  0  0  0  0
   26.0330  -20.5351  -12.6008 C   0  0  1  0  0  0  0  0  0  0  0  0
   25.3142  -21.7244  -13.2381 C   0  0  0  0  0  0  0  0  0  0  0  0
   26.5411  -22.8170  -13.9839 S   0  0  0  0  0  0  0  0  0  0  0  0
   26.7006  -20.9293  -11.3404 C   0  0  0  0  0  0  0  0  0  0  0  0
   27.9332  -21.1739  -11.3504 O   0  0  0  0  0  0  0  0  0  0  0  0
   26.0138  -21.0474  -10.1045 N   0  0  0  0  0  0  0  0  0  0  0  0
   26.6303  -21.4050   -8.8621 C   0  0  1  0  0  0  0  0  0  0  0  0
   27.8901  -20.6046   -8.5897 C   0  0  0  0  0  0  0  0  0  0  0  0
   27.6820  -19.6559   -7.4690 C   0  0  0  0  0  0  0  0  0  0  0  0
   26.8777  -18.5266   -7.4059 C   0  0  0  0  0  0  0  0  0  0  0  0
   26.9991  -17.9663   -6.1912 N   0  0  0  0  0  0  0  0  0  0  0  0
   27.8559  -18.6790   -5.4369 C   0  0  0  0  0  0  0  0  0  0  0  0
   28.3095  -18.5290   -4.1539 C   0  0  0  0  0  0  0  0  0  0  0  0
   29.2059  -19.4416   -3.6448 C   0  0  0  0  0  0  0  0  0  0  0  0
   29.6575  -20.5080   -4.4046 C   0  0  0  0  0  0  0  0  0  0  0  0
   29.1750  -20.6183   -5.6866 C   0  0  0  0  0  0  0  0  0  0  0  0
   28.2799  -19.7230   -6.2219 C   0  0  0  0  0  0  0  0  0  0  0  0
   25.6857  -21.1201   -7.7606 C   0  0  0  0  0  0  0  0  0  0  0  0
   24.4812  -20.4553   -7.9108 O   0  0  0  0  0  0  0  0  0  0  0  0
   25.9766  -21.4982   -6.6011 O   0  0  0  0  0  0  0  0  0  0  0  0
  2 12  2  0
  2  1  1  0
  3  2  1  0
  4  5  1  0
  4  3  2  0
  5 11  2  0
  6  5  1  0
  7  6  1  0
  7  8  1  6
  9 13  1  0
  9  7  1  0
 10  9  2  0
 11 12  1  0
 14 13  1  0
 14 15  1  6
 16 15  1  0
 17 14  1  0
 17 18  2  0
 19 17  1  0
 20 19  1  0
 20 21  1  1
 22 21  1  0
 22 30  1  0
 23 24  1  0
 23 22  2  0
 24 25  1  0
 25 30  2  0
 25 26  1  0
 26 27  2  0
 27 28  1  0
 29 28  2  0
 30 29  1  0
 31 20  1  0
 32 31  1  0
 33 31  2  0
M  END
$$$$
