YCW.pdb
     RDKit          3D

 33 35  0  0  1  0  0  0  0  0999 V2000
   11.7194  -13.5534  -10.2043 O   0  0  0  0  0  0  0  0  0  0  0  0
   12.5107  -12.4409  -10.5171 C   0  0  0  0  0  0  0  0  0  0  0  0
   13.1934  -12.3521  -11.7123 C   0  0  0  0  0  0  0  0  0  0  0  0
   13.9708  -11.2527  -12.0125 C   0  0  0  0  0  0  0  0  0  0  0  0
   14.1002  -10.1901  -11.1281 C   0  0  0  0  0  0  0  0  0  0  0  0
   14.9375   -9.0033  -11.4496 C   0  0  0  0  0  0  0  0  0  0  0  0
   16.3719   -9.4462  -11.4901 C   0  0  2  0  0  0  0  0  0  0  0  0
   16.8547   -9.8427  -10.1833 N   0  0  0  0  0  0  0  0  0  0  0  0
   17.2654   -8.4708  -12.1340 C   0  0  0  0  0  0  0  0  0  0  0  0
   17.6582   -7.5002  -11.4365 O   0  0  0  0  0  0  0  0  0  0  0  0
   13.4117  -10.2937   -9.9376 C   0  0  0  0  0  0  0  0  0  0  0  0
   12.6337  -11.3902   -9.6330 C   0  0  0  0  0  0  0  0  0  0  0  0
   17.6962   -8.5751  -13.4841 N   0  0  0  0  0  0  0  0  0  0  0  0
   18.5699   -7.5885  -14.0234 C   0  0  1  0  0  0  0  0  0  0  0  0
   19.6647   -8.3257  -14.7948 C   0  0  0  0  0  0  0  0  0  0  0  0
   20.9204   -8.8914  -13.6292 S   0  0  0  0  0  0  0  0  0  0  0  0
   17.8874   -6.5969  -14.8840 C   0  0  0  0  0  0  0  0  0  0  0  0
   17.1439   -7.0007  -15.8132 O   0  0  0  0  0  0  0  0  0  0  0  0
   18.0298   -5.1956  -14.7136 N   0  0  0  0  0  0  0  0  0  0  0  0
   17.4597   -4.2084  -15.5809 C   0  0  1  0  0  0  0  0  0  0  0  0
   17.4948   -2.8174  -14.9761 C   0  0  0  0  0  0  0  0  0  0  0  0
   16.7863   -1.8455  -15.8436 C   0  0  0  0  0  0  0  0  0  0  0  0
   15.7187   -2.0474  -16.7073 C   0  0  0  0  0  0  0  0  0  0  0  0
   15.3997   -0.8818  -17.2938 N   0  0  0  0  0  0  0  0  0  0  0  0
   16.2147    0.0949  -16.8547 C   0  0  0  0  0  0  0  0  0  0  0  0
   16.2997    1.4313  -17.1397 C   0  0  0  0  0  0  0  0  0  0  0  0
   17.2621    2.1936  -16.5165 C   0  0  0  0  0  0  0  0  0  0  0  0
   18.1455    1.6354  -15.6074 C   0  0  0  0  0  0  0  0  0  0  0  0
   18.0228    0.2905  -15.3527 C   0  0  0  0  0  0  0  0  0  0  0  0
   17.0722   -0.4957  -15.9593 C   0  0  0  0  0  0  0  0  0  0  0  0
   18.2463   -4.1601  -16.8321 C   0  0  0  0  0  0  0  0  0  0  0  0
   17.7008   -4.0500  -18.0993 O   0  0  0  0  0  0  0  0  0  0  0  0
   19.4967   -4.2219  -16.7635 O   0  0  0  0  0  0  0  0  0  0  0  0
  2 12  2  0
  2  1  1  0
  3  2  1  0
  4  5  1  0
  4  3  2  0
  5 11  2  0
  6  5  1  0
  7  6  1  0
  7  8  1  1
  9 13  1  0
  9  7  1  0
 10  9  2  0
 11 12  1  0
 14 13  1  0
 14 15  1  6
 16 15  1  0
 17 14  1  0
 17 18  2  0
 19 17  1  0
 20 19  1  0
 20 21  1  1
 22 21  1  0
 22 30  1  0
 23 24  1  0
 23 22  2  0
 24 25  1  0
 25 30  2  0
 25 26  1  0
 26 27  2  0
 27 28  1  0
 29 28  2  0
 30 29  1  0
 31 20  1  0
 32 31  1  0
 33 31  2  0
M  END
$$$$
