YCW.pdb
     RDKit          3D

 33 35  0  0  1  0  0  0  0  0999 V2000
   19.2234  -15.0525  -16.2361 O   0  0  0  0  0  0  0  0  0  0  0  0
   20.3130  -15.9025  -16.0086 C   0  0  0  0  0  0  0  0  0  0  0  0
   21.4041  -15.4972  -15.2684 C   0  0  0  0  0  0  0  0  0  0  0  0
   22.4734  -16.3409  -15.0491 C   0  0  0  0  0  0  0  0  0  0  0  0
   22.4989  -17.6311  -15.5618 C   0  0  0  0  0  0  0  0  0  0  0  0
   23.6505  -18.5428  -15.3263 C   0  0  0  0  0  0  0  0  0  0  0  0
   24.8045  -18.0539  -16.1537 C   0  0  2  0  0  0  0  0  0  0  0  0
   24.5123  -18.0966  -17.5718 N   0  0  0  0  0  0  0  0  0  0  0  0
   26.0757  -18.7217  -15.8336 C   0  0  0  0  0  0  0  0  0  0  0  0
   26.5181  -19.5512  -16.6698 O   0  0  0  0  0  0  0  0  0  0  0  0
   21.4010  -18.0214  -16.2995 C   0  0  0  0  0  0  0  0  0  0  0  0
   20.3302  -17.1821  -16.5214 C   0  0  0  0  0  0  0  0  0  0  0  0
   26.8121  -18.4753  -14.6435 N   0  0  0  0  0  0  0  0  0  0  0  0
   27.8395  -19.3795  -14.2504 C   0  0  1  0  0  0  0  0  0  0  0  0
   28.5830  -18.7387  -13.0783 C   0  0  0  0  0  0  0  0  0  0  0  0
   29.9499  -19.8132  -12.5963 S   0  0  0  0  0  0  0  0  0  0  0  0
   27.3411  -20.7261  -13.8928 C   0  0  0  0  0  0  0  0  0  0  0  0
   28.1209  -21.7086  -13.9705 O   0  0  0  0  0  0  0  0  0  0  0  0
   26.0119  -20.9704  -13.4611 N   0  0  0  0  0  0  0  0  0  0  0  0
   25.4909  -22.2606  -13.1212 C   0  0  1  0  0  0  0  0  0  0  0  0
   25.9644  -22.7356  -11.7602 C   0  0  0  0  0  0  0  0  0  0  0  0
   25.8035  -21.6690  -10.7424 C   0  0  0  0  0  0  0  0  0  0  0  0
   24.6703  -20.9498  -10.3888 C   0  0  0  0  0  0  0  0  0  0  0  0
   24.9865  -20.0797   -9.4155 N   0  0  0  0  0  0  0  0  0  0  0  0
   26.2910  -20.1893   -9.1034 C   0  0  0  0  0  0  0  0  0  0  0  0
   27.0864  -19.5409   -8.1971 C   0  0  0  0  0  0  0  0  0  0  0  0
   28.4178  -19.8793   -8.1052 C   0  0  0  0  0  0  0  0  0  0  0  0
   28.9681  -20.8621   -8.9112 C   0  0  0  0  0  0  0  0  0  0  0  0
   28.1319  -21.4857   -9.8059 C   0  0  0  0  0  0  0  0  0  0  0  0
   26.7991  -21.1693   -9.9202 C   0  0  0  0  0  0  0  0  0  0  0  0
   24.0153  -22.1808  -13.0663 C   0  0  0  0  0  0  0  0  0  0  0  0
   23.1681  -23.2750  -13.0842 O   0  0  0  0  0  0  0  0  0  0  0  0
   23.4725  -21.0526  -12.9987 O   0  0  0  0  0  0  0  0  0  0  0  0
  2 12  2  0
  2  1  1  0
  3  2  1  0
  4  5  1  0
  4  3  2  0
  5 11  2  0
  6  5  1  0
  7  6  1  0
  7  8  1  6
  9 13  1  0
  9  7  1  0
 10  9  2  0
 11 12  1  0
 14 13  1  0
 14 15  1  1
 16 15  1  0
 17 14  1  0
 17 18  2  0
 19 17  1  0
 20 19  1  0
 20 21  1  1
 22 21  1  0
 22 30  1  0
 23 24  1  0
 23 22  2  0
 24 25  1  0
 25 30  2  0
 25 26  1  0
 26 27  2  0
 27 28  1  0
 29 28  2  0
 30 29  1  0
 31 20  1  0
 32 31  1  0
 33 31  2  0
M  END
$$$$
