YCW.pdb
     RDKit          3D

 33 35  0  0  1  0  0  0  0  0999 V2000
   19.4212  -16.8319  -19.4143 O   0  0  0  0  0  0  0  0  0  0  0  0
   19.9359  -15.5433  -19.2246 C   0  0  0  0  0  0  0  0  0  0  0  0
   19.1818  -14.5404  -18.6518 C   0  0  0  0  0  0  0  0  0  0  0  0
   19.6965  -13.2736  -18.4686 C   0  0  0  0  0  0  0  0  0  0  0  0
   20.9922  -12.9527  -18.8511 C   0  0  0  0  0  0  0  0  0  0  0  0
   21.5496  -11.5877  -18.6542 C   0  0  0  0  0  0  0  0  0  0  0  0
   21.0503  -10.7182  -19.7722 C   0  0  2  0  0  0  0  0  0  0  0  0
   21.6019  -11.1104  -21.0529 N   0  0  0  0  0  0  0  0  0  0  0  0
   21.2250   -9.2802  -19.5152 C   0  0  0  0  0  0  0  0  0  0  0  0
   22.3454   -8.7774  -19.7884 O   0  0  0  0  0  0  0  0  0  0  0  0
   21.7334  -13.9659  -19.4222 C   0  0  0  0  0  0  0  0  0  0  0  0
   21.2236  -15.2332  -19.6074 C   0  0  0  0  0  0  0  0  0  0  0  0
   20.2026   -8.4499  -18.9818 N   0  0  0  0  0  0  0  0  0  0  0  0
   20.4422   -7.0564  -18.8139 C   0  0  1  0  0  0  0  0  0  0  0  0
   19.1821   -6.3215  -19.2713 C   0  0  0  0  0  0  0  0  0  0  0  0
   17.7780   -6.9128  -18.3048 S   0  0  0  0  0  0  0  0  0  0  0  0
   20.8067   -6.6785  -17.4304 C   0  0  0  0  0  0  0  0  0  0  0  0
   20.3552   -7.3539  -16.4717 O   0  0  0  0  0  0  0  0  0  0  0  0
   21.6501   -5.5793  -17.1247 N   0  0  0  0  0  0  0  0  0  0  0  0
   22.0422   -5.1982  -15.8008 C   0  0  1  0  0  0  0  0  0  0  0  0
   23.5387   -4.9788  -15.6813 C   0  0  0  0  0  0  0  0  0  0  0  0
   24.2785   -6.2440  -15.9081 C   0  0  0  0  0  0  0  0  0  0  0  0
   25.2844   -6.5271  -16.8216 C   0  0  0  0  0  0  0  0  0  0  0  0
   25.6648   -7.8071  -16.6756 N   0  0  0  0  0  0  0  0  0  0  0  0
   24.9503   -8.3930  -15.6972 C   0  0  0  0  0  0  0  0  0  0  0  0
   24.9562   -9.6579  -15.1733 C   0  0  0  0  0  0  0  0  0  0  0  0
   24.0872   -9.9684  -14.1516 C   0  0  0  0  0  0  0  0  0  0  0  0
   23.2075   -9.0269  -13.6435 C   0  0  0  0  0  0  0  0  0  0  0  0
   23.2372   -7.7707  -14.2001 C   0  0  0  0  0  0  0  0  0  0  0  0
   24.0933   -7.4316  -15.2206 C   0  0  0  0  0  0  0  0  0  0  0  0
   21.3849   -3.9189  -15.4574 C   0  0  0  0  0  0  0  0  0  0  0  0
   21.4377   -3.3180  -14.2118 O   0  0  0  0  0  0  0  0  0  0  0  0
   20.7283   -3.3196  -16.3416 O   0  0  0  0  0  0  0  0  0  0  0  0
  2 12  2  0
  2  1  1  0
  3  2  1  0
  4  5  1  0
  4  3  2  0
  5 11  2  0
  6  5  1  0
  7  6  1  0
  7  8  1  6
  9 13  1  0
  9  7  1  0
 10  9  2  0
 11 12  1  0
 14 13  1  0
 14 15  1  1
 16 15  1  0
 17 14  1  0
 17 18  2  0
 19 17  1  0
 20 19  1  0
 20 21  1  6
 22 21  1  0
 22 30  1  0
 23 24  1  0
 23 22  2  0
 24 25  1  0
 25 30  2  0
 25 26  1  0
 26 27  2  0
 27 28  1  0
 29 28  2  0
 30 29  1  0
 31 20  1  0
 32 31  1  0
 33 31  2  0
M  END
$$$$
