YCW.pdb
     RDKit          3D

 33 35  0  0  1  0  0  0  0  0999 V2000
   14.8126  -11.4397  -22.1399 O   0  0  0  0  0  0  0  0  0  0  0  0
   15.5671  -11.2917  -20.9693 C   0  0  0  0  0  0  0  0  0  0  0  0
   16.4052  -12.2900  -20.5181 C   0  0  0  0  0  0  0  0  0  0  0  0
   17.1450  -12.1361  -19.3639 C   0  0  0  0  0  0  0  0  0  0  0  0
   17.0792  -10.9735  -18.6075 C   0  0  0  0  0  0  0  0  0  0  0  0
   17.8762  -10.8050  -17.3628 C   0  0  0  0  0  0  0  0  0  0  0  0
   19.1330  -10.0621  -17.7150 C   0  0  2  0  0  0  0  0  0  0  0  0
   20.2114  -10.9598  -18.0746 N   0  0  0  0  0  0  0  0  0  0  0  0
   19.5440   -9.0919  -16.6883 C   0  0  0  0  0  0  0  0  0  0  0  0
   19.9399   -9.5514  -15.5861 O   0  0  0  0  0  0  0  0  0  0  0  0
   16.2370   -9.9849  -19.0715 C   0  0  0  0  0  0  0  0  0  0  0  0
   15.4958  -10.1339  -20.2242 C   0  0  0  0  0  0  0  0  0  0  0  0
   19.5140   -7.6847  -16.8837 N   0  0  0  0  0  0  0  0  0  0  0  0
   19.8972   -6.8173  -15.8214 C   0  0  1  0  0  0  0  0  0  0  0  0
   20.8299   -5.7605  -16.4134 C   0  0  0  0  0  0  0  0  0  0  0  0
   21.2132   -4.5409  -15.1403 S   0  0  0  0  0  0  0  0  0  0  0  0
   18.7527   -6.1882  -15.1257 C   0  0  0  0  0  0  0  0  0  0  0  0
   17.8465   -5.6440  -15.8053 O   0  0  0  0  0  0  0  0  0  0  0  0
   18.6224   -6.1664  -13.7131 N   0  0  0  0  0  0  0  0  0  0  0  0
   17.5189   -5.5878  -13.0066 C   0  0  1  0  0  0  0  0  0  0  0  0
   17.2895   -6.2413  -11.6567 C   0  0  0  0  0  0  0  0  0  0  0  0
   18.4286   -5.9821  -10.7432 C   0  0  0  0  0  0  0  0  0  0  0  0
   18.5038   -5.1399   -9.6425 C   0  0  0  0  0  0  0  0  0  0  0  0
   19.7347   -5.2186   -9.1106 N   0  0  0  0  0  0  0  0  0  0  0  0
   20.4881   -6.0833   -9.8147 C   0  0  0  0  0  0  0  0  0  0  0  0
   21.7836   -6.5062   -9.6836 C   0  0  0  0  0  0  0  0  0  0  0  0
   22.2877   -7.4219  -10.5797 C   0  0  0  0  0  0  0  0  0  0  0  0
   21.5105   -7.9234  -11.6107 C   0  0  0  0  0  0  0  0  0  0  0  0
   20.2164   -7.4703  -11.7030 C   0  0  0  0  0  0  0  0  0  0  0  0
   19.6857   -6.5570  -10.8234 C   0  0  0  0  0  0  0  0  0  0  0  0
   17.8079   -4.1593  -12.7563 C   0  0  0  0  0  0  0  0  0  0  0  0
   16.8828   -3.2401  -12.2930 O   0  0  0  0  0  0  0  0  0  0  0  0
   18.9656   -3.7294  -12.9724 O   0  0  0  0  0  0  0  0  0  0  0  0
  2 12  2  0
  2  1  1  0
  3  2  1  0
  4  5  1  0
  4  3  2  0
  5 11  2  0
  6  5  1  0
  7  6  1  0
  7  8  1  1
  9 13  1  0
  9  7  1  0
 10  9  2  0
 11 12  1  0
 14 13  1  0
 14 15  1  6
 16 15  1  0
 17 14  1  0
 17 18  2  0
 19 17  1  0
 20 19  1  0
 20 21  1  1
 22 21  1  0
 22 30  1  0
 23 24  1  0
 23 22  2  0
 24 25  1  0
 25 30  2  0
 25 26  1  0
 26 27  2  0
 27 28  1  0
 29 28  2  0
 30 29  1  0
 31 20  1  0
 32 31  1  0
 33 31  2  0
M  END
$$$$
