YCW.pdb
     RDKit          3D

 33 35  0  0  1  0  0  0  0  0999 V2000
   24.1361  -19.7761  -22.1117 O   0  0  0  0  0  0  0  0  0  0  0  0
   24.7698  -20.3969  -21.0280 C   0  0  0  0  0  0  0  0  0  0  0  0
   24.5110  -20.0204  -19.7264 C   0  0  0  0  0  0  0  0  0  0  0  0
   25.1397  -20.6372  -18.6645 C   0  0  0  0  0  0  0  0  0  0  0  0
   26.0578  -21.6608  -18.8577 C   0  0  0  0  0  0  0  0  0  0  0  0
   26.7367  -22.3276  -17.7144 C   0  0  0  0  0  0  0  0  0  0  0  0
   27.9451  -21.5121  -17.3542 C   0  0  2  0  0  0  0  0  0  0  0  0
   29.1583  -22.0564  -17.9286 N   0  0  0  0  0  0  0  0  0  0  0  0
   28.0791  -21.2754  -15.9084 C   0  0  0  0  0  0  0  0  0  0  0  0
   28.8684  -22.0208  -15.2725 O   0  0  0  0  0  0  0  0  0  0  0  0
   26.3058  -22.0257  -20.1644 C   0  0  0  0  0  0  0  0  0  0  0  0
   25.6802  -21.4125  -21.2288 C   0  0  0  0  0  0  0  0  0  0  0  0
   27.3692  -20.2606  -15.2116 N   0  0  0  0  0  0  0  0  0  0  0  0
   27.5970  -20.0704  -13.8189 C   0  0  1  0  0  0  0  0  0  0  0  0
   27.7108  -18.5647  -13.5799 C   0  0  0  0  0  0  0  0  0  0  0  0
   26.1059  -17.8012  -13.8907 S   0  0  0  0  0  0  0  0  0  0  0  0
   26.5524  -20.6690  -12.9586 C   0  0  0  0  0  0  0  0  0  0  0  0
   25.3965  -20.8342  -13.4233 O   0  0  0  0  0  0  0  0  0  0  0  0
   26.7896  -21.0716  -11.6190 N   0  0  0  0  0  0  0  0  0  0  0  0
   25.7925  -21.6092  -10.7423 C   0  0  1  0  0  0  0  0  0  0  0  0
   26.3363  -21.8978   -9.3556 C   0  0  0  0  0  0  0  0  0  0  0  0
   26.6566  -20.6386   -8.6406 C   0  0  0  0  0  0  0  0  0  0  0  0
   26.0498  -19.3935   -8.7301 C   0  0  0  0  0  0  0  0  0  0  0  0
   26.6707  -18.5399   -7.8993 N   0  0  0  0  0  0  0  0  0  0  0  0
   27.6721  -19.1674   -7.2556 C   0  0  0  0  0  0  0  0  0  0  0  0
   28.5843  -18.7479   -6.3249 C   0  0  0  0  0  0  0  0  0  0  0  0
   29.5110  -19.6425   -5.8383 C   0  0  0  0  0  0  0  0  0  0  0  0
   29.5385  -20.9577   -6.2716 C   0  0  0  0  0  0  0  0  0  0  0  0
   28.6039  -21.3337   -7.2064 C   0  0  0  0  0  0  0  0  0  0  0  0
   27.6669  -20.4632   -7.7102 C   0  0  0  0  0  0  0  0  0  0  0  0
   24.7071  -20.6170  -10.5877 C   0  0  0  0  0  0  0  0  0  0  0  0
   24.8533  -19.2552  -10.7866 O   0  0  0  0  0  0  0  0  0  0  0  0
   23.5663  -21.0155  -10.2533 O   0  0  0  0  0  0  0  0  0  0  0  0
  2 12  2  0
  2  1  1  0
  3  2  1  0
  4  5  1  0
  4  3  2  0
  5 11  2  0
  6  5  1  0
  7  6  1  0
  7  8  1  1
  9 13  1  0
  9  7  1  0
 10  9  2  0
 11 12  1  0
 14 13  1  0
 14 15  1  6
 16 15  1  0
 17 14  1  0
 17 18  2  0
 19 17  1  0
 20 19  1  0
 20 21  1  1
 22 21  1  0
 22 30  1  0
 23 24  1  0
 23 22  2  0
 24 25  1  0
 25 30  2  0
 25 26  1  0
 26 27  2  0
 27 28  1  0
 29 28  2  0
 30 29  1  0
 31 20  1  0
 32 31  1  0
 33 31  2  0
M  END
$$$$
