YCW.pdb
     RDKit          3D

 33 35  0  0  1  0  0  0  0  0999 V2000
   28.1260  -16.2338  -21.8358 O   0  0  0  0  0  0  0  0  0  0  0  0
   27.7511  -16.9831  -20.7136 C   0  0  0  0  0  0  0  0  0  0  0  0
   26.7833  -17.9630  -20.7887 C   0  0  0  0  0  0  0  0  0  0  0  0
   26.4198  -18.6965  -19.6782 C   0  0  0  0  0  0  0  0  0  0  0  0
   27.0100  -18.4821  -18.4398 C   0  0  0  0  0  0  0  0  0  0  0  0
   26.6202  -19.2720  -17.2411 C   0  0  0  0  0  0  0  0  0  0  0  0
   27.7304  -20.2382  -16.9425 C   0  0  2  0  0  0  0  0  0  0  0  0
   27.9074  -21.2069  -18.0048 N   0  0  0  0  0  0  0  0  0  0  0  0
   27.6044  -20.8824  -15.6259 C   0  0  0  0  0  0  0  0  0  0  0  0
   26.9932  -21.9810  -15.5774 O   0  0  0  0  0  0  0  0  0  0  0  0
   27.9757  -17.4992  -18.3809 C   0  0  0  0  0  0  0  0  0  0  0  0
   28.3423  -16.7635  -19.4876 C   0  0  0  0  0  0  0  0  0  0  0  0
   28.1331  -20.3284  -14.4289 N   0  0  0  0  0  0  0  0  0  0  0  0
   27.8672  -20.9617  -13.1816 C   0  0  1  0  0  0  0  0  0  0  0  0
   29.1736  -20.9651  -12.3875 C   0  0  0  0  0  0  0  0  0  0  0  0
   29.8041  -19.2773  -12.2934 S   0  0  0  0  0  0  0  0  0  0  0  0
   26.7772  -20.3230  -12.4112 C   0  0  0  0  0  0  0  0  0  0  0  0
   26.5369  -19.1020  -12.5866 O   0  0  0  0  0  0  0  0  0  0  0  0
   25.9782  -21.0252  -11.4723 N   0  0  0  0  0  0  0  0  0  0  0  0
   24.9080  -20.4436  -10.7185 C   0  0  1  0  0  0  0  0  0  0  0  0
   23.5616  -21.0539  -11.0599 C   0  0  0  0  0  0  0  0  0  0  0  0
   22.9080  -20.3094  -12.1635 C   0  0  0  0  0  0  0  0  0  0  0  0
   22.0576  -19.2139  -12.1075 C   0  0  0  0  0  0  0  0  0  0  0  0
   21.7026  -18.8673  -13.3557 N   0  0  0  0  0  0  0  0  0  0  0  0
   22.2841  -19.6908  -14.2473 C   0  0  0  0  0  0  0  0  0  0  0  0
   22.2432  -19.7572  -15.6141 C   0  0  0  0  0  0  0  0  0  0  0  0
   22.9620  -20.7357  -16.2633 C   0  0  0  0  0  0  0  0  0  0  0  0
   23.7254  -21.6537  -15.5612 C   0  0  0  0  0  0  0  0  0  0  0  0
   23.7364  -21.5485  -14.1910 C   0  0  0  0  0  0  0  0  0  0  0  0
   23.0292  -20.5826  -13.5155 C   0  0  0  0  0  0  0  0  0  0  0  0
   25.1471  -20.6908   -9.2803 C   0  0  0  0  0  0  0  0  0  0  0  0
   24.4305  -20.1034   -8.2524 O   0  0  0  0  0  0  0  0  0  0  0  0
   26.0582  -21.4847   -8.9462 O   0  0  0  0  0  0  0  0  0  0  0  0
  2 12  2  0
  2  1  1  0
  3  2  1  0
  4  5  1  0
  4  3  2  0
  5 11  2  0
  6  5  1  0
  7  6  1  0
  7  8  1  6
  9 13  1  0
  9  7  1  0
 10  9  2  0
 11 12  1  0
 14 13  1  0
 14 15  1  1
 16 15  1  0
 17 14  1  0
 17 18  2  0
 19 17  1  0
 20 19  1  0
 20 21  1  6
 22 21  1  0
 22 30  1  0
 23 24  1  0
 23 22  2  0
 24 25  1  0
 25 30  2  0
 25 26  1  0
 26 27  2  0
 27 28  1  0
 29 28  2  0
 30 29  1  0
 31 20  1  0
 32 31  1  0
 33 31  2  0
M  END
$$$$
