RHS.pdb
     RDKit          3D

 28 28  0  0  1  0  0  0  0  0999 V2000
   26.0525  -20.2166   -9.5081 N   0  0  0  0  0  0  0  0  0  0  0  0
   25.1459  -20.6781  -10.4965 C   0  0  0  0  0  0  0  0  0  0  0  0
   23.9296  -20.8992  -10.2020 N   0  0  0  0  0  0  0  0  0  0  0  0
   25.5712  -20.9063  -11.8490 N   0  0  0  0  0  0  0  0  0  0  0  0
   26.8888  -20.6462  -12.2979 C   0  0  0  0  0  0  0  0  0  0  0  0
   27.0862  -19.4812  -13.2031 C   0  0  0  0  0  0  0  0  0  0  0  0
   27.8129  -19.8841  -14.4526 C   0  0  0  0  0  0  0  0  0  0  0  0
   27.2219  -21.1744  -15.0408 C   0  0  2  0  0  0  0  0  0  0  0  0
   28.1964  -21.9706  -15.7081 N   0  0  0  0  0  0  0  0  0  0  0  0
   26.0276  -20.8903  -15.8702 C   0  0  0  0  0  0  0  0  0  0  0  0
   26.1702  -20.4955  -17.0693 O   0  0  0  0  0  0  0  0  0  0  0  0
   23.2740  -21.2643  -10.9211 N   0  0  0  0  0  0  0  0  0  0  0  0
   24.7089  -21.0384  -15.3834 C   0  0  2  0  0  0  0  0  0  0  0  0
   23.5398  -20.8967  -16.3439 C   0  0  0  0  0  0  0  0  0  0  0  0
   23.1299  -22.2945  -16.5593 C   0  0  0  0  0  0  0  0  0  0  0  0
   21.9583  -22.5848  -17.3940 C   0  0  0  0  0  0  0  0  0  0  0  0
   21.7849  -23.3745  -18.4940 N   0  0  0  0  0  0  0  0  0  0  0  0
   20.4862  -23.4052  -18.9008 C   0  0  0  0  0  0  0  0  0  0  0  0
   19.8584  -22.6166  -18.0258 N   0  0  0  0  0  0  0  0  0  0  0  0
   20.6840  -22.1151  -17.1247 C   0  0  0  0  0  0  0  0  0  0  0  0
   22.5763  -20.0638  -15.5605 O   0  0  0  0  0  0  0  0  0  0  0  0
   22.5477  -20.3147  -14.2950 O   0  0  0  0  0  0  0  0  0  0  0  0
   21.5455  -16.3006  -15.7904 C   0  0  0  0  0  0  0  0  0  0  0  0
   20.3920  -17.0517  -15.6220 C   0  0  2  0  0  0  0  0  0  0  0  0
   20.8182  -18.4082  -15.0631 N   0  0  0  0  0  0  0  0  0  0  0  0
   21.7240  -19.0733  -15.9906 C   0  0  0  0  0  0  0  0  0  0  0  0
   19.6341  -19.2455  -14.7746 O   0  0  0  0  0  0  0  0  0  0  0  0
   19.3761  -20.2614  -15.4627 O   0  0  0  0  0  0  0  0  0  0  0  0
  2  3  2  0
  2  1  1  0
  4  2  1  0
  5  4  1  0
  6  5  1  0
  7  6  1  0
  7  8  1  0
  8  9  1  6
 10  8  1  0
 10 11  2  0
 12 10  1  0
 13 12  1  0
 13 14  1  1
 15 14  1  0
 15 16  2  0
 17 16  1  0
 18 17  1  0
 19 18  2  0
 19 15  1  0
 20 13  1  0
 21 20  2  0
 23 22  1  0
 24 23  1  1
 24 26  1  0
 24 25  1  0
 25 20  1  0
 26 28  1  0
 27 26  2  0
M  END
$$$$
