RHS.pdb
     RDKit          3D

 28 28  0  0  1  0  0  0  0  0999 V2000
   24.5207  -21.1710   -8.6127 N   0  0  0  0  0  0  0  0  0  0  0  0
   24.4908  -20.8951  -10.0038 C   0  0  0  0  0  0  0  0  0  0  0  0
   23.4413  -21.1229  -10.6832 N   0  0  0  0  0  0  0  0  0  0  0  0
   25.6356  -20.3532  -10.6805 N   0  0  0  0  0  0  0  0  0  0  0  0
   25.9139  -20.6020  -12.0465 C   0  0  0  0  0  0  0  0  0  0  0  0
   26.8953  -21.6760  -12.3607 C   0  0  0  0  0  0  0  0  0  0  0  0
   27.0747  -21.8282  -13.8427 C   0  0  0  0  0  0  0  0  0  0  0  0
   27.3185  -20.4660  -14.5099 C   0  0  2  0  0  0  0  0  0  0  0  0
   27.1221  -19.3739  -13.6169 N   0  0  0  0  0  0  0  0  0  0  0  0
   26.5509  -20.3391  -15.7708 C   0  0  0  0  0  0  0  0  0  0  0  0
   26.7136  -21.1920  -16.6983 O   0  0  0  0  0  0  0  0  0  0  0  0
   23.4580  -21.0363  -11.7188 N   0  0  0  0  0  0  0  0  0  0  0  0
   25.6277  -19.2934  -15.9991 C   0  0  2  0  0  0  0  0  0  0  0  0
   24.8751  -19.2387  -17.3182 C   0  0  0  0  0  0  0  0  0  0  0  0
   23.5049  -19.6043  -16.9214 C   0  0  0  0  0  0  0  0  0  0  0  0
   22.9731  -20.9225  -17.2864 C   0  0  0  0  0  0  0  0  0  0  0  0
   23.5381  -22.0068  -17.8936 N   0  0  0  0  0  0  0  0  0  0  0  0
   22.6782  -23.0600  -17.9607 C   0  0  0  0  0  0  0  0  0  0  0  0
   21.5670  -22.6030  -17.3791 N   0  0  0  0  0  0  0  0  0  0  0  0
   21.6965  -21.3541  -16.9686 C   0  0  0  0  0  0  0  0  0  0  0  0
   25.0586  -17.8151  -17.7369 O   0  0  0  0  0  0  0  0  0  0  0  0
   24.9907  -16.9552  -16.7771 O   0  0  0  0  0  0  0  0  0  0  0  0
   26.1532  -14.2009  -20.6762 C   0  0  0  0  0  0  0  0  0  0  0  0
   25.8798  -15.5590  -20.6137 C   0  0  2  0  0  0  0  0  0  0  0  0
   25.4035  -15.8553  -19.1926 N   0  0  0  0  0  0  0  0  0  0  0  0
   25.2910  -17.2936  -18.9884 C   0  0  0  0  0  0  0  0  0  0  0  0
   24.1203  -15.1719  -18.9226 O   0  0  0  0  0  0  0  0  0  0  0  0
   23.0355  -15.6435  -19.3384 O   0  0  0  0  0  0  0  0  0  0  0  0
  2  3  2  0
  2  1  1  0
  4  2  1  0
  5  4  1  0
  6  5  1  0
  7  6  1  0
  7  8  1  0
  8  9  1  1
 10  8  1  0
 10 11  2  0
 12 10  1  0
 13 12  1  0
 13 14  1  6
 15 14  1  0
 15 16  2  0
 17 16  1  0
 18 17  1  0
 19 18  2  0
 19 15  1  0
 20 13  1  0
 21 20  2  0
 23 22  1  0
 24 23  1  1
 24 26  1  0
 24 25  1  0
 25 20  1  0
 26 28  1  0
 27 26  2  0
M  END
$$$$
