RHS.pdb
     RDKit          3D

 28 28  0  0  1  0  0  0  0  0999 V2000
   16.5188  -21.5697  -18.7903 N   0  0  0  0  0  0  0  0  0  0  0  0
   16.0117  -20.4806  -18.0362 C   0  0  0  0  0  0  0  0  0  0  0  0
   15.7791  -19.3631  -18.5950 N   0  0  0  0  0  0  0  0  0  0  0  0
   15.7466  -20.6071  -16.6305 N   0  0  0  0  0  0  0  0  0  0  0  0
   16.0542  -21.7739  -15.8892 C   0  0  0  0  0  0  0  0  0  0  0  0
   15.5572  -21.8454  -14.4880 C   0  0  0  0  0  0  0  0  0  0  0  0
   15.9189  -23.1555  -13.8521 C   0  0  0  0  0  0  0  0  0  0  0  0
   16.7609  -22.9383  -12.5856 C   0  0  2  0  0  0  0  0  0  0  0  0
   18.0729  -22.4641  -12.8728 N   0  0  0  0  0  0  0  0  0  0  0  0
   16.7472  -24.1390  -11.7176 C   0  0  0  0  0  0  0  0  0  0  0  0
   16.7594  -25.2969  -12.2403 O   0  0  0  0  0  0  0  0  0  0  0  0
   15.4964  -18.5410  -18.0255 N   0  0  0  0  0  0  0  0  0  0  0  0
   16.7193  -24.0591  -10.3067 C   0  0  1  0  0  0  0  0  0  0  0  0
   17.2033  -25.2414   -9.4837 C   0  0  0  0  0  0  0  0  0  0  0  0
   18.6540  -25.2359   -9.7362 C   0  0  0  0  0  0  0  0  0  0  0  0
   19.2830  -26.4013  -10.3685 C   0  0  0  0  0  0  0  0  0  0  0  0
   18.7858  -27.6023  -10.7854 N   0  0  0  0  0  0  0  0  0  0  0  0
   19.7341  -28.3624  -11.3985 C   0  0  0  0  0  0  0  0  0  0  0  0
   20.8310  -27.6031  -11.3530 N   0  0  0  0  0  0  0  0  0  0  0  0
   20.6110  -26.4444  -10.7580 C   0  0  0  0  0  0  0  0  0  0  0  0
   16.7967  -24.8586   -8.0967 O   0  0  0  0  0  0  0  0  0  0  0  0
   16.9561  -23.6105   -7.8105 O   0  0  0  0  0  0  0  0  0  0  0  0
   13.8286  -26.1122   -5.8454 C   0  0  0  0  0  0  0  0  0  0  0  0
   14.9601  -25.9824   -5.0542 C   0  0  2  0  0  0  0  0  0  0  0  0
   15.9247  -25.0613   -5.7994 N   0  0  0  0  0  0  0  0  0  0  0  0
   16.2777  -25.6390   -7.0896 C   0  0  0  0  0  0  0  0  0  0  0  0
   17.1278  -24.7987   -4.9807 O   0  0  0  0  0  0  0  0  0  0  0  0
   18.2495  -25.2478   -5.3155 O   0  0  0  0  0  0  0  0  0  0  0  0
  2  3  2  0
  2  1  1  0
  4  2  1  0
  5  4  1  0
  6  5  1  0
  7  6  1  0
  7  8  1  0
  8  9  1  6
 10  8  1  0
 10 11  2  0
 12 10  1  0
 13 12  1  0
 13 14  1  6
 15 14  1  0
 15 16  2  0
 17 16  1  0
 18 17  1  0
 19 18  2  0
 19 15  1  0
 20 13  1  0
 21 20  2  0
 23 22  1  0
 24 23  1  6
 24 26  1  0
 24 25  1  0
 25 20  1  0
 26 28  1  0
 27 26  2  0
M  END
$$$$
