RHS.pdb
     RDKit          3D

 28 28  0  0  1  0  0  0  0  0999 V2000
   18.2182  -24.3534  -10.4935 N   0  0  0  0  0  0  0  0  0  0  0  0
   17.4644  -24.4250  -11.6930 C   0  0  0  0  0  0  0  0  0  0  0  0
   16.2234  -24.6963  -11.6586 N   0  0  0  0  0  0  0  0  0  0  0  0
   18.0756  -24.1937  -12.9717 N   0  0  0  0  0  0  0  0  0  0  0  0
   19.1190  -23.2570  -13.1703 C   0  0  0  0  0  0  0  0  0  0  0  0
   18.8576  -21.8467  -12.7726 C   0  0  0  0  0  0  0  0  0  0  0  0
   19.9934  -20.9521  -13.1744 C   0  0  0  0  0  0  0  0  0  0  0  0
   19.8042  -20.4332  -14.6079 C   0  0  2  0  0  0  0  0  0  0  0  0
   18.4909  -20.6664  -15.1077 N   0  0  0  0  0  0  0  0  0  0  0  0
   20.8717  -20.9320  -15.5062 C   0  0  0  0  0  0  0  0  0  0  0  0
   20.6522  -21.9376  -16.2509 O   0  0  0  0  0  0  0  0  0  0  0  0
   15.6793  -24.7751  -12.5407 N   0  0  0  0  0  0  0  0  0  0  0  0
   22.1499  -20.3329  -15.5767 C   0  0  1  0  0  0  0  0  0  0  0  0
   23.1268  -20.7858  -16.6492 C   0  0  0  0  0  0  0  0  0  0  0  0
   22.4726  -20.3369  -17.8896 C   0  0  0  0  0  0  0  0  0  0  0  0
   23.2038  -20.4080  -19.1601 C   0  0  0  0  0  0  0  0  0  0  0  0
   24.4224  -20.9256  -19.4929 N   0  0  0  0  0  0  0  0  0  0  0  0
   24.6666  -20.8378  -20.8292 C   0  0  0  0  0  0  0  0  0  0  0  0
   23.5696  -20.2546  -21.3170 N   0  0  0  0  0  0  0  0  0  0  0  0
   22.6858  -19.9859  -20.3727 C   0  0  0  0  0  0  0  0  0  0  0  0
   24.3743  -20.0471  -16.2836 O   0  0  0  0  0  0  0  0  0  0  0  0
   24.1831  -18.8611  -15.8123 O   0  0  0  0  0  0  0  0  0  0  0  0
   28.1571  -21.4377  -15.9433 C   0  0  0  0  0  0  0  0  0  0  0  0
   27.8426  -20.2968  -15.2206 C   0  0  1  0  0  0  0  0  0  0  0  0
   26.7731  -19.5457  -16.0118 N   0  0  0  0  0  0  0  0  0  0  0  0
   25.6873  -20.4476  -16.3734 C   0  0  0  0  0  0  0  0  0  0  0  0
   27.3644  -18.9095  -17.2085 O   0  0  0  0  0  0  0  0  0  0  0  0
   27.0094  -19.2459  -18.3630 O   0  0  0  0  0  0  0  0  0  0  0  0
  2  3  2  0
  2  1  1  0
  4  2  1  0
  5  4  1  0
  6  5  1  0
  7  6  1  0
  7  8  1  0
  8  9  1  6
 10  8  1  0
 10 11  2  0
 12 10  1  0
 13 12  1  0
 13 14  1  1
 15 14  1  0
 15 16  2  0
 17 16  1  0
 18 17  1  0
 19 18  2  0
 19 15  1  0
 20 13  1  0
 21 20  2  0
 23 22  1  0
 24 23  1  1
 24 26  1  0
 24 25  1  0
 25 20  1  0
 26 28  1  0
 27 26  2  0
M  END
$$$$
