RHS.pdb
     RDKit          3D

 28 28  0  0  1  0  0  0  0  0999 V2000
   19.3870  -18.9428  -14.9992 N   0  0  0  0  0  0  0  0  0  0  0  0
   20.7288  -19.4003  -15.0480 C   0  0  0  0  0  0  0  0  0  0  0  0
   20.9831  -20.6429  -15.1268 N   0  0  0  0  0  0  0  0  0  0  0  0
   21.8311  -18.4807  -15.0114 N   0  0  0  0  0  0  0  0  0  0  0  0
   21.6732  -17.0806  -15.1535 C   0  0  0  0  0  0  0  0  0  0  0  0
   21.0173  -16.5883  -16.3956 C   0  0  0  0  0  0  0  0  0  0  0  0
   20.5408  -15.1748  -16.2318 C   0  0  0  0  0  0  0  0  0  0  0  0
   19.9541  -14.6365  -17.5455 C   0  0  2  0  0  0  0  0  0  0  0  0
   20.2985  -15.4391  -18.6707 N   0  0  0  0  0  0  0  0  0  0  0  0
   20.2718  -13.2010  -17.7287 C   0  0  0  0  0  0  0  0  0  0  0  0
   21.4309  -12.8548  -18.1171 O   0  0  0  0  0  0  0  0  0  0  0  0
   21.9599  -20.9852  -15.0314 N   0  0  0  0  0  0  0  0  0  0  0  0
   19.3302  -12.1750  -17.4864 C   0  0  2  0  0  0  0  0  0  0  0  0
   19.7653  -10.7231  -17.5968 C   0  0  0  0  0  0  0  0  0  0  0  0
   18.4819  -10.0118  -17.7196 C   0  0  0  0  0  0  0  0  0  0  0  0
   18.4621   -8.5447  -17.6928 C   0  0  0  0  0  0  0  0  0  0  0  0
   19.4576   -7.6114  -17.6532 N   0  0  0  0  0  0  0  0  0  0  0  0
   18.9706   -6.3421  -17.7221 C   0  0  0  0  0  0  0  0  0  0  0  0
   17.6492   -6.5109  -17.8068 N   0  0  0  0  0  0  0  0  0  0  0  0
   17.3077   -7.7869  -17.7936 C   0  0  0  0  0  0  0  0  0  0  0  0
   20.4939  -10.5048  -16.3095 O   0  0  0  0  0  0  0  0  0  0  0  0
   19.9713  -11.0902  -15.2852 O   0  0  0  0  0  0  0  0  0  0  0  0
   24.0245  -10.1800  -13.3551 C   0  0  0  0  0  0  0  0  0  0  0  0
   23.5637  -10.3238  -14.6552 C   0  0  1  0  0  0  0  0  0  0  0  0
   22.1817   -9.6753  -14.7151 N   0  0  0  0  0  0  0  0  0  0  0  0
   21.6351   -9.7775  -16.0618 C   0  0  0  0  0  0  0  0  0  0  0  0
   22.2497   -8.2674  -14.2679 O   0  0  0  0  0  0  0  0  0  0  0  0
   22.5553   -7.3490  -15.0648 O   0  0  0  0  0  0  0  0  0  0  0  0
  2  3  2  0
  2  1  1  0
  4  2  1  0
  5  4  1  0
  6  5  1  0
  7  6  1  0
  7  8  1  0
  8  9  1  6
 10  8  1  0
 10 11  2  0
 12 10  1  0
 13 12  1  0
 13 14  1  6
 15 14  1  0
 15 16  2  0
 17 16  1  0
 18 17  1  0
 19 18  2  0
 19 15  1  0
 20 13  1  0
 21 20  2  0
 23 22  1  0
 24 23  1  1
 24 26  1  0
 24 25  1  0
 25 20  1  0
 26 28  1  0
 27 26  2  0
M  END
$$$$
