RHS.pdb
     RDKit          3D

 28 28  0  0  1  0  0  0  0  0999 V2000
   45.9195  -13.6454   -6.2671 N   0  0  0  0  0  0  0  0  0  0  0  0
   46.8875  -13.0516   -7.1170 C   0  0  0  0  0  0  0  0  0  0  0  0
   48.0496  -13.5553   -7.2203 N   0  0  0  0  0  0  0  0  0  0  0  0
   46.5856  -11.8739   -7.8812 N   0  0  0  0  0  0  0  0  0  0  0  0
   45.3017  -11.2767   -7.9039 C   0  0  0  0  0  0  0  0  0  0  0  0
   45.0796  -10.1678   -8.8715 C   0  0  0  0  0  0  0  0  0  0  0  0
   43.6816   -9.6322   -8.7687 C   0  0  0  0  0  0  0  0  0  0  0  0
   43.6247   -8.4208   -7.8257 C   0  0  2  0  0  0  0  0  0  0  0  0
   43.9820   -8.7497   -6.4866 N   0  0  0  0  0  0  0  0  0  0  0  0
   42.3250   -7.7172   -7.9309 C   0  0  0  0  0  0  0  0  0  0  0  0
   41.8389   -7.4555   -9.0752 O   0  0  0  0  0  0  0  0  0  0  0  0
   48.7835  -13.0713   -7.7749 N   0  0  0  0  0  0  0  0  0  0  0  0
   41.5835   -7.3127   -6.7977 C   0  0  1  0  0  0  0  0  0  0  0  0
   40.2509   -6.6084   -6.9918 C   0  0  0  0  0  0  0  0  0  0  0  0
   39.3604   -7.3499   -6.0832 C   0  0  0  0  0  0  0  0  0  0  0  0
   38.8223   -8.6504   -6.4991 C   0  0  0  0  0  0  0  0  0  0  0  0
   39.0401   -9.4268   -7.6005 N   0  0  0  0  0  0  0  0  0  0  0  0
   38.3740  -10.6119   -7.5296 C   0  0  0  0  0  0  0  0  0  0  0  0
   37.7392  -10.5521   -6.3569 N   0  0  0  0  0  0  0  0  0  0  0  0
   37.9747   -9.4192   -5.7196 C   0  0  0  0  0  0  0  0  0  0  0  0
   40.5620   -5.2065   -6.5751 O   0  0  0  0  0  0  0  0  0  0  0  0
   41.1840   -5.1014   -5.4494 O   0  0  0  0  0  0  0  0  0  0  0  0
   41.1665   -2.0262   -8.7811 C   0  0  0  0  0  0  0  0  0  0  0  0
   41.6542   -2.0080   -7.4831 C   0  0  1  0  0  0  0  0  0  0  0  0
   40.6366   -2.7423   -6.6117 N   0  0  0  0  0  0  0  0  0  0  0  0
   40.2855   -4.0209   -7.2157 C   0  0  0  0  0  0  0  0  0  0  0  0
   39.4386   -1.9033   -6.3944 O   0  0  0  0  0  0  0  0  0  0  0  0
   38.3097   -2.2693   -6.7989 O   0  0  0  0  0  0  0  0  0  0  0  0
  2  3  2  0
  2  1  1  0
  4  2  1  0
  5  4  1  0
  6  5  1  0
  7  6  1  0
  7  8  1  0
  8  9  1  1
 10  8  1  0
 10 11  2  0
 12 10  1  0
 13 12  1  0
 13 14  1  6
 15 14  1  0
 15 16  2  0
 17 16  1  0
 18 17  1  0
 19 18  2  0
 19 15  1  0
 20 13  1  0
 21 20  2  0
 23 22  1  0
 24 23  1  1
 24 26  1  0
 24 25  1  0
 25 20  1  0
 26 28  1  0
 27 26  2  0
M  END
$$$$
