RHS.pdb
     RDKit          3D

 28 28  0  0  1  0  0  0  0  0999 V2000
   15.8159  -13.2935  -16.0779 N   0  0  0  0  0  0  0  0  0  0  0  0
   16.3382  -14.5715  -16.4033 C   0  0  0  0  0  0  0  0  0  0  0  0
   15.6367  -15.4073  -17.0546 N   0  0  0  0  0  0  0  0  0  0  0  0
   17.6651  -14.9558  -16.0110 N   0  0  0  0  0  0  0  0  0  0  0  0
   18.6970  -14.0194  -15.7587 C   0  0  0  0  0  0  0  0  0  0  0  0
   19.6510  -13.7371  -16.8658 C   0  0  0  0  0  0  0  0  0  0  0  0
   20.7374  -12.8036  -16.4188 C   0  0  0  0  0  0  0  0  0  0  0  0
   20.4328  -11.3600  -16.8468 C   0  0  2  0  0  0  0  0  0  0  0  0
   19.9996  -11.2682  -18.2006 N   0  0  0  0  0  0  0  0  0  0  0  0
   21.5616  -10.4545  -16.5286 C   0  0  0  0  0  0  0  0  0  0  0  0
   22.0111  -10.3980  -15.3416 O   0  0  0  0  0  0  0  0  0  0  0  0
   16.0363  -16.3271  -17.3278 N   0  0  0  0  0  0  0  0  0  0  0  0
   22.1758   -9.6318  -17.5000 C   0  0  1  0  0  0  0  0  0  0  0  0
   23.2461   -8.6425  -17.0695 C   0  0  0  0  0  0  0  0  0  0  0  0
   24.1078   -8.5630  -18.2609 C   0  0  0  0  0  0  0  0  0  0  0  0
   25.1766   -7.5589  -18.3153 C   0  0  0  0  0  0  0  0  0  0  0  0
   26.4680   -7.5645  -17.8727 N   0  0  0  0  0  0  0  0  0  0  0  0
   27.1299   -6.4253  -18.2149 C   0  0  0  0  0  0  0  0  0  0  0  0
   26.2182   -5.7139  -18.8816 N   0  0  0  0  0  0  0  0  0  0  0  0
   25.0589   -6.3416  -18.9644 C   0  0  0  0  0  0  0  0  0  0  0  0
   22.4498   -7.4115  -16.7759 O   0  0  0  0  0  0  0  0  0  0  0  0
   21.3370   -7.3191  -17.4228 O   0  0  0  0  0  0  0  0  0  0  0  0
   21.5862   -5.5696  -13.5238 C   0  0  0  0  0  0  0  0  0  0  0  0
   20.8474   -5.4047  -14.6857 C   0  0  1  0  0  0  0  0  0  0  0  0
   21.8445   -5.2174  -15.8280 N   0  0  0  0  0  0  0  0  0  0  0  0
   22.7288   -6.3718  -15.9194 C   0  0  0  0  0  0  0  0  0  0  0  0
   22.6112   -3.9659  -15.6472 O   0  0  0  0  0  0  0  0  0  0  0  0
   23.8450   -3.9887  -15.4258 O   0  0  0  0  0  0  0  0  0  0  0  0
  2  3  2  0
  2  1  1  0
  4  2  1  0
  5  4  1  0
  6  5  1  0
  7  6  1  0
  7  8  1  0
  8  9  1  6
 10  8  1  0
 10 11  2  0
 12 10  1  0
 13 12  1  0
 13 14  1  6
 15 14  1  0
 15 16  2  0
 17 16  1  0
 18 17  1  0
 19 18  2  0
 19 15  1  0
 20 13  1  0
 21 20  2  0
 23 22  1  0
 24 23  1  6
 24 26  1  0
 24 25  1  0
 25 20  1  0
 26 28  1  0
 27 26  2  0
M  END
$$$$
