RHS.pdb
     RDKit          3D

 28 28  0  0  1  0  0  0  0  0999 V2000
   24.4054  -28.1416  -20.3716 N   0  0  0  0  0  0  0  0  0  0  0  0
   25.7549  -28.3322  -19.9784 C   0  0  0  0  0  0  0  0  0  0  0  0
   26.6295  -28.6879  -20.8290 N   0  0  0  0  0  0  0  0  0  0  0  0
   26.1703  -28.1293  -18.6188 N   0  0  0  0  0  0  0  0  0  0  0  0
   25.3306  -27.5571  -17.6325 C   0  0  0  0  0  0  0  0  0  0  0  0
   24.4089  -26.4711  -18.0644 C   0  0  0  0  0  0  0  0  0  0  0  0
   23.5315  -26.0242  -16.9320 C   0  0  0  0  0  0  0  0  0  0  0  0
   24.1203  -24.7886  -16.2345 C   0  0  2  0  0  0  0  0  0  0  0  0
   25.5009  -24.9415  -15.9192 N   0  0  0  0  0  0  0  0  0  0  0  0
   23.2944  -24.3809  -15.0739 C   0  0  0  0  0  0  0  0  0  0  0  0
   23.6284  -24.7421  -13.9026 O   0  0  0  0  0  0  0  0  0  0  0  0
   27.6098  -28.8627  -20.5311 N   0  0  0  0  0  0  0  0  0  0  0  0
   22.1276  -23.5944  -15.2076 C   0  0  1  0  0  0  0  0  0  0  0  0
   21.5266  -22.9377  -13.9760 C   0  0  0  0  0  0  0  0  0  0  0  0
   22.4209  -21.7887  -13.7561 C   0  0  0  0  0  0  0  0  0  0  0  0
   23.6295  -21.9579  -12.9411 C   0  0  0  0  0  0  0  0  0  0  0  0
   24.2022  -23.0527  -12.3606 N   0  0  0  0  0  0  0  0  0  0  0  0
   25.3822  -22.7499  -11.7530 C   0  0  0  0  0  0  0  0  0  0  0  0
   25.5280  -21.4412  -11.9722 N   0  0  0  0  0  0  0  0  0  0  0  0
   24.5232  -20.9368  -12.6656 C   0  0  0  0  0  0  0  0  0  0  0  0
   20.1461  -22.5918  -14.4346 O   0  0  0  0  0  0  0  0  0  0  0  0
   20.0938  -21.9112  -15.5297 O   0  0  0  0  0  0  0  0  0  0  0  0
   15.3530  -22.6697  -14.4159 C   0  0  0  0  0  0  0  0  0  0  0  0
   16.4911  -23.0016  -13.6964 C   0  0  2  0  0  0  0  0  0  0  0  0
   17.6858  -22.4328  -14.4602 N   0  0  0  0  0  0  0  0  0  0  0  0
   18.9320  -22.8951  -13.8633 C   0  0  0  0  0  0  0  0  0  0  0  0
   17.6226  -20.9559  -14.4966 O   0  0  0  0  0  0  0  0  0  0  0  0
   18.1675  -20.2623  -13.6056 O   0  0  0  0  0  0  0  0  0  0  0  0
  2  3  2  0
  2  1  1  0
  4  2  1  0
  5  4  1  0
  6  5  1  0
  7  6  1  0
  7  8  1  0
  8  9  1  1
 10  8  1  0
 10 11  2  0
 12 10  1  0
 13 12  1  0
 13 14  1  1
 15 14  1  0
 15 16  2  0
 17 16  1  0
 18 17  1  0
 19 18  2  0
 19 15  1  0
 20 13  1  0
 21 20  2  0
 23 22  1  0
 24 23  1  6
 24 26  1  0
 24 25  1  0
 25 20  1  0
 26 28  1  0
 27 26  2  0
M  END
$$$$
