RHS.pdb
     RDKit          3D

 28 28  0  0  1  0  0  0  0  0999 V2000
   26.8457  -19.0975  -18.1068 N   0  0  0  0  0  0  0  0  0  0  0  0
   27.6737  -20.0141  -17.4094 C   0  0  0  0  0  0  0  0  0  0  0  0
   28.0792  -21.0764  -17.9770 N   0  0  0  0  0  0  0  0  0  0  0  0
   28.0765  -19.7707  -16.0527 N   0  0  0  0  0  0  0  0  0  0  0  0
   27.7272  -18.5962  -15.3428 C   0  0  0  0  0  0  0  0  0  0  0  0
   27.1411  -18.7658  -13.9851 C   0  0  0  0  0  0  0  0  0  0  0  0
   27.0131  -20.2179  -13.6288 C   0  0  0  0  0  0  0  0  0  0  0  0
   26.4367  -20.3885  -12.2151 C   0  0  2  0  0  0  0  0  0  0  0  0
   27.2584  -21.1997  -11.3810 N   0  0  0  0  0  0  0  0  0  0  0  0
   25.0243  -20.8338  -12.2598 C   0  0  0  0  0  0  0  0  0  0  0  0
   24.7375  -22.0500  -12.0301 O   0  0  0  0  0  0  0  0  0  0  0  0
   28.6454  -21.7696  -17.4488 N   0  0  0  0  0  0  0  0  0  0  0  0
   23.9569  -19.9547  -12.5527 C   0  0  2  0  0  0  0  0  0  0  0  0
   22.5362  -20.4930  -12.5865 C   0  0  0  0  0  0  0  0  0  0  0  0
   21.8783  -19.7305  -11.5122 C   0  0  0  0  0  0  0  0  0  0  0  0
   20.4310  -19.8656  -11.3106 C   0  0  0  0  0  0  0  0  0  0  0  0
   19.4742  -20.5877  -11.9639 N   0  0  0  0  0  0  0  0  0  0  0  0
   18.2534  -20.4695  -11.3735 C   0  0  0  0  0  0  0  0  0  0  0  0
   18.4765  -19.6577  -10.3377 N   0  0  0  0  0  0  0  0  0  0  0  0
   19.7402  -19.2803  -10.2632 C   0  0  0  0  0  0  0  0  0  0  0  0
   22.0934  -20.1513  -13.9732 O   0  0  0  0  0  0  0  0  0  0  0  0
   22.5619  -19.0404  -14.4332 O   0  0  0  0  0  0  0  0  0  0  0  0
   19.7848  -22.3429  -16.4765 C   0  0  0  0  0  0  0  0  0  0  0  0
   20.6938  -21.5101  -17.1116 C   0  0  1  0  0  0  0  0  0  0  0  0
   20.9751  -20.3469  -16.1619 N   0  0  0  0  0  0  0  0  0  0  0  0
   21.2670  -20.8471  -14.8249 C   0  0  0  0  0  0  0  0  0  0  0  0
   19.8368  -19.4033  -16.1461 O   0  0  0  0  0  0  0  0  0  0  0  0
   19.0828  -19.3148  -15.1482 O   0  0  0  0  0  0  0  0  0  0  0  0
  2  3  2  0
  2  1  1  0
  4  2  1  0
  5  4  1  0
  6  5  1  0
  7  6  1  0
  7  8  1  0
  8  9  1  1
 10  8  1  0
 10 11  2  0
 12 10  1  0
 13 12  1  0
 13 14  1  6
 15 14  1  0
 15 16  2  0
 17 16  1  0
 18 17  1  0
 19 18  2  0
 19 15  1  0
 20 13  1  0
 21 20  2  0
 23 22  1  0
 24 23  1  6
 24 26  1  0
 24 25  1  0
 25 20  1  0
 26 28  1  0
 27 26  2  0
M  END
$$$$
