RHS.pdb
     RDKit          3D

 28 28  0  0  1  0  0  0  0  0999 V2000
   21.4795  -25.5335  -16.2650 N   0  0  0  0  0  0  0  0  0  0  0  0
   22.3922  -24.5228  -15.8680 C   0  0  0  0  0  0  0  0  0  0  0  0
   21.9931  -23.5245  -15.1906 N   0  0  0  0  0  0  0  0  0  0  0  0
   23.7836  -24.5974  -16.2156 N   0  0  0  0  0  0  0  0  0  0  0  0
   24.3121  -25.5908  -17.0754 C   0  0  0  0  0  0  0  0  0  0  0  0
   25.7668  -25.5260  -17.3835 C   0  0  0  0  0  0  0  0  0  0  0  0
   26.5850  -25.4935  -16.1260 C   0  0  0  0  0  0  0  0  0  0  0  0
   28.0861  -25.4368  -16.4477 C   0  0  2  0  0  0  0  0  0  0  0  0
   28.4458  -24.2740  -17.1875 N   0  0  0  0  0  0  0  0  0  0  0  0
   28.5507  -26.6974  -17.0724 C   0  0  0  0  0  0  0  0  0  0  0  0
   29.1246  -26.6672  -18.2054 O   0  0  0  0  0  0  0  0  0  0  0  0
   22.6624  -22.7810  -14.9084 N   0  0  0  0  0  0  0  0  0  0  0  0
   28.3827  -27.9593  -16.4582 C   0  0  2  0  0  0  0  0  0  0  0  0
   29.0170  -29.1866  -17.0916 C   0  0  0  0  0  0  0  0  0  0  0  0
   29.0889  -30.1295  -15.9629 C   0  0  0  0  0  0  0  0  0  0  0  0
   29.3743  -31.5458  -16.2201 C   0  0  0  0  0  0  0  0  0  0  0  0
   29.7318  -32.2220  -17.3509 N   0  0  0  0  0  0  0  0  0  0  0  0
   29.9747  -33.5383  -17.1033 C   0  0  0  0  0  0  0  0  0  0  0  0
   29.7606  -33.6617  -15.7916 N   0  0  0  0  0  0  0  0  0  0  0  0
   29.4071  -32.5174  -15.2342 C   0  0  0  0  0  0  0  0  0  0  0  0
   28.0333  -29.5448  -18.1592 O   0  0  0  0  0  0  0  0  0  0  0  0
   26.8094  -29.2328  -17.8949 O   0  0  0  0  0  0  0  0  0  0  0  0
   26.6420  -30.4720  -22.6134 C   0  0  0  0  0  0  0  0  0  0  0  0
   27.7136  -30.5358  -21.7354 C   0  0  2  0  0  0  0  0  0  0  0  0
   27.1553  -30.3157  -20.3304 N   0  0  0  0  0  0  0  0  0  0  0  0
   28.2437  -30.1519  -19.3756 C   0  0  0  0  0  0  0  0  0  0  0  0
   26.2656  -31.4321  -19.9450 O   0  0  0  0  0  0  0  0  0  0  0  0
   26.6899  -32.3901  -19.2564 O   0  0  0  0  0  0  0  0  0  0  0  0
  2  3  2  0
  2  1  1  0
  4  2  1  0
  5  4  1  0
  6  5  1  0
  7  6  1  0
  7  8  1  0
  8  9  1  6
 10  8  1  0
 10 11  2  0
 12 10  1  0
 13 12  1  0
 13 14  1  1
 15 14  1  0
 15 16  2  0
 17 16  1  0
 18 17  1  0
 19 18  2  0
 19 15  1  0
 20 13  1  0
 21 20  2  0
 23 22  1  0
 24 23  1  6
 24 26  1  0
 24 25  1  0
 25 20  1  0
 26 28  1  0
 27 26  2  0
M  END
$$$$
