DKM.pdb
     RDKit          3D

 26 25  0  0  1  0  0  0  0  0999 V2000
   17.9260  -12.4299  -15.4109 N   0  0  0  0  0  0  0  0  0  0  0  0
   18.6203  -12.0920  -16.6295 C   0  0  1  0  0  0  0  0  0  0  0  0
   17.9060  -12.6543  -17.8143 C   0  0  0  0  0  0  0  0  0  0  0  0
   17.6837  -14.1018  -17.5982 C   0  0  0  0  0  0  0  0  0  0  0  0
   16.5177  -14.5611  -17.6103 O   0  0  0  0  0  0  0  0  0  0  0  0
   18.8183  -10.6422  -16.6845 C   0  0  0  0  0  0  0  0  0  0  0  0
   19.5097  -10.1275  -17.5940 O   0  0  0  0  0  0  0  0  0  0  0  0
   18.7287  -14.9868  -17.3792 O   0  0  0  0  0  0  0  0  0  0  0  0
   18.2162   -9.8251  -15.6930 N   0  0  0  0  0  0  0  0  0  0  0  0
   18.3324   -8.3960  -15.6591 C   0  0  1  0  0  0  0  0  0  0  0  0
   17.0668   -7.7944  -15.0491 C   0  0  0  0  0  0  0  0  0  0  0  0
   15.9090   -7.8656  -15.9829 C   0  0  0  0  0  0  0  0  0  0  0  0
   14.6868   -7.2702  -15.3410 C   0  0  0  0  0  0  0  0  0  0  0  0
   13.5026   -7.3519  -16.2461 C   0  0  0  0  0  0  0  0  0  0  0  0
   12.3504   -6.6940  -15.6394 N   0  0  0  0  0  0  0  0  0  0  0  0
   19.4293   -8.0262  -14.7303 C   0  0  0  0  0  0  0  0  0  0  0  0
   19.6200   -8.7521  -13.7130 O   0  0  0  0  0  0  0  0  0  0  0  0
   26.4172   -9.5315  -14.5870 C   0  0  0  0  0  0  0  0  0  0  0  0
   24.6947   -9.4597  -15.0607 S   0  0  0  0  0  0  0  0  0  0  0  0
   23.7873   -8.0403  -14.5004 C   0  0  0  0  0  0  0  0  0  0  0  0
   22.3551   -7.9642  -14.8929 C   0  0  0  0  0  0  0  0  0  0  0  0
   21.5695   -6.8274  -14.3379 C   0  0  2  0  0  0  0  0  0  0  0  0
   20.2392   -6.8941  -14.9743 N   0  0  0  0  0  0  0  0  0  0  0  0
   22.1862   -5.5088  -14.6762 C   0  0  0  0  0  0  0  0  0  0  0  0
   21.9034   -4.9162  -15.8967 O   0  0  0  0  0  0  0  0  0  0  0  0
   22.9489   -4.9306  -13.8850 O   0  0  0  0  0  0  0  0  0  0  0  0
  2  1  1  1
  2  3  1  0
  3  4  1  0
  4  8  1  0
  5  4  2  0
  6  2  1  0
  7  6  2  0
  9  6  1  0
 10 11  1  1
 10  9  1  0
 11 12  1  0
 12 13  1  0
 14 13  1  0
 14 15  1  0
 16 10  1  0
 17 16  2  0
 19 20  1  0
 19 18  1  0
 22 21  1  6
 21 20  1  0
 22 23  1  0
 23 16  1  0
 24 22  1  0
 24 25  1  0
 26 24  2  0
M  END
$$$$
