DKM.pdb
     RDKit          3D

 26 25  0  0  1  0  0  0  0  0999 V2000
   24.8321  -22.2117  -15.4940 N   0  0  0  0  0  0  0  0  0  0  0  0
   25.1330  -21.1020  -14.6226 C   0  0  1  0  0  0  0  0  0  0  0  0
   25.9960  -20.1038  -15.3218 C   0  0  0  0  0  0  0  0  0  0  0  0
   27.2973  -20.7338  -15.6398 C   0  0  0  0  0  0  0  0  0  0  0  0
   27.5474  -21.8895  -15.2245 O   0  0  0  0  0  0  0  0  0  0  0  0
   23.8824  -20.5477  -14.1000 C   0  0  0  0  0  0  0  0  0  0  0  0
   23.8977  -19.5798  -13.3043 O   0  0  0  0  0  0  0  0  0  0  0  0
   28.2685  -20.0887  -16.3907 O   0  0  0  0  0  0  0  0  0  0  0  0
   22.6499  -21.1212  -14.5065 N   0  0  0  0  0  0  0  0  0  0  0  0
   21.3727  -20.7057  -14.0034 C   0  0  1  0  0  0  0  0  0  0  0  0
   20.5103  -20.1947  -15.1571 C   0  0  0  0  0  0  0  0  0  0  0  0
   20.9941  -18.8864  -15.6785 C   0  0  0  0  0  0  0  0  0  0  0  0
   20.1048  -18.4109  -16.7935 C   0  0  0  0  0  0  0  0  0  0  0  0
   20.6374  -17.1652  -17.4204 C   0  0  0  0  0  0  0  0  0  0  0  0
   19.7491  -16.7094  -18.4841 N   0  0  0  0  0  0  0  0  0  0  0  0
   20.6566  -21.8931  -13.4747 C   0  0  0  0  0  0  0  0  0  0  0  0
   20.7105  -22.9673  -14.1390 O   0  0  0  0  0  0  0  0  0  0  0  0
   18.0125  -25.4359   -6.9205 C   0  0  0  0  0  0  0  0  0  0  0  0
   18.7688  -24.0650   -7.7839 S   0  0  0  0  0  0  0  0  0  0  0  0
   18.6229  -24.0781   -9.5532 C   0  0  0  0  0  0  0  0  0  0  0  0
   19.3594  -23.0192  -10.2930 C   0  0  0  0  0  0  0  0  0  0  0  0
   19.2539  -23.0448  -11.7782 C   0  0  2  0  0  0  0  0  0  0  0  0
   19.9333  -21.8269  -12.2623 N   0  0  0  0  0  0  0  0  0  0  0  0
   17.8315  -23.0018  -12.2345 C   0  0  0  0  0  0  0  0  0  0  0  0
   17.2113  -21.7764  -12.4207 O   0  0  0  0  0  0  0  0  0  0  0  0
   17.1911  -24.0434  -12.4514 O   0  0  0  0  0  0  0  0  0  0  0  0
  2  1  1  6
  2  3  1  0
  3  4  1  0
  4  8  1  0
  5  4  2  0
  6  2  1  0
  7  6  2  0
  9  6  1  0
 10 11  1  6
 10  9  1  0
 11 12  1  0
 12 13  1  0
 14 13  1  0
 14 15  1  0
 16 10  1  0
 17 16  2  0
 19 20  1  0
 19 18  1  0
 22 21  1  1
 21 20  1  0
 22 23  1  0
 23 16  1  0
 24 22  1  0
 24 25  1  0
 26 24  2  0
M  END
$$$$
