DKM.pdb
     RDKit          3D

 26 25  0  0  1  0  0  0  0  0999 V2000
   19.6862  -13.2909  -19.1768 N   0  0  0  0  0  0  0  0  0  0  0  0
   19.7570  -12.9430  -17.7785 C   0  0  1  0  0  0  0  0  0  0  0  0
   20.9113  -13.6284  -17.1243 C   0  0  0  0  0  0  0  0  0  0  0  0
   20.6216  -15.0774  -17.0359 C   0  0  0  0  0  0  0  0  0  0  0  0
   21.4374  -15.8419  -16.4697 O   0  0  0  0  0  0  0  0  0  0  0  0
   19.7753  -11.4848  -17.6458 C   0  0  0  0  0  0  0  0  0  0  0  0
   20.4019  -10.7778  -18.4690 O   0  0  0  0  0  0  0  0  0  0  0  0
   19.4659  -15.6349  -17.5621 O   0  0  0  0  0  0  0  0  0  0  0  0
   19.0731  -10.8805  -16.5712 N   0  0  0  0  0  0  0  0  0  0  0  0
   18.9012   -9.4639  -16.4273 C   0  0  1  0  0  0  0  0  0  0  0  0
   17.7835   -9.1839  -15.4232 C   0  0  0  0  0  0  0  0  0  0  0  0
   16.4360   -9.2605  -16.0524 C   0  0  0  0  0  0  0  0  0  0  0  0
   15.3670   -9.0362  -15.0193 C   0  0  0  0  0  0  0  0  0  0  0  0
   14.0028   -9.1757  -15.6090 C   0  0  0  0  0  0  0  0  0  0  0  0
   12.9858   -9.0989  -14.5659 N   0  0  0  0  0  0  0  0  0  0  0  0
   20.1276   -8.8916  -15.8184 C   0  0  0  0  0  0  0  0  0  0  0  0
   20.6196   -9.4723  -14.8090 O   0  0  0  0  0  0  0  0  0  0  0  0
   27.0700   -5.6931  -17.3216 C   0  0  0  0  0  0  0  0  0  0  0  0
   25.4508   -6.2891  -17.7904 S   0  0  0  0  0  0  0  0  0  0  0  0
   24.2808   -6.4960  -16.4713 C   0  0  0  0  0  0  0  0  0  0  0  0
   22.9544   -7.0608  -16.8361 C   0  0  0  0  0  0  0  0  0  0  0  0
   21.9731   -7.2309  -15.7290 C   0  0  2  0  0  0  0  0  0  0  0  0
   20.7304   -7.7295  -16.3507 N   0  0  0  0  0  0  0  0  0  0  0  0
   21.6711   -5.9340  -15.0507 C   0  0  0  0  0  0  0  0  0  0  0  0
   22.4817   -5.5014  -14.0131 O   0  0  0  0  0  0  0  0  0  0  0  0
   20.7065   -5.2330  -15.3977 O   0  0  0  0  0  0  0  0  0  0  0  0
  2  1  1  6
  2  3  1  0
  3  4  1  0
  4  8  1  0
  5  4  2  0
  6  2  1  0
  7  6  2  0
  9  6  1  0
 10 11  1  1
 10  9  1  0
 11 12  1  0
 12 13  1  0
 14 13  1  0
 14 15  1  0
 16 10  1  0
 17 16  2  0
 19 20  1  0
 19 18  1  0
 22 21  1  6
 21 20  1  0
 22 23  1  0
 23 16  1  0
 24 22  1  0
 24 25  1  0
 26 24  2  0
M  END
$$$$
