DKM.pdb
     RDKit          3D

 26 25  0  0  1  0  0  0  0  0999 V2000
   18.6465  -21.4819  -13.5566 N   0  0  0  0  0  0  0  0  0  0  0  0
   19.6996  -20.5581  -13.2121 C   0  0  1  0  0  0  0  0  0  0  0  0
   19.2538  -19.6342  -12.1268 C   0  0  0  0  0  0  0  0  0  0  0  0
   18.0516  -18.9015  -12.5840 C   0  0  0  0  0  0  0  0  0  0  0  0
   17.9778  -18.5056  -13.7707 O   0  0  0  0  0  0  0  0  0  0  0  0
   20.9149  -21.3106  -12.8939 C   0  0  0  0  0  0  0  0  0  0  0  0
   20.9029  -22.1944  -12.0058 O   0  0  0  0  0  0  0  0  0  0  0  0
   16.9848  -18.6296  -11.7405 O   0  0  0  0  0  0  0  0  0  0  0  0
   22.1091  -21.0261  -13.6052 N   0  0  0  0  0  0  0  0  0  0  0  0
   23.3541  -21.6999  -13.3749 C   0  0  1  0  0  0  0  0  0  0  0  0
   24.0907  -21.8806  -14.7017 C   0  0  0  0  0  0  0  0  0  0  0  0
   25.4010  -22.5654  -14.5238 C   0  0  0  0  0  0  0  0  0  0  0  0
   26.1095  -22.6821  -15.8447 C   0  0  0  0  0  0  0  0  0  0  0  0
   27.3840  -23.4480  -15.7125 C   0  0  0  0  0  0  0  0  0  0  0  0
   28.0419  -23.5713  -17.0088 N   0  0  0  0  0  0  0  0  0  0  0  0
   24.2290  -20.8238  -12.5568 C   0  0  0  0  0  0  0  0  0  0  0  0
   24.1223  -19.5723  -12.7003 O   0  0  0  0  0  0  0  0  0  0  0  0
   27.5156  -19.1207   -5.7654 C   0  0  0  0  0  0  0  0  0  0  0  0
   26.5399  -20.1389   -6.8646 S   0  0  0  0  0  0  0  0  0  0  0  0
   26.6922  -19.7876   -8.5982 C   0  0  0  0  0  0  0  0  0  0  0  0
   25.7911  -20.5361   -9.5141 C   0  0  0  0  0  0  0  0  0  0  0  0
   26.1042  -20.4619  -10.9680 C   0  0  2  0  0  0  0  0  0  0  0  0
   25.1569  -21.3713  -11.6422 N   0  0  0  0  0  0  0  0  0  0  0  0
   27.4931  -20.9291  -11.2613 C   0  0  0  0  0  0  0  0  0  0  0  0
   28.5666  -20.1003  -10.9758 O   0  0  0  0  0  0  0  0  0  0  0  0
   27.7071  -22.0475  -11.7569 O   0  0  0  0  0  0  0  0  0  0  0  0
  2  1  1  1
  2  3  1  0
  3  4  1  0
  4  8  1  0
  5  4  2  0
  6  2  1  0
  7  6  2  0
  9  6  1  0
 10 11  1  6
 10  9  1  0
 11 12  1  0
 12 13  1  0
 14 13  1  0
 14 15  1  0
 16 10  1  0
 17 16  2  0
 19 20  1  0
 19 18  1  0
 22 21  1  1
 21 20  1  0
 22 23  1  0
 23 16  1  0
 24 22  1  0
 24 25  1  0
 26 24  2  0
M  END
$$$$
