DKM.pdb
     RDKit          3D

 26 25  0  0  1  0  0  0  0  0999 V2000
   25.3117  -19.3498  -16.6669 N   0  0  0  0  0  0  0  0  0  0  0  0
   26.2252  -19.6824  -15.6010 C   0  0  1  0  0  0  0  0  0  0  0  0
   27.5261  -18.9722  -15.7832 C   0  0  0  0  0  0  0  0  0  0  0  0
   28.2526  -19.5850  -16.9181 C   0  0  0  0  0  0  0  0  0  0  0  0
   27.7083  -20.4938  -17.5877 O   0  0  0  0  0  0  0  0  0  0  0  0
   25.5779  -19.4219  -14.3136 C   0  0  0  0  0  0  0  0  0  0  0  0
   25.1459  -18.2785  -14.0374 O   0  0  0  0  0  0  0  0  0  0  0  0
   29.5320  -19.1894  -17.2786 O   0  0  0  0  0  0  0  0  0  0  0  0
   25.4453  -20.4823  -13.3804 N   0  0  0  0  0  0  0  0  0  0  0  0
   24.7115  -20.3769  -12.1526 C   0  0  1  0  0  0  0  0  0  0  0  0
   23.4338  -21.2101  -12.2475 C   0  0  0  0  0  0  0  0  0  0  0  0
   22.3805  -20.5273  -13.0486 C   0  0  0  0  0  0  0  0  0  0  0  0
   21.1589  -21.3978  -13.1495 C   0  0  0  0  0  0  0  0  0  0  0  0
   20.0704  -20.7209  -13.9147 C   0  0  0  0  0  0  0  0  0  0  0  0
   18.9277  -21.6137  -14.0743 N   0  0  0  0  0  0  0  0  0  0  0  0
   25.5058  -20.9997  -11.0646 C   0  0  0  0  0  0  0  0  0  0  0  0
   25.6738  -22.2524  -11.0902 O   0  0  0  0  0  0  0  0  0  0  0  0
   29.8127  -18.5434   -6.3665 C   0  0  0  0  0  0  0  0  0  0  0  0
   28.3270  -19.1095   -5.5486 S   0  0  0  0  0  0  0  0  0  0  0  0
   27.2949  -20.2154   -6.4779 C   0  0  0  0  0  0  0  0  0  0  0  0
   27.0834  -19.8865   -7.9125 C   0  0  0  0  0  0  0  0  0  0  0  0
   26.2416  -20.8310   -8.6978 C   0  0  2  0  0  0  0  0  0  0  0  0
   26.0596  -20.2158  -10.0273 N   0  0  0  0  0  0  0  0  0  0  0  0
   24.8942  -21.0195   -8.0794 C   0  0  0  0  0  0  0  0  0  0  0  0
   24.7383  -21.9319   -7.0479 O   0  0  0  0  0  0  0  0  0  0  0  0
   23.9080  -20.3742   -8.4708 O   0  0  0  0  0  0  0  0  0  0  0  0
  2  1  1  6
  2  3  1  0
  3  4  1  0
  4  8  1  0
  5  4  2  0
  6  2  1  0
  7  6  2  0
  9  6  1  0
 10 11  1  6
 10  9  1  0
 11 12  1  0
 12 13  1  0
 14 13  1  0
 14 15  1  0
 16 10  1  0
 17 16  2  0
 19 20  1  0
 19 18  1  0
 22 21  1  1
 21 20  1  0
 22 23  1  0
 23 16  1  0
 24 22  1  0
 24 25  1  0
 26 24  2  0
M  END
$$$$
