DKM.pdb
     RDKit          3D

 26 25  0  0  1  0  0  0  0  0999 V2000
   17.9759  -11.2430  -17.1551 N   0  0  0  0  0  0  0  0  0  0  0  0
   18.1247  -11.1639  -15.7223 C   0  0  1  0  0  0  0  0  0  0  0  0
   17.6641  -12.4287  -15.0756 C   0  0  0  0  0  0  0  0  0  0  0  0
   16.2123  -12.5895  -15.3160 C   0  0  0  0  0  0  0  0  0  0  0  0
   15.4731  -11.5786  -15.3608 O   0  0  0  0  0  0  0  0  0  0  0  0
   19.5058  -10.7979  -15.4014 C   0  0  0  0  0  0  0  0  0  0  0  0
   19.8867  -10.7308  -14.2096 O   0  0  0  0  0  0  0  0  0  0  0  0
   15.6250  -13.8327  -15.4969 O   0  0  0  0  0  0  0  0  0  0  0  0
   20.4098  -10.5197  -16.4589 N   0  0  0  0  0  0  0  0  0  0  0  0
   21.8015  -10.2331  -16.2637 C   0  0  1  0  0  0  0  0  0  0  0  0
   22.5890  -10.6538  -17.5041 C   0  0  0  0  0  0  0  0  0  0  0  0
   22.5796  -12.1304  -17.6968 C   0  0  0  0  0  0  0  0  0  0  0  0
   23.4347  -12.5058  -18.8750 C   0  0  0  0  0  0  0  0  0  0  0  0
   23.4358  -13.9818  -19.0981 C   0  0  0  0  0  0  0  0  0  0  0  0
   24.2247  -14.3189  -20.2780 N   0  0  0  0  0  0  0  0  0  0  0  0
   21.9790   -8.7629  -16.1666 C   0  0  0  0  0  0  0  0  0  0  0  0
   23.1440   -8.3143  -15.9672 O   0  0  0  0  0  0  0  0  0  0  0  0
   19.4060   -4.6620  -20.2699 C   0  0  0  0  0  0  0  0  0  0  0  0
   20.9314   -4.0162  -19.5969 S   0  0  0  0  0  0  0  0  0  0  0  0
   21.4473   -4.6920  -18.0384 C   0  0  0  0  0  0  0  0  0  0  0  0
   20.6995   -5.8781  -17.5432 C   0  0  0  0  0  0  0  0  0  0  0  0
   21.1210   -6.4322  -16.2268 C   0  0  2  0  0  0  0  0  0  0  0  0
   20.8774   -7.8867  -16.2930 N   0  0  0  0  0  0  0  0  0  0  0  0
   20.3109   -5.8712  -15.1033 C   0  0  0  0  0  0  0  0  0  0  0  0
   20.5801   -4.5932  -14.6395 O   0  0  0  0  0  0  0  0  0  0  0  0
   19.3988   -6.5273  -14.5744 O   0  0  0  0  0  0  0  0  0  0  0  0
  2  1  1  6
  2  3  1  0
  3  4  1  0
  4  8  1  0
  5  4  2  0
  6  2  1  0
  7  6  2  0
  9  6  1  0
 10 11  1  6
 10  9  1  0
 11 12  1  0
 12 13  1  0
 14 13  1  0
 14 15  1  0
 16 10  1  0
 17 16  2  0
 19 20  1  0
 19 18  1  0
 22 21  1  6
 21 20  1  0
 22 23  1  0
 23 16  1  0
 24 22  1  0
 24 25  1  0
 26 24  2  0
M  END
$$$$
