DKM.pdb
     RDKit          3D

 26 25  0  0  1  0  0  0  0  0999 V2000
   16.9969  -12.3566  -16.8281 N   0  0  0  0  0  0  0  0  0  0  0  0
   16.7323  -11.1114  -16.1494 C   0  0  1  0  0  0  0  0  0  0  0  0
   16.5514  -11.3395  -14.6847 C   0  0  0  0  0  0  0  0  0  0  0  0
   15.3727  -12.2106  -14.4767 C   0  0  0  0  0  0  0  0  0  0  0  0
   14.2661  -11.8885  -14.9690 O   0  0  0  0  0  0  0  0  0  0  0  0
   17.7874  -10.1505  -16.4781 C   0  0  0  0  0  0  0  0  0  0  0  0
   18.9512  -10.5424  -16.7272 O   0  0  0  0  0  0  0  0  0  0  0  0
   15.4418  -13.3883  -13.7478 O   0  0  0  0  0  0  0  0  0  0  0  0
   17.4751   -8.7669  -16.5113 N   0  0  0  0  0  0  0  0  0  0  0  0
   18.3784   -7.7567  -16.9810 C   0  0  1  0  0  0  0  0  0  0  0  0
   17.5818   -6.5838  -17.5516 C   0  0  0  0  0  0  0  0  0  0  0  0
   17.0321   -6.8869  -18.9020 C   0  0  0  0  0  0  0  0  0  0  0  0
   16.2118   -5.7298  -19.4004 C   0  0  0  0  0  0  0  0  0  0  0  0
   15.5950   -6.0313  -20.7259 C   0  0  0  0  0  0  0  0  0  0  0  0
   14.7619   -4.9176  -21.1661 N   0  0  0  0  0  0  0  0  0  0  0  0
   19.1196   -7.2002  -15.8220 C   0  0  0  0  0  0  0  0  0  0  0  0
   18.4741   -6.9530  -14.7636 O   0  0  0  0  0  0  0  0  0  0  0  0
   23.3148  -11.4597  -13.6816 C   0  0  0  0  0  0  0  0  0  0  0  0
   23.6171   -9.7251  -13.9925 S   0  0  0  0  0  0  0  0  0  0  0  0
   22.1795   -8.6930  -14.1332 C   0  0  0  0  0  0  0  0  0  0  0  0
   22.4093   -7.2741  -14.5140 C   0  0  0  0  0  0  0  0  0  0  0  0
   21.1984   -6.4280  -14.7021 C   0  0  2  0  0  0  0  0  0  0  0  0
   20.5090   -6.9524  -15.8974 N   0  0  0  0  0  0  0  0  0  0  0  0
   21.5537   -4.9985  -14.9544 C   0  0  0  0  0  0  0  0  0  0  0  0
   22.0289   -4.2191  -13.9115 O   0  0  0  0  0  0  0  0  0  0  0  0
   21.4323   -4.4922  -16.0818 O   0  0  0  0  0  0  0  0  0  0  0  0
  2  1  1  6
  2  3  1  0
  3  4  1  0
  4  8  1  0
  5  4  2  0
  6  2  1  0
  7  6  2  0
  9  6  1  0
 10 11  1  1
 10  9  1  0
 11 12  1  0
 12 13  1  0
 14 13  1  0
 14 15  1  0
 16 10  1  0
 17 16  2  0
 19 20  1  0
 19 18  1  0
 22 21  1  6
 21 20  1  0
 22 23  1  0
 23 16  1  0
 24 22  1  0
 24 25  1  0
 26 24  2  0
M  END
$$$$
