DKM.pdb
     RDKit          3D

 26 25  0  0  1  0  0  0  0  0999 V2000
   19.4120  -20.3151  -15.0485 N   0  0  0  0  0  0  0  0  0  0  0  0
   20.4030  -19.3122  -14.7432 C   0  0  1  0  0  0  0  0  0  0  0  0
   20.2283  -18.8084  -13.3483 C   0  0  0  0  0  0  0  0  0  0  0  0
   18.9874  -18.0041  -13.2805 C   0  0  0  0  0  0  0  0  0  0  0  0
   18.6618  -17.2792  -14.2496 O   0  0  0  0  0  0  0  0  0  0  0  0
   21.7356  -19.8525  -15.0202 C   0  0  0  0  0  0  0  0  0  0  0  0
   22.1062  -20.9315  -14.5018 O   0  0  0  0  0  0  0  0  0  0  0  0
   18.1552  -18.0187  -12.1713 O   0  0  0  0  0  0  0  0  0  0  0  0
   22.6042  -19.1379  -15.8849 N   0  0  0  0  0  0  0  0  0  0  0  0
   23.9546  -19.5330  -16.1633 C   0  0  1  0  0  0  0  0  0  0  0  0
   24.5662  -18.5772  -17.1870 C   0  0  0  0  0  0  0  0  0  0  0  0
   25.1540  -19.3031  -18.3468 C   0  0  0  0  0  0  0  0  0  0  0  0
   24.1485  -20.2602  -18.9241 C   0  0  0  0  0  0  0  0  0  0  0  0
   24.7162  -21.0129  -20.0815 C   0  0  0  0  0  0  0  0  0  0  0  0
   23.7437  -21.9732  -20.5919 N   0  0  0  0  0  0  0  0  0  0  0  0
   24.7671  -19.3623  -14.9332 C   0  0  0  0  0  0  0  0  0  0  0  0
   24.8592  -18.2042  -14.4347 O   0  0  0  0  0  0  0  0  0  0  0  0
   24.3595  -21.1211   -9.1978 C   0  0  0  0  0  0  0  0  0  0  0  0
   26.1440  -21.1766   -9.2945 S   0  0  0  0  0  0  0  0  0  0  0  0
   26.8545  -20.7925  -10.8755 C   0  0  0  0  0  0  0  0  0  0  0  0
   25.9344  -20.8063  -12.0435 C   0  0  0  0  0  0  0  0  0  0  0  0
   26.4452  -20.1999  -13.3040 C   0  0  2  0  0  0  0  0  0  0  0  0
   25.4211  -20.4627  -14.3342 N   0  0  0  0  0  0  0  0  0  0  0  0
   27.7264  -20.8308  -13.7441 C   0  0  0  0  0  0  0  0  0  0  0  0
   27.7426  -21.6199  -14.8834 O   0  0  0  0  0  0  0  0  0  0  0  0
   28.7804  -20.6628  -13.1093 O   0  0  0  0  0  0  0  0  0  0  0  0
  2  1  1  1
  2  3  1  0
  3  4  1  0
  4  8  1  0
  5  4  2  0
  6  2  1  0
  7  6  2  0
  9  6  1  0
 10 11  1  6
 10  9  1  0
 11 12  1  0
 12 13  1  0
 14 13  1  0
 14 15  1  0
 16 10  1  0
 17 16  2  0
 19 20  1  0
 19 18  1  0
 22 21  1  1
 21 20  1  0
 22 23  1  0
 23 16  1  0
 24 22  1  0
 24 25  1  0
 26 24  2  0
M  END
$$$$
