DKM.pdb
     RDKit          3D

 26 25  0  0  1  0  0  0  0  0999 V2000
   19.1984  -21.3568  -15.1000 N   0  0  0  0  0  0  0  0  0  0  0  0
   19.6075  -21.1247  -13.7362 C   0  0  1  0  0  0  0  0  0  0  0  0
   18.5317  -21.5392  -12.7871 C   0  0  0  0  0  0  0  0  0  0  0  0
   17.9061  -22.7849  -13.2853 C   0  0  0  0  0  0  0  0  0  0  0  0
   18.2813  -23.2773  -14.3749 O   0  0  0  0  0  0  0  0  0  0  0  0
   20.8956  -21.7807  -13.5019 C   0  0  0  0  0  0  0  0  0  0  0  0
   21.1231  -22.3699  -12.4197 O   0  0  0  0  0  0  0  0  0  0  0  0
   16.9050  -23.4418  -12.5856 O   0  0  0  0  0  0  0  0  0  0  0  0
   21.8854  -21.7411  -14.5176 N   0  0  0  0  0  0  0  0  0  0  0  0
   23.1968  -22.3044  -14.3756 C   0  0  1  0  0  0  0  0  0  0  0  0
   23.8087  -22.5302  -15.7577 C   0  0  0  0  0  0  0  0  0  0  0  0
   25.1651  -23.1391  -15.6748 C   0  0  0  0  0  0  0  0  0  0  0  0
   25.7305  -23.3374  -17.0537 C   0  0  0  0  0  0  0  0  0  0  0  0
   27.0869  -23.9584  -17.0013 C   0  0  0  0  0  0  0  0  0  0  0  0
   27.5823  -24.2165  -18.3490 N   0  0  0  0  0  0  0  0  0  0  0  0
   24.0770  -21.3088  -13.7150 C   0  0  0  0  0  0  0  0  0  0  0  0
   23.8970  -20.0855  -13.9781 O   0  0  0  0  0  0  0  0  0  0  0  0
   25.1707  -21.2215   -7.5082 C   0  0  0  0  0  0  0  0  0  0  0  0
   26.6529  -20.4123   -8.0958 S   0  0  0  0  0  0  0  0  0  0  0  0
   26.7418  -20.1151   -9.8438 C   0  0  0  0  0  0  0  0  0  0  0  0
   25.8703  -20.9526  -10.7099 C   0  0  0  0  0  0  0  0  0  0  0  0
   25.9195  -20.6779  -12.1727 C   0  0  2  0  0  0  0  0  0  0  0  0
   25.0895  -21.7150  -12.8166 N   0  0  0  0  0  0  0  0  0  0  0  0
   27.3091  -20.7873  -12.7116 C   0  0  0  0  0  0  0  0  0  0  0  0
   28.1543  -19.6907  -12.6473 O   0  0  0  0  0  0  0  0  0  0  0  0
   27.7245  -21.8427  -13.2172 O   0  0  0  0  0  0  0  0  0  0  0  0
  2  1  1  6
  2  3  1  0
  3  4  1  0
  4  8  1  0
  5  4  2  0
  6  2  1  0
  7  6  2  0
  9  6  1  0
 10 11  1  6
 10  9  1  0
 11 12  1  0
 12 13  1  0
 14 13  1  0
 14 15  1  0
 16 10  1  0
 17 16  2  0
 19 20  1  0
 19 18  1  0
 22 21  1  1
 21 20  1  0
 22 23  1  0
 23 16  1  0
 24 22  1  0
 24 25  1  0
 26 24  2  0
M  END
$$$$
