DKM.pdb
     RDKit          3D

 26 25  0  0  1  0  0  0  0  0999 V2000
   15.2089  -11.8945  -16.8481 N   0  0  0  0  0  0  0  0  0  0  0  0
   15.8404  -11.3797  -15.6576 C   0  0  1  0  0  0  0  0  0  0  0  0
   16.8491  -12.3498  -15.1364 C   0  0  0  0  0  0  0  0  0  0  0  0
   16.1501  -13.5774  -14.6939 C   0  0  0  0  0  0  0  0  0  0  0  0
   14.9555  -13.5133  -14.3207 O   0  0  0  0  0  0  0  0  0  0  0  0
   16.3819  -10.0481  -15.9374 C   0  0  0  0  0  0  0  0  0  0  0  0
   16.7563   -9.7426  -17.0935 O   0  0  0  0  0  0  0  0  0  0  0  0
   16.7716  -14.8170  -14.6742 O   0  0  0  0  0  0  0  0  0  0  0  0
   16.4774   -9.1057  -14.8812 N   0  0  0  0  0  0  0  0  0  0  0  0
   16.9865   -7.7748  -15.0436 C   0  0  1  0  0  0  0  0  0  0  0  0
   16.0253   -6.7774  -14.3978 C   0  0  0  0  0  0  0  0  0  0  0  0
   14.8902   -6.4331  -15.2981 C   0  0  0  0  0  0  0  0  0  0  0  0
   13.8907   -5.5781  -14.5700 C   0  0  0  0  0  0  0  0  0  0  0  0
   12.7296   -5.2353  -15.4433 C   0  0  0  0  0  0  0  0  0  0  0  0
   11.7105   -4.5227  -14.6805 N   0  0  0  0  0  0  0  0  0  0  0  0
   18.2529   -7.6495  -14.2801 C   0  0  0  0  0  0  0  0  0  0  0  0
   18.2220   -7.8611  -13.0342 O   0  0  0  0  0  0  0  0  0  0  0  0
   23.0307  -11.6314  -13.6907 C   0  0  0  0  0  0  0  0  0  0  0  0
   23.7284  -10.1028  -14.3019 S   0  0  0  0  0  0  0  0  0  0  0  0
   22.8324   -8.6213  -13.9092 C   0  0  0  0  0  0  0  0  0  0  0  0
   21.4834   -8.4744  -14.5173 C   0  0  0  0  0  0  0  0  0  0  0  0
   20.7029   -7.2673  -14.1287 C   0  0  2  0  0  0  0  0  0  0  0  0
   19.4611   -7.3030  -14.9261 N   0  0  0  0  0  0  0  0  0  0  0  0
   21.4337   -6.0051  -14.4544 C   0  0  0  0  0  0  0  0  0  0  0  0
   22.3544   -5.4971  -13.5515 O   0  0  0  0  0  0  0  0  0  0  0  0
   21.2335   -5.3994  -15.5199 O   0  0  0  0  0  0  0  0  0  0  0  0
  2  1  1  6
  2  3  1  0
  3  4  1  0
  4  8  1  0
  5  4  2  0
  6  2  1  0
  7  6  2  0
  9  6  1  0
 10 11  1  1
 10  9  1  0
 11 12  1  0
 12 13  1  0
 14 13  1  0
 14 15  1  0
 16 10  1  0
 17 16  2  0
 19 20  1  0
 19 18  1  0
 22 21  1  6
 21 20  1  0
 22 23  1  0
 23 16  1  0
 24 22  1  0
 24 25  1  0
 26 24  2  0
M  END
$$$$
