DKM.pdb
     RDKit          3D

 26 25  0  0  1  0  0  0  0  0999 V2000
   16.6709  -11.4948  -17.8208 N   0  0  0  0  0  0  0  0  0  0  0  0
   16.8489  -10.8478  -16.5438 C   0  0  1  0  0  0  0  0  0  0  0  0
   17.0076  -11.8616  -15.4588 C   0  0  0  0  0  0  0  0  0  0  0  0
   15.6775  -12.4184  -15.1240 C   0  0  0  0  0  0  0  0  0  0  0  0
   14.6476  -11.9207  -15.6360 O   0  0  0  0  0  0  0  0  0  0  0  0
   17.9570   -9.8950  -16.6373 C   0  0  0  0  0  0  0  0  0  0  0  0
   19.1363  -10.2674  -16.4359 O   0  0  0  0  0  0  0  0  0  0  0  0
   15.5195  -13.4858  -14.2529 O   0  0  0  0  0  0  0  0  0  0  0  0
   17.6784   -8.5417  -16.9598 N   0  0  0  0  0  0  0  0  0  0  0  0
   18.6835   -7.5240  -17.0653 C   0  0  1  0  0  0  0  0  0  0  0  0
   18.0757   -6.2678  -17.6884 C   0  0  0  0  0  0  0  0  0  0  0  0
   19.0954   -5.2054  -17.9100 C   0  0  0  0  0  0  0  0  0  0  0  0
   18.4739   -4.0259  -18.6047 C   0  0  0  0  0  0  0  0  0  0  0  0
   19.5000   -3.0021  -18.9616 C   0  0  0  0  0  0  0  0  0  0  0  0
   18.9022   -1.9375  -19.7600 N   0  0  0  0  0  0  0  0  0  0  0  0
   19.1025   -7.1209  -15.6999 C   0  0  0  0  0  0  0  0  0  0  0  0
   18.2040   -6.9364  -14.8300 O   0  0  0  0  0  0  0  0  0  0  0  0
   23.2243   -9.5348   -9.8127 C   0  0  0  0  0  0  0  0  0  0  0  0
   22.6195   -9.5389  -11.4953 S   0  0  0  0  0  0  0  0  0  0  0  0
   21.9608   -8.0029  -12.0940 C   0  0  0  0  0  0  0  0  0  0  0  0
   21.4102   -8.0042  -13.4753 C   0  0  0  0  0  0  0  0  0  0  0  0
   20.8381   -6.7207  -13.9680 C   0  0  2  0  0  0  0  0  0  0  0  0
   20.4679   -6.9473  -15.3789 N   0  0  0  0  0  0  0  0  0  0  0  0
   21.8382   -5.6114  -13.9174 C   0  0  0  0  0  0  0  0  0  0  0  0
   22.1244   -5.0052  -12.7044 O   0  0  0  0  0  0  0  0  0  0  0  0
   22.4205   -5.2197  -14.9420 O   0  0  0  0  0  0  0  0  0  0  0  0
  2  1  1  6
  2  3  1  0
  3  4  1  0
  4  8  1  0
  5  4  2  0
  6  2  1  0
  7  6  2  0
  9  6  1  0
 10 11  1  1
 10  9  1  0
 11 12  1  0
 12 13  1  0
 14 13  1  0
 14 15  1  0
 16 10  1  0
 17 16  2  0
 19 20  1  0
 19 18  1  0
 22 21  1  6
 21 20  1  0
 22 23  1  0
 23 16  1  0
 24 22  1  0
 24 25  1  0
 26 24  2  0
M  END
$$$$
