DKM.pdb
     RDKit          3D

 26 25  0  0  1  0  0  0  0  0999 V2000
   20.3680  -18.1011  -16.1571 N   0  0  0  0  0  0  0  0  0  0  0  0
   21.4375  -17.6131  -15.3209 C   0  0  1  0  0  0  0  0  0  0  0  0
   21.0679  -16.3034  -14.7059 C   0  0  0  0  0  0  0  0  0  0  0  0
   21.2935  -15.2272  -15.6969 C   0  0  0  0  0  0  0  0  0  0  0  0
   21.5276  -14.0598  -15.3056 O   0  0  0  0  0  0  0  0  0  0  0  0
   21.7996  -18.6476  -14.3498 C   0  0  0  0  0  0  0  0  0  0  0  0
   21.1062  -18.8272  -13.3217 O   0  0  0  0  0  0  0  0  0  0  0  0
   21.2564  -15.4594  -17.0637 O   0  0  0  0  0  0  0  0  0  0  0  0
   22.9477  -19.4464  -14.5878 N   0  0  0  0  0  0  0  0  0  0  0  0
   23.3101  -20.5802  -13.7878 C   0  0  1  0  0  0  0  0  0  0  0  0
   23.6194  -21.7694  -14.6966 C   0  0  0  0  0  0  0  0  0  0  0  0
   24.0813  -22.9563  -13.9249 C   0  0  0  0  0  0  0  0  0  0  0  0
   24.3588  -24.1045  -14.8548 C   0  0  0  0  0  0  0  0  0  0  0  0
   24.8262  -25.3092  -14.1073 C   0  0  0  0  0  0  0  0  0  0  0  0
   25.1568  -26.3873  -15.0328 N   0  0  0  0  0  0  0  0  0  0  0  0
   24.5825  -20.2833  -13.0841 C   0  0  0  0  0  0  0  0  0  0  0  0
   25.5358  -19.7948  -13.7554 O   0  0  0  0  0  0  0  0  0  0  0  0
   27.9237  -18.7840   -6.2249 C   0  0  0  0  0  0  0  0  0  0  0  0
   26.8078  -19.9169   -7.0423 S   0  0  0  0  0  0  0  0  0  0  0  0
   27.0669  -20.1515   -8.7829 C   0  0  0  0  0  0  0  0  0  0  0  0
   25.8511  -20.2970   -9.6266 C   0  0  0  0  0  0  0  0  0  0  0  0
   26.0665  -20.4093  -11.0957 C   0  0  2  0  0  0  0  0  0  0  0  0
   24.7267  -20.5391  -11.7017 N   0  0  0  0  0  0  0  0  0  0  0  0
   26.8612  -21.6246  -11.4490 C   0  0  0  0  0  0  0  0  0  0  0  0
   28.1587  -21.4801  -11.9143 O   0  0  0  0  0  0  0  0  0  0  0  0
   26.3829  -22.7648  -11.3343 O   0  0  0  0  0  0  0  0  0  0  0  0
  2  1  1  1
  2  3  1  0
  3  4  1  0
  4  8  1  0
  5  4  2  0
  6  2  1  0
  7  6  2  0
  9  6  1  0
 10 11  1  6
 10  9  1  0
 11 12  1  0
 12 13  1  0
 14 13  1  0
 14 15  1  0
 16 10  1  0
 17 16  2  0
 19 20  1  0
 19 18  1  0
 22 21  1  1
 21 20  1  0
 22 23  1  0
 23 16  1  0
 24 22  1  0
 24 25  1  0
 26 24  2  0
M  END
$$$$
