DKM.pdb
     RDKit          3D

 26 25  0  0  1  0  0  0  0  0999 V2000
   19.4050  -11.7827  -18.9450 N   0  0  0  0  0  0  0  0  0  0  0  0
   20.0358  -11.4945  -17.6800 C   0  0  1  0  0  0  0  0  0  0  0  0
   21.5034  -11.7612  -17.7518 C   0  0  0  0  0  0  0  0  0  0  0  0
   21.7168  -13.2009  -18.0222 C   0  0  0  0  0  0  0  0  0  0  0  0
   21.1693  -14.0593  -17.2915 O   0  0  0  0  0  0  0  0  0  0  0  0
   19.6963  -10.1294  -17.2729 C   0  0  0  0  0  0  0  0  0  0  0  0
   19.7083   -9.1942  -18.1067 O   0  0  0  0  0  0  0  0  0  0  0  0
   22.5105  -13.6483  -19.0677 O   0  0  0  0  0  0  0  0  0  0  0  0
   19.3527   -9.8780  -15.9195 N   0  0  0  0  0  0  0  0  0  0  0  0
   18.9498   -8.5936  -15.4245 C   0  0  1  0  0  0  0  0  0  0  0  0
   17.7687   -8.7613  -14.4691 C   0  0  0  0  0  0  0  0  0  0  0  0
   16.5000   -9.0463  -15.1947 C   0  0  0  0  0  0  0  0  0  0  0  0
   15.3789   -9.2605  -14.2162 C   0  0  0  0  0  0  0  0  0  0  0  0
   14.0829   -9.4990  -14.9175 C   0  0  0  0  0  0  0  0  0  0  0  0
   13.0051   -9.6779  -13.9507 N   0  0  0  0  0  0  0  0  0  0  0  0
   20.0468   -8.0331  -14.5971 C   0  0  0  0  0  0  0  0  0  0  0  0
   20.8814   -8.8357  -14.0896 O   0  0  0  0  0  0  0  0  0  0  0  0
   25.9751   -5.2579  -17.4664 C   0  0  0  0  0  0  0  0  0  0  0  0
   24.3557   -5.9920  -17.2773 S   0  0  0  0  0  0  0  0  0  0  0  0
   23.5210   -5.6622  -15.7456 C   0  0  0  0  0  0  0  0  0  0  0  0
   22.1714   -6.2633  -15.5763 C   0  0  0  0  0  0  0  0  0  0  0  0
   21.5046   -6.0495  -14.2621 C   0  0  2  0  0  0  0  0  0  0  0  0
   20.1572   -6.6409  -14.3808 N   0  0  0  0  0  0  0  0  0  0  0  0
   21.3534   -4.5967  -13.9461 C   0  0  0  0  0  0  0  0  0  0  0  0
   20.2609   -3.9010  -14.4393 O   0  0  0  0  0  0  0  0  0  0  0  0
   22.1881   -3.9973  -13.2488 O   0  0  0  0  0  0  0  0  0  0  0  0
  2  1  1  6
  2  3  1  0
  3  4  1  0
  4  8  1  0
  5  4  2  0
  6  2  1  0
  7  6  2  0
  9  6  1  0
 10 11  1  1
 10  9  1  0
 11 12  1  0
 12 13  1  0
 14 13  1  0
 14 15  1  0
 16 10  1  0
 17 16  2  0
 19 20  1  0
 19 18  1  0
 22 21  1  6
 21 20  1  0
 22 23  1  0
 23 16  1  0
 24 22  1  0
 24 25  1  0
 26 24  2  0
M  END
$$$$
