RMK.pdb
     RDKit          3D

 29 28  0  0  1  0  0  0  0  0999 V2000
   28.2365  -24.9809  -17.3271 N   0  0  0  0  0  0  0  0  0  0  0  0
   26.9223  -25.2420  -16.8599 C   0  0  0  0  0  0  0  0  0  0  0  0
   26.5057  -26.4525  -16.6427 N   0  0  0  0  0  0  0  0  0  0  0  0
   26.0136  -24.1813  -16.6118 N   0  0  0  0  0  0  0  0  0  0  0  0
   26.4005  -22.7989  -16.9037 C   0  0  0  0  0  0  0  0  0  0  0  0
   27.0185  -22.2675  -15.6490 C   0  0  0  0  0  0  0  0  0  0  0  0
   26.1892  -22.5558  -14.4606 C   0  0  0  0  0  0  0  0  0  0  0  0
   25.1434  -21.5527  -14.0803 C   0  0  2  0  0  0  0  0  0  0  0  0
   25.5379  -20.1715  -14.3000 N   0  0  0  0  0  0  0  0  0  0  0  0
   24.7968  -21.7772  -12.6600 C   0  0  0  0  0  0  0  0  0  0  0  0
   24.4612  -22.9201  -12.3123 O   0  0  0  0  0  0  0  0  0  0  0  0
   25.5305  -26.7241  -16.4417 C   0  0  0  0  0  0  0  0  0  0  0  0
   26.4963  -19.6471   -5.4389 S   0  0  0  0  0  0  0  0  0  0  0  0
   26.5828  -19.3117   -7.2065 C   0  0  0  0  0  0  0  0  0  0  0  0
   25.0303  -19.8813   -8.0394 C   0  0  0  0  0  0  0  0  0  0  0  0
   25.1644  -19.6458   -9.5226 C   0  0  2  0  0  0  0  0  0  0  0  0
   24.5200  -20.7336  -10.3558 N   0  0  0  0  0  0  0  0  0  0  0  0
   24.8528  -20.7143  -11.7443 C   0  0  0  0  0  0  0  0  0  0  0  0
   23.0562  -20.7863  -10.1970 O   0  0  0  0  0  0  0  0  0  0  0  0
   22.2955  -20.1588  -10.9902 N   0  0  0  0  0  0  0  0  0  0  0  0
   22.5276  -21.5534   -9.1409 C   0  0  1  0  0  0  0  0  0  0  0  0
   21.1370  -21.8010   -8.9047 C   0  0  0  0  0  0  0  0  0  0  0  0
   20.8504  -22.6432   -7.6910 C   0  0  0  0  0  0  0  0  0  0  0  0
   19.3748  -22.9508   -7.6442 C   0  0  0  0  0  0  0  0  0  0  0  0
   19.2123  -24.0664   -6.6260 C   0  0  0  0  0  0  0  0  0  0  0  0
   17.7478  -24.4302   -6.5130 N   0  0  0  0  0  0  0  0  0  0  0  0
   17.5368  -25.3856   -5.4678 C   0  0  0  0  0  0  0  0  0  0  0  0
   20.3193  -20.5720   -8.9864 O   0  0  0  0  0  0  0  0  0  0  0  0
   19.0460  -20.5820   -9.5291 O   0  0  0  0  0  0  0  0  0  0  0  0
  1  2  1  0
  2  3  2  0
  4  5  1  0
  4  2  1  0
  6  5  1  0
  7  6  1  0
  8  7  1  0
  8  9  1  1
 10  8  1  0
 11 10  2  0
 13 12  1  0
 14 13  1  0
 15 14  1  0
 16 15  1  1
 16 17  1  0
 17 10  1  0
 18 16  1  0
 18 19  2  0
 20 18  1  0
 21 20  1  0
 21 22  1  1
 23 22  1  0
 23 24  1  0
 24 25  1  0
 25 26  1  0
 27 21  1  0
 28 27  1  0
 29 27  2  0
M  END
$$$$
