RMK.pdb
     RDKit          3D

 29 28  0  0  1  0  0  0  0  0999 V2000
   20.9009  -21.6439  -16.1499 N   0  0  0  0  0  0  0  0  0  0  0  0
   19.6025  -21.0756  -16.2187 C   0  0  0  0  0  0  0  0  0  0  0  0
   19.1727  -20.4899  -17.2950 N   0  0  0  0  0  0  0  0  0  0  0  0
   18.7241  -21.1296  -15.1061 N   0  0  0  0  0  0  0  0  0  0  0  0
   18.8717  -22.1881  -14.1042 C   0  0  0  0  0  0  0  0  0  0  0  0
   19.0084  -23.4668  -14.8690 C   0  0  0  0  0  0  0  0  0  0  0  0
   19.1177  -24.6365  -13.9729 C   0  0  0  0  0  0  0  0  0  0  0  0
   18.0884  -24.7874  -12.8948 C   0  0  2  0  0  0  0  0  0  0  0  0
   17.3548  -23.5682  -12.5997 N   0  0  0  0  0  0  0  0  0  0  0  0
   18.7724  -25.2912  -11.6839 C   0  0  0  0  0  0  0  0  0  0  0  0
   19.8839  -25.8261  -11.8186 O   0  0  0  0  0  0  0  0  0  0  0  0
   18.2809  -19.9779  -17.3837 C   0  0  0  0  0  0  0  0  0  0  0  0
   22.4109  -20.9666   -7.3499 S   0  0  0  0  0  0  0  0  0  0  0  0
   21.1879  -21.3321   -8.6207 C   0  0  0  0  0  0  0  0  0  0  0  0
   20.3765  -22.9600   -8.2743 C   0  0  0  0  0  0  0  0  0  0  0  0
   19.4324  -23.2787   -9.4058 C   0  0  2  0  0  0  0  0  0  0  0  0
   18.7282  -24.6080   -9.2331 N   0  0  0  0  0  0  0  0  0  0  0  0
   18.1656  -25.1581  -10.4248 C   0  0  0  0  0  0  0  0  0  0  0  0
   17.7095  -24.5832   -8.1690 O   0  0  0  0  0  0  0  0  0  0  0  0
   17.0134  -23.5467   -7.9625 N   0  0  0  0  0  0  0  0  0  0  0  0
   17.5313  -25.7428   -7.3899 C   0  0  2  0  0  0  0  0  0  0  0  0
   17.0651  -25.7744   -6.0362 C   0  0  0  0  0  0  0  0  0  0  0  0
   18.0919  -26.2259   -5.0330 C   0  0  0  0  0  0  0  0  0  0  0  0
   17.4669  -26.2344   -3.6606 C   0  0  0  0  0  0  0  0  0  0  0  0
   18.5176  -26.8092   -2.7261 C   0  0  0  0  0  0  0  0  0  0  0  0
   17.9907  -26.7868   -1.3078 N   0  0  0  0  0  0  0  0  0  0  0  0
   18.9073  -27.4235   -0.4110 C   0  0  0  0  0  0  0  0  0  0  0  0
   16.3565  -24.5356   -5.6503 O   0  0  0  0  0  0  0  0  0  0  0  0
   16.9255  -23.2870   -5.8324 O   0  0  0  0  0  0  0  0  0  0  0  0
  1  2  1  0
  2  3  2  0
  4  5  1  0
  4  2  1  0
  6  5  1  0
  7  6  1  0
  8  7  1  0
  8  9  1  1
 10  8  1  0
 11 10  2  0
 13 12  1  0
 14 13  1  0
 15 14  1  0
 16 15  1  6
 16 17  1  0
 17 10  1  0
 18 16  1  0
 18 19  2  0
 20 18  1  0
 21 20  1  0
 21 22  1  6
 23 22  1  0
 23 24  1  0
 24 25  1  0
 25 26  1  0
 27 21  1  0
 28 27  1  0
 29 27  2  0
M  END
$$$$
