RMK.pdb
     RDKit          3D

 29 28  0  0  1  0  0  0  0  0999 V2000
   27.9989  -16.0373  -17.8639 N   0  0  0  0  0  0  0  0  0  0  0  0
   28.8609  -17.0177  -18.4202 C   0  0  0  0  0  0  0  0  0  0  0  0
   29.1716  -17.0134  -19.6810 N   0  0  0  0  0  0  0  0  0  0  0  0
   29.4169  -18.0418  -17.6113 N   0  0  0  0  0  0  0  0  0  0  0  0
   28.9497  -18.2261  -16.2351 C   0  0  0  0  0  0  0  0  0  0  0  0
   27.5416  -18.7218  -16.3381 C   0  0  0  0  0  0  0  0  0  0  0  0
   26.9985  -19.1173  -15.0221 C   0  0  0  0  0  0  0  0  0  0  0  0
   27.5210  -20.3772  -14.4024 C   0  0  2  0  0  0  0  0  0  0  0  0
   28.0751  -21.3226  -15.3567 N   0  0  0  0  0  0  0  0  0  0  0  0
   26.4174  -20.9953  -13.6356 C   0  0  0  0  0  0  0  0  0  0  0  0
   25.9179  -22.0448  -14.0702 O   0  0  0  0  0  0  0  0  0  0  0  0
   29.7676  -17.7107  -20.1541 C   0  0  0  0  0  0  0  0  0  0  0  0
   26.8058  -18.9212   -7.6694 S   0  0  0  0  0  0  0  0  0  0  0  0
   26.6100  -20.7084   -7.7787 C   0  0  0  0  0  0  0  0  0  0  0  0
   26.4075  -21.2199   -9.5467 C   0  0  0  0  0  0  0  0  0  0  0  0
   25.1693  -20.5616  -10.1004 C   0  0  2  0  0  0  0  0  0  0  0  0
   24.9421  -20.8653  -11.5664 N   0  0  0  0  0  0  0  0  0  0  0  0
   25.9615  -20.3971  -12.4500 C   0  0  0  0  0  0  0  0  0  0  0  0
   23.6239  -20.4165  -12.0473 O   0  0  0  0  0  0  0  0  0  0  0  0
   23.3503  -19.1838  -12.1318 N   0  0  0  0  0  0  0  0  0  0  0  0
   22.6784  -21.3951  -12.4107 C   0  0  1  0  0  0  0  0  0  0  0  0
   21.3518  -21.1375  -12.8847 C   0  0  0  0  0  0  0  0  0  0  0  0
   20.7180  -22.2869  -13.6208 C   0  0  0  0  0  0  0  0  0  0  0  0
   21.1513  -22.2440  -15.0646 C   0  0  0  0  0  0  0  0  0  0  0  0
   20.5830  -23.4967  -15.7092 C   0  0  0  0  0  0  0  0  0  0  0  0
   20.9474  -23.5122  -17.1778 N   0  0  0  0  0  0  0  0  0  0  0  0
   20.5276  -24.7330  -17.7966 C   0  0  0  0  0  0  0  0  0  0  0  0
   20.4839  -20.5403  -11.8476 O   0  0  0  0  0  0  0  0  0  0  0  0
   19.3916  -19.7569  -12.1781 O   0  0  0  0  0  0  0  0  0  0  0  0
  1  2  1  0
  2  3  2  0
  4  5  1  0
  4  2  1  0
  6  5  1  0
  7  6  1  0
  8  7  1  0
  8  9  1  6
 10  8  1  0
 11 10  2  0
 13 12  1  0
 14 13  1  0
 15 14  1  0
 16 15  1  1
 16 17  1  0
 17 10  1  0
 18 16  1  0
 18 19  2  0
 20 18  1  0
 21 20  1  0
 21 22  1  1
 23 22  1  0
 23 24  1  0
 24 25  1  0
 25 26  1  0
 27 21  1  0
 28 27  1  0
 29 27  2  0
M  END
$$$$
