RMK.pdb
     RDKit          3D

 29 28  0  0  1  0  0  0  0  0999 V2000
   30.9720  -23.1440  -18.1670 N   0  0  0  0  0  0  0  0  0  0  0  0
   30.8105  -22.2133  -19.2260 C   0  0  0  0  0  0  0  0  0  0  0  0
   31.4187  -22.3649  -20.3632 N   0  0  0  0  0  0  0  0  0  0  0  0
   29.9723  -21.0787  -19.0767 N   0  0  0  0  0  0  0  0  0  0  0  0
   29.2871  -20.8336  -17.8052 C   0  0  0  0  0  0  0  0  0  0  0  0
   27.8737  -20.4895  -18.1555 C   0  0  0  0  0  0  0  0  0  0  0  0
   26.9353  -20.8398  -17.0693 C   0  0  0  0  0  0  0  0  0  0  0  0
   27.2516  -22.0441  -16.2361 C   0  0  2  0  0  0  0  0  0  0  0  0
   27.3230  -23.2847  -16.9892 N   0  0  0  0  0  0  0  0  0  0  0  0
   26.2296  -22.1379  -15.1709 C   0  0  0  0  0  0  0  0  0  0  0  0
   25.2410  -22.8610  -15.3694 O   0  0  0  0  0  0  0  0  0  0  0  0
   31.2609  -21.7939  -21.2084 C   0  0  0  0  0  0  0  0  0  0  0  0
   25.2130  -20.7425   -7.4191 S   0  0  0  0  0  0  0  0  0  0  0  0
   26.0907  -20.2246   -8.9043 C   0  0  0  0  0  0  0  0  0  0  0  0
   25.1846  -20.8004  -10.4128 C   0  0  0  0  0  0  0  0  0  0  0  0
   26.1624  -20.8932  -11.5567 C   0  0  1  0  0  0  0  0  0  0  0  0
   25.5351  -21.4177  -12.8311 N   0  0  0  0  0  0  0  0  0  0  0  0
   26.3914  -21.4220  -13.9740 C   0  0  0  0  0  0  0  0  0  0  0  0
   24.2665  -20.7468  -13.1641 O   0  0  0  0  0  0  0  0  0  0  0  0
   24.2477  -19.5276  -13.5028 N   0  0  0  0  0  0  0  0  0  0  0  0
   23.0773  -21.4983  -13.0962 C   0  0  1  0  0  0  0  0  0  0  0  0
   21.7614  -21.0034  -13.3687 C   0  0  0  0  0  0  0  0  0  0  0  0
   20.7413  -22.0706  -13.6604 C   0  0  0  0  0  0  0  0  0  0  0  0
   19.4277  -21.4138  -14.0029 C   0  0  0  0  0  0  0  0  0  0  0  0
   18.4733  -22.5434  -14.3505 C   0  0  0  0  0  0  0  0  0  0  0  0
   17.1183  -21.9644  -14.6948 N   0  0  0  0  0  0  0  0  0  0  0  0
   16.1978  -22.9982  -15.0604 C   0  0  0  0  0  0  0  0  0  0  0  0
   21.3136  -20.0036  -12.3760 O   0  0  0  0  0  0  0  0  0  0  0  0
   21.6273  -20.1230  -11.0331 O   0  0  0  0  0  0  0  0  0  0  0  0
  1  2  1  0
  2  3  2  0
  4  5  1  0
  4  2  1  0
  6  5  1  0
  7  6  1  0
  8  7  1  0
  8  9  1  6
 10  8  1  0
 11 10  2  0
 13 12  1  0
 14 13  1  0
 15 14  1  0
 16 15  1  1
 16 17  1  0
 17 10  1  0
 18 16  1  0
 18 19  2  0
 20 18  1  0
 21 20  1  0
 21 22  1  1
 23 22  1  0
 23 24  1  0
 24 25  1  0
 25 26  1  0
 27 21  1  0
 28 27  1  0
 29 27  2  0
M  END
$$$$
