RMK.pdb
     RDKit          3D

 29 28  0  0  1  0  0  0  0  0999 V2000
   34.7387  -24.1013  -11.2721 N   0  0  0  0  0  0  0  0  0  0  0  0
   34.0272  -24.0976  -12.4999 C   0  0  0  0  0  0  0  0  0  0  0  0
   34.3358  -24.9072  -13.4671 N   0  0  0  0  0  0  0  0  0  0  0  0
   32.9467  -23.2035  -12.7127 N   0  0  0  0  0  0  0  0  0  0  0  0
   32.5529  -22.2633  -11.6605 C   0  0  0  0  0  0  0  0  0  0  0  0
   31.4322  -21.4508  -12.2286 C   0  0  0  0  0  0  0  0  0  0  0  0
   30.1207  -21.8682  -11.6910 C   0  0  0  0  0  0  0  0  0  0  0  0
   28.9176  -21.0692  -12.0894 C   0  0  2  0  0  0  0  0  0  0  0  0
   29.1524  -19.6368  -12.1579 N   0  0  0  0  0  0  0  0  0  0  0  0
   27.8337  -21.3756  -11.1307 C   0  0  0  0  0  0  0  0  0  0  0  0
   27.4258  -22.5454  -11.0616 O   0  0  0  0  0  0  0  0  0  0  0  0
   33.8817  -24.9353  -14.3935 C   0  0  0  0  0  0  0  0  0  0  0  0
   26.7378  -19.5658   -4.9038 S   0  0  0  0  0  0  0  0  0  0  0  0
   28.2674  -19.8210   -5.8201 C   0  0  0  0  0  0  0  0  0  0  0  0
   27.9005  -20.5543   -7.4802 C   0  0  0  0  0  0  0  0  0  0  0  0
   26.5877  -20.0001   -7.9727 C   0  0  2  0  0  0  0  0  0  0  0  0
   26.2381  -20.4603   -9.3723 N   0  0  0  0  0  0  0  0  0  0  0  0
   27.2940  -20.3576  -10.3283 C   0  0  0  0  0  0  0  0  0  0  0  0
   25.0246  -19.8144   -9.9021 O   0  0  0  0  0  0  0  0  0  0  0  0
   25.0470  -18.6083  -10.2846 N   0  0  0  0  0  0  0  0  0  0  0  0
   23.8412  -20.5747   -9.9718 C   0  0  1  0  0  0  0  0  0  0  0  0
   22.8385  -20.4655  -10.9884 C   0  0  0  0  0  0  0  0  0  0  0  0
   23.2218  -21.0729  -12.3108 C   0  0  0  0  0  0  0  0  0  0  0  0
   22.1227  -20.8093  -13.3091 C   0  0  0  0  0  0  0  0  0  0  0  0
   22.5629  -21.4756  -14.6014 C   0  0  0  0  0  0  0  0  0  0  0  0
   21.5254  -21.2214  -15.6731 N   0  0  0  0  0  0  0  0  0  0  0  0
   21.8603  -21.9091  -16.8834 C   0  0  0  0  0  0  0  0  0  0  0  0
   21.4989  -20.8693  -10.5108 O   0  0  0  0  0  0  0  0  0  0  0  0
   20.3489  -20.2437  -10.9604 O   0  0  0  0  0  0  0  0  0  0  0  0
  1  2  1  0
  2  3  2  0
  4  5  1  0
  4  2  1  0
  6  5  1  0
  7  6  1  0
  8  7  1  0
  8  9  1  1
 10  8  1  0
 11 10  2  0
 13 12  1  0
 14 13  1  0
 15 14  1  0
 16 15  1  1
 16 17  1  0
 17 10  1  0
 18 16  1  0
 18 19  2  0
 20 18  1  0
 21 20  1  0
 21 22  1  1
 23 22  1  0
 23 24  1  0
 24 25  1  0
 25 26  1  0
 27 21  1  0
 28 27  1  0
 29 27  2  0
M  END
$$$$
