RMK.pdb
     RDKit          3D

 29 28  0  0  1  0  0  0  0  0999 V2000
   33.5985  -21.9374  -15.0497 N   0  0  0  0  0  0  0  0  0  0  0  0
   32.9580  -22.3364  -13.8480 C   0  0  0  0  0  0  0  0  0  0  0  0
   33.2619  -23.4497  -13.2527 N   0  0  0  0  0  0  0  0  0  0  0  0
   31.9578  -21.5259  -13.2522 N   0  0  0  0  0  0  0  0  0  0  0  0
   31.4702  -20.3315  -13.9463 C   0  0  0  0  0  0  0  0  0  0  0  0
   30.3529  -20.7919  -14.8287 C   0  0  0  0  0  0  0  0  0  0  0  0
   29.0609  -20.8218  -14.1124 C   0  0  0  0  0  0  0  0  0  0  0  0
   28.4710  -22.1617  -13.7942 C   0  0  2  0  0  0  0  0  0  0  0  0
   28.1362  -22.9558  -14.9641 N   0  0  0  0  0  0  0  0  0  0  0  0
   27.2744  -21.9407  -12.9532 C   0  0  0  0  0  0  0  0  0  0  0  0
   26.1599  -22.1699  -13.4481 O   0  0  0  0  0  0  0  0  0  0  0  0
   32.8164  -23.8121  -12.3951 C   0  0  0  0  0  0  0  0  0  0  0  0
   28.0878  -19.4292   -6.9224 S   0  0  0  0  0  0  0  0  0  0  0  0
   26.4567  -20.1539   -6.6802 C   0  0  0  0  0  0  0  0  0  0  0  0
   25.7381  -20.6634   -8.3088 C   0  0  0  0  0  0  0  0  0  0  0  0
   26.8661  -20.9000   -9.2809 C   0  0  2  0  0  0  0  0  0  0  0  0
   26.3848  -21.2229  -10.6797 N   0  0  0  0  0  0  0  0  0  0  0  0
   27.4155  -21.4846  -11.6328 C   0  0  0  0  0  0  0  0  0  0  0  0
   25.4589  -20.2099  -11.2157 O   0  0  0  0  0  0  0  0  0  0  0  0
   25.8971  -19.1466  -11.7439 N   0  0  0  0  0  0  0  0  0  0  0  0
   24.0754  -20.4571  -11.1250 C   0  0  1  0  0  0  0  0  0  0  0  0
   23.0989  -20.1048  -12.1116 C   0  0  0  0  0  0  0  0  0  0  0  0
   23.4599  -20.5032  -13.5171 C   0  0  0  0  0  0  0  0  0  0  0  0
   22.4405  -19.9277  -14.4677 C   0  0  0  0  0  0  0  0  0  0  0  0
   22.8502  -20.3956  -15.8537 C   0  0  0  0  0  0  0  0  0  0  0  0
   21.9117  -19.7992  -16.8800 N   0  0  0  0  0  0  0  0  0  0  0  0
   22.3457  -20.1052  -18.2096 C   0  0  0  0  0  0  0  0  0  0  0  0
   21.7271  -20.4876  -11.7152 O   0  0  0  0  0  0  0  0  0  0  0  0
   20.6635  -19.6109  -11.8420 O   0  0  0  0  0  0  0  0  0  0  0  0
  1  2  1  0
  2  3  2  0
  4  5  1  0
  4  2  1  0
  6  5  1  0
  7  6  1  0
  8  7  1  0
  8  9  1  6
 10  8  1  0
 11 10  2  0
 13 12  1  0
 14 13  1  0
 15 14  1  0
 16 15  1  1
 16 17  1  0
 17 10  1  0
 18 16  1  0
 18 19  2  0
 20 18  1  0
 21 20  1  0
 21 22  1  1
 23 22  1  0
 23 24  1  0
 24 25  1  0
 25 26  1  0
 27 21  1  0
 28 27  1  0
 29 27  2  0
M  END
$$$$
