RMK.pdb
     RDKit          3D

 29 28  0  0  1  0  0  0  0  0999 V2000
   30.2645  -23.3879  -18.1979 N   0  0  0  0  0  0  0  0  0  0  0  0
   29.6699  -22.2373  -18.7777 C   0  0  0  0  0  0  0  0  0  0  0  0
   29.6439  -22.0603  -20.0638 N   0  0  0  0  0  0  0  0  0  0  0  0
   29.0791  -21.2354  -17.9657 N   0  0  0  0  0  0  0  0  0  0  0  0
   29.1610  -21.3298  -16.5061 C   0  0  0  0  0  0  0  0  0  0  0  0
   28.2693  -22.4653  -16.1133 C   0  0  0  0  0  0  0  0  0  0  0  0
   27.8146  -22.3503  -14.7122 C   0  0  0  0  0  0  0  0  0  0  0  0
   27.0180  -21.1388  -14.3349 C   0  0  2  0  0  0  0  0  0  0  0  0
   27.8255  -19.9779  -14.0005 N   0  0  0  0  0  0  0  0  0  0  0  0
   26.1412  -21.5088  -13.2025 C   0  0  0  0  0  0  0  0  0  0  0  0
   25.4585  -22.5401  -13.3027 O   0  0  0  0  0  0  0  0  0  0  0  0
   29.3187  -21.2072  -20.5452 C   0  0  0  0  0  0  0  0  0  0  0  0
   27.3506  -18.7508   -7.5114 S   0  0  0  0  0  0  0  0  0  0  0  0
   27.5358  -20.5414   -7.5751 C   0  0  0  0  0  0  0  0  0  0  0  0
   26.9140  -21.1887   -9.1945 C   0  0  0  0  0  0  0  0  0  0  0  0
   25.7260  -20.3633   -9.6197 C   0  0  2  0  0  0  0  0  0  0  0  0
   25.1715  -20.7736  -10.9677 N   0  0  0  0  0  0  0  0  0  0  0  0
   26.0966  -20.7035  -12.0533 C   0  0  0  0  0  0  0  0  0  0  0  0
   23.9352  -20.0550  -11.3220 O   0  0  0  0  0  0  0  0  0  0  0  0
   23.9813  -18.8898  -11.8136 N   0  0  0  0  0  0  0  0  0  0  0  0
   22.7027  -20.6994  -11.0999 C   0  0  1  0  0  0  0  0  0  0  0  0
   21.5211  -20.5350  -11.8920 C   0  0  0  0  0  0  0  0  0  0  0  0
   21.6791  -20.9251  -13.3368 C   0  0  0  0  0  0  0  0  0  0  0  0
   20.3869  -20.6495  -14.0639 C   0  0  0  0  0  0  0  0  0  0  0  0
   20.6210  -21.0671  -15.5056 C   0  0  0  0  0  0  0  0  0  0  0  0
   19.3785  -20.7748  -16.3183 N   0  0  0  0  0  0  0  0  0  0  0  0
   19.5962  -21.0554  -17.7053 C   0  0  0  0  0  0  0  0  0  0  0  0
   20.3202  -21.1065  -11.2463 O   0  0  0  0  0  0  0  0  0  0  0  0
   19.0480  -20.6528  -11.5487 O   0  0  0  0  0  0  0  0  0  0  0  0
  1  2  1  0
  2  3  2  0
  4  5  1  0
  4  2  1  0
  6  5  1  0
  7  6  1  0
  8  7  1  0
  8  9  1  1
 10  8  1  0
 11 10  2  0
 13 12  1  0
 14 13  1  0
 15 14  1  0
 16 15  1  1
 16 17  1  0
 17 10  1  0
 18 16  1  0
 18 19  2  0
 20 18  1  0
 21 20  1  0
 21 22  1  1
 23 22  1  0
 23 24  1  0
 24 25  1  0
 25 26  1  0
 27 21  1  0
 28 27  1  0
 29 27  2  0
M  END
$$$$
