RMK.pdb
     RDKit          3D

 29 28  0  0  1  0  0  0  0  0999 V2000
   32.0460  -24.8006  -15.2224 N   0  0  0  0  0  0  0  0  0  0  0  0
   31.6915  -24.7963  -16.5965 C   0  0  0  0  0  0  0  0  0  0  0  0
   31.8798  -25.8365  -17.3505 N   0  0  0  0  0  0  0  0  0  0  0  0
   31.1144  -23.6475  -17.1960 N   0  0  0  0  0  0  0  0  0  0  0  0
   30.8439  -22.4550  -16.3891 C   0  0  0  0  0  0  0  0  0  0  0  0
   29.6046  -22.7562  -15.6067 C   0  0  0  0  0  0  0  0  0  0  0  0
   28.3956  -22.2087  -16.2562 C   0  0  0  0  0  0  0  0  0  0  0  0
   27.7934  -20.9665  -15.6742 C   0  0  2  0  0  0  0  0  0  0  0  0
   28.7527  -20.0907  -15.0229 N   0  0  0  0  0  0  0  0  0  0  0  0
   26.7350  -21.3784  -14.7265 C   0  0  0  0  0  0  0  0  0  0  0  0
   25.7991  -22.0696  -15.1576 O   0  0  0  0  0  0  0  0  0  0  0  0
   31.6771  -25.8890  -18.3612 C   0  0  0  0  0  0  0  0  0  0  0  0
   27.6864  -20.2818   -8.3461 S   0  0  0  0  0  0  0  0  0  0  0  0
   25.9072  -20.5485   -8.2583 C   0  0  0  0  0  0  0  0  0  0  0  0
   25.2711  -21.1436   -9.8922 C   0  0  0  0  0  0  0  0  0  0  0  0
   26.2861  -20.8090  -10.9557 C   0  0  2  0  0  0  0  0  0  0  0  0
   25.8597  -21.2482  -12.3407 N   0  0  0  0  0  0  0  0  0  0  0  0
   26.8049  -20.9892  -13.3793 C   0  0  0  0  0  0  0  0  0  0  0  0
   24.5396  -20.7210  -12.7283 O   0  0  0  0  0  0  0  0  0  0  0  0
   24.3935  -19.5020  -13.0353 N   0  0  0  0  0  0  0  0  0  0  0  0
   23.4470  -21.6094  -12.7487 C   0  0  1  0  0  0  0  0  0  0  0  0
   22.1330  -21.3042  -13.2293 C   0  0  0  0  0  0  0  0  0  0  0  0
   21.5177  -22.3765  -14.0874 C   0  0  0  0  0  0  0  0  0  0  0  0
   20.1759  -21.8988  -14.5831 C   0  0  0  0  0  0  0  0  0  0  0  0
   19.6325  -23.0145  -15.4593 C   0  0  0  0  0  0  0  0  0  0  0  0
   18.2989  -22.5919  -16.0363 N   0  0  0  0  0  0  0  0  0  0  0  0
   17.7228  -23.6441  -16.8180 C   0  0  0  0  0  0  0  0  0  0  0  0
   21.2392  -20.8061  -12.1622 O   0  0  0  0  0  0  0  0  0  0  0  0
   20.1117  -20.0569  -12.4506 O   0  0  0  0  0  0  0  0  0  0  0  0
  1  2  1  0
  2  3  2  0
  4  5  1  0
  4  2  1  0
  6  5  1  0
  7  6  1  0
  8  7  1  0
  8  9  1  1
 10  8  1  0
 11 10  2  0
 13 12  1  0
 14 13  1  0
 15 14  1  0
 16 15  1  1
 16 17  1  0
 17 10  1  0
 18 16  1  0
 18 19  2  0
 20 18  1  0
 21 20  1  0
 21 22  1  1
 23 22  1  0
 23 24  1  0
 24 25  1  0
 25 26  1  0
 27 21  1  0
 28 27  1  0
 29 27  2  0
M  END
$$$$
