RMK.pdb
     RDKit          3D

 29 28  0  0  1  0  0  0  0  0999 V2000
   26.3679  -21.2042  -19.2499 N   0  0  0  0  0  0  0  0  0  0  0  0
   25.3827  -21.8297  -18.4426 C   0  0  0  0  0  0  0  0  0  0  0  0
   24.5109  -22.6495  -18.9466 N   0  0  0  0  0  0  0  0  0  0  0  0
   25.3177  -21.5793  -17.0479 N   0  0  0  0  0  0  0  0  0  0  0  0
   24.3789  -20.5847  -16.5229 C   0  0  0  0  0  0  0  0  0  0  0  0
   25.1335  -19.8057  -15.4921 C   0  0  0  0  0  0  0  0  0  0  0  0
   24.9286  -20.3470  -14.1326 C   0  0  0  0  0  0  0  0  0  0  0  0
   26.0890  -21.0242  -13.4696 C   0  0  2  0  0  0  0  0  0  0  0  0
   26.6008  -22.1730  -14.1975 N   0  0  0  0  0  0  0  0  0  0  0  0
   25.6661  -21.4152  -12.1072 C   0  0  0  0  0  0  0  0  0  0  0  0
   25.1797  -22.5454  -11.9464 O   0  0  0  0  0  0  0  0  0  0  0  0
   23.7879  -23.1580  -18.4137 C   0  0  0  0  0  0  0  0  0  0  0  0
   26.6866  -19.6818   -4.4082 S   0  0  0  0  0  0  0  0  0  0  0  0
   26.9106  -19.1659   -6.1194 C   0  0  0  0  0  0  0  0  0  0  0  0
   25.8602  -20.2008   -7.2392 C   0  0  0  0  0  0  0  0  0  0  0  0
   26.2252  -19.8878   -8.6682 C   0  0  2  0  0  0  0  0  0  0  0  0
   25.4445  -20.7093   -9.6725 N   0  0  0  0  0  0  0  0  0  0  0  0
   25.8197  -20.5192  -11.0372 C   0  0  0  0  0  0  0  0  0  0  0  0
   23.9864  -20.5520   -9.5323 O   0  0  0  0  0  0  0  0  0  0  0  0
   23.3636  -19.6688  -10.1908 N   0  0  0  0  0  0  0  0  0  0  0  0
   23.3055  -21.4105   -8.6475 C   0  0  2  0  0  0  0  0  0  0  0  0
   21.8837  -21.5524   -8.5518 C   0  0  0  0  0  0  0  0  0  0  0  0
   21.4196  -22.4467   -7.4341 C   0  0  0  0  0  0  0  0  0  0  0  0
   19.9291  -22.6449   -7.5505 C   0  0  0  0  0  0  0  0  0  0  0  0
   19.5539  -23.6420   -6.4676 C   0  0  0  0  0  0  0  0  0  0  0  0
   18.0555  -23.8523   -6.4797 N   0  0  0  0  0  0  0  0  0  0  0  0
   17.6680  -24.8308   -5.5089 C   0  0  0  0  0  0  0  0  0  0  0  0
   21.1780  -20.2547   -8.6116 O   0  0  0  0  0  0  0  0  0  0  0  0
   20.0868  -20.0592   -9.4405 O   0  0  0  0  0  0  0  0  0  0  0  0
  1  2  1  0
  2  3  2  0
  4  5  1  0
  4  2  1  0
  6  5  1  0
  7  6  1  0
  8  7  1  0
  8  9  1  6
 10  8  1  0
 11 10  2  0
 13 12  1  0
 14 13  1  0
 15 14  1  0
 16 15  1  1
 16 17  1  0
 17 10  1  0
 18 16  1  0
 18 19  2  0
 20 18  1  0
 21 20  1  0
 21 22  1  1
 23 22  1  0
 23 24  1  0
 24 25  1  0
 25 26  1  0
 27 21  1  0
 28 27  1  0
 29 27  2  0
M  END
$$$$
