RMK.pdb
     RDKit          3D

 29 28  0  0  1  0  0  0  0  0999 V2000
   22.0303  -21.3003  -17.1836 N   0  0  0  0  0  0  0  0  0  0  0  0
   20.7116  -21.7574  -17.4398 C   0  0  0  0  0  0  0  0  0  0  0  0
   20.4669  -22.6547  -18.3460 N   0  0  0  0  0  0  0  0  0  0  0  0
   19.6088  -21.2462  -16.7086 N   0  0  0  0  0  0  0  0  0  0  0  0
   19.8198  -20.2276  -15.6771 C   0  0  0  0  0  0  0  0  0  0  0  0
   19.8103  -20.9538  -14.3690 C   0  0  0  0  0  0  0  0  0  0  0  0
   20.0239  -20.0389  -13.2286 C   0  0  0  0  0  0  0  0  0  0  0  0
   21.2852  -20.1961  -12.4355 C   0  0  2  0  0  0  0  0  0  0  0  0
   22.4293  -20.6293  -13.2196 N   0  0  0  0  0  0  0  0  0  0  0  0
   21.0132  -21.1496  -11.3379 C   0  0  0  0  0  0  0  0  0  0  0  0
   21.0544  -22.3634  -11.5924 O   0  0  0  0  0  0  0  0  0  0  0  0
   19.5290  -22.9641  -18.6456 C   0  0  0  0  0  0  0  0  0  0  0  0
   21.2788  -18.7996   -5.3221 S   0  0  0  0  0  0  0  0  0  0  0  0
   20.7368  -20.4481   -4.8393 C   0  0  0  0  0  0  0  0  0  0  0  0
   20.5465  -21.5199   -6.3371 C   0  0  0  0  0  0  0  0  0  0  0  0
   20.6297  -20.6505   -7.5661 C   0  0  2  0  0  0  0  0  0  0  0  0
   20.5303  -21.4371   -8.8561 N   0  0  0  0  0  0  0  0  0  0  0  0
   20.7193  -20.6758  -10.0493 C   0  0  0  0  0  0  0  0  0  0  0  0
   19.2847  -22.2174   -8.9573 O   0  0  0  0  0  0  0  0  0  0  0  0
   18.2277  -21.6940   -9.4160 N   0  0  0  0  0  0  0  0  0  0  0  0
   19.3026  -23.5597   -8.5313 C   0  0  1  0  0  0  0  0  0  0  0  0
   18.1624  -24.4214   -8.4416 C   0  0  0  0  0  0  0  0  0  0  0  0
   18.4431  -25.7661   -7.8271 C   0  0  0  0  0  0  0  0  0  0  0  0
   17.2269  -26.6430   -7.9879 C   0  0  0  0  0  0  0  0  0  0  0  0
   17.5962  -27.9856   -7.3807 C   0  0  0  0  0  0  0  0  0  0  0  0
   16.4169  -28.9269   -7.4952 N   0  0  0  0  0  0  0  0  0  0  0  0
   16.7403  -30.2190   -6.9700 C   0  0  0  0  0  0  0  0  0  0  0  0
   16.9788  -23.7404   -7.8750 O   0  0  0  0  0  0  0  0  0  0  0  0
   15.7408  -23.8037   -8.4909 O   0  0  0  0  0  0  0  0  0  0  0  0
  1  2  1  0
  2  3  2  0
  4  5  1  0
  4  2  1  0
  6  5  1  0
  7  6  1  0
  8  7  1  0
  8  9  1  6
 10  8  1  0
 11 10  2  0
 13 12  1  0
 14 13  1  0
 15 14  1  0
 16 15  1  1
 16 17  1  0
 17 10  1  0
 18 16  1  0
 18 19  2  0
 20 18  1  0
 21 20  1  0
 21 22  1  1
 23 22  1  0
 23 24  1  0
 24 25  1  0
 25 26  1  0
 27 21  1  0
 28 27  1  0
 29 27  2  0
M  END
$$$$
