RMK.pdb
     RDKit          3D

 29 28  0  0  1  0  0  0  0  0999 V2000
   29.8659  -18.7420  -17.9985 N   0  0  0  0  0  0  0  0  0  0  0  0
   29.3917  -17.4229  -18.2193 C   0  0  0  0  0  0  0  0  0  0  0  0
   29.7161  -16.7528  -19.2831 N   0  0  0  0  0  0  0  0  0  0  0  0
   28.5405  -16.7882  -17.2786 N   0  0  0  0  0  0  0  0  0  0  0  0
   28.1221  -17.5003  -16.0687 C   0  0  0  0  0  0  0  0  0  0  0  0
   27.1574  -18.5517  -16.5190 C   0  0  0  0  0  0  0  0  0  0  0  0
   26.6359  -19.3434  -15.3857 C   0  0  0  0  0  0  0  0  0  0  0  0
   27.4229  -20.5423  -14.9522 C   0  0  2  0  0  0  0  0  0  0  0  0
   27.7340  -21.4688  -16.0275 N   0  0  0  0  0  0  0  0  0  0  0  0
   26.6599  -21.2212  -13.8822 C   0  0  0  0  0  0  0  0  0  0  0  0
   25.8545  -22.1070  -14.2086 O   0  0  0  0  0  0  0  0  0  0  0  0
   29.4768  -15.7657  -19.4662 C   0  0  0  0  0  0  0  0  0  0  0  0
   28.0073  -20.2688   -7.4266 S   0  0  0  0  0  0  0  0  0  0  0  0
   26.2145  -20.0956   -7.4181 C   0  0  0  0  0  0  0  0  0  0  0  0
   25.4999  -20.7932   -8.9772 C   0  0  0  0  0  0  0  0  0  0  0  0
   26.4590  -20.5255  -10.1093 C   0  0  2  0  0  0  0  0  0  0  0  0
   25.9524  -21.0257  -11.4457 N   0  0  0  0  0  0  0  0  0  0  0  0
   26.8556  -20.8606  -12.5395 C   0  0  0  0  0  0  0  0  0  0  0  0
   24.6344  -20.4727  -11.8028 O   0  0  0  0  0  0  0  0  0  0  0  0
   24.4996  -19.2444  -12.0764 N   0  0  0  0  0  0  0  0  0  0  0  0
   23.5306  -21.3469  -11.8322 C   0  0  1  0  0  0  0  0  0  0  0  0
   22.2177  -21.0170  -12.2996 C   0  0  0  0  0  0  0  0  0  0  0  0
   21.6893  -21.9309  -13.3721 C   0  0  0  0  0  0  0  0  0  0  0  0
   20.3008  -21.4852  -13.7565 C   0  0  0  0  0  0  0  0  0  0  0  0
   19.8389  -22.4443  -14.8403 C   0  0  0  0  0  0  0  0  0  0  0  0
   18.4473  -22.0564  -15.2907 N   0  0  0  0  0  0  0  0  0  0  0  0
   17.9049  -23.0381  -16.1805 C   0  0  0  0  0  0  0  0  0  0  0  0
   21.2648  -20.7776  -11.1950 O   0  0  0  0  0  0  0  0  0  0  0  0
   21.6164  -20.9926   -9.8736 O   0  0  0  0  0  0  0  0  0  0  0  0
  1  2  1  0
  2  3  2  0
  4  5  1  0
  4  2  1  0
  6  5  1  0
  7  6  1  0
  8  7  1  0
  8  9  1  6
 10  8  1  0
 11 10  2  0
 13 12  1  0
 14 13  1  0
 15 14  1  0
 16 15  1  1
 16 17  1  0
 17 10  1  0
 18 16  1  0
 18 19  2  0
 20 18  1  0
 21 20  1  0
 21 22  1  1
 23 22  1  0
 23 24  1  0
 24 25  1  0
 25 26  1  0
 27 21  1  0
 28 27  1  0
 29 27  2  0
M  END
$$$$
