CNC.pdb
     RDKit          3D

 21 20  0  0  1  0  0  0  0  0999 V2000
    7.8717  -14.6899   15.9166 N   0  0  0  0  0  0  0  0  0  0  0  0
    8.5434  -14.1142   17.0394 C   0  0  1  0  0  0  0  0  0  0  0  0
    7.5999  -13.1148   17.6950 C   0  0  0  0  0  0  0  0  0  0  0  0
    8.3807  -12.4691   19.1961 S   0  0  0  0  0  0  0  0  0  0  0  0
    8.8719  -15.1217   18.0805 C   0  0  0  0  0  0  0  0  0  0  0  0
    7.9379  -15.9357   18.3801 O   0  0  0  0  0  0  0  0  0  0  0  0
   10.9093  -19.3663   18.8147 N   0  0  0  0  0  0  0  0  0  0  0  0
   11.3142  -18.0554   18.4941 C   0  0  0  0  0  0  0  0  0  0  0  0
   11.4827  -17.7413   17.2954 O   0  0  0  0  0  0  0  0  0  0  0  0
   11.5469  -17.0350   19.5361 C   0  0  0  0  0  0  0  0  0  0  0  0
   10.3234  -16.1688   19.7566 C   0  0  2  0  0  0  0  0  0  0  0  0
   10.1367  -15.2021   18.7226 N   0  0  0  0  0  0  0  0  0  0  0  0
   10.5255  -15.4654   21.0390 C   0  0  0  0  0  0  0  0  0  0  0  0
   11.3725  -14.5717   21.1505 O   0  0  0  0  0  0  0  0  0  0  0  0
    9.7327  -15.8265   22.1491 N   0  0  0  0  0  0  0  0  0  0  0  0
    9.9196  -15.3245   23.4754 C   0  0  1  0  0  0  0  0  0  0  0  0
    8.5703  -14.7887   23.9382 C   0  0  0  0  0  0  0  0  0  0  0  0
    7.2472  -15.9601   23.6204 S   0  0  0  0  0  0  0  0  0  0  0  0
   10.2427  -16.4488   24.3787 C   0  0  0  0  0  0  0  0  0  0  0  0
   10.7106  -16.2678   25.6742 O   0  0  0  0  0  0  0  0  0  0  0  0
   10.0963  -17.6299   23.9823 O   0  0  0  0  0  0  0  0  0  0  0  0
  2  1  1  6
  3  2  1  0
  4  3  1  0
  5 12  1  0
  5  2  1  0
  6  5  2  0
  7  8  1  0
  8  9  2  0
  8 10  1  0
 11 10  1  6
 11 13  1  0
 11 12  1  0
 13 15  1  0
 14 13  2  0
 15 16  1  0
 16 19  1  0
 16 17  1  1
 18 17  1  0
 19 20  1  0
 21 19  2  0
M  END
$$$$
