CNC.pdb
     RDKit          3D

 21 20  0  0  1  0  0  0  0  0999 V2000
    7.1663  -15.3825   19.9379 N   0  0  0  0  0  0  0  0  0  0  0  0
    8.2965  -14.8693   20.6465 C   0  0  1  0  0  0  0  0  0  0  0  0
    8.0251  -13.4078   20.9771 C   0  0  0  0  0  0  0  0  0  0  0  0
    8.0770  -12.4411   19.4466 S   0  0  0  0  0  0  0  0  0  0  0  0
    8.5109  -15.5573   21.9455 C   0  0  0  0  0  0  0  0  0  0  0  0
    7.4558  -15.8894   22.5790 O   0  0  0  0  0  0  0  0  0  0  0  0
   12.3363  -17.4671   21.5294 N   0  0  0  0  0  0  0  0  0  0  0  0
   12.1058  -17.4546   22.9193 C   0  0  0  0  0  0  0  0  0  0  0  0
   13.0284  -17.1125   23.6911 O   0  0  0  0  0  0  0  0  0  0  0  0
   10.8004  -17.8350   23.4961 C   0  0  0  0  0  0  0  0  0  0  0  0
    9.8895  -16.6357   23.6627 C   0  0  2  0  0  0  0  0  0  0  0  0
    9.7964  -15.8434   22.4787 N   0  0  0  0  0  0  0  0  0  0  0  0
   10.4636  -15.8126   24.7459 C   0  0  0  0  0  0  0  0  0  0  0  0
   11.2734  -14.9108   24.5018 O   0  0  0  0  0  0  0  0  0  0  0  0
   10.0739  -16.0674   26.0780 N   0  0  0  0  0  0  0  0  0  0  0  0
   10.5793  -15.3664   27.2178 C   0  0  1  0  0  0  0  0  0  0  0  0
    9.5557  -14.2922   27.5642 C   0  0  0  0  0  0  0  0  0  0  0  0
   10.0438  -13.3543   29.0154 S   0  0  0  0  0  0  0  0  0  0  0  0
   10.6139  -16.2842   28.3757 C   0  0  0  0  0  0  0  0  0  0  0  0
   11.4575  -16.0977   29.4637 O   0  0  0  0  0  0  0  0  0  0  0  0
    9.8572  -17.2843   28.4024 O   0  0  0  0  0  0  0  0  0  0  0  0
  2  1  1  1
  3  2  1  0
  4  3  1  0
  5 12  1  0
  5  2  1  0
  6  5  2  0
  7  8  1  0
  8  9  2  0
  8 10  1  0
 11 10  1  6
 11 13  1  0
 11 12  1  0
 13 15  1  0
 14 13  2  0
 15 16  1  0
 16 19  1  0
 16 17  1  1
 18 17  1  0
 19 20  1  0
 21 19  2  0
M  END
$$$$
