CNC.pdb
     RDKit          3D

 21 20  0  0  1  0  0  0  0  0999 V2000
   12.0490  -16.0354   19.9727 N   0  0  0  0  0  0  0  0  0  0  0  0
   11.7011  -16.8702   21.0795 C   0  0  1  0  0  0  0  0  0  0  0  0
   12.6794  -16.5882   22.2120 C   0  0  0  0  0  0  0  0  0  0  0  0
   12.6150  -14.8242   22.6167 S   0  0  0  0  0  0  0  0  0  0  0  0
   10.3480  -16.5685   21.6132 C   0  0  0  0  0  0  0  0  0  0  0  0
    9.7293  -15.6080   21.0479 O   0  0  0  0  0  0  0  0  0  0  0  0
    5.6997  -16.6724   23.6573 N   0  0  0  0  0  0  0  0  0  0  0  0
    6.4074  -17.6879   24.3306 C   0  0  0  0  0  0  0  0  0  0  0  0
    5.8116  -18.3971   25.1709 O   0  0  0  0  0  0  0  0  0  0  0  0
    7.8392  -17.9421   24.0728 C   0  0  0  0  0  0  0  0  0  0  0  0
    8.4072  -16.9725   23.0564 C   0  0  2  0  0  0  0  0  0  0  0  0
    9.7499  -17.2847   22.6847 N   0  0  0  0  0  0  0  0  0  0  0  0
    8.3823  -15.6358   23.6833 C   0  0  0  0  0  0  0  0  0  0  0  0
    8.2527  -14.6129   23.0011 O   0  0  0  0  0  0  0  0  0  0  0  0
    8.5084  -15.5358   25.0853 N   0  0  0  0  0  0  0  0  0  0  0  0
    8.4469  -14.3092   25.8184 C   0  0  1  0  0  0  0  0  0  0  0  0
    7.0601  -13.7237   25.5827 C   0  0  0  0  0  0  0  0  0  0  0  0
    6.8114  -12.2106   26.5168 S   0  0  0  0  0  0  0  0  0  0  0  0
    8.5239  -14.6040   27.2646 C   0  0  0  0  0  0  0  0  0  0  0  0
    8.7873  -13.6321   28.2218 O   0  0  0  0  0  0  0  0  0  0  0  0
    8.3469  -15.7768   27.6729 O   0  0  0  0  0  0  0  0  0  0  0  0
  2  1  1  6
  3  2  1  0
  4  3  1  0
  5 12  1  0
  5  2  1  0
  6  5  2  0
  7  8  1  0
  8  9  2  0
  8 10  1  0
 11 10  1  1
 11 13  1  0
 11 12  1  0
 13 15  1  0
 14 13  2  0
 15 16  1  0
 16 19  1  0
 16 17  1  1
 18 17  1  0
 19 20  1  0
 21 19  2  0
M  END
$$$$
