CNC.pdb
     RDKit          3D

 21 20  0  0  1  0  0  0  0  0999 V2000
    7.2571  -16.4515   20.5884 N   0  0  0  0  0  0  0  0  0  0  0  0
    8.4244  -15.7097   20.9490 C   0  0  1  0  0  0  0  0  0  0  0  0
    8.0031  -14.2760   21.2425 C   0  0  0  0  0  0  0  0  0  0  0  0
    6.7449  -14.2896   22.5449 S   0  0  0  0  0  0  0  0  0  0  0  0
    9.0585  -16.2202   22.1916 C   0  0  0  0  0  0  0  0  0  0  0  0
    8.2633  -16.7012   23.0639 O   0  0  0  0  0  0  0  0  0  0  0  0
   13.4345  -15.8246   21.6724 N   0  0  0  0  0  0  0  0  0  0  0  0
   13.2841  -16.1106   23.0438 C   0  0  0  0  0  0  0  0  0  0  0  0
   13.9078  -15.4271   23.8850 O   0  0  0  0  0  0  0  0  0  0  0  0
   12.4072  -17.1990   23.5211 C   0  0  0  0  0  0  0  0  0  0  0  0
   10.9658  -16.7472   23.6397 C   0  0  2  0  0  0  0  0  0  0  0  0
   10.4594  -16.1901   22.4266 N   0  0  0  0  0  0  0  0  0  0  0  0
   10.9292  -15.7135   24.6934 C   0  0  0  0  0  0  0  0  0  0  0  0
   11.0620  -14.5156   24.4177 O   0  0  0  0  0  0  0  0  0  0  0  0
   10.7378  -16.1104   26.0341 N   0  0  0  0  0  0  0  0  0  0  0  0
   10.6641  -15.2095   27.1427 C   0  0  1  0  0  0  0  0  0  0  0  0
    9.2934  -14.5469   27.0819 C   0  0  0  0  0  0  0  0  0  0  0  0
    9.0097  -13.4788   28.4969 S   0  0  0  0  0  0  0  0  0  0  0  0
   10.6859  -15.9853   28.4004 C   0  0  0  0  0  0  0  0  0  0  0  0
   11.0618  -15.4375   29.6206 O   0  0  0  0  0  0  0  0  0  0  0  0
   10.3541  -17.1950   28.3936 O   0  0  0  0  0  0  0  0  0  0  0  0
  2  1  1  1
  3  2  1  0
  4  3  1  0
  5 12  1  0
  5  2  1  0
  6  5  2  0
  7  8  1  0
  8  9  2  0
  8 10  1  0
 11 10  1  6
 11 13  1  0
 11 12  1  0
 13 15  1  0
 14 13  2  0
 15 16  1  0
 16 19  1  0
 16 17  1  6
 18 17  1  0
 19 20  1  0
 21 19  2  0
M  END
$$$$
