CNC.pdb
     RDKit          3D

 21 20  0  0  1  0  0  0  0  0999 V2000
    7.0795  -15.7986   18.0695 N   0  0  0  0  0  0  0  0  0  0  0  0
    8.3031  -15.1385   18.4013 C   0  0  1  0  0  0  0  0  0  0  0  0
    7.9615  -13.7904   19.0217 C   0  0  0  0  0  0  0  0  0  0  0  0
    7.1612  -12.7549   17.7698 S   0  0  0  0  0  0  0  0  0  0  0  0
    9.0879  -15.8798   19.4218 C   0  0  0  0  0  0  0  0  0  0  0  0
    8.4088  -16.5627   20.2567 O   0  0  0  0  0  0  0  0  0  0  0  0
   11.9608  -18.7417   18.5721 N   0  0  0  0  0  0  0  0  0  0  0  0
   12.8346  -17.6922   18.9191 C   0  0  0  0  0  0  0  0  0  0  0  0
   13.8080  -17.4340   18.1778 O   0  0  0  0  0  0  0  0  0  0  0  0
   12.6349  -16.8831   20.1385 C   0  0  0  0  0  0  0  0  0  0  0  0
   11.1646  -16.6858   20.4466 C   0  0  2  0  0  0  0  0  0  0  0  0
   10.5067  -15.8520   19.4925 N   0  0  0  0  0  0  0  0  0  0  0  0
   11.0905  -16.0446   21.7747 C   0  0  0  0  0  0  0  0  0  0  0  0
   11.0529  -14.8141   21.8883 O   0  0  0  0  0  0  0  0  0  0  0  0
   11.0616  -16.8594   22.9265 N   0  0  0  0  0  0  0  0  0  0  0  0
   10.6795  -16.4074   24.2287 C   0  0  1  0  0  0  0  0  0  0  0  0
    9.1904  -16.0905   24.1660 C   0  0  0  0  0  0  0  0  0  0  0  0
    8.6573  -15.1259   25.5835 S   0  0  0  0  0  0  0  0  0  0  0  0
   10.8184  -17.5221   25.1892 C   0  0  0  0  0  0  0  0  0  0  0  0
   11.2571  -17.3448   26.4954 O   0  0  0  0  0  0  0  0  0  0  0  0
   10.5335  -18.6910   24.8343 O   0  0  0  0  0  0  0  0  0  0  0  0
  2  1  1  1
  3  2  1  0
  4  3  1  0
  5 12  1  0
  5  2  1  0
  6  5  2  0
  7  8  1  0
  8  9  2  0
  8 10  1  0
 11 10  1  6
 11 13  1  0
 11 12  1  0
 13 15  1  0
 14 13  2  0
 15 16  1  0
 16 19  1  0
 16 17  1  6
 18 17  1  0
 19 20  1  0
 21 19  2  0
M  END
$$$$
