CNC.pdb
     RDKit          3D

 21 20  0  0  1  0  0  0  0  0999 V2000
    8.0826  -16.6543   19.0288 N   0  0  0  0  0  0  0  0  0  0  0  0
    8.7831  -15.7888   19.9251 C   0  0  1  0  0  0  0  0  0  0  0  0
    8.5579  -14.3530   19.4708 C   0  0  0  0  0  0  0  0  0  0  0  0
    7.4251  -13.5426   20.6282 S   0  0  0  0  0  0  0  0  0  0  0  0
    8.2642  -15.8723   21.3146 C   0  0  0  0  0  0  0  0  0  0  0  0
    7.0083  -16.0576   21.4283 O   0  0  0  0  0  0  0  0  0  0  0  0
   11.0991  -18.4404   23.4539 N   0  0  0  0  0  0  0  0  0  0  0  0
   10.4707  -17.4721   24.2619 C   0  0  0  0  0  0  0  0  0  0  0  0
   11.1724  -16.6924   24.9429 O   0  0  0  0  0  0  0  0  0  0  0  0
    9.0005  -17.3489   24.3297 C   0  0  0  0  0  0  0  0  0  0  0  0
    8.5200  -16.0351   23.7478 C   0  0  2  0  0  0  0  0  0  0  0  0
    9.0869  -15.7573   22.4672 N   0  0  0  0  0  0  0  0  0  0  0  0
    8.9290  -14.9764   24.6924 C   0  0  0  0  0  0  0  0  0  0  0  0
   10.0347  -14.4310   24.6005 O   0  0  0  0  0  0  0  0  0  0  0  0
    8.0348  -14.5878   25.7126 N   0  0  0  0  0  0  0  0  0  0  0  0
    8.3352  -13.6292   26.7308 C   0  0  1  0  0  0  0  0  0  0  0  0
    7.0024  -13.0908   27.2363 C   0  0  0  0  0  0  0  0  0  0  0  0
    6.0894  -12.2536   25.9365 S   0  0  0  0  0  0  0  0  0  0  0  0
    8.9570  -14.3204   27.8797 C   0  0  0  0  0  0  0  0  0  0  0  0
    9.4807  -13.6456   28.9753 O   0  0  0  0  0  0  0  0  0  0  0  0
    9.0275  -15.5728   27.8910 O   0  0  0  0  0  0  0  0  0  0  0  0
  2  1  1  6
  3  2  1  0
  4  3  1  0
  5 12  1  0
  5  2  1  0
  6  5  2  0
  7  8  1  0
  8  9  2  0
  8 10  1  0
 11 10  1  1
 11 13  1  0
 11 12  1  0
 13 15  1  0
 14 13  2  0
 15 16  1  0
 16 19  1  0
 16 17  1  1
 18 17  1  0
 19 20  1  0
 21 19  2  0
M  END
$$$$
