CNC.pdb
     RDKit          3D

 21 20  0  0  1  0  0  0  0  0999 V2000
    7.0517  -15.6733   18.9124 N   0  0  0  0  0  0  0  0  0  0  0  0
    7.8978  -14.8765   19.7444 C   0  0  1  0  0  0  0  0  0  0  0  0
    7.4415  -13.4277   19.6356 C   0  0  0  0  0  0  0  0  0  0  0  0
    8.4768  -12.4045   20.7130 S   0  0  0  0  0  0  0  0  0  0  0  0
    7.7868  -15.2415   21.1801 C   0  0  0  0  0  0  0  0  0  0  0  0
    6.6071  -15.2447   21.6628 O   0  0  0  0  0  0  0  0  0  0  0  0
   10.7399  -17.7380   21.6463 N   0  0  0  0  0  0  0  0  0  0  0  0
   10.6622  -17.4043   23.0130 C   0  0  0  0  0  0  0  0  0  0  0  0
   11.7162  -17.2219   23.6608 O   0  0  0  0  0  0  0  0  0  0  0  0
    9.3667  -17.2623   23.7079 C   0  0  0  0  0  0  0  0  0  0  0  0
    8.6764  -15.9623   23.3483 C   0  0  2  0  0  0  0  0  0  0  0  0
    8.9035  -15.5720   21.9939 N   0  0  0  0  0  0  0  0  0  0  0  0
    9.2275  -14.9260   24.2442 C   0  0  0  0  0  0  0  0  0  0  0  0
   10.3228  -14.4004   24.0149 O   0  0  0  0  0  0  0  0  0  0  0  0
    8.4827  -14.5358   25.3776 N   0  0  0  0  0  0  0  0  0  0  0  0
    8.9908  -13.7245   26.4404 C   0  0  1  0  0  0  0  0  0  0  0  0
    7.9329  -12.6676   26.7327 C   0  0  0  0  0  0  0  0  0  0  0  0
    6.2781  -13.3644   26.7202 S   0  0  0  0  0  0  0  0  0  0  0  0
    9.0984  -14.5428   27.6665 C   0  0  0  0  0  0  0  0  0  0  0  0
    9.6859  -14.0785   28.8366 O   0  0  0  0  0  0  0  0  0  0  0  0
    8.6462  -15.7128   27.6777 O   0  0  0  0  0  0  0  0  0  0  0  0
  2  1  1  6
  3  2  1  0
  4  3  1  0
  5 12  1  0
  5  2  1  0
  6  5  2  0
  7  8  1  0
  8  9  2  0
  8 10  1  0
 11 10  1  1
 11 13  1  0
 11 12  1  0
 13 15  1  0
 14 13  2  0
 15 16  1  0
 16 19  1  0
 16 17  1  1
 18 17  1  0
 19 20  1  0
 21 19  2  0
M  END
$$$$
