CNC.pdb
     RDKit          3D

 21 20  0  0  1  0  0  0  0  0999 V2000
    6.6253  -15.4737   19.5586 N   0  0  0  0  0  0  0  0  0  0  0  0
    7.6940  -14.8068   20.2340 C   0  0  1  0  0  0  0  0  0  0  0  0
    7.3375  -13.3304   20.3436 C   0  0  0  0  0  0  0  0  0  0  0  0
    8.7209  -12.4487   21.1108 S   0  0  0  0  0  0  0  0  0  0  0  0
    7.8775  -15.2954   21.6248 C   0  0  0  0  0  0  0  0  0  0  0  0
    6.8098  -15.4580   22.3019 O   0  0  0  0  0  0  0  0  0  0  0  0
    9.0746  -19.3437   22.8935 N   0  0  0  0  0  0  0  0  0  0  0  0
    9.6757  -18.5608   23.8990 C   0  0  0  0  0  0  0  0  0  0  0  0
    9.7145  -18.9931   25.0719 O   0  0  0  0  0  0  0  0  0  0  0  0
   10.2649  -17.2380   23.6088 C   0  0  0  0  0  0  0  0  0  0  0  0
    9.2029  -16.1631   23.4964 C   0  0  2  0  0  0  0  0  0  0  0  0
    9.1478  -15.5740   22.1970 N   0  0  0  0  0  0  0  0  0  0  0  0
    9.5487  -15.1188   24.4814 C   0  0  0  0  0  0  0  0  0  0  0  0
   10.5835  -14.4517   24.3681 O   0  0  0  0  0  0  0  0  0  0  0  0
    8.6760  -14.8858   25.5655 N   0  0  0  0  0  0  0  0  0  0  0  0
    8.9277  -13.9551   26.6222 C   0  0  1  0  0  0  0  0  0  0  0  0
    7.5721  -13.4317   27.0807 C   0  0  0  0  0  0  0  0  0  0  0  0
    6.7302  -12.5352   25.7725 S   0  0  0  0  0  0  0  0  0  0  0  0
    9.4978  -14.6770   27.7790 C   0  0  0  0  0  0  0  0  0  0  0  0
    9.7086  -16.0502   27.7845 O   0  0  0  0  0  0  0  0  0  0  0  0
    9.8144  -14.0447   28.8150 O   0  0  0  0  0  0  0  0  0  0  0  0
  2  1  1  1
  3  2  1  0
  4  3  1  0
  5 12  1  0
  5  2  1  0
  6  5  2  0
  7  8  1  0
  8  9  2  0
  8 10  1  0
 11 10  1  6
 11 13  1  0
 11 12  1  0
 13 15  1  0
 14 13  2  0
 15 16  1  0
 16 19  1  0
 16 17  1  1
 18 17  1  0
 19 20  1  0
 21 19  2  0
M  END
$$$$
