CNC.pdb
     RDKit          3D

 21 20  0  0  1  0  0  0  0  0999 V2000
    6.3701  -16.6166   20.2149 N   0  0  0  0  0  0  0  0  0  0  0  0
    7.6456  -15.9927   20.3790 C   0  0  1  0  0  0  0  0  0  0  0  0
    7.4195  -14.5043   20.6078 C   0  0  0  0  0  0  0  0  0  0  0  0
    6.4761  -14.2830   22.1378 S   0  0  0  0  0  0  0  0  0  0  0  0
    8.3710  -16.4926   21.5751 C   0  0  0  0  0  0  0  0  0  0  0  0
    7.6777  -17.1711   22.4020 O   0  0  0  0  0  0  0  0  0  0  0  0
   11.6701  -19.8458   22.6517 N   0  0  0  0  0  0  0  0  0  0  0  0
   11.7397  -18.6057   21.9864 C   0  0  0  0  0  0  0  0  0  0  0  0
   11.7890  -18.5819   20.7370 O   0  0  0  0  0  0  0  0  0  0  0  0
   11.7561  -17.3259   22.7234 C   0  0  0  0  0  0  0  0  0  0  0  0
   10.3555  -16.8083   22.9804 C   0  0  2  0  0  0  0  0  0  0  0  0
    9.7501  -16.2490   21.8145 N   0  0  0  0  0  0  0  0  0  0  0  0
   10.4728  -15.7567   24.0103 C   0  0  0  0  0  0  0  0  0  0  0  0
   10.7629  -14.5941   23.7057 O   0  0  0  0  0  0  0  0  0  0  0  0
   10.2471  -16.0952   25.3616 N   0  0  0  0  0  0  0  0  0  0  0  0
   10.1593  -15.1480   26.4299 C   0  0  1  0  0  0  0  0  0  0  0  0
    8.8520  -14.3888   26.2395 C   0  0  0  0  0  0  0  0  0  0  0  0
    8.5445  -13.2482   27.5917 S   0  0  0  0  0  0  0  0  0  0  0  0
   10.0263  -15.8727   27.7110 C   0  0  0  0  0  0  0  0  0  0  0  0
   10.4702  -15.3561   28.9219 O   0  0  0  0  0  0  0  0  0  0  0  0
    9.4919  -17.0073   27.7339 O   0  0  0  0  0  0  0  0  0  0  0  0
  2  1  1  1
  3  2  1  0
  4  3  1  0
  5 12  1  0
  5  2  1  0
  6  5  2  0
  7  8  1  0
  8  9  2  0
  8 10  1  0
 11 10  1  6
 11 13  1  0
 11 12  1  0
 13 15  1  0
 14 13  2  0
 15 16  1  0
 16 19  1  0
 16 17  1  6
 18 17  1  0
 19 20  1  0
 21 19  2  0
M  END
$$$$
