DLV.pdb
     RDKit          3D

 24 23  0  0  1  0  0  0  0  0999 V2000
    9.2404  -16.2531   20.0561 N   0  0  0  0  0  0  0  0  0  0  0  0
    8.5904  -16.7008   21.2627 C   0  0  1  0  0  0  0  0  0  0  0  0
    9.1247  -18.0945   21.5784 C   0  0  0  0  0  0  0  0  0  0  0  0
    8.5861  -19.1097   20.6676 C   0  0  0  0  0  0  0  0  0  0  0  0
    8.4271  -18.8362   19.4487 O   0  0  0  0  0  0  0  0  0  0  0  0
    8.8932  -15.8086   22.4131 C   0  0  0  0  0  0  0  0  0  0  0  0
   10.0665  -15.3524   22.5538 O   0  0  0  0  0  0  0  0  0  0  0  0
    8.2340  -20.3877   21.0909 O   0  0  0  0  0  0  0  0  0  0  0  0
    7.5491  -11.8804   25.5775 C   0  0  0  0  0  0  0  0  0  0  0  0
    6.8109  -13.1392   26.0544 C   0  0  1  0  0  0  0  0  0  0  0  0
    5.4770  -12.6693   26.5498 C   0  0  0  0  0  0  0  0  0  0  0  0
    6.7261  -14.1227   24.9342 C   0  0  0  0  0  0  0  0  0  0  0  0
    8.0710  -14.5665   24.4252 C   0  0  2  0  0  0  0  0  0  0  0  0
    7.8674  -15.4836   23.3309 N   0  0  0  0  0  0  0  0  0  0  0  0
    8.7540  -15.2607   25.5245 C   0  0  0  0  0  0  0  0  0  0  0  0
    8.6051  -16.5242   25.6201 O   0  0  0  0  0  0  0  0  0  0  0  0
   11.9439  -15.3539   29.3225 C   0  0  0  0  0  0  0  0  0  0  0  0
   11.1774  -14.5039   28.3210 C   0  0  2  0  0  0  0  0  0  0  0  0
   10.1730  -13.6830   29.0997 C   0  0  0  0  0  0  0  0  0  0  0  0
   10.4239  -15.3854   27.3373 C   0  0  2  0  0  0  0  0  0  0  0  0
    9.5641  -14.6189   26.4812 N   0  0  0  0  0  0  0  0  0  0  0  0
    9.6383  -16.3550   28.1371 C   0  0  0  0  0  0  0  0  0  0  0  0
   10.2597  -17.4768   28.6765 O   0  0  0  0  0  0  0  0  0  0  0  0
    8.4058  -16.1833   28.3413 O   0  0  0  0  0  0  0  0  0  0  0  0
  2  1  1  6
  2  3  1  0
  4  3  1  0
  4  5  2  0
  6  7  2  0
  6  2  1  0
  8  4  1  0
 10  9  1  6
 10 12  1  0
 11 10  1  0
 13 12  1  1
 13 15  1  0
 13 14  1  0
 14  6  1  0
 15 21  1  0
 16 15  2  0
 18 17  1  1
 18 19  1  0
 18 20  1  0
 20 22  1  0
 20 21  1  1
 22 24  2  0
 22 23  1  0
M  END
$$$$
