DLV.pdb
     RDKit          3D

 24 23  0  0  1  0  0  0  0  0999 V2000
   12.0632  -16.8049   19.8883 N   0  0  0  0  0  0  0  0  0  0  0  0
   12.2350  -17.3715   21.2029 C   0  0  1  0  0  0  0  0  0  0  0  0
   13.7335  -17.5383   21.4353 C   0  0  0  0  0  0  0  0  0  0  0  0
   14.3327  -18.4941   20.4984 C   0  0  0  0  0  0  0  0  0  0  0  0
   13.7555  -19.5891   20.2665 O   0  0  0  0  0  0  0  0  0  0  0  0
   11.6908  -16.4793   22.2607 C   0  0  0  0  0  0  0  0  0  0  0  0
   12.3751  -15.4867   22.6493 O   0  0  0  0  0  0  0  0  0  0  0  0
   15.5325  -18.2473   19.8382 O   0  0  0  0  0  0  0  0  0  0  0  0
    6.2449  -15.6066   22.1566 C   0  0  0  0  0  0  0  0  0  0  0  0
    7.7568  -15.3666   22.2716 C   0  0  1  0  0  0  0  0  0  0  0  0
    7.9417  -13.8807   22.2130 C   0  0  0  0  0  0  0  0  0  0  0  0
    8.2667  -15.9888   23.5295 C   0  0  0  0  0  0  0  0  0  0  0  0
    9.7532  -15.8387   23.7108 C   0  0  2  0  0  0  0  0  0  0  0  0
   10.4189  -16.7528   22.8156 N   0  0  0  0  0  0  0  0  0  0  0  0
   10.0688  -16.1973   25.0996 C   0  0  0  0  0  0  0  0  0  0  0  0
   10.4192  -17.3996   25.3435 O   0  0  0  0  0  0  0  0  0  0  0  0
    8.9727  -13.9077   28.5316 C   0  0  0  0  0  0  0  0  0  0  0  0
   10.3378  -14.5775   28.4991 C   0  0  2  0  0  0  0  0  0  0  0  0
   11.3395  -13.5406   28.0403 C   0  0  0  0  0  0  0  0  0  0  0  0
   10.3447  -15.7299   27.5070 C   0  0  2  0  0  0  0  0  0  0  0  0
   10.0088  -15.2967   26.1807 N   0  0  0  0  0  0  0  0  0  0  0  0
    9.3655  -16.7294   27.9960 C   0  0  0  0  0  0  0  0  0  0  0  0
    9.6407  -17.4705   29.1407 O   0  0  0  0  0  0  0  0  0  0  0  0
    8.2768  -16.9246   27.3902 O   0  0  0  0  0  0  0  0  0  0  0  0
  2  1  1  6
  2  3  1  0
  4  3  1  0
  4  5  2  0
  6  7  2  0
  6  2  1  0
  8  4  1  0
 10  9  1  1
 10 12  1  0
 11 10  1  0
 13 12  1  1
 13 15  1  0
 13 14  1  0
 14  6  1  0
 15 21  1  0
 16 15  2  0
 18 17  1  6
 18 19  1  0
 18 20  1  0
 20 22  1  0
 20 21  1  6
 22 24  2  0
 22 23  1  0
M  END
$$$$
