DLV.pdb
     RDKit          3D

 24 23  0  0  1  0  0  0  0  0999 V2000
    8.3765  -17.2666   21.1084 N   0  0  0  0  0  0  0  0  0  0  0  0
    9.7246  -16.7963   21.3090 C   0  0  1  0  0  0  0  0  0  0  0  0
   10.1172  -15.9954   20.0714 C   0  0  0  0  0  0  0  0  0  0  0  0
   10.2677  -16.8489   18.8884 C   0  0  0  0  0  0  0  0  0  0  0  0
    9.9834  -18.0737   18.9599 O   0  0  0  0  0  0  0  0  0  0  0  0
    9.8249  -15.9072   22.4967 C   0  0  0  0  0  0  0  0  0  0  0  0
   10.8711  -15.2137   22.6674 O   0  0  0  0  0  0  0  0  0  0  0  0
   10.7185  -16.3639   17.6646 O   0  0  0  0  0  0  0  0  0  0  0  0
    5.6371  -13.3339   25.9270 C   0  0  0  0  0  0  0  0  0  0  0  0
    6.8209  -13.5180   24.9670 C   0  0  1  0  0  0  0  0  0  0  0  0
    7.7869  -12.4195   25.2919 C   0  0  0  0  0  0  0  0  0  0  0  0
    7.3888  -14.8890   25.1320 C   0  0  0  0  0  0  0  0  0  0  0  0
    8.7893  -15.0242   24.5979 C   0  0  2  0  0  0  0  0  0  0  0  0
    8.7516  -15.8499   23.4160 N   0  0  0  0  0  0  0  0  0  0  0  0
    9.5958  -15.6862   25.6315 C   0  0  0  0  0  0  0  0  0  0  0  0
    9.9195  -16.9068   25.4491 O   0  0  0  0  0  0  0  0  0  0  0  0
   10.0870  -14.7307   29.8925 C   0  0  0  0  0  0  0  0  0  0  0  0
   11.2542  -14.8953   28.9314 C   0  0  2  0  0  0  0  0  0  0  0  0
   11.6115  -13.5191   28.4140 C   0  0  0  0  0  0  0  0  0  0  0  0
   10.8565  -15.7681   27.7514 C   0  0  2  0  0  0  0  0  0  0  0  0
   10.0351  -15.0581   26.8130 N   0  0  0  0  0  0  0  0  0  0  0  0
   10.1323  -16.9384   28.3019 C   0  0  0  0  0  0  0  0  0  0  0  0
   10.8196  -17.8990   29.0367 O   0  0  0  0  0  0  0  0  0  0  0  0
    8.8934  -17.0835   28.1164 O   0  0  0  0  0  0  0  0  0  0  0  0
  2  1  1  6
  2  3  1  0
  4  3  1  0
  4  5  2  0
  6  7  2  0
  6  2  1  0
  8  4  1  0
 10  9  1  1
 10 12  1  0
 11 10  1  0
 13 12  1  1
 13 15  1  0
 13 14  1  0
 14  6  1  0
 15 21  1  0
 16 15  2  0
 18 17  1  1
 18 19  1  0
 18 20  1  0
 20 22  1  0
 20 21  1  6
 22 24  2  0
 22 23  1  0
M  END
$$$$
