DLV.pdb
     RDKit          3D

 24 23  0  0  1  0  0  0  0  0999 V2000
    9.2368  -16.1763   20.0699 N   0  0  0  0  0  0  0  0  0  0  0  0
    9.5620  -16.8982   21.2748 C   0  0  1  0  0  0  0  0  0  0  0  0
   10.8854  -17.6173   21.0325 C   0  0  0  0  0  0  0  0  0  0  0  0
   10.7639  -18.6653   20.0139 C   0  0  0  0  0  0  0  0  0  0  0  0
    9.6634  -19.2553   19.8510 O   0  0  0  0  0  0  0  0  0  0  0  0
    9.7287  -15.9832   22.4351 C   0  0  0  0  0  0  0  0  0  0  0  0
   10.7110  -15.1838   22.4601 O   0  0  0  0  0  0  0  0  0  0  0  0
   11.8258  -19.0491   19.2007 O   0  0  0  0  0  0  0  0  0  0  0  0
    5.6558  -13.3349   25.7209 C   0  0  0  0  0  0  0  0  0  0  0  0
    6.8749  -13.5956   24.8250 C   0  0  1  0  0  0  0  0  0  0  0  0
    7.8087  -12.4471   25.0588 C   0  0  0  0  0  0  0  0  0  0  0  0
    7.4623  -14.9277   25.1564 C   0  0  0  0  0  0  0  0  0  0  0  0
    8.8536  -15.1190   24.6156 C   0  0  2  0  0  0  0  0  0  0  0  0
    8.7887  -16.0199   23.4912 N   0  0  0  0  0  0  0  0  0  0  0  0
    9.6640  -15.7237   25.6807 C   0  0  0  0  0  0  0  0  0  0  0  0
   10.1542  -16.8837   25.4759 O   0  0  0  0  0  0  0  0  0  0  0  0
    9.8965  -14.4091   29.8017 C   0  0  0  0  0  0  0  0  0  0  0  0
   11.1418  -14.8125   29.0273 C   0  0  2  0  0  0  0  0  0  0  0  0
   11.7440  -13.5502   28.4502 C   0  0  0  0  0  0  0  0  0  0  0  0
   10.7806  -15.7445   27.8814 C   0  0  2  0  0  0  0  0  0  0  0  0
    9.9345  -15.1032   26.9158 N   0  0  0  0  0  0  0  0  0  0  0  0
   10.1007  -16.9199   28.4759 C   0  0  0  0  0  0  0  0  0  0  0  0
   10.8247  -17.8296   29.2398 O   0  0  0  0  0  0  0  0  0  0  0  0
    8.8670  -17.1151   28.3022 O   0  0  0  0  0  0  0  0  0  0  0  0
  2  1  1  6
  2  3  1  0
  4  3  1  0
  4  5  2  0
  6  7  2  0
  6  2  1  0
  8  4  1  0
 10  9  1  1
 10 12  1  0
 11 10  1  0
 13 12  1  1
 13 15  1  0
 13 14  1  0
 14  6  1  0
 15 21  1  0
 16 15  2  0
 18 17  1  6
 18 19  1  0
 18 20  1  0
 20 22  1  0
 20 21  1  6
 22 24  2  0
 22 23  1  0
M  END
$$$$
