DLV.pdb
     RDKit          3D

 24 23  0  0  1  0  0  0  0  0999 V2000
    7.6914  -17.5838   22.3260 N   0  0  0  0  0  0  0  0  0  0  0  0
    9.0829  -17.2882   22.0911 C   0  0  1  0  0  0  0  0  0  0  0  0
    9.2359  -16.9620   20.6087 C   0  0  0  0  0  0  0  0  0  0  0  0
    8.8665  -18.0954   19.7547 C   0  0  0  0  0  0  0  0  0  0  0  0
    9.1607  -19.2677   20.1085 O   0  0  0  0  0  0  0  0  0  0  0  0
    9.5355  -16.1126   22.8812 C   0  0  0  0  0  0  0  0  0  0  0  0
   10.6800  -15.6174   22.6585 O   0  0  0  0  0  0  0  0  0  0  0  0
    8.1930  -17.9382   18.5473 O   0  0  0  0  0  0  0  0  0  0  0  0
    5.5996  -13.1425   25.6164 C   0  0  0  0  0  0  0  0  0  0  0  0
    6.7965  -13.4759   24.7148 C   0  0  1  0  0  0  0  0  0  0  0  0
    7.1569  -12.1970   24.0221 C   0  0  0  0  0  0  0  0  0  0  0  0
    7.9011  -14.0459   25.5421 C   0  0  0  0  0  0  0  0  0  0  0  0
    9.0900  -14.4855   24.7309 C   0  0  2  0  0  0  0  0  0  0  0  0
    8.6819  -15.5665   23.8677 N   0  0  0  0  0  0  0  0  0  0  0  0
   10.1126  -14.9676   25.6683 C   0  0  0  0  0  0  0  0  0  0  0  0
   11.3208  -14.6053   25.4761 O   0  0  0  0  0  0  0  0  0  0  0  0
    9.6210  -15.2866   29.6427 C   0  0  0  0  0  0  0  0  0  0  0  0
   10.9394  -15.2461   28.8856 C   0  0  2  0  0  0  0  0  0  0  0  0
   11.1384  -13.8271   28.3998 C   0  0  0  0  0  0  0  0  0  0  0  0
   10.8915  -16.1692   27.6782 C   0  0  2  0  0  0  0  0  0  0  0  0
    9.8435  -15.8059   26.7676 N   0  0  0  0  0  0  0  0  0  0  0  0
   10.6870  -17.5446   28.1914 C   0  0  0  0  0  0  0  0  0  0  0  0
    9.5586  -18.2665   27.8160 O   0  0  0  0  0  0  0  0  0  0  0  0
   11.5226  -18.0803   28.9692 O   0  0  0  0  0  0  0  0  0  0  0  0
  2  1  1  6
  2  3  1  0
  4  3  1  0
  4  5  2  0
  6  7  2  0
  6  2  1  0
  8  4  1  0
 10  9  1  1
 10 12  1  0
 11 10  1  0
 13 12  1  1
 13 15  1  0
 13 14  1  0
 14  6  1  0
 15 21  1  0
 16 15  2  0
 18 17  1  6
 18 19  1  0
 18 20  1  0
 20 22  1  0
 20 21  1  6
 22 24  2  0
 22 23  1  0
M  END
$$$$
