DLV.pdb
     RDKit          3D

 24 23  0  0  1  0  0  0  0  0999 V2000
   10.3064  -16.3501   20.1557 N   0  0  0  0  0  0  0  0  0  0  0  0
    9.6284  -16.8782   21.3133 C   0  0  1  0  0  0  0  0  0  0  0  0
   10.2786  -18.2160   21.6519 C   0  0  0  0  0  0  0  0  0  0  0  0
    9.8437  -19.2842   20.7462 C   0  0  0  0  0  0  0  0  0  0  0  0
    9.1184  -19.0075   19.7546 O   0  0  0  0  0  0  0  0  0  0  0  0
    9.7653  -15.9771   22.4883 C   0  0  0  0  0  0  0  0  0  0  0  0
   10.8715  -15.3981   22.7020 O   0  0  0  0  0  0  0  0  0  0  0  0
   10.1994  -20.6167   20.9307 O   0  0  0  0  0  0  0  0  0  0  0  0
    7.8184  -12.1156   25.3250 C   0  0  0  0  0  0  0  0  0  0  0  0
    7.2068  -13.4178   25.8609 C   0  0  1  0  0  0  0  0  0  0  0  0
    5.8062  -13.0753   26.2691 C   0  0  0  0  0  0  0  0  0  0  0  0
    7.2874  -14.4762   24.8109 C   0  0  0  0  0  0  0  0  0  0  0  0
    8.6985  -14.8657   24.4616 C   0  0  2  0  0  0  0  0  0  0  0  0
    8.6593  -15.7810   23.3477 N   0  0  0  0  0  0  0  0  0  0  0  0
    9.2738  -15.5428   25.6310 C   0  0  0  0  0  0  0  0  0  0  0  0
    9.2957  -16.8185   25.6346 O   0  0  0  0  0  0  0  0  0  0  0  0
    9.9246  -14.3061   29.7241 C   0  0  0  0  0  0  0  0  0  0  0  0
   11.0950  -14.6646   28.8215 C   0  0  2  0  0  0  0  0  0  0  0  0
   11.6204  -13.3755   28.2288 C   0  0  0  0  0  0  0  0  0  0  0  0
   10.6384  -15.5685   27.6871 C   0  0  2  0  0  0  0  0  0  0  0  0
    9.8035  -14.8720   26.7504 N   0  0  0  0  0  0  0  0  0  0  0  0
    9.9054  -16.7004   28.3023 C   0  0  0  0  0  0  0  0  0  0  0  0
   10.5944  -17.6539   29.0449 O   0  0  0  0  0  0  0  0  0  0  0  0
    8.6574  -16.8190   28.1657 O   0  0  0  0  0  0  0  0  0  0  0  0
  2  1  1  6
  2  3  1  0
  4  3  1  0
  4  5  2  0
  6  7  2  0
  6  2  1  0
  8  4  1  0
 10  9  1  6
 10 12  1  0
 11 10  1  0
 13 12  1  1
 13 15  1  0
 13 14  1  0
 14  6  1  0
 15 21  1  0
 16 15  2  0
 18 17  1  1
 18 19  1  0
 18 20  1  0
 20 22  1  0
 20 21  1  6
 22 24  2  0
 22 23  1  0
M  END
$$$$
