DLV.pdb
     RDKit          3D

 24 23  0  0  1  0  0  0  0  0999 V2000
    9.0112  -15.3787   20.6636 N   0  0  0  0  0  0  0  0  0  0  0  0
    8.3391  -15.9544   21.8018 C   0  0  1  0  0  0  0  0  0  0  0  0
    8.6306  -17.4518   21.7943 C   0  0  0  0  0  0  0  0  0  0  0  0
    7.8507  -18.1592   20.7736 C   0  0  0  0  0  0  0  0  0  0  0  0
    7.1634  -17.5047   19.9458 O   0  0  0  0  0  0  0  0  0  0  0  0
    8.8386  -15.3838   23.0810 C   0  0  0  0  0  0  0  0  0  0  0  0
   10.0788  -15.1687   23.2233 O   0  0  0  0  0  0  0  0  0  0  0  0
    7.8311  -19.5467   20.6709 O   0  0  0  0  0  0  0  0  0  0  0  0
    5.5808  -12.1634   26.5314 C   0  0  0  0  0  0  0  0  0  0  0  0
    6.7711  -12.6569   25.6968 C   0  0  1  0  0  0  0  0  0  0  0  0
    7.8628  -11.6517   25.9050 C   0  0  0  0  0  0  0  0  0  0  0  0
    7.1373  -14.0414   26.1196 C   0  0  0  0  0  0  0  0  0  0  0  0
    8.3424  -14.5866   25.4017 C   0  0  2  0  0  0  0  0  0  0  0  0
    7.9220  -15.0905   24.1173 N   0  0  0  0  0  0  0  0  0  0  0  0
    8.8773  -15.6908   26.2089 C   0  0  0  0  0  0  0  0  0  0  0  0
    8.1093  -16.6789   26.4571 O   0  0  0  0  0  0  0  0  0  0  0  0
   13.0061  -16.0447   27.3389 C   0  0  0  0  0  0  0  0  0  0  0  0
   12.0875  -17.2302   27.0857 C   0  0  2  0  0  0  0  0  0  0  0  0
   12.1521  -17.5445   25.6071 C   0  0  0  0  0  0  0  0  0  0  0  0
   10.6517  -16.8805   27.4442 C   0  0  2  0  0  0  0  0  0  0  0  0
   10.1863  -15.7278   26.7273 N   0  0  0  0  0  0  0  0  0  0  0  0
   10.6161  -16.6386   28.9062 C   0  0  0  0  0  0  0  0  0  0  0  0
   10.9088  -17.6726   29.7897 O   0  0  0  0  0  0  0  0  0  0  0  0
   10.3231  -15.5037   29.3713 O   0  0  0  0  0  0  0  0  0  0  0  0
  2  1  1  6
  2  3  1  0
  4  3  1  0
  4  5  2  0
  6  7  2  0
  6  2  1  0
  8  4  1  0
 10  9  1  1
 10 12  1  0
 11 10  1  0
 13 12  1  1
 13 15  1  0
 13 14  1  0
 14  6  1  0
 15 21  1  0
 16 15  2  0
 18 17  1  6
 18 19  1  0
 18 20  1  0
 20 22  1  0
 20 21  1  6
 22 24  2  0
 22 23  1  0
M  END
$$$$
