DLV.pdb
     RDKit          3D

 24 23  0  0  1  0  0  0  0  0999 V2000
    8.5654  -16.1973   20.2458 N   0  0  0  0  0  0  0  0  0  0  0  0
    8.5959  -16.8854   21.5125 C   0  0  1  0  0  0  0  0  0  0  0  0
    9.5389  -18.0752   21.3626 C   0  0  0  0  0  0  0  0  0  0  0  0
    9.0100  -19.0836   20.4385 C   0  0  0  0  0  0  0  0  0  0  0  0
    9.3407  -19.0541   19.2237 O   0  0  0  0  0  0  0  0  0  0  0  0
    9.1100  -16.0111   22.6000 C   0  0  0  0  0  0  0  0  0  0  0  0
   10.2989  -15.5783   22.5399 O   0  0  0  0  0  0  0  0  0  0  0  0
    8.1426  -20.0931   20.8444 O   0  0  0  0  0  0  0  0  0  0  0  0
    5.4674  -12.9985   25.6660 C   0  0  0  0  0  0  0  0  0  0  0  0
    6.7039  -13.3674   24.8342 C   0  0  1  0  0  0  0  0  0  0  0  0
    7.4415  -12.0834   24.6044 C   0  0  0  0  0  0  0  0  0  0  0  0
    7.5024  -14.4006   25.5582 C   0  0  0  0  0  0  0  0  0  0  0  0
    8.7097  -14.8688   24.7914 C   0  0  2  0  0  0  0  0  0  0  0  0
    8.2640  -15.6769   23.6830 N   0  0  0  0  0  0  0  0  0  0  0  0
    9.5210  -15.6895   25.6998 C   0  0  0  0  0  0  0  0  0  0  0  0
   10.2519  -16.6031   25.1910 O   0  0  0  0  0  0  0  0  0  0  0  0
   10.0375  -14.6679   29.9107 C   0  0  0  0  0  0  0  0  0  0  0  0
   11.1160  -14.8741   28.8583 C   0  0  2  0  0  0  0  0  0  0  0  0
   11.2870  -13.5627   28.1233 C   0  0  0  0  0  0  0  0  0  0  0  0
   10.6912  -15.9380   27.8583 C   0  0  2  0  0  0  0  0  0  0  0  0
    9.5432  -15.5315   27.0992 N   0  0  0  0  0  0  0  0  0  0  0  0
   10.3997  -17.1686   28.6315 C   0  0  0  0  0  0  0  0  0  0  0  0
   11.4329  -17.8564   29.2598 O   0  0  0  0  0  0  0  0  0  0  0  0
    9.2229  -17.6101   28.7332 O   0  0  0  0  0  0  0  0  0  0  0  0
  2  1  1  6
  2  3  1  0
  4  3  1  0
  4  5  2  0
  6  7  2  0
  6  2  1  0
  8  4  1  0
 10  9  1  1
 10 12  1  0
 11 10  1  0
 13 12  1  1
 13 15  1  0
 13 14  1  0
 14  6  1  0
 15 21  1  0
 16 15  2  0
 18 17  1  1
 18 19  1  0
 18 20  1  0
 20 22  1  0
 20 21  1  1
 22 24  2  0
 22 23  1  0
M  END
$$$$
