DLV.pdb
     RDKit          3D

 24 23  0  0  1  0  0  0  0  0999 V2000
   11.2608  -18.5842   21.5345 N   0  0  0  0  0  0  0  0  0  0  0  0
   12.1438  -17.4964   21.8745 C   0  0  1  0  0  0  0  0  0  0  0  0
   13.0487  -17.2505   20.6711 C   0  0  0  0  0  0  0  0  0  0  0  0
   13.9112  -18.4018   20.3866 C   0  0  0  0  0  0  0  0  0  0  0  0
   13.8635  -19.4182   21.1287 O   0  0  0  0  0  0  0  0  0  0  0  0
   11.3906  -16.2466   22.1606 C   0  0  0  0  0  0  0  0  0  0  0  0
   12.0268  -15.1708   22.3665 O   0  0  0  0  0  0  0  0  0  0  0  0
   14.7987  -18.4290   19.3153 O   0  0  0  0  0  0  0  0  0  0  0  0
    8.3578  -12.6849   21.0592 C   0  0  0  0  0  0  0  0  0  0  0  0
    7.3526  -13.7145   21.5943 C   0  0  1  0  0  0  0  0  0  0  0  0
    6.1647  -13.6393   20.6839 C   0  0  0  0  0  0  0  0  0  0  0  0
    7.9942  -15.0620   21.6389 C   0  0  0  0  0  0  0  0  0  0  0  0
    9.1867  -15.1263   22.5546 C   0  0  2  0  0  0  0  0  0  0  0  0
    9.9771  -16.2788   22.1980 N   0  0  0  0  0  0  0  0  0  0  0  0
    8.6847  -15.2829   23.9259 C   0  0  0  0  0  0  0  0  0  0  0  0
    8.5455  -16.4664   24.3819 O   0  0  0  0  0  0  0  0  0  0  0  0
    5.9434  -12.8106   25.7197 C   0  0  0  0  0  0  0  0  0  0  0  0
    7.0891  -13.2263   26.6295 C   0  0  2  0  0  0  0  0  0  0  0  0
    8.0741  -12.0786   26.6694 C   0  0  0  0  0  0  0  0  0  0  0  0
    7.7962  -14.4522   26.0731 C   0  0  2  0  0  0  0  0  0  0  0  0
    8.3466  -14.2078   24.7705 N   0  0  0  0  0  0  0  0  0  0  0  0
    6.7958  -15.5448   26.0232 C   0  0  0  0  0  0  0  0  0  0  0  0
    6.4956  -16.2662   27.1742 O   0  0  0  0  0  0  0  0  0  0  0  0
    6.2047  -15.8377   24.9485 O   0  0  0  0  0  0  0  0  0  0  0  0
  2  1  1  6
  2  3  1  0
  4  3  1  0
  4  5  2  0
  6  7  2  0
  6  2  1  0
  8  4  1  0
 10  9  1  6
 10 12  1  0
 11 10  1  0
 13 12  1  6
 13 15  1  0
 13 14  1  0
 14  6  1  0
 15 21  1  0
 16 15  2  0
 18 17  1  6
 18 19  1  0
 18 20  1  0
 20 22  1  0
 20 21  1  6
 22 24  2  0
 22 23  1  0
M  END
$$$$
