DLV.pdb
     RDKit          3D

 24 23  0  0  1  0  0  0  0  0999 V2000
    7.4689  -16.2614   21.4518 N   0  0  0  0  0  0  0  0  0  0  0  0
    8.9032  -16.2435   21.5978 C   0  0  1  0  0  0  0  0  0  0  0  0
    9.4620  -15.3412   20.5019 C   0  0  0  0  0  0  0  0  0  0  0  0
    9.3025  -15.9312   19.1688 C   0  0  0  0  0  0  0  0  0  0  0  0
    9.9061  -15.4274   18.1850 O   0  0  0  0  0  0  0  0  0  0  0  0
    9.3140  -15.6925   22.9165 C   0  0  0  0  0  0  0  0  0  0  0  0
   10.5416  -15.4804   23.1463 O   0  0  0  0  0  0  0  0  0  0  0  0
    8.5009  -17.0433   18.9305 O   0  0  0  0  0  0  0  0  0  0  0  0
    6.0126  -12.3590   26.1285 C   0  0  0  0  0  0  0  0  0  0  0  0
    7.2588  -12.9297   25.4370 C   0  0  1  0  0  0  0  0  0  0  0  0
    8.3919  -12.0294   25.8257 C   0  0  0  0  0  0  0  0  0  0  0  0
    7.4503  -14.3523   25.8482 C   0  0  0  0  0  0  0  0  0  0  0  0
    8.6632  -14.9949   25.2310 C   0  0  2  0  0  0  0  0  0  0  0  0
    8.3287  -15.4141   23.8921 N   0  0  0  0  0  0  0  0  0  0  0  0
    9.0022  -16.1717   26.0416 C   0  0  0  0  0  0  0  0  0  0  0  0
    8.0930  -17.0440   26.2418 O   0  0  0  0  0  0  0  0  0  0  0  0
   13.0155  -17.3834   27.1892 C   0  0  0  0  0  0  0  0  0  0  0  0
   11.8176  -18.2749   26.9005 C   0  0  2  0  0  0  0  0  0  0  0  0
   11.7573  -18.4803   25.4027 C   0  0  0  0  0  0  0  0  0  0  0  0
   10.5298  -17.6023   27.3493 C   0  0  2  0  0  0  0  0  0  0  0  0
   10.2695  -16.3984   26.6128 N   0  0  0  0  0  0  0  0  0  0  0  0
   10.6733  -17.3115   28.7957 C   0  0  0  0  0  0  0  0  0  0  0  0
   10.7882  -18.3562   29.7072 O   0  0  0  0  0  0  0  0  0  0  0  0
   10.6938  -16.1250   29.2223 O   0  0  0  0  0  0  0  0  0  0  0  0
  2  1  1  1
  2  3  1  0
  4  3  1  0
  4  5  2  0
  6  7  2  0
  6  2  1  0
  8  4  1  0
 10  9  1  1
 10 12  1  0
 11 10  1  0
 13 12  1  1
 13 15  1  0
 13 14  1  0
 14  6  1  0
 15 21  1  0
 16 15  2  0
 18 17  1  6
 18 19  1  0
 18 20  1  0
 20 22  1  0
 20 21  1  6
 22 24  2  0
 22 23  1  0
M  END
$$$$
