DLV.pdb
     RDKit          3D

 24 23  0  0  1  0  0  0  0  0999 V2000
    9.8362  -16.3828   20.3800 N   0  0  0  0  0  0  0  0  0  0  0  0
    8.8702  -16.6492   21.4167 C   0  0  1  0  0  0  0  0  0  0  0  0
    9.0076  -18.1190   21.8014 C   0  0  0  0  0  0  0  0  0  0  0  0
    8.5075  -19.0118   20.7511 C   0  0  0  0  0  0  0  0  0  0  0  0
    8.1153  -18.5311   19.6552 O   0  0  0  0  0  0  0  0  0  0  0  0
    9.1199  -15.8205   22.6259 C   0  0  0  0  0  0  0  0  0  0  0  0
   10.3056  -15.4775   22.9104 O   0  0  0  0  0  0  0  0  0  0  0  0
    8.4429  -20.3930   20.9071 O   0  0  0  0  0  0  0  0  0  0  0  0
    7.5793  -11.8378   25.7873 C   0  0  0  0  0  0  0  0  0  0  0  0
    6.8606  -13.1410   26.1639 C   0  0  1  0  0  0  0  0  0  0  0  0
    5.5041  -12.7343   26.6539 C   0  0  0  0  0  0  0  0  0  0  0  0
    6.8268  -14.0521   24.9814 C   0  0  0  0  0  0  0  0  0  0  0  0
    8.1869  -14.5463   24.5685 C   0  0  2  0  0  0  0  0  0  0  0  0
    8.0305  -15.4288   23.4385 N   0  0  0  0  0  0  0  0  0  0  0  0
    8.7487  -15.2954   25.6999 C   0  0  0  0  0  0  0  0  0  0  0  0
    8.4246  -16.5229   25.8265 O   0  0  0  0  0  0  0  0  0  0  0  0
   12.2849  -15.6986   29.1613 C   0  0  0  0  0  0  0  0  0  0  0  0
   11.4848  -14.7827   28.2479 C   0  0  2  0  0  0  0  0  0  0  0  0
   10.6912  -13.8447   29.1307 C   0  0  0  0  0  0  0  0  0  0  0  0
   10.5129  -15.5887   27.4004 C   0  0  2  0  0  0  0  0  0  0  0  0
    9.6238  -14.7436   26.6556 N   0  0  0  0  0  0  0  0  0  0  0  0
    9.7533  -16.4635   28.3250 C   0  0  0  0  0  0  0  0  0  0  0  0
   10.3510  -17.6038   28.8522 O   0  0  0  0  0  0  0  0  0  0  0  0
    8.5644  -16.1937   28.6472 O   0  0  0  0  0  0  0  0  0  0  0  0
  2  1  1  6
  2  3  1  0
  4  3  1  0
  4  5  2  0
  6  7  2  0
  6  2  1  0
  8  4  1  0
 10  9  1  6
 10 12  1  0
 11 10  1  0
 13 12  1  1
 13 15  1  0
 13 14  1  0
 14  6  1  0
 15 21  1  0
 16 15  2  0
 18 17  1  1
 18 19  1  0
 18 20  1  0
 20 22  1  0
 20 21  1  1
 22 24  2  0
 22 23  1  0
M  END
$$$$
