DLV.pdb
     RDKit          3D

 24 23  0  0  1  0  0  0  0  0999 V2000
   10.0204  -16.2748   20.1947 N   0  0  0  0  0  0  0  0  0  0  0  0
    9.3698  -16.8324   21.3542 C   0  0  1  0  0  0  0  0  0  0  0  0
   10.0318  -18.1753   21.6469 C   0  0  0  0  0  0  0  0  0  0  0  0
    9.6375  -19.2054   20.6806 C   0  0  0  0  0  0  0  0  0  0  0  0
    8.6457  -19.0120   19.9291 O   0  0  0  0  0  0  0  0  0  0  0  0
    9.5297  -15.9586   22.5468 C   0  0  0  0  0  0  0  0  0  0  0  0
   10.6632  -15.4525   22.7991 O   0  0  0  0  0  0  0  0  0  0  0  0
   10.3183  -20.4118   20.5490 O   0  0  0  0  0  0  0  0  0  0  0  0
    7.6249  -12.1291   25.4554 C   0  0  0  0  0  0  0  0  0  0  0  0
    7.0226  -13.4310   26.0022 C   0  0  1  0  0  0  0  0  0  0  0  0
    5.6304  -13.0876   26.4375 C   0  0  0  0  0  0  0  0  0  0  0  0
    7.0821  -14.4889   24.9502 C   0  0  0  0  0  0  0  0  0  0  0  0
    8.4842  -14.8249   24.5188 C   0  0  2  0  0  0  0  0  0  0  0  0
    8.4147  -15.7065   23.3796 N   0  0  0  0  0  0  0  0  0  0  0  0
    9.1372  -15.5197   25.6358 C   0  0  0  0  0  0  0  0  0  0  0  0
    9.1531  -16.7954   25.6213 O   0  0  0  0  0  0  0  0  0  0  0  0
    9.7738  -14.2672   29.6630 C   0  0  0  0  0  0  0  0  0  0  0  0
   10.9657  -14.7402   28.8453 C   0  0  2  0  0  0  0  0  0  0  0  0
   11.6458  -13.5106   28.2843 C   0  0  0  0  0  0  0  0  0  0  0  0
   10.5073  -15.6115   27.6863 C   0  0  2  0  0  0  0  0  0  0  0  0
    9.7478  -14.8659   26.7237 N   0  0  0  0  0  0  0  0  0  0  0  0
    9.6922  -16.7070   28.2629 C   0  0  0  0  0  0  0  0  0  0  0  0
   10.3009  -17.7022   29.0208 O   0  0  0  0  0  0  0  0  0  0  0  0
    8.4456  -16.7569   28.0792 O   0  0  0  0  0  0  0  0  0  0  0  0
  2  1  1  6
  2  3  1  0
  4  3  1  0
  4  5  2  0
  6  7  2  0
  6  2  1  0
  8  4  1  0
 10  9  1  6
 10 12  1  0
 11 10  1  0
 13 12  1  1
 13 15  1  0
 13 14  1  0
 14  6  1  0
 15 21  1  0
 16 15  2  0
 18 17  1  6
 18 19  1  0
 18 20  1  0
 20 22  1  0
 20 21  1  6
 22 24  2  0
 22 23  1  0
M  END
$$$$
