DLV.pdb
     RDKit          3D

 24 23  0  0  1  0  0  0  0  0999 V2000
   10.3185  -16.0656   20.2243 N   0  0  0  0  0  0  0  0  0  0  0  0
    9.8828  -16.8010   21.3854 C   0  0  1  0  0  0  0  0  0  0  0  0
   10.8272  -17.9870   21.5550 C   0  0  0  0  0  0  0  0  0  0  0  0
   10.7650  -18.9074   20.4151 C   0  0  0  0  0  0  0  0  0  0  0  0
    9.6471  -19.2459   19.9441 O   0  0  0  0  0  0  0  0  0  0  0  0
    9.9448  -15.9698   22.6169 C   0  0  0  0  0  0  0  0  0  0  0  0
   11.0236  -15.3746   22.9114 O   0  0  0  0  0  0  0  0  0  0  0  0
   11.9028  -19.4373   19.8143 O   0  0  0  0  0  0  0  0  0  0  0  0
    7.7336  -12.3589   25.6048 C   0  0  0  0  0  0  0  0  0  0  0  0
    7.1364  -13.7114   26.0181 C   0  0  1  0  0  0  0  0  0  0  0  0
    5.7046  -13.4384   26.3658 C   0  0  0  0  0  0  0  0  0  0  0  0
    7.3108  -14.6943   24.9078 C   0  0  0  0  0  0  0  0  0  0  0  0
    8.7522  -14.9796   24.5828 C   0  0  2  0  0  0  0  0  0  0  0  0
    8.7995  -15.8569   23.4390 N   0  0  0  0  0  0  0  0  0  0  0  0
    9.3426  -15.6579   25.7440 C   0  0  0  0  0  0  0  0  0  0  0  0
    9.2992  -16.9325   25.7799 O   0  0  0  0  0  0  0  0  0  0  0  0
    9.7010  -14.3263   29.6865 C   0  0  0  0  0  0  0  0  0  0  0  0
   10.9720  -14.8636   29.0468 C   0  0  2  0  0  0  0  0  0  0  0  0
   11.7792  -13.6737   28.5760 C   0  0  0  0  0  0  0  0  0  0  0  0
   10.6395  -15.7303   27.8423 C   0  0  2  0  0  0  0  0  0  0  0  0
    9.9543  -14.9893   26.8221 N   0  0  0  0  0  0  0  0  0  0  0  0
    9.7993  -16.8492   28.3316 C   0  0  0  0  0  0  0  0  0  0  0  0
   10.3639  -17.8540   29.1106 O   0  0  0  0  0  0  0  0  0  0  0  0
    8.5708  -16.9106   28.0538 O   0  0  0  0  0  0  0  0  0  0  0  0
  2  1  1  6
  2  3  1  0
  4  3  1  0
  4  5  2  0
  6  7  2  0
  6  2  1  0
  8  4  1  0
 10  9  1  6
 10 12  1  0
 11 10  1  0
 13 12  1  1
 13 15  1  0
 13 14  1  0
 14  6  1  0
 15 21  1  0
 16 15  2  0
 18 17  1  6
 18 19  1  0
 18 20  1  0
 20 22  1  0
 20 21  1  6
 22 24  2  0
 22 23  1  0
M  END
$$$$
