QCI.pdb
     RDKit          3D

 24 23  0  0  1  0  0  0  0  0999 V2000
   13.7369  -16.2337   18.7161 N   0  0  0  0  0  0  0  0  0  0  0  0
   12.8357  -17.0998   18.0578 C   0  0  0  0  0  0  0  0  0  0  0  0
   13.1325  -17.6368   16.9781 O   0  0  0  0  0  0  0  0  0  0  0  0
   11.4849  -17.3957   18.6518 C   0  0  0  0  0  0  0  0  0  0  0  0
   11.3517  -16.7392   19.9918 C   0  0  0  0  0  0  0  0  0  0  0  0
   10.9462  -17.6617   21.1076 C   0  0  2  0  0  0  0  0  0  0  0  0
    9.8958  -18.5273   20.5332 N   0  0  0  0  0  0  0  0  0  0  0  0
   10.3769  -16.8751   22.2237 C   0  0  0  0  0  0  0  0  0  0  0  0
   11.1257  -15.9888   22.7543 O   0  0  0  0  0  0  0  0  0  0  0  0
    9.0856  -17.0149   22.7478 N   0  0  0  0  0  0  0  0  0  0  0  0
    8.6810  -16.2292   23.8936 C   0  0  1  0  0  0  0  0  0  0  0  0
    7.2047  -16.5015   24.1522 C   0  0  0  0  0  0  0  0  0  0  0  0
    6.6318  -15.2820   25.3807 S   0  0  0  0  0  0  0  0  0  0  0  0
    9.4470  -16.6526   25.0683 C   0  0  0  0  0  0  0  0  0  0  0  0
    9.9388  -17.8070   25.1484 O   0  0  0  0  0  0  0  0  0  0  0  0
   10.0711  -12.7166   28.8763 C   0  0  0  0  0  0  0  0  0  0  0  0
   10.5838  -13.7585   27.9331 C   0  0  0  0  0  0  0  0  0  0  0  0
   10.2216  -15.1504   28.4323 C   0  0  2  0  0  0  0  0  0  0  0  0
   11.1487  -15.5564   29.5523 C   0  0  0  0  0  0  0  0  0  0  0  0
   10.3651  -16.1342   27.2917 C   0  0  2  0  0  0  0  0  0  0  0  0
    9.6226  -15.7113   26.1302 N   0  0  0  0  0  0  0  0  0  0  0  0
    9.9069  -17.4852   27.7359 C   0  0  0  0  0  0  0  0  0  0  0  0
   10.7037  -18.3285   28.1991 O   0  0  0  0  0  0  0  0  0  0  0  0
    8.5752  -17.8068   27.6316 O   0  0  0  0  0  0  0  0  0  0  0  0
  2  1  1  0
  2  4  1  0
  3  2  2  0
  5  6  1  0
  5  4  1  0
  6  7  1  6
  8 10  1  0
  8  6  1  0
  9  8  2  0
 11 10  1  0
 11 12  1  1
 12 13  1  0
 14 15  2  0
 14 11  1  0
 17 18  1  0
 17 16  1  0
 18 20  1  0
 18 19  1  1
 20 21  1  6
 20 22  1  0
 21 14  1  0
 22 24  1  0
 23 22  2  0
M  END
$$$$
