QCI.pdb
     RDKit          3D

 24 23  0  0  1  0  0  0  0  0999 V2000
   10.9009  -12.8828   19.0312 N   0  0  0  0  0  0  0  0  0  0  0  0
   10.0290  -13.1727   17.9582 C   0  0  0  0  0  0  0  0  0  0  0  0
   10.4629  -13.5876   16.8712 O   0  0  0  0  0  0  0  0  0  0  0  0
    8.5430  -12.9850   18.1060 C   0  0  0  0  0  0  0  0  0  0  0  0
    8.0678  -13.5941   19.3895 C   0  0  0  0  0  0  0  0  0  0  0  0
    8.5917  -14.9766   19.6625 C   0  0  2  0  0  0  0  0  0  0  0  0
    7.9887  -15.8330   18.6206 N   0  0  0  0  0  0  0  0  0  0  0  0
    8.1344  -15.4297   20.9945 C   0  0  0  0  0  0  0  0  0  0  0  0
    6.9233  -15.1828   21.3108 O   0  0  0  0  0  0  0  0  0  0  0  0
    8.9135  -16.1098   21.9391 N   0  0  0  0  0  0  0  0  0  0  0  0
    8.3448  -16.4731   23.2191 C   0  0  1  0  0  0  0  0  0  0  0  0
    8.7195  -17.9216   23.5056 C   0  0  0  0  0  0  0  0  0  0  0  0
   10.5336  -18.0519   23.3765 S   0  0  0  0  0  0  0  0  0  0  0  0
    8.9217  -15.6255   24.2655 C   0  0  0  0  0  0  0  0  0  0  0  0
   10.0855  -15.1606   24.1643 O   0  0  0  0  0  0  0  0  0  0  0  0
    6.0481  -11.7900   26.2234 C   0  0  0  0  0  0  0  0  0  0  0  0
    7.1689  -12.6777   25.7833 C   0  0  0  0  0  0  0  0  0  0  0  0
    7.6932  -13.4922   26.9579 C   0  0  2  0  0  0  0  0  0  0  0  0
    8.3788  -12.5859   27.9515 C   0  0  0  0  0  0  0  0  0  0  0  0
    8.6913  -14.5073   26.4453 C   0  0  2  0  0  0  0  0  0  0  0  0
    8.1204  -15.3382   25.4144 N   0  0  0  0  0  0  0  0  0  0  0  0
    9.1758  -15.3495   27.5804 C   0  0  0  0  0  0  0  0  0  0  0  0
    8.6275  -16.4329   27.8739 O   0  0  0  0  0  0  0  0  0  0  0  0
   10.2518  -14.9203   28.3191 O   0  0  0  0  0  0  0  0  0  0  0  0
  2  1  1  0
  2  4  1  0
  3  2  2  0
  5  6  1  0
  5  4  1  0
  6  7  1  6
  8 10  1  0
  8  6  1  0
  9  8  2  0
 11 10  1  0
 11 12  1  1
 12 13  1  0
 14 15  2  0
 14 11  1  0
 17 18  1  0
 17 16  1  0
 18 20  1  0
 18 19  1  1
 20 21  1  6
 20 22  1  0
 21 14  1  0
 22 24  1  0
 23 22  2  0
M  END
$$$$
