QCI.pdb
     RDKit          3D

 24 23  0  0  1  0  0  0  0  0999 V2000
    8.6742  -12.7493   18.5073 N   0  0  0  0  0  0  0  0  0  0  0  0
    8.5001  -13.7172   17.4932 C   0  0  0  0  0  0  0  0  0  0  0  0
    8.5528  -13.4067   16.2920 O   0  0  0  0  0  0  0  0  0  0  0  0
    8.2447  -15.1581   17.8448 C   0  0  0  0  0  0  0  0  0  0  0  0
    8.2522  -15.3390   19.3319 C   0  0  0  0  0  0  0  0  0  0  0  0
    8.0107  -16.7485   19.7961 C   0  0  2  0  0  0  0  0  0  0  0  0
    7.0637  -17.3224   18.8181 N   0  0  0  0  0  0  0  0  0  0  0  0
    7.3824  -16.7323   21.1354 C   0  0  0  0  0  0  0  0  0  0  0  0
    6.3016  -16.0669   21.2647 O   0  0  0  0  0  0  0  0  0  0  0  0
    7.8679  -17.3866   22.2746 N   0  0  0  0  0  0  0  0  0  0  0  0
    7.2158  -17.1947   23.5520 C   0  0  1  0  0  0  0  0  0  0  0  0
    7.1465  -18.5460   24.2517 C   0  0  0  0  0  0  0  0  0  0  0  0
    6.3957  -18.2740   25.8909 S   0  0  0  0  0  0  0  0  0  0  0  0
    8.0157  -16.2833   24.3740 C   0  0  0  0  0  0  0  0  0  0  0  0
    9.2714  -16.3446   24.3873 O   0  0  0  0  0  0  0  0  0  0  0  0
    5.5699  -11.6923   26.2357 C   0  0  0  0  0  0  0  0  0  0  0  0
    6.5804  -12.6200   25.6390 C   0  0  0  0  0  0  0  0  0  0  0  0
    7.2608  -13.4359   26.7295 C   0  0  2  0  0  0  0  0  0  0  0  0
    8.1545  -12.5468   27.5599 C   0  0  0  0  0  0  0  0  0  0  0  0
    8.1014  -14.5153   26.0833 C   0  0  2  0  0  0  0  0  0  0  0  0
    7.3257  -15.3143   25.1673 N   0  0  0  0  0  0  0  0  0  0  0  0
    8.7049  -15.3800   27.1419 C   0  0  0  0  0  0  0  0  0  0  0  0
    8.0895  -16.3555   27.6216 O   0  0  0  0  0  0  0  0  0  0  0  0
    9.9688  -15.0938   27.5983 O   0  0  0  0  0  0  0  0  0  0  0  0
  2  1  1  0
  2  4  1  0
  3  2  2  0
  5  6  1  0
  5  4  1  0
  6  7  1  6
  8 10  1  0
  8  6  1  0
  9  8  2  0
 11 10  1  0
 11 12  1  1
 12 13  1  0
 14 15  2  0
 14 11  1  0
 17 18  1  0
 17 16  1  0
 18 20  1  0
 18 19  1  6
 20 21  1  6
 20 22  1  0
 21 14  1  0
 22 24  1  0
 23 22  2  0
M  END
$$$$
