QCI.pdb
     RDKit          3D

 24 23  0  0  1  0  0  0  0  0999 V2000
   11.4832  -13.6709   20.4349 N   0  0  0  0  0  0  0  0  0  0  0  0
   11.5064  -13.3186   19.0670 C   0  0  0  0  0  0  0  0  0  0  0  0
   12.5769  -13.2312   18.4436 O   0  0  0  0  0  0  0  0  0  0  0  0
   10.2268  -13.0387   18.3259 C   0  0  0  0  0  0  0  0  0  0  0  0
    9.0566  -13.5844   19.0856 C   0  0  0  0  0  0  0  0  0  0  0  0
    9.0129  -15.0841   19.1829 C   0  0  2  0  0  0  0  0  0  0  0  0
    8.2413  -15.5273   18.0035 N   0  0  0  0  0  0  0  0  0  0  0  0
    8.2979  -15.4838   20.4148 C   0  0  0  0  0  0  0  0  0  0  0  0
    7.0230  -15.4425   20.3889 O   0  0  0  0  0  0  0  0  0  0  0  0
    8.8974  -15.9077   21.6075 N   0  0  0  0  0  0  0  0  0  0  0  0
    8.0776  -16.2166   22.7592 C   0  0  1  0  0  0  0  0  0  0  0  0
    8.0707  -17.7293   22.9387 C   0  0  0  0  0  0  0  0  0  0  0  0
    9.8037  -18.2650   23.1240 S   0  0  0  0  0  0  0  0  0  0  0  0
    8.6676  -15.6070   23.9534 C   0  0  0  0  0  0  0  0  0  0  0  0
    9.9089  -15.4352   24.0560 O   0  0  0  0  0  0  0  0  0  0  0  0
    5.9496  -11.6249   26.1790 C   0  0  0  0  0  0  0  0  0  0  0  0
    7.0044  -12.5539   25.6671 C   0  0  0  0  0  0  0  0  0  0  0  0
    7.4168  -13.5383   26.7528 C   0  0  2  0  0  0  0  0  0  0  0  0
    8.1178  -12.8094   27.8736 C   0  0  0  0  0  0  0  0  0  0  0  0
    8.3642  -14.5572   26.1582 C   0  0  2  0  0  0  0  0  0  0  0  0
    7.7881  -15.2090   25.0082 N   0  0  0  0  0  0  0  0  0  0  0  0
    8.7290  -15.5671   27.1973 C   0  0  0  0  0  0  0  0  0  0  0  0
    8.0866  -16.6297   27.3332 O   0  0  0  0  0  0  0  0  0  0  0  0
    9.7985  -15.3192   28.0235 O   0  0  0  0  0  0  0  0  0  0  0  0
  2  1  1  0
  2  4  1  0
  3  2  2  0
  5  6  1  0
  5  4  1  0
  6  7  1  6
  8 10  1  0
  8  6  1  0
  9  8  2  0
 11 10  1  0
 11 12  1  1
 12 13  1  0
 14 15  2  0
 14 11  1  0
 17 18  1  0
 17 16  1  0
 18 20  1  0
 18 19  1  1
 20 21  1  6
 20 22  1  0
 21 14  1  0
 22 24  1  0
 23 22  2  0
M  END
$$$$
