QCI.pdb
     RDKit          3D

 24 23  0  0  1  0  0  0  0  0999 V2000
   11.6078  -19.5060   20.4739 N   0  0  0  0  0  0  0  0  0  0  0  0
   11.4809  -18.2206   19.9017 C   0  0  0  0  0  0  0  0  0  0  0  0
   12.4802  -17.5290   19.6461 O   0  0  0  0  0  0  0  0  0  0  0  0
   10.1233  -17.6530   19.5855 C   0  0  0  0  0  0  0  0  0  0  0  0
    9.3850  -17.3373   20.8502 C   0  0  0  0  0  0  0  0  0  0  0  0
    8.6276  -16.0386   20.8298 C   0  0  2  0  0  0  0  0  0  0  0  0
    9.3552  -15.1800   19.8727 N   0  0  0  0  0  0  0  0  0  0  0  0
    8.6653  -15.4177   22.1720 C   0  0  0  0  0  0  0  0  0  0  0  0
    9.7354  -14.8067   22.5024 O   0  0  0  0  0  0  0  0  0  0  0  0
    7.6272  -15.4381   23.1121 N   0  0  0  0  0  0  0  0  0  0  0  0
    7.7920  -14.7722   24.3862 C   0  0  1  0  0  0  0  0  0  0  0  0
    6.4171  -14.6401   25.0285 C   0  0  0  0  0  0  0  0  0  0  0  0
    6.5928  -13.5424   26.4737 S   0  0  0  0  0  0  0  0  0  0  0  0
    8.6380  -15.5917   25.2572 C   0  0  0  0  0  0  0  0  0  0  0  0
    8.8547  -16.8047   25.0070 O   0  0  0  0  0  0  0  0  0  0  0  0
   10.5688  -12.8258   29.5427 C   0  0  0  0  0  0  0  0  0  0  0  0
   10.7851  -13.6666   28.3244 C   0  0  0  0  0  0  0  0  0  0  0  0
   10.3312  -15.0972   28.5796 C   0  0  2  0  0  0  0  0  0  0  0  0
   11.4077  -15.8587   29.3145 C   0  0  0  0  0  0  0  0  0  0  0  0
   10.0674  -15.7732   27.2519 C   0  0  2  0  0  0  0  0  0  0  0  0
    9.2156  -14.9715   26.4088 N   0  0  0  0  0  0  0  0  0  0  0  0
    9.4501  -17.1134   27.4870 C   0  0  0  0  0  0  0  0  0  0  0  0
    8.2170  -17.2513   27.6315 O   0  0  0  0  0  0  0  0  0  0  0  0
   10.2606  -18.2214   27.5455 O   0  0  0  0  0  0  0  0  0  0  0  0
  2  1  1  0
  2  4  1  0
  3  2  2  0
  5  6  1  0
  5  4  1  0
  6  7  1  6
  8 10  1  0
  8  6  1  0
  9  8  2  0
 11 10  1  0
 11 12  1  1
 12 13  1  0
 14 15  2  0
 14 11  1  0
 17 18  1  0
 17 16  1  0
 18 20  1  0
 18 19  1  6
 20 21  1  6
 20 22  1  0
 21 14  1  0
 22 24  1  0
 23 22  2  0
M  END
$$$$
