QCI.pdb
     RDKit          3D

 24 23  0  0  1  0  0  0  0  0999 V2000
   11.4055  -14.1925   20.4648 N   0  0  0  0  0  0  0  0  0  0  0  0
   11.5801  -13.4713   19.2626 C   0  0  0  0  0  0  0  0  0  0  0  0
   12.7134  -13.2366   18.8125 O   0  0  0  0  0  0  0  0  0  0  0  0
   10.3901  -12.9660   18.4922 C   0  0  0  0  0  0  0  0  0  0  0  0
    9.1205  -13.4641   19.1122 C   0  0  0  0  0  0  0  0  0  0  0  0
    8.9513  -14.9579   19.0875 C   0  0  2  0  0  0  0  0  0  0  0  0
    8.0969  -15.2324   17.9139 N   0  0  0  0  0  0  0  0  0  0  0  0
    8.2552  -15.4018   20.3151 C   0  0  0  0  0  0  0  0  0  0  0  0
    6.9822  -15.4735   20.2704 O   0  0  0  0  0  0  0  0  0  0  0  0
    8.8712  -15.7542   21.5226 N   0  0  0  0  0  0  0  0  0  0  0  0
    8.0642  -16.1277   22.6642 C   0  0  1  0  0  0  0  0  0  0  0  0
    8.1064  -17.6450   22.7930 C   0  0  0  0  0  0  0  0  0  0  0  0
    9.8555  -18.1297   22.9665 S   0  0  0  0  0  0  0  0  0  0  0  0
    8.6368  -15.5396   23.8776 C   0  0  0  0  0  0  0  0  0  0  0  0
    9.8663  -15.2929   23.9686 O   0  0  0  0  0  0  0  0  0  0  0  0
    5.5787  -11.9042   26.1999 C   0  0  0  0  0  0  0  0  0  0  0  0
    6.7497  -12.6742   25.6766 C   0  0  0  0  0  0  0  0  0  0  0  0
    7.2666  -13.6385   26.7353 C   0  0  2  0  0  0  0  0  0  0  0  0
    7.9155  -12.8714   27.8619 C   0  0  0  0  0  0  0  0  0  0  0  0
    8.2935  -14.5544   26.1061 C   0  0  2  0  0  0  0  0  0  0  0  0
    7.7541  -15.2511   24.9648 N   0  0  0  0  0  0  0  0  0  0  0  0
    8.7835  -15.5312   27.1252 C   0  0  0  0  0  0  0  0  0  0  0  0
    9.5323  -15.1816   28.0619 O   0  0  0  0  0  0  0  0  0  0  0  0
    8.3998  -16.8469   27.0282 O   0  0  0  0  0  0  0  0  0  0  0  0
  2  1  1  0
  2  4  1  0
  3  2  2  0
  5  6  1  0
  5  4  1  0
  6  7  1  6
  8 10  1  0
  8  6  1  0
  9  8  2  0
 11 10  1  0
 11 12  1  1
 12 13  1  0
 14 15  2  0
 14 11  1  0
 17 18  1  0
 17 16  1  0
 18 20  1  0
 18 19  1  1
 20 21  1  6
 20 22  1  0
 21 14  1  0
 22 24  1  0
 23 22  2  0
M  END
$$$$
