QCI.pdb
     RDKit          3D

 24 23  0  0  1  0  0  0  0  0999 V2000
    6.1473  -18.5486   20.2713 N   0  0  0  0  0  0  0  0  0  0  0  0
    7.5405  -18.3154   20.2487 C   0  0  0  0  0  0  0  0  0  0  0  0
    8.3103  -19.0777   19.6417 O   0  0  0  0  0  0  0  0  0  0  0  0
    8.1308  -17.1301   20.9640 C   0  0  0  0  0  0  0  0  0  0  0  0
    7.0659  -16.3971   21.7210 C   0  0  0  0  0  0  0  0  0  0  0  0
    7.1471  -14.8985   21.6305 C   0  0  2  0  0  0  0  0  0  0  0  0
    7.9709  -14.6260   20.4348 N   0  0  0  0  0  0  0  0  0  0  0  0
    7.8297  -14.3624   22.8285 C   0  0  0  0  0  0  0  0  0  0  0  0
    9.0992  -14.4796   22.8782 O   0  0  0  0  0  0  0  0  0  0  0  0
    7.2051  -13.7333   23.9129 N   0  0  0  0  0  0  0  0  0  0  0  0
    7.9916  -13.2938   25.0451 C   0  0  1  0  0  0  0  0  0  0  0  0
    7.1193  -12.3806   25.8969 C   0  0  0  0  0  0  0  0  0  0  0  0
    5.5805  -13.2858   26.2677 S   0  0  0  0  0  0  0  0  0  0  0  0
    8.3770  -14.4557   25.8498 C   0  0  0  0  0  0  0  0  0  0  0  0
    7.7403  -15.5379   25.7845 O   0  0  0  0  0  0  0  0  0  0  0  0
   12.6269  -16.6811   25.0418 C   0  0  0  0  0  0  0  0  0  0  0  0
   11.2649  -16.2980   25.5277 C   0  0  0  0  0  0  0  0  0  0  0  0
   11.3085  -15.9499   27.0092 C   0  0  2  0  0  0  0  0  0  0  0  0
   11.7050  -17.1634   27.8148 C   0  0  0  0  0  0  0  0  0  0  0  0
    9.9339  -15.4942   27.4475 C   0  0  2  0  0  0  0  0  0  0  0  0
    9.5052  -14.3262   26.7186 N   0  0  0  0  0  0  0  0  0  0  0  0
    9.9443  -15.2140   28.9151 C   0  0  0  0  0  0  0  0  0  0  0  0
   10.0244  -16.1327   29.7577 O   0  0  0  0  0  0  0  0  0  0  0  0
    9.8636  -13.9123   29.3475 O   0  0  0  0  0  0  0  0  0  0  0  0
  2  1  1  0
  2  4  1  0
  3  2  2  0
  5  6  1  0
  5  4  1  0
  6  7  1  6
  8 10  1  0
  8  6  1  0
  9  8  2  0
 11 10  1  0
 11 12  1  1
 12 13  1  0
 14 15  2  0
 14 11  1  0
 17 18  1  0
 17 16  1  0
 18 20  1  0
 18 19  1  1
 20 21  1  6
 20 22  1  0
 21 14  1  0
 22 24  1  0
 23 22  2  0
M  END
$$$$
