QCI.pdb
     RDKit          3D

 24 23  0  0  1  0  0  0  0  0999 V2000
    4.7998  -20.4613   20.3002 N   0  0  0  0  0  0  0  0  0  0  0  0
    5.5133  -19.8404   19.2509 C   0  0  0  0  0  0  0  0  0  0  0  0
    5.5056  -20.3109   18.1017 O   0  0  0  0  0  0  0  0  0  0  0  0
    6.3056  -18.5854   19.5004 C   0  0  0  0  0  0  0  0  0  0  0  0
    6.1104  -18.1198   20.9109 C   0  0  0  0  0  0  0  0  0  0  0  0
    7.1725  -18.5696   21.8753 C   0  0  2  0  0  0  0  0  0  0  0  0
    6.4407  -19.2071   22.9891 N   0  0  0  0  0  0  0  0  0  0  0  0
    7.9140  -17.3951   22.3846 C   0  0  0  0  0  0  0  0  0  0  0  0
    9.1879  -17.4659   22.3882 O   0  0  0  0  0  0  0  0  0  0  0  0
    7.3405  -16.2092   22.8605 N   0  0  0  0  0  0  0  0  0  0  0  0
    8.1805  -15.1764   23.4276 C   0  0  1  0  0  0  0  0  0  0  0  0
    7.6725  -13.8303   22.9270 C   0  0  0  0  0  0  0  0  0  0  0  0
    7.7803  -13.8488   21.1069 S   0  0  0  0  0  0  0  0  0  0  0  0
    8.0672  -15.2049   24.8878 C   0  0  0  0  0  0  0  0  0  0  0  0
    6.9911  -15.5224   25.4553 O   0  0  0  0  0  0  0  0  0  0  0  0
   12.3099  -16.5957   28.1138 C   0  0  0  0  0  0  0  0  0  0  0  0
   11.4186  -15.6217   27.4103 C   0  0  0  0  0  0  0  0  0  0  0  0
    9.9594  -15.9040   27.7402 C   0  0  2  0  0  0  0  0  0  0  0  0
    9.5599  -17.2577   27.2048 C   0  0  0  0  0  0  0  0  0  0  0  0
    9.0955  -14.8431   27.0939 C   0  0  2  0  0  0  0  0  0  0  0  0
    9.2216  -14.8594   25.6576 N   0  0  0  0  0  0  0  0  0  0  0  0
    9.4675  -13.4995   27.6314 C   0  0  0  0  0  0  0  0  0  0  0  0
   10.0607  -12.6535   26.9293 O   0  0  0  0  0  0  0  0  0  0  0  0
    9.1482  -13.1879   28.9309 O   0  0  0  0  0  0  0  0  0  0  0  0
  2  1  1  0
  2  4  1  0
  3  2  2  0
  5  6  1  0
  5  4  1  0
  6  7  1  1
  8 10  1  0
  8  6  1  0
  9  8  2  0
 11 10  1  0
 11 12  1  6
 12 13  1  0
 14 15  2  0
 14 11  1  0
 17 18  1  0
 17 16  1  0
 18 20  1  0
 18 19  1  6
 20 21  1  6
 20 22  1  0
 21 14  1  0
 22 24  1  0
 23 22  2  0
M  END
$$$$
