QCI.pdb
     RDKit          3D

 24 23  0  0  1  0  0  0  0  0999 V2000
   12.9690  -20.0421   21.3049 N   0  0  0  0  0  0  0  0  0  0  0  0
   13.2247  -18.7677   20.7514 C   0  0  0  0  0  0  0  0  0  0  0  0
   14.3793  -18.4107   20.4657 O   0  0  0  0  0  0  0  0  0  0  0  0
   12.0977  -17.8045   20.4923 C   0  0  0  0  0  0  0  0  0  0  0  0
   10.7836  -18.4399   20.8294 C   0  0  0  0  0  0  0  0  0  0  0  0
    9.5839  -17.5614   20.6071 C   0  0  2  0  0  0  0  0  0  0  0  0
   10.0162  -16.5584   19.6123 N   0  0  0  0  0  0  0  0  0  0  0  0
    9.2255  -16.8773   21.8689 C   0  0  0  0  0  0  0  0  0  0  0  0
    9.5460  -15.6471   21.9771 O   0  0  0  0  0  0  0  0  0  0  0  0
    8.5613  -17.4605   22.9554 N   0  0  0  0  0  0  0  0  0  0  0  0
    8.1980  -16.6524   24.0995 C   0  0  1  0  0  0  0  0  0  0  0  0
    6.8609  -17.1578   24.6260 C   0  0  0  0  0  0  0  0  0  0  0  0
    7.1352  -18.8317   25.2950 S   0  0  0  0  0  0  0  0  0  0  0  0
    9.2059  -16.8160   25.1499 C   0  0  0  0  0  0  0  0  0  0  0  0
   10.2026  -17.5657   24.9904 O   0  0  0  0  0  0  0  0  0  0  0  0
    9.2401  -12.7362   28.8033 C   0  0  0  0  0  0  0  0  0  0  0  0
    9.7227  -13.7268   27.7917 C   0  0  0  0  0  0  0  0  0  0  0  0
    9.8881  -15.0992   28.4298 C   0  0  2  0  0  0  0  0  0  0  0  0
   11.0894  -15.1037   29.3440 C   0  0  0  0  0  0  0  0  0  0  0  0
   10.0945  -16.1268   27.3386 C   0  0  2  0  0  0  0  0  0  0  0  0
    9.0255  -16.0951   26.3715 N   0  0  0  0  0  0  0  0  0  0  0  0
   10.2026  -17.4873   27.9469 C   0  0  0  0  0  0  0  0  0  0  0  0
    9.1978  -18.2075   28.1258 O   0  0  0  0  0  0  0  0  0  0  0  0
   11.4393  -17.9568   28.3184 O   0  0  0  0  0  0  0  0  0  0  0  0
  2  1  1  0
  2  4  1  0
  3  2  2  0
  5  6  1  0
  5  4  1  0
  6  7  1  6
  8 10  1  0
  8  6  1  0
  9  8  2  0
 11 10  1  0
 11 12  1  1
 12 13  1  0
 14 15  2  0
 14 11  1  0
 17 18  1  0
 17 16  1  0
 18 20  1  0
 18 19  1  1
 20 21  1  6
 20 22  1  0
 21 14  1  0
 22 24  1  0
 23 22  2  0
M  END
$$$$
