QCI.pdb
     RDKit          3D

 24 23  0  0  1  0  0  0  0  0999 V2000
   13.5241  -18.1578   21.2971 N   0  0  0  0  0  0  0  0  0  0  0  0
   13.2250  -17.4890   20.0892 C   0  0  0  0  0  0  0  0  0  0  0  0
   14.1269  -17.0545   19.3544 O   0  0  0  0  0  0  0  0  0  0  0  0
   11.7972  -17.2847   19.6595 C   0  0  0  0  0  0  0  0  0  0  0  0
   10.8630  -17.9233   20.6412 C   0  0  0  0  0  0  0  0  0  0  0  0
    9.4072  -17.8316   20.2766 C   0  0  2  0  0  0  0  0  0  0  0  0
    9.3444  -16.8505   19.1738 N   0  0  0  0  0  0  0  0  0  0  0  0
    8.6347  -17.3218   21.4307 C   0  0  0  0  0  0  0  0  0  0  0  0
    8.4504  -16.0612   21.4984 O   0  0  0  0  0  0  0  0  0  0  0  0
    8.0839  -18.1021   22.4551 N   0  0  0  0  0  0  0  0  0  0  0  0
    7.2521  -17.4858   23.4661 C   0  0  1  0  0  0  0  0  0  0  0  0
    6.6338  -18.5959   24.3064 C   0  0  0  0  0  0  0  0  0  0  0  0
    5.6287  -17.8026   25.6044 S   0  0  0  0  0  0  0  0  0  0  0  0
    8.0830  -16.6493   24.3356 C   0  0  0  0  0  0  0  0  0  0  0  0
    9.3061  -16.8890   24.5011 O   0  0  0  0  0  0  0  0  0  0  0  0
    5.8619  -11.8236   25.9541 C   0  0  0  0  0  0  0  0  0  0  0  0
    6.8937  -12.7553   25.4015 C   0  0  0  0  0  0  0  0  0  0  0  0
    7.4713  -13.6248   26.5098 C   0  0  2  0  0  0  0  0  0  0  0  0
    8.3808  -12.8035   27.3914 C   0  0  0  0  0  0  0  0  0  0  0  0
    8.2706  -14.7482   25.8867 C   0  0  2  0  0  0  0  0  0  0  0  0
    7.4620  -15.5439   24.9966 N   0  0  0  0  0  0  0  0  0  0  0  0
    8.8521  -15.6053   26.9636 C   0  0  0  0  0  0  0  0  0  0  0  0
    8.2256  -16.5754   27.4398 O   0  0  0  0  0  0  0  0  0  0  0  0
   10.1080  -15.3180   27.4412 O   0  0  0  0  0  0  0  0  0  0  0  0
  2  1  1  0
  2  4  1  0
  3  2  2  0
  5  6  1  0
  5  4  1  0
  6  7  1  6
  8 10  1  0
  8  6  1  0
  9  8  2  0
 11 10  1  0
 11 12  1  1
 12 13  1  0
 14 15  2  0
 14 11  1  0
 17 18  1  0
 17 16  1  0
 18 20  1  0
 18 19  1  1
 20 21  1  6
 20 22  1  0
 21 14  1  0
 22 24  1  0
 23 22  2  0
M  END
$$$$
