QCI.pdb
     RDKit          3D

 24 23  0  0  1  0  0  0  0  0999 V2000
   11.6737  -16.1647   16.2575 N   0  0  0  0  0  0  0  0  0  0  0  0
   10.2713  -16.2832   16.3800 C   0  0  0  0  0  0  0  0  0  0  0  0
    9.5106  -15.8655   15.4918 O   0  0  0  0  0  0  0  0  0  0  0  0
    9.6598  -16.9226   17.5975 C   0  0  0  0  0  0  0  0  0  0  0  0
   10.7326  -17.3944   18.5307 C   0  0  0  0  0  0  0  0  0  0  0  0
   10.2318  -17.9765   19.8233 C   0  0  2  0  0  0  0  0  0  0  0  0
    8.9398  -18.6102   19.4888 N   0  0  0  0  0  0  0  0  0  0  0  0
   10.0066  -16.8927   20.8047 C   0  0  0  0  0  0  0  0  0  0  0  0
   11.0348  -16.2712   21.2338 O   0  0  0  0  0  0  0  0  0  0  0  0
    8.7623  -16.4855   21.3024 N   0  0  0  0  0  0  0  0  0  0  0  0
    8.6925  -15.4796   22.3403 C   0  0  1  0  0  0  0  0  0  0  0  0
    7.2644  -14.9516   22.3874 C   0  0  0  0  0  0  0  0  0  0  0  0
    7.0016  -13.9536   20.8842 S   0  0  0  0  0  0  0  0  0  0  0  0
    9.0069  -16.0925   23.6332 C   0  0  0  0  0  0  0  0  0  0  0  0
    9.2268  -17.3261   23.7371 O   0  0  0  0  0  0  0  0  0  0  0  0
   10.4076  -12.6030   27.6685 C   0  0  0  0  0  0  0  0  0  0  0  0
   10.4456  -13.7717   26.7355 C   0  0  0  0  0  0  0  0  0  0  0  0
    9.4314  -14.8241   27.1617 C   0  0  2  0  0  0  0  0  0  0  0  0
    9.8918  -15.5039   28.4285 C   0  0  0  0  0  0  0  0  0  0  0  0
    9.3058  -15.8583   26.0644 C   0  0  2  0  0  0  0  0  0  0  0  0
    9.0578  -15.2446   24.7834 N   0  0  0  0  0  0  0  0  0  0  0  0
    8.2085  -16.8147   26.4017 C   0  0  0  0  0  0  0  0  0  0  0  0
    7.0307  -16.6170   26.0358 O   0  0  0  0  0  0  0  0  0  0  0  0
    8.5041  -17.9397   27.1330 O   0  0  0  0  0  0  0  0  0  0  0  0
  2  1  1  0
  2  4  1  0
  3  2  2  0
  5  6  1  0
  5  4  1  0
  6  7  1  6
  8 10  1  0
  8  6  1  0
  9  8  2  0
 11 10  1  0
 11 12  1  1
 12 13  1  0
 14 15  2  0
 14 11  1  0
 17 18  1  0
 17 16  1  0
 18 20  1  0
 18 19  1  1
 20 21  1  6
 20 22  1  0
 21 14  1  0
 22 24  1  0
 23 22  2  0
M  END
$$$$
