QCI.pdb
     RDKit          3D

 24 23  0  0  1  0  0  0  0  0999 V2000
   11.9100  -17.6375   17.8428 N   0  0  0  0  0  0  0  0  0  0  0  0
   10.9198  -17.0055   17.0580 C   0  0  0  0  0  0  0  0  0  0  0  0
   11.0875  -16.8148   15.8424 O   0  0  0  0  0  0  0  0  0  0  0  0
    9.6286  -16.5445   17.6788 C   0  0  0  0  0  0  0  0  0  0  0  0
    9.5792  -16.9341   19.1245 C   0  0  0  0  0  0  0  0  0  0  0  0
    8.3843  -17.7593   19.5139 C   0  0  2  0  0  0  0  0  0  0  0  0
    7.4320  -17.6163   18.3935 N   0  0  0  0  0  0  0  0  0  0  0  0
    7.7778  -17.2091   20.7460 C   0  0  0  0  0  0  0  0  0  0  0  0
    6.8946  -16.2992   20.6054 O   0  0  0  0  0  0  0  0  0  0  0  0
    8.0851  -17.6018   22.0548 N   0  0  0  0  0  0  0  0  0  0  0  0
    7.3169  -17.0817   23.1653 C   0  0  1  0  0  0  0  0  0  0  0  0
    6.7861  -18.2650   23.9644 C   0  0  0  0  0  0  0  0  0  0  0  0
    5.9325  -17.5952   25.4298 S   0  0  0  0  0  0  0  0  0  0  0  0
    8.1913  -16.2873   24.0315 C   0  0  0  0  0  0  0  0  0  0  0  0
    9.3885  -16.6153   24.2315 O   0  0  0  0  0  0  0  0  0  0  0  0
    6.1347  -11.9826   27.3096 C   0  0  0  0  0  0  0  0  0  0  0  0
    6.6024  -13.2615   26.6904 C   0  0  0  0  0  0  0  0  0  0  0  0
    7.8785  -13.0294   25.8932 C   0  0  2  0  0  0  0  0  0  0  0  0
    7.5646  -12.2832   24.6190 C   0  0  0  0  0  0  0  0  0  0  0  0
    8.4895  -14.3686   25.5430 C   0  0  2  0  0  0  0  0  0  0  0  0
    7.6436  -15.1197   24.6489 N   0  0  0  0  0  0  0  0  0  0  0  0
    8.7406  -15.1462   26.7940 C   0  0  0  0  0  0  0  0  0  0  0  0
    8.1189  -16.1995   27.0474 O   0  0  0  0  0  0  0  0  0  0  0  0
    9.6795  -14.6898   27.6873 O   0  0  0  0  0  0  0  0  0  0  0  0
  2  1  1  0
  2  4  1  0
  3  2  2  0
  5  6  1  0
  5  4  1  0
  6  7  1  6
  8 10  1  0
  8  6  1  0
  9  8  2  0
 11 10  1  0
 11 12  1  1
 12 13  1  0
 14 15  2  0
 14 11  1  0
 17 18  1  0
 17 16  1  0
 18 20  1  0
 18 19  1  6
 20 21  1  6
 20 22  1  0
 21 14  1  0
 22 24  1  0
 23 22  2  0
M  END
$$$$
