QCI.pdb
     RDKit          3D

 24 23  0  0  1  0  0  0  0  0999 V2000
   10.1424  -12.4432   19.3143 N   0  0  0  0  0  0  0  0  0  0  0  0
    9.4455  -13.3202   18.4535 C   0  0  0  0  0  0  0  0  0  0  0  0
   10.0447  -14.1864   17.7956 O   0  0  0  0  0  0  0  0  0  0  0  0
    7.9502  -13.2265   18.3109 C   0  0  0  0  0  0  0  0  0  0  0  0
    7.2750  -13.9039   19.4639 C   0  0  0  0  0  0  0  0  0  0  0  0
    7.8430  -15.2485   19.8248 C   0  0  2  0  0  0  0  0  0  0  0  0
    7.3553  -16.1695   18.7778 N   0  0  0  0  0  0  0  0  0  0  0  0
    7.3154  -15.6768   21.1389 C   0  0  0  0  0  0  0  0  0  0  0  0
    6.1389  -15.2927   21.4486 O   0  0  0  0  0  0  0  0  0  0  0  0
    7.9929  -16.4709   22.0728 N   0  0  0  0  0  0  0  0  0  0  0  0
    7.4114  -16.7097   23.3762 C   0  0  1  0  0  0  0  0  0  0  0  0
    7.4705  -18.2071   23.6496 C   0  0  0  0  0  0  0  0  0  0  0  0
    6.7854  -18.4851   25.3164 S   0  0  0  0  0  0  0  0  0  0  0  0
    8.2027  -16.0169   24.3959 C   0  0  0  0  0  0  0  0  0  0  0  0
    9.4549  -16.1232   24.4374 O   0  0  0  0  0  0  0  0  0  0  0  0
    5.9187  -11.5875   26.5456 C   0  0  0  0  0  0  0  0  0  0  0  0
    6.9515  -12.4988   25.9619 C   0  0  0  0  0  0  0  0  0  0  0  0
    7.4979  -13.4352   27.0308 C   0  0  2  0  0  0  0  0  0  0  0  0
    8.4073  -12.6772   27.9675 C   0  0  0  0  0  0  0  0  0  0  0  0
    8.2880  -14.5379   26.3607 C   0  0  2  0  0  0  0  0  0  0  0  0
    7.5087  -15.2101   25.3508 N   0  0  0  0  0  0  0  0  0  0  0  0
    8.7551  -15.5150   27.3901 C   0  0  0  0  0  0  0  0  0  0  0  0
    8.0171  -16.4334   27.8052 O   0  0  0  0  0  0  0  0  0  0  0  0
   10.0289  -15.3992   27.8919 O   0  0  0  0  0  0  0  0  0  0  0  0
  2  1  1  0
  2  4  1  0
  3  2  2  0
  5  6  1  0
  5  4  1  0
  6  7  1  6
  8 10  1  0
  8  6  1  0
  9  8  2  0
 11 10  1  0
 11 12  1  1
 12 13  1  0
 14 15  2  0
 14 11  1  0
 17 18  1  0
 17 16  1  0
 18 20  1  0
 18 19  1  1
 20 21  1  6
 20 22  1  0
 21 14  1  0
 22 24  1  0
 23 22  2  0
M  END
$$$$
