TVK.pdb
     RDKit          3D

 24 23  0  0  1  0  0  0  0  0999 V2000
   31.5736  -28.5893  -20.6912 C   0  0  0  0  0  0  0  0  0  0  0  0
   32.9391  -29.1200  -20.3974 C   0  0  1  0  0  0  0  0  0  0  0  0
   33.7088  -29.2926  -21.5486 O   0  0  0  0  0  0  0  0  0  0  0  0
   33.7279  -28.2150  -19.4692 C   0  0  2  0  0  0  0  0  0  0  0  0
   34.9886  -28.8242  -19.1203 N   0  0  0  0  0  0  0  0  0  0  0  0
   32.8773  -27.9696  -18.2757 C   0  0  0  0  0  0  0  0  0  0  0  0
   32.9072  -28.8298  -17.3615 O   0  0  0  0  0  0  0  0  0  0  0  0
   32.7048  -24.6567  -16.2400 C   0  0  0  0  0  0  0  0  0  0  0  0
   31.3735  -25.0894  -16.7252 C   0  0  2  0  0  0  0  0  0  0  0  0
   30.2827  -24.5872  -15.8013 C   0  0  0  0  0  0  0  0  0  0  0  0
   31.2195  -26.5829  -16.9365 C   0  0  2  0  0  0  0  0  0  0  0  0
   32.0579  -26.8496  -18.1181 N   0  0  0  0  0  0  0  0  0  0  0  0
   29.8256  -26.9019  -17.2130 C   0  0  0  0  0  0  0  0  0  0  0  0
   29.2466  -26.3482  -18.2088 O   0  0  0  0  0  0  0  0  0  0  0  0
   29.0694  -27.7981  -16.4418 N   0  0  0  0  0  0  0  0  0  0  0  0
   27.6690  -28.1315  -16.7593 C   0  0  1  0  0  0  0  0  0  0  0  0
   27.3094  -29.4041  -16.0842 C   0  0  0  0  0  0  0  0  0  0  0  0
   25.9160  -29.8933  -16.2490 C   0  0  0  0  0  0  0  0  0  0  0  0
   25.7351  -31.3621  -16.4144 C   0  0  0  0  0  0  0  0  0  0  0  0
   24.2399  -31.5937  -16.6650 C   0  0  0  0  0  0  0  0  0  0  0  0
   23.9932  -32.9982  -16.9026 N   0  0  0  0  0  0  0  0  0  0  0  0
   26.7576  -27.0022  -16.5468 C   0  0  0  0  0  0  0  0  0  0  0  0
   26.8563  -26.2242  -15.5783 O   0  0  0  0  0  0  0  0  0  0  0  0
   25.7414  -26.7904  -17.4630 O   0  0  0  0  0  0  0  0  0  0  0  0
  2  1  1  6
  3  2  1  0
  4  2  1  0
  4  5  1  1
  6  4  1  0
  7  6  2  0
  9  8  1  1
  9 11  1  0
 10  9  1  0
 11 12  1  6
 12  6  1  0
 13 11  1  0
 13 15  1  0
 14 13  2  0
 16 17  1  1
 16 15  1  0
 16 22  1  0
 18 17  1  0
 19 18  1  0
 20 21  1  0
 20 19  1  0
 22 24  1  0
 23 22  2  0
M  END
$$$$
