TVK.pdb
     RDKit          3D

 24 23  0  0  1  0  0  0  0  0999 V2000
   29.2527  -21.9141  -16.6859 C   0  0  0  0  0  0  0  0  0  0  0  0
   28.1837  -22.2034  -15.6828 C   0  0  1  0  0  0  0  0  0  0  0  0
   28.6859  -22.3576  -14.3900 O   0  0  0  0  0  0  0  0  0  0  0  0
   27.1321  -21.1110  -15.6218 C   0  0  2  0  0  0  0  0  0  0  0  0
   27.7399  -19.8416  -15.3035 N   0  0  0  0  0  0  0  0  0  0  0  0
   26.1352  -21.5244  -14.6003 C   0  0  0  0  0  0  0  0  0  0  0  0
   25.4409  -22.5399  -14.8522 O   0  0  0  0  0  0  0  0  0  0  0  0
   26.7555  -21.2743  -10.6841 C   0  0  0  0  0  0  0  0  0  0  0  0
   25.4660  -20.6743  -11.0992 C   0  0  2  0  0  0  0  0  0  0  0  0
   24.4360  -20.8146   -9.9969 C   0  0  0  0  0  0  0  0  0  0  0  0
   24.8990  -21.2044  -12.4017 C   0  0  2  0  0  0  0  0  0  0  0  0
   25.9316  -20.8539  -13.3922 N   0  0  0  0  0  0  0  0  0  0  0  0
   23.6449  -20.5295  -12.7059 C   0  0  0  0  0  0  0  0  0  0  0  0
   23.6323  -19.2552  -12.8038 O   0  0  0  0  0  0  0  0  0  0  0  0
   22.4311  -21.2053  -12.9052 N   0  0  0  0  0  0  0  0  0  0  0  0
   21.1751  -20.5023  -13.2231 C   0  0  1  0  0  0  0  0  0  0  0  0
   20.8081  -20.7813  -14.6346 C   0  0  0  0  0  0  0  0  0  0  0  0
   19.5127  -20.2406  -15.1219 C   0  0  0  0  0  0  0  0  0  0  0  0
   19.0503  -20.7074  -16.4584 C   0  0  0  0  0  0  0  0  0  0  0  0
   17.7752  -19.9187  -16.7806 C   0  0  0  0  0  0  0  0  0  0  0  0
   17.1835  -20.4184  -18.0013 N   0  0  0  0  0  0  0  0  0  0  0  0
   20.1292  -20.7336  -12.2212 C   0  0  0  0  0  0  0  0  0  0  0  0
   19.9873  -21.8204  -11.6279 O   0  0  0  0  0  0  0  0  0  0  0  0
   19.2601  -19.6988  -11.9206 O   0  0  0  0  0  0  0  0  0  0  0  0
  2  1  1  6
  3  2  1  0
  4  2  1  0
  4  5  1  1
  6  4  1  0
  7  6  2  0
  9  8  1  1
  9 11  1  0
 10  9  1  0
 11 12  1  6
 12  6  1  0
 13 11  1  0
 13 15  1  0
 14 13  2  0
 16 17  1  6
 16 15  1  0
 16 22  1  0
 18 17  1  0
 19 18  1  0
 20 21  1  0
 20 19  1  0
 22 24  1  0
 23 22  2  0
M  END
$$$$
