TVK.pdb
     RDKit          3D

 24 23  0  0  1  0  0  0  0  0999 V2000
   17.8809   -9.4223  -12.2152 C   0  0  0  0  0  0  0  0  0  0  0  0
   16.7828  -10.4334  -12.2827 C   0  0  1  0  0  0  0  0  0  0  0  0
   17.2490  -11.7160  -12.5744 O   0  0  0  0  0  0  0  0  0  0  0  0
   16.0011  -10.5309  -10.9858 C   0  0  2  0  0  0  0  0  0  0  0  0
   15.0178  -11.5840  -11.0662 N   0  0  0  0  0  0  0  0  0  0  0  0
   15.3779   -9.2020  -10.7533 C   0  0  0  0  0  0  0  0  0  0  0  0
   14.4030   -8.8890  -11.4800 O   0  0  0  0  0  0  0  0  0  0  0  0
   14.1451   -7.6046   -7.3699 C   0  0  0  0  0  0  0  0  0  0  0  0
   15.2081   -6.8306   -8.0526 C   0  0  2  0  0  0  0  0  0  0  0  0
   15.1323   -5.3680   -7.6645 C   0  0  0  0  0  0  0  0  0  0  0  0
   15.2297   -6.9602   -9.5631 C   0  0  2  0  0  0  0  0  0  0  0  0
   15.8120   -8.2952   -9.7838 N   0  0  0  0  0  0  0  0  0  0  0  0
   16.0814   -5.9270  -10.1358 C   0  0  0  0  0  0  0  0  0  0  0  0
   17.3164   -5.8873   -9.8089 O   0  0  0  0  0  0  0  0  0  0  0  0
   15.6213   -4.9596  -11.0425 N   0  0  0  0  0  0  0  0  0  0  0  0
   16.4959   -3.9075  -11.5913 C   0  0  1  0  0  0  0  0  0  0  0  0
   16.6611   -4.1278  -13.0503 C   0  0  0  0  0  0  0  0  0  0  0  0
   16.0364   -3.1367  -13.9645 C   0  0  0  0  0  0  0  0  0  0  0  0
   16.2729   -3.3257  -15.4226 C   0  0  0  0  0  0  0  0  0  0  0  0
   15.5745   -2.1605  -16.1342 C   0  0  0  0  0  0  0  0  0  0  0  0
   15.7092   -2.3074  -17.5660 N   0  0  0  0  0  0  0  0  0  0  0  0
   16.0865   -2.5608  -11.1790 C   0  0  0  0  0  0  0  0  0  0  0  0
   14.9275   -2.2873  -10.8113 O   0  0  0  0  0  0  0  0  0  0  0  0
   17.0294   -1.5473  -11.1988 O   0  0  0  0  0  0  0  0  0  0  0  0
  2  1  1  1
  3  2  1  0
  4  2  1  0
  4  5  1  6
  6  4  1  0
  7  6  2  0
  9  8  1  6
  9 11  1  0
 10  9  1  0
 11 12  1  1
 12  6  1  0
 13 11  1  0
 13 15  1  0
 14 13  2  0
 16 17  1  6
 16 15  1  0
 16 22  1  0
 18 17  1  0
 19 18  1  0
 20 21  1  0
 20 19  1  0
 22 24  1  0
 23 22  2  0
M  END
$$$$
