TVK.pdb
     RDKit          3D

 24 23  0  0  1  0  0  0  0  0999 V2000
   26.2414  -19.0293  -15.9510 C   0  0  0  0  0  0  0  0  0  0  0  0
   27.1128  -20.1834  -16.3270 C   0  0  1  0  0  0  0  0  0  0  0  0
   28.1236  -19.8263  -17.2204 O   0  0  0  0  0  0  0  0  0  0  0  0
   27.7880  -20.8183  -15.1254 C   0  0  2  0  0  0  0  0  0  0  0  0
   28.6722  -21.8789  -15.5444 N   0  0  0  0  0  0  0  0  0  0  0  0
   26.7087  -21.3119  -14.2312 C   0  0  0  0  0  0  0  0  0  0  0  0
   26.1122  -22.3620  -14.5752 O   0  0  0  0  0  0  0  0  0  0  0  0
   26.8591  -20.9649  -10.2253 C   0  0  0  0  0  0  0  0  0  0  0  0
   25.5839  -20.5091  -10.8263 C   0  0  2  0  0  0  0  0  0  0  0  0
   24.4379  -20.7098   -9.8558 C   0  0  0  0  0  0  0  0  0  0  0  0
   25.2408  -21.1382  -12.1625 C   0  0  2  0  0  0  0  0  0  0  0  0
   26.3272  -20.6800  -13.0456 N   0  0  0  0  0  0  0  0  0  0  0  0
   23.9546  -20.6385  -12.6284 C   0  0  0  0  0  0  0  0  0  0  0  0
   23.8093  -19.3842  -12.8260 O   0  0  0  0  0  0  0  0  0  0  0  0
   22.8490  -21.4652  -12.8814 N   0  0  0  0  0  0  0  0  0  0  0  0
   21.5502  -20.9355  -13.3348 C   0  0  1  0  0  0  0  0  0  0  0  0
   21.2712  -21.4432  -14.7020 C   0  0  0  0  0  0  0  0  0  0  0  0
   19.9903  -21.0326  -15.3336 C   0  0  0  0  0  0  0  0  0  0  0  0
   19.6655  -21.6435  -16.6522 C   0  0  0  0  0  0  0  0  0  0  0  0
   18.3568  -20.9978  -17.1236 C   0  0  0  0  0  0  0  0  0  0  0  0
   18.0449  -21.4411  -18.4638 N   0  0  0  0  0  0  0  0  0  0  0  0
   20.4867  -21.1218  -12.3421 C   0  0  0  0  0  0  0  0  0  0  0  0
   20.4934  -22.0467  -11.5068 O   0  0  0  0  0  0  0  0  0  0  0  0
   19.4273  -20.2306  -12.3319 O   0  0  0  0  0  0  0  0  0  0  0  0
  2  1  1  1
  3  2  1  0
  4  2  1  0
  4  5  1  6
  6  4  1  0
  7  6  2  0
  9  8  1  1
  9 11  1  0
 10  9  1  0
 11 12  1  6
 12  6  1  0
 13 11  1  0
 13 15  1  0
 14 13  2  0
 16 17  1  6
 16 15  1  0
 16 22  1  0
 18 17  1  0
 19 18  1  0
 20 21  1  0
 20 19  1  0
 22 24  1  0
 23 22  2  0
M  END
$$$$
