TVK.pdb
     RDKit          3D

 24 23  0  0  1  0  0  0  0  0999 V2000
   22.9094  -21.3004  -11.7114 C   0  0  0  0  0  0  0  0  0  0  0  0
   23.2358  -20.6422  -10.4103 C   0  0  1  0  0  0  0  0  0  0  0  0
   22.5474  -21.2048   -9.3346 O   0  0  0  0  0  0  0  0  0  0  0  0
   24.7142  -20.7146  -10.0763 C   0  0  2  0  0  0  0  0  0  0  0  0
   24.9689  -20.1319   -8.7810 N   0  0  0  0  0  0  0  0  0  0  0  0
   25.4398  -20.0033  -11.1607 C   0  0  0  0  0  0  0  0  0  0  0  0
   25.5554  -18.7575  -11.0542 O   0  0  0  0  0  0  0  0  0  0  0  0
   28.8502  -20.6092  -12.4611 C   0  0  0  0  0  0  0  0  0  0  0  0
   27.9206  -20.6695  -13.6132 C   0  0  2  0  0  0  0  0  0  0  0  0
   28.6022  -20.1729  -14.8719 C   0  0  0  0  0  0  0  0  0  0  0  0
   26.6064  -19.9386  -13.4189 C   0  0  2  0  0  0  0  0  0  0  0  0
   25.9923  -20.6366  -12.2762 N   0  0  0  0  0  0  0  0  0  0  0  0
   25.7815  -20.0796  -14.6107 C   0  0  0  0  0  0  0  0  0  0  0  0
   25.4006  -21.2459  -14.9691 O   0  0  0  0  0  0  0  0  0  0  0  0
   25.3697  -18.9943  -15.3995 N   0  0  0  0  0  0  0  0  0  0  0  0
   24.3940  -19.1355  -16.4954 C   0  0  1  0  0  0  0  0  0  0  0  0
   23.0674  -18.6611  -16.0265 C   0  0  0  0  0  0  0  0  0  0  0  0
   21.9062  -19.5634  -16.2397 C   0  0  0  0  0  0  0  0  0  0  0  0
   20.5624  -19.0210  -15.8968 C   0  0  0  0  0  0  0  0  0  0  0  0
   19.5505  -20.1318  -16.2033 C   0  0  0  0  0  0  0  0  0  0  0  0
   18.2217  -19.7034  -15.8281 N   0  0  0  0  0  0  0  0  0  0  0  0
   24.8779  -18.5694  -17.7589 C   0  0  0  0  0  0  0  0  0  0  0  0
   25.5927  -17.5500  -17.8154 O   0  0  0  0  0  0  0  0  0  0  0  0
   24.5253  -19.1949  -18.9426 O   0  0  0  0  0  0  0  0  0  0  0  0
  2  1  1  6
  3  2  1  0
  4  2  1  0
  4  5  1  1
  6  4  1  0
  7  6  2  0
  9  8  1  1
  9 11  1  0
 10  9  1  0
 11 12  1  1
 12  6  1  0
 13 11  1  0
 13 15  1  0
 14 13  2  0
 16 17  1  1
 16 15  1  0
 16 22  1  0
 18 17  1  0
 19 18  1  0
 20 21  1  0
 20 19  1  0
 22 24  1  0
 23 22  2  0
M  END
$$$$
