TVK.pdb
     RDKit          3D

 24 23  0  0  1  0  0  0  0  0999 V2000
   22.5038  -21.5765  -10.5691 C   0  0  0  0  0  0  0  0  0  0  0  0
   23.4282  -20.7437   -9.7418 C   0  0  1  0  0  0  0  0  0  0  0  0
   23.3828  -21.0735   -8.3866 O   0  0  0  0  0  0  0  0  0  0  0  0
   24.8754  -20.8708  -10.1801 C   0  0  2  0  0  0  0  0  0  0  0  0
   25.7334  -20.0879   -9.3239 N   0  0  0  0  0  0  0  0  0  0  0  0
   24.9414  -20.4238  -11.5957 C   0  0  0  0  0  0  0  0  0  0  0  0
   25.1170  -19.1980  -11.8041 O   0  0  0  0  0  0  0  0  0  0  0  0
   27.2605  -21.3988  -14.1348 C   0  0  0  0  0  0  0  0  0  0  0  0
   25.9246  -21.6290  -14.7328 C   0  0  2  0  0  0  0  0  0  0  0  0
   25.9580  -21.3653  -16.2244 C   0  0  0  0  0  0  0  0  0  0  0  0
   24.7918  -20.8458  -14.0985 C   0  0  2  0  0  0  0  0  0  0  0  0
   24.8204  -21.2812  -12.6915 N   0  0  0  0  0  0  0  0  0  0  0  0
   23.5280  -21.2105  -14.7237 C   0  0  0  0  0  0  0  0  0  0  0  0
   22.9278  -22.2716  -14.3400 O   0  0  0  0  0  0  0  0  0  0  0  0
   22.9180  -20.4525  -15.7352 N   0  0  0  0  0  0  0  0  0  0  0  0
   21.4549  -20.3824  -15.9006 C   0  0  1  0  0  0  0  0  0  0  0  0
   20.8405  -19.9819  -14.6096 C   0  0  0  0  0  0  0  0  0  0  0  0
   19.8588  -20.9177  -14.0024 C   0  0  0  0  0  0  0  0  0  0  0  0
   18.4708  -20.4097  -13.8202 C   0  0  0  0  0  0  0  0  0  0  0  0
   17.6764  -21.5371  -13.1495 C   0  0  0  0  0  0  0  0  0  0  0  0
   16.3374  -21.0829  -12.8483 N   0  0  0  0  0  0  0  0  0  0  0  0
   21.0564  -19.6058  -17.0793 C   0  0  0  0  0  0  0  0  0  0  0  0
   21.7561  -18.6921  -17.5575 O   0  0  0  0  0  0  0  0  0  0  0  0
   19.8487  -19.9004  -17.6887 O   0  0  0  0  0  0  0  0  0  0  0  0
  2  1  1  6
  3  2  1  0
  4  2  1  0
  4  5  1  1
  6  4  1  0
  7  6  2  0
  9  8  1  1
  9 11  1  0
 10  9  1  0
 11 12  1  1
 12  6  1  0
 13 11  1  0
 13 15  1  0
 14 13  2  0
 16 17  1  1
 16 15  1  0
 16 22  1  0
 18 17  1  0
 19 18  1  0
 20 21  1  0
 20 19  1  0
 22 24  1  0
 23 22  2  0
M  END
$$$$
