TVK.pdb
     RDKit          3D

 24 23  0  0  1  0  0  0  0  0999 V2000
   20.2547  -10.6342  -18.6370 C   0  0  0  0  0  0  0  0  0  0  0  0
   19.9101  -11.9098  -17.9391 C   0  0  1  0  0  0  0  0  0  0  0  0
   19.2444  -12.8140  -18.7677 O   0  0  0  0  0  0  0  0  0  0  0  0
   21.1334  -12.6248  -17.3961 C   0  0  2  0  0  0  0  0  0  0  0  0
   20.7622  -13.8942  -16.8190 N   0  0  0  0  0  0  0  0  0  0  0  0
   21.7583  -11.7191  -16.3974 C   0  0  0  0  0  0  0  0  0  0  0  0
   21.1974  -11.6226  -15.2782 O   0  0  0  0  0  0  0  0  0  0  0  0
   25.4822  -11.6715  -15.5012 C   0  0  0  0  0  0  0  0  0  0  0  0
   25.0244  -10.3051  -15.8450 C   0  0  2  0  0  0  0  0  0  0  0  0
   25.8136   -9.2700  -15.0694 C   0  0  0  0  0  0  0  0  0  0  0  0
   23.5392  -10.0591  -15.6642 C   0  0  2  0  0  0  0  0  0  0  0  0
   22.9195  -10.9797  -16.6331 N   0  0  0  0  0  0  0  0  0  0  0  0
   23.2233   -8.6764  -15.9947 C   0  0  0  0  0  0  0  0  0  0  0  0
   23.5804   -8.2112  -17.1303 O   0  0  0  0  0  0  0  0  0  0  0  0
   22.5359   -7.8117  -15.1289 N   0  0  0  0  0  0  0  0  0  0  0  0
   22.2932   -6.3941  -15.4522 C   0  0  1  0  0  0  0  0  0  0  0  0
   20.8614   -6.2160  -15.8031 C   0  0  0  0  0  0  0  0  0  0  0  0
   20.3805   -6.8600  -17.0530 C   0  0  0  0  0  0  0  0  0  0  0  0
   18.9458   -6.6639  -17.4004 C   0  0  0  0  0  0  0  0  0  0  0  0
   18.6622   -7.5603  -18.6120 C   0  0  0  0  0  0  0  0  0  0  0  0
   17.3108   -7.3439  -19.0778 N   0  0  0  0  0  0  0  0  0  0  0  0
   22.8322   -5.4831  -14.4370 C   0  0  0  0  0  0  0  0  0  0  0  0
   23.1719   -5.8607  -13.2989 O   0  0  0  0  0  0  0  0  0  0  0  0
   22.9703   -4.1431  -14.7565 O   0  0  0  0  0  0  0  0  0  0  0  0
  2  1  1  6
  3  2  1  0
  4  2  1  0
  4  5  1  1
  6  4  1  0
  7  6  2  0
  9  8  1  1
  9 11  1  0
 10  9  1  0
 11 12  1  6
 12  6  1  0
 13 11  1  0
 13 15  1  0
 14 13  2  0
 16 17  1  1
 16 15  1  0
 16 22  1  0
 18 17  1  0
 19 18  1  0
 20 21  1  0
 20 19  1  0
 22 24  1  0
 23 22  2  0
M  END
$$$$
