TVK.pdb
     RDKit          3D

 24 23  0  0  1  0  0  0  0  0999 V2000
   12.8974  -19.4588    1.1962 C   0  0  0  0  0  0  0  0  0  0  0  0
   12.1779  -20.6047    0.5623 C   0  0  1  0  0  0  0  0  0  0  0  0
   11.6539  -20.2846   -0.6908 O   0  0  0  0  0  0  0  0  0  0  0  0
   13.0691  -21.8181    0.3726 C   0  0  2  0  0  0  0  0  0  0  0  0
   12.3554  -22.8669   -0.3150 N   0  0  0  0  0  0  0  0  0  0  0  0
   13.5189  -22.2422    1.7239 C   0  0  0  0  0  0  0  0  0  0  0  0
   12.7098  -22.9067    2.4171 O   0  0  0  0  0  0  0  0  0  0  0  0
   17.5015  -22.6776    2.4467 C   0  0  0  0  0  0  0  0  0  0  0  0
   16.4170  -23.3080    3.2350 C   0  0  2  0  0  0  0  0  0  0  0  0
   15.9055  -24.5507    2.5353 C   0  0  0  0  0  0  0  0  0  0  0  0
   15.2547  -22.3957    3.5755 C   0  0  2  0  0  0  0  0  0  0  0  0
   14.7753  -21.9458    2.2572 N   0  0  0  0  0  0  0  0  0  0  0  0
   15.7273  -21.2659    4.3634 C   0  0  0  0  0  0  0  0  0  0  0  0
   16.4353  -20.3653    3.7967 O   0  0  0  0  0  0  0  0  0  0  0  0
   15.4442  -21.1019    5.7282 N   0  0  0  0  0  0  0  0  0  0  0  0
   15.9977  -19.9922    6.5251 C   0  0  1  0  0  0  0  0  0  0  0  0
   14.9484  -19.4875    7.4464 C   0  0  0  0  0  0  0  0  0  0  0  0
   13.6791  -19.0106    6.8384 C   0  0  0  0  0  0  0  0  0  0  0  0
   12.5942  -18.6095    7.7763 C   0  0  0  0  0  0  0  0  0  0  0  0
   11.4010  -18.1868    6.9106 C   0  0  0  0  0  0  0  0  0  0  0  0
   10.2500  -17.9367    7.7488 N   0  0  0  0  0  0  0  0  0  0  0  0
   17.2915  -20.3229    7.1317 C   0  0  0  0  0  0  0  0  0  0  0  0
   17.7077  -21.4921    7.2459 O   0  0  0  0  0  0  0  0  0  0  0  0
   18.0869  -19.2904    7.5986 O   0  0  0  0  0  0  0  0  0  0  0  0
  2  1  1  6
  3  2  1  0
  4  2  1  0
  4  5  1  1
  6  4  1  0
  7  6  2  0
  9  8  1  6
  9 11  1  0
 10  9  1  0
 11 12  1  6
 12  6  1  0
 13 11  1  0
 13 15  1  0
 14 13  2  0
 16 17  1  1
 16 15  1  0
 16 22  1  0
 18 17  1  0
 19 18  1  0
 20 21  1  0
 20 19  1  0
 22 24  1  0
 23 22  2  0
M  END
$$$$
