TVK.pdb
     RDKit          3D

 24 23  0  0  1  0  0  0  0  0999 V2000
   17.9760  -12.0181  -17.5059 C   0  0  0  0  0  0  0  0  0  0  0  0
   18.5132  -10.6389  -17.3008 C   0  0  1  0  0  0  0  0  0  0  0  0
   19.9003  -10.6184  -17.1495 O   0  0  0  0  0  0  0  0  0  0  0  0
   18.1795   -9.7074  -18.4513 C   0  0  2  0  0  0  0  0  0  0  0  0
   18.7400  -10.2059  -19.6840 N   0  0  0  0  0  0  0  0  0  0  0  0
   18.7161   -8.3681  -18.0954 C   0  0  0  0  0  0  0  0  0  0  0  0
   19.7841   -8.0105  -18.6506 O   0  0  0  0  0  0  0  0  0  0  0  0
   16.4423   -5.2525  -17.8159 C   0  0  0  0  0  0  0  0  0  0  0  0
   17.3327   -5.3524  -16.6360 C   0  0  2  0  0  0  0  0  0  0  0  0
   17.6792   -3.9730  -16.1140 C   0  0  0  0  0  0  0  0  0  0  0  0
   18.6022   -6.1525  -16.8534 C   0  0  2  0  0  0  0  0  0  0  0  0
   18.1054   -7.4980  -17.1896 N   0  0  0  0  0  0  0  0  0  0  0  0
   19.3826   -6.1852  -15.6242 C   0  0  0  0  0  0  0  0  0  0  0  0
   19.2061   -7.1468  -14.8010 O   0  0  0  0  0  0  0  0  0  0  0  0
   20.3346   -5.2110  -15.2860 N   0  0  0  0  0  0  0  0  0  0  0  0
   21.5564   -5.5272  -14.5243 C   0  0  1  0  0  0  0  0  0  0  0  0
   22.2440   -6.6755  -15.1673 C   0  0  0  0  0  0  0  0  0  0  0  0
   22.3409   -7.9362  -14.3867 C   0  0  0  0  0  0  0  0  0  0  0  0
   22.9701   -9.1013  -15.0680 C   0  0  0  0  0  0  0  0  0  0  0  0
   22.9346  -10.2644  -14.0691 C   0  0  0  0  0  0  0  0  0  0  0  0
   23.5412  -11.4369  -14.6582 N   0  0  0  0  0  0  0  0  0  0  0  0
   22.3789   -4.3422  -14.2589 C   0  0  0  0  0  0  0  0  0  0  0  0
   22.5218   -3.4178  -15.0825 O   0  0  0  0  0  0  0  0  0  0  0  0
   23.0260   -4.2453  -13.0388 O   0  0  0  0  0  0  0  0  0  0  0  0
  2  1  1  6
  3  2  1  0
  4  2  1  0
  4  5  1  6
  6  4  1  0
  7  6  2  0
  9  8  1  6
  9 11  1  0
 10  9  1  0
 11 12  1  1
 12  6  1  0
 13 11  1  0
 13 15  1  0
 14 13  2  0
 16 17  1  6
 16 15  1  0
 16 22  1  0
 18 17  1  0
 19 18  1  0
 20 21  1  0
 20 19  1  0
 22 24  1  0
 23 22  2  0
M  END
$$$$
