TVK.pdb
     RDKit          3D

 24 23  0  0  1  0  0  0  0  0999 V2000
   16.9407  -12.7210  -16.5365 C   0  0  0  0  0  0  0  0  0  0  0  0
   17.5606  -14.0798  -16.5817 C   0  0  1  0  0  0  0  0  0  0  0  0
   16.6677  -15.0651  -17.0049 O   0  0  0  0  0  0  0  0  0  0  0  0
   18.7601  -14.1416  -17.5090 C   0  0  2  0  0  0  0  0  0  0  0  0
   19.3352  -15.4650  -17.5040 N   0  0  0  0  0  0  0  0  0  0  0  0
   19.7244  -13.1122  -17.0410 C   0  0  0  0  0  0  0  0  0  0  0  0
   20.4568  -13.4114  -16.0660 O   0  0  0  0  0  0  0  0  0  0  0  0
   22.0771  -11.0833  -19.3308 C   0  0  0  0  0  0  0  0  0  0  0  0
   21.2884  -10.1858  -18.4548 C   0  0  2  0  0  0  0  0  0  0  0  0
   22.0673   -8.9224  -18.1502 C   0  0  0  0  0  0  0  0  0  0  0  0
   20.8013  -10.8122  -17.1628 C   0  0  2  0  0  0  0  0  0  0  0  0
   19.8581  -11.8478  -17.6190 N   0  0  0  0  0  0  0  0  0  0  0  0
   20.1156   -9.8121  -16.3563 C   0  0  0  0  0  0  0  0  0  0  0  0
   18.8659   -9.6159  -16.5389 O   0  0  0  0  0  0  0  0  0  0  0  0
   20.7540   -9.0413  -15.3723 N   0  0  0  0  0  0  0  0  0  0  0  0
   20.0095   -8.2063  -14.4124 C   0  0  1  0  0  0  0  0  0  0  0  0
   18.9910   -9.0441  -13.7302 C   0  0  0  0  0  0  0  0  0  0  0  0
   18.1750   -8.3973  -12.6701 C   0  0  0  0  0  0  0  0  0  0  0  0
   17.1917   -9.2604  -11.9589 C   0  0  0  0  0  0  0  0  0  0  0  0
   16.4368   -8.3509  -10.9817 C   0  0  0  0  0  0  0  0  0  0  0  0
   15.4934   -9.1313  -10.2130 N   0  0  0  0  0  0  0  0  0  0  0  0
   20.8924   -7.4201  -13.5443 C   0  0  0  0  0  0  0  0  0  0  0  0
   22.1110   -7.6533  -13.4270 O   0  0  0  0  0  0  0  0  0  0  0  0
   20.3484   -6.3715  -12.8223 O   0  0  0  0  0  0  0  0  0  0  0  0
  2  1  1  6
  3  2  1  0
  4  2  1  0
  4  5  1  1
  6  4  1  0
  7  6  2  0
  9  8  1  1
  9 11  1  0
 10  9  1  0
 11 12  1  6
 12  6  1  0
 13 11  1  0
 13 15  1  0
 14 13  2  0
 16 17  1  1
 16 15  1  0
 16 22  1  0
 18 17  1  0
 19 18  1  0
 20 21  1  0
 20 19  1  0
 22 24  1  0
 23 22  2  0
M  END
$$$$
