TVK.pdb
     RDKit          3D

 24 23  0  0  1  0  0  0  0  0999 V2000
   23.3610  -21.5143   -8.2211 C   0  0  0  0  0  0  0  0  0  0  0  0
   23.8625  -20.8449   -9.4592 C   0  0  1  0  0  0  0  0  0  0  0  0
   23.3196  -19.5722   -9.6408 O   0  0  0  0  0  0  0  0  0  0  0  0
   25.3718  -20.6872   -9.4648 C   0  0  2  0  0  0  0  0  0  0  0  0
   25.8006  -19.8878   -8.3427 N   0  0  0  0  0  0  0  0  0  0  0  0
   25.7389  -20.0673  -10.7646 C   0  0  0  0  0  0  0  0  0  0  0  0
   25.9938  -18.8378  -10.7636 O   0  0  0  0  0  0  0  0  0  0  0  0
   28.4058  -21.3548  -13.1040 C   0  0  0  0  0  0  0  0  0  0  0  0
   27.1446  -21.1750  -13.8603 C   0  0  2  0  0  0  0  0  0  0  0  0
   27.4371  -20.8149  -15.3026 C   0  0  0  0  0  0  0  0  0  0  0  0
   26.1758  -20.1707  -13.2671 C   0  0  2  0  0  0  0  0  0  0  0  0
   25.8147  -20.7685  -11.9700 N   0  0  0  0  0  0  0  0  0  0  0  0
   25.0029  -20.0509  -14.1220 C   0  0  0  0  0  0  0  0  0  0  0  0
   24.1591  -21.0102  -14.1582 O   0  0  0  0  0  0  0  0  0  0  0  0
   24.7372  -18.9259  -14.9179 N   0  0  0  0  0  0  0  0  0  0  0  0
   23.4988  -18.7860  -15.7051 C   0  0  1  0  0  0  0  0  0  0  0  0
   23.1764  -17.3437  -15.8480 C   0  0  0  0  0  0  0  0  0  0  0  0
   21.9161  -16.9933  -16.5531 C   0  0  0  0  0  0  0  0  0  0  0  0
   21.9648  -15.8247  -17.4748 C   0  0  0  0  0  0  0  0  0  0  0  0
   20.5243  -15.5693  -17.9347 C   0  0  0  0  0  0  0  0  0  0  0  0
   20.4623  -14.3438  -18.6989 N   0  0  0  0  0  0  0  0  0  0  0  0
   23.5245  -19.5725  -16.9428 C   0  0  0  0  0  0  0  0  0  0  0  0
   22.5349  -20.1988  -17.3689 O   0  0  0  0  0  0  0  0  0  0  0  0
   24.7009  -19.6219  -17.6713 O   0  0  0  0  0  0  0  0  0  0  0  0
  2  1  1  1
  3  2  1  0
  4  2  1  0
  4  5  1  1
  6  4  1  0
  7  6  2  0
  9  8  1  1
  9 11  1  0
 10  9  1  0
 11 12  1  1
 12  6  1  0
 13 11  1  0
 13 15  1  0
 14 13  2  0
 16 17  1  6
 16 15  1  0
 16 22  1  0
 18 17  1  0
 19 18  1  0
 20 21  1  0
 20 19  1  0
 22 24  1  0
 23 22  2  0
M  END
$$$$
