TVK.pdb
     RDKit          3D

 24 23  0  0  1  0  0  0  0  0999 V2000
   19.5400  -13.2128  -16.6352 C   0  0  0  0  0  0  0  0  0  0  0  0
   20.6144  -14.0859  -17.1974 C   0  0  1  0  0  0  0  0  0  0  0  0
   20.1740  -15.3854  -17.4518 O   0  0  0  0  0  0  0  0  0  0  0  0
   21.1803  -13.5476  -18.4983 C   0  0  2  0  0  0  0  0  0  0  0  0
   22.1672  -14.4541  -19.0336 N   0  0  0  0  0  0  0  0  0  0  0  0
   21.7544  -12.2094  -18.2015 C   0  0  0  0  0  0  0  0  0  0  0  0
   22.8730  -12.1770  -17.6320 O   0  0  0  0  0  0  0  0  0  0  0  0
   22.4741   -9.3002  -20.4518 C   0  0  0  0  0  0  0  0  0  0  0  0
   21.5442   -8.8628  -19.3845 C   0  0  2  0  0  0  0  0  0  0  0  0
   21.7476   -7.3943  -19.0722 C   0  0  0  0  0  0  0  0  0  0  0  0
   21.6066   -9.6730  -18.1044 C   0  0  2  0  0  0  0  0  0  0  0  0
   21.1258  -11.0028  -18.5174 N   0  0  0  0  0  0  0  0  0  0  0  0
   20.7177   -9.0919  -17.1078 C   0  0  0  0  0  0  0  0  0  0  0  0
   19.4686   -9.3577  -17.1582 O   0  0  0  0  0  0  0  0  0  0  0  0
   21.1580   -8.2476  -16.0768 N   0  0  0  0  0  0  0  0  0  0  0  0
   20.2516   -7.7244  -15.0388 C   0  0  1  0  0  0  0  0  0  0  0  0
   19.5128   -8.8572  -14.4257 C   0  0  0  0  0  0  0  0  0  0  0  0
   18.5554   -8.5364  -13.3354 C   0  0  0  0  0  0  0  0  0  0  0  0
   17.8915   -9.6882  -12.6643 C   0  0  0  0  0  0  0  0  0  0  0  0
   16.9664   -9.0971  -11.5934 C   0  0  0  0  0  0  0  0  0  0  0  0
   16.2433  -10.1579  -10.9289 N   0  0  0  0  0  0  0  0  0  0  0  0
   20.9238   -6.8083  -14.1115 C   0  0  0  0  0  0  0  0  0  0  0  0
   22.1625   -6.7630  -13.9819 O   0  0  0  0  0  0  0  0  0  0  0  0
   20.1482   -5.9551  -13.3451 O   0  0  0  0  0  0  0  0  0  0  0  0
  2  1  1  6
  3  2  1  0
  4  2  1  0
  4  5  1  1
  6  4  1  0
  7  6  2  0
  9  8  1  6
  9 11  1  0
 10  9  1  0
 11 12  1  6
 12  6  1  0
 13 11  1  0
 13 15  1  0
 14 13  2  0
 16 17  1  1
 16 15  1  0
 16 22  1  0
 18 17  1  0
 19 18  1  0
 20 21  1  0
 20 19  1  0
 22 24  1  0
 23 22  2  0
M  END
$$$$
