TVK.pdb
     RDKit          3D

 24 23  0  0  1  0  0  0  0  0999 V2000
   21.2180   -6.0259  -12.7954 C   0  0  0  0  0  0  0  0  0  0  0  0
   21.4578   -6.7105  -14.1018 C   0  0  1  0  0  0  0  0  0  0  0  0
   20.6341   -6.2301  -15.1206 O   0  0  0  0  0  0  0  0  0  0  0  0
   22.8893   -6.5615  -14.5826 C   0  0  2  0  0  0  0  0  0  0  0  0
   23.1538   -5.1961  -14.9672 N   0  0  0  0  0  0  0  0  0  0  0  0
   23.0671   -7.5052  -15.7166 C   0  0  0  0  0  0  0  0  0  0  0  0
   23.1540   -7.0112  -16.8677 O   0  0  0  0  0  0  0  0  0  0  0  0
   25.6099  -10.4810  -15.8182 C   0  0  0  0  0  0  0  0  0  0  0  0
   24.2193  -10.9110  -16.0943 C   0  0  2  0  0  0  0  0  0  0  0  0
   24.2095  -12.1380  -16.9830 C   0  0  0  0  0  0  0  0  0  0  0  0
   23.3202   -9.8425  -16.6849 C   0  0  2  0  0  0  0  0  0  0  0  0
   23.1418   -8.8925  -15.5733 N   0  0  0  0  0  0  0  0  0  0  0  0
   22.0437  -10.4281  -17.0703 C   0  0  0  0  0  0  0  0  0  0  0  0
   21.3194  -10.9842  -16.1760 O   0  0  0  0  0  0  0  0  0  0  0  0
   21.5515  -10.4146  -18.3846 N   0  0  0  0  0  0  0  0  0  0  0  0
   20.2561  -11.0141  -18.7523 C   0  0  1  0  0  0  0  0  0  0  0  0
   19.7618  -10.3726  -19.9969 C   0  0  0  0  0  0  0  0  0  0  0  0
   18.4752  -10.8655  -20.5534 C   0  0  0  0  0  0  0  0  0  0  0  0
   17.9716  -10.1895  -21.7811 C   0  0  0  0  0  0  0  0  0  0  0  0
   16.6235  -10.8389  -22.1168 C   0  0  0  0  0  0  0  0  0  0  0  0
   15.5951  -10.3145  -21.2466 N   0  0  0  0  0  0  0  0  0  0  0  0
   20.2902  -12.4803  -18.7456 C   0  0  0  0  0  0  0  0  0  0  0  0
   21.2288  -13.1390  -19.2338 O   0  0  0  0  0  0  0  0  0  0  0  0
   19.2324  -13.1644  -18.1711 O   0  0  0  0  0  0  0  0  0  0  0  0
  2  1  1  1
  3  2  1  0
  4  2  1  0
  4  5  1  6
  6  4  1  0
  7  6  2  0
  9  8  1  6
  9 11  1  0
 10  9  1  0
 11 12  1  1
 12  6  1  0
 13 11  1  0
 13 15  1  0
 14 13  2  0
 16 17  1  6
 16 15  1  0
 16 22  1  0
 18 17  1  0
 19 18  1  0
 20 21  1  0
 20 19  1  0
 22 24  1  0
 23 22  2  0
M  END
$$$$
