TVK.pdb
     RDKit          3D

 24 23  0  0  1  0  0  0  0  0999 V2000
   22.8367  -14.4812  -17.8634 C   0  0  0  0  0  0  0  0  0  0  0  0
   23.4423  -15.5824  -17.0551 C   0  0  1  0  0  0  0  0  0  0  0  0
   23.4829  -16.7958  -17.7432 O   0  0  0  0  0  0  0  0  0  0  0  0
   24.8628  -15.2720  -16.6210 C   0  0  2  0  0  0  0  0  0  0  0  0
   25.4201  -16.3809  -15.8847 N   0  0  0  0  0  0  0  0  0  0  0  0
   24.8063  -14.0318  -15.8043 C   0  0  0  0  0  0  0  0  0  0  0  0
   24.4866  -14.1530  -14.5961 O   0  0  0  0  0  0  0  0  0  0  0  0
   27.6537  -11.7091  -15.6431 C   0  0  0  0  0  0  0  0  0  0  0  0
   26.4460  -10.8884  -15.8942 C   0  0  2  0  0  0  0  0  0  0  0  0
   26.5797   -9.5313  -15.2340 C   0  0  0  0  0  0  0  0  0  0  0  0
   25.1348  -11.5308  -15.4856 C   0  0  2  0  0  0  0  0  0  0  0  0
   25.0855  -12.7567  -16.3010 N   0  0  0  0  0  0  0  0  0  0  0  0
   24.0263  -10.6470  -15.8189 C   0  0  0  0  0  0  0  0  0  0  0  0
   23.8142  -10.3503  -17.0438 O   0  0  0  0  0  0  0  0  0  0  0  0
   23.1609  -10.0962  -14.8610 N   0  0  0  0  0  0  0  0  0  0  0  0
   22.0469   -9.2004  -15.2208 C   0  0  1  0  0  0  0  0  0  0  0  0
   20.7620   -9.8809  -14.9197 C   0  0  0  0  0  0  0  0  0  0  0  0
   19.9408  -10.3289  -16.0742 C   0  0  0  0  0  0  0  0  0  0  0  0
   18.8024   -9.4534  -16.4685 C   0  0  0  0  0  0  0  0  0  0  0  0
   18.0400  -10.1970  -17.5720 C   0  0  0  0  0  0  0  0  0  0  0  0
   16.8656   -9.4439  -17.9511 N   0  0  0  0  0  0  0  0  0  0  0  0
   22.2105   -7.8487  -14.6756 C   0  0  0  0  0  0  0  0  0  0  0  0
   22.8119   -7.6160  -13.6091 O   0  0  0  0  0  0  0  0  0  0  0  0
   21.6729   -6.7827  -15.3766 O   0  0  0  0  0  0  0  0  0  0  0  0
  2  1  1  6
  3  2  1  0
  4  2  1  0
  4  5  1  1
  6  4  1  0
  7  6  2  0
  9  8  1  1
  9 11  1  0
 10  9  1  0
 11 12  1  6
 12  6  1  0
 13 11  1  0
 13 15  1  0
 14 13  2  0
 16 17  1  1
 16 15  1  0
 16 22  1  0
 18 17  1  0
 19 18  1  0
 20 21  1  0
 20 19  1  0
 22 24  1  0
 23 22  2  0
M  END
$$$$
