CAH.pdb
     RDKit          3D

 22 22  0  0  1  0  0  0  0  0999 V2000
   16.7746  -14.7002  -16.5795 N   0  0  0  0  0  0  0  0  0  0  0  0
   16.4362  -13.9251  -15.4011 C   0  0  1  0  0  0  0  0  0  0  0  0
   17.5015  -14.1484  -14.3653 C   0  0  0  0  0  0  0  0  0  0  0  0
   17.4939  -15.8329  -13.7303 S   0  0  0  0  0  0  0  0  0  0  0  0
   16.3830  -12.4967  -15.7585 C   0  0  0  0  0  0  0  0  0  0  0  0
   17.2244  -12.0444  -16.6054 O   0  0  0  0  0  0  0  0  0  0  0  0
   14.0770   -9.6397  -15.1618 C   0  0  0  0  0  0  0  0  0  0  0  0
   15.3939  -10.2530  -15.5937 C   0  0  2  0  0  0  0  0  0  0  0  0
   15.4262  -11.6161  -15.1888 N   0  0  0  0  0  0  0  0  0  0  0  0
   16.5350   -9.4527  -15.0887 C   0  0  0  0  0  0  0  0  0  0  0  0
   17.3767  -10.0701  -14.3801 O   0  0  0  0  0  0  0  0  0  0  0  0
   16.6897   -8.0734  -15.3740 N   0  0  0  0  0  0  0  0  0  0  0  0
   17.8665   -7.4021  -14.8612 C   0  0  1  0  0  0  0  0  0  0  0  0
   19.1346   -8.0305  -15.3892 C   0  0  0  0  0  0  0  0  0  0  0  0
   20.2869   -7.2035  -14.9766 C   0  0  0  0  0  0  0  0  0  0  0  0
   21.2912   -7.5408  -14.0738 C   0  0  0  0  0  0  0  0  0  0  0  0
   22.1600   -6.5251  -13.9639 N   0  0  0  0  0  0  0  0  0  0  0  0
   21.7413   -5.5467  -14.7703 C   0  0  0  0  0  0  0  0  0  0  0  0
   20.5981   -5.9643  -15.3866 N   0  0  0  0  0  0  0  0  0  0  0  0
   17.7702   -5.9817  -15.2853 C   0  0  0  0  0  0  0  0  0  0  0  0
   18.1714   -5.0032  -14.6208 O   0  0  0  0  0  0  0  0  0  0  0  0
   17.1899   -5.6491  -16.5259 O   0  0  0  0  0  0  0  0  0  0  0  0
  2  1  1  6
  3  2  1  0
  4  3  1  0
  5  9  1  0
  5  2  1  0
  6  5  2  0
  8  7  1  1
  8  9  1  0
  8 10  1  0
 10 12  1  0
 11 10  2  0
 12 13  1  0
 13 20  1  0
 13 14  1  6
 15 14  1  0
 16 15  2  0
 17 16  1  0
 18 17  1  0
 18 19  2  0
 19 15  1  0
 20 22  1  0
 21 20  2  0
M  END
$$$$
