CAH.pdb
     RDKit          3D

 22 22  0  0  1  0  0  0  0  0999 V2000
   17.0093  -11.5200  -14.0227 N   0  0  0  0  0  0  0  0  0  0  0  0
   15.8829  -11.0776  -13.2232 C   0  0  1  0  0  0  0  0  0  0  0  0
   15.0622  -12.2809  -12.8542 C   0  0  0  0  0  0  0  0  0  0  0  0
   14.0549  -12.8670  -14.2264 S   0  0  0  0  0  0  0  0  0  0  0  0
   16.3823  -10.4237  -12.0009 C   0  0  0  0  0  0  0  0  0  0  0  0
   17.2140  -11.0529  -11.2645 O   0  0  0  0  0  0  0  0  0  0  0  0
   18.0391   -8.5804  -10.5585 C   0  0  0  0  0  0  0  0  0  0  0  0
   16.5278   -8.5064  -10.4705 C   0  0  2  0  0  0  0  0  0  0  0  0
   15.9651   -9.1203  -11.6235 N   0  0  0  0  0  0  0  0  0  0  0  0
   16.0833   -7.1077  -10.2615 C   0  0  0  0  0  0  0  0  0  0  0  0
   16.0376   -6.3791  -11.2905 O   0  0  0  0  0  0  0  0  0  0  0  0
   15.7259   -6.5991   -8.9881 N   0  0  0  0  0  0  0  0  0  0  0  0
   15.1890   -5.2553   -8.9202 C   0  0  1  0  0  0  0  0  0  0  0  0
   14.3125   -5.0720   -7.7037 C   0  0  0  0  0  0  0  0  0  0  0  0
   13.0695   -5.8485   -7.8875 C   0  0  0  0  0  0  0  0  0  0  0  0
   12.1039   -5.6797   -8.8758 C   0  0  0  0  0  0  0  0  0  0  0  0
   11.1229   -6.5786   -8.7076 N   0  0  0  0  0  0  0  0  0  0  0  0
   11.4322   -7.3185   -7.6400 C   0  0  0  0  0  0  0  0  0  0  0  0
   12.6206   -6.8701   -7.1423 N   0  0  0  0  0  0  0  0  0  0  0  0
   16.3504   -4.3304   -8.8729 C   0  0  0  0  0  0  0  0  0  0  0  0
   17.5446   -4.6795   -8.7631 O   0  0  0  0  0  0  0  0  0  0  0  0
   16.1523   -2.9373   -8.9540 O   0  0  0  0  0  0  0  0  0  0  0  0
  2  1  1  6
  3  2  1  0
  4  3  1  0
  5  9  1  0
  5  2  1  0
  6  5  2  0
  8  7  1  6
  8  9  1  0
  8 10  1  0
 10 12  1  0
 11 10  2  0
 12 13  1  0
 13 20  1  0
 13 14  1  1
 15 14  1  0
 16 15  2  0
 17 16  1  0
 18 17  1  0
 18 19  2  0
 19 15  1  0
 20 22  1  0
 21 20  2  0
M  END
$$$$
