CAH.pdb
     RDKit          3D

 22 22  0  0  1  0  0  0  0  0999 V2000
   36.8974  -31.6500  -17.2772 N   0  0  0  0  0  0  0  0  0  0  0  0
   35.7922  -31.4562  -16.3580 C   0  0  1  0  0  0  0  0  0  0  0  0
   35.8800  -30.0645  -15.7984 C   0  0  0  0  0  0  0  0  0  0  0  0
   37.2843  -29.8617  -14.6903 S   0  0  0  0  0  0  0  0  0  0  0  0
   34.5214  -31.6192  -17.0857 C   0  0  0  0  0  0  0  0  0  0  0  0
   34.4826  -31.3225  -18.3267 O   0  0  0  0  0  0  0  0  0  0  0  0
   31.2442  -33.2382  -16.4383 C   0  0  0  0  0  0  0  0  0  0  0  0
   32.1694  -32.3202  -17.2119 C   0  0  2  0  0  0  0  0  0  0  0  0
   33.3466  -32.0949  -16.4461 N   0  0  0  0  0  0  0  0  0  0  0  0
   31.4650  -31.0763  -17.6043 C   0  0  0  0  0  0  0  0  0  0  0  0
   31.5268  -30.1198  -16.7839 O   0  0  0  0  0  0  0  0  0  0  0  0
   30.7576  -30.9486  -18.8255 N   0  0  0  0  0  0  0  0  0  0  0  0
   30.0425  -29.7126  -19.0696 C   0  0  1  0  0  0  0  0  0  0  0  0
   29.3379  -29.2275  -17.8245 C   0  0  0  0  0  0  0  0  0  0  0  0
   28.2904  -30.2018  -17.4565 C   0  0  0  0  0  0  0  0  0  0  0  0
   27.9511  -31.3738  -18.1263 C   0  0  0  0  0  0  0  0  0  0  0  0
   26.9487  -31.9889  -17.4818 N   0  0  0  0  0  0  0  0  0  0  0  0
   26.6360  -31.2447  -16.4183 C   0  0  0  0  0  0  0  0  0  0  0  0
   27.4568  -30.1551  -16.4061 N   0  0  0  0  0  0  0  0  0  0  0  0
   31.0472  -28.7174  -19.5241 C   0  0  0  0  0  0  0  0  0  0  0  0
   32.2529  -28.9598  -19.7419 O   0  0  0  0  0  0  0  0  0  0  0  0
   30.6700  -27.3774  -19.7441 O   0  0  0  0  0  0  0  0  0  0  0  0
  2  1  1  6
  3  2  1  0
  4  3  1  0
  5  9  1  0
  5  2  1  0
  6  5  2  0
  8  7  1  1
  8  9  1  0
  8 10  1  0
 10 12  1  0
 11 10  2  0
 12 13  1  0
 13 20  1  0
 13 14  1  1
 15 14  1  0
 16 15  2  0
 17 16  1  0
 18 17  1  0
 18 19  2  0
 19 15  1  0
 20 22  1  0
 21 20  2  0
M  END
$$$$
