CAH.pdb
     RDKit          3D

 22 22  0  0  1  0  0  0  0  0999 V2000
   19.2913  -21.7681  -14.0481 N   0  0  0  0  0  0  0  0  0  0  0  0
   20.6619  -21.6547  -14.5089 C   0  0  1  0  0  0  0  0  0  0  0  0
   21.5748  -22.0435  -13.3805 C   0  0  0  0  0  0  0  0  0  0  0  0
   22.4880  -20.6369  -12.7258 S   0  0  0  0  0  0  0  0  0  0  0  0
   20.8674  -22.5646  -15.6495 C   0  0  0  0  0  0  0  0  0  0  0  0
   20.3757  -23.7413  -15.5919 O   0  0  0  0  0  0  0  0  0  0  0  0
   21.8417  -22.3833  -19.1740 C   0  0  0  0  0  0  0  0  0  0  0  0
   21.8309  -23.1093  -17.8436 C   0  0  2  0  0  0  0  0  0  0  0  0
   21.5935  -22.1688  -16.8034 N   0  0  0  0  0  0  0  0  0  0  0  0
   23.0753  -23.8951  -17.6657 C   0  0  0  0  0  0  0  0  0  0  0  0
   23.8461  -23.5144  -16.7423 O   0  0  0  0  0  0  0  0  0  0  0  0
   23.3987  -25.0123  -18.4751 N   0  0  0  0  0  0  0  0  0  0  0  0
   24.6435  -25.7045  -18.2104 C   0  0  1  0  0  0  0  0  0  0  0  0
   24.6922  -26.2310  -16.7954 C   0  0  0  0  0  0  0  0  0  0  0  0
   25.9121  -27.0475  -16.6299 C   0  0  0  0  0  0  0  0  0  0  0  0
   27.2052  -26.5969  -16.3802 C   0  0  0  0  0  0  0  0  0  0  0  0
   28.0398  -27.6431  -16.2945 N   0  0  0  0  0  0  0  0  0  0  0  0
   27.3186  -28.7511  -16.4820 C   0  0  0  0  0  0  0  0  0  0  0  0
   26.0208  -28.3837  -16.6863 N   0  0  0  0  0  0  0  0  0  0  0  0
   24.7310  -26.8201  -19.1874 C   0  0  0  0  0  0  0  0  0  0  0  0
   25.6130  -27.7044  -19.1931 O   0  0  0  0  0  0  0  0  0  0  0  0
   23.7712  -26.9433  -20.2121 O   0  0  0  0  0  0  0  0  0  0  0  0
  2  1  1  1
  3  2  1  0
  4  3  1  0
  5  9  1  0
  5  2  1  0
  6  5  2  0
  8  7  1  6
  8  9  1  0
  8 10  1  0
 10 12  1  0
 11 10  2  0
 12 13  1  0
 13 20  1  0
 13 14  1  1
 15 14  1  0
 16 15  2  0
 17 16  1  0
 18 17  1  0
 18 19  2  0
 19 15  1  0
 20 22  1  0
 21 20  2  0
M  END
$$$$
