CAH.pdb
     RDKit          3D

 22 22  0  0  1  0  0  0  0  0999 V2000
   16.6205  -13.1135  -16.9308 N   0  0  0  0  0  0  0  0  0  0  0  0
   16.2329  -11.8644  -16.3036 C   0  0  1  0  0  0  0  0  0  0  0  0
   16.3287  -12.0328  -14.8136 C   0  0  0  0  0  0  0  0  0  0  0  0
   15.0735  -13.1521  -14.1711 S   0  0  0  0  0  0  0  0  0  0  0  0
   17.1484  -10.7965  -16.7422 C   0  0  0  0  0  0  0  0  0  0  0  0
   18.3755  -11.0850  -16.9446 O   0  0  0  0  0  0  0  0  0  0  0  0
   16.8758   -7.5781  -18.4083 C   0  0  0  0  0  0  0  0  0  0  0  0
   17.6096   -8.4863  -17.4419 C   0  0  2  0  0  0  0  0  0  0  0  0
   16.7038   -9.4635  -16.9443 N   0  0  0  0  0  0  0  0  0  0  0  0
   18.2751   -7.6934  -16.3807 C   0  0  0  0  0  0  0  0  0  0  0  0
   17.6391   -7.5688  -15.2982 O   0  0  0  0  0  0  0  0  0  0  0  0
   19.5511   -7.1016  -16.5522 N   0  0  0  0  0  0  0  0  0  0  0  0
   20.0490   -6.2439  -15.4962 C   0  0  1  0  0  0  0  0  0  0  0  0
   21.5449   -6.3784  -15.3350 C   0  0  0  0  0  0  0  0  0  0  0  0
   21.8607   -7.7642  -14.9327 C   0  0  0  0  0  0  0  0  0  0  0  0
   21.1560   -8.5687  -14.0418 C   0  0  0  0  0  0  0  0  0  0  0  0
   21.7572   -9.7630  -13.9386 N   0  0  0  0  0  0  0  0  0  0  0  0
   22.8268   -9.7469  -14.7377 C   0  0  0  0  0  0  0  0  0  0  0  0
   22.8866   -8.5256  -15.3426 N   0  0  0  0  0  0  0  0  0  0  0  0
   19.6852   -4.8519  -15.8658 C   0  0  0  0  0  0  0  0  0  0  0  0
   19.1449   -4.5099  -16.9386 O   0  0  0  0  0  0  0  0  0  0  0  0
   19.9456   -3.7901  -14.9763 O   0  0  0  0  0  0  0  0  0  0  0  0
  2  1  1  6
  3  2  1  0
  4  3  1  0
  5  9  1  0
  5  2  1  0
  6  5  2  0
  8  7  1  6
  8  9  1  0
  8 10  1  0
 10 12  1  0
 11 10  2  0
 12 13  1  0
 13 20  1  0
 13 14  1  6
 15 14  1  0
 16 15  2  0
 17 16  1  0
 18 17  1  0
 18 19  2  0
 19 15  1  0
 20 22  1  0
 21 20  2  0
M  END
$$$$
