CAH.pdb
     RDKit          3D

 22 22  0  0  1  0  0  0  0  0999 V2000
   27.1009  -11.8079  -18.4113 N   0  0  0  0  0  0  0  0  0  0  0  0
   26.4279  -11.5474  -17.1531 C   0  0  1  0  0  0  0  0  0  0  0  0
   27.3490  -10.7419  -16.2811 C   0  0  0  0  0  0  0  0  0  0  0  0
   28.6920  -11.7336  -15.6074 S   0  0  0  0  0  0  0  0  0  0  0  0
   25.1947  -10.7835  -17.4113 C   0  0  0  0  0  0  0  0  0  0  0  0
   25.2157   -9.8663  -18.2991 O   0  0  0  0  0  0  0  0  0  0  0  0
   21.6002  -11.1185  -16.6495 C   0  0  0  0  0  0  0  0  0  0  0  0
   22.8199  -10.2945  -17.0109 C   0  0  2  0  0  0  0  0  0  0  0  0
   23.9915  -11.0396  -16.7027 N   0  0  0  0  0  0  0  0  0  0  0  0
   22.7674   -8.9659  -16.3554 C   0  0  0  0  0  0  0  0  0  0  0  0
   23.4108   -8.8526  -15.2761 O   0  0  0  0  0  0  0  0  0  0  0  0
   22.0424   -7.8737  -16.8935 N   0  0  0  0  0  0  0  0  0  0  0  0
   22.0546   -6.6241  -16.1608 C   0  0  1  0  0  0  0  0  0  0  0  0
   21.6705   -5.4617  -17.0457 C   0  0  0  0  0  0  0  0  0  0  0  0
   21.7290   -4.2165  -16.2530 C   0  0  0  0  0  0  0  0  0  0  0  0
   22.8482   -3.4316  -15.9906 C   0  0  0  0  0  0  0  0  0  0  0  0
   22.4966   -2.3815  -15.2342 N   0  0  0  0  0  0  0  0  0  0  0  0
   21.1843   -2.4710  -15.0044 C   0  0  0  0  0  0  0  0  0  0  0  0
   20.7195   -3.5919  -15.6277 N   0  0  0  0  0  0  0  0  0  0  0  0
   21.0883   -6.7723  -15.0423 C   0  0  0  0  0  0  0  0  0  0  0  0
   20.0100   -7.3997  -15.1011 O   0  0  0  0  0  0  0  0  0  0  0  0
   21.3544   -6.1806  -13.7911 O   0  0  0  0  0  0  0  0  0  0  0  0
  2  1  1  6
  3  2  1  0
  4  3  1  0
  5  9  1  0
  5  2  1  0
  6  5  2  0
  8  7  1  1
  8  9  1  0
  8 10  1  0
 10 12  1  0
 11 10  2  0
 12 13  1  0
 13 20  1  0
 13 14  1  6
 15 14  1  0
 16 15  2  0
 17 16  1  0
 18 17  1  0
 18 19  2  0
 19 15  1  0
 20 22  1  0
 21 20  2  0
M  END
$$$$
