CAH.pdb
     RDKit          3D

 22 22  0  0  1  0  0  0  0  0999 V2000
   18.1179  -13.1638  -20.5936 N   0  0  0  0  0  0  0  0  0  0  0  0
   19.0845  -12.5139  -19.7292 C   0  0  1  0  0  0  0  0  0  0  0  0
   19.9155  -11.5816  -20.5645 C   0  0  0  0  0  0  0  0  0  0  0  0
   21.0699  -12.4633  -21.6280 S   0  0  0  0  0  0  0  0  0  0  0  0
   18.3707  -11.7483  -18.6921 C   0  0  0  0  0  0  0  0  0  0  0  0
   17.3336  -11.0828  -19.0255 O   0  0  0  0  0  0  0  0  0  0  0  0
   17.9809  -11.7053  -15.0933 C   0  0  0  0  0  0  0  0  0  0  0  0
   18.1147  -10.9303  -16.3889 C   0  0  2  0  0  0  0  0  0  0  0  0
   18.8040  -11.7320  -17.3403 N   0  0  0  0  0  0  0  0  0  0  0  0
   18.7483   -9.6120  -16.1477 C   0  0  0  0  0  0  0  0  0  0  0  0
   18.1989   -8.8818  -15.2779 O   0  0  0  0  0  0  0  0  0  0  0  0
   19.9044   -9.1785  -16.8431 N   0  0  0  0  0  0  0  0  0  0  0  0
   20.3760   -7.8302  -16.6015 C   0  0  1  0  0  0  0  0  0  0  0  0
   21.8588   -7.8073  -16.3144 C   0  0  0  0  0  0  0  0  0  0  0  0
   22.1228   -8.5980  -15.0948 C   0  0  0  0  0  0  0  0  0  0  0  0
   21.3233   -8.6960  -13.9597 C   0  0  0  0  0  0  0  0  0  0  0  0
   21.9039   -9.5112  -13.0669 N   0  0  0  0  0  0  0  0  0  0  0  0
   23.0524   -9.9382  -13.5974 C   0  0  0  0  0  0  0  0  0  0  0  0
   23.1825   -9.3789  -14.8348 N   0  0  0  0  0  0  0  0  0  0  0  0
   20.0667   -7.0416  -17.8217 C   0  0  0  0  0  0  0  0  0  0  0  0
   20.3798   -5.8465  -18.0049 O   0  0  0  0  0  0  0  0  0  0  0  0
   19.3667   -7.6345  -18.8917 O   0  0  0  0  0  0  0  0  0  0  0  0
  2  1  1  6
  3  2  1  0
  4  3  1  0
  5  9  1  0
  5  2  1  0
  6  5  2  0
  8  7  1  1
  8  9  1  0
  8 10  1  0
 10 12  1  0
 11 10  2  0
 12 13  1  0
 13 20  1  0
 13 14  1  6
 15 14  1  0
 16 15  2  0
 17 16  1  0
 18 17  1  0
 18 19  2  0
 19 15  1  0
 20 22  1  0
 21 20  2  0
M  END
$$$$
