CAH.pdb
     RDKit          3D

 22 22  0  0  1  0  0  0  0  0999 V2000
   12.4003  -10.4202  -12.6385 N   0  0  0  0  0  0  0  0  0  0  0  0
   13.5640   -9.7756  -13.2166 C   0  0  1  0  0  0  0  0  0  0  0  0
   13.1251   -8.4861  -13.8507 C   0  0  0  0  0  0  0  0  0  0  0  0
   12.1731   -8.7544  -15.3549 S   0  0  0  0  0  0  0  0  0  0  0  0
   14.5437   -9.4969  -12.1519 C   0  0  0  0  0  0  0  0  0  0  0  0
   14.2055   -8.7237  -11.1941 O   0  0  0  0  0  0  0  0  0  0  0  0
   17.6041  -10.9539  -10.8071 C   0  0  0  0  0  0  0  0  0  0  0  0
   16.7669   -9.7329  -11.1316 C   0  0  2  0  0  0  0  0  0  0  0  0
   15.8457  -10.0627  -12.1639 N   0  0  0  0  0  0  0  0  0  0  0  0
   17.6335   -8.5737  -11.4523 C   0  0  0  0  0  0  0  0  0  0  0  0
   18.5395   -8.3084  -10.6154 O   0  0  0  0  0  0  0  0  0  0  0  0
   17.4702   -7.7960  -12.6256 N   0  0  0  0  0  0  0  0  0  0  0  0
   18.5152   -6.8518  -12.9648 C   0  0  1  0  0  0  0  0  0  0  0  0
   19.8152   -7.5554  -13.2757 C   0  0  0  0  0  0  0  0  0  0  0  0
   20.8095   -6.5538  -13.7119 C   0  0  0  0  0  0  0  0  0  0  0  0
   20.6361   -5.1763  -13.8118 C   0  0  0  0  0  0  0  0  0  0  0  0
   21.7711   -4.6080  -14.2446 N   0  0  0  0  0  0  0  0  0  0  0  0
   22.6668   -5.5817  -14.4249 C   0  0  0  0  0  0  0  0  0  0  0  0
   22.0764   -6.7676  -14.0988 N   0  0  0  0  0  0  0  0  0  0  0  0
   18.0375   -6.0882  -14.1461 C   0  0  0  0  0  0  0  0  0  0  0  0
   17.3325   -6.5528  -15.0664 O   0  0  0  0  0  0  0  0  0  0  0  0
   18.3742   -4.7278  -14.2956 O   0  0  0  0  0  0  0  0  0  0  0  0
  2  1  1  1
  3  2  1  0
  4  3  1  0
  5  9  1  0
  5  2  1  0
  6  5  2  0
  8  7  1  6
  8  9  1  0
  8 10  1  0
 10 12  1  0
 11 10  2  0
 12 13  1  0
 13 20  1  0
 13 14  1  6
 15 14  1  0
 16 15  2  0
 17 16  1  0
 18 17  1  0
 18 19  2  0
 19 15  1  0
 20 22  1  0
 21 20  2  0
M  END
$$$$
