CAH.pdb
     RDKit          3D

 22 22  0  0  1  0  0  0  0  0999 V2000
   19.2588  -15.9658  -17.8462 N   0  0  0  0  0  0  0  0  0  0  0  0
   19.5367  -15.1820  -16.6577 C   0  0  1  0  0  0  0  0  0  0  0  0
   20.4369  -15.9842  -15.7611 C   0  0  0  0  0  0  0  0  0  0  0  0
   20.8650  -15.0976  -14.2539 S   0  0  0  0  0  0  0  0  0  0  0  0
   20.2112  -13.9314  -17.0478 C   0  0  0  0  0  0  0  0  0  0  0  0
   21.2967  -14.0024  -17.7160 O   0  0  0  0  0  0  0  0  0  0  0  0
   19.3721  -10.6296  -17.9321 C   0  0  0  0  0  0  0  0  0  0  0  0
   20.3500  -11.4798  -17.1461 C   0  0  2  0  0  0  0  0  0  0  0  0
   19.6882  -12.6578  -16.7017 N   0  0  0  0  0  0  0  0  0  0  0  0
   20.9668  -10.6924  -16.0519 C   0  0  0  0  0  0  0  0  0  0  0  0
   20.4081  -10.7756  -14.9238 O   0  0  0  0  0  0  0  0  0  0  0  0
   22.1172   -9.8870  -16.2414 N   0  0  0  0  0  0  0  0  0  0  0  0
   22.6445   -9.1763  -15.0945 C   0  0  1  0  0  0  0  0  0  0  0  0
   24.0907   -8.7919  -15.3005 C   0  0  0  0  0  0  0  0  0  0  0  0
   24.9070  -10.0208  -15.3747 C   0  0  0  0  0  0  0  0  0  0  0  0
   24.4970  -11.3264  -15.1203 C   0  0  0  0  0  0  0  0  0  0  0  0
   25.5280  -12.1661  -15.2945 N   0  0  0  0  0  0  0  0  0  0  0  0
   26.5869  -11.4361  -15.6531 C   0  0  0  0  0  0  0  0  0  0  0  0
   26.2042  -10.1276  -15.7010 N   0  0  0  0  0  0  0  0  0  0  0  0
   21.8018   -7.9663  -14.9140 C   0  0  0  0  0  0  0  0  0  0  0  0
   21.0081   -7.5087  -15.7630 O   0  0  0  0  0  0  0  0  0  0  0  0
   21.8586   -7.2346  -13.7108 O   0  0  0  0  0  0  0  0  0  0  0  0
  2  1  1  6
  3  2  1  0
  4  3  1  0
  5  9  1  0
  5  2  1  0
  6  5  2  0
  8  7  1  1
  8  9  1  0
  8 10  1  0
 10 12  1  0
 11 10  2  0
 12 13  1  0
 13 20  1  0
 13 14  1  6
 15 14  1  0
 16 15  2  0
 17 16  1  0
 18 17  1  0
 18 19  2  0
 19 15  1  0
 20 22  1  0
 21 20  2  0
M  END
$$$$
