CAH.pdb
     RDKit          3D

 22 22  0  0  1  0  0  0  0  0999 V2000
   21.9117  -12.4319  -19.1518 N   0  0  0  0  0  0  0  0  0  0  0  0
   22.1358  -12.2123  -17.7356 C   0  0  1  0  0  0  0  0  0  0  0  0
   23.3032  -13.0543  -17.3047 C   0  0  0  0  0  0  0  0  0  0  0  0
   23.2598  -13.4320  -15.5450 S   0  0  0  0  0  0  0  0  0  0  0  0
   22.4396  -10.7887  -17.5073 C   0  0  0  0  0  0  0  0  0  0  0  0
   23.1774  -10.1760  -18.3499 O   0  0  0  0  0  0  0  0  0  0  0  0
   21.9790   -7.9651  -17.4902 C   0  0  0  0  0  0  0  0  0  0  0  0
   22.2642   -8.7131  -16.2033 C   0  0  2  0  0  0  0  0  0  0  0  0
   21.9360  -10.0855  -16.3814 N   0  0  0  0  0  0  0  0  0  0  0  0
   21.5662   -8.0756  -15.0613 C   0  0  0  0  0  0  0  0  0  0  0  0
   20.8951   -8.8450  -14.3201 O   0  0  0  0  0  0  0  0  0  0  0  0
   21.6360   -6.6846  -14.8001 N   0  0  0  0  0  0  0  0  0  0  0  0
   20.8804   -6.1660  -13.6781 C   0  0  1  0  0  0  0  0  0  0  0  0
   21.3531   -6.7605  -12.3724 C   0  0  0  0  0  0  0  0  0  0  0  0
   20.5202   -6.2284  -11.2746 C   0  0  0  0  0  0  0  0  0  0  0  0
   19.4930   -6.8805  -10.5984 C   0  0  0  0  0  0  0  0  0  0  0  0
   18.9766   -6.0659   -9.6667 N   0  0  0  0  0  0  0  0  0  0  0  0
   19.6433   -4.9106   -9.7263 C   0  0  0  0  0  0  0  0  0  0  0  0
   20.5844   -5.0135  -10.7086 N   0  0  0  0  0  0  0  0  0  0  0  0
   21.0657   -4.6921  -13.6798 C   0  0  0  0  0  0  0  0  0  0  0  0
   22.0501   -4.0909  -14.1587 O   0  0  0  0  0  0  0  0  0  0  0  0
   20.0869   -3.8529  -13.1104 O   0  0  0  0  0  0  0  0  0  0  0  0
  2  1  1  6
  3  2  1  0
  4  3  1  0
  5  9  1  0
  5  2  1  0
  6  5  2  0
  8  7  1  6
  8  9  1  0
  8 10  1  0
 10 12  1  0
 11 10  2  0
 12 13  1  0
 13 20  1  0
 13 14  1  1
 15 14  1  0
 16 15  2  0
 17 16  1  0
 18 17  1  0
 18 19  2  0
 19 15  1  0
 20 22  1  0
 21 20  2  0
M  END
$$$$
