CAH.pdb
     RDKit          3D

 22 22  0  0  1  0  0  0  0  0999 V2000
   28.2169  -20.9716  -15.8278 N   0  0  0  0  0  0  0  0  0  0  0  0
   27.7592  -20.1079  -14.7562 C   0  0  1  0  0  0  0  0  0  0  0  0
   27.2854  -18.8157  -15.3591 C   0  0  0  0  0  0  0  0  0  0  0  0
   28.6309  -17.6465  -15.6116 S   0  0  0  0  0  0  0  0  0  0  0  0
   26.6458  -20.7624  -14.0472 C   0  0  0  0  0  0  0  0  0  0  0  0
   25.8346  -21.4873  -14.7153 O   0  0  0  0  0  0  0  0  0  0  0  0
   25.4037  -20.9761  -10.5299 C   0  0  0  0  0  0  0  0  0  0  0  0
   25.3063  -21.1772  -12.0290 C   0  0  2  0  0  0  0  0  0  0  0  0
   26.4531  -20.6087  -12.6491 N   0  0  0  0  0  0  0  0  0  0  0  0
   24.0226  -20.6461  -12.5464 C   0  0  0  0  0  0  0  0  0  0  0  0
   23.9542  -19.3940  -12.6846 O   0  0  0  0  0  0  0  0  0  0  0  0
   22.9241  -21.4797  -12.8727 N   0  0  0  0  0  0  0  0  0  0  0  0
   21.7243  -20.8511  -13.3865 C   0  0  1  0  0  0  0  0  0  0  0  0
   21.4992  -21.1967  -14.8397 C   0  0  0  0  0  0  0  0  0  0  0  0
   22.2810  -20.2668  -15.6799 C   0  0  0  0  0  0  0  0  0  0  0  0
   23.0295  -19.1710  -15.2594 C   0  0  0  0  0  0  0  0  0  0  0  0
   23.5942  -18.5755  -16.3201 N   0  0  0  0  0  0  0  0  0  0  0  0
   23.2291  -19.2581  -17.4080 C   0  0  0  0  0  0  0  0  0  0  0  0
   22.4279  -20.2893  -17.0134 N   0  0  0  0  0  0  0  0  0  0  0  0
   20.5946  -21.3350  -12.5522 C   0  0  0  0  0  0  0  0  0  0  0  0
   19.5476  -20.6956  -12.3175 O   0  0  0  0  0  0  0  0  0  0  0  0
   20.6505  -22.6085  -11.9511 O   0  0  0  0  0  0  0  0  0  0  0  0
  2  1  1  6
  3  2  1  0
  4  3  1  0
  5  9  1  0
  5  2  1  0
  6  5  2  0
  8  7  1  1
  8  9  1  0
  8 10  1  0
 10 12  1  0
 11 10  2  0
 12 13  1  0
 13 20  1  0
 13 14  1  6
 15 14  1  0
 16 15  2  0
 17 16  1  0
 18 17  1  0
 18 19  2  0
 19 15  1  0
 20 22  1  0
 21 20  2  0
M  END
$$$$
