CAH.pdb
     RDKit          3D

 22 22  0  0  1  0  0  0  0  0999 V2000
   27.4772  -23.2326  -15.6188 N   0  0  0  0  0  0  0  0  0  0  0  0
   27.2839  -21.9275  -15.0161 C   0  0  1  0  0  0  0  0  0  0  0  0
   27.0136  -20.9353  -16.1116 C   0  0  0  0  0  0  0  0  0  0  0  0
   28.4856  -20.5726  -17.0826 S   0  0  0  0  0  0  0  0  0  0  0  0
   26.1310  -21.9818  -14.1002 C   0  0  0  0  0  0  0  0  0  0  0  0
   25.0577  -22.5471  -14.4978 O   0  0  0  0  0  0  0  0  0  0  0  0
   25.3661  -20.9367  -10.5995 C   0  0  0  0  0  0  0  0  0  0  0  0
   25.0013  -21.3681  -12.0058 C   0  0  2  0  0  0  0  0  0  0  0  0
   26.1830  -21.4252  -12.7952 N   0  0  0  0  0  0  0  0  0  0  0  0
   23.9496  -20.4872  -12.5677 C   0  0  0  0  0  0  0  0  0  0  0  0
   24.3357  -19.6220  -13.4008 O   0  0  0  0  0  0  0  0  0  0  0  0
   22.5845  -20.5946  -12.2033 N   0  0  0  0  0  0  0  0  0  0  0  0
   21.5933  -20.5279  -13.2577 C   0  0  1  0  0  0  0  0  0  0  0  0
   21.7984  -21.6227  -14.2780 C   0  0  0  0  0  0  0  0  0  0  0  0
   20.8096  -21.4577  -15.3630 C   0  0  0  0  0  0  0  0  0  0  0  0
   19.8123  -20.4916  -15.4600 C   0  0  0  0  0  0  0  0  0  0  0  0
   19.1169  -20.6719  -16.5925 N   0  0  0  0  0  0  0  0  0  0  0  0
   19.6400  -21.7257  -17.2238 C   0  0  0  0  0  0  0  0  0  0  0  0
   20.6726  -22.2026  -16.4706 N   0  0  0  0  0  0  0  0  0  0  0  0
   20.2644  -20.6607  -12.6073 C   0  0  0  0  0  0  0  0  0  0  0  0
   20.0528  -21.2166  -11.5091 O   0  0  0  0  0  0  0  0  0  0  0  0
   19.1136  -20.1376  -13.2306 O   0  0  0  0  0  0  0  0  0  0  0  0
  2  1  1  6
  3  2  1  0
  4  3  1  0
  5  9  1  0
  5  2  1  0
  6  5  2  0
  8  7  1  1
  8  9  1  0
  8 10  1  0
 10 12  1  0
 11 10  2  0
 12 13  1  0
 13 20  1  0
 13 14  1  6
 15 14  1  0
 16 15  2  0
 17 16  1  0
 18 17  1  0
 18 19  2  0
 19 15  1  0
 20 22  1  0
 21 20  2  0
M  END
$$$$
