CAH.pdb
     RDKit          3D

 22 22  0  0  1  0  0  0  0  0999 V2000
   25.3969  -15.7121  -15.2462 N   0  0  0  0  0  0  0  0  0  0  0  0
   25.2724  -14.7953  -16.3633 C   0  0  1  0  0  0  0  0  0  0  0  0
   24.0231  -15.1413  -17.1229 C   0  0  0  0  0  0  0  0  0  0  0  0
   24.0428  -16.8344  -17.7344 S   0  0  0  0  0  0  0  0  0  0  0  0
   25.1764  -13.4169  -15.8515 C   0  0  0  0  0  0  0  0  0  0  0  0
   24.3613  -13.1710  -14.9003 O   0  0  0  0  0  0  0  0  0  0  0  0
   26.8591  -10.1455  -16.4830 C   0  0  0  0  0  0  0  0  0  0  0  0
   25.7654  -11.0321  -15.9218 C   0  0  2  0  0  0  0  0  0  0  0  0
   25.9621  -12.3621  -16.3858 N   0  0  0  0  0  0  0  0  0  0  0  0
   24.4275  -10.4796  -16.2418 C   0  0  0  0  0  0  0  0  0  0  0  0
   23.8208  -11.0169  -17.2087 O   0  0  0  0  0  0  0  0  0  0  0  0
   23.8461   -9.4105  -15.5160 N   0  0  0  0  0  0  0  0  0  0  0  0
   22.4818   -9.0389  -15.8313 C   0  0  1  0  0  0  0  0  0  0  0  0
   21.5295  -10.1889  -15.6023 C   0  0  0  0  0  0  0  0  0  0  0  0
   20.1494   -9.7248  -15.8513 C   0  0  0  0  0  0  0  0  0  0  0  0
   19.7366   -8.4399  -16.1920 C   0  0  0  0  0  0  0  0  0  0  0  0
   18.4033   -8.4162  -16.3338 N   0  0  0  0  0  0  0  0  0  0  0  0
   17.9499   -9.6489  -16.0938 C   0  0  0  0  0  0  0  0  0  0  0  0
   19.0182  -10.4446  -15.7997 N   0  0  0  0  0  0  0  0  0  0  0  0
   22.1359   -7.8902  -14.9552 C   0  0  0  0  0  0  0  0  0  0  0  0
   22.5408   -7.7303  -13.7846 O   0  0  0  0  0  0  0  0  0  0  0  0
   21.2876   -6.8681  -15.4265 O   0  0  0  0  0  0  0  0  0  0  0  0
  2  1  1  1
  3  2  1  0
  4  3  1  0
  5  9  1  0
  5  2  1  0
  6  5  2  0
  8  7  1  6
  8  9  1  0
  8 10  1  0
 10 12  1  0
 11 10  2  0
 12 13  1  0
 13 20  1  0
 13 14  1  1
 15 14  1  0
 16 15  2  0
 17 16  1  0
 18 17  1  0
 18 19  2  0
 19 15  1  0
 20 22  1  0
 21 20  2  0
M  END
$$$$
