ECK.pdb
     RDKit          3D

 25 24  0  0  1  0  0  0  0  0999 V2000
   28.3830  -19.6917  -14.6814 N   0  0  0  0  0  0  0  0  0  0  0  0
   27.2157  -19.9570  -15.5446 C   0  0  1  0  0  0  0  0  0  0  0  0
   27.6191  -20.7335  -16.7542 C   0  0  0  0  0  0  0  0  0  0  0  0
   28.0335  -22.1435  -16.5173 C   0  0  0  0  0  0  0  0  0  0  0  0
   29.0561  -22.5615  -17.5089 C   0  0  0  0  0  0  0  0  0  0  0  0
   30.2212  -22.8016  -17.1264 O   0  0  0  0  0  0  0  0  0  0  0  0
   26.1538  -20.5797  -14.7403 C   0  0  0  0  0  0  0  0  0  0  0  0
   25.0909  -20.9268  -15.3089 O   0  0  0  0  0  0  0  0  0  0  0  0
   28.7550  -22.6932  -18.8498 O   0  0  0  0  0  0  0  0  0  0  0  0
   26.2423  -20.8205  -13.3522 N   0  0  0  0  0  0  0  0  0  0  0  0
   25.1671  -21.4293  -12.6458 C   0  0  1  0  0  0  0  0  0  0  0  0
   25.5109  -21.8114  -11.2278 C   0  0  0  0  0  0  0  0  0  0  0  0
   25.4964  -20.4387  -10.0880 S   0  0  0  0  0  0  0  0  0  0  0  0
   23.9326  -20.5711  -12.6874 C   0  0  0  0  0  0  0  0  0  0  0  0
   24.0094  -19.3101  -12.6527 O   0  0  0  0  0  0  0  0  0  0  0  0
   22.6356  -21.1309  -12.7668 N   0  0  0  0  0  0  0  0  0  0  0  0
   21.4585  -20.3160  -13.0008 C   0  0  1  0  0  0  0  0  0  0  0  0
   21.5840  -19.6517  -14.3529 C   0  0  0  0  0  0  0  0  0  0  0  0
   20.3777  -18.7947  -14.6690 C   0  0  0  0  0  0  0  0  0  0  0  0
   20.5419  -18.1130  -15.9934 C   0  0  0  0  0  0  0  0  0  0  0  0
   19.3641  -17.2458  -16.3062 C   0  0  0  0  0  0  0  0  0  0  0  0
   19.6516  -16.5672  -17.5665 N   0  0  0  0  0  0  0  0  0  0  0  0
   20.2439  -21.1714  -12.9981 C   0  0  0  0  0  0  0  0  0  0  0  0
   19.1040  -20.6485  -13.0050 O   0  0  0  0  0  0  0  0  0  0  0  0
   20.3446  -22.5510  -12.9880 O   0  0  0  0  0  0  0  0  0  0  0  0
  2  1  1  1
  2  7  1  0
  3  2  1  0
  4  5  1  0
  4  3  1  0
  5  9  1  0
  6  5  2  0
  7  8  2  0
 10  7  1  0
 10 11  1  0
 11 14  1  0
 11 12  1  1
 12 13  1  0
 14 15  2  0
 16 17  1  0
 16 14  1  0
 17 23  1  0
 17 18  1  6
 19 18  1  0
 20 19  1  0
 21 20  1  0
 21 22  1  0
 23 24  2  0
 23 25  1  0
M  END
$$$$
