ECK.pdb
     RDKit          3D

 25 24  0  0  1  0  0  0  0  0999 V2000
   19.3873  -10.8589  -16.2924 N   0  0  0  0  0  0  0  0  0  0  0  0
   18.2947  -10.1709  -15.5776 C   0  0  1  0  0  0  0  0  0  0  0  0
   17.1749  -11.1155  -15.2902 C   0  0  0  0  0  0  0  0  0  0  0  0
   16.3690  -11.5500  -16.4640 C   0  0  0  0  0  0  0  0  0  0  0  0
   15.2598  -12.4391  -16.0363 C   0  0  0  0  0  0  0  0  0  0  0  0
   14.6087  -13.0677  -16.8978 O   0  0  0  0  0  0  0  0  0  0  0  0
   18.8454   -9.4924  -14.3951 C   0  0  0  0  0  0  0  0  0  0  0  0
   20.0775   -9.5710  -14.1732 O   0  0  0  0  0  0  0  0  0  0  0  0
   14.9249  -12.5924  -14.7057 O   0  0  0  0  0  0  0  0  0  0  0  0
   18.0782   -8.7461  -13.4746 N   0  0  0  0  0  0  0  0  0  0  0  0
   18.6997   -8.0489  -12.4006 C   0  0  1  0  0  0  0  0  0  0  0  0
   19.9077   -7.2467  -12.8152 C   0  0  0  0  0  0  0  0  0  0  0  0
   21.3515   -7.5471  -11.8107 S   0  0  0  0  0  0  0  0  0  0  0  0
   17.7098   -7.1889  -11.6639 C   0  0  0  0  0  0  0  0  0  0  0  0
   17.1768   -6.1842  -12.2149 O   0  0  0  0  0  0  0  0  0  0  0  0
   17.3308   -7.4621  -10.3284 N   0  0  0  0  0  0  0  0  0  0  0  0
   16.2055   -6.7994   -9.6967 C   0  0  1  0  0  0  0  0  0  0  0  0
   15.2085   -7.8451   -9.2518 C   0  0  0  0  0  0  0  0  0  0  0  0
   13.9804   -7.2177   -8.6292 C   0  0  0  0  0  0  0  0  0  0  0  0
   12.9618   -8.2637   -8.2919 C   0  0  0  0  0  0  0  0  0  0  0  0
   11.7032   -7.6463   -7.7706 C   0  0  0  0  0  0  0  0  0  0  0  0
   10.7530   -8.7313   -7.5440 N   0  0  0  0  0  0  0  0  0  0  0  0
   16.6695   -6.0423   -8.5057 C   0  0  0  0  0  0  0  0  0  0  0  0
   17.6845   -6.4206   -7.8737 O   0  0  0  0  0  0  0  0  0  0  0  0
   15.9969   -4.9137   -8.0730 O   0  0  0  0  0  0  0  0  0  0  0  0
  2  1  1  1
  2  7  1  0
  3  2  1  0
  4  5  1  0
  4  3  1  0
  5  9  1  0
  6  5  2  0
  7  8  2  0
 10  7  1  0
 10 11  1  0
 11 14  1  0
 11 12  1  6
 12 13  1  0
 14 15  2  0
 16 17  1  0
 16 14  1  0
 17 23  1  0
 17 18  1  1
 19 18  1  0
 20 19  1  0
 21 20  1  0
 21 22  1  0
 23 24  2  0
 23 25  1  0
M  END
$$$$
