ECK.pdb
     RDKit          3D

 25 24  0  0  1  0  0  0  0  0999 V2000
   24.1422  -15.2269  -18.1569 N   0  0  0  0  0  0  0  0  0  0  0  0
   25.3985  -14.9544  -17.4319 C   0  0  1  0  0  0  0  0  0  0  0  0
   26.5656  -15.0020  -18.3617 C   0  0  0  0  0  0  0  0  0  0  0  0
   26.2519  -14.8727  -19.8112 C   0  0  0  0  0  0  0  0  0  0  0  0
   27.4972  -14.8901  -20.6191 C   0  0  0  0  0  0  0  0  0  0  0  0
   27.4396  -14.6430  -21.8426 O   0  0  0  0  0  0  0  0  0  0  0  0
   25.2595  -13.6961  -16.6839 C   0  0  0  0  0  0  0  0  0  0  0  0
   24.3174  -13.5826  -15.8634 O   0  0  0  0  0  0  0  0  0  0  0  0
   28.7246  -15.1731  -20.0539 O   0  0  0  0  0  0  0  0  0  0  0  0
   26.1215  -12.5869  -16.8221 N   0  0  0  0  0  0  0  0  0  0  0  0
   25.9385  -11.4160  -16.0340 C   0  0  1  0  0  0  0  0  0  0  0  0
   27.1969  -10.6055  -15.8487 C   0  0  0  0  0  0  0  0  0  0  0  0
   26.9404   -9.0631  -14.9890 S   0  0  0  0  0  0  0  0  0  0  0  0
   24.8243  -10.5632  -16.5758 C   0  0  0  0  0  0  0  0  0  0  0  0
   24.6628  -10.4084  -17.8196 O   0  0  0  0  0  0  0  0  0  0  0  0
   23.9104   -9.8984  -15.7246 N   0  0  0  0  0  0  0  0  0  0  0  0
   22.7930   -9.1323  -16.2432 C   0  0  1  0  0  0  0  0  0  0  0  0
   21.6618  -10.0791  -16.5740 C   0  0  0  0  0  0  0  0  0  0  0  0
   20.4324   -9.3367  -17.0503 C   0  0  0  0  0  0  0  0  0  0  0  0
   19.2981  -10.2858  -17.2912 C   0  0  0  0  0  0  0  0  0  0  0  0
   18.0548   -9.5550  -17.6876 C   0  0  0  0  0  0  0  0  0  0  0  0
   17.4239   -9.0807  -16.4594 N   0  0  0  0  0  0  0  0  0  0  0  0
   22.3242   -8.1658  -15.2170 C   0  0  0  0  0  0  0  0  0  0  0  0
   21.5003   -7.2711  -15.5227 O   0  0  0  0  0  0  0  0  0  0  0  0
   22.7832   -8.2324  -13.9138 O   0  0  0  0  0  0  0  0  0  0  0  0
  2  1  1  6
  2  7  1  0
  3  2  1  0
  4  5  1  0
  4  3  1  0
  5  9  1  0
  6  5  2  0
  7  8  2  0
 10  7  1  0
 10 11  1  0
 11 14  1  0
 11 12  1  6
 12 13  1  0
 14 15  2  0
 16 17  1  0
 16 14  1  0
 17 23  1  0
 17 18  1  1
 19 18  1  0
 20 19  1  0
 21 20  1  0
 21 22  1  0
 23 24  2  0
 23 25  1  0
M  END
$$$$
