ECK.pdb
     RDKit          3D

 25 24  0  0  1  0  0  0  0  0999 V2000
   22.5727  -13.8287  -17.1647 N   0  0  0  0  0  0  0  0  0  0  0  0
   21.6208  -12.7197  -17.3700 C   0  0  1  0  0  0  0  0  0  0  0  0
   20.2132  -13.2059  -17.2650 C   0  0  0  0  0  0  0  0  0  0  0  0
   19.7936  -14.2157  -18.2751 C   0  0  0  0  0  0  0  0  0  0  0  0
   19.3993  -15.4846  -17.6132 C   0  0  0  0  0  0  0  0  0  0  0  0
   19.9542  -16.5521  -17.9506 O   0  0  0  0  0  0  0  0  0  0  0  0
   21.9605  -11.6184  -16.4569 C   0  0  0  0  0  0  0  0  0  0  0  0
   21.5253  -11.6534  -15.2809 O   0  0  0  0  0  0  0  0  0  0  0  0
   18.4313  -15.5193  -16.6295 O   0  0  0  0  0  0  0  0  0  0  0  0
   22.7535  -10.5053  -16.8103 N   0  0  0  0  0  0  0  0  0  0  0  0
   23.1241   -9.5336  -15.8387 C   0  0  1  0  0  0  0  0  0  0  0  0
   24.6142   -9.4104  -15.6402 C   0  0  0  0  0  0  0  0  0  0  0  0
   25.3697  -10.8650  -14.9350 S   0  0  0  0  0  0  0  0  0  0  0  0
   22.5098   -8.1952  -16.1447 C   0  0  0  0  0  0  0  0  0  0  0  0
   22.6386   -7.6595  -17.2821 O   0  0  0  0  0  0  0  0  0  0  0  0
   21.7637   -7.4774  -15.1804 N   0  0  0  0  0  0  0  0  0  0  0  0
   21.2508   -6.1454  -15.4395 C   0  0  1  0  0  0  0  0  0  0  0  0
   19.7490   -6.1569  -15.2667 C   0  0  0  0  0  0  0  0  0  0  0  0
   19.1595   -4.7703  -15.4058 C   0  0  0  0  0  0  0  0  0  0  0  0
   17.6722   -4.8043  -15.2262 C   0  0  0  0  0  0  0  0  0  0  0  0
   17.0741   -3.4444  -15.4002 C   0  0  0  0  0  0  0  0  0  0  0  0
   15.6381   -3.5728  -15.1699 N   0  0  0  0  0  0  0  0  0  0  0  0
   21.8370   -5.1821  -14.4724 C   0  0  0  0  0  0  0  0  0  0  0  0
   21.6959   -3.9482  -14.6468 O   0  0  0  0  0  0  0  0  0  0  0  0
   22.5447   -5.6227  -13.3686 O   0  0  0  0  0  0  0  0  0  0  0  0
  2  1  1  1
  2  7  1  0
  3  2  1  0
  4  5  1  0
  4  3  1  0
  5  9  1  0
  6  5  2  0
  7  8  2  0
 10  7  1  0
 10 11  1  0
 11 14  1  0
 11 12  1  6
 12 13  1  0
 14 15  2  0
 16 17  1  0
 16 14  1  0
 17 23  1  0
 17 18  1  1
 19 18  1  0
 20 19  1  0
 21 20  1  0
 21 22  1  0
 23 24  2  0
 23 25  1  0
M  END
$$$$
