ECK.pdb
     RDKit          3D

 25 24  0  0  1  0  0  0  0  0999 V2000
   22.1784   -9.6246  -15.7227 N   0  0  0  0  0  0  0  0  0  0  0  0
   20.8451   -9.0589  -15.4392 C   0  0  1  0  0  0  0  0  0  0  0  0
   19.7705  -10.0197  -15.8281 C   0  0  0  0  0  0  0  0  0  0  0  0
   19.4841  -10.1249  -17.2852 C   0  0  0  0  0  0  0  0  0  0  0  0
   18.4895  -11.1955  -17.5464 C   0  0  0  0  0  0  0  0  0  0  0  0
   18.2809  -11.5675  -18.7209 O   0  0  0  0  0  0  0  0  0  0  0  0
   20.7974   -8.6178  -14.0374 C   0  0  0  0  0  0  0  0  0  0  0  0
   21.4697   -9.2450  -13.1840 O   0  0  0  0  0  0  0  0  0  0  0  0
   17.7840  -11.7957  -16.5226 O   0  0  0  0  0  0  0  0  0  0  0  0
   20.0387   -7.5223  -13.5716 N   0  0  0  0  0  0  0  0  0  0  0  0
   20.0657   -7.1448  -12.1996 C   0  0  1  0  0  0  0  0  0  0  0  0
   21.1589   -6.1624  -11.8611 C   0  0  0  0  0  0  0  0  0  0  0  0
   21.5772   -5.0602  -13.2005 S   0  0  0  0  0  0  0  0  0  0  0  0
   18.7249   -6.6341  -11.7484 C   0  0  0  0  0  0  0  0  0  0  0  0
   18.0912   -5.7726  -12.4219 O   0  0  0  0  0  0  0  0  0  0  0  0
   18.1135   -7.0905  -10.5570 N   0  0  0  0  0  0  0  0  0  0  0  0
   16.8261   -6.5914  -10.1122 C   0  0  1  0  0  0  0  0  0  0  0  0
   15.9555   -7.7633   -9.7200 C   0  0  0  0  0  0  0  0  0  0  0  0
   14.5901   -7.3127   -9.2489 C   0  0  0  0  0  0  0  0  0  0  0  0
   13.7468   -8.4888   -8.8599 C   0  0  0  0  0  0  0  0  0  0  0  0
   12.3345   -8.0772   -8.5895 C   0  0  0  0  0  0  0  0  0  0  0  0
   11.5736   -9.2953   -8.3274 N   0  0  0  0  0  0  0  0  0  0  0  0
   17.0074   -5.7119   -8.9288 C   0  0  0  0  0  0  0  0  0  0  0  0
   16.0649   -4.9857   -8.5322 O   0  0  0  0  0  0  0  0  0  0  0  0
   18.2095   -5.6763   -8.2455 O   0  0  0  0  0  0  0  0  0  0  0  0
  2  1  1  1
  2  7  1  0
  3  2  1  0
  4  5  1  0
  4  3  1  0
  5  9  1  0
  6  5  2  0
  7  8  2  0
 10  7  1  0
 10 11  1  0
 11 14  1  0
 11 12  1  6
 12 13  1  0
 14 15  2  0
 16 17  1  0
 16 14  1  0
 17 23  1  0
 17 18  1  1
 19 18  1  0
 20 19  1  0
 21 20  1  0
 21 22  1  0
 23 24  2  0
 23 25  1  0
M  END
$$$$
