ECK.pdb
     RDKit          3D

 25 24  0  0  1  0  0  0  0  0999 V2000
   18.6627  -10.4579  -15.0521 N   0  0  0  0  0  0  0  0  0  0  0  0
   19.5748   -9.6744  -15.9077 C   0  0  1  0  0  0  0  0  0  0  0  0
   19.0689   -9.6241  -17.3115 C   0  0  0  0  0  0  0  0  0  0  0  0
   19.0779  -10.9132  -18.0558 C   0  0  0  0  0  0  0  0  0  0  0  0
   18.6549  -10.7068  -19.4637 C   0  0  0  0  0  0  0  0  0  0  0  0
   19.1168  -11.4460  -20.3590 O   0  0  0  0  0  0  0  0  0  0  0  0
   19.8047   -8.3602  -15.2896 C   0  0  0  0  0  0  0  0  0  0  0  0
   18.8597   -7.8079  -14.6768 O   0  0  0  0  0  0  0  0  0  0  0  0
   17.7604   -9.7154  -19.8145 O   0  0  0  0  0  0  0  0  0  0  0  0
   21.0302   -7.6611  -15.3349 N   0  0  0  0  0  0  0  0  0  0  0  0
   21.1753   -6.3978  -14.6956 C   0  0  1  0  0  0  0  0  0  0  0  0
   22.3988   -6.2973  -13.8194 C   0  0  0  0  0  0  0  0  0  0  0  0
   22.7513   -4.6394  -13.2615 S   0  0  0  0  0  0  0  0  0  0  0  0
   21.1351   -5.2739  -15.6943 C   0  0  0  0  0  0  0  0  0  0  0  0
   21.9489   -5.2257  -16.6599 O   0  0  0  0  0  0  0  0  0  0  0  0
   20.1907   -4.2245  -15.6007 N   0  0  0  0  0  0  0  0  0  0  0  0
   20.2107   -3.0884  -16.5026 C   0  0  1  0  0  0  0  0  0  0  0  0
   18.7954   -2.5951  -16.6999 C   0  0  0  0  0  0  0  0  0  0  0  0
   18.0103   -3.5024  -17.6217 C   0  0  0  0  0  0  0  0  0  0  0  0
   16.6013   -3.0154  -17.7740 C   0  0  0  0  0  0  0  0  0  0  0  0
   15.8418   -3.8518  -18.7542 C   0  0  0  0  0  0  0  0  0  0  0  0
   14.5460   -3.2099  -18.9550 N   0  0  0  0  0  0  0  0  0  0  0  0
   21.0227   -1.9919  -15.9150 C   0  0  0  0  0  0  0  0  0  0  0  0
   20.9565   -1.7462  -14.6870 O   0  0  0  0  0  0  0  0  0  0  0  0
   21.8617   -1.2257  -16.7040 O   0  0  0  0  0  0  0  0  0  0  0  0
  2  1  1  1
  2  7  1  0
  3  2  1  0
  4  5  1  0
  4  3  1  0
  5  9  1  0
  6  5  2  0
  7  8  2  0
 10  7  1  0
 10 11  1  0
 11 14  1  0
 11 12  1  6
 12 13  1  0
 14 15  2  0
 16 17  1  0
 16 14  1  0
 17 23  1  0
 17 18  1  1
 19 18  1  0
 20 19  1  0
 21 20  1  0
 21 22  1  0
 23 24  2  0
 23 25  1  0
M  END
$$$$
