ECK.pdb
     RDKit          3D

 25 24  0  0  1  0  0  0  0  0999 V2000
   20.5738   -8.5890  -14.0599 N   0  0  0  0  0  0  0  0  0  0  0  0
   20.3572   -7.9898  -12.7287 C   0  0  1  0  0  0  0  0  0  0  0  0
   20.8722   -6.5890  -12.6903 C   0  0  0  0  0  0  0  0  0  0  0  0
   20.1081   -5.5899  -13.4864 C   0  0  0  0  0  0  0  0  0  0  0  0
   20.5889   -4.2150  -13.1998 C   0  0  0  0  0  0  0  0  0  0  0  0
   20.0561   -3.5564  -12.2812 O   0  0  0  0  0  0  0  0  0  0  0  0
   18.9411   -8.1345  -12.3603 C   0  0  0  0  0  0  0  0  0  0  0  0
   18.1560   -8.6694  -13.1794 O   0  0  0  0  0  0  0  0  0  0  0  0
   21.6142   -3.6395  -13.9234 O   0  0  0  0  0  0  0  0  0  0  0  0
   18.3891   -7.7092  -11.1327 N   0  0  0  0  0  0  0  0  0  0  0  0
   17.0496   -8.0369  -10.7807 C   0  0  1  0  0  0  0  0  0  0  0  0
   16.8202   -9.5127  -10.5707 C   0  0  0  0  0  0  0  0  0  0  0  0
   15.2614   -9.8960   -9.7916 S   0  0  0  0  0  0  0  0  0  0  0  0
   16.5909   -7.2459   -9.5865 C   0  0  0  0  0  0  0  0  0  0  0  0
   17.2757   -7.2050   -8.5251 O   0  0  0  0  0  0  0  0  0  0  0  0
   15.3793   -6.5153   -9.5945 N   0  0  0  0  0  0  0  0  0  0  0  0
   14.8568   -5.8782   -8.4007 C   0  0  1  0  0  0  0  0  0  0  0  0
   14.7950   -4.3852   -8.6296 C   0  0  0  0  0  0  0  0  0  0  0  0
   14.2962   -3.6516   -7.4038 C   0  0  0  0  0  0  0  0  0  0  0  0
   14.3028   -2.1704   -7.6311 C   0  0  0  0  0  0  0  0  0  0  0  0
   13.7842   -1.4364   -6.4354 C   0  0  0  0  0  0  0  0  0  0  0  0
   13.7632   -0.0172   -6.7771 N   0  0  0  0  0  0  0  0  0  0  0  0
   13.4856   -6.3772   -8.1214 C   0  0  0  0  0  0  0  0  0  0  0  0
   12.8709   -7.0488   -8.9839 O   0  0  0  0  0  0  0  0  0  0  0  0
   12.8640   -6.1135   -6.9142 O   0  0  0  0  0  0  0  0  0  0  0  0
  2  1  1  6
  2  7  1  0
  3  2  1  0
  4  5  1  0
  4  3  1  0
  5  9  1  0
  6  5  2  0
  7  8  2  0
 10  7  1  0
 10 11  1  0
 11 14  1  0
 11 12  1  1
 12 13  1  0
 14 15  2  0
 16 17  1  0
 16 14  1  0
 17 23  1  0
 17 18  1  6
 19 18  1  0
 20 19  1  0
 21 20  1  0
 21 22  1  0
 23 24  2  0
 23 25  1  0
M  END
$$$$
