ECK.pdb
     RDKit          3D

 25 24  0  0  1  0  0  0  0  0999 V2000
   21.3731  -12.3847  -17.8239 N   0  0  0  0  0  0  0  0  0  0  0  0
   20.1082  -11.6993  -17.4945 C   0  0  1  0  0  0  0  0  0  0  0  0
   19.1556  -12.6389  -16.8323 C   0  0  0  0  0  0  0  0  0  0  0  0
   19.2039  -14.0528  -17.2958 C   0  0  0  0  0  0  0  0  0  0  0  0
   18.3079  -14.9035  -16.4729 C   0  0  0  0  0  0  0  0  0  0  0  0
   17.7013  -14.3997  -15.5036 O   0  0  0  0  0  0  0  0  0  0  0  0
   20.4064  -10.4825  -16.7247 C   0  0  0  0  0  0  0  0  0  0  0  0
   19.4542   -9.7571  -16.3495 O   0  0  0  0  0  0  0  0  0  0  0  0
   18.1245  -16.2436  -16.7495 O   0  0  0  0  0  0  0  0  0  0  0  0
   21.7064  -10.0618  -16.3701 N   0  0  0  0  0  0  0  0  0  0  0  0
   21.9060   -8.9117  -15.5558 C   0  0  1  0  0  0  0  0  0  0  0  0
   23.2873   -8.8238  -14.9565 C   0  0  0  0  0  0  0  0  0  0  0  0
   23.6537  -10.1292  -13.7966 S   0  0  0  0  0  0  0  0  0  0  0  0
   21.5613   -7.6508  -16.2999 C   0  0  0  0  0  0  0  0  0  0  0  0
   21.8035   -7.5313  -17.5345 O   0  0  0  0  0  0  0  0  0  0  0  0
   20.9536   -6.5463  -15.6575 N   0  0  0  0  0  0  0  0  0  0  0  0
   20.4729   -5.3946  -16.3970 C   0  0  1  0  0  0  0  0  0  0  0  0
   19.4638   -5.8579  -17.4228 C   0  0  0  0  0  0  0  0  0  0  0  0
   18.8573   -4.6940  -18.1759 C   0  0  0  0  0  0  0  0  0  0  0  0
   17.8895   -5.1778  -19.2126 C   0  0  0  0  0  0  0  0  0  0  0  0
   17.2799   -4.0347  -19.9603 C   0  0  0  0  0  0  0  0  0  0  0  0
   16.2938   -4.5974  -20.8781 N   0  0  0  0  0  0  0  0  0  0  0  0
   19.8109   -4.4405  -15.4706 C   0  0  0  0  0  0  0  0  0  0  0  0
   19.6244   -3.2500  -15.8183 O   0  0  0  0  0  0  0  0  0  0  0  0
   19.3902   -4.8422  -14.2156 O   0  0  0  0  0  0  0  0  0  0  0  0
  2  1  1  1
  2  7  1  0
  3  2  1  0
  4  5  1  0
  4  3  1  0
  5  9  1  0
  6  5  2  0
  7  8  2  0
 10  7  1  0
 10 11  1  0
 11 14  1  0
 11 12  1  6
 12 13  1  0
 14 15  2  0
 16 17  1  0
 16 14  1  0
 17 23  1  0
 17 18  1  6
 19 18  1  0
 20 19  1  0
 21 20  1  0
 21 22  1  0
 23 24  2  0
 23 25  1  0
M  END
$$$$
