ECK.pdb
     RDKit          3D

 25 24  0  0  1  0  0  0  0  0999 V2000
   21.8273  -13.1081  -18.4482 N   0  0  0  0  0  0  0  0  0  0  0  0
   22.0726  -11.6686  -18.6625 C   0  0  1  0  0  0  0  0  0  0  0  0
   21.1381  -11.1212  -19.6901 C   0  0  0  0  0  0  0  0  0  0  0  0
   21.3354  -11.6135  -21.0811 C   0  0  0  0  0  0  0  0  0  0  0  0
   20.3720  -10.9658  -22.0063 C   0  0  0  0  0  0  0  0  0  0  0  0
   20.5201   -9.7611  -22.3035 O   0  0  0  0  0  0  0  0  0  0  0  0
   22.0351  -10.9757  -17.3661 C   0  0  0  0  0  0  0  0  0  0  0  0
   21.1375  -11.2805  -16.5445 O   0  0  0  0  0  0  0  0  0  0  0  0
   19.3106  -11.6604  -22.5513 O   0  0  0  0  0  0  0  0  0  0  0  0
   22.9493   -9.9758  -16.9698 N   0  0  0  0  0  0  0  0  0  0  0  0
   22.8576   -9.3687  -15.6858 C   0  0  1  0  0  0  0  0  0  0  0  0
   23.8797   -9.8760  -14.6995 C   0  0  0  0  0  0  0  0  0  0  0  0
   23.7339  -11.6182  -14.3428 S   0  0  0  0  0  0  0  0  0  0  0  0
   22.9063   -7.8689  -15.7874 C   0  0  0  0  0  0  0  0  0  0  0  0
   23.7096   -7.2909  -16.5734 O   0  0  0  0  0  0  0  0  0  0  0  0
   22.0610   -7.0395  -15.0133 N   0  0  0  0  0  0  0  0  0  0  0  0
   22.0805   -5.5940  -15.1337 C   0  0  1  0  0  0  0  0  0  0  0  0
   20.7497   -5.1303  -15.6806 C   0  0  0  0  0  0  0  0  0  0  0  0
   20.6705   -3.6210  -15.7539 C   0  0  0  0  0  0  0  0  0  0  0  0
   19.3494   -3.1842  -16.3103 C   0  0  0  0  0  0  0  0  0  0  0  0
   19.2818   -1.6958  -16.4409 C   0  0  0  0  0  0  0  0  0  0  0  0
   17.9430   -1.3659  -16.9205 N   0  0  0  0  0  0  0  0  0  0  0  0
   22.2900   -4.9791  -13.7976 C   0  0  0  0  0  0  0  0  0  0  0  0
   21.9466   -5.5935  -12.7596 O   0  0  0  0  0  0  0  0  0  0  0  0
   22.8634   -3.7266  -13.6722 O   0  0  0  0  0  0  0  0  0  0  0  0
  2  1  1  1
  2  7  1  0
  3  2  1  0
  4  5  1  0
  4  3  1  0
  5  9  1  0
  6  5  2  0
  7  8  2  0
 10  7  1  0
 10 11  1  0
 11 14  1  0
 11 12  1  1
 12 13  1  0
 14 15  2  0
 16 17  1  0
 16 14  1  0
 17 23  1  0
 17 18  1  1
 19 18  1  0
 20 19  1  0
 21 20  1  0
 21 22  1  0
 23 24  2  0
 23 25  1  0
M  END
$$$$
