ECK.pdb
     RDKit          3D

 25 24  0  0  1  0  0  0  0  0999 V2000
   24.2437  -14.6318  -17.6909 N   0  0  0  0  0  0  0  0  0  0  0  0
   24.3695  -13.3369  -18.3876 C   0  0  1  0  0  0  0  0  0  0  0  0
   23.4070  -13.2541  -19.5259 C   0  0  0  0  0  0  0  0  0  0  0  0
   21.9877  -12.9887  -19.1634 C   0  0  0  0  0  0  0  0  0  0  0  0
   21.1326  -12.9732  -20.3767 C   0  0  0  0  0  0  0  0  0  0  0  0
   20.4078  -13.9590  -20.6305 O   0  0  0  0  0  0  0  0  0  0  0  0
   24.2550  -12.2487  -17.4053 C   0  0  0  0  0  0  0  0  0  0  0  0
   23.2271  -12.1880  -16.6889 O   0  0  0  0  0  0  0  0  0  0  0  0
   21.1148  -11.8944  -21.2381 O   0  0  0  0  0  0  0  0  0  0  0  0
   25.2319  -11.2497  -17.2046 N   0  0  0  0  0  0  0  0  0  0  0  0
   25.0503  -10.2365  -16.2216 C   0  0  1  0  0  0  0  0  0  0  0  0
   26.3072   -9.4659  -15.9039 C   0  0  0  0  0  0  0  0  0  0  0  0
   27.6357  -10.4802  -15.2791 S   0  0  0  0  0  0  0  0  0  0  0  0
   23.9298   -9.3064  -16.5983 C   0  0  0  0  0  0  0  0  0  0  0  0
   23.6057   -9.1263  -17.8065 O   0  0  0  0  0  0  0  0  0  0  0  0
   23.1907   -8.5940  -15.6248 N   0  0  0  0  0  0  0  0  0  0  0  0
   22.0737   -7.7391  -15.9798 C   0  0  1  0  0  0  0  0  0  0  0  0
   21.0241   -8.5709  -16.6809 C   0  0  0  0  0  0  0  0  0  0  0  0
   19.7812   -7.7631  -16.9844 C   0  0  0  0  0  0  0  0  0  0  0  0
   18.7426   -8.6145  -17.6492 C   0  0  0  0  0  0  0  0  0  0  0  0
   17.4984   -7.8328  -17.9282 C   0  0  0  0  0  0  0  0  0  0  0  0
   16.5410   -8.7505  -18.5387 N   0  0  0  0  0  0  0  0  0  0  0  0
   21.4781   -7.1514  -14.7523 C   0  0  0  0  0  0  0  0  0  0  0  0
   20.5983   -6.2620  -14.8415 O   0  0  0  0  0  0  0  0  0  0  0  0
   21.8783   -7.5696  -13.4960 O   0  0  0  0  0  0  0  0  0  0  0  0
  2  1  1  1
  2  7  1  0
  3  2  1  0
  4  5  1  0
  4  3  1  0
  5  9  1  0
  6  5  2  0
  7  8  2  0
 10  7  1  0
 10 11  1  0
 11 14  1  0
 11 12  1  6
 12 13  1  0
 14 15  2  0
 16 17  1  0
 16 14  1  0
 17 23  1  0
 17 18  1  1
 19 18  1  0
 20 19  1  0
 21 20  1  0
 21 22  1  0
 23 24  2  0
 23 25  1  0
M  END
$$$$
