ECK.pdb
     RDKit          3D

 25 24  0  0  1  0  0  0  0  0999 V2000
   20.3759  -12.0071  -17.6467 N   0  0  0  0  0  0  0  0  0  0  0  0
   19.5031  -11.1853  -16.7860 C   0  0  1  0  0  0  0  0  0  0  0  0
   18.5797  -12.0491  -15.9924 C   0  0  0  0  0  0  0  0  0  0  0  0
   17.7501  -13.0081  -16.7724 C   0  0  0  0  0  0  0  0  0  0  0  0
   16.9643  -13.8794  -15.8630 C   0  0  0  0  0  0  0  0  0  0  0  0
   17.0091  -15.1196  -16.0091 O   0  0  0  0  0  0  0  0  0  0  0  0
   20.3357  -10.2764  -15.9842 C   0  0  0  0  0  0  0  0  0  0  0  0
   19.7773   -9.5253  -15.1490 O   0  0  0  0  0  0  0  0  0  0  0  0
   16.1805  -13.3556  -14.8544 O   0  0  0  0  0  0  0  0  0  0  0  0
   21.7406  -10.1839  -16.0856 N   0  0  0  0  0  0  0  0  0  0  0  0
   22.4777   -9.3019  -15.2463 C   0  0  1  0  0  0  0  0  0  0  0  0
   23.9220   -9.6983  -15.0680 C   0  0  0  0  0  0  0  0  0  0  0  0
   24.1449  -11.2231  -14.1685 S   0  0  0  0  0  0  0  0  0  0  0  0
   22.3650   -7.8785  -15.7189 C   0  0  0  0  0  0  0  0  0  0  0  0
   22.7591   -7.5369  -16.8701 O   0  0  0  0  0  0  0  0  0  0  0  0
   21.8160   -6.8614  -14.9029 N   0  0  0  0  0  0  0  0  0  0  0  0
   21.7338   -5.4816  -15.3434 C   0  0  1  0  0  0  0  0  0  0  0  0
   20.2797   -5.1141  -15.5328 C   0  0  0  0  0  0  0  0  0  0  0  0
   20.1230   -3.7015  -16.0519 C   0  0  0  0  0  0  0  0  0  0  0  0
   18.6840   -3.3966  -16.3380 C   0  0  0  0  0  0  0  0  0  0  0  0
   18.5315   -2.0532  -16.9777 C   0  0  0  0  0  0  0  0  0  0  0  0
   17.1003   -1.8084  -17.1293 N   0  0  0  0  0  0  0  0  0  0  0  0
   22.3240   -4.5874  -14.3144 C   0  0  0  0  0  0  0  0  0  0  0  0
   22.6169   -3.4022  -14.6016 O   0  0  0  0  0  0  0  0  0  0  0  0
   22.5606   -5.0399  -13.0288 O   0  0  0  0  0  0  0  0  0  0  0  0
  2  1  1  1
  2  7  1  0
  3  2  1  0
  4  5  1  0
  4  3  1  0
  5  9  1  0
  6  5  2  0
  7  8  2  0
 10  7  1  0
 10 11  1  0
 11 14  1  0
 11 12  1  6
 12 13  1  0
 14 15  2  0
 16 17  1  0
 16 14  1  0
 17 23  1  0
 17 18  1  1
 19 18  1  0
 20 19  1  0
 21 20  1  0
 21 22  1  0
 23 24  2  0
 23 25  1  0
M  END
$$$$
