ECK.pdb
     RDKit          3D

 25 24  0  0  1  0  0  0  0  0999 V2000
   23.4243  -12.3265  -19.6846 N   0  0  0  0  0  0  0  0  0  0  0  0
   22.4675  -11.3344  -19.1570 C   0  0  1  0  0  0  0  0  0  0  0  0
   21.0932  -11.9132  -19.0846 C   0  0  0  0  0  0  0  0  0  0  0  0
   20.9291  -13.2801  -19.6511 C   0  0  0  0  0  0  0  0  0  0  0  0
   19.5232  -13.7369  -19.5152 C   0  0  0  0  0  0  0  0  0  0  0  0
   18.7305  -13.5782  -20.4681 O   0  0  0  0  0  0  0  0  0  0  0  0
   22.9781  -10.8022  -17.8850 C   0  0  0  0  0  0  0  0  0  0  0  0
   23.3133  -11.6086  -16.9844 O   0  0  0  0  0  0  0  0  0  0  0  0
   19.0635  -14.3356  -18.3593 O   0  0  0  0  0  0  0  0  0  0  0  0
   23.1221   -9.4280  -17.5961 N   0  0  0  0  0  0  0  0  0  0  0  0
   23.7672   -8.9953  -16.4035 C   0  0  1  0  0  0  0  0  0  0  0  0
   25.1582   -9.5515  -16.2290 C   0  0  0  0  0  0  0  0  0  0  0  0
   25.3722  -10.5005  -14.7331 S   0  0  0  0  0  0  0  0  0  0  0  0
   23.7709   -7.4948  -16.2996 C   0  0  0  0  0  0  0  0  0  0  0  0
   24.2604   -6.7756  -17.2163 O   0  0  0  0  0  0  0  0  0  0  0  0
   23.2304   -6.8219  -15.1786 N   0  0  0  0  0  0  0  0  0  0  0  0
   22.9875   -5.3917  -15.1827 C   0  0  1  0  0  0  0  0  0  0  0  0
   22.0069   -5.0648  -16.2858 C   0  0  0  0  0  0  0  0  0  0  0  0
   20.6109   -5.5445  -15.9533 C   0  0  0  0  0  0  0  0  0  0  0  0
   19.6555   -5.2069  -17.0573 C   0  0  0  0  0  0  0  0  0  0  0  0
   18.2861   -5.7351  -16.7693 C   0  0  0  0  0  0  0  0  0  0  0  0
   17.4319   -5.3502  -17.8889 N   0  0  0  0  0  0  0  0  0  0  0  0
   22.4021   -4.9756  -13.8823 C   0  0  0  0  0  0  0  0  0  0  0  0
   22.0486   -5.8392  -13.0444 O   0  0  0  0  0  0  0  0  0  0  0  0
   22.2361   -3.6379  -13.5715 O   0  0  0  0  0  0  0  0  0  0  0  0
  2  1  1  1
  2  7  1  0
  3  2  1  0
  4  5  1  0
  4  3  1  0
  5  9  1  0
  6  5  2  0
  7  8  2  0
 10  7  1  0
 10 11  1  0
 11 14  1  0
 11 12  1  6
 12 13  1  0
 14 15  2  0
 16 17  1  0
 16 14  1  0
 17 23  1  0
 17 18  1  6
 19 18  1  0
 20 19  1  0
 21 20  1  0
 21 22  1  0
 23 24  2  0
 23 25  1  0
M  END
$$$$
