ECK.pdb
     RDKit          3D

 25 24  0  0  1  0  0  0  0  0999 V2000
   13.1890   -8.4184   -9.1023 N   0  0  0  0  0  0  0  0  0  0  0  0
   14.6239   -8.7086   -9.2886 C   0  0  1  0  0  0  0  0  0  0  0  0
   14.8191   -9.7579  -10.3326 C   0  0  0  0  0  0  0  0  0  0  0  0
   14.2021  -11.0830  -10.0505 C   0  0  0  0  0  0  0  0  0  0  0  0
   14.4415  -12.0212  -11.1757 C   0  0  0  0  0  0  0  0  0  0  0  0
   15.0873  -11.6333  -12.1727 O   0  0  0  0  0  0  0  0  0  0  0  0
   15.3409   -7.4499   -9.5406 C   0  0  0  0  0  0  0  0  0  0  0  0
   14.7708   -6.3658   -9.2699 O   0  0  0  0  0  0  0  0  0  0  0  0
   13.9682  -13.3179  -11.1523 O   0  0  0  0  0  0  0  0  0  0  0  0
   16.6455   -7.3683  -10.0736 N   0  0  0  0  0  0  0  0  0  0  0  0
   17.2976   -6.1119  -10.2215 C   0  0  1  0  0  0  0  0  0  0  0  0
   17.2437   -5.2501   -8.9849 C   0  0  0  0  0  0  0  0  0  0  0  0
   18.4385   -3.9248   -8.9777 S   0  0  0  0  0  0  0  0  0  0  0  0
   18.7147   -6.2858  -10.6946 C   0  0  0  0  0  0  0  0  0  0  0  0
   19.5655   -6.9112  -10.0001 O   0  0  0  0  0  0  0  0  0  0  0  0
   19.1596   -5.7613  -11.9310 N   0  0  0  0  0  0  0  0  0  0  0  0
   20.4341   -6.1375  -12.5129 C   0  0  1  0  0  0  0  0  0  0  0  0
   20.1934   -6.7061  -13.8928 C   0  0  0  0  0  0  0  0  0  0  0  0
   21.4912   -7.0555  -14.5878 C   0  0  0  0  0  0  0  0  0  0  0  0
   21.2271   -7.7202  -15.9046 C   0  0  0  0  0  0  0  0  0  0  0  0
   22.5012   -8.1492  -16.5603 C   0  0  0  0  0  0  0  0  0  0  0  0
   22.1376   -8.8892  -17.7651 N   0  0  0  0  0  0  0  0  0  0  0  0
   21.3067   -4.9413  -12.6330 C   0  0  0  0  0  0  0  0  0  0  0  0
   22.5544   -5.0652  -12.6051 O   0  0  0  0  0  0  0  0  0  0  0  0
   20.7654   -3.6765  -12.7770 O   0  0  0  0  0  0  0  0  0  0  0  0
  2  1  1  6
  2  7  1  0
  3  2  1  0
  4  5  1  0
  4  3  1  0
  5  9  1  0
  6  5  2  0
  7  8  2  0
 10  7  1  0
 10 11  1  0
 11 14  1  0
 11 12  1  1
 12 13  1  0
 14 15  2  0
 16 17  1  0
 16 14  1  0
 17 23  1  0
 17 18  1  6
 19 18  1  0
 20 19  1  0
 21 20  1  0
 21 22  1  0
 23 24  2  0
 23 25  1  0
M  END
$$$$
