ECK.pdb
     RDKit          3D

 25 24  0  0  1  0  0  0  0  0999 V2000
   25.1161  -11.5154  -20.4171 N   0  0  0  0  0  0  0  0  0  0  0  0
   24.2078  -12.1729  -19.4575 C   0  0  1  0  0  0  0  0  0  0  0  0
   24.5069  -13.6325  -19.3625 C   0  0  0  0  0  0  0  0  0  0  0  0
   24.9402  -14.2941  -20.6237 C   0  0  0  0  0  0  0  0  0  0  0  0
   23.7821  -14.5043  -21.5283 C   0  0  0  0  0  0  0  0  0  0  0  0
   23.8404  -14.0938  -22.7071 O   0  0  0  0  0  0  0  0  0  0  0  0
   24.2554  -11.4510  -18.1774 C   0  0  0  0  0  0  0  0  0  0  0  0
   23.5812  -11.8866  -17.2134 O   0  0  0  0  0  0  0  0  0  0  0  0
   22.6354  -15.1441  -21.1020 O   0  0  0  0  0  0  0  0  0  0  0  0
   25.0161  -10.2843  -17.9478 N   0  0  0  0  0  0  0  0  0  0  0  0
   25.0080   -9.6446  -16.6764 C   0  0  1  0  0  0  0  0  0  0  0  0
   26.3719   -9.5372  -16.0415 C   0  0  0  0  0  0  0  0  0  0  0  0
   26.3515   -9.6746  -14.2626 S   0  0  0  0  0  0  0  0  0  0  0  0
   24.3404   -8.2988  -16.7477 C   0  0  0  0  0  0  0  0  0  0  0  0
   24.7761   -7.3906  -17.5110 O   0  0  0  0  0  0  0  0  0  0  0  0
   23.2008   -7.9876  -15.9692 N   0  0  0  0  0  0  0  0  0  0  0  0
   22.5497   -6.6932  -16.0407 C   0  0  1  0  0  0  0  0  0  0  0  0
   21.0545   -6.9011  -16.1210 C   0  0  0  0  0  0  0  0  0  0  0  0
   20.5910   -7.0813  -17.5500 C   0  0  0  0  0  0  0  0  0  0  0  0
   19.1317   -7.4189  -17.5972 C   0  0  0  0  0  0  0  0  0  0  0  0
   18.6962   -7.7475  -18.9899 C   0  0  0  0  0  0  0  0  0  0  0  0
   17.2744   -8.0733  -18.9309 N   0  0  0  0  0  0  0  0  0  0  0  0
   22.8590   -5.9048  -14.8202 C   0  0  0  0  0  0  0  0  0  0  0  0
   23.2435   -6.4833  -13.7760 O   0  0  0  0  0  0  0  0  0  0  0  0
   22.7303   -4.5275  -14.8105 O   0  0  0  0  0  0  0  0  0  0  0  0
  2  1  1  6
  2  7  1  0
  3  2  1  0
  4  5  1  0
  4  3  1  0
  5  9  1  0
  6  5  2  0
  7  8  2  0
 10  7  1  0
 10 11  1  0
 11 14  1  0
 11 12  1  6
 12 13  1  0
 14 15  2  0
 16 17  1  0
 16 14  1  0
 17 23  1  0
 17 18  1  1
 19 18  1  0
 20 19  1  0
 21 20  1  0
 21 22  1  0
 23 24  2  0
 23 25  1  0
M  END
$$$$
