ECK.pdb
     RDKit          3D

 25 24  0  0  1  0  0  0  0  0999 V2000
   18.7415  -13.2982  -17.3870 N   0  0  0  0  0  0  0  0  0  0  0  0
   17.8393  -12.8752  -16.2984 C   0  0  1  0  0  0  0  0  0  0  0  0
   17.5646  -14.0109  -15.3690 C   0  0  0  0  0  0  0  0  0  0  0  0
   16.9420  -15.2180  -15.9785 C   0  0  0  0  0  0  0  0  0  0  0  0
   16.8925  -16.3319  -14.9984 C   0  0  0  0  0  0  0  0  0  0  0  0
   17.9390  -16.6820  -14.4123 O   0  0  0  0  0  0  0  0  0  0  0  0
   18.3915  -11.6740  -15.6548 C   0  0  0  0  0  0  0  0  0  0  0  0
   17.7554  -11.1492  -14.7095 O   0  0  0  0  0  0  0  0  0  0  0  0
   15.7161  -16.9963  -14.7143 O   0  0  0  0  0  0  0  0  0  0  0  0
   19.6049  -11.0563  -16.0272 N   0  0  0  0  0  0  0  0  0  0  0  0
   20.0790   -9.9031  -15.3409 C   0  0  1  0  0  0  0  0  0  0  0  0
   21.5792   -9.7508  -15.3732 C   0  0  0  0  0  0  0  0  0  0  0  0
   22.1613   -8.2058  -14.6966 S   0  0  0  0  0  0  0  0  0  0  0  0
   19.4009   -8.6560  -15.8380 C   0  0  0  0  0  0  0  0  0  0  0  0
   19.3377   -8.3918  -17.0722 O   0  0  0  0  0  0  0  0  0  0  0  0
   18.8057   -7.7258  -14.9536 N   0  0  0  0  0  0  0  0  0  0  0  0
   18.2515   -6.4681  -15.4179 C   0  0  1  0  0  0  0  0  0  0  0  0
   16.8966   -6.2646  -14.7790 C   0  0  0  0  0  0  0  0  0  0  0  0
   16.2581   -4.9668  -15.2233 C   0  0  0  0  0  0  0  0  0  0  0  0
   14.9327   -4.7693  -14.5527 C   0  0  0  0  0  0  0  0  0  0  0  0
   14.2459   -3.5415  -15.0607 C   0  0  0  0  0  0  0  0  0  0  0  0
   12.9860   -3.4205  -14.3330 N   0  0  0  0  0  0  0  0  0  0  0  0
   19.1418   -5.3472  -15.0207 C   0  0  0  0  0  0  0  0  0  0  0  0
   18.9483   -4.1955  -15.4778 O   0  0  0  0  0  0  0  0  0  0  0  0
   20.1939   -5.5491  -14.1456 O   0  0  0  0  0  0  0  0  0  0  0  0
  2  1  1  6
  2  7  1  0
  3  2  1  0
  4  5  1  0
  4  3  1  0
  5  9  1  0
  6  5  2  0
  7  8  2  0
 10  7  1  0
 10 11  1  0
 11 14  1  0
 11 12  1  6
 12 13  1  0
 14 15  2  0
 16 17  1  0
 16 14  1  0
 17 23  1  0
 17 18  1  1
 19 18  1  0
 20 19  1  0
 21 20  1  0
 21 22  1  0
 23 24  2  0
 23 25  1  0
M  END
$$$$
