ECK.pdb
     RDKit          3D

 25 24  0  0  1  0  0  0  0  0999 V2000
   19.5279  -13.5445  -17.0247 N   0  0  0  0  0  0  0  0  0  0  0  0
   19.2148  -12.1049  -17.1114 C   0  0  1  0  0  0  0  0  0  0  0  0
   17.7381  -11.8867  -17.1406 C   0  0  0  0  0  0  0  0  0  0  0  0
   17.0621  -12.1645  -18.4375 C   0  0  0  0  0  0  0  0  0  0  0  0
   17.0032  -10.9367  -19.2698 C   0  0  0  0  0  0  0  0  0  0  0  0
   17.6282  -10.8966  -20.3511 O   0  0  0  0  0  0  0  0  0  0  0  0
   19.9202  -11.3931  -16.0353 C   0  0  0  0  0  0  0  0  0  0  0  0
   20.2179  -12.0206  -14.9907 O   0  0  0  0  0  0  0  0  0  0  0  0
   16.2734   -9.8311  -18.8811 O   0  0  0  0  0  0  0  0  0  0  0  0
   20.2940  -10.0330  -16.0905 N   0  0  0  0  0  0  0  0  0  0  0  0
   21.1042   -9.4556  -15.0727 C   0  0  1  0  0  0  0  0  0  0  0  0
   22.4352  -10.1419  -14.8933 C   0  0  0  0  0  0  0  0  0  0  0  0
   23.4383  -10.1659  -16.3688 S   0  0  0  0  0  0  0  0  0  0  0  0
   21.2858   -7.9789  -15.2931 C   0  0  0  0  0  0  0  0  0  0  0  0
   21.5972   -7.5190  -16.4283 O   0  0  0  0  0  0  0  0  0  0  0  0
   21.1178   -7.0410  -14.2472 N   0  0  0  0  0  0  0  0  0  0  0  0
   21.2398   -5.6123  -14.4675 C   0  0  1  0  0  0  0  0  0  0  0  0
   19.9186   -4.9526  -14.1446 C   0  0  0  0  0  0  0  0  0  0  0  0
   18.8730   -5.2501  -15.1970 C   0  0  0  0  0  0  0  0  0  0  0  0
   17.5990   -4.5179  -14.9029 C   0  0  0  0  0  0  0  0  0  0  0  0
   16.5181   -4.9045  -15.8618 C   0  0  0  0  0  0  0  0  0  0  0  0
   15.3096   -4.1915  -15.4586 N   0  0  0  0  0  0  0  0  0  0  0  0
   22.2863   -5.0517  -13.5744 C   0  0  0  0  0  0  0  0  0  0  0  0
   22.7556   -5.7443  -12.6401 O   0  0  0  0  0  0  0  0  0  0  0  0
   22.7606   -3.7647  -13.7535 O   0  0  0  0  0  0  0  0  0  0  0  0
  2  1  1  1
  2  7  1  0
  3  2  1  0
  4  5  1  0
  4  3  1  0
  5  9  1  0
  6  5  2  0
  7  8  2  0
 10  7  1  0
 10 11  1  0
 11 14  1  0
 11 12  1  6
 12 13  1  0
 14 15  2  0
 16 17  1  0
 16 14  1  0
 17 23  1  0
 17 18  1  1
 19 18  1  0
 20 19  1  0
 21 20  1  0
 21 22  1  0
 23 24  2  0
 23 25  1  0
M  END
$$$$
