IKT.pdb
     RDKit          3D

 25 24  0  0  1  0  0  0  0  0999 V2000
   25.1485  -14.7485  -19.6654 C   0  0  0  0  0  0  0  0  0  0  0  0
   25.1979  -14.0169  -18.3553 C   0  0  0  0  0  0  0  0  0  0  0  0
   24.4098  -12.7593  -18.2880 C   0  0  2  0  0  0  0  0  0  0  0  0
   24.6443  -11.8810  -19.5030 C   0  0  0  0  0  0  0  0  0  0  0  0
   24.3691  -12.0069  -17.0202 C   0  0  2  0  0  0  0  0  0  0  0  0
   24.2554  -13.0176  -15.9563 N   0  0  0  0  0  0  0  0  0  0  0  0
   23.3903  -10.9435  -16.8627 C   0  0  0  0  0  0  0  0  0  0  0  0
   23.4000   -9.8745  -17.5268 O   0  0  0  0  0  0  0  0  0  0  0  0
   22.2953  -11.0043  -15.9189 N   0  0  0  0  0  0  0  0  0  0  0  0
   21.2509  -10.0061  -15.8752 C   0  0  1  0  0  0  0  0  0  0  0  0
   20.0315  -10.4761  -15.1291 C   0  0  0  0  0  0  0  0  0  0  0  0
   18.9374   -9.4535  -15.0310 C   0  0  0  0  0  0  0  0  0  0  0  0
   17.6549   -9.9506  -15.6528 C   0  0  0  0  0  0  0  0  0  0  0  0
   16.5888   -8.8934  -15.5457 C   0  0  0  0  0  0  0  0  0  0  0  0
   15.3278   -9.4531  -16.0350 N   0  0  0  0  0  0  0  0  0  0  0  0
   21.7972   -8.8479  -15.1154 C   0  0  0  0  0  0  0  0  0  0  0  0
   22.5970   -8.9937  -14.1547 O   0  0  0  0  0  0  0  0  0  0  0  0
   22.6676   -3.9935  -14.7941 C   0  0  0  0  0  0  0  0  0  0  0  0
   22.0920   -5.1535  -15.5782 C   0  0  1  0  0  0  0  0  0  0  0  0
   22.9707   -5.4494  -16.6164 O   0  0  0  0  0  0  0  0  0  0  0  0
   21.9870   -6.3995  -14.7017 C   0  0  2  0  0  0  0  0  0  0  0  0
   21.4358   -7.5143  -15.4448 N   0  0  0  0  0  0  0  0  0  0  0  0
   21.1800   -6.0917  -13.5105 C   0  0  0  0  0  0  0  0  0  0  0  0
   19.9270   -5.9527  -13.5414 O   0  0  0  0  0  0  0  0  0  0  0  0
   21.8263   -5.9467  -12.2924 O   0  0  0  0  0  0  0  0  0  0  0  0
  2  1  1  0
  3  2  1  0
  3  4  1  6
  5  3  1  0
  5  7  1  0
  5  6  1  1
  7  8  2  0
  9 10  1  0
  9  7  1  0
 11 12  1  0
 10 11  1  1
 12 13  1  0
 13 14  1  0
 14 15  1  0
 16 10  1  0
 17 16  2  0
 19 18  1  1
 19 21  1  0
 20 19  1  0
 21 22  1  6
 21 23  1  0
 22 16  1  0
 23 25  1  0
 24 23  2  0
M  END
$$$$
