IKT.pdb
     RDKit          3D

 25 24  0  0  1  0  0  0  0  0999 V2000
   22.5578  -20.8494   -7.9519 C   0  0  0  0  0  0  0  0  0  0  0  0
   23.9546  -21.0323   -8.4713 C   0  0  0  0  0  0  0  0  0  0  0  0
   24.1955  -20.5553   -9.8575 C   0  0  2  0  0  0  0  0  0  0  0  0
   23.0603  -20.9354  -10.7900 C   0  0  0  0  0  0  0  0  0  0  0  0
   25.5312  -20.7383  -10.4556 C   0  0  2  0  0  0  0  0  0  0  0  0
   26.4896  -20.2259   -9.4631 N   0  0  0  0  0  0  0  0  0  0  0  0
   25.7887  -20.2030  -11.7825 C   0  0  0  0  0  0  0  0  0  0  0  0
   25.9370  -18.9780  -12.0302 O   0  0  0  0  0  0  0  0  0  0  0  0
   25.9019  -21.0292  -12.9649 N   0  0  0  0  0  0  0  0  0  0  0  0
   26.2258  -20.4856  -14.2644 C   0  0  1  0  0  0  0  0  0  0  0  0
   27.4570  -21.1106  -14.8630 C   0  0  0  0  0  0  0  0  0  0  0  0
   27.1931  -21.9465  -16.0812 C   0  0  0  0  0  0  0  0  0  0  0  0
   27.6090  -23.3822  -15.8707 C   0  0  0  0  0  0  0  0  0  0  0  0
   28.9367  -23.6347  -16.5334 C   0  0  0  0  0  0  0  0  0  0  0  0
   28.7395  -23.6377  -17.9839 N   0  0  0  0  0  0  0  0  0  0  0  0
   25.0913  -20.8271  -15.1663 C   0  0  0  0  0  0  0  0  0  0  0  0
   24.5778  -21.9757  -15.1919 O   0  0  0  0  0  0  0  0  0  0  0  0
   21.5908  -19.4309  -15.3379 C   0  0  0  0  0  0  0  0  0  0  0  0
   22.2535  -19.2132  -16.6815 C   0  0  1  0  0  0  0  0  0  0  0  0
   22.8004  -17.9332  -16.6893 O   0  0  0  0  0  0  0  0  0  0  0  0
   23.4012  -20.1998  -16.8844 C   0  0  2  0  0  0  0  0  0  0  0  0
   24.5333  -19.8616  -16.0462 N   0  0  0  0  0  0  0  0  0  0  0  0
   23.7723  -20.2307  -18.3079 C   0  0  0  0  0  0  0  0  0  0  0  0
   24.8956  -19.8518  -18.7379 O   0  0  0  0  0  0  0  0  0  0  0  0
   22.8431  -20.6991  -19.2243 O   0  0  0  0  0  0  0  0  0  0  0  0
  2  1  1  0
  3  2  1  0
  3  4  1  6
  5  3  1  0
  5  7  1  0
  5  6  1  1
  7  8  2  0
  9 10  1  0
  9  7  1  0
 11 12  1  0
 10 11  1  6
 12 13  1  0
 13 14  1  0
 14 15  1  0
 16 10  1  0
 17 16  2  0
 19 18  1  1
 19 21  1  0
 20 19  1  0
 21 22  1  1
 21 23  1  0
 22 16  1  0
 23 25  1  0
 24 23  2  0
M  END
$$$$
