IKT.pdb
     RDKit          3D

 25 24  0  0  1  0  0  0  0  0999 V2000
   25.9061  -20.5886   -7.7144 C   0  0  0  0  0  0  0  0  0  0  0  0
   24.9412  -20.1614   -8.7824 C   0  0  0  0  0  0  0  0  0  0  0  0
   25.2352  -20.6544  -10.1527 C   0  0  2  0  0  0  0  0  0  0  0  0
   26.7237  -20.6479  -10.4472 C   0  0  0  0  0  0  0  0  0  0  0  0
   24.4130  -20.1729  -11.2785 C   0  0  2  0  0  0  0  0  0  0  0  0
   23.0135  -20.3599  -10.8631 N   0  0  0  0  0  0  0  0  0  0  0  0
   24.6580  -20.7058  -12.6088 C   0  0  0  0  0  0  0  0  0  0  0  0
   25.6872  -20.4549  -13.2884 O   0  0  0  0  0  0  0  0  0  0  0  0
   23.7372  -21.5862  -13.2946 N   0  0  0  0  0  0  0  0  0  0  0  0
   23.9775  -22.0700  -14.6352 C   0  0  1  0  0  0  0  0  0  0  0  0
   23.4545  -23.4646  -14.8499 C   0  0  0  0  0  0  0  0  0  0  0  0
   24.4500  -24.4088  -15.4582 C   0  0  0  0  0  0  0  0  0  0  0  0
   23.8879  -25.8042  -15.5830 C   0  0  0  0  0  0  0  0  0  0  0  0
   24.8522  -26.6807  -16.3365 C   0  0  0  0  0  0  0  0  0  0  0  0
   24.3302  -28.0483  -16.3431 N   0  0  0  0  0  0  0  0  0  0  0  0
   23.2147  -21.1810  -15.5544 C   0  0  0  0  0  0  0  0  0  0  0  0
   22.1482  -20.6119  -15.2046 O   0  0  0  0  0  0  0  0  0  0  0  0
   23.1451  -18.1317  -19.3720 C   0  0  0  0  0  0  0  0  0  0  0  0
   23.8956  -19.0363  -18.4180 C   0  0  1  0  0  0  0  0  0  0  0  0
   24.4541  -18.2417  -17.4208 O   0  0  0  0  0  0  0  0  0  0  0  0
   22.9416  -20.0160  -17.7385 C   0  0  2  0  0  0  0  0  0  0  0  0
   23.6619  -20.9340  -16.8798 N   0  0  0  0  0  0  0  0  0  0  0  0
   22.1644  -20.7307  -18.7632 C   0  0  0  0  0  0  0  0  0  0  0  0
   22.3374  -21.9495  -19.0369 O   0  0  0  0  0  0  0  0  0  0  0  0
   21.1931  -20.0324  -19.4642 O   0  0  0  0  0  0  0  0  0  0  0  0
  2  1  1  0
  3  2  1  0
  3  4  1  6
  5  3  1  0
  5  7  1  0
  5  6  1  1
  7  8  2  0
  9 10  1  0
  9  7  1  0
 11 12  1  0
 10 11  1  1
 12 13  1  0
 13 14  1  0
 14 15  1  0
 16 10  1  0
 17 16  2  0
 19 18  1  6
 19 21  1  0
 20 19  1  0
 21 22  1  6
 21 23  1  0
 22 16  1  0
 23 25  1  0
 24 23  2  0
M  END
$$$$
