IKT.pdb
     RDKit          3D

 25 24  0  0  1  0  0  0  0  0999 V2000
   12.5754  -11.5172  -16.8465 C   0  0  0  0  0  0  0  0  0  0  0  0
   13.7982  -12.3810  -16.9591 C   0  0  0  0  0  0  0  0  0  0  0  0
   15.0749  -11.7512  -16.5343 C   0  0  2  0  0  0  0  0  0  0  0  0
   15.2821  -10.3985  -17.1899 C   0  0  0  0  0  0  0  0  0  0  0  0
   16.2983  -12.5735  -16.4882 C   0  0  2  0  0  0  0  0  0  0  0  0
   15.9825  -13.7155  -15.6152 N   0  0  0  0  0  0  0  0  0  0  0  0
   17.5569  -11.9447  -16.1218 C   0  0  0  0  0  0  0  0  0  0  0  0
   17.8891  -11.6725  -14.9388 O   0  0  0  0  0  0  0  0  0  0  0  0
   18.5657  -11.5636  -17.0865 N   0  0  0  0  0  0  0  0  0  0  0  0
   19.8333  -10.9876  -16.6986 C   0  0  1  0  0  0  0  0  0  0  0  0
   20.9638  -11.4210  -17.5924 C   0  0  0  0  0  0  0  0  0  0  0  0
   21.4439  -12.8209  -17.3432 C   0  0  0  0  0  0  0  0  0  0  0  0
   22.4917  -13.2361  -18.3473 C   0  0  0  0  0  0  0  0  0  0  0  0
   22.9031  -14.6628  -18.1002 C   0  0  0  0  0  0  0  0  0  0  0  0
   23.9941  -14.9978  -19.0168 N   0  0  0  0  0  0  0  0  0  0  0  0
   19.7012   -9.5134  -16.8606 C   0  0  0  0  0  0  0  0  0  0  0  0
   19.0119   -8.9991  -17.7793 O   0  0  0  0  0  0  0  0  0  0  0  0
   17.7415   -7.6693  -16.7108 C   0  0  0  0  0  0  0  0  0  0  0  0
   18.6434   -6.8632  -15.8006 C   0  0  1  0  0  0  0  0  0  0  0  0
   18.3693   -7.2318  -14.4866 O   0  0  0  0  0  0  0  0  0  0  0  0
   20.1113   -7.1885  -16.0677 C   0  0  2  0  0  0  0  0  0  0  0  0
   20.3541   -8.6138  -15.9762 N   0  0  0  0  0  0  0  0  0  0  0  0
   20.9570   -6.4344  -15.1291 C   0  0  0  0  0  0  0  0  0  0  0  0
   21.6157   -6.9786  -14.2017 O   0  0  0  0  0  0  0  0  0  0  0  0
   21.0356   -5.0571  -15.2687 O   0  0  0  0  0  0  0  0  0  0  0  0
  2  1  1  0
  3  2  1  0
  3  4  1  6
  5  3  1  0
  5  7  1  0
  5  6  1  1
  7  8  2  0
  9 10  1  0
  9  7  1  0
 11 12  1  0
 10 11  1  6
 12 13  1  0
 13 14  1  0
 14 15  1  0
 16 10  1  0
 17 16  2  0
 19 18  1  6
 19 21  1  0
 20 19  1  0
 21 22  1  1
 21 23  1  0
 22 16  1  0
 23 25  1  0
 24 23  2  0
M  END
$$$$
