IKT.pdb
     RDKit          3D

 25 24  0  0  1  0  0  0  0  0999 V2000
   22.8074  -33.8298  -13.8173 C   0  0  0  0  0  0  0  0  0  0  0  0
   23.9076  -33.1261  -13.0767 C   0  0  0  0  0  0  0  0  0  0  0  0
   24.1871  -33.6277  -11.7065 C   0  0  2  0  0  0  0  0  0  0  0  0
   22.9132  -33.8150  -10.9037 C   0  0  0  0  0  0  0  0  0  0  0  0
   25.2841  -33.0189  -10.9312 C   0  0  2  0  0  0  0  0  0  0  0  0
   26.4658  -33.0579  -11.8077 N   0  0  0  0  0  0  0  0  0  0  0  0
   25.5785  -33.5328   -9.6034 C   0  0  0  0  0  0  0  0  0  0  0  0
   24.8389  -34.3389   -8.9812 O   0  0  0  0  0  0  0  0  0  0  0  0
   26.7612  -33.1680   -8.8539 N   0  0  0  0  0  0  0  0  0  0  0  0
   27.1630  -33.8610   -7.6508 C   0  0  1  0  0  0  0  0  0  0  0  0
   28.6442  -33.7740   -7.3999 C   0  0  0  0  0  0  0  0  0  0  0  0
   29.1091  -34.5294   -6.1892 C   0  0  0  0  0  0  0  0  0  0  0  0
   30.6069  -34.4440   -6.0222 C   0  0  0  0  0  0  0  0  0  0  0  0
   31.0554  -35.3745   -4.9273 C   0  0  0  0  0  0  0  0  0  0  0  0
   32.5173  -35.3420   -4.8590 N   0  0  0  0  0  0  0  0  0  0  0  0
   26.4953  -33.1682   -6.5144 C   0  0  0  0  0  0  0  0  0  0  0  0
   26.5919  -31.9262   -6.3367 O   0  0  0  0  0  0  0  0  0  0  0  0
   22.8369  -33.0080   -5.4692 C   0  0  0  0  0  0  0  0  0  0  0  0
   23.6336  -33.5633   -4.3079 C   0  0  1  0  0  0  0  0  0  0  0  0
   23.5399  -34.9517   -4.3464 O   0  0  0  0  0  0  0  0  0  0  0  0
   25.1112  -33.2029   -4.4444 C   0  0  2  0  0  0  0  0  0  0  0  0
   25.7122  -33.8862   -5.5717 N   0  0  0  0  0  0  0  0  0  0  0  0
   25.8084  -33.5170   -3.1873 C   0  0  0  0  0  0  0  0  0  0  0  0
   26.6875  -34.4158   -3.0903 O   0  0  0  0  0  0  0  0  0  0  0  0
   25.4849  -32.7904   -2.0516 O   0  0  0  0  0  0  0  0  0  0  0  0
  2  1  1  0
  3  2  1  0
  3  4  1  1
  5  3  1  0
  5  7  1  0
  5  6  1  6
  7  8  2  0
  9 10  1  0
  9  7  1  0
 11 12  1  0
 10 11  1  1
 12 13  1  0
 13 14  1  0
 14 15  1  0
 16 10  1  0
 17 16  2  0
 19 18  1  6
 19 21  1  0
 20 19  1  0
 21 22  1  6
 21 23  1  0
 22 16  1  0
 23 25  1  0
 24 23  2  0
M  END
$$$$
