IKT.pdb
     RDKit          3D

 25 24  0  0  1  0  0  0  0  0999 V2000
   16.4203  -12.6700  -15.0382 C   0  0  0  0  0  0  0  0  0  0  0  0
   17.4807  -12.3609  -16.0552 C   0  0  0  0  0  0  0  0  0  0  0  0
   18.4481  -11.2989  -15.6766 C   0  0  2  0  0  0  0  0  0  0  0  0
   17.7524  -10.0866  -15.0859 C   0  0  0  0  0  0  0  0  0  0  0  0
   19.5339  -10.9529  -16.6128 C   0  0  2  0  0  0  0  0  0  0  0  0
   20.1342  -12.2326  -17.0230 N   0  0  0  0  0  0  0  0  0  0  0  0
   20.5422   -9.9909  -16.1984 C   0  0  0  0  0  0  0  0  0  0  0  0
   20.8131   -9.7292  -14.9976 O   0  0  0  0  0  0  0  0  0  0  0  0
   21.3446   -9.2288  -17.1305 N   0  0  0  0  0  0  0  0  0  0  0  0
   22.3234   -8.2568  -16.6991 C   0  0  1  0  0  0  0  0  0  0  0  0
   23.2533   -7.8406  -17.8067 C   0  0  0  0  0  0  0  0  0  0  0  0
   24.3375   -6.8956  -17.3780 C   0  0  0  0  0  0  0  0  0  0  0  0
   25.3406   -6.6634  -18.4819 C   0  0  0  0  0  0  0  0  0  0  0  0
   26.5014   -5.8594  -17.9602 C   0  0  0  0  0  0  0  0  0  0  0  0
   27.4684   -5.6809  -19.0445 N   0  0  0  0  0  0  0  0  0  0  0  0
   21.5681   -7.0390  -16.2945 C   0  0  0  0  0  0  0  0  0  0  0  0
   20.9110   -6.3530  -17.1199 O   0  0  0  0  0  0  0  0  0  0  0  0
   18.6109   -6.3239  -14.7263 C   0  0  0  0  0  0  0  0  0  0  0  0
   19.6031   -5.5991  -13.8421 C   0  0  1  0  0  0  0  0  0  0  0  0
   19.8970   -6.4232  -12.7594 O   0  0  0  0  0  0  0  0  0  0  0  0
   20.9103   -5.3468  -14.5900 C   0  0  2  0  0  0  0  0  0  0  0  0
   21.5561   -6.5939  -14.9458 N   0  0  0  0  0  0  0  0  0  0  0  0
   21.7874   -4.4989  -13.7674 C   0  0  0  0  0  0  0  0  0  0  0  0
   22.9037   -4.8837  -13.3245 O   0  0  0  0  0  0  0  0  0  0  0  0
   21.3687   -3.2127  -13.4626 O   0  0  0  0  0  0  0  0  0  0  0  0
  2  1  1  0
  3  2  1  0
  3  4  1  6
  5  3  1  0
  5  7  1  0
  5  6  1  1
  7  8  2  0
  9 10  1  0
  9  7  1  0
 11 12  1  0
 10 11  1  6
 12 13  1  0
 13 14  1  0
 14 15  1  0
 16 10  1  0
 17 16  2  0
 19 18  1  6
 19 21  1  0
 20 19  1  0
 21 22  1  1
 21 23  1  0
 22 16  1  0
 23 25  1  0
 24 23  2  0
M  END
$$$$
