IKT.pdb
     RDKit          3D

 25 24  0  0  1  0  0  0  0  0999 V2000
   15.0867  -11.5751  -15.0658 C   0  0  0  0  0  0  0  0  0  0  0  0
   16.2558  -11.7746  -15.9864 C   0  0  0  0  0  0  0  0  0  0  0  0
   17.4963  -11.0425  -15.6225 C   0  0  2  0  0  0  0  0  0  0  0  0
   17.2097   -9.6024  -15.2401 C   0  0  0  0  0  0  0  0  0  0  0  0
   18.6933  -11.1965  -16.4704 C   0  0  2  0  0  0  0  0  0  0  0  0
   18.9781  -12.6400  -16.5055 N   0  0  0  0  0  0  0  0  0  0  0  0
   19.8815  -10.4183  -16.1603 C   0  0  0  0  0  0  0  0  0  0  0  0
   20.6857  -10.7010  -15.2344 O   0  0  0  0  0  0  0  0  0  0  0  0
   20.2656   -9.2290  -16.8894 N   0  0  0  0  0  0  0  0  0  0  0  0
   21.4628   -8.4807  -16.5797 C   0  0  1  0  0  0  0  0  0  0  0  0
   22.2509   -8.1147  -17.8084 C   0  0  0  0  0  0  0  0  0  0  0  0
   22.6724   -9.2893  -18.6421 C   0  0  0  0  0  0  0  0  0  0  0  0
   23.6137   -8.8767  -19.7477 C   0  0  0  0  0  0  0  0  0  0  0  0
   24.0635  -10.0890  -20.5183 C   0  0  0  0  0  0  0  0  0  0  0  0
   24.9753   -9.6548  -21.5779 N   0  0  0  0  0  0  0  0  0  0  0  0
   21.0198   -7.2017  -15.9592 C   0  0  0  0  0  0  0  0  0  0  0  0
   20.2370   -6.4087  -16.5442 O   0  0  0  0  0  0  0  0  0  0  0  0
   18.9320   -6.5080  -13.1530 C   0  0  0  0  0  0  0  0  0  0  0  0
   20.2169   -5.7761  -12.8286 C   0  0  1  0  0  0  0  0  0  0  0  0
   20.9665   -6.5804  -11.9748 O   0  0  0  0  0  0  0  0  0  0  0  0
   21.0468   -5.5550  -14.0912 C   0  0  2  0  0  0  0  0  0  0  0  0
   21.4659   -6.8167  -14.6668 N   0  0  0  0  0  0  0  0  0  0  0  0
   22.1985   -4.6960  -13.7740 C   0  0  0  0  0  0  0  0  0  0  0  0
   23.3959   -5.0728  -13.8947 O   0  0  0  0  0  0  0  0  0  0  0  0
   21.9587   -3.4082  -13.3196 O   0  0  0  0  0  0  0  0  0  0  0  0
  2  1  1  0
  3  2  1  0
  3  4  1  6
  5  3  1  0
  5  7  1  0
  5  6  1  1
  7  8  2  0
  9 10  1  0
  9  7  1  0
 11 12  1  0
 10 11  1  6
 12 13  1  0
 13 14  1  0
 14 15  1  0
 16 10  1  0
 17 16  2  0
 19 18  1  6
 19 21  1  0
 20 19  1  0
 21 22  1  1
 21 23  1  0
 22 16  1  0
 23 25  1  0
 24 23  2  0
M  END
$$$$
