IKT.pdb
     RDKit          3D

 25 24  0  0  1  0  0  0  0  0999 V2000
   26.9853  -31.9154   -7.6614 C   0  0  0  0  0  0  0  0  0  0  0  0
   26.9528  -33.2807   -7.0376 C   0  0  0  0  0  0  0  0  0  0  0  0
   28.2765  -33.8975   -6.7648 C   0  0  2  0  0  0  0  0  0  0  0  0
   29.1666  -33.8893   -7.9937 C   0  0  0  0  0  0  0  0  0  0  0  0
   28.3348  -35.1617   -6.0076 C   0  0  2  0  0  0  0  0  0  0  0  0
   27.1209  -35.1884   -5.1757 N   0  0  0  0  0  0  0  0  0  0  0  0
   29.5274  -35.4654   -5.2336 C   0  0  0  0  0  0  0  0  0  0  0  0
   30.6492  -35.7236   -5.7423 O   0  0  0  0  0  0  0  0  0  0  0  0
   29.5485  -35.5029   -3.7873 N   0  0  0  0  0  0  0  0  0  0  0  0
   30.7575  -35.7478   -3.0341 C   0  0  1  0  0  0  0  0  0  0  0  0
   30.6634  -35.2601   -1.6135 C   0  0  0  0  0  0  0  0  0  0  0  0
   31.8957  -35.5095   -0.7939 C   0  0  0  0  0  0  0  0  0  0  0  0
   31.7229  -35.0335    0.6281 C   0  0  0  0  0  0  0  0  0  0  0  0
   33.0026  -35.2326    1.3953 C   0  0  0  0  0  0  0  0  0  0  0  0
   32.8076  -34.7418    2.7606 N   0  0  0  0  0  0  0  0  0  0  0  0
   30.9291  -37.2254   -2.9684 C   0  0  0  0  0  0  0  0  0  0  0  0
   30.0022  -37.9920   -2.5983 O   0  0  0  0  0  0  0  0  0  0  0  0
   31.2021  -39.8561   -5.3554 C   0  0  0  0  0  0  0  0  0  0  0  0
   32.4915  -39.9310   -4.5658 C   0  0  1  0  0  0  0  0  0  0  0  0
   33.4620  -39.2113   -5.2571 O   0  0  0  0  0  0  0  0  0  0  0  0
   32.3264  -39.2741   -3.1972 C   0  0  2  0  0  0  0  0  0  0  0  0
   32.1589  -37.8407   -3.3242 N   0  0  0  0  0  0  0  0  0  0  0  0
   33.4824  -39.6108   -2.3515 C   0  0  0  0  0  0  0  0  0  0  0  0
   33.7548  -40.7877   -1.9897 O   0  0  0  0  0  0  0  0  0  0  0  0
   34.3153  -38.5856   -1.9301 O   0  0  0  0  0  0  0  0  0  0  0  0
  2  1  1  0
  3  2  1  0
  3  4  1  6
  5  3  1  0
  5  7  1  0
  5  6  1  1
  7  8  2  0
  9 10  1  0
  9  7  1  0
 11 12  1  0
 10 11  1  1
 12 13  1  0
 13 14  1  0
 14 15  1  0
 16 10  1  0
 17 16  2  0
 19 18  1  6
 19 21  1  0
 20 19  1  0
 21 22  1  6
 21 23  1  0
 22 16  1  0
 23 25  1  0
 24 23  2  0
M  END
$$$$
