IKT.pdb
     RDKit          3D

 25 24  0  0  1  0  0  0  0  0999 V2000
   16.4559  -14.2199  -16.2929 C   0  0  0  0  0  0  0  0  0  0  0  0
   16.8379  -13.8391  -14.8917 C   0  0  0  0  0  0  0  0  0  0  0  0
   16.2844  -12.5515  -14.3991 C   0  0  2  0  0  0  0  0  0  0  0  0
   16.5257  -11.4209  -15.3819 C   0  0  0  0  0  0  0  0  0  0  0  0
   16.5123  -12.1652  -12.9941 C   0  0  2  0  0  0  0  0  0  0  0  0
   16.2174  -13.3650  -12.1943 N   0  0  0  0  0  0  0  0  0  0  0  0
   15.8413  -10.9870  -12.4692 C   0  0  0  0  0  0  0  0  0  0  0  0
   15.6353   -9.9395  -13.1357 O   0  0  0  0  0  0  0  0  0  0  0  0
   15.3371  -10.8959  -11.1161 N   0  0  0  0  0  0  0  0  0  0  0  0
   14.6217   -9.7379  -10.6300 C   0  0  1  0  0  0  0  0  0  0  0  0
   13.5899  -10.0884   -9.5920 C   0  0  0  0  0  0  0  0  0  0  0  0
   12.7942   -8.9171   -9.0946 C   0  0  0  0  0  0  0  0  0  0  0  0
   11.7369   -9.3436   -8.1054 C   0  0  0  0  0  0  0  0  0  0  0  0
   10.9883   -8.1384   -7.6024 C   0  0  0  0  0  0  0  0  0  0  0  0
    9.9601   -8.5882   -6.6626 N   0  0  0  0  0  0  0  0  0  0  0  0
   15.6246   -8.8658   -9.9585 C   0  0  0  0  0  0  0  0  0  0  0  0
   16.3870   -9.2948   -9.0538 O   0  0  0  0  0  0  0  0  0  0  0  0
   18.7287   -7.6595  -10.7224 C   0  0  0  0  0  0  0  0  0  0  0  0
   17.9460   -6.3848  -10.4895 C   0  0  1  0  0  0  0  0  0  0  0  0
   17.4891   -5.9288  -11.7228 O   0  0  0  0  0  0  0  0  0  0  0  0
   16.7193   -6.6546   -9.6210 C   0  0  2  0  0  0  0  0  0  0  0  0
   15.7661   -7.4977  -10.3133 N   0  0  0  0  0  0  0  0  0  0  0  0
   16.1161   -5.3747   -9.2172 C   0  0  0  0  0  0  0  0  0  0  0  0
   16.6936   -4.5460   -8.4623 O   0  0  0  0  0  0  0  0  0  0  0  0
   14.8503   -5.0616   -9.6885 O   0  0  0  0  0  0  0  0  0  0  0  0
  2  1  1  0
  3  2  1  0
  3  4  1  6
  5  3  1  0
  5  7  1  0
  5  6  1  1
  7  8  2  0
  9 10  1  0
  9  7  1  0
 11 12  1  0
 10 11  1  1
 12 13  1  0
 13 14  1  0
 14 15  1  0
 16 10  1  0
 17 16  2  0
 19 18  1  6
 19 21  1  0
 20 19  1  0
 21 22  1  6
 21 23  1  0
 22 16  1  0
 23 25  1  0
 24 23  2  0
M  END
$$$$
