IKT.pdb
     RDKit          3D

 25 24  0  0  1  0  0  0  0  0999 V2000
   28.7474  -16.7602  -16.9266 C   0  0  0  0  0  0  0  0  0  0  0  0
   27.5160  -17.2941  -17.5995 C   0  0  0  0  0  0  0  0  0  0  0  0
   26.2380  -17.0760  -16.8742 C   0  0  2  0  0  0  0  0  0  0  0  0
   26.3301  -17.5150  -15.4246 C   0  0  0  0  0  0  0  0  0  0  0  0
   24.9713  -17.4617  -17.5238 C   0  0  2  0  0  0  0  0  0  0  0  0
   25.0563  -16.9551  -18.9030 N   0  0  0  0  0  0  0  0  0  0  0  0
   23.7146  -17.0971  -16.8902 C   0  0  0  0  0  0  0  0  0  0  0  0
   23.4518  -17.3058  -15.6772 O   0  0  0  0  0  0  0  0  0  0  0  0
   22.6275  -16.4516  -17.5937 N   0  0  0  0  0  0  0  0  0  0  0  0
   21.4115  -16.0366  -16.9317 C   0  0  1  0  0  0  0  0  0  0  0  0
   20.7936  -14.8196  -17.5655 C   0  0  0  0  0  0  0  0  0  0  0  0
   21.7031  -14.0875  -18.5086 C   0  0  0  0  0  0  0  0  0  0  0  0
   21.0647  -13.9008  -19.8636 C   0  0  0  0  0  0  0  0  0  0  0  0
   22.0154  -13.1844  -20.7849 C   0  0  0  0  0  0  0  0  0  0  0  0
   21.3624  -13.0101  -22.0834 N   0  0  0  0  0  0  0  0  0  0  0  0
   20.4338  -17.1475  -17.0964 C   0  0  0  0  0  0  0  0  0  0  0  0
   20.2860  -17.7538  -18.1892 O   0  0  0  0  0  0  0  0  0  0  0  0
   20.3907  -20.3698  -15.3967 C   0  0  0  0  0  0  0  0  0  0  0  0
   19.0076  -19.7974  -15.1706 C   0  0  1  0  0  0  0  0  0  0  0  0
   18.9825  -19.2200  -13.9043 O   0  0  0  0  0  0  0  0  0  0  0  0
   18.7082  -18.6921  -16.1808 C   0  0  2  0  0  0  0  0  0  0  0  0
   19.6167  -17.5758  -16.0163 N   0  0  0  0  0  0  0  0  0  0  0  0
   17.3047  -18.2722  -16.0431 C   0  0  0  0  0  0  0  0  0  0  0  0
   16.9617  -17.1379  -15.6119 O   0  0  0  0  0  0  0  0  0  0  0  0
   16.3079  -19.1656  -16.4045 O   0  0  0  0  0  0  0  0  0  0  0  0
  2  1  1  0
  3  2  1  0
  3  4  1  1
  5  3  1  0
  5  7  1  0
  5  6  1  6
  7  8  2  0
  9 10  1  0
  9  7  1  0
 11 12  1  0
 10 11  1  6
 12 13  1  0
 13 14  1  0
 14 15  1  0
 16 10  1  0
 17 16  2  0
 19 18  1  6
 19 21  1  0
 20 19  1  0
 21 22  1  1
 21 23  1  0
 22 16  1  0
 23 25  1  0
 24 23  2  0
M  END
$$$$
