IKT.pdb
     RDKit          3D

 25 24  0  0  1  0  0  0  0  0999 V2000
   27.4846  -15.1772  -17.6115 C   0  0  0  0  0  0  0  0  0  0  0  0
   27.5618  -15.8991  -16.2973 C   0  0  0  0  0  0  0  0  0  0  0  0
   26.4085  -16.7784  -15.9752 C   0  0  2  0  0  0  0  0  0  0  0  0
   25.3984  -16.0801  -15.0838 C   0  0  0  0  0  0  0  0  0  0  0  0
   26.6622  -18.1788  -15.5880 C   0  0  2  0  0  0  0  0  0  0  0  0
   27.5118  -18.7419  -16.6497 N   0  0  0  0  0  0  0  0  0  0  0  0
   25.5323  -19.0420  -15.2848 C   0  0  0  0  0  0  0  0  0  0  0  0
   24.7659  -19.5296  -16.1559 O   0  0  0  0  0  0  0  0  0  0  0  0
   25.1689  -19.4330  -13.9399 N   0  0  0  0  0  0  0  0  0  0  0  0
   24.0852  -20.3484  -13.6630 C   0  0  1  0  0  0  0  0  0  0  0  0
   24.1499  -20.9183  -12.2718 C   0  0  0  0  0  0  0  0  0  0  0  0
   25.4291  -21.6386  -11.9602 C   0  0  0  0  0  0  0  0  0  0  0  0
   26.2824  -20.8605  -10.9881 C   0  0  0  0  0  0  0  0  0  0  0  0
   25.6673  -20.9051   -9.6150 C   0  0  0  0  0  0  0  0  0  0  0  0
   26.5661  -20.2259   -8.6803 N   0  0  0  0  0  0  0  0  0  0  0  0
   22.8259  -19.5579  -13.7432 C   0  0  0  0  0  0  0  0  0  0  0  0
   22.6190  -18.5514  -13.0166 O   0  0  0  0  0  0  0  0  0  0  0  0
   21.3944  -17.4490  -16.3602 C   0  0  0  0  0  0  0  0  0  0  0  0
   20.3648  -18.5259  -16.0918 C   0  0  1  0  0  0  0  0  0  0  0  0
   20.5521  -19.5424  -17.0241 O   0  0  0  0  0  0  0  0  0  0  0  0
   20.5686  -19.1355  -14.7066 C   0  0  2  0  0  0  0  0  0  0  0  0
   21.7927  -19.9086  -14.6526 N   0  0  0  0  0  0  0  0  0  0  0  0
   19.3966  -19.9530  -14.3559 C   0  0  0  0  0  0  0  0  0  0  0  0
   19.4591  -21.1937  -14.1391 O   0  0  0  0  0  0  0  0  0  0  0  0
   18.1611  -19.3314  -14.2583 O   0  0  0  0  0  0  0  0  0  0  0  0
  2  1  1  0
  3  2  1  0
  3  4  1  1
  5  3  1  0
  5  7  1  0
  5  6  1  6
  7  8  2  0
  9 10  1  0
  9  7  1  0
 11 12  1  0
 10 11  1  1
 12 13  1  0
 13 14  1  0
 14 15  1  0
 16 10  1  0
 17 16  2  0
 19 18  1  6
 19 21  1  0
 20 19  1  0
 21 22  1  6
 21 23  1  0
 22 16  1  0
 23 25  1  0
 24 23  2  0
M  END
$$$$
