IKT.pdb
     RDKit          3D

 25 24  0  0  1  0  0  0  0  0999 V2000
   17.8852  -13.7911  -18.9102 C   0  0  0  0  0  0  0  0  0  0  0  0
   18.6394  -13.3969  -17.6732 C   0  0  0  0  0  0  0  0  0  0  0  0
   18.4064  -12.0119  -17.1890 C   0  0  2  0  0  0  0  0  0  0  0  0
   18.5305  -10.9947  -18.3081 C   0  0  0  0  0  0  0  0  0  0  0  0
   19.0397  -11.5777  -15.9297 C   0  0  2  0  0  0  0  0  0  0  0  0
   18.8631  -12.6929  -14.9856 N   0  0  0  0  0  0  0  0  0  0  0  0
   18.6463  -10.3063  -15.3446 C   0  0  0  0  0  0  0  0  0  0  0  0
   18.5798   -9.2266  -15.9878 O   0  0  0  0  0  0  0  0  0  0  0  0
   18.2878  -10.1492  -13.9517 N   0  0  0  0  0  0  0  0  0  0  0  0
   17.9712   -8.8640  -13.3711 C   0  0  1  0  0  0  0  0  0  0  0  0
   17.2728   -8.9845  -12.0436 C   0  0  0  0  0  0  0  0  0  0  0  0
   15.8075   -9.2930  -12.1445 C   0  0  0  0  0  0  0  0  0  0  0  0
   15.1371   -9.2538  -10.7926 C   0  0  0  0  0  0  0  0  0  0  0  0
   13.6418   -9.3006  -10.9594 C   0  0  0  0  0  0  0  0  0  0  0  0
   13.0304   -9.4422   -9.6369 N   0  0  0  0  0  0  0  0  0  0  0  0
   19.2683   -8.1803  -13.1114 C   0  0  0  0  0  0  0  0  0  0  0  0
   20.1442   -8.6707  -12.3525 O   0  0  0  0  0  0  0  0  0  0  0  0
   21.4571   -6.5094  -15.8834 C   0  0  0  0  0  0  0  0  0  0  0  0
   21.9085   -6.7645  -14.4611 C   0  0  1  0  0  0  0  0  0  0  0  0
   23.0587   -6.0142  -14.2334 O   0  0  0  0  0  0  0  0  0  0  0  0
   20.8519   -6.2913  -13.4654 C   0  0  2  0  0  0  0  0  0  0  0  0
   19.5768   -6.9321  -13.7149 N   0  0  0  0  0  0  0  0  0  0  0  0
   20.7424   -4.8254  -13.5298 C   0  0  0  0  0  0  0  0  0  0  0  0
   19.6900   -4.2255  -13.8802 O   0  0  0  0  0  0  0  0  0  0  0  0
   21.8494   -4.0632  -13.1890 O   0  0  0  0  0  0  0  0  0  0  0  0
  2  1  1  0
  3  2  1  0
  3  4  1  6
  5  3  1  0
  5  7  1  0
  5  6  1  1
  7  8  2  0
  9 10  1  0
  9  7  1  0
 11 12  1  0
 10 11  1  1
 12 13  1  0
 13 14  1  0
 14 15  1  0
 16 10  1  0
 17 16  2  0
 19 18  1  6
 19 21  1  0
 20 19  1  0
 21 22  1  6
 21 23  1  0
 22 16  1  0
 23 25  1  0
 24 23  2  0
M  END
$$$$
