IKT.pdb
     RDKit          3D

 25 24  0  0  1  0  0  0  0  0999 V2000
   14.8207  -10.3665  -16.3118 C   0  0  0  0  0  0  0  0  0  0  0  0
   16.1410  -10.9176  -16.7670 C   0  0  0  0  0  0  0  0  0  0  0  0
   17.3455  -10.2242  -16.2420 C   0  0  2  0  0  0  0  0  0  0  0  0
   17.2333   -8.7172  -16.3788 C   0  0  0  0  0  0  0  0  0  0  0  0
   18.6804  -10.7463  -16.5894 C   0  0  2  0  0  0  0  0  0  0  0  0
   18.6406  -12.1859  -16.2857 N   0  0  0  0  0  0  0  0  0  0  0  0
   19.8567  -10.1065  -16.0232 C   0  0  0  0  0  0  0  0  0  0  0  0
   20.0843  -10.0193  -14.7885 O   0  0  0  0  0  0  0  0  0  0  0  0
   20.8955   -9.4989  -16.8265 N   0  0  0  0  0  0  0  0  0  0  0  0
   22.0757   -8.8994  -16.2462 C   0  0  1  0  0  0  0  0  0  0  0  0
   23.2973   -9.0748  -17.1074 C   0  0  0  0  0  0  0  0  0  0  0  0
   23.5720  -10.4958  -17.5045 C   0  0  0  0  0  0  0  0  0  0  0  0
   24.8019  -10.6022  -18.3731 C   0  0  0  0  0  0  0  0  0  0  0  0
   24.9689  -12.0182  -18.8556 C   0  0  0  0  0  0  0  0  0  0  0  0
   26.2246  -12.1102  -19.6023 N   0  0  0  0  0  0  0  0  0  0  0  0
   21.8165   -7.4354  -16.1648 C   0  0  0  0  0  0  0  0  0  0  0  0
   21.7218   -6.7135  -17.1912 O   0  0  0  0  0  0  0  0  0  0  0  0
   19.0330   -5.5511  -15.5296 C   0  0  0  0  0  0  0  0  0  0  0  0
   19.9880   -5.0455  -14.4694 C   0  0  1  0  0  0  0  0  0  0  0  0
   19.7177   -5.7273  -13.2862 O   0  0  0  0  0  0  0  0  0  0  0  0
   21.4336   -5.3539  -14.8524 C   0  0  2  0  0  0  0  0  0  0  0  0
   21.6632   -6.7830  -14.9124 N   0  0  0  0  0  0  0  0  0  0  0  0
   22.3418   -4.6998  -13.8972 C   0  0  0  0  0  0  0  0  0  0  0  0
   23.1208   -5.3366  -13.1370 O   0  0  0  0  0  0  0  0  0  0  0  0
   22.3434   -3.3151  -13.8272 O   0  0  0  0  0  0  0  0  0  0  0  0
  2  1  1  0
  3  2  1  0
  3  4  1  6
  5  3  1  0
  5  7  1  0
  5  6  1  1
  7  8  2  0
  9 10  1  0
  9  7  1  0
 11 12  1  0
 10 11  1  6
 12 13  1  0
 13 14  1  0
 14 15  1  0
 16 10  1  0
 17 16  2  0
 19 18  1  6
 19 21  1  0
 20 19  1  0
 21 22  1  1
 21 23  1  0
 22 16  1  0
 23 25  1  0
 24 23  2  0
M  END
$$$$
