PPF.pdb
     RDKit          3D

 26 28  0  0  1  0  0  0  0  0999 V2000
    8.3191  -15.1314   18.5624 N   0  0  0  0  0  0  0  0  0  0  0  0
    8.4572  -14.2112   17.4106 C   0  0  0  0  0  0  0  0  0  0  0  0
    7.7587  -12.9764   17.8784 C   0  0  0  0  0  0  0  0  0  0  0  0
    8.0216  -12.9470   19.3683 C   0  0  0  0  0  0  0  0  0  0  0  0
    8.7229  -14.2793   19.6243 C   0  0  1  0  0  0  0  0  0  0  0  0
    8.4857  -14.8054   20.9770 C   0  0  0  0  0  0  0  0  0  0  0  0
    8.7495  -13.9592   21.9086 O   0  0  0  0  0  0  0  0  0  0  0  0
    8.0196  -16.0881   21.2563 N   0  0  0  0  0  0  0  0  0  0  0  0
    7.1514  -16.8977   20.3610 C   0  0  0  0  0  0  0  0  0  0  0  0
    7.7002  -18.3337   20.5463 C   0  0  0  0  0  0  0  0  0  0  0  0
    8.8535  -18.1726   21.5581 C   0  0  0  0  0  0  0  0  0  0  0  0
    8.2668  -16.9798   22.3310 C   0  0  1  0  0  0  0  0  0  0  0  0
    9.0184  -16.5786   23.4868 C   0  0  0  0  0  0  0  0  0  0  0  0
   10.1951  -16.1605   23.4305 O   0  0  0  0  0  0  0  0  0  0  0  0
    8.4420  -16.6378   24.8129 N   0  0  0  0  0  0  0  0  0  0  0  0
    9.2657  -16.3103   25.9463 C   0  0  1  0  0  0  0  0  0  0  0  0
    9.5605  -14.8129   25.9782 C   0  0  0  0  0  0  0  0  0  0  0  0
    8.2993  -14.0532   26.1087 C   0  0  0  0  0  0  0  0  0  0  0  0
    7.0821  -14.6544   25.8910 C   0  0  0  0  0  0  0  0  0  0  0  0
    5.8957  -13.9256   26.0157 C   0  0  0  0  0  0  0  0  0  0  0  0
    5.9441  -12.5930   26.3597 C   0  0  0  0  0  0  0  0  0  0  0  0
    7.1518  -11.9874   26.5780 C   0  0  0  0  0  0  0  0  0  0  0  0
    8.3252  -12.7056   26.4553 C   0  0  0  0  0  0  0  0  0  0  0  0
    8.6484  -16.7296   27.2197 C   0  0  0  0  0  0  0  0  0  0  0  0
    7.4996  -17.2014   27.2488 O   0  0  0  0  0  0  0  0  0  0  0  0
    9.3669  -16.5943   28.4134 O   0  0  0  0  0  0  0  0  0  0  0  0
  1  2  1  0
  3  2  1  0
  4  5  1  0
  4  3  1  0
  5  1  1  0
  5  6  1  1
  7  6  2  0
  8  6  1  0
  8 12  1  0
  9 10  1  0
  9  8  1  0
 10 11  1  0
 11 12  1  0
 12 13  1  1
 13 14  2  0
 15 16  1  0
 15 13  1  0
 16 24  1  0
 16 17  1  1
 18 17  1  0
 19 18  2  0
 20 19  1  0
 21 22  1  0
 21 20  2  0
 22 23  2  0
 23 18  1  0
 24 25  2  0
 24 26  1  0
M  END
$$$$
