PPF.pdb
     RDKit          3D

 26 28  0  0  1  0  0  0  0  0999 V2000
    7.8391  -13.2162   18.7521 N   0  0  0  0  0  0  0  0  0  0  0  0
    8.3242  -13.2876   17.3549 C   0  0  0  0  0  0  0  0  0  0  0  0
    9.6580  -13.9459   17.4931 C   0  0  0  0  0  0  0  0  0  0  0  0
    9.4834  -14.8890   18.6635 C   0  0  0  0  0  0  0  0  0  0  0  0
    8.0876  -14.5472   19.1806 C   0  0  1  0  0  0  0  0  0  0  0  0
    7.9339  -14.7814   20.6243 C   0  0  0  0  0  0  0  0  0  0  0  0
    8.6140  -13.9664   21.3501 O   0  0  0  0  0  0  0  0  0  0  0  0
    7.1367  -15.7775   21.1836 N   0  0  0  0  0  0  0  0  0  0  0  0
    5.8522  -16.2660   20.6159 C   0  0  0  0  0  0  0  0  0  0  0  0
    5.8990  -17.7870   20.9022 C   0  0  0  0  0  0  0  0  0  0  0  0
    7.2463  -17.9970   21.6235 C   0  0  0  0  0  0  0  0  0  0  0  0
    7.3147  -16.6222   22.3088 C   0  0  1  0  0  0  0  0  0  0  0  0
    8.4160  -16.4511   23.2141 C   0  0  0  0  0  0  0  0  0  0  0  0
    9.5890  -16.7859   22.9408 O   0  0  0  0  0  0  0  0  0  0  0  0
    8.2248  -15.8680   24.5248 N   0  0  0  0  0  0  0  0  0  0  0  0
    9.3516  -15.7671   25.4140 C   0  0  1  0  0  0  0  0  0  0  0  0
    9.6359  -14.3063   25.7532 C   0  0  0  0  0  0  0  0  0  0  0  0
    8.3904  -13.6368   26.1838 C   0  0  0  0  0  0  0  0  0  0  0  0
    8.4063  -12.3497   26.6671 C   0  0  0  0  0  0  0  0  0  0  0  0
    7.2224  -11.7270   27.0730 C   0  0  0  0  0  0  0  0  0  0  0  0
    6.0279  -12.4069   26.9889 C   0  0  0  0  0  0  0  0  0  0  0  0
    6.0037  -13.6884   26.5089 C   0  0  0  0  0  0  0  0  0  0  0  0
    7.1723  -14.3055   26.1073 C   0  0  0  0  0  0  0  0  0  0  0  0
    9.1504  -16.5424   26.6536 C   0  0  0  0  0  0  0  0  0  0  0  0
   10.0062  -16.5425   27.5541 O   0  0  0  0  0  0  0  0  0  0  0  0
    7.9781  -17.2895   26.8186 O   0  0  0  0  0  0  0  0  0  0  0  0
  1  2  1  0
  3  2  1  0
  4  5  1  0
  4  3  1  0
  5  1  1  0
  5  6  1  1
  7  6  2  0
  8  6  1  0
  8 12  1  0
  9 10  1  0
  9  8  1  0
 10 11  1  0
 11 12  1  0
 12 13  1  6
 13 14  2  0
 15 16  1  0
 15 13  1  0
 16 24  1  0
 16 17  1  1
 18 17  1  0
 19 18  2  0
 20 19  1  0
 21 22  1  0
 21 20  2  0
 22 23  2  0
 23 18  1  0
 24 25  2  0
 24 26  1  0
M  END
$$$$
