PPF.pdb
     RDKit          3D

 26 28  0  0  1  0  0  0  0  0999 V2000
    7.8878  -13.1753   18.7694 N   0  0  0  0  0  0  0  0  0  0  0  0
    8.4775  -13.1447   17.4116 C   0  0  0  0  0  0  0  0  0  0  0  0
    9.8070  -13.7977   17.6053 C   0  0  0  0  0  0  0  0  0  0  0  0
    9.5594  -14.8214   18.6919 C   0  0  0  0  0  0  0  0  0  0  0  0
    8.1236  -14.5303   19.1236 C   0  0  1  0  0  0  0  0  0  0  0  0
    7.8655  -14.8657   20.5320 C   0  0  0  0  0  0  0  0  0  0  0  0
    8.3697  -14.0206   21.3597 O   0  0  0  0  0  0  0  0  0  0  0  0
    7.1477  -15.9797   20.9611 N   0  0  0  0  0  0  0  0  0  0  0  0
    5.9760  -16.5663   20.2584 C   0  0  0  0  0  0  0  0  0  0  0  0
    6.1757  -18.0890   20.4561 C   0  0  0  0  0  0  0  0  0  0  0  0
    7.4784  -18.1986   21.2752 C   0  0  0  0  0  0  0  0  0  0  0  0
    7.3344  -16.8753   22.0448 C   0  0  1  0  0  0  0  0  0  0  0  0
    8.3351  -16.6468   23.0488 C   0  0  0  0  0  0  0  0  0  0  0  0
    9.5334  -16.9759   22.9124 O   0  0  0  0  0  0  0  0  0  0  0  0
    8.0044  -16.0080   24.3045 N   0  0  0  0  0  0  0  0  0  0  0  0
    9.0452  -15.7995   25.2760 C   0  0  1  0  0  0  0  0  0  0  0  0
    9.3822  -14.3150   25.3883 C   0  0  0  0  0  0  0  0  0  0  0  0
    8.2182  -13.5720   25.9154 C   0  0  0  0  0  0  0  0  0  0  0  0
    8.1278  -13.2460   27.2481 C   0  0  0  0  0  0  0  0  0  0  0  0
    7.0213  -12.5443   27.7358 C   0  0  0  0  0  0  0  0  0  0  0  0
    6.0115  -12.1752   26.8755 C   0  0  0  0  0  0  0  0  0  0  0  0
    6.0942  -12.4960   25.5475 C   0  0  0  0  0  0  0  0  0  0  0  0
    7.1864  -13.1892   25.0635 C   0  0  0  0  0  0  0  0  0  0  0  0
    8.6809  -16.3354   26.6020 C   0  0  0  0  0  0  0  0  0  0  0  0
    7.5254  -16.7252   26.8391 O   0  0  0  0  0  0  0  0  0  0  0  0
    9.6509  -16.4063   27.6088 O   0  0  0  0  0  0  0  0  0  0  0  0
  1  2  1  0
  3  2  1  0
  4  5  1  0
  4  3  1  0
  5  1  1  0
  5  6  1  1
  7  6  2  0
  8  6  1  0
  8 12  1  0
  9 10  1  0
  9  8  1  0
 10 11  1  0
 11 12  1  0
 12 13  1  6
 13 14  2  0
 15 16  1  0
 15 13  1  0
 16 24  1  0
 16 17  1  1
 18 17  1  0
 19 18  2  0
 20 19  1  0
 21 22  1  0
 21 20  2  0
 22 23  2  0
 23 18  1  0
 24 25  2  0
 24 26  1  0
M  END
$$$$
