PPF.pdb
     RDKit          3D

 26 28  0  0  1  0  0  0  0  0999 V2000
    7.7200  -13.2658   18.5423 N   0  0  0  0  0  0  0  0  0  0  0  0
    8.1449  -13.3944   17.1298 C   0  0  0  0  0  0  0  0  0  0  0  0
    9.4335  -14.1432   17.2309 C   0  0  0  0  0  0  0  0  0  0  0  0
    9.2383  -15.0521   18.4249 C   0  0  0  0  0  0  0  0  0  0  0  0
    7.8908  -14.6038   18.9868 C   0  0  1  0  0  0  0  0  0  0  0  0
    7.7766  -14.8027   20.4395 C   0  0  0  0  0  0  0  0  0  0  0  0
    8.5673  -14.0529   21.1222 O   0  0  0  0  0  0  0  0  0  0  0  0
    6.9065  -15.7042   21.0484 N   0  0  0  0  0  0  0  0  0  0  0  0
    5.6040  -16.1499   20.4868 C   0  0  0  0  0  0  0  0  0  0  0  0
    5.5473  -17.6466   20.8797 C   0  0  0  0  0  0  0  0  0  0  0  0
    6.8647  -17.8892   21.6448 C   0  0  0  0  0  0  0  0  0  0  0  0
    7.0088  -16.4761   22.2337 C   0  0  1  0  0  0  0  0  0  0  0  0
    8.1018  -16.3108   23.1501 C   0  0  0  0  0  0  0  0  0  0  0  0
    9.2820  -16.1197   22.7849 O   0  0  0  0  0  0  0  0  0  0  0  0
    7.8932  -16.3575   24.5813 N   0  0  0  0  0  0  0  0  0  0  0  0
    8.9911  -16.0428   25.4565 C   0  0  1  0  0  0  0  0  0  0  0  0
    9.3771  -14.5721   25.3227 C   0  0  0  0  0  0  0  0  0  0  0  0
    8.2882  -13.7159   25.8385 C   0  0  0  0  0  0  0  0  0  0  0  0
    7.2057  -13.3939   25.0543 C   0  0  0  0  0  0  0  0  0  0  0  0
    6.1824  -12.5819   25.5522 C   0  0  0  0  0  0  0  0  0  0  0  0
    6.2571  -12.0990   26.8396 C   0  0  0  0  0  0  0  0  0  0  0  0
    7.3314  -12.4150   27.6264 C   0  0  0  0  0  0  0  0  0  0  0  0
    8.3435  -13.2171   27.1365 C   0  0  0  0  0  0  0  0  0  0  0  0
    8.6843  -16.3572   26.8655 C   0  0  0  0  0  0  0  0  0  0  0  0
    9.5393  -16.2095   27.7547 O   0  0  0  0  0  0  0  0  0  0  0  0
    7.4114  -16.8290   27.2068 O   0  0  0  0  0  0  0  0  0  0  0  0
  1  2  1  0
  3  2  1  0
  4  5  1  0
  4  3  1  0
  5  1  1  0
  5  6  1  1
  7  6  2  0
  8  6  1  0
  8 12  1  0
  9 10  1  0
  9  8  1  0
 10 11  1  0
 11 12  1  0
 12 13  1  6
 13 14  2  0
 15 16  1  0
 15 13  1  0
 16 24  1  0
 16 17  1  1
 18 17  1  0
 19 18  2  0
 20 19  1  0
 21 22  1  0
 21 20  2  0
 22 23  2  0
 23 18  1  0
 24 25  2  0
 24 26  1  0
M  END
$$$$
