PPF.pdb
     RDKit          3D

 26 28  0  0  1  0  0  0  0  0999 V2000
    7.9994  -15.2661   18.2493 N   0  0  0  0  0  0  0  0  0  0  0  0
    8.0525  -14.3268   17.1059 C   0  0  0  0  0  0  0  0  0  0  0  0
    7.6995  -13.0156   17.7284 C   0  0  0  0  0  0  0  0  0  0  0  0
    8.2722  -13.1059   19.1262 C   0  0  0  0  0  0  0  0  0  0  0  0
    8.7635  -14.5496   19.2084 C   0  0  1  0  0  0  0  0  0  0  0  0
    8.7278  -15.0942   20.5740 C   0  0  0  0  0  0  0  0  0  0  0  0
    9.6840  -14.6672   21.3202 O   0  0  0  0  0  0  0  0  0  0  0  0
    7.7660  -15.9848   21.0455 N   0  0  0  0  0  0  0  0  0  0  0  0
    6.5613  -16.4224   20.2918 C   0  0  0  0  0  0  0  0  0  0  0  0
    6.4307  -17.9163   20.6777 C   0  0  0  0  0  0  0  0  0  0  0  0
    7.6123  -18.1659   21.6375 C   0  0  0  0  0  0  0  0  0  0  0  0
    7.6773  -16.7509   22.2357 C   0  0  1  0  0  0  0  0  0  0  0  0
    8.6177  -16.5898   23.3087 C   0  0  0  0  0  0  0  0  0  0  0  0
    9.8454  -16.7885   23.1824 O   0  0  0  0  0  0  0  0  0  0  0  0
    8.1863  -16.1789   24.6276 N   0  0  0  0  0  0  0  0  0  0  0  0
    9.1792  -15.9150   25.6350 C   0  0  1  0  0  0  0  0  0  0  0  0
    9.4692  -14.4189   25.7210 C   0  0  0  0  0  0  0  0  0  0  0  0
    8.2309  -13.6832   26.0528 C   0  0  0  0  0  0  0  0  0  0  0  0
    7.3484  -13.2987   25.0710 C   0  0  0  0  0  0  0  0  0  0  0  0
    6.1810  -12.6019   25.3963 C   0  0  0  0  0  0  0  0  0  0  0  0
    5.9102  -12.2967   26.7115 C   0  0  0  0  0  0  0  0  0  0  0  0
    6.7836  -12.6761   27.6946 C   0  0  0  0  0  0  0  0  0  0  0  0
    7.9376  -13.3646   27.3754 C   0  0  0  0  0  0  0  0  0  0  0  0
    8.7750  -16.4269   26.9589 C   0  0  0  0  0  0  0  0  0  0  0  0
    9.5268  -16.3215   27.9423 O   0  0  0  0  0  0  0  0  0  0  0  0
    7.5261  -17.0407   27.1105 O   0  0  0  0  0  0  0  0  0  0  0  0
  1  2  1  0
  3  2  1  0
  4  5  1  0
  4  3  1  0
  5  1  1  0
  5  6  1  1
  7  6  2  0
  8  6  1  0
  8 12  1  0
  9 10  1  0
  9  8  1  0
 10 11  1  0
 11 12  1  0
 12 13  1  1
 13 14  2  0
 15 16  1  0
 15 13  1  0
 16 24  1  0
 16 17  1  1
 18 17  1  0
 19 18  2  0
 20 19  1  0
 21 22  1  0
 21 20  2  0
 22 23  2  0
 23 18  1  0
 24 25  2  0
 24 26  1  0
M  END
$$$$
