PPF.pdb
     RDKit          3D

 26 28  0  0  1  0  0  0  0  0999 V2000
    8.5331  -13.7483   19.9667 N   0  0  0  0  0  0  0  0  0  0  0  0
    7.6841  -13.3810   18.8106 C   0  0  0  0  0  0  0  0  0  0  0  0
    6.4235  -14.1423   19.0610 C   0  0  0  0  0  0  0  0  0  0  0  0
    6.3041  -14.1704   20.5693 C   0  0  0  0  0  0  0  0  0  0  0  0
    7.6183  -13.5465   21.0342 C   0  0  1  0  0  0  0  0  0  0  0  0
    8.0619  -14.0452   22.3446 C   0  0  0  0  0  0  0  0  0  0  0  0
    8.9140  -15.0049   22.2650 O   0  0  0  0  0  0  0  0  0  0  0  0
    7.6237  -13.5479   23.5698 N   0  0  0  0  0  0  0  0  0  0  0  0
    7.0059  -12.2120   23.7804 C   0  0  0  0  0  0  0  0  0  0  0  0
    5.9142  -12.4946   24.8415 C   0  0  0  0  0  0  0  0  0  0  0  0
    6.0399  -14.0060   25.1233 C   0  0  0  0  0  0  0  0  0  0  0  0
    7.5506  -14.1259   24.8628 C   0  0  1  0  0  0  0  0  0  0  0  0
    8.1132  -15.4164   25.1454 C   0  0  0  0  0  0  0  0  0  0  0  0
    7.7184  -16.4718   24.6041 O   0  0  0  0  0  0  0  0  0  0  0  0
    9.1939  -15.5709   26.0954 N   0  0  0  0  0  0  0  0  0  0  0  0
    9.8829  -16.8320   26.1684 C   0  0  1  0  0  0  0  0  0  0  0  0
   11.2099  -16.6743   26.9061 C   0  0  0  0  0  0  0  0  0  0  0  0
   10.9942  -15.9696   28.1874 C   0  0  0  0  0  0  0  0  0  0  0  0
   10.8950  -16.6622   29.3710 C   0  0  0  0  0  0  0  0  0  0  0  0
   10.6893  -15.9854   30.5768 C   0  0  0  0  0  0  0  0  0  0  0  0
   10.5848  -14.6123   30.5816 C   0  0  0  0  0  0  0  0  0  0  0  0
   10.6825  -13.9157   29.4076 C   0  0  0  0  0  0  0  0  0  0  0  0
   10.8857  -14.5824   28.2151 C   0  0  0  0  0  0  0  0  0  0  0  0
    9.0649  -17.8735   26.8197 C   0  0  0  0  0  0  0  0  0  0  0  0
    9.5177  -19.0138   27.0143 O   0  0  0  0  0  0  0  0  0  0  0  0
    7.7590  -17.5734   27.2249 O   0  0  0  0  0  0  0  0  0  0  0  0
  1  2  1  0
  3  2  1  0
  4  5  1  0
  4  3  1  0
  5  1  1  0
  5  6  1  1
  7  6  2  0
  8  6  1  0
  8 12  1  0
  9 10  1  0
  9  8  1  0
 10 11  1  0
 11 12  1  0
 12 13  1  6
 13 14  2  0
 15 16  1  0
 15 13  1  0
 16 24  1  0
 16 17  1  1
 18 17  1  0
 19 18  2  0
 20 19  1  0
 21 22  1  0
 21 20  2  0
 22 23  2  0
 23 18  1  0
 24 25  2  0
 24 26  1  0
M  END
$$$$
