PPF.pdb
     RDKit          3D

 26 28  0  0  1  0  0  0  0  0999 V2000
    7.7450  -15.1189   17.9005 N   0  0  0  0  0  0  0  0  0  0  0  0
    8.5339  -14.3985   16.8753 C   0  0  0  0  0  0  0  0  0  0  0  0
    8.7720  -13.0657   17.5065 C   0  0  0  0  0  0  0  0  0  0  0  0
    8.8777  -13.3721   18.9846 C   0  0  0  0  0  0  0  0  0  0  0  0
    8.5240  -14.8559   19.0586 C   0  0  1  0  0  0  0  0  0  0  0  0
    7.9009  -15.2374   20.3349 C   0  0  0  0  0  0  0  0  0  0  0  0
    7.1348  -14.3270   20.8224 O   0  0  0  0  0  0  0  0  0  0  0  0
    8.0982  -16.4572   20.9780 N   0  0  0  0  0  0  0  0  0  0  0  0
    7.8956  -17.7941   20.3596 C   0  0  0  0  0  0  0  0  0  0  0  0
    9.0503  -18.6348   20.9574 C   0  0  0  0  0  0  0  0  0  0  0  0
    9.8011  -17.6500   21.8773 C   0  0  0  0  0  0  0  0  0  0  0  0
    8.5892  -16.7876   22.2668 C   0  0  1  0  0  0  0  0  0  0  0  0
    8.8557  -15.7796   23.2541 C   0  0  0  0  0  0  0  0  0  0  0  0
    9.1546  -14.5998   22.9687 O   0  0  0  0  0  0  0  0  0  0  0  0
    8.7918  -16.0806   24.6682 N   0  0  0  0  0  0  0  0  0  0  0  0
    9.6733  -15.3865   25.5691 C   0  0  1  0  0  0  0  0  0  0  0  0
    9.5303  -13.8763   25.3995 C   0  0  0  0  0  0  0  0  0  0  0  0
    8.2540  -13.4209   25.9897 C   0  0  0  0  0  0  0  0  0  0  0  0
    8.2343  -12.5956   27.0892 C   0  0  0  0  0  0  0  0  0  0  0  0
    7.0211  -12.1725   27.6400 C   0  0  0  0  0  0  0  0  0  0  0  0
    5.8335  -12.5847   27.0778 C   0  0  0  0  0  0  0  0  0  0  0  0
    5.8448  -13.4062   25.9832 C   0  0  0  0  0  0  0  0  0  0  0  0
    7.0423  -13.8254   25.4374 C   0  0  0  0  0  0  0  0  0  0  0  0
    9.4338  -15.7604   26.9766 C   0  0  0  0  0  0  0  0  0  0  0  0
   10.0977  -15.2521   27.8954 O   0  0  0  0  0  0  0  0  0  0  0  0
    8.4440  -16.7018   27.2825 O   0  0  0  0  0  0  0  0  0  0  0  0
  1  2  1  0
  3  2  1  0
  4  5  1  0
  4  3  1  0
  5  1  1  0
  5  6  1  1
  7  6  2  0
  8  6  1  0
  8 12  1  0
  9 10  1  0
  9  8  1  0
 10 11  1  0
 11 12  1  0
 12 13  1  6
 13 14  2  0
 15 16  1  0
 15 13  1  0
 16 24  1  0
 16 17  1  1
 18 17  1  0
 19 18  2  0
 20 19  1  0
 21 22  1  0
 21 20  2  0
 22 23  2  0
 23 18  1  0
 24 25  2  0
 24 26  1  0
M  END
$$$$
