PPF.pdb
     RDKit          3D

 26 28  0  0  1  0  0  0  0  0999 V2000
    7.6944  -14.9597   18.5709 N   0  0  0  0  0  0  0  0  0  0  0  0
    8.0753  -14.0881   17.4362 C   0  0  0  0  0  0  0  0  0  0  0  0
    8.1723  -12.7367   18.0652 C   0  0  0  0  0  0  0  0  0  0  0  0
    8.6612  -13.0186   19.4692 C   0  0  0  0  0  0  0  0  0  0  0  0
    8.6400  -14.5437   19.5455 C   0  0  1  0  0  0  0  0  0  0  0  0
    8.4041  -15.0500   20.9060 C   0  0  0  0  0  0  0  0  0  0  0  0
    9.0568  -14.4100   21.8103 O   0  0  0  0  0  0  0  0  0  0  0  0
    7.5615  -16.1143   21.2189 N   0  0  0  0  0  0  0  0  0  0  0  0
    6.4395  -16.5963   20.3707 C   0  0  0  0  0  0  0  0  0  0  0  0
    6.5026  -18.1334   20.5474 C   0  0  0  0  0  0  0  0  0  0  0  0
    7.6898  -18.3576   21.5065 C   0  0  0  0  0  0  0  0  0  0  0  0
    7.5549  -17.0422   22.2914 C   0  0  1  0  0  0  0  0  0  0  0  0
    8.4463  -16.9100   23.4092 C   0  0  0  0  0  0  0  0  0  0  0  0
    9.6535  -17.2319   23.3675 O   0  0  0  0  0  0  0  0  0  0  0  0
    7.9859  -16.3844   24.6765 N   0  0  0  0  0  0  0  0  0  0  0  0
    8.9341  -16.2103   25.7448 C   0  0  1  0  0  0  0  0  0  0  0  0
    9.3195  -14.7399   25.8832 C   0  0  0  0  0  0  0  0  0  0  0  0
    8.1278  -13.9363   26.2283 C   0  0  0  0  0  0  0  0  0  0  0  0
    7.9960  -13.3580   27.4686 C   0  0  0  0  0  0  0  0  0  0  0  0
    6.8637  -12.6013   27.7845 C   0  0  0  0  0  0  0  0  0  0  0  0
    5.8700  -12.4323   26.8464 C   0  0  0  0  0  0  0  0  0  0  0  0
    5.9939  -13.0048   25.6094 C   0  0  0  0  0  0  0  0  0  0  0  0
    7.1117  -13.7527   25.2952 C   0  0  0  0  0  0  0  0  0  0  0  0
    8.4196  -16.7197   27.0309 C   0  0  0  0  0  0  0  0  0  0  0  0
    7.2412  -17.0962   27.1444 O   0  0  0  0  0  0  0  0  0  0  0  0
    9.2710  -16.7801   28.1404 O   0  0  0  0  0  0  0  0  0  0  0  0
  1  2  1  0
  3  2  1  0
  4  5  1  0
  4  3  1  0
  5  1  1  0
  5  6  1  1
  7  6  2  0
  8  6  1  0
  8 12  1  0
  9 10  1  0
  9  8  1  0
 10 11  1  0
 11 12  1  0
 12 13  1  1
 13 14  2  0
 15 16  1  0
 15 13  1  0
 16 24  1  0
 16 17  1  1
 18 17  1  0
 19 18  2  0
 20 19  1  0
 21 22  1  0
 21 20  2  0
 22 23  2  0
 23 18  1  0
 24 25  2  0
 24 26  1  0
M  END
$$$$
