PPF.pdb
     RDKit          3D

 26 28  0  0  1  0  0  0  0  0999 V2000
    7.9567  -13.0550   18.7868 N   0  0  0  0  0  0  0  0  0  0  0  0
    8.4336  -13.1049   17.3859 C   0  0  0  0  0  0  0  0  0  0  0  0
    9.5912  -14.0465   17.4559 C   0  0  0  0  0  0  0  0  0  0  0  0
    9.2007  -15.0299   18.5378 C   0  0  0  0  0  0  0  0  0  0  0  0
    7.9052  -14.4411   19.0922 C   0  0  1  0  0  0  0  0  0  0  0  0
    7.6850  -14.7644   20.5099 C   0  0  0  0  0  0  0  0  0  0  0  0
    8.3548  -14.0180   21.3147 O   0  0  0  0  0  0  0  0  0  0  0  0
    6.8395  -15.7716   20.9694 N   0  0  0  0  0  0  0  0  0  0  0  0
    5.5715  -16.1901   20.3154 C   0  0  0  0  0  0  0  0  0  0  0  0
    5.5692  -17.7265   20.5075 C   0  0  0  0  0  0  0  0  0  0  0  0
    6.8764  -18.0161   21.2737 C   0  0  0  0  0  0  0  0  0  0  0  0
    6.9454  -16.6883   22.0462 C   0  0  1  0  0  0  0  0  0  0  0  0
    8.0074  -16.6024   23.0088 C   0  0  0  0  0  0  0  0  0  0  0  0
    9.1255  -17.1380   22.8484 O   0  0  0  0  0  0  0  0  0  0  0  0
    7.8383  -15.8741   24.2479 N   0  0  0  0  0  0  0  0  0  0  0  0
    8.9677  -15.7214   25.1264 C   0  0  1  0  0  0  0  0  0  0  0  0
    9.3155  -14.2452   25.2984 C   0  0  0  0  0  0  0  0  0  0  0  0
    8.1655  -13.5203   25.8787 C   0  0  0  0  0  0  0  0  0  0  0  0
    7.0712  -13.1946   25.1126 C   0  0  0  0  0  0  0  0  0  0  0  0
    5.9898  -12.5073   25.6717 C   0  0  0  0  0  0  0  0  0  0  0  0
    6.0185  -12.1523   27.0019 C   0  0  0  0  0  0  0  0  0  0  0  0
    7.1042  -12.4729   27.7712 C   0  0  0  0  0  0  0  0  0  0  0  0
    8.1736  -13.1519   27.2207 C   0  0  0  0  0  0  0  0  0  0  0  0
    8.7316  -16.3406   26.4451 C   0  0  0  0  0  0  0  0  0  0  0  0
    9.6156  -16.3435   27.3179 O   0  0  0  0  0  0  0  0  0  0  0  0
    7.4935  -16.9340   26.7181 O   0  0  0  0  0  0  0  0  0  0  0  0
  1  2  1  0
  3  2  1  0
  4  5  1  0
  4  3  1  0
  5  1  1  0
  5  6  1  1
  7  6  2  0
  8  6  1  0
  8 12  1  0
  9 10  1  0
  9  8  1  0
 10 11  1  0
 11 12  1  0
 12 13  1  6
 13 14  2  0
 15 16  1  0
 15 13  1  0
 16 24  1  0
 16 17  1  1
 18 17  1  0
 19 18  2  0
 20 19  1  0
 21 22  1  0
 21 20  2  0
 22 23  2  0
 23 18  1  0
 24 25  2  0
 24 26  1  0
M  END
$$$$
