PPF.pdb
     RDKit          3D

 26 28  0  0  1  0  0  0  0  0999 V2000
    7.5044  -14.9753   18.9940 N   0  0  0  0  0  0  0  0  0  0  0  0
    7.8839  -14.1363   17.8345 C   0  0  0  0  0  0  0  0  0  0  0  0
    8.0390  -12.7778   18.4362 C   0  0  0  0  0  0  0  0  0  0  0  0
    8.5540  -13.0506   19.8328 C   0  0  0  0  0  0  0  0  0  0  0  0
    8.4868  -14.5727   19.9374 C   0  0  1  0  0  0  0  0  0  0  0  0
    8.2694  -15.0474   21.3122 C   0  0  0  0  0  0  0  0  0  0  0  0
    8.1323  -14.0959   22.1662 O   0  0  0  0  0  0  0  0  0  0  0  0
    8.2102  -16.3880   21.6861 N   0  0  0  0  0  0  0  0  0  0  0  0
    7.5100  -17.4584   20.9280 C   0  0  0  0  0  0  0  0  0  0  0  0
    8.4522  -18.6763   21.0911 C   0  0  0  0  0  0  0  0  0  0  0  0
    9.6170  -18.1436   21.9510 C   0  0  0  0  0  0  0  0  0  0  0  0
    8.8087  -17.1086   22.7509 C   0  0  1  0  0  0  0  0  0  0  0  0
    9.5387  -16.4455   23.7944 C   0  0  0  0  0  0  0  0  0  0  0  0
   10.7565  -16.1740   23.7158 O   0  0  0  0  0  0  0  0  0  0  0  0
    8.8902  -16.0451   25.0246 N   0  0  0  0  0  0  0  0  0  0  0  0
    9.7019  -15.7311   26.1704 C   0  0  1  0  0  0  0  0  0  0  0  0
    9.7832  -14.2200   26.3701 C   0  0  0  0  0  0  0  0  0  0  0  0
    8.4556  -13.6096   26.1472 C   0  0  0  0  0  0  0  0  0  0  0  0
    8.0327  -13.2707   24.8836 C   0  0  0  0  0  0  0  0  0  0  0  0
    6.7756  -12.6924   24.6849 C   0  0  0  0  0  0  0  0  0  0  0  0
    5.9515  -12.4590   25.7631 C   0  0  0  0  0  0  0  0  0  0  0  0
    6.3652  -12.7935   27.0241 C   0  0  0  0  0  0  0  0  0  0  0  0
    7.6069  -13.3650   27.2227 C   0  0  0  0  0  0  0  0  0  0  0  0
    9.1990  -16.3755   27.3993 C   0  0  0  0  0  0  0  0  0  0  0  0
    8.1503  -17.0414   27.3891 O   0  0  0  0  0  0  0  0  0  0  0  0
    9.9132  -16.2352   28.5949 O   0  0  0  0  0  0  0  0  0  0  0  0
  1  2  1  0
  3  2  1  0
  4  5  1  0
  4  3  1  0
  5  1  1  0
  5  6  1  1
  7  6  2  0
  8  6  1  0
  8 12  1  0
  9 10  1  0
  9  8  1  0
 10 11  1  0
 11 12  1  0
 12 13  1  6
 13 14  2  0
 15 16  1  0
 15 13  1  0
 16 24  1  0
 16 17  1  1
 18 17  1  0
 19 18  2  0
 20 19  1  0
 21 22  1  0
 21 20  2  0
 22 23  2  0
 23 18  1  0
 24 25  2  0
 24 26  1  0
M  END
$$$$
