FNN.pdb
     RDKit          3D

 28 28  0  0  1  0  0  0  0  0999 V2000
   27.0206  -11.9326  -19.1069 N   0  0  0  0  0  0  0  0  0  0  0  0
   26.6694  -11.8353  -17.7229 C   0  0  1  0  0  0  0  0  0  0  0  0
   26.7898  -10.4075  -17.2794 C   0  0  0  0  0  0  0  0  0  0  0  0
   28.1510   -9.8982  -17.5678 C   0  0  0  0  0  0  0  0  0  0  0  0
   28.3417   -8.8382  -18.4466 C   0  0  0  0  0  0  0  0  0  0  0  0
   29.6237   -8.3931  -18.6898 C   0  0  0  0  0  0  0  0  0  0  0  0
   30.7152   -8.9882  -18.0709 C   0  0  0  0  0  0  0  0  0  0  0  0
   30.5211  -10.0417  -17.1980 C   0  0  0  0  0  0  0  0  0  0  0  0
   29.2311  -10.4840  -16.9580 C   0  0  0  0  0  0  0  0  0  0  0  0
   25.3618  -12.4366  -17.4106 C   0  0  0  0  0  0  0  0  0  0  0  0
   24.4996  -12.5405  -18.3213 O   0  0  0  0  0  0  0  0  0  0  0  0
   23.9040  -16.1714  -16.8649 N   0  0  0  0  0  0  0  0  0  0  0  0
   23.9289  -15.9200  -15.4719 C   0  0  0  0  0  0  0  0  0  0  0  0
   24.1276  -16.9492  -14.7233 O   0  0  0  0  0  0  0  0  0  0  0  0
   23.7424  -14.5873  -14.8768 C   0  0  0  0  0  0  0  0  0  0  0  0
   23.6800  -13.4729  -15.8400 C   0  0  2  0  0  0  0  0  0  0  0  0
   24.9990  -12.9159  -16.1298 N   0  0  0  0  0  0  0  0  0  0  0  0
   22.8064  -12.3790  -15.4223 C   0  0  0  0  0  0  0  0  0  0  0  0
   21.5531  -12.5998  -15.2114 O   0  0  0  0  0  0  0  0  0  0  0  0
   20.7060   -7.7144  -14.6749 N   0  0  0  0  0  0  0  0  0  0  0  0
   22.1010   -7.6300  -14.3806 C   0  0  0  0  0  0  0  0  0  0  0  0
   22.5180   -6.5381  -13.9804 O   0  0  0  0  0  0  0  0  0  0  0  0
   22.9793   -8.7867  -14.5494 C   0  0  0  0  0  0  0  0  0  0  0  0
   22.2154  -10.0319  -14.8948 C   0  0  2  0  0  0  0  0  0  0  0  0
   23.2523  -11.0647  -15.2248 N   0  0  0  0  0  0  0  0  0  0  0  0
   21.4500   -9.8510  -16.1320 C   0  0  0  0  0  0  0  0  0  0  0  0
   22.0186   -9.6855  -17.2317 O   0  0  0  0  0  0  0  0  0  0  0  0
   20.0754   -9.8569  -16.1353 O   0  0  0  0  0  0  0  0  0  0  0  0
  2  1  1  6
  2  3  1  0
  3  4  1  0
  4  9  2  0
  4  5  1  0
  5  6  2  0
  6  7  1  0
  8  7  2  0
  9  8  1  0
 10  2  1  0
 11 10  2  0
 13 12  1  0
 13 15  1  0
 14 13  2  0
 16 15  1  1
 16 18  1  0
 16 17  1  0
 17 10  1  0
 18 19  2  0
 20 21  1  0
 21 22  2  0
 24 23  1  6
 23 21  1  0
 25 24  1  0
 25 18  1  0
 26 24  1  0
 26 28  1  0
 27 26  2  0
M  END
$$$$
