FNN.pdb
     RDKit          3D

 28 28  0  0  1  0  0  0  0  0999 V2000
   25.7991  -20.8275   -7.3697 N   0  0  0  0  0  0  0  0  0  0  0  0
   26.8127  -20.3692   -8.2703 C   0  0  1  0  0  0  0  0  0  0  0  0
   28.1530  -20.4768   -7.6056 C   0  0  0  0  0  0  0  0  0  0  0  0
   28.1566  -19.7060   -6.3402 C   0  0  0  0  0  0  0  0  0  0  0  0
   28.1788  -20.3566   -5.1119 C   0  0  0  0  0  0  0  0  0  0  0  0
   28.1808  -19.6045   -3.9564 C   0  0  0  0  0  0  0  0  0  0  0  0
   28.1611  -18.2169   -4.0080 C   0  0  0  0  0  0  0  0  0  0  0  0
   28.1391  -17.5742   -5.2311 C   0  0  0  0  0  0  0  0  0  0  0  0
   28.1372  -18.3353   -6.3879 C   0  0  0  0  0  0  0  0  0  0  0  0
   26.7592  -21.0238   -9.5884 C   0  0  0  0  0  0  0  0  0  0  0  0
   27.3185  -22.1403   -9.7436 O   0  0  0  0  0  0  0  0  0  0  0  0
   25.7545  -22.7526  -14.4094 N   0  0  0  0  0  0  0  0  0  0  0  0
   25.1643  -23.1627  -13.1896 C   0  0  0  0  0  0  0  0  0  0  0  0
   24.4239  -24.2146  -13.2547 O   0  0  0  0  0  0  0  0  0  0  0  0
   25.3563  -22.4613  -11.9105 C   0  0  0  0  0  0  0  0  0  0  0  0
   26.0440  -21.1606  -12.0048 C   0  0  2  0  0  0  0  0  0  0  0  0
   26.1088  -20.4729  -10.7177 N   0  0  0  0  0  0  0  0  0  0  0  0
   25.4506  -20.2477  -12.9788 C   0  0  0  0  0  0  0  0  0  0  0  0
   25.4439  -20.5568  -14.2312 O   0  0  0  0  0  0  0  0  0  0  0  0
   26.0287  -16.3364  -16.3823 N   0  0  0  0  0  0  0  0  0  0  0  0
   25.0948  -17.3210  -15.9374 C   0  0  0  0  0  0  0  0  0  0  0  0
   24.0216  -17.3823  -16.5463 O   0  0  0  0  0  0  0  0  0  0  0  0
   25.4073  -18.2053  -14.8156 C   0  0  0  0  0  0  0  0  0  0  0  0
   24.3457  -18.1707  -13.7549 C   0  0  2  0  0  0  0  0  0  0  0  0
   24.8657  -19.0213  -12.6337 N   0  0  0  0  0  0  0  0  0  0  0  0
   23.1265  -18.8450  -14.2113 C   0  0  0  0  0  0  0  0  0  0  0  0
   22.0302  -18.2484  -14.2570 O   0  0  0  0  0  0  0  0  0  0  0  0
   23.1376  -20.1607  -14.6090 O   0  0  0  0  0  0  0  0  0  0  0  0
  2  1  1  1
  2  3  1  0
  3  4  1  0
  4  9  2  0
  4  5  1  0
  5  6  2  0
  6  7  1  0
  8  7  2  0
  9  8  1  0
 10  2  1  0
 11 10  2  0
 13 12  1  0
 13 15  1  0
 14 13  2  0
 16 15  1  1
 16 18  1  0
 16 17  1  0
 17 10  1  0
 18 19  2  0
 20 21  1  0
 21 22  2  0
 24 23  1  6
 23 21  1  0
 25 24  1  0
 25 18  1  0
 26 24  1  0
 26 28  1  0
 27 26  2  0
M  END
$$$$
