FNN.pdb
     RDKit          3D

 28 28  0  0  1  0  0  0  0  0999 V2000
   27.8059  -10.7264  -18.7364 N   0  0  0  0  0  0  0  0  0  0  0  0
   27.0603  -10.0587  -17.7134 C   0  0  1  0  0  0  0  0  0  0  0  0
   27.7412  -10.2587  -16.3920 C   0  0  0  0  0  0  0  0  0  0  0  0
   27.6704  -11.6841  -15.9938 C   0  0  0  0  0  0  0  0  0  0  0  0
   28.6358  -12.5895  -16.4188 C   0  0  0  0  0  0  0  0  0  0  0  0
   28.5350  -13.9077  -16.0276 C   0  0  0  0  0  0  0  0  0  0  0  0
   27.4883  -14.3348  -15.2211 C   0  0  0  0  0  0  0  0  0  0  0  0
   26.5308  -13.4315  -14.8009 C   0  0  0  0  0  0  0  0  0  0  0  0
   26.6377  -12.1090  -15.1971 C   0  0  0  0  0  0  0  0  0  0  0  0
   26.7857   -8.6451  -18.0219 C   0  0  0  0  0  0  0  0  0  0  0  0
   27.5758   -8.0146  -18.7714 O   0  0  0  0  0  0  0  0  0  0  0  0
   25.6148   -4.3885  -20.8698 N   0  0  0  0  0  0  0  0  0  0  0  0
   24.8728   -5.1166  -19.9086 C   0  0  0  0  0  0  0  0  0  0  0  0
   23.8087   -4.5379  -19.4708 O   0  0  0  0  0  0  0  0  0  0  0  0
   25.2576   -6.4478  -19.4138 C   0  0  0  0  0  0  0  0  0  0  0  0
   25.3523   -6.5693  -17.9475 C   0  0  2  0  0  0  0  0  0  0  0  0
   25.6712   -7.9302  -17.5232 N   0  0  0  0  0  0  0  0  0  0  0  0
   24.1471   -6.1432  -17.2402 C   0  0  0  0  0  0  0  0  0  0  0  0
   23.0936   -6.8876  -17.2557 O   0  0  0  0  0  0  0  0  0  0  0  0
   19.2045   -5.0871  -17.2371 N   0  0  0  0  0  0  0  0  0  0  0  0
   20.3379   -4.7376  -16.4417 C   0  0  0  0  0  0  0  0  0  0  0  0
   20.1064   -4.2352  -15.3371 O   0  0  0  0  0  0  0  0  0  0  0  0
   21.6987   -4.9688  -16.9241 C   0  0  0  0  0  0  0  0  0  0  0  0
   22.7319   -4.6214  -15.8920 C   0  0  2  0  0  0  0  0  0  0  0  0
   24.0558   -4.9443  -16.5195 N   0  0  0  0  0  0  0  0  0  0  0  0
   22.6329   -5.5111  -14.7310 C   0  0  0  0  0  0  0  0  0  0  0  0
   22.3313   -5.0754  -13.6000 O   0  0  0  0  0  0  0  0  0  0  0  0
   22.8664   -6.8615  -14.8373 O   0  0  0  0  0  0  0  0  0  0  0  0
  2  1  1  6
  2  3  1  0
  3  4  1  0
  4  9  2  0
  4  5  1  0
  5  6  2  0
  6  7  1  0
  8  7  2  0
  9  8  1  0
 10  2  1  0
 11 10  2  0
 13 12  1  0
 13 15  1  0
 14 13  2  0
 16 15  1  6
 16 18  1  0
 16 17  1  0
 17 10  1  0
 18 19  2  0
 20 21  1  0
 21 22  2  0
 24 23  1  6
 23 21  1  0
 25 24  1  0
 25 18  1  0
 26 24  1  0
 26 28  1  0
 27 26  2  0
M  END
$$$$
