FNN.pdb
     RDKit          3D

 28 28  0  0  1  0  0  0  0  0999 V2000
   27.0897  -22.4796  -11.2711 N   0  0  0  0  0  0  0  0  0  0  0  0
   26.2710  -21.3313  -11.0272 C   0  0  1  0  0  0  0  0  0  0  0  0
   27.1434  -20.1180  -10.8982 C   0  0  0  0  0  0  0  0  0  0  0  0
   27.6072  -19.9714   -9.4986 C   0  0  0  0  0  0  0  0  0  0  0  0
   26.8198  -19.3245   -8.5532 C   0  0  0  0  0  0  0  0  0  0  0  0
   27.2863  -19.2075   -7.2611 C   0  0  0  0  0  0  0  0  0  0  0  0
   28.5232  -19.7249   -6.8993 C   0  0  0  0  0  0  0  0  0  0  0  0
   29.3027  -20.3673   -7.8423 C   0  0  0  0  0  0  0  0  0  0  0  0
   28.8285  -20.4814   -9.1382 C   0  0  0  0  0  0  0  0  0  0  0  0
   25.1866  -21.1701  -12.0106 C   0  0  0  0  0  0  0  0  0  0  0  0
   25.1714  -21.9015  -13.0346 O   0  0  0  0  0  0  0  0  0  0  0  0
   21.4488  -21.8688  -10.6281 N   0  0  0  0  0  0  0  0  0  0  0  0
   21.1166  -20.5159  -10.8808 C   0  0  0  0  0  0  0  0  0  0  0  0
   20.1915  -20.0204  -10.1341 O   0  0  0  0  0  0  0  0  0  0  0  0
   21.7594  -19.6951  -11.9192 C   0  0  0  0  0  0  0  0  0  0  0  0
   22.8833  -20.3398  -12.6226 C   0  0  2  0  0  0  0  0  0  0  0  0
   24.1377  -20.2294  -11.8820 N   0  0  0  0  0  0  0  0  0  0  0  0
   23.1062  -19.8290  -13.9730 C   0  0  0  0  0  0  0  0  0  0  0  0
   23.4795  -18.6063  -14.1462 O   0  0  0  0  0  0  0  0  0  0  0  0
   25.0848  -20.8912  -19.4303 N   0  0  0  0  0  0  0  0  0  0  0  0
   23.8629  -20.6470  -18.7324 C   0  0  0  0  0  0  0  0  0  0  0  0
   22.9800  -20.0465  -19.3539 O   0  0  0  0  0  0  0  0  0  0  0  0
   23.6806  -21.0915  -17.3515 C   0  0  0  0  0  0  0  0  0  0  0  0
   23.2979  -19.9625  -16.4393 C   0  0  2  0  0  0  0  0  0  0  0  0
   22.9407  -20.6027  -15.1302 N   0  0  0  0  0  0  0  0  0  0  0  0
   22.0646  -19.3146  -16.8960 C   0  0  0  0  0  0  0  0  0  0  0  0
   22.0908  -18.2467  -17.5432 O   0  0  0  0  0  0  0  0  0  0  0  0
   20.8281  -19.8544  -16.6330 O   0  0  0  0  0  0  0  0  0  0  0  0
  2  1  1  6
  2  3  1  0
  3  4  1  0
  4  9  2  0
  4  5  1  0
  5  6  2  0
  6  7  1  0
  8  7  2  0
  9  8  1  0
 10  2  1  0
 11 10  2  0
 13 12  1  0
 13 15  1  0
 14 13  2  0
 16 15  1  1
 16 18  1  0
 16 17  1  0
 17 10  1  0
 18 19  2  0
 20 21  1  0
 21 22  2  0
 24 23  1  6
 23 21  1  0
 25 24  1  0
 25 18  1  0
 26 24  1  0
 26 28  1  0
 27 26  2  0
M  END
$$$$
