FNN.pdb
     RDKit          3D

 28 28  0  0  1  0  0  0  0  0999 V2000
   21.7724  -10.3146  -15.5034 N   0  0  0  0  0  0  0  0  0  0  0  0
   21.9388   -9.3633  -14.4472 C   0  0  1  0  0  0  0  0  0  0  0  0
   23.0003   -8.3756  -14.8313 C   0  0  0  0  0  0  0  0  0  0  0  0
   24.2883   -9.0736  -15.0532 C   0  0  0  0  0  0  0  0  0  0  0  0
   24.8789   -9.8154  -14.0367 C   0  0  0  0  0  0  0  0  0  0  0  0
   26.0781  -10.4500  -14.2817 C   0  0  0  0  0  0  0  0  0  0  0  0
   26.6950  -10.3559  -15.5222 C   0  0  0  0  0  0  0  0  0  0  0  0
   26.1044   -9.6174  -16.5299 C   0  0  0  0  0  0  0  0  0  0  0  0
   24.9001   -8.9824  -16.2775 C   0  0  0  0  0  0  0  0  0  0  0  0
   20.6759   -8.7316  -14.0286 C   0  0  0  0  0  0  0  0  0  0  0  0
   19.6962   -8.7333  -14.8184 O   0  0  0  0  0  0  0  0  0  0  0  0
   16.8031   -6.2943  -11.3260 N   0  0  0  0  0  0  0  0  0  0  0  0
   17.7656   -6.8736  -10.4644 C   0  0  0  0  0  0  0  0  0  0  0  0
   17.5248   -6.7612   -9.2041 O   0  0  0  0  0  0  0  0  0  0  0  0
   18.9756   -7.5655  -10.9357 C   0  0  0  0  0  0  0  0  0  0  0  0
   19.2200   -7.4843  -12.3874 C   0  0  2  0  0  0  0  0  0  0  0  0
   20.4830   -8.1088  -12.7730 N   0  0  0  0  0  0  0  0  0  0  0  0
   19.2073   -6.1215  -12.9134 C   0  0  0  0  0  0  0  0  0  0  0  0
   20.3173   -5.5348  -13.2099 O   0  0  0  0  0  0  0  0  0  0  0  0
   19.4253   -3.9840  -17.5214 N   0  0  0  0  0  0  0  0  0  0  0  0
   18.3414   -4.0654  -16.5950 C   0  0  0  0  0  0  0  0  0  0  0  0
   17.3765   -3.3228  -16.8041 O   0  0  0  0  0  0  0  0  0  0  0  0
   18.3859   -4.9864  -15.4602 C   0  0  0  0  0  0  0  0  0  0  0  0
   18.0864   -4.2979  -14.1604 C   0  0  2  0  0  0  0  0  0  0  0  0
   18.0335   -5.3859  -13.1286 N   0  0  0  0  0  0  0  0  0  0  0  0
   16.7399   -3.7180  -14.1724 C   0  0  0  0  0  0  0  0  0  0  0  0
   15.7200   -4.4389  -14.1685 O   0  0  0  0  0  0  0  0  0  0  0  0
   16.5423   -2.3578  -14.1873 O   0  0  0  0  0  0  0  0  0  0  0  0
  2  1  1  6
  2  3  1  0
  3  4  1  0
  4  9  2  0
  4  5  1  0
  5  6  2  0
  6  7  1  0
  8  7  2  0
  9  8  1  0
 10  2  1  0
 11 10  2  0
 13 12  1  0
 13 15  1  0
 14 13  2  0
 16 15  1  1
 16 18  1  0
 16 17  1  0
 17 10  1  0
 18 19  2  0
 20 21  1  0
 21 22  2  0
 24 23  1  6
 23 21  1  0
 25 24  1  0
 25 18  1  0
 26 24  1  0
 26 28  1  0
 27 26  2  0
M  END
$$$$
