FNN.pdb
     RDKit          3D

 28 28  0  0  1  0  0  0  0  0999 V2000
   28.4457  -20.4238   -8.2789 N   0  0  0  0  0  0  0  0  0  0  0  0
   27.0204  -20.5515   -8.2997 C   0  0  1  0  0  0  0  0  0  0  0  0
   26.4302  -19.7060   -7.2104 C   0  0  0  0  0  0  0  0  0  0  0  0
   27.3329  -19.6869   -6.0356 C   0  0  0  0  0  0  0  0  0  0  0  0
   27.2337  -20.6595   -5.0474 C   0  0  0  0  0  0  0  0  0  0  0  0
   28.0912  -20.6074   -3.9691 C   0  0  0  0  0  0  0  0  0  0  0  0
   29.0437  -19.6024   -3.8625 C   0  0  0  0  0  0  0  0  0  0  0  0
   29.1389  -18.6377   -4.8472 C   0  0  0  0  0  0  0  0  0  0  0  0
   28.2747  -18.6955   -5.9276 C   0  0  0  0  0  0  0  0  0  0  0  0
   26.4322  -20.2926   -9.6249 C   0  0  0  0  0  0  0  0  0  0  0  0
   26.4011  -19.1137  -10.0641 O   0  0  0  0  0  0  0  0  0  0  0  0
   26.8572  -21.0398  -15.1184 N   0  0  0  0  0  0  0  0  0  0  0  0
   25.9438  -21.6356  -14.2155 C   0  0  0  0  0  0  0  0  0  0  0  0
   24.7997  -21.9578  -14.7116 O   0  0  0  0  0  0  0  0  0  0  0  0
   26.2409  -21.8862  -12.7964 C   0  0  0  0  0  0  0  0  0  0  0  0
   25.4916  -21.0498  -11.8410 C   0  0  2  0  0  0  0  0  0  0  0  0
   25.8872  -21.2988  -10.4570 N   0  0  0  0  0  0  0  0  0  0  0  0
   24.0416  -21.2014  -11.9336 C   0  0  0  0  0  0  0  0  0  0  0  0
   23.4271  -22.0166  -11.1449 O   0  0  0  0  0  0  0  0  0  0  0  0
   19.0025  -20.7186  -12.9236 N   0  0  0  0  0  0  0  0  0  0  0  0
   19.6694  -19.5636  -12.4129 C   0  0  0  0  0  0  0  0  0  0  0  0
   18.9520  -18.6371  -12.0212 O   0  0  0  0  0  0  0  0  0  0  0  0
   21.1291  -19.4954  -12.3625 C   0  0  0  0  0  0  0  0  0  0  0  0
   21.7716  -20.7701  -12.8269 C   0  0  2  0  0  0  0  0  0  0  0  0
   23.2465  -20.4960  -12.8477 N   0  0  0  0  0  0  0  0  0  0  0  0
   21.4176  -21.0582  -14.2201 C   0  0  0  0  0  0  0  0  0  0  0  0
   22.0087  -20.5038  -15.1706 O   0  0  0  0  0  0  0  0  0  0  0  0
   20.4222  -21.9505  -14.5400 O   0  0  0  0  0  0  0  0  0  0  0  0
  2  1  1  6
  2  3  1  0
  3  4  1  0
  4  9  2  0
  4  5  1  0
  5  6  2  0
  6  7  1  0
  8  7  2  0
  9  8  1  0
 10  2  1  0
 11 10  2  0
 13 12  1  0
 13 15  1  0
 14 13  2  0
 16 15  1  6
 16 18  1  0
 16 17  1  0
 17 10  1  0
 18 19  2  0
 20 21  1  0
 21 22  2  0
 24 23  1  6
 23 21  1  0
 25 24  1  0
 25 18  1  0
 26 24  1  0
 26 28  1  0
 27 26  2  0
M  END
$$$$
