FNN.pdb
     RDKit          3D

 28 28  0  0  1  0  0  0  0  0999 V2000
   28.7998  -25.9698  -16.7080 N   0  0  0  0  0  0  0  0  0  0  0  0
   27.6538  -25.2120  -17.1088 C   0  0  1  0  0  0  0  0  0  0  0  0
   27.4677  -25.3402  -18.5917 C   0  0  0  0  0  0  0  0  0  0  0  0
   28.6568  -24.8128  -19.3011 C   0  0  0  0  0  0  0  0  0  0  0  0
   29.6563  -25.6698  -19.7471 C   0  0  0  0  0  0  0  0  0  0  0  0
   30.7477  -25.1409  -20.4026 C   0  0  0  0  0  0  0  0  0  0  0  0
   30.8565  -23.7735  -20.6192 C   0  0  0  0  0  0  0  0  0  0  0  0
   29.8607  -22.9251  -20.1742 C   0  0  0  0  0  0  0  0  0  0  0  0
   28.7671  -23.4626  -19.5164 C   0  0  0  0  0  0  0  0  0  0  0  0
   26.4422  -25.5368  -16.3370 C   0  0  0  0  0  0  0  0  0  0  0  0
   26.5506  -26.1988  -15.2723 O   0  0  0  0  0  0  0  0  0  0  0  0
   22.0320  -24.5649  -13.7284 N   0  0  0  0  0  0  0  0  0  0  0  0
   23.3120  -23.9678  -13.6310 C   0  0  0  0  0  0  0  0  0  0  0  0
   23.5209  -23.2669  -12.5707 O   0  0  0  0  0  0  0  0  0  0  0  0
   24.3623  -24.1113  -14.6515 C   0  0  0  0  0  0  0  0  0  0  0  0
   24.0387  -25.0266  -15.7610 C   0  0  2  0  0  0  0  0  0  0  0  0
   25.1360  -25.1484  -16.7175 N   0  0  0  0  0  0  0  0  0  0  0  0
   22.8321  -24.6586  -16.4978 C   0  0  0  0  0  0  0  0  0  0  0  0
   21.7347  -25.3083  -16.3031 O   0  0  0  0  0  0  0  0  0  0  0  0
   23.1796  -25.1717  -21.6861 N   0  0  0  0  0  0  0  0  0  0  0  0
   22.6819  -25.7464  -20.4771 C   0  0  0  0  0  0  0  0  0  0  0  0
   21.9051  -26.6997  -20.5953 O   0  0  0  0  0  0  0  0  0  0  0  0
   23.0808  -25.2218  -19.1719 C   0  0  0  0  0  0  0  0  0  0  0  0
   22.3532  -23.9555  -18.8244 C   0  0  2  0  0  0  0  0  0  0  0  0
   22.7828  -23.6116  -17.4287 N   0  0  0  0  0  0  0  0  0  0  0  0
   20.9088  -24.1893  -18.7322 C   0  0  0  0  0  0  0  0  0  0  0  0
   20.4226  -24.9203  -17.8438 O   0  0  0  0  0  0  0  0  0  0  0  0
   20.0287  -23.6141  -19.6175 O   0  0  0  0  0  0  0  0  0  0  0  0
  2  1  1  1
  2  3  1  0
  3  4  1  0
  4  9  2  0
  4  5  1  0
  5  6  2  0
  6  7  1  0
  8  7  2  0
  9  8  1  0
 10  2  1  0
 11 10  2  0
 13 12  1  0
 13 15  1  0
 14 13  2  0
 16 15  1  1
 16 18  1  0
 16 17  1  0
 17 10  1  0
 18 19  2  0
 20 21  1  0
 21 22  2  0
 24 23  1  1
 23 21  1  0
 25 24  1  0
 25 18  1  0
 26 24  1  0
 26 28  1  0
 27 26  2  0
M  END
$$$$
