FNN.pdb
     RDKit          3D

 28 28  0  0  1  0  0  0  0  0999 V2000
   28.0198  -21.1682  -15.7508 N   0  0  0  0  0  0  0  0  0  0  0  0
   27.1544  -20.2188  -15.1199 C   0  0  1  0  0  0  0  0  0  0  0  0
   26.5235  -19.3496  -16.1671 C   0  0  0  0  0  0  0  0  0  0  0  0
   27.5425  -18.4594  -16.7708 C   0  0  0  0  0  0  0  0  0  0  0  0
   28.1042  -18.7579  -18.0068 C   0  0  0  0  0  0  0  0  0  0  0  0
   29.0499  -17.9052  -18.5353 C   0  0  0  0  0  0  0  0  0  0  0  0
   29.4424  -16.7623  -17.8510 C   0  0  0  0  0  0  0  0  0  0  0  0
   28.8814  -16.4694  -16.6226 C   0  0  0  0  0  0  0  0  0  0  0  0
   27.9322  -17.3298  -16.0972 C   0  0  0  0  0  0  0  0  0  0  0  0
   26.1781  -20.8377  -14.2075 C   0  0  0  0  0  0  0  0  0  0  0  0
   25.5246  -21.8410  -14.5948 O   0  0  0  0  0  0  0  0  0  0  0  0
   22.5596  -21.5642  -10.4112 N   0  0  0  0  0  0  0  0  0  0  0  0
   23.6769  -20.8610   -9.8998 C   0  0  0  0  0  0  0  0  0  0  0  0
   23.6363  -20.5899   -8.6413 O   0  0  0  0  0  0  0  0  0  0  0  0
   24.8279  -20.4465  -10.7173 C   0  0  0  0  0  0  0  0  0  0  0  0
   24.7073  -20.7279  -12.1595 C   0  0  2  0  0  0  0  0  0  0  0  0
   25.9173  -20.3727  -12.8969 N   0  0  0  0  0  0  0  0  0  0  0  0
   23.5740  -20.0635  -12.7985 C   0  0  0  0  0  0  0  0  0  0  0  0
   23.7687  -19.0220  -13.5345 O   0  0  0  0  0  0  0  0  0  0  0  0
   20.9352  -21.9304  -17.0250 N   0  0  0  0  0  0  0  0  0  0  0  0
   21.2545  -20.7780  -16.2442 C   0  0  0  0  0  0  0  0  0  0  0  0
   20.8369  -19.6927  -16.6611 O   0  0  0  0  0  0  0  0  0  0  0  0
   22.0378  -20.8927  -15.0148 C   0  0  0  0  0  0  0  0  0  0  0  0
   21.3356  -20.2814  -13.8372 C   0  0  2  0  0  0  0  0  0  0  0  0
   22.2474  -20.4968  -12.6654 N   0  0  0  0  0  0  0  0  0  0  0  0
   20.1142  -21.0241  -13.5117 C   0  0  0  0  0  0  0  0  0  0  0  0
   20.1512  -22.0767  -12.8403 O   0  0  0  0  0  0  0  0  0  0  0  0
   18.8774  -20.5940  -13.9297 O   0  0  0  0  0  0  0  0  0  0  0  0
  2  1  1  6
  2  3  1  0
  3  4  1  0
  4  9  2  0
  4  5  1  0
  5  6  2  0
  6  7  1  0
  8  7  2  0
  9  8  1  0
 10  2  1  0
 11 10  2  0
 13 12  1  0
 13 15  1  0
 14 13  2  0
 16 15  1  1
 16 18  1  0
 16 17  1  0
 17 10  1  0
 18 19  2  0
 20 21  1  0
 21 22  2  0
 24 23  1  6
 23 21  1  0
 25 24  1  0
 25 18  1  0
 26 24  1  0
 26 28  1  0
 27 26  2  0
M  END
$$$$
