FNN.pdb
     RDKit          3D

 28 28  0  0  1  0  0  0  0  0999 V2000
   25.9796  -21.6644   -9.4694 N   0  0  0  0  0  0  0  0  0  0  0  0
   26.1868  -20.4074  -10.1215 C   0  0  1  0  0  0  0  0  0  0  0  0
   27.6086  -19.9731   -9.9222 C   0  0  0  0  0  0  0  0  0  0  0  0
   27.9234  -19.9105   -8.4757 C   0  0  0  0  0  0  0  0  0  0  0  0
   27.2187  -19.0604   -7.6313 C   0  0  0  0  0  0  0  0  0  0  0  0
   27.5415  -19.0301   -6.2912 C   0  0  0  0  0  0  0  0  0  0  0  0
   28.5540  -19.8330   -5.7826 C   0  0  0  0  0  0  0  0  0  0  0  0
   29.2519  -20.6766   -6.6256 C   0  0  0  0  0  0  0  0  0  0  0  0
   28.9230  -20.7024   -7.9704 C   0  0  0  0  0  0  0  0  0  0  0  0
   25.7678  -20.4082  -11.5334 C   0  0  0  0  0  0  0  0  0  0  0  0
   25.9118  -19.3623  -12.2181 O   0  0  0  0  0  0  0  0  0  0  0  0
   27.5378  -21.1895  -14.4171 N   0  0  0  0  0  0  0  0  0  0  0  0
   26.8198  -22.3747  -14.7072 C   0  0  0  0  0  0  0  0  0  0  0  0
   27.4927  -23.3051  -15.2909 O   0  0  0  0  0  0  0  0  0  0  0  0
   25.3982  -22.5712  -14.3826 C   0  0  0  0  0  0  0  0  0  0  0  0
   24.7813  -21.4942  -13.5868 C   0  0  2  0  0  0  0  0  0  0  0  0
   25.2019  -21.5274  -12.1883 N   0  0  0  0  0  0  0  0  0  0  0  0
   23.3209  -21.4955  -13.6225 C   0  0  0  0  0  0  0  0  0  0  0  0
   22.7039  -21.5360  -14.7547 O   0  0  0  0  0  0  0  0  0  0  0  0
   20.0701  -23.6728   -9.9022 N   0  0  0  0  0  0  0  0  0  0  0  0
   19.9361  -22.9902  -11.1494 C   0  0  0  0  0  0  0  0  0  0  0  0
   19.3859  -23.6110  -12.0649 O   0  0  0  0  0  0  0  0  0  0  0  0
   20.4304  -21.6246  -11.3194 C   0  0  0  0  0  0  0  0  0  0  0  0
   21.0330  -21.4056  -12.6767 C   0  0  2  0  0  0  0  0  0  0  0  0
   22.5186  -21.4585  -12.4735 N   0  0  0  0  0  0  0  0  0  0  0  0
   20.7620  -20.0475  -13.1576 C   0  0  0  0  0  0  0  0  0  0  0  0
   21.4551  -19.0756  -12.7899 O   0  0  0  0  0  0  0  0  0  0  0  0
   19.7357  -19.7856  -14.0336 O   0  0  0  0  0  0  0  0  0  0  0  0
  2  1  1  6
  2  3  1  0
  3  4  1  0
  4  9  2  0
  4  5  1  0
  5  6  2  0
  6  7  1  0
  8  7  2  0
  9  8  1  0
 10  2  1  0
 11 10  2  0
 13 12  1  0
 13 15  1  0
 14 13  2  0
 16 15  1  6
 16 18  1  0
 16 17  1  0
 17 10  1  0
 18 19  2  0
 20 21  1  0
 21 22  2  0
 24 23  1  1
 23 21  1  0
 25 24  1  0
 25 18  1  0
 26 24  1  0
 26 28  1  0
 27 26  2  0
M  END
$$$$
