FNN.pdb
     RDKit          3D

 28 28  0  0  1  0  0  0  0  0999 V2000
   16.7247  -14.4685    6.9365 N   0  0  0  0  0  0  0  0  0  0  0  0
   17.6411  -15.3480    6.2768 C   0  0  1  0  0  0  0  0  0  0  0  0
   19.0462  -14.9262    6.5892 C   0  0  0  0  0  0  0  0  0  0  0  0
   19.3438  -13.6279    5.9401 C   0  0  0  0  0  0  0  0  0  0  0  0
   20.1546  -12.6891    6.5675 C   0  0  0  0  0  0  0  0  0  0  0  0
   20.4077  -11.4922    5.9316 C   0  0  0  0  0  0  0  0  0  0  0  0
   19.8655  -11.2189    4.6827 C   0  0  0  0  0  0  0  0  0  0  0  0
   19.0600  -12.1549    4.0627 C   0  0  0  0  0  0  0  0  0  0  0  0
   18.8096  -13.3550    4.7065 C   0  0  0  0  0  0  0  0  0  0  0  0
   17.3826  -16.7714    6.5527 C   0  0  0  0  0  0  0  0  0  0  0  0
   16.8157  -17.0961    7.6282 O   0  0  0  0  0  0  0  0  0  0  0  0
   17.0409  -22.0197    6.5461 N   0  0  0  0  0  0  0  0  0  0  0  0
   16.8906  -21.4745    5.2482 C   0  0  0  0  0  0  0  0  0  0  0  0
   16.4972  -22.2985    4.3398 O   0  0  0  0  0  0  0  0  0  0  0  0
   17.1576  -20.0663    4.9156 C   0  0  0  0  0  0  0  0  0  0  0  0
   17.6165  -19.2315    6.0409 C   0  0  2  0  0  0  0  0  0  0  0  0
   17.7353  -17.8226    5.6739 N   0  0  0  0  0  0  0  0  0  0  0  0
   18.8897  -19.6609    6.6143 C   0  0  0  0  0  0  0  0  0  0  0  0
   19.9938  -19.1455    6.1907 O   0  0  0  0  0  0  0  0  0  0  0  0
   22.9544  -19.9857    9.4146 N   0  0  0  0  0  0  0  0  0  0  0  0
   21.8621  -19.0658    9.4130 C   0  0  0  0  0  0  0  0  0  0  0  0
   21.9195  -18.1356   10.2241 O   0  0  0  0  0  0  0  0  0  0  0  0
   20.7387  -19.2295    8.4915 C   0  0  0  0  0  0  0  0  0  0  0  0
   20.2774  -20.6556    8.4092 C   0  0  2  0  0  0  0  0  0  0  0  0
   18.9965  -20.6226    7.6288 N   0  0  0  0  0  0  0  0  0  0  0  0
   19.9044  -21.1632    9.7331 C   0  0  0  0  0  0  0  0  0  0  0  0
   20.0644  -22.3634   10.0395 O   0  0  0  0  0  0  0  0  0  0  0  0
   19.3642  -20.3410   10.6931 O   0  0  0  0  0  0  0  0  0  0  0  0
  2  1  1  1
  2  3  1  0
  3  4  1  0
  4  9  2  0
  4  5  1  0
  5  6  2  0
  6  7  1  0
  8  7  2  0
  9  8  1  0
 10  2  1  0
 11 10  2  0
 13 12  1  0
 13 15  1  0
 14 13  2  0
 16 15  1  6
 16 18  1  0
 16 17  1  0
 17 10  1  0
 18 19  2  0
 20 21  1  0
 21 22  2  0
 24 23  1  1
 23 21  1  0
 25 24  1  0
 25 18  1  0
 26 24  1  0
 26 28  1  0
 27 26  2  0
M  END
$$$$
