WSH.pdb
     RDKit          3D

 31 33  0  0  1  0  0  0  0  0999 V2000
   25.1519  -10.3528  -23.3711 N   0  0  0  0  0  0  0  0  0  0  0  0
   23.7660  -10.4162  -23.7735 C   0  0  1  0  0  0  0  0  0  0  0  0
   23.6816  -10.2056  -25.2549 C   0  0  0  0  0  0  0  0  0  0  0  0
   23.9742   -8.8244  -25.6613 C   0  0  0  0  0  0  0  0  0  0  0  0
   25.1556   -8.3948  -26.2619 C   0  0  0  0  0  0  0  0  0  0  0  0
   25.0863   -7.0687  -26.4617 N   0  0  0  0  0  0  0  0  0  0  0  0
   23.9128   -6.5923  -26.0229 C   0  0  0  0  0  0  0  0  0  0  0  0
   23.4029   -5.3096  -26.0264 C   0  0  0  0  0  0  0  0  0  0  0  0
   22.1532   -5.0725  -25.5209 C   0  0  0  0  0  0  0  0  0  0  0  0
   21.4520   -6.1419  -25.0248 C   0  0  0  0  0  0  0  0  0  0  0  0
   21.9680   -7.4451  -25.0200 C   0  0  0  0  0  0  0  0  0  0  0  0
   23.2150   -7.6763  -25.5242 C   0  0  0  0  0  0  0  0  0  0  0  0
   23.1986  -11.6903  -23.3238 C   0  0  0  0  0  0  0  0  0  0  0  0
   23.9145  -12.7187  -23.2057 O   0  0  0  0  0  0  0  0  0  0  0  0
   21.5097  -12.6466  -20.2771 O   0  0  0  0  0  0  0  0  0  0  0  0
   22.0333  -13.4741  -21.2623 C   0  0  0  0  0  0  0  0  0  0  0  0
   21.3009  -13.1518  -22.5934 C   0  0  2  0  0  0  0  0  0  0  0  0
   21.8063  -11.8675  -22.9840 N   0  0  0  0  0  0  0  0  0  0  0  0
   19.8804  -13.2238  -22.2815 C   0  0  0  0  0  0  0  0  0  0  0  0
   19.4633  -12.4619  -21.3560 O   0  0  0  0  0  0  0  0  0  0  0  0
   18.9109  -14.0511  -22.9002 N   0  0  0  0  0  0  0  0  0  0  0  0
   17.8977  -14.7456  -22.0618 C   0  0  1  0  0  0  0  0  0  0  0  0
   18.5330  -14.9639  -20.7283 C   0  0  0  0  0  0  0  0  0  0  0  0
   19.3064  -16.1967  -20.5587 C   0  0  0  0  0  0  0  0  0  0  0  0
   19.5016  -17.2605  -21.4021 C   0  0  0  0  0  0  0  0  0  0  0  0
   20.3436  -18.1102  -20.7764 N   0  0  0  0  0  0  0  0  0  0  0  0
   20.6567  -17.5944  -19.5977 C   0  0  0  0  0  0  0  0  0  0  0  0
   20.0338  -16.4316  -19.4519 N   0  0  0  0  0  0  0  0  0  0  0  0
   16.8293  -13.6978  -21.8801 C   0  0  0  0  0  0  0  0  0  0  0  0
   15.4774  -13.9879  -22.1121 O   0  0  0  0  0  0  0  0  0  0  0  0
   17.0627  -12.5281  -21.5197 O   0  0  0  0  0  0  0  0  0  0  0  0
  2  1  1  6
  2  3  1  0
  3  4  1  0
  4  5  2  0
  4 12  1  0
  5  6  1  0
  6  7  1  0
  7  8  2  0
  9  8  1  0
 10  9  2  0
 11 12  2  0
 11 10  1  0
 12  7  1  0
 13 14  2  0
 13  2  1  0
 15 16  1  0
 17 16  1  1
 17 18  1  0
 17 19  1  0
 18 13  1  0
 19 21  1  0
 20 19  2  0
 21 22  1  0
 22 29  1  0
 23 24  1  0
 22 23  1  1
 24 28  1  0
 25 24  2  0
 25 26  1  0
 26 27  1  0
 28 27  2  0
 29 31  2  0
 29 30  1  0
M  END
$$$$
