WSH.pdb
     RDKit          3D

 31 33  0  0  1  0  0  0  0  0999 V2000
   27.8608  -19.9007  -12.3043 N   0  0  0  0  0  0  0  0  0  0  0  0
   26.8836  -20.9319  -12.0426 C   0  0  1  0  0  0  0  0  0  0  0  0
   26.3008  -20.7124  -10.6794 C   0  0  0  0  0  0  0  0  0  0  0  0
   27.3187  -20.4981   -9.6418 C   0  0  0  0  0  0  0  0  0  0  0  0
   27.2464  -19.5465   -8.6271 C   0  0  0  0  0  0  0  0  0  0  0  0
   28.3641  -19.6132   -7.8859 N   0  0  0  0  0  0  0  0  0  0  0  0
   29.1799  -20.5660   -8.3582 C   0  0  0  0  0  0  0  0  0  0  0  0
   30.4180  -20.9909   -7.9199 C   0  0  0  0  0  0  0  0  0  0  0  0
   31.0605  -22.0062   -8.5755 C   0  0  0  0  0  0  0  0  0  0  0  0
   30.4315  -22.5653   -9.6587 C   0  0  0  0  0  0  0  0  0  0  0  0
   29.1746  -22.1351  -10.1055 C   0  0  0  0  0  0  0  0  0  0  0  0
   28.5383  -21.1216   -9.4492 C   0  0  0  0  0  0  0  0  0  0  0  0
   25.8890  -20.9280  -13.1189 C   0  0  0  0  0  0  0  0  0  0  0  0
   25.4910  -19.8520  -13.6365 O   0  0  0  0  0  0  0  0  0  0  0  0
   23.8493  -24.3447  -13.9540 O   0  0  0  0  0  0  0  0  0  0  0  0
   23.9807  -23.5120  -15.0581 C   0  0  0  0  0  0  0  0  0  0  0  0
   24.1652  -22.0597  -14.5397 C   0  0  2  0  0  0  0  0  0  0  0  0
   25.2993  -22.1281  -13.6641 N   0  0  0  0  0  0  0  0  0  0  0  0
   22.8929  -21.7018  -13.9286 C   0  0  0  0  0  0  0  0  0  0  0  0
   22.9111  -21.4531  -12.6841 O   0  0  0  0  0  0  0  0  0  0  0  0
   21.6351  -21.5986  -14.5725 N   0  0  0  0  0  0  0  0  0  0  0  0
   20.5859  -20.7176  -13.9939 C   0  0  1  0  0  0  0  0  0  0  0  0
   21.1498  -19.3350  -13.9945 C   0  0  0  0  0  0  0  0  0  0  0  0
   20.2540  -18.2559  -13.5702 C   0  0  0  0  0  0  0  0  0  0  0  0
   18.9369  -18.2767  -13.1882 C   0  0  0  0  0  0  0  0  0  0  0  0
   18.6061  -17.0137  -12.8453 N   0  0  0  0  0  0  0  0  0  0  0  0
   19.6720  -16.2448  -13.0070 C   0  0  0  0  0  0  0  0  0  0  0  0
   20.6810  -16.9864  -13.4469 N   0  0  0  0  0  0  0  0  0  0  0  0
   19.4968  -20.7549  -15.0356 C   0  0  0  0  0  0  0  0  0  0  0  0
   18.1445  -20.8292  -14.6734 O   0  0  0  0  0  0  0  0  0  0  0  0
   19.7126  -20.7231  -16.2624 O   0  0  0  0  0  0  0  0  0  0  0  0
  2  1  1  6
  2  3  1  0
  3  4  1  0
  4  5  2  0
  4 12  1  0
  5  6  1  0
  6  7  1  0
  7  8  2  0
  9  8  1  0
 10  9  2  0
 11 12  2  0
 11 10  1  0
 12  7  1  0
 13 14  2  0
 13  2  1  0
 15 16  1  0
 17 16  1  1
 17 18  1  0
 17 19  1  0
 18 13  1  0
 19 21  1  0
 20 19  2  0
 21 22  1  0
 22 29  1  0
 23 24  1  0
 22 23  1  6
 24 28  1  0
 25 24  2  0
 25 26  1  0
 26 27  1  0
 28 27  2  0
 29 31  2  0
 29 30  1  0
M  END
$$$$
