WSH.pdb
     RDKit          3D

 31 33  0  0  1  0  0  0  0  0999 V2000
   27.5099  -21.9140  -13.7983 N   0  0  0  0  0  0  0  0  0  0  0  0
   26.4436  -21.3208  -13.0250 C   0  0  1  0  0  0  0  0  0  0  0  0
   26.9527  -20.0678  -12.3792 C   0  0  0  0  0  0  0  0  0  0  0  0
   27.8371  -20.3244  -11.2343 C   0  0  0  0  0  0  0  0  0  0  0  0
   29.2232  -20.4477  -11.2994 C   0  0  0  0  0  0  0  0  0  0  0  0
   29.6958  -20.7121  -10.0706 N   0  0  0  0  0  0  0  0  0  0  0  0
   28.6895  -20.7707   -9.1872 C   0  0  0  0  0  0  0  0  0  0  0  0
   28.6968  -21.0064   -7.8271 C   0  0  0  0  0  0  0  0  0  0  0  0
   27.5189  -21.0069   -7.1301 C   0  0  0  0  0  0  0  0  0  0  0  0
   26.3633  -20.7682   -7.8294 C   0  0  0  0  0  0  0  0  0  0  0  0
   26.3536  -20.5290   -9.2105 C   0  0  0  0  0  0  0  0  0  0  0  0
   27.5307  -20.5305   -9.9014 C   0  0  0  0  0  0  0  0  0  0  0  0
   25.2856  -21.1081  -13.8976 C   0  0  0  0  0  0  0  0  0  0  0  0
   25.4101  -20.5705  -15.0288 O   0  0  0  0  0  0  0  0  0  0  0  0
   21.5729  -22.6982  -13.0544 O   0  0  0  0  0  0  0  0  0  0  0  0
   21.9699  -22.5068  -14.3718 C   0  0  0  0  0  0  0  0  0  0  0  0
   22.8402  -21.2216  -14.4248 C   0  0  2  0  0  0  0  0  0  0  0  0
   23.9390  -21.4907  -13.5430 N   0  0  0  0  0  0  0  0  0  0  0  0
   21.9502  -20.1348  -14.0413 C   0  0  0  0  0  0  0  0  0  0  0  0
   22.0452  -19.7183  -12.8461 O   0  0  0  0  0  0  0  0  0  0  0  0
   20.9896  -19.4889  -14.8582 N   0  0  0  0  0  0  0  0  0  0  0  0
   20.1604  -18.3938  -14.2880 C   0  0  1  0  0  0  0  0  0  0  0  0
   19.9399  -17.4138  -15.3927 C   0  0  0  0  0  0  0  0  0  0  0  0
   21.0368  -16.4865  -15.6820 C   0  0  0  0  0  0  0  0  0  0  0  0
   22.0633  -16.0321  -14.8941 C   0  0  0  0  0  0  0  0  0  0  0  0
   22.8285  -15.2319  -15.6664 N   0  0  0  0  0  0  0  0  0  0  0  0
   22.2994  -15.1934  -16.8796 C   0  0  0  0  0  0  0  0  0  0  0  0
   21.2102  -15.9514  -16.9038 N   0  0  0  0  0  0  0  0  0  0  0  0
   18.8394  -19.0696  -14.0218 C   0  0  0  0  0  0  0  0  0  0  0  0
   17.9037  -18.5169  -13.1361 O   0  0  0  0  0  0  0  0  0  0  0  0
   18.4911  -20.1405  -14.5552 O   0  0  0  0  0  0  0  0  0  0  0  0
  2  1  1  6
  2  3  1  0
  3  4  1  0
  4  5  2  0
  4 12  1  0
  5  6  1  0
  6  7  1  0
  7  8  2  0
  9  8  1  0
 10  9  2  0
 11 12  2  0
 11 10  1  0
 12  7  1  0
 13 14  2  0
 13  2  1  0
 15 16  1  0
 17 16  1  1
 17 18  1  0
 17 19  1  0
 18 13  1  0
 19 21  1  0
 20 19  2  0
 21 22  1  0
 22 29  1  0
 23 24  1  0
 22 23  1  6
 24 28  1  0
 25 24  2  0
 25 26  1  0
 26 27  1  0
 28 27  2  0
 29 31  2  0
 29 30  1  0
M  END
$$$$
