WSH.pdb
     RDKit          3D

 31 33  0  0  1  0  0  0  0  0999 V2000
   25.3771  -21.2259   -8.9932 N   0  0  0  0  0  0  0  0  0  0  0  0
   26.3297  -20.3831   -9.6780 C   0  0  1  0  0  0  0  0  0  0  0  0
   27.5996  -21.1528   -9.8808 C   0  0  0  0  0  0  0  0  0  0  0  0
   28.4330  -21.2240   -8.6729 C   0  0  0  0  0  0  0  0  0  0  0  0
   29.6087  -21.9608   -8.5481 C   0  0  0  0  0  0  0  0  0  0  0  0
   30.0824  -21.8183   -7.2997 N   0  0  0  0  0  0  0  0  0  0  0  0
   29.2778  -21.0197   -6.5846 C   0  0  0  0  0  0  0  0  0  0  0  0
   29.3662  -20.5902   -5.2757 C   0  0  0  0  0  0  0  0  0  0  0  0
   28.4081  -19.7553   -4.7672 C   0  0  0  0  0  0  0  0  0  0  0  0
   27.3849  -19.3767   -5.5986 C   0  0  0  0  0  0  0  0  0  0  0  0
   27.2932  -19.8119   -6.9278 C   0  0  0  0  0  0  0  0  0  0  0  0
   28.2503  -20.6453   -7.4300 C   0  0  0  0  0  0  0  0  0  0  0  0
   25.7265  -19.8984  -10.9225 C   0  0  0  0  0  0  0  0  0  0  0  0
   24.4848  -19.9670  -11.1165 O   0  0  0  0  0  0  0  0  0  0  0  0
   27.7352  -19.5030  -14.3561 O   0  0  0  0  0  0  0  0  0  0  0  0
   26.9823  -18.3618  -14.1105 C   0  0  0  0  0  0  0  0  0  0  0  0
   25.8289  -18.7508  -13.1458 C   0  0  2  0  0  0  0  0  0  0  0  0
   26.4866  -19.3135  -12.0021 N   0  0  0  0  0  0  0  0  0  0  0  0
   24.9714  -19.6469  -13.9086 C   0  0  0  0  0  0  0  0  0  0  0  0
   25.1874  -20.8904  -13.7741 O   0  0  0  0  0  0  0  0  0  0  0  0
   23.9191  -19.2823  -14.7844 N   0  0  0  0  0  0  0  0  0  0  0  0
   22.8428  -20.2636  -15.0851 C   0  0  1  0  0  0  0  0  0  0  0  0
   22.1827  -20.5766  -13.7829 C   0  0  0  0  0  0  0  0  0  0  0  0
   21.0248  -21.4734  -13.8278 C   0  0  0  0  0  0  0  0  0  0  0  0
   20.8462  -22.6830  -14.4490 C   0  0  0  0  0  0  0  0  0  0  0  0
   19.6072  -23.1120  -14.1276 N   0  0  0  0  0  0  0  0  0  0  0  0
   19.0439  -22.2079  -13.3410 C   0  0  0  0  0  0  0  0  0  0  0  0
   19.8940  -21.2067  -13.1501 N   0  0  0  0  0  0  0  0  0  0  0  0
   21.8631  -19.4567  -15.8985 C   0  0  0  0  0  0  0  0  0  0  0  0
   22.1371  -18.1312  -16.2637 O   0  0  0  0  0  0  0  0  0  0  0  0
   20.7672  -19.8967  -16.2959 O   0  0  0  0  0  0  0  0  0  0  0  0
  2  1  1  6
  2  3  1  0
  3  4  1  0
  4  5  2  0
  4 12  1  0
  5  6  1  0
  6  7  1  0
  7  8  2  0
  9  8  1  0
 10  9  2  0
 11 12  2  0
 11 10  1  0
 12  7  1  0
 13 14  2  0
 13  2  1  0
 15 16  1  0
 17 16  1  6
 17 18  1  0
 17 19  1  0
 18 13  1  0
 19 21  1  0
 20 19  2  0
 21 22  1  0
 22 29  1  0
 23 24  1  0
 22 23  1  1
 24 28  1  0
 25 24  2  0
 25 26  1  0
 26 27  1  0
 28 27  2  0
 29 31  2  0
 29 30  1  0
M  END
$$$$
