WSH.pdb
     RDKit          3D

 31 33  0  0  1  0  0  0  0  0999 V2000
   22.9476  -12.3156  -18.3452 N   0  0  0  0  0  0  0  0  0  0  0  0
   22.0617  -11.3585  -17.7241 C   0  0  1  0  0  0  0  0  0  0  0  0
   21.2637  -12.0543  -16.6634 C   0  0  0  0  0  0  0  0  0  0  0  0
   20.2727  -12.9933  -17.2064 C   0  0  0  0  0  0  0  0  0  0  0  0
   20.4399  -14.3728  -17.3050 C   0  0  0  0  0  0  0  0  0  0  0  0
   19.3485  -14.9047  -17.8786 N   0  0  0  0  0  0  0  0  0  0  0  0
   18.4592  -13.9444  -18.1674 C   0  0  0  0  0  0  0  0  0  0  0  0
   17.2094  -14.0187  -18.7486 C   0  0  0  0  0  0  0  0  0  0  0  0
   16.4758  -12.8780  -18.9335 C   0  0  0  0  0  0  0  0  0  0  0  0
   17.0277  -11.6908  -18.5242 C   0  0  0  0  0  0  0  0  0  0  0  0
   18.2967  -11.6132  -17.9341 C   0  0  0  0  0  0  0  0  0  0  0  0
   19.0249  -12.7532  -17.7529 C   0  0  0  0  0  0  0  0  0  0  0  0
   22.8547  -10.2320  -17.2243 C   0  0  0  0  0  0  0  0  0  0  0  0
   24.0605  -10.3774  -16.8944 O   0  0  0  0  0  0  0  0  0  0  0  0
   23.5568   -7.2294  -18.8337 O   0  0  0  0  0  0  0  0  0  0  0  0
   24.2221   -7.6005  -17.6722 C   0  0  0  0  0  0  0  0  0  0  0  0
   23.1562   -7.8345  -16.5671 C   0  0  2  0  0  0  0  0  0  0  0  0
   22.3331   -8.8937  -17.0751 N   0  0  0  0  0  0  0  0  0  0  0  0
   22.5092   -6.5444  -16.3734 C   0  0  0  0  0  0  0  0  0  0  0  0
   21.7062   -6.1702  -17.2823 O   0  0  0  0  0  0  0  0  0  0  0  0
   22.6766   -5.6607  -15.2787 N   0  0  0  0  0  0  0  0  0  0  0  0
   21.7668   -4.4932  -15.1338 C   0  0  1  0  0  0  0  0  0  0  0  0
   20.7101   -4.9013  -14.1610 C   0  0  0  0  0  0  0  0  0  0  0  0
   19.5324   -5.5783  -14.7101 C   0  0  0  0  0  0  0  0  0  0  0  0
   19.1860   -5.8756  -16.0034 C   0  0  0  0  0  0  0  0  0  0  0  0
   18.0204   -6.5547  -15.9531 N   0  0  0  0  0  0  0  0  0  0  0  0
   17.6615   -6.6735  -14.6840 C   0  0  0  0  0  0  0  0  0  0  0  0
   18.5711   -6.0850  -13.9174 N   0  0  0  0  0  0  0  0  0  0  0  0
   22.6334   -3.4689  -14.4465 C   0  0  0  0  0  0  0  0  0  0  0  0
   23.9765   -3.7349  -14.1455 O   0  0  0  0  0  0  0  0  0  0  0  0
   22.2305   -2.3404  -14.1048 O   0  0  0  0  0  0  0  0  0  0  0  0
  2  1  1  1
  2  3  1  0
  3  4  1  0
  4  5  2  0
  4 12  1  0
  5  6  1  0
  6  7  1  0
  7  8  2  0
  9  8  1  0
 10  9  2  0
 11 12  2  0
 11 10  1  0
 12  7  1  0
 13 14  2  0
 13  2  1  0
 15 16  1  0
 17 16  1  6
 17 18  1  0
 17 19  1  0
 18 13  1  0
 19 21  1  0
 20 19  2  0
 21 22  1  0
 22 29  1  0
 23 24  1  0
 22 23  1  1
 24 28  1  0
 25 24  2  0
 25 26  1  0
 26 27  1  0
 28 27  2  0
 29 31  2  0
 29 30  1  0
M  END
$$$$
