WSH.pdb
     RDKit          3D

 31 33  0  0  1  0  0  0  0  0999 V2000
   24.8919  -10.7451  -15.4174 N   0  0  0  0  0  0  0  0  0  0  0  0
   24.5990   -9.5302  -16.1419 C   0  0  1  0  0  0  0  0  0  0  0  0
   24.5214   -9.8455  -17.6050 C   0  0  0  0  0  0  0  0  0  0  0  0
   25.7956  -10.3169  -18.1644 C   0  0  0  0  0  0  0  0  0  0  0  0
   26.0079  -11.5661  -18.7432 C   0  0  0  0  0  0  0  0  0  0  0  0
   27.2954  -11.6628  -19.1125 N   0  0  0  0  0  0  0  0  0  0  0  0
   27.9532  -10.5355  -18.8077 C   0  0  0  0  0  0  0  0  0  0  0  0
   29.2729  -10.1812  -19.0033 C   0  0  0  0  0  0  0  0  0  0  0  0
   29.7123   -8.9470  -18.6067 C   0  0  0  0  0  0  0  0  0  0  0  0
   28.8026   -8.1031  -18.0222 C   0  0  0  0  0  0  0  0  0  0  0  0
   27.4622   -8.4610  -17.8224 C   0  0  0  0  0  0  0  0  0  0  0  0
   27.0290   -9.6931  -18.2185 C   0  0  0  0  0  0  0  0  0  0  0  0
   23.3739   -8.9370  -15.5989 C   0  0  0  0  0  0  0  0  0  0  0  0
   22.3311   -9.6232  -15.4390 O   0  0  0  0  0  0  0  0  0  0  0  0
   23.3464   -5.1797  -14.0106 O   0  0  0  0  0  0  0  0  0  0  0  0
   22.4040   -6.0933  -13.5556 C   0  0  0  0  0  0  0  0  0  0  0  0
   22.0178   -7.0119  -14.7469 C   0  0  2  0  0  0  0  0  0  0  0  0
   23.2643   -7.5509  -15.2086 N   0  0  0  0  0  0  0  0  0  0  0  0
   21.2952   -6.1563  -15.6776 C   0  0  0  0  0  0  0  0  0  0  0  0
   21.8271   -5.9800  -16.8164 O   0  0  0  0  0  0  0  0  0  0  0  0
   20.0602   -5.4997  -15.4514 N   0  0  0  0  0  0  0  0  0  0  0  0
   19.4973   -4.6144  -16.5055 C   0  0  1  0  0  0  0  0  0  0  0  0
   19.2589   -5.4796  -17.6989 C   0  0  0  0  0  0  0  0  0  0  0  0
   18.6117   -4.8500  -18.8527 C   0  0  0  0  0  0  0  0  0  0  0  0
   18.6142   -3.5494  -19.2880 C   0  0  0  0  0  0  0  0  0  0  0  0
   17.9005   -3.5156  -20.4333 N   0  0  0  0  0  0  0  0  0  0  0  0
   17.4755   -4.7419  -20.6961 C   0  0  0  0  0  0  0  0  0  0  0  0
   17.9004   -5.5633  -19.7441 N   0  0  0  0  0  0  0  0  0  0  0  0
   18.1470   -4.2392  -15.9504 C   0  0  0  0  0  0  0  0  0  0  0  0
   17.5563   -3.0023  -16.2445 O   0  0  0  0  0  0  0  0  0  0  0  0
   17.4741   -4.9812  -15.2092 O   0  0  0  0  0  0  0  0  0  0  0  0
  2  1  1  1
  2  3  1  0
  3  4  1  0
  4  5  2  0
  4 12  1  0
  5  6  1  0
  6  7  1  0
  7  8  2  0
  9  8  1  0
 10  9  2  0
 11 12  2  0
 11 10  1  0
 12  7  1  0
 13 14  2  0
 13  2  1  0
 15 16  1  0
 17 16  1  1
 17 18  1  0
 17 19  1  0
 18 13  1  0
 19 21  1  0
 20 19  2  0
 21 22  1  0
 22 29  1  0
 23 24  1  0
 22 23  1  6
 24 28  1  0
 25 24  2  0
 25 26  1  0
 26 27  1  0
 28 27  2  0
 29 31  2  0
 29 30  1  0
M  END
$$$$
