WSH.pdb
     RDKit          3D

 31 33  0  0  1  0  0  0  0  0999 V2000
   27.2413  -20.0243  -11.3329 N   0  0  0  0  0  0  0  0  0  0  0  0
   26.4359  -21.2230  -11.2976 C   0  0  1  0  0  0  0  0  0  0  0  0
   25.7878  -21.3316   -9.9507 C   0  0  0  0  0  0  0  0  0  0  0  0
   26.6813  -20.9578   -8.8460 C   0  0  0  0  0  0  0  0  0  0  0  0
   26.3173  -20.1949   -7.7386 C   0  0  0  0  0  0  0  0  0  0  0  0
   27.3933  -20.0240   -6.9537 N   0  0  0  0  0  0  0  0  0  0  0  0
   28.4596  -20.6380   -7.4851 C   0  0  0  0  0  0  0  0  0  0  0  0
   29.7604  -20.7368   -7.0337 C   0  0  0  0  0  0  0  0  0  0  0  0
   30.6823  -21.4384   -7.7627 C   0  0  0  0  0  0  0  0  0  0  0  0
   30.2622  -22.0223   -8.9306 C   0  0  0  0  0  0  0  0  0  0  0  0
   28.9420  -21.9229   -9.3907 C   0  0  0  0  0  0  0  0  0  0  0  0
   28.0265  -21.2213   -8.6610 C   0  0  0  0  0  0  0  0  0  0  0  0
   25.4838  -21.1884  -12.4112 C   0  0  0  0  0  0  0  0  0  0  0  0
   24.8473  -20.1402  -12.6941 O   0  0  0  0  0  0  0  0  0  0  0  0
   25.4421  -23.8354  -15.5253 O   0  0  0  0  0  0  0  0  0  0  0  0
   24.1998  -23.6658  -14.9273 C   0  0  0  0  0  0  0  0  0  0  0  0
   24.1805  -22.2638  -14.2594 C   0  0  2  0  0  0  0  0  0  0  0  0
   25.2055  -22.3247  -13.2578 N   0  0  0  0  0  0  0  0  0  0  0  0
   22.8167  -22.0801  -13.7834 C   0  0  0  0  0  0  0  0  0  0  0  0
   22.6679  -21.9297  -12.5319 O   0  0  0  0  0  0  0  0  0  0  0  0
   21.6360  -22.0486  -14.5658 N   0  0  0  0  0  0  0  0  0  0  0  0
   20.4466  -21.3074  -14.0678 C   0  0  1  0  0  0  0  0  0  0  0  0
   20.8176  -19.8611  -14.0774 C   0  0  0  0  0  0  0  0  0  0  0  0
   19.7576  -18.9049  -13.7474 C   0  0  0  0  0  0  0  0  0  0  0  0
   18.4766  -19.1002  -13.2979 C   0  0  0  0  0  0  0  0  0  0  0  0
   17.9374  -17.8784  -13.1012 N   0  0  0  0  0  0  0  0  0  0  0  0
   18.8452  -16.9666  -13.4142 C   0  0  0  0  0  0  0  0  0  0  0  0
   19.9564  -17.5760  -13.8084 N   0  0  0  0  0  0  0  0  0  0  0  0
   19.4325  -21.5144  -15.1638 C   0  0  0  0  0  0  0  0  0  0  0  0
   19.7802  -21.3728  -16.5145 O   0  0  0  0  0  0  0  0  0  0  0  0
   18.2423  -21.8188  -14.9554 O   0  0  0  0  0  0  0  0  0  0  0  0
  2  1  1  1
  2  3  1  0
  3  4  1  0
  4  5  2  0
  4 12  1  0
  5  6  1  0
  6  7  1  0
  7  8  2  0
  9  8  1  0
 10  9  2  0
 11 12  2  0
 11 10  1  0
 12  7  1  0
 13 14  2  0
 13  2  1  0
 15 16  1  0
 17 16  1  1
 17 18  1  0
 17 19  1  0
 18 13  1  0
 19 21  1  0
 20 19  2  0
 21 22  1  0
 22 29  1  0
 23 24  1  0
 22 23  1  6
 24 28  1  0
 25 24  2  0
 25 26  1  0
 26 27  1  0
 28 27  2  0
 29 31  2  0
 29 30  1  0
M  END
$$$$
