WSH.pdb
     RDKit          3D

 31 33  0  0  1  0  0  0  0  0999 V2000
   26.1801  -27.9858  -17.8571 N   0  0  0  0  0  0  0  0  0  0  0  0
   26.8649  -27.4404  -16.7080 C   0  0  1  0  0  0  0  0  0  0  0  0
   28.2911  -27.1671  -17.0786 C   0  0  0  0  0  0  0  0  0  0  0  0
   29.0640  -28.3874  -17.3472 C   0  0  0  0  0  0  0  0  0  0  0  0
   29.8124  -28.6299  -18.4969 C   0  0  0  0  0  0  0  0  0  0  0  0
   30.3545  -29.8556  -18.4141 N   0  0  0  0  0  0  0  0  0  0  0  0
   30.0034  -30.4433  -17.2618 C   0  0  0  0  0  0  0  0  0  0  0  0
   30.3242  -31.6839  -16.7485 C   0  0  0  0  0  0  0  0  0  0  0  0
   29.8414  -32.0594  -15.5240 C   0  0  0  0  0  0  0  0  0  0  0  0
   29.0460  -31.1676  -14.8507 C   0  0  0  0  0  0  0  0  0  0  0  0
   28.7188  -29.9076  -15.3702 C   0  0  0  0  0  0  0  0  0  0  0  0
   29.2017  -29.5381  -16.5921 C   0  0  0  0  0  0  0  0  0  0  0  0
   26.1382  -26.2572  -16.2394 C   0  0  0  0  0  0  0  0  0  0  0  0
   26.6394  -25.4777  -15.3877 O   0  0  0  0  0  0  0  0  0  0  0  0
   23.2384  -24.7378  -18.3235 O   0  0  0  0  0  0  0  0  0  0  0  0
   23.6792  -23.9087  -17.2998 C   0  0  0  0  0  0  0  0  0  0  0  0
   24.0999  -24.8087  -16.1060 C   0  0  2  0  0  0  0  0  0  0  0  0
   24.8208  -25.8939  -16.7060 N   0  0  0  0  0  0  0  0  0  0  0  0
   22.8603  -25.1508  -15.4229 C   0  0  0  0  0  0  0  0  0  0  0  0
   22.4403  -26.3394  -15.5705 O   0  0  0  0  0  0  0  0  0  0  0  0
   22.0713  -24.3012  -14.6086 N   0  0  0  0  0  0  0  0  0  0  0  0
   20.7570  -24.7822  -14.1054 C   0  0  1  0  0  0  0  0  0  0  0  0
   20.8947  -24.9102  -12.6241 C   0  0  0  0  0  0  0  0  0  0  0  0
   19.6711  -25.1916  -11.8688 C   0  0  0  0  0  0  0  0  0  0  0  0
   18.3796  -25.3872  -12.2868 C   0  0  0  0  0  0  0  0  0  0  0  0
   17.6471  -25.6640  -11.1873 N   0  0  0  0  0  0  0  0  0  0  0  0
   18.4502  -25.6417  -10.1346 C   0  0  0  0  0  0  0  0  0  0  0  0
   19.6833  -25.3561  -10.5338 N   0  0  0  0  0  0  0  0  0  0  0  0
   19.8426  -23.6130  -14.3684 C   0  0  0  0  0  0  0  0  0  0  0  0
   20.3276  -22.4180  -14.9182 O   0  0  0  0  0  0  0  0  0  0  0  0
   18.6209  -23.6223  -14.1234 O   0  0  0  0  0  0  0  0  0  0  0  0
  2  1  1  6
  2  3  1  0
  3  4  1  0
  4  5  2  0
  4 12  1  0
  5  6  1  0
  6  7  1  0
  7  8  2  0
  9  8  1  0
 10  9  2  0
 11 12  2  0
 11 10  1  0
 12  7  1  0
 13 14  2  0
 13  2  1  0
 15 16  1  0
 17 16  1  6
 17 18  1  0
 17 19  1  0
 18 13  1  0
 19 21  1  0
 20 19  2  0
 21 22  1  0
 22 29  1  0
 23 24  1  0
 22 23  1  1
 24 28  1  0
 25 24  2  0
 25 26  1  0
 26 27  1  0
 28 27  2  0
 29 31  2  0
 29 30  1  0
M  END
$$$$
