WSH.pdb
     RDKit          3D

 31 33  0  0  1  0  0  0  0  0999 V2000
   26.5944  -22.3593  -13.6473 N   0  0  0  0  0  0  0  0  0  0  0  0
   25.6884  -21.5067  -12.9130 C   0  0  1  0  0  0  0  0  0  0  0  0
   26.4154  -20.2593  -12.5113 C   0  0  0  0  0  0  0  0  0  0  0  0
   27.4044  -20.4821  -11.4478 C   0  0  0  0  0  0  0  0  0  0  0  0
   28.7797  -20.5964  -11.6381 C   0  0  0  0  0  0  0  0  0  0  0  0
   29.3664  -20.8283  -10.4526 N   0  0  0  0  0  0  0  0  0  0  0  0
   28.4466  -20.8737   -9.4788 C   0  0  0  0  0  0  0  0  0  0  0  0
   28.5818  -21.0773   -8.1202 C   0  0  0  0  0  0  0  0  0  0  0  0
   27.4734  -21.0705   -7.3173 C   0  0  0  0  0  0  0  0  0  0  0  0
   26.2558  -20.8570   -7.9118 C   0  0  0  0  0  0  0  0  0  0  0  0
   26.1163  -20.6504   -9.2911 C   0  0  0  0  0  0  0  0  0  0  0  0
   27.2244  -20.6592  -10.0878 C   0  0  0  0  0  0  0  0  0  0  0  0
   24.4988  -21.2602  -13.7325 C   0  0  0  0  0  0  0  0  0  0  0  0
   24.5938  -20.8002  -14.9002 O   0  0  0  0  0  0  0  0  0  0  0  0
   20.8411  -22.4323  -12.4240 O   0  0  0  0  0  0  0  0  0  0  0  0
   21.0340  -22.4390  -13.7997 C   0  0  0  0  0  0  0  0  0  0  0  0
   22.0293  -21.2983  -14.1463 C   0  0  2  0  0  0  0  0  0  0  0  0
   23.1519  -21.5208  -13.2816 N   0  0  0  0  0  0  0  0  0  0  0  0
   21.2877  -20.0618  -13.9434 C   0  0  0  0  0  0  0  0  0  0  0  0
   21.3934  -19.5175  -12.8017 O   0  0  0  0  0  0  0  0  0  0  0  0
   20.4612  -19.3975  -14.8830 N   0  0  0  0  0  0  0  0  0  0  0  0
   19.7807  -18.1331  -14.4954 C   0  0  1  0  0  0  0  0  0  0  0  0
   19.6235  -17.3381  -15.7495 C   0  0  0  0  0  0  0  0  0  0  0  0
   20.8199  -16.6618  -16.2574 C   0  0  0  0  0  0  0  0  0  0  0  0
   21.8996  -16.1281  -15.6014 C   0  0  0  0  0  0  0  0  0  0  0  0
   22.7476  -15.6692  -16.5462 N   0  0  0  0  0  0  0  0  0  0  0  0
   22.2165  -15.9094  -17.7352 C   0  0  0  0  0  0  0  0  0  0  0  0
   21.0451  -16.5124  -17.5751 N   0  0  0  0  0  0  0  0  0  0  0  0
   18.4059  -18.5972  -14.0868 C   0  0  0  0  0  0  0  0  0  0  0  0
   17.5544  -17.7775  -13.3329 O   0  0  0  0  0  0  0  0  0  0  0  0
   17.9374  -19.7136  -14.3815 O   0  0  0  0  0  0  0  0  0  0  0  0
  2  1  1  6
  2  3  1  0
  3  4  1  0
  4  5  2  0
  4 12  1  0
  5  6  1  0
  6  7  1  0
  7  8  2  0
  9  8  1  0
 10  9  2  0
 11 12  2  0
 11 10  1  0
 12  7  1  0
 13 14  2  0
 13  2  1  0
 15 16  1  0
 17 16  1  1
 17 18  1  0
 17 19  1  0
 18 13  1  0
 19 21  1  0
 20 19  2  0
 21 22  1  0
 22 29  1  0
 23 24  1  0
 22 23  1  6
 24 28  1  0
 25 24  2  0
 25 26  1  0
 26 27  1  0
 28 27  2  0
 29 31  2  0
 29 30  1  0
M  END
$$$$
