WSH.pdb
     RDKit          3D

 31 33  0  0  1  0  0  0  0  0999 V2000
   15.9690  -18.7028    3.0431 N   0  0  0  0  0  0  0  0  0  0  0  0
   17.2634  -19.1126    3.5364 C   0  0  1  0  0  0  0  0  0  0  0  0
   18.2986  -18.1502    3.0383 C   0  0  0  0  0  0  0  0  0  0  0  0
   18.8438  -18.5150    1.7236 C   0  0  0  0  0  0  0  0  0  0  0  0
   18.1504  -19.1948    0.7247 C   0  0  0  0  0  0  0  0  0  0  0  0
   18.9691  -19.3850   -0.3226 N   0  0  0  0  0  0  0  0  0  0  0  0
   20.1776  -18.8633   -0.0699 C   0  0  0  0  0  0  0  0  0  0  0  0
   21.3187  -18.8157   -0.8451 C   0  0  0  0  0  0  0  0  0  0  0  0
   22.4459  -18.2089   -0.3606 C   0  0  0  0  0  0  0  0  0  0  0  0
   22.3877  -17.6655    0.8975 C   0  0  0  0  0  0  0  0  0  0  0  0
   21.2301  -17.7130    1.6864 C   0  0  0  0  0  0  0  0  0  0  0  0
   20.1089  -18.3201    1.1994 C   0  0  0  0  0  0  0  0  0  0  0  0
   17.2045  -19.2144    4.9972 C   0  0  0  0  0  0  0  0  0  0  0  0
   16.8682  -18.2313    5.7074 O   0  0  0  0  0  0  0  0  0  0  0  0
   18.3753  -22.6482    6.8972 O   0  0  0  0  0  0  0  0  0  0  0  0
   17.3946  -21.9167    7.5551 C   0  0  0  0  0  0  0  0  0  0  0  0
   17.5673  -20.4249    7.1591 C   0  0  2  0  0  0  0  0  0  0  0  0
   17.5165  -20.4216    5.7256 N   0  0  0  0  0  0  0  0  0  0  0  0
   18.8229  -20.0058    7.7658 C   0  0  0  0  0  0  0  0  0  0  0  0
   19.7496  -19.6595    6.9708 O   0  0  0  0  0  0  0  0  0  0  0  0
   19.1232  -19.9402    9.1489 N   0  0  0  0  0  0  0  0  0  0  0  0
   20.4767  -19.5048    9.5849 C   0  0  1  0  0  0  0  0  0  0  0  0
   20.5597  -18.0411    9.3013 C   0  0  0  0  0  0  0  0  0  0  0  0
   21.7325  -17.3330    9.8208 C   0  0  0  0  0  0  0  0  0  0  0  0
   22.8602  -17.7975   10.4481 C   0  0  0  0  0  0  0  0  0  0  0  0
   23.6540  -16.7292   10.6740 N   0  0  0  0  0  0  0  0  0  0  0  0
   23.0448  -15.6507   10.2060 C   0  0  0  0  0  0  0  0  0  0  0  0
   21.8761  -16.0025    9.6846 N   0  0  0  0  0  0  0  0  0  0  0  0
   20.4207  -19.6658   11.0827 C   0  0  0  0  0  0  0  0  0  0  0  0
   21.5812  -19.6005   11.8665 O   0  0  0  0  0  0  0  0  0  0  0  0
   19.3668  -19.8631   11.7176 O   0  0  0  0  0  0  0  0  0  0  0  0
  2  1  1  1
  2  3  1  0
  3  4  1  0
  4  5  2  0
  4 12  1  0
  5  6  1  0
  6  7  1  0
  7  8  2  0
  9  8  1  0
 10  9  2  0
 11 12  2  0
 11 10  1  0
 12  7  1  0
 13 14  2  0
 13  2  1  0
 15 16  1  0
 17 16  1  6
 17 18  1  0
 17 19  1  0
 18 13  1  0
 19 21  1  0
 20 19  2  0
 21 22  1  0
 22 29  1  0
 23 24  1  0
 22 23  1  1
 24 28  1  0
 25 24  2  0
 25 26  1  0
 26 27  1  0
 28 27  2  0
 29 31  2  0
 29 30  1  0
M  END
$$$$
