WSH.pdb
     RDKit          3D

 31 33  0  0  1  0  0  0  0  0999 V2000
   22.2599   -6.2869  -17.2853 N   0  0  0  0  0  0  0  0  0  0  0  0
   21.4915   -7.3613  -16.7006 C   0  0  1  0  0  0  0  0  0  0  0  0
   20.5267   -6.7835  -15.7099 C   0  0  0  0  0  0  0  0  0  0  0  0
   21.0943   -6.6446  -14.3618 C   0  0  0  0  0  0  0  0  0  0  0  0
   21.3543   -5.4368  -13.7181 C   0  0  0  0  0  0  0  0  0  0  0  0
   21.9005   -5.6908  -12.5179 N   0  0  0  0  0  0  0  0  0  0  0  0
   22.0170   -7.0127  -12.3297 C   0  0  0  0  0  0  0  0  0  0  0  0
   22.5094   -7.7305  -11.2583 C   0  0  0  0  0  0  0  0  0  0  0  0
   22.5147   -9.0986  -11.3004 C   0  0  0  0  0  0  0  0  0  0  0  0
   22.0204   -9.7045  -12.4273 C   0  0  0  0  0  0  0  0  0  0  0  0
   21.5203   -8.9775  -13.5164 C   0  0  0  0  0  0  0  0  0  0  0  0
   21.5182   -7.6135  -13.4703 C   0  0  0  0  0  0  0  0  0  0  0  0
   20.8504   -8.1256  -17.7741 C   0  0  0  0  0  0  0  0  0  0  0  0
   20.6336   -7.6116  -18.9023 O   0  0  0  0  0  0  0  0  0  0  0  0
   20.5626  -11.1660  -20.7988 O   0  0  0  0  0  0  0  0  0  0  0  0
   21.0542  -10.5145  -19.6747 C   0  0  0  0  0  0  0  0  0  0  0  0
   19.8537  -10.2112  -18.7372 C   0  0  2  0  0  0  0  0  0  0  0  0
   20.4271   -9.4989  -17.6321 N   0  0  0  0  0  0  0  0  0  0  0  0
   19.2592  -11.5063  -18.4376 C   0  0  0  0  0  0  0  0  0  0  0  0
   19.9541  -12.3002  -17.7321 O   0  0  0  0  0  0  0  0  0  0  0  0
   17.9870  -11.9771  -18.8463 N   0  0  0  0  0  0  0  0  0  0  0  0
   17.2268  -12.8978  -17.9595 C   0  0  1  0  0  0  0  0  0  0  0  0
   16.8819  -12.1144  -16.7360 C   0  0  0  0  0  0  0  0  0  0  0  0
   15.8721  -12.6915  -15.8450 C   0  0  0  0  0  0  0  0  0  0  0  0
   15.8512  -13.8770  -15.1556 C   0  0  0  0  0  0  0  0  0  0  0  0
   14.7066  -13.8968  -14.4401 N   0  0  0  0  0  0  0  0  0  0  0  0
   14.0482  -12.7723  -14.6755 C   0  0  0  0  0  0  0  0  0  0  0  0
   14.7447  -12.0301  -15.5273 N   0  0  0  0  0  0  0  0  0  0  0  0
   15.9451  -13.1231  -18.7203 C   0  0  0  0  0  0  0  0  0  0  0  0
   14.9399  -13.9634  -18.2214 O   0  0  0  0  0  0  0  0  0  0  0  0
   15.6913  -12.5931  -19.8190 O   0  0  0  0  0  0  0  0  0  0  0  0
  2  1  1  6
  2  3  1  0
  3  4  1  0
  4  5  2  0
  4 12  1  0
  5  6  1  0
  6  7  1  0
  7  8  2  0
  9  8  1  0
 10  9  2  0
 11 12  2  0
 11 10  1  0
 12  7  1  0
 13 14  2  0
 13  2  1  0
 15 16  1  0
 17 16  1  6
 17 18  1  0
 17 19  1  0
 18 13  1  0
 19 21  1  0
 20 19  2  0
 21 22  1  0
 22 29  1  0
 23 24  1  0
 22 23  1  1
 24 28  1  0
 25 24  2  0
 25 26  1  0
 26 27  1  0
 28 27  2  0
 29 31  2  0
 29 30  1  0
M  END
$$$$
