WSH.pdb
     RDKit          3D

 31 33  0  0  1  0  0  0  0  0999 V2000
   26.5966  -21.8459  -12.9343 N   0  0  0  0  0  0  0  0  0  0  0  0
   25.8267  -21.2839  -11.8489 C   0  0  1  0  0  0  0  0  0  0  0  0
   26.4754  -20.0080  -11.4046 C   0  0  0  0  0  0  0  0  0  0  0  0
   27.6016  -20.2203  -10.4852 C   0  0  0  0  0  0  0  0  0  0  0  0
   28.9453  -20.2508  -10.8513 C   0  0  0  0  0  0  0  0  0  0  0  0
   29.6890  -20.4993   -9.7611 N   0  0  0  0  0  0  0  0  0  0  0  0
   28.9042  -20.6356   -8.6832 C   0  0  0  0  0  0  0  0  0  0  0  0
   29.2214  -20.8878   -7.3636 C   0  0  0  0  0  0  0  0  0  0  0  0
   28.2253  -20.9753   -6.4289 C   0  0  0  0  0  0  0  0  0  0  0  0
   26.9329  -20.8045   -6.8555 C   0  0  0  0  0  0  0  0  0  0  0  0
   26.6087  -20.5486   -8.1949 C   0  0  0  0  0  0  0  0  0  0  0  0
   27.6053  -20.4634   -9.1235 C   0  0  0  0  0  0  0  0  0  0  0  0
   24.4378  -21.1201  -12.2867 C   0  0  0  0  0  0  0  0  0  0  0  0
   24.1403  -21.0639  -13.5083 O   0  0  0  0  0  0  0  0  0  0  0  0
   21.5045  -19.8081   -9.8698 O   0  0  0  0  0  0  0  0  0  0  0  0
   21.0946  -20.9274  -10.5832 C   0  0  0  0  0  0  0  0  0  0  0  0
   21.9719  -21.0250  -11.8611 C   0  0  2  0  0  0  0  0  0  0  0  0
   23.3218  -21.0153  -11.3762 N   0  0  0  0  0  0  0  0  0  0  0  0
   21.5718  -19.8987  -12.6927 C   0  0  0  0  0  0  0  0  0  0  0  0
   22.0096  -18.7574  -12.3512 O   0  0  0  0  0  0  0  0  0  0  0  0
   20.7477  -19.9377  -13.8445 N   0  0  0  0  0  0  0  0  0  0  0  0
   20.5000  -18.6874  -14.6108 C   0  0  1  0  0  0  0  0  0  0  0  0
   20.9799  -18.9438  -16.0013 C   0  0  0  0  0  0  0  0  0  0  0  0
   22.4307  -18.9779  -16.2037 C   0  0  0  0  0  0  0  0  0  0  0  0
   23.3852  -18.0060  -16.0447 C   0  0  0  0  0  0  0  0  0  0  0  0
   24.5781  -18.5772  -16.3148 N   0  0  0  0  0  0  0  0  0  0  0  0
   24.3712  -19.8474  -16.6264 C   0  0  0  0  0  0  0  0  0  0  0  0
   23.0708  -20.1050  -16.5629 N   0  0  0  0  0  0  0  0  0  0  0  0
   18.9953  -18.6134  -14.6655 C   0  0  0  0  0  0  0  0  0  0  0  0
   18.3393  -17.4808  -15.1678 O   0  0  0  0  0  0  0  0  0  0  0  0
   18.2439  -19.5291  -14.2788 O   0  0  0  0  0  0  0  0  0  0  0  0
  2  1  1  6
  2  3  1  0
  3  4  1  0
  4  5  2  0
  4 12  1  0
  5  6  1  0
  6  7  1  0
  7  8  2  0
  9  8  1  0
 10  9  2  0
 11 12  2  0
 11 10  1  0
 12  7  1  0
 13 14  2  0
 13  2  1  0
 15 16  1  0
 17 16  1  1
 17 18  1  0
 17 19  1  0
 18 13  1  0
 19 21  1  0
 20 19  2  0
 21 22  1  0
 22 29  1  0
 23 24  1  0
 22 23  1  6
 24 28  1  0
 25 24  2  0
 25 26  1  0
 26 27  1  0
 28 27  2  0
 29 31  2  0
 29 30  1  0
M  END
$$$$
