WSH.pdb
     RDKit          3D

 31 33  0  0  1  0  0  0  0  0999 V2000
   26.8222  -20.2831  -16.3482 N   0  0  0  0  0  0  0  0  0  0  0  0
   25.8141  -19.4833  -15.6918 C   0  0  1  0  0  0  0  0  0  0  0  0
   25.2656  -18.4934  -16.6743 C   0  0  0  0  0  0  0  0  0  0  0  0
   26.2246  -17.4390  -17.0310 C   0  0  0  0  0  0  0  0  0  0  0  0
   26.7993  -17.2648  -18.2880 C   0  0  0  0  0  0  0  0  0  0  0  0
   27.6497  -16.2267  -18.2389 N   0  0  0  0  0  0  0  0  0  0  0  0
   27.6694  -15.6987  -17.0071 C   0  0  0  0  0  0  0  0  0  0  0  0
   28.3783  -14.6303  -16.4958 C   0  0  0  0  0  0  0  0  0  0  0  0
   28.2181  -14.2721  -15.1845 C   0  0  0  0  0  0  0  0  0  0  0  0
   27.3430  -15.0060  -14.4247 C   0  0  0  0  0  0  0  0  0  0  0  0
   26.6225  -16.0914  -14.9419 C   0  0  0  0  0  0  0  0  0  0  0  0
   26.7864  -16.4454  -16.2498 C   0  0  0  0  0  0  0  0  0  0  0  0
   24.7999  -20.3731  -15.1198 C   0  0  0  0  0  0  0  0  0  0  0  0
   24.5901  -21.5178  -15.5990 O   0  0  0  0  0  0  0  0  0  0  0  0
   21.7679  -19.2092  -12.3679 O   0  0  0  0  0  0  0  0  0  0  0  0
   22.5542  -20.3275  -12.1214 C   0  0  0  0  0  0  0  0  0  0  0  0
   22.9783  -20.9227  -13.4918 C   0  0  2  0  0  0  0  0  0  0  0  0
   23.9791  -20.0213  -13.9849 N   0  0  0  0  0  0  0  0  0  0  0  0
   21.7507  -21.0190  -14.2690 C   0  0  0  0  0  0  0  0  0  0  0  0
   21.4826  -20.0395  -15.0303 O   0  0  0  0  0  0  0  0  0  0  0  0
   20.8222  -22.0892  -14.2700 N   0  0  0  0  0  0  0  0  0  0  0  0
   19.6039  -22.0014  -15.1184 C   0  0  1  0  0  0  0  0  0  0  0  0
   19.4485  -23.3352  -15.7712 C   0  0  0  0  0  0  0  0  0  0  0  0
   18.2593  -23.5282  -16.6051 C   0  0  0  0  0  0  0  0  0  0  0  0
   17.5398  -22.6427  -17.3662 C   0  0  0  0  0  0  0  0  0  0  0  0
   16.5651  -23.3492  -17.9771 N   0  0  0  0  0  0  0  0  0  0  0  0
   16.6770  -24.6168  -17.6109 C   0  0  0  0  0  0  0  0  0  0  0  0
   17.7024  -24.7404  -16.7775 N   0  0  0  0  0  0  0  0  0  0  0  0
   18.4934  -21.8681  -14.1076 C   0  0  0  0  0  0  0  0  0  0  0  0
   17.2425  -21.3451  -14.4642 O   0  0  0  0  0  0  0  0  0  0  0  0
   18.6026  -22.2042  -12.9127 O   0  0  0  0  0  0  0  0  0  0  0  0
  2  1  1  6
  2  3  1  0
  3  4  1  0
  4  5  2  0
  4 12  1  0
  5  6  1  0
  6  7  1  0
  7  8  2  0
  9  8  1  0
 10  9  2  0
 11 12  2  0
 11 10  1  0
 12  7  1  0
 13 14  2  0
 13  2  1  0
 15 16  1  0
 17 16  1  1
 17 18  1  0
 17 19  1  0
 18 13  1  0
 19 21  1  0
 20 19  2  0
 21 22  1  0
 22 29  1  0
 23 24  1  0
 22 23  1  1
 24 28  1  0
 25 24  2  0
 25 26  1  0
 26 27  1  0
 28 27  2  0
 29 31  2  0
 29 30  1  0
M  END
$$$$
