RNN.pdb
     RDKit          3D

 28 27  0  0  1  0  0  0  0  0999 V2000
   11.0149  -13.1563  -13.9664 N   0  0  0  0  0  0  0  0  0  0  0  0
   11.8774  -14.0201  -13.2472 C   0  0  0  0  0  0  0  0  0  0  0  0
   11.4715  -14.7776  -12.2637 N   0  0  0  0  0  0  0  0  0  0  0  0
   13.2617  -14.1096  -13.5686 N   0  0  0  0  0  0  0  0  0  0  0  0
   13.8320  -13.5113  -14.7735 C   0  0  0  0  0  0  0  0  0  0  0  0
   15.2565  -13.9362  -14.8373 C   0  0  0  0  0  0  0  0  0  0  0  0
   16.0705  -13.4271  -15.9647 C   0  0  0  0  0  0  0  0  0  0  0  0
   17.5296  -13.7795  -15.8804 C   0  0  2  0  0  0  0  0  0  0  0  0
   17.7774  -15.0249  -15.1906 N   0  0  0  0  0  0  0  0  0  0  0  0
   18.1757  -12.6354  -15.1395 C   0  0  0  0  0  0  0  0  0  0  0  0
   18.2502  -12.7002  -13.8913 O   0  0  0  0  0  0  0  0  0  0  0  0
   12.1924  -15.4016  -11.8094 N   0  0  0  0  0  0  0  0  0  0  0  0
   20.9714   -8.5508  -14.0447 C   0  0  0  0  0  0  0  0  0  0  0  0
   21.6504   -9.5659  -14.8294 O   0  0  0  0  0  0  0  0  0  0  0  0
   22.8827   -9.4375  -14.9366 C   0  0  0  0  0  0  0  0  0  0  0  0
   20.8157  -10.6061  -15.3936 C   0  0  1  0  0  0  0  0  0  0  0  0
   19.3457  -10.4183  -15.1573 N   0  0  0  0  0  0  0  0  0  0  0  0
   18.6637  -11.5562  -15.8636 C   0  0  0  0  0  0  0  0  0  0  0  0
   18.7494   -9.2381  -15.8013 O   0  0  0  0  0  0  0  0  0  0  0  0
   18.2198   -9.3919  -16.9631 N   0  0  0  0  0  0  0  0  0  0  0  0
   15.5737   -5.4139  -16.1934 C   0  0  0  0  0  0  0  0  0  0  0  0
   15.2320   -6.6749  -15.6665 O   0  0  0  0  0  0  0  0  0  0  0  0
   14.0304   -6.9854  -15.4712 C   0  0  0  0  0  0  0  0  0  0  0  0
   16.3079   -7.6372  -15.3428 C   0  0  1  0  0  0  0  0  0  0  0  0
   17.6168   -7.0008  -15.6973 N   0  0  0  0  0  0  0  0  0  0  0  0
   18.6917   -7.9405  -15.2708 C   0  0  0  0  0  0  0  0  0  0  0  0
   17.8062   -5.7044  -15.0073 O   0  0  0  0  0  0  0  0  0  0  0  0
   18.1259   -5.6643  -13.6718 O   0  0  0  0  0  0  0  0  0  0  0  0
  1  2  1  0
  2  4  1  0
  3  2  2  0
  4  5  1  0
  5  6  1  0
  7  6  1  0
  8  9  1  1
  8  7  1  0
 10  8  1  0
 10 11  2  0
 13 15  1  0
 13 12  1  0
 14 13  2  0
 16 15  1  1
 16 17  1  0
 16 18  1  0
 17 10  1  0
 18 25  1  0
 19 18  2  0
 20 21  1  0
 21 23  1  0
 22 21  2  0
 24 23  1  6
 24 26  1  0
 25 24  1  0
 26 28  2  0
 26 27  1  0
M  END
$$$$
