RNN.pdb
     RDKit          3D

 28 27  0  0  1  0  0  0  0  0999 V2000
   31.1235  -25.1806  -16.0805 N   0  0  0  0  0  0  0  0  0  0  0  0
   29.8550  -25.0602  -16.7000 C   0  0  0  0  0  0  0  0  0  0  0  0
   29.1719  -26.0856  -17.1336 N   0  0  0  0  0  0  0  0  0  0  0  0
   29.2458  -23.7864  -16.8840 N   0  0  0  0  0  0  0  0  0  0  0  0
   29.8304  -22.5506  -16.3681 C   0  0  0  0  0  0  0  0  0  0  0  0
   29.0261  -22.1519  -15.1815 C   0  0  0  0  0  0  0  0  0  0  0  0
   28.5260  -20.7589  -15.1330 C   0  0  0  0  0  0  0  0  0  0  0  0
   27.2127  -20.5504  -15.8344 C   0  0  2  0  0  0  0  0  0  0  0  0
   27.2847  -20.7752  -17.2601 N   0  0  0  0  0  0  0  0  0  0  0  0
   26.8302  -19.1190  -15.5508 C   0  0  0  0  0  0  0  0  0  0  0  0
   27.7245  -18.2436  -15.5934 O   0  0  0  0  0  0  0  0  0  0  0  0
   28.2254  -25.8869  -17.5580 N   0  0  0  0  0  0  0  0  0  0  0  0
   26.4034  -15.8135  -16.7490 C   0  0  0  0  0  0  0  0  0  0  0  0
   26.2618  -16.8301  -17.7756 O   0  0  0  0  0  0  0  0  0  0  0  0
   26.9286  -16.6552  -18.8107 C   0  0  0  0  0  0  0  0  0  0  0  0
   25.3637  -17.9255  -17.4748 C   0  0  2  0  0  0  0  0  0  0  0  0
   24.7375  -17.8583  -16.1128 N   0  0  0  0  0  0  0  0  0  0  0  0
   25.5066  -18.8233  -15.2549 C   0  0  0  0  0  0  0  0  0  0  0  0
   23.3635  -18.3756  -16.0243 O   0  0  0  0  0  0  0  0  0  0  0  0
   22.4782  -17.8629  -16.8035 N   0  0  0  0  0  0  0  0  0  0  0  0
   19.4168  -22.1182  -14.7998 C   0  0  0  0  0  0  0  0  0  0  0  0
   19.8528  -21.0892  -13.9421 O   0  0  0  0  0  0  0  0  0  0  0  0
   19.0496  -20.5201  -13.1613 C   0  0  0  0  0  0  0  0  0  0  0  0
   21.2745  -20.6815  -13.9689 C   0  0  1  0  0  0  0  0  0  0  0  0
   21.4630  -19.7438  -15.1218 N   0  0  0  0  0  0  0  0  0  0  0  0
   22.9097  -19.3904  -15.1684 C   0  0  0  0  0  0  0  0  0  0  0  0
   20.6674  -18.5051  -14.9629 O   0  0  0  0  0  0  0  0  0  0  0  0
   19.5974  -18.2520  -15.7864 O   0  0  0  0  0  0  0  0  0  0  0  0
  1  2  1  0
  2  4  1  0
  3  2  2  0
  4  5  1  0
  5  6  1  0
  7  6  1  0
  8  9  1  6
  8  7  1  0
 10  8  1  0
 10 11  2  0
 13 15  1  0
 13 12  1  0
 14 13  2  0
 16 15  1  1
 16 17  1  0
 16 18  1  0
 17 10  1  0
 18 25  1  0
 19 18  2  0
 20 21  1  0
 21 23  1  0
 22 21  2  0
 24 23  1  6
 24 26  1  0
 25 24  1  0
 26 28  2  0
 26 27  1  0
M  END
$$$$
