RNN.pdb
     RDKit          3D

 28 27  0  0  1  0  0  0  0  0999 V2000
   18.2713  -18.1622  -15.2033 N   0  0  0  0  0  0  0  0  0  0  0  0
   17.5536  -19.2416  -14.6312 C   0  0  0  0  0  0  0  0  0  0  0  0
   16.2625  -19.3899  -14.7623 N   0  0  0  0  0  0  0  0  0  0  0  0
   18.2187  -20.2432  -13.8683 N   0  0  0  0  0  0  0  0  0  0  0  0
   19.6282  -20.1448  -13.4958 C   0  0  0  0  0  0  0  0  0  0  0  0
   20.3844  -21.0346  -14.4178 C   0  0  0  0  0  0  0  0  0  0  0  0
   21.8560  -21.0873  -14.2609 C   0  0  0  0  0  0  0  0  0  0  0  0
   22.5422  -22.0429  -15.1970 C   0  0  2  0  0  0  0  0  0  0  0  0
   22.4585  -23.4206  -14.7691 N   0  0  0  0  0  0  0  0  0  0  0  0
   23.9825  -21.5966  -15.2398 C   0  0  0  0  0  0  0  0  0  0  0  0
   24.5910  -21.4425  -14.1564 O   0  0  0  0  0  0  0  0  0  0  0  0
   15.8261  -20.2304  -14.2949 N   0  0  0  0  0  0  0  0  0  0  0  0
   28.7648  -20.9224  -15.4459 C   0  0  0  0  0  0  0  0  0  0  0  0
   28.2080  -22.1380  -16.0113 O   0  0  0  0  0  0  0  0  0  0  0  0
   29.0308  -22.9621  -16.4478 C   0  0  0  0  0  0  0  0  0  0  0  0
   26.7641  -22.2483  -16.0006 C   0  0  1  0  0  0  0  0  0  0  0  0
   26.0464  -21.0526  -16.5547 N   0  0  0  0  0  0  0  0  0  0  0  0
   24.5806  -21.3742  -16.4726 C   0  0  0  0  0  0  0  0  0  0  0  0
   26.2413  -20.8107  -17.9923 O   0  0  0  0  0  0  0  0  0  0  0  0
   27.4380  -20.5848  -18.4058 N   0  0  0  0  0  0  0  0  0  0  0  0
   24.9330  -20.3920  -23.2153 C   0  0  0  0  0  0  0  0  0  0  0  0
   24.9775  -19.2838  -22.3468 O   0  0  0  0  0  0  0  0  0  0  0  0
   25.2549  -18.1379  -22.7812 C   0  0  0  0  0  0  0  0  0  0  0  0
   24.6930  -19.4822  -20.9088 C   0  0  1  0  0  0  0  0  0  0  0  0
   25.5974  -20.5650  -20.4055 N   0  0  0  0  0  0  0  0  0  0  0  0
   25.2432  -20.8049  -18.9782 C   0  0  0  0  0  0  0  0  0  0  0  0
   27.0241  -20.1781  -20.4913 O   0  0  0  0  0  0  0  0  0  0  0  0
   27.9336  -20.9979  -21.1143 O   0  0  0  0  0  0  0  0  0  0  0  0
  1  2  1  0
  2  4  1  0
  3  2  2  0
  4  5  1  0
  5  6  1  0
  7  6  1  0
  8  9  1  1
  8  7  1  0
 10  8  1  0
 10 11  2  0
 13 15  1  0
 13 12  1  0
 14 13  2  0
 16 15  1  1
 16 17  1  0
 16 18  1  0
 17 10  1  0
 18 25  1  0
 19 18  2  0
 20 21  1  0
 21 23  1  0
 22 21  2  0
 24 23  1  6
 24 26  1  0
 25 24  1  0
 26 28  2  0
 26 27  1  0
M  END
$$$$
