RNN.pdb
     RDKit          3D

 28 27  0  0  1  0  0  0  0  0999 V2000
   29.3963  -21.7214   -9.7554 N   0  0  0  0  0  0  0  0  0  0  0  0
   30.3663  -21.9395  -10.7648 C   0  0  0  0  0  0  0  0  0  0  0  0
   31.1280  -22.9998  -10.8059 N   0  0  0  0  0  0  0  0  0  0  0  0
   30.5633  -20.9933  -11.8105 N   0  0  0  0  0  0  0  0  0  0  0  0
   29.5376  -20.0311  -12.2070 C   0  0  0  0  0  0  0  0  0  0  0  0
   28.2600  -20.7837  -12.3298 C   0  0  0  0  0  0  0  0  0  0  0  0
   27.3335  -20.3830  -13.4133 C   0  0  0  0  0  0  0  0  0  0  0  0
   27.4857  -21.1777  -14.6803 C   0  0  2  0  0  0  0  0  0  0  0  0
   28.8523  -21.2586  -15.1430 N   0  0  0  0  0  0  0  0  0  0  0  0
   26.6302  -20.4704  -15.7018 C   0  0  0  0  0  0  0  0  0  0  0  0
   27.1987  -19.8021  -16.5950 O   0  0  0  0  0  0  0  0  0  0  0  0
   31.8602  -23.0355  -11.5663 N   0  0  0  0  0  0  0  0  0  0  0  0
   27.0327  -20.6835  -18.9634 C   0  0  0  0  0  0  0  0  0  0  0  0
   25.7441  -20.0411  -18.7782 O   0  0  0  0  0  0  0  0  0  0  0  0
   25.5983  -18.9412  -19.3398 C   0  0  0  0  0  0  0  0  0  0  0  0
   24.7823  -20.7546  -17.9639 C   0  0  2  0  0  0  0  0  0  0  0  0
   24.3766  -20.0362  -16.7105 N   0  0  0  0  0  0  0  0  0  0  0  0
   25.2494  -20.5853  -15.6170 C   0  0  0  0  0  0  0  0  0  0  0  0
   23.0226  -20.3374  -16.2213 O   0  0  0  0  0  0  0  0  0  0  0  0
   22.7411  -21.5629  -15.9515 N   0  0  0  0  0  0  0  0  0  0  0  0
   21.5067  -18.8347  -13.2004 C   0  0  0  0  0  0  0  0  0  0  0  0
   20.4453  -18.1400  -13.8130 O   0  0  0  0  0  0  0  0  0  0  0  0
   19.9586  -17.1113  -13.2805 C   0  0  0  0  0  0  0  0  0  0  0  0
   19.9048  -18.6355  -15.0978 C   0  0  2  0  0  0  0  0  0  0  0  0
   20.6729  -19.8643  -15.4772 N   0  0  0  0  0  0  0  0  0  0  0  0
   21.9892  -19.4124  -16.0095 C   0  0  0  0  0  0  0  0  0  0  0  0
   19.9753  -20.6530  -16.5182 O   0  0  0  0  0  0  0  0  0  0  0  0
   19.3572  -21.8378  -16.1996 O   0  0  0  0  0  0  0  0  0  0  0  0
  1  2  1  0
  2  4  1  0
  3  2  2  0
  4  5  1  0
  5  6  1  0
  7  6  1  0
  8  9  1  6
  8  7  1  0
 10  8  1  0
 10 11  2  0
 13 15  1  0
 13 12  1  0
 14 13  2  0
 16 15  1  6
 16 17  1  0
 16 18  1  0
 17 10  1  0
 18 25  1  0
 19 18  2  0
 20 21  1  0
 21 23  1  0
 22 21  2  0
 24 23  1  1
 24 26  1  0
 25 24  1  0
 26 28  2  0
 26 27  1  0
M  END
$$$$
