RNN.pdb
     RDKit          3D

 28 27  0  0  1  0  0  0  0  0999 V2000
   32.1406  -21.3890  -10.9662 N   0  0  0  0  0  0  0  0  0  0  0  0
   31.0506  -21.9311  -10.2414 C   0  0  0  0  0  0  0  0  0  0  0  0
   31.1982  -22.6455   -9.1579 N   0  0  0  0  0  0  0  0  0  0  0  0
   29.7082  -21.7183  -10.6658 N   0  0  0  0  0  0  0  0  0  0  0  0
   29.2718  -21.9396  -12.0427 C   0  0  0  0  0  0  0  0  0  0  0  0
   28.4557  -20.7590  -12.4350 C   0  0  0  0  0  0  0  0  0  0  0  0
   27.1948  -20.5247  -11.6946 C   0  0  0  0  0  0  0  0  0  0  0  0
   26.1062  -21.5149  -12.0016 C   0  0  2  0  0  0  0  0  0  0  0  0
   26.2141  -22.0911  -13.3224 N   0  0  0  0  0  0  0  0  0  0  0  0
   24.8158  -20.7442  -11.8727 C   0  0  0  0  0  0  0  0  0  0  0  0
   24.7448  -19.8416  -11.0077 O   0  0  0  0  0  0  0  0  0  0  0  0
   30.3234  -23.0526   -8.7285 N   0  0  0  0  0  0  0  0  0  0  0  0
   20.2267  -18.7887  -12.8929 C   0  0  0  0  0  0  0  0  0  0  0  0
   21.2263  -18.5957  -13.9278 O   0  0  0  0  0  0  0  0  0  0  0  0
   20.9584  -17.7416  -14.7911 C   0  0  0  0  0  0  0  0  0  0  0  0
   22.4148  -19.4178  -13.8336 C   0  0  2  0  0  0  0  0  0  0  0  0
   22.4647  -20.2995  -12.6204 N   0  0  0  0  0  0  0  0  0  0  0  0
   23.7576  -21.0601  -12.7137 C   0  0  0  0  0  0  0  0  0  0  0  0
   21.4623  -21.3751  -12.5810 O   0  0  0  0  0  0  0  0  0  0  0  0
   21.7519  -22.4864  -13.1597 N   0  0  0  0  0  0  0  0  0  0  0  0
   17.5767  -24.4930  -11.8777 C   0  0  0  0  0  0  0  0  0  0  0  0
   17.7313  -23.7637  -10.6824 O   0  0  0  0  0  0  0  0  0  0  0  0
   17.1177  -24.1020   -9.6395 C   0  0  0  0  0  0  0  0  0  0  0  0
   18.6286  -22.5878  -10.6655 C   0  0  2  0  0  0  0  0  0  0  0  0
   19.2912  -22.4949  -12.0057 N   0  0  0  0  0  0  0  0  0  0  0  0
   20.2037  -21.3177  -11.9638 C   0  0  0  0  0  0  0  0  0  0  0  0
   18.3080  -22.3060  -13.0967 O   0  0  0  0  0  0  0  0  0  0  0  0
   17.7578  -23.3902  -13.7363 O   0  0  0  0  0  0  0  0  0  0  0  0
  1  2  1  0
  2  4  1  0
  3  2  2  0
  4  5  1  0
  5  6  1  0
  7  6  1  0
  8  9  1  6
  8  7  1  0
 10  8  1  0
 10 11  2  0
 13 15  1  0
 13 12  1  0
 14 13  2  0
 16 15  1  1
 16 17  1  0
 16 18  1  0
 17 10  1  0
 18 25  1  0
 19 18  2  0
 20 21  1  0
 21 23  1  0
 22 21  2  0
 24 23  1  1
 24 26  1  0
 25 24  1  0
 26 28  2  0
 26 27  1  0
M  END
$$$$
