RNN.pdb
     RDKit          3D

 28 27  0  0  1  0  0  0  0  0999 V2000
   25.2879  -21.9532  -12.0532 N   0  0  0  0  0  0  0  0  0  0  0  0
   25.4650  -20.9973  -11.0226 C   0  0  0  0  0  0  0  0  0  0  0  0
   24.6099  -20.8297  -10.0496 N   0  0  0  0  0  0  0  0  0  0  0  0
   26.6109  -20.1527  -10.9936 N   0  0  0  0  0  0  0  0  0  0  0  0
   27.6281  -20.1670  -12.0426 C   0  0  0  0  0  0  0  0  0  0  0  0
   27.0954  -19.3628  -13.1753 C   0  0  0  0  0  0  0  0  0  0  0  0
   27.8988  -19.3195  -14.4185 C   0  0  0  0  0  0  0  0  0  0  0  0
   27.9051  -20.6073  -15.1941 C   0  0  2  0  0  0  0  0  0  0  0  0
   29.1190  -20.8124  -15.9508 N   0  0  0  0  0  0  0  0  0  0  0  0
   26.7197  -20.5210  -16.1231 C   0  0  0  0  0  0  0  0  0  0  0  0
   26.8296  -19.8391  -17.1675 O   0  0  0  0  0  0  0  0  0  0  0  0
   24.8579  -20.1177   -9.3100 N   0  0  0  0  0  0  0  0  0  0  0  0
   26.5867  -23.8329  -17.8161 C   0  0  0  0  0  0  0  0  0  0  0  0
   25.6330  -22.8282  -18.2503 O   0  0  0  0  0  0  0  0  0  0  0  0
   25.9027  -22.2458  -19.3155 C   0  0  0  0  0  0  0  0  0  0  0  0
   24.4827  -22.6229  -17.3949 C   0  0  2  0  0  0  0  0  0  0  0  0
   24.4127  -21.2626  -16.7653 N   0  0  0  0  0  0  0  0  0  0  0  0
   25.5545  -21.1980  -15.7901 C   0  0  0  0  0  0  0  0  0  0  0  0
   23.2432  -21.0252  -15.9056 O   0  0  0  0  0  0  0  0  0  0  0  0
   23.1417  -21.7171  -14.8263 N   0  0  0  0  0  0  0  0  0  0  0  0
   22.1854  -17.6399  -14.7346 C   0  0  0  0  0  0  0  0  0  0  0  0
   20.9263  -17.5913  -15.3645 O   0  0  0  0  0  0  0  0  0  0  0  0
   20.4075  -16.4912  -15.6793 C   0  0  0  0  0  0  0  0  0  0  0  0
   20.2150  -18.8556  -15.6539 C   0  0  2  0  0  0  0  0  0  0  0  0
   21.0760  -19.9868  -15.1818 N   0  0  0  0  0  0  0  0  0  0  0  0
   22.2111  -20.1042  -16.1400 C   0  0  0  0  0  0  0  0  0  0  0  0
   20.3359  -21.2689  -15.1495 O   0  0  0  0  0  0  0  0  0  0  0  0
   20.2260  -22.0404  -16.2809 O   0  0  0  0  0  0  0  0  0  0  0  0
  1  2  1  0
  2  4  1  0
  3  2  2  0
  4  5  1  0
  5  6  1  0
  7  6  1  0
  8  9  1  6
  8  7  1  0
 10  8  1  0
 10 11  2  0
 13 15  1  0
 13 12  1  0
 14 13  2  0
 16 15  1  6
 16 17  1  0
 16 18  1  0
 17 10  1  0
 18 25  1  0
 19 18  2  0
 20 21  1  0
 21 23  1  0
 22 21  2  0
 24 23  1  1
 24 26  1  0
 25 24  1  0
 26 28  2  0
 26 27  1  0
M  END
$$$$
