RNN.pdb
     RDKit          3D

 28 27  0  0  1  0  0  0  0  0999 V2000
   27.7749  -23.6881  -16.8801 N   0  0  0  0  0  0  0  0  0  0  0  0
   26.8192  -24.7146  -17.0806 C   0  0  0  0  0  0  0  0  0  0  0  0
   27.1254  -25.8927  -17.5544 N   0  0  0  0  0  0  0  0  0  0  0  0
   25.4453  -24.5102  -16.7671 N   0  0  0  0  0  0  0  0  0  0  0  0
   24.9203  -23.2194  -16.3275 C   0  0  0  0  0  0  0  0  0  0  0  0
   24.7557  -23.2974  -14.8508 C   0  0  0  0  0  0  0  0  0  0  0  0
   24.2326  -22.0976  -14.1582 C   0  0  0  0  0  0  0  0  0  0  0  0
   24.3356  -20.8293  -14.9588 C   0  0  2  0  0  0  0  0  0  0  0  0
   25.5577  -20.0976  -14.7148 N   0  0  0  0  0  0  0  0  0  0  0  0
   23.1420  -20.0012  -14.5525 C   0  0  0  0  0  0  0  0  0  0  0  0
   23.1820  -19.3954  -13.4574 O   0  0  0  0  0  0  0  0  0  0  0  0
   26.3345  -26.5823  -17.6740 N   0  0  0  0  0  0  0  0  0  0  0  0
   20.8889  -15.4786  -15.9859 C   0  0  0  0  0  0  0  0  0  0  0  0
   20.2934  -16.7156  -15.5141 O   0  0  0  0  0  0  0  0  0  0  0  0
   19.3448  -16.5948  -14.7191 C   0  0  0  0  0  0  0  0  0  0  0  0
   20.8720  -17.9416  -16.0233 C   0  0  2  0  0  0  0  0  0  0  0  0
   20.8627  -19.0832  -15.0494 N   0  0  0  0  0  0  0  0  0  0  0  0
   22.0465  -19.9392  -15.4028 C   0  0  0  0  0  0  0  0  0  0  0  0
   19.7374  -20.0202  -15.1870 O   0  0  0  0  0  0  0  0  0  0  0  0
   19.6019  -20.6343  -16.3088 N   0  0  0  0  0  0  0  0  0  0  0  0
   18.7918  -23.2093  -11.7315 C   0  0  0  0  0  0  0  0  0  0  0  0
   18.2578  -23.0202  -13.0212 O   0  0  0  0  0  0  0  0  0  0  0  0
   18.6046  -23.7607  -13.9751 C   0  0  0  0  0  0  0  0  0  0  0  0
   17.2781  -21.9345  -13.2445 C   0  0  2  0  0  0  0  0  0  0  0  0
   17.6466  -21.2365  -14.5176 N   0  0  0  0  0  0  0  0  0  0  0  0
   18.7824  -20.3239  -14.2052 C   0  0  0  0  0  0  0  0  0  0  0  0
   16.5210  -20.4402  -15.0574 O   0  0  0  0  0  0  0  0  0  0  0  0
   16.4455  -19.0888  -14.8220 O   0  0  0  0  0  0  0  0  0  0  0  0
  1  2  1  0
  2  4  1  0
  3  2  2  0
  4  5  1  0
  5  6  1  0
  7  6  1  0
  8  9  1  1
  8  7  1  0
 10  8  1  0
 10 11  2  0
 13 15  1  0
 13 12  1  0
 14 13  2  0
 16 15  1  1
 16 17  1  0
 16 18  1  0
 17 10  1  0
 18 25  1  0
 19 18  2  0
 20 21  1  0
 21 23  1  0
 22 21  2  0
 24 23  1  6
 24 26  1  0
 25 24  1  0
 26 28  2  0
 26 27  1  0
M  END
$$$$
