RNN.pdb
     RDKit          3D

 28 27  0  0  1  0  0  0  0  0999 V2000
   28.9103  -17.9872  -19.6597 N   0  0  0  0  0  0  0  0  0  0  0  0
   27.7159  -17.8229  -18.9155 C   0  0  0  0  0  0  0  0  0  0  0  0
   26.5391  -18.1610  -19.3702 N   0  0  0  0  0  0  0  0  0  0  0  0
   27.7385  -17.2699  -17.6036 N   0  0  0  0  0  0  0  0  0  0  0  0
   28.3410  -17.9617  -16.4662 C   0  0  0  0  0  0  0  0  0  0  0  0
   27.5700  -17.5638  -15.2575 C   0  0  0  0  0  0  0  0  0  0  0  0
   26.3701  -18.3634  -14.9198 C   0  0  0  0  0  0  0  0  0  0  0  0
   26.6736  -19.7332  -14.3799 C   0  0  2  0  0  0  0  0  0  0  0  0
   27.3717  -20.5769  -15.3228 N   0  0  0  0  0  0  0  0  0  0  0  0
   25.3334  -20.3338  -14.0353 C   0  0  0  0  0  0  0  0  0  0  0  0
   24.8371  -21.1733  -14.8206 O   0  0  0  0  0  0  0  0  0  0  0  0
   25.7048  -17.9196  -18.7692 N   0  0  0  0  0  0  0  0  0  0  0  0
   21.3747  -21.8574  -11.1645 C   0  0  0  0  0  0  0  0  0  0  0  0
   22.2537  -21.0985  -10.2935 O   0  0  0  0  0  0  0  0  0  0  0  0
   21.9552  -21.0968   -9.0862 C   0  0  0  0  0  0  0  0  0  0  0  0
   23.3721  -20.4347  -10.9305 C   0  0  2  0  0  0  0  0  0  0  0  0
   23.4404  -20.6237  -12.4176 N   0  0  0  0  0  0  0  0  0  0  0  0
   24.7005  -19.9375  -12.8652 C   0  0  0  0  0  0  0  0  0  0  0  0
   22.4028  -19.9240  -13.1904 O   0  0  0  0  0  0  0  0  0  0  0  0
   22.7601  -18.9056  -13.8897 N   0  0  0  0  0  0  0  0  0  0  0  0
   19.9943  -17.2175  -15.4359 C   0  0  0  0  0  0  0  0  0  0  0  0
   20.6103  -18.2594  -16.1566 O   0  0  0  0  0  0  0  0  0  0  0  0
   21.0666  -18.0603  -17.3102 C   0  0  0  0  0  0  0  0  0  0  0  0
   20.7161  -19.5995  -15.5392 C   0  0  2  0  0  0  0  0  0  0  0  0
   20.1254  -19.5213  -14.1649 N   0  0  0  0  0  0  0  0  0  0  0  0
   21.0417  -20.2589  -13.2503 C   0  0  0  0  0  0  0  0  0  0  0  0
   18.7813  -20.1397  -14.1048 O   0  0  0  0  0  0  0  0  0  0  0  0
   18.6436  -21.5039  -14.0186 O   0  0  0  0  0  0  0  0  0  0  0  0
  1  2  1  0
  2  4  1  0
  3  2  2  0
  4  5  1  0
  5  6  1  0
  7  6  1  0
  8  9  1  6
  8  7  1  0
 10  8  1  0
 10 11  2  0
 13 15  1  0
 13 12  1  0
 14 13  2  0
 16 15  1  1
 16 17  1  0
 16 18  1  0
 17 10  1  0
 18 25  1  0
 19 18  2  0
 20 21  1  0
 21 23  1  0
 22 21  2  0
 24 23  1  1
 24 26  1  0
 25 24  1  0
 26 28  2  0
 26 27  1  0
M  END
$$$$
