RNN.pdb
     RDKit          3D

 28 27  0  0  1  0  0  0  0  0999 V2000
   25.0882  -22.1982  -12.2895 N   0  0  0  0  0  0  0  0  0  0  0  0
   25.9803  -21.5039  -13.1435 C   0  0  0  0  0  0  0  0  0  0  0  0
   27.2142  -21.8814  -13.3461 N   0  0  0  0  0  0  0  0  0  0  0  0
   25.5672  -20.3337  -13.8417 N   0  0  0  0  0  0  0  0  0  0  0  0
   24.1616  -20.0066  -14.0704 C   0  0  0  0  0  0  0  0  0  0  0  0
   23.8747  -20.2983  -15.5009 C   0  0  0  0  0  0  0  0  0  0  0  0
   22.4786  -20.1298  -15.9650 C   0  0  0  0  0  0  0  0  0  0  0  0
   21.5055  -19.7726  -14.8761 C   0  0  2  0  0  0  0  0  0  0  0  0
   22.1456  -19.4512  -13.6210 N   0  0  0  0  0  0  0  0  0  0  0  0
   20.6218  -20.9845  -14.7155 C   0  0  0  0  0  0  0  0  0  0  0  0
   20.0495  -21.4433  -15.7303 O   0  0  0  0  0  0  0  0  0  0  0  0
   27.8015  -21.2796  -13.9851 N   0  0  0  0  0  0  0  0  0  0  0  0
   20.6481  -25.4346  -14.5107 C   0  0  0  0  0  0  0  0  0  0  0  0
   21.8321  -24.8762  -13.8833 O   0  0  0  0  0  0  0  0  0  0  0  0
   22.8774  -25.5385  -14.0066 C   0  0  0  0  0  0  0  0  0  0  0  0
   21.6577  -23.6170  -13.1897 C   0  0  2  0  0  0  0  0  0  0  0  0
   20.2817  -23.0298  -13.3063 N   0  0  0  0  0  0  0  0  0  0  0  0
   20.4750  -21.5468  -13.4548 C   0  0  0  0  0  0  0  0  0  0  0  0
   19.4509  -23.1251  -12.0964 O   0  0  0  0  0  0  0  0  0  0  0  0
   19.3219  -22.0698  -11.3727 N   0  0  0  0  0  0  0  0  0  0  0  0
   19.3598  -24.5447   -7.0581 C   0  0  0  0  0  0  0  0  0  0  0  0
   19.3898  -24.7188   -8.4557 O   0  0  0  0  0  0  0  0  0  0  0  0
   19.8168  -25.7869   -8.9609 C   0  0  0  0  0  0  0  0  0  0  0  0
   18.9111  -23.6254   -9.3295 C   0  0  2  0  0  0  0  0  0  0  0  0
   18.0068  -24.2241  -10.3627 N   0  0  0  0  0  0  0  0  0  0  0  0
   18.7684  -24.2638  -11.6429 C   0  0  0  0  0  0  0  0  0  0  0  0
   16.7786  -23.4197  -10.5555 O   0  0  0  0  0  0  0  0  0  0  0  0
   15.5401  -23.9743  -10.3419 O   0  0  0  0  0  0  0  0  0  0  0  0
  1  2  1  0
  2  4  1  0
  3  2  2  0
  4  5  1  0
  5  6  1  0
  7  6  1  0
  8  9  1  1
  8  7  1  0
 10  8  1  0
 10 11  2  0
 13 15  1  0
 13 12  1  0
 14 13  2  0
 16 15  1  6
 16 17  1  0
 16 18  1  0
 17 10  1  0
 18 25  1  0
 19 18  2  0
 20 21  1  0
 21 23  1  0
 22 21  2  0
 24 23  1  1
 24 26  1  0
 25 24  1  0
 26 28  2  0
 26 27  1  0
M  END
$$$$
