RNN.pdb
     RDKit          3D

 28 27  0  0  1  0  0  0  0  0999 V2000
   25.6614  -21.1709   -9.8266 N   0  0  0  0  0  0  0  0  0  0  0  0
   24.4484  -20.6709  -10.3615 C   0  0  0  0  0  0  0  0  0  0  0  0
   23.4418  -20.2950   -9.6189 N   0  0  0  0  0  0  0  0  0  0  0  0
   24.2614  -20.5485  -11.7678 N   0  0  0  0  0  0  0  0  0  0  0  0
   25.1085  -21.2374  -12.7389 C   0  0  0  0  0  0  0  0  0  0  0  0
   26.4143  -20.5246  -12.7594 C   0  0  0  0  0  0  0  0  0  0  0  0
   26.9791  -20.1732  -14.0824 C   0  0  0  0  0  0  0  0  0  0  0  0
   26.9435  -21.2925  -15.0853 C   0  0  2  0  0  0  0  0  0  0  0  0
   28.1321  -21.3638  -15.9042 N   0  0  0  0  0  0  0  0  0  0  0  0
   25.7336  -21.0219  -15.9446 C   0  0  0  0  0  0  0  0  0  0  0  0
   25.7353  -20.0026  -16.6719 O   0  0  0  0  0  0  0  0  0  0  0  0
   22.5445  -20.0459  -10.1171 N   0  0  0  0  0  0  0  0  0  0  0  0
   24.0370  -22.2031  -19.9305 C   0  0  0  0  0  0  0  0  0  0  0  0
   24.3489  -22.9137  -18.7037 O   0  0  0  0  0  0  0  0  0  0  0  0
   25.4487  -23.4935  -18.6749 C   0  0  0  0  0  0  0  0  0  0  0  0
   23.3459  -22.8640  -17.6603 C   0  0  2  0  0  0  0  0  0  0  0  0
   23.4520  -21.6727  -16.7541 N   0  0  0  0  0  0  0  0  0  0  0  0
   24.6661  -21.9082  -15.9002 C   0  0  0  0  0  0  0  0  0  0  0  0
   22.3791  -21.5419  -15.7565 O   0  0  0  0  0  0  0  0  0  0  0  0
   22.7074  -21.5823  -14.5138 N   0  0  0  0  0  0  0  0  0  0  0  0
   20.0765  -19.2363  -12.8398 C   0  0  0  0  0  0  0  0  0  0  0  0
   20.6908  -18.5065  -13.8763 O   0  0  0  0  0  0  0  0  0  0  0  0
   21.1457  -17.3540  -13.6683 C   0  0  0  0  0  0  0  0  0  0  0  0
   20.7964  -19.1130  -15.2214 C   0  0  2  0  0  0  0  0  0  0  0  0
   20.1852  -20.4792  -15.1597 N   0  0  0  0  0  0  0  0  0  0  0  0
   21.0123  -21.3696  -16.0219 C   0  0  0  0  0  0  0  0  0  0  0  0
   18.7905  -20.4840  -15.6571 O   0  0  0  0  0  0  0  0  0  0  0  0
   17.7359  -20.4160  -14.7793 O   0  0  0  0  0  0  0  0  0  0  0  0
  1  2  1  0
  2  4  1  0
  3  2  2  0
  4  5  1  0
  5  6  1  0
  7  6  1  0
  8  9  1  6
  8  7  1  0
 10  8  1  0
 10 11  2  0
 13 15  1  0
 13 12  1  0
 14 13  2  0
 16 15  1  6
 16 17  1  0
 16 18  1  0
 17 10  1  0
 18 25  1  0
 19 18  2  0
 20 21  1  0
 21 23  1  0
 22 21  2  0
 24 23  1  1
 24 26  1  0
 25 24  1  0
 26 28  2  0
 26 27  1  0
M  END
$$$$
