RNN.pdb
     RDKit          3D

 28 27  0  0  1  0  0  0  0  0999 V2000
   29.6872  -17.8887  -17.0990 N   0  0  0  0  0  0  0  0  0  0  0  0
   28.7029  -18.3632  -18.0008 C   0  0  0  0  0  0  0  0  0  0  0  0
   27.7116  -17.6275  -18.4276 N   0  0  0  0  0  0  0  0  0  0  0  0
   28.7462  -19.6959  -18.5005 N   0  0  0  0  0  0  0  0  0  0  0  0
   28.3936  -20.8558  -17.6848 C   0  0  0  0  0  0  0  0  0  0  0  0
   26.9514  -21.1329  -17.9238 C   0  0  0  0  0  0  0  0  0  0  0  0
   26.0656  -21.2081  -16.7395 C   0  0  0  0  0  0  0  0  0  0  0  0
   26.4603  -22.2593  -15.7399 C   0  0  2  0  0  0  0  0  0  0  0  0
   26.6595  -23.5630  -16.3306 N   0  0  0  0  0  0  0  0  0  0  0  0
   25.3309  -22.3063  -14.7411 C   0  0  0  0  0  0  0  0  0  0  0  0
   24.5717  -23.3020  -14.7464 O   0  0  0  0  0  0  0  0  0  0  0  0
   27.1141  -18.0288  -19.2005 N   0  0  0  0  0  0  0  0  0  0  0  0
   26.1914  -22.0565  -11.1160 C   0  0  0  0  0  0  0  0  0  0  0  0
   25.6526  -20.7306  -10.8730 O   0  0  0  0  0  0  0  0  0  0  0  0
   26.1829  -20.0882   -9.9496 C   0  0  0  0  0  0  0  0  0  0  0  0
   24.5643  -20.3125  -11.7320 C   0  0  2  0  0  0  0  0  0  0  0  0
   24.1537  -21.3320  -12.7537 N   0  0  0  0  0  0  0  0  0  0  0  0
   25.1736  -21.2497  -13.8545 C   0  0  0  0  0  0  0  0  0  0  0  0
   22.8959  -21.0453  -13.4602 O   0  0  0  0  0  0  0  0  0  0  0  0
   22.9560  -20.3243  -14.5234 N   0  0  0  0  0  0  0  0  0  0  0  0
   21.9094  -22.2263  -16.9106 C   0  0  0  0  0  0  0  0  0  0  0  0
   20.7515  -21.7275  -16.2821 O   0  0  0  0  0  0  0  0  0  0  0  0
   20.0674  -20.8220  -16.8211 C   0  0  0  0  0  0  0  0  0  0  0  0
   20.3451  -22.2830  -14.9727 C   0  0  2  0  0  0  0  0  0  0  0  0
   20.4400  -21.1856  -13.9575 N   0  0  0  0  0  0  0  0  0  0  0  0
   21.6158  -21.4871  -13.0935 C   0  0  0  0  0  0  0  0  0  0  0  0
   19.2264  -21.1075  -13.1126 O   0  0  0  0  0  0  0  0  0  0  0  0
   19.0954  -21.9070  -12.0031 O   0  0  0  0  0  0  0  0  0  0  0  0
  1  2  1  0
  2  4  1  0
  3  2  2  0
  4  5  1  0
  5  6  1  0
  7  6  1  0
  8  9  1  6
  8  7  1  0
 10  8  1  0
 10 11  2  0
 13 15  1  0
 13 12  1  0
 14 13  2  0
 16 15  1  1
 16 17  1  0
 16 18  1  0
 17 10  1  0
 18 25  1  0
 19 18  2  0
 20 21  1  0
 21 23  1  0
 22 21  2  0
 24 23  1  6
 24 26  1  0
 25 24  1  0
 26 28  2  0
 26 27  1  0
M  END
$$$$
