RNN.pdb
     RDKit          3D

 28 27  0  0  1  0  0  0  0  0999 V2000
   26.2627  -19.9428   -9.1986 N   0  0  0  0  0  0  0  0  0  0  0  0
   25.0360  -20.6209   -8.9915 C   0  0  0  0  0  0  0  0  0  0  0  0
   24.5310  -20.8372   -7.8065 N   0  0  0  0  0  0  0  0  0  0  0  0
   24.2732  -21.1106  -10.0895 N   0  0  0  0  0  0  0  0  0  0  0  0
   24.5178  -20.6932  -11.4683 C   0  0  0  0  0  0  0  0  0  0  0  0
   25.8762  -21.1775  -11.8345 C   0  0  0  0  0  0  0  0  0  0  0  0
   26.4084  -20.7802  -13.1581 C   0  0  0  0  0  0  0  0  0  0  0  0
   25.4036  -20.8528  -14.2739 C   0  0  2  0  0  0  0  0  0  0  0  0
   25.3597  -22.1447  -14.9199 N   0  0  0  0  0  0  0  0  0  0  0  0
   25.8227  -19.7907  -15.2598 C   0  0  0  0  0  0  0  0  0  0  0  0
   26.0213  -18.6294  -14.8360 O   0  0  0  0  0  0  0  0  0  0  0  0
   23.6062  -21.3455   -7.7644 N   0  0  0  0  0  0  0  0  0  0  0  0
   27.4311  -17.4698  -19.4928 C   0  0  0  0  0  0  0  0  0  0  0  0
   27.8788  -18.8499  -19.5382 O   0  0  0  0  0  0  0  0  0  0  0  0
   28.6995  -19.1271  -20.4305 C   0  0  0  0  0  0  0  0  0  0  0  0
   27.3192  -19.7394  -18.5418 C   0  0  2  0  0  0  0  0  0  0  0  0
   26.3381  -19.0894  -17.6108 N   0  0  0  0  0  0  0  0  0  0  0  0
   25.9737  -20.1362  -16.5958 C   0  0  0  0  0  0  0  0  0  0  0  0
   25.0354  -18.7508  -18.2038 O   0  0  0  0  0  0  0  0  0  0  0  0
   24.8599  -17.5461  -18.6181 N   0  0  0  0  0  0  0  0  0  0  0  0
   23.5766  -21.5989  -21.5293 C   0  0  0  0  0  0  0  0  0  0  0  0
   23.1591  -20.3318  -21.0769 O   0  0  0  0  0  0  0  0  0  0  0  0
   23.5695  -19.2833  -21.6345 C   0  0  0  0  0  0  0  0  0  0  0  0
   22.2270  -20.2456  -19.9315 C   0  0  2  0  0  0  0  0  0  0  0  0
   22.7000  -19.1428  -19.0348 N   0  0  0  0  0  0  0  0  0  0  0  0
   23.9467  -19.6195  -18.3726 C   0  0  0  0  0  0  0  0  0  0  0  0
   21.6991  -18.8067  -17.9966 O   0  0  0  0  0  0  0  0  0  0  0  0
   20.4179  -18.4579  -18.3488 O   0  0  0  0  0  0  0  0  0  0  0  0
  1  2  1  0
  2  4  1  0
  3  2  2  0
  4  5  1  0
  5  6  1  0
  7  6  1  0
  8  9  1  6
  8  7  1  0
 10  8  1  0
 10 11  2  0
 13 15  1  0
 13 12  1  0
 14 13  2  0
 16 15  1  1
 16 17  1  0
 16 18  1  0
 17 10  1  0
 18 25  1  0
 19 18  2  0
 20 21  1  0
 21 23  1  0
 22 21  2  0
 24 23  1  6
 24 26  1  0
 25 24  1  0
 26 28  2  0
 26 27  1  0
M  END
$$$$
