PHN.pdb
     RDKit          3D

 26 27  0  0  1  0  0  0  0  0999 V2000
   26.6255  -21.1404  -15.7770 N   0  0  0  0  0  0  0  0  0  0  0  0
   26.6685  -20.1838  -16.8690 C   0  0  0  0  0  0  0  0  0  0  0  0
   27.9113  -19.3781  -16.4840 C   0  0  0  0  0  0  0  0  0  0  0  0
   27.6338  -19.1327  -15.0149 C   0  0  0  0  0  0  0  0  0  0  0  0
   26.6983  -20.2790  -14.6142 C   0  0  1  0  0  0  0  0  0  0  0  0
   25.3353  -19.7698  -14.3347 C   0  0  0  0  0  0  0  0  0  0  0  0
   25.1429  -18.9154  -13.4352 O   0  0  0  0  0  0  0  0  0  0  0  0
   24.1955  -20.2235  -15.0679 N   0  0  0  0  0  0  0  0  0  0  0  0
   22.8711  -19.6931  -14.8488 C   0  0  1  0  0  0  0  0  0  0  0  0
   22.3635  -19.1643  -16.1657 C   0  0  0  0  0  0  0  0  0  0  0  0
   21.0254  -18.5362  -16.0305 C   0  0  0  0  0  0  0  0  0  0  0  0
   19.8716  -19.1486  -16.4773 C   0  0  0  0  0  0  0  0  0  0  0  0
   18.8372  -18.3276  -16.2091 N   0  0  0  0  0  0  0  0  0  0  0  0
   19.3163  -17.2275  -15.6106 C   0  0  0  0  0  0  0  0  0  0  0  0
   20.6480  -17.3749  -15.5119 N   0  0  0  0  0  0  0  0  0  0  0  0
   21.9824  -20.8083  -14.4476 C   0  0  0  0  0  0  0  0  0  0  0  0
   22.1770  -21.9628  -14.8978 O   0  0  0  0  0  0  0  0  0  0  0  0
   18.7290  -23.9641  -12.2607 N   0  0  0  0  0  0  0  0  0  0  0  0
   19.1811  -23.0744  -11.2543 C   0  0  0  0  0  0  0  0  0  0  0  0
   18.8983  -23.3446  -10.0618 O   0  0  0  0  0  0  0  0  0  0  0  0
   19.9519  -21.8924  -11.6673 C   0  0  0  0  0  0  0  0  0  0  0  0
   20.0743  -21.7698  -13.1663 C   0  0  2  0  0  0  0  0  0  0  0  0
   20.8868  -20.6354  -13.5520 N   0  0  0  0  0  0  0  0  0  0  0  0
   18.7812  -21.6966  -13.8462 C   0  0  0  0  0  0  0  0  0  0  0  0
   18.1460  -22.7939  -14.4171 O   0  0  0  0  0  0  0  0  0  0  0  0
   18.1867  -20.5963  -13.9359 O   0  0  0  0  0  0  0  0  0  0  0  0
  1  2  1  0
  2  3  1  0
  4  3  1  0
  5  1  1  0
  5  4  1  0
  6  8  1  0
  5  6  1  6
  7  6  2  0
  9  8  1  0
  9 10  1  6
 10 11  1  0
 11 15  1  0
 12 11  2  0
 12 13  1  0
 13 14  1  0
 15 14  2  0
 16  9  1  0
 17 16  2  0
 18 19  1  0
 19 20  2  0
 19 21  1  0
 22 21  1  1
 22 24  1  0
 22 23  1  0
 23 16  1  0
 24 25  1  0
 26 24  2  0
M  END
$$$$
