PHN.pdb
     RDKit          3D

 26 27  0  0  1  0  0  0  0  0999 V2000
   25.1430  -12.9498  -15.7797 N   0  0  0  0  0  0  0  0  0  0  0  0
   24.3071  -14.0413  -16.2480 C   0  0  0  0  0  0  0  0  0  0  0  0
   25.1982  -14.6214  -17.3486 C   0  0  0  0  0  0  0  0  0  0  0  0
   25.5995  -13.3526  -18.0727 C   0  0  0  0  0  0  0  0  0  0  0  0
   25.4559  -12.2551  -17.0121 C   0  0  1  0  0  0  0  0  0  0  0  0
   24.3202  -11.3599  -17.3349 C   0  0  0  0  0  0  0  0  0  0  0  0
   24.2289  -10.8240  -18.4665 O   0  0  0  0  0  0  0  0  0  0  0  0
   23.2929  -11.0718  -16.3840 N   0  0  0  0  0  0  0  0  0  0  0  0
   22.1908  -10.1872  -16.6772 C   0  0  1  0  0  0  0  0  0  0  0  0
   20.9129  -10.9360  -16.3981 C   0  0  0  0  0  0  0  0  0  0  0  0
   20.6052  -11.9215  -17.4646 C   0  0  0  0  0  0  0  0  0  0  0  0
   20.2667  -13.2309  -17.1875 C   0  0  0  0  0  0  0  0  0  0  0  0
   20.0501  -13.8591  -18.3598 N   0  0  0  0  0  0  0  0  0  0  0  0
   20.2444  -12.9785  -19.3522 C   0  0  0  0  0  0  0  0  0  0  0  0
   20.5809  -11.8075  -18.7861 N   0  0  0  0  0  0  0  0  0  0  0  0
   22.2477   -9.0435  -15.7376 C   0  0  0  0  0  0  0  0  0  0  0  0
   22.4678   -9.2396  -14.5184 O   0  0  0  0  0  0  0  0  0  0  0  0
   22.4766   -4.4752  -13.5333 N   0  0  0  0  0  0  0  0  0  0  0  0
   22.4725   -4.1673  -14.9168 C   0  0  0  0  0  0  0  0  0  0  0  0
   22.5967   -2.9639  -15.2506 O   0  0  0  0  0  0  0  0  0  0  0  0
   22.3234   -5.2733  -15.8741 C   0  0  0  0  0  0  0  0  0  0  0  0
   22.1616   -6.6127  -15.1982 C   0  0  2  0  0  0  0  0  0  0  0  0
   22.0606   -7.6935  -16.1559 N   0  0  0  0  0  0  0  0  0  0  0  0
   21.0206   -6.6631  -14.2844 C   0  0  0  0  0  0  0  0  0  0  0  0
   21.1290   -6.5220  -12.9053 O   0  0  0  0  0  0  0  0  0  0  0  0
   19.8661   -6.8425  -14.7397 O   0  0  0  0  0  0  0  0  0  0  0  0
  1  2  1  0
  2  3  1  0
  4  3  1  0
  5  1  1  0
  5  4  1  0
  6  8  1  0
  5  6  1  6
  7  6  2  0
  9  8  1  0
  9 10  1  1
 10 11  1  0
 11 15  1  0
 12 11  2  0
 12 13  1  0
 13 14  1  0
 15 14  2  0
 16  9  1  0
 17 16  2  0
 18 19  1  0
 19 20  2  0
 19 21  1  0
 22 21  1  6
 22 24  1  0
 22 23  1  0
 23 16  1  0
 24 25  1  0
 26 24  2  0
M  END
$$$$
