PHN.pdb
     RDKit          3D

 26 27  0  0  1  0  0  0  0  0999 V2000
   25.9836  -18.1445  -15.9109 N   0  0  0  0  0  0  0  0  0  0  0  0
   26.8278  -18.2985  -14.7393 C   0  0  0  0  0  0  0  0  0  0  0  0
   28.0910  -18.8767  -15.3810 C   0  0  0  0  0  0  0  0  0  0  0  0
   27.4837  -19.9483  -16.2631 C   0  0  0  0  0  0  0  0  0  0  0  0
   26.0514  -19.4617  -16.5107 C   0  0  1  0  0  0  0  0  0  0  0  0
   25.0746  -20.3327  -15.8160 C   0  0  0  0  0  0  0  0  0  0  0  0
   25.1007  -21.5778  -15.9746 O   0  0  0  0  0  0  0  0  0  0  0  0
   24.0734  -19.7996  -14.9466 N   0  0  0  0  0  0  0  0  0  0  0  0
   23.1115  -20.6345  -14.2677 C   0  0  1  0  0  0  0  0  0  0  0  0
   23.1346  -20.2682  -12.8060 C   0  0  0  0  0  0  0  0  0  0  0  0
   24.3715  -20.7429  -12.1365 C   0  0  0  0  0  0  0  0  0  0  0  0
   24.9196  -21.9848  -12.3881 C   0  0  0  0  0  0  0  0  0  0  0  0
   26.0264  -22.1096  -11.6297 N   0  0  0  0  0  0  0  0  0  0  0  0
   26.1790  -20.9837  -10.9177 C   0  0  0  0  0  0  0  0  0  0  0  0
   25.1626  -20.1667  -11.2409 N   0  0  0  0  0  0  0  0  0  0  0  0
   21.7624  -20.3071  -14.7846 C   0  0  0  0  0  0  0  0  0  0  0  0
   21.3685  -19.1165  -14.8092 O   0  0  0  0  0  0  0  0  0  0  0  0
   17.2486  -20.2758  -17.0833 N   0  0  0  0  0  0  0  0  0  0  0  0
   17.7340  -21.5848  -17.3278 C   0  0  0  0  0  0  0  0  0  0  0  0
   17.1000  -22.3041  -18.1375 O   0  0  0  0  0  0  0  0  0  0  0  0
   18.9474  -22.0192  -16.6200 C   0  0  0  0  0  0  0  0  0  0  0  0
   19.5697  -20.9174  -15.7979 C   0  0  2  0  0  0  0  0  0  0  0  0
   20.8618  -21.3003  -15.2694 N   0  0  0  0  0  0  0  0  0  0  0  0
   18.7124  -20.4593  -14.7047 C   0  0  0  0  0  0  0  0  0  0  0  0
   19.0388  -20.5930  -13.3597 O   0  0  0  0  0  0  0  0  0  0  0  0
   17.6146  -19.9110  -14.9626 O   0  0  0  0  0  0  0  0  0  0  0  0
  1  2  1  0
  2  3  1  0
  4  3  1  0
  5  1  1  0
  5  4  1  0
  6  8  1  0
  5  6  1  1
  7  6  2  0
  9  8  1  0
  9 10  1  1
 10 11  1  0
 11 15  1  0
 12 11  2  0
 12 13  1  0
 13 14  1  0
 15 14  2  0
 16  9  1  0
 17 16  2  0
 18 19  1  0
 19 20  2  0
 19 21  1  0
 22 21  1  1
 22 24  1  0
 22 23  1  0
 23 16  1  0
 24 25  1  0
 26 24  2  0
M  END
$$$$
