PHN.pdb
     RDKit          3D

 26 27  0  0  1  0  0  0  0  0999 V2000
   14.6259   -8.5992   -8.1389 N   0  0  0  0  0  0  0  0  0  0  0  0
   15.2295   -7.3661   -7.6652 C   0  0  0  0  0  0  0  0  0  0  0  0
   14.2580   -6.3384   -8.2500 C   0  0  0  0  0  0  0  0  0  0  0  0
   14.1365   -6.8537   -9.6695 C   0  0  0  0  0  0  0  0  0  0  0  0
   14.4827   -8.3429   -9.5579 C   0  0  1  0  0  0  0  0  0  0  0  0
   15.7825   -8.6290  -10.2090 C   0  0  0  0  0  0  0  0  0  0  0  0
   16.8088   -8.8494   -9.5204 O   0  0  0  0  0  0  0  0  0  0  0  0
   15.9219   -8.6658  -11.6309 N   0  0  0  0  0  0  0  0  0  0  0  0
   17.1385   -9.0923  -12.2799 C   0  0  1  0  0  0  0  0  0  0  0  0
   16.7542   -9.9120  -13.4849 C   0  0  0  0  0  0  0  0  0  0  0  0
   16.3088  -11.2764  -13.1063 C   0  0  0  0  0  0  0  0  0  0  0  0
   17.1469  -12.3719  -13.1655 C   0  0  0  0  0  0  0  0  0  0  0  0
   16.4473  -13.4501  -12.7607 N   0  0  0  0  0  0  0  0  0  0  0  0
   15.2035  -13.0547  -12.4534 C   0  0  0  0  0  0  0  0  0  0  0  0
   15.1409  -11.7304  -12.6705 N   0  0  0  0  0  0  0  0  0  0  0  0
   17.8512   -7.8903  -12.7714 C   0  0  0  0  0  0  0  0  0  0  0  0
   17.2070   -6.8645  -13.0970 O   0  0  0  0  0  0  0  0  0  0  0  0
   21.3244   -4.5698  -14.4893 N   0  0  0  0  0  0  0  0  0  0  0  0
   22.0529   -5.4078  -13.6084 C   0  0  0  0  0  0  0  0  0  0  0  0
   23.2424   -5.0990  -13.3540 O   0  0  0  0  0  0  0  0  0  0  0  0
   21.3727   -6.5847  -13.0479 C   0  0  0  0  0  0  0  0  0  0  0  0
   19.9101   -6.6432  -13.4143 C   0  0  2  0  0  0  0  0  0  0  0  0
   19.2701   -7.8347  -12.8980 N   0  0  0  0  0  0  0  0  0  0  0  0
   19.6721   -6.5473  -14.8543 C   0  0  0  0  0  0  0  0  0  0  0  0
   19.4301   -5.3501  -15.5188 O   0  0  0  0  0  0  0  0  0  0  0  0
   19.6805   -7.5858  -15.5570 O   0  0  0  0  0  0  0  0  0  0  0  0
  1  2  1  0
  2  3  1  0
  4  3  1  0
  5  1  1  0
  5  4  1  0
  6  8  1  0
  5  6  1  6
  7  6  2  0
  9  8  1  0
  9 10  1  6
 10 11  1  0
 11 15  1  0
 12 11  2  0
 12 13  1  0
 13 14  1  0
 15 14  2  0
 16  9  1  0
 17 16  2  0
 18 19  1  0
 19 20  2  0
 19 21  1  0
 22 21  1  6
 22 24  1  0
 22 23  1  0
 23 16  1  0
 24 25  1  0
 26 24  2  0
M  END
$$$$
