PHN.pdb
     RDKit          3D

 26 27  0  0  1  0  0  0  0  0999 V2000
   25.7469  -13.0837  -15.4126 N   0  0  0  0  0  0  0  0  0  0  0  0
   24.8405  -14.1985  -15.2001 C   0  0  0  0  0  0  0  0  0  0  0  0
   25.2948  -15.1425  -16.3156 C   0  0  0  0  0  0  0  0  0  0  0  0
   25.3583  -14.1774  -17.4817 C   0  0  0  0  0  0  0  0  0  0  0  0
   25.5661  -12.8086  -16.8236 C   0  0  1  0  0  0  0  0  0  0  0  0
   24.3572  -11.9654  -16.9752 C   0  0  0  0  0  0  0  0  0  0  0  0
   23.8493  -11.7719  -18.1069 O   0  0  0  0  0  0  0  0  0  0  0  0
   23.7256  -11.3440  -15.8539 N   0  0  0  0  0  0  0  0  0  0  0  0
   22.5111  -10.5738  -15.9766 C   0  0  1  0  0  0  0  0  0  0  0  0
   21.4675  -11.2174  -15.1001 C   0  0  0  0  0  0  0  0  0  0  0  0
   20.8787  -12.4228  -15.7354 C   0  0  0  0  0  0  0  0  0  0  0  0
   20.8057  -13.6400  -15.0880 C   0  0  0  0  0  0  0  0  0  0  0  0
   20.2242  -14.5201  -15.9265 N   0  0  0  0  0  0  0  0  0  0  0  0
   19.9358  -13.8844  -17.0714 C   0  0  0  0  0  0  0  0  0  0  0  0
   20.3418  -12.6112  -16.9338 N   0  0  0  0  0  0  0  0  0  0  0  0
   22.7633   -9.2162  -15.4403 C   0  0  0  0  0  0  0  0  0  0  0  0
   23.3984   -9.0697  -14.3686 O   0  0  0  0  0  0  0  0  0  0  0  0
   23.3066   -4.2129  -14.7436 N   0  0  0  0  0  0  0  0  0  0  0  0
   23.1165   -4.3607  -16.1404 C   0  0  0  0  0  0  0  0  0  0  0  0
   23.2462   -3.3417  -16.8613 O   0  0  0  0  0  0  0  0  0  0  0  0
   22.7800   -5.6950  -16.6582 C   0  0  0  0  0  0  0  0  0  0  0  0
   22.6557   -6.7303  -15.5675 C   0  0  2  0  0  0  0  0  0  0  0  0
   22.3106   -8.0335  -16.0950 N   0  0  0  0  0  0  0  0  0  0  0  0
   21.6994   -6.3577  -14.5252 C   0  0  0  0  0  0  0  0  0  0  0  0
   22.0348   -5.6115  -13.4009 O   0  0  0  0  0  0  0  0  0  0  0  0
   20.5019   -6.7165  -14.6223 O   0  0  0  0  0  0  0  0  0  0  0  0
  1  2  1  0
  2  3  1  0
  4  3  1  0
  5  1  1  0
  5  4  1  0
  6  8  1  0
  5  6  1  1
  7  6  2  0
  9  8  1  0
  9 10  1  1
 10 11  1  0
 11 15  1  0
 12 11  2  0
 12 13  1  0
 13 14  1  0
 15 14  2  0
 16  9  1  0
 17 16  2  0
 18 19  1  0
 19 20  2  0
 19 21  1  0
 22 21  1  6
 22 24  1  0
 22 23  1  0
 23 16  1  0
 24 25  1  0
 26 24  2  0
M  END
$$$$
