PHN.pdb
     RDKit          3D

 26 27  0  0  1  0  0  0  0  0999 V2000
   24.7055  -12.7615  -15.5148 N   0  0  0  0  0  0  0  0  0  0  0  0
   23.7436  -13.7698  -15.1056 C   0  0  0  0  0  0  0  0  0  0  0  0
   23.8769  -14.7657  -16.2599 C   0  0  0  0  0  0  0  0  0  0  0  0
   23.8198  -13.8217  -17.4435 C   0  0  0  0  0  0  0  0  0  0  0  0
   24.2910  -12.4787  -16.8741 C   0  0  1  0  0  0  0  0  0  0  0  0
   23.1708  -11.5105  -16.8199 C   0  0  0  0  0  0  0  0  0  0  0  0
   22.6126  -11.1175  -17.8734 O   0  0  0  0  0  0  0  0  0  0  0  0
   22.6838  -10.9891  -15.5815 N   0  0  0  0  0  0  0  0  0  0  0  0
   21.5499  -10.0991  -15.5073 C   0  0  1  0  0  0  0  0  0  0  0  0
   20.6116  -10.6358  -14.4570 C   0  0  0  0  0  0  0  0  0  0  0  0
   19.5801  -11.5291  -15.0414 C   0  0  0  0  0  0  0  0  0  0  0  0
   19.5051  -11.7867  -16.3956 C   0  0  0  0  0  0  0  0  0  0  0  0
   18.4711  -12.6262  -16.6002 N   0  0  0  0  0  0  0  0  0  0  0  0
   17.9052  -12.8949  -15.4146 C   0  0  0  0  0  0  0  0  0  0  0  0
   18.5947  -12.2181  -14.4811 N   0  0  0  0  0  0  0  0  0  0  0  0
   22.0251   -8.7757  -15.0415 C   0  0  0  0  0  0  0  0  0  0  0  0
   22.8572   -8.6981  -14.1060 O   0  0  0  0  0  0  0  0  0  0  0  0
   22.9385   -3.8235  -14.3264 N   0  0  0  0  0  0  0  0  0  0  0  0
   22.9767   -4.0630  -15.7229 C   0  0  0  0  0  0  0  0  0  0  0  0
   23.4023   -3.1443  -16.4644 O   0  0  0  0  0  0  0  0  0  0  0  0
   22.5168   -5.3694  -16.2165 C   0  0  0  0  0  0  0  0  0  0  0  0
   22.0618   -6.2854  -15.1070 C   0  0  2  0  0  0  0  0  0  0  0  0
   21.5751   -7.5506  -15.6150 N   0  0  0  0  0  0  0  0  0  0  0  0
   21.0461   -5.6841  -14.2430 C   0  0  0  0  0  0  0  0  0  0  0  0
   19.6978   -5.6073  -14.5744 O   0  0  0  0  0  0  0  0  0  0  0  0
   21.3784   -5.2018  -13.1343 O   0  0  0  0  0  0  0  0  0  0  0  0
  1  2  1  0
  2  3  1  0
  4  3  1  0
  5  1  1  0
  5  4  1  0
  6  8  1  0
  5  6  1  1
  7  6  2  0
  9  8  1  0
  9 10  1  1
 10 11  1  0
 11 15  1  0
 12 11  2  0
 12 13  1  0
 13 14  1  0
 15 14  2  0
 16  9  1  0
 17 16  2  0
 18 19  1  0
 19 20  2  0
 19 21  1  0
 22 21  1  6
 22 24  1  0
 22 23  1  0
 23 16  1  0
 24 25  1  0
 26 24  2  0
M  END
$$$$
