PHN.pdb
     RDKit          3D

 26 27  0  0  1  0  0  0  0  0999 V2000
   24.7695  -13.0692  -15.0894 N   0  0  0  0  0  0  0  0  0  0  0  0
   23.9474  -14.1693  -15.5618 C   0  0  0  0  0  0  0  0  0  0  0  0
   24.8515  -14.7422  -16.6556 C   0  0  0  0  0  0  0  0  0  0  0  0
   25.2454  -13.4705  -17.3787 C   0  0  0  0  0  0  0  0  0  0  0  0
   25.0839  -12.3731  -16.3207 C   0  0  1  0  0  0  0  0  0  0  0  0
   23.9418  -11.4894  -16.6524 C   0  0  0  0  0  0  0  0  0  0  0  0
   23.7568  -11.0971  -17.8305 O   0  0  0  0  0  0  0  0  0  0  0  0
   23.0135  -11.0513  -15.6579 N   0  0  0  0  0  0  0  0  0  0  0  0
   21.8756  -10.2205  -15.9717 C   0  0  1  0  0  0  0  0  0  0  0  0
   20.6378  -10.9370  -15.4965 C   0  0  0  0  0  0  0  0  0  0  0  0
   20.2597  -12.0490  -16.4042 C   0  0  0  0  0  0  0  0  0  0  0  0
   19.8422  -11.8354  -17.7027 C   0  0  0  0  0  0  0  0  0  0  0  0
   19.5766  -13.0358  -18.2543 N   0  0  0  0  0  0  0  0  0  0  0  0
   19.8169  -13.9839  -17.3371 C   0  0  0  0  0  0  0  0  0  0  0  0
   20.2310  -13.3625  -16.2203 N   0  0  0  0  0  0  0  0  0  0  0  0
   21.9861   -8.9647  -15.1940 C   0  0  0  0  0  0  0  0  0  0  0  0
   22.2346   -9.0040  -13.9651 O   0  0  0  0  0  0  0  0  0  0  0  0
   22.3021   -4.1229  -13.6503 N   0  0  0  0  0  0  0  0  0  0  0  0
   22.7779   -4.1292  -14.9854 C   0  0  0  0  0  0  0  0  0  0  0  0
   23.3125   -3.0814  -15.4229 O   0  0  0  0  0  0  0  0  0  0  0  0
   22.6166   -5.3593  -15.7745 C   0  0  0  0  0  0  0  0  0  0  0  0
   21.9909   -6.4821  -14.9841 C   0  0  2  0  0  0  0  0  0  0  0  0
   21.8207   -7.6771  -15.7832 N   0  0  0  0  0  0  0  0  0  0  0  0
   20.7117   -6.1162  -14.3762 C   0  0  0  0  0  0  0  0  0  0  0  0
   19.4773   -6.5191  -14.8735 O   0  0  0  0  0  0  0  0  0  0  0  0
   20.6940   -5.3994  -13.3475 O   0  0  0  0  0  0  0  0  0  0  0  0
  1  2  1  0
  2  3  1  0
  4  3  1  0
  5  1  1  0
  5  4  1  0
  6  8  1  0
  5  6  1  6
  7  6  2  0
  9  8  1  0
  9 10  1  1
 10 11  1  0
 11 15  1  0
 12 11  2  0
 12 13  1  0
 13 14  1  0
 15 14  2  0
 16  9  1  0
 17 16  2  0
 18 19  1  0
 19 20  2  0
 19 21  1  0
 22 21  1  6
 22 24  1  0
 22 23  1  0
 23 16  1  0
 24 25  1  0
 26 24  2  0
M  END
$$$$
