PHN.pdb
     RDKit          3D

 26 27  0  0  1  0  0  0  0  0999 V2000
   26.8490  -20.3925  -15.8764 N   0  0  0  0  0  0  0  0  0  0  0  0
   27.3631  -19.1306  -16.3790 C   0  0  0  0  0  0  0  0  0  0  0  0
   28.2826  -18.7255  -15.2248 C   0  0  0  0  0  0  0  0  0  0  0  0
   27.3667  -18.9768  -14.0444 C   0  0  0  0  0  0  0  0  0  0  0  0
   26.3725  -20.0242  -14.5585 C   0  0  1  0  0  0  0  0  0  0  0  0
   25.0212  -19.4352  -14.7076 C   0  0  0  0  0  0  0  0  0  0  0  0
   24.8681  -18.1906  -14.7666 O   0  0  0  0  0  0  0  0  0  0  0  0
   23.8488  -20.2485  -14.7895 N   0  0  0  0  0  0  0  0  0  0  0  0
   22.5303  -19.6916  -14.9759 C   0  0  1  0  0  0  0  0  0  0  0  0
   22.1114  -19.9663  -16.3973 C   0  0  0  0  0  0  0  0  0  0  0  0
   22.8782  -19.1459  -17.3681 C   0  0  0  0  0  0  0  0  0  0  0  0
   22.4881  -17.8726  -17.7323 C   0  0  0  0  0  0  0  0  0  0  0  0
   23.3864  -17.4030  -18.6201 N   0  0  0  0  0  0  0  0  0  0  0  0
   24.3190  -18.3464  -18.8156 C   0  0  0  0  0  0  0  0  0  0  0  0
   23.9910  -19.3970  -18.0452 N   0  0  0  0  0  0  0  0  0  0  0  0
   21.5889  -20.4145  -14.0896 C   0  0  0  0  0  0  0  0  0  0  0  0
   21.6922  -21.6555  -13.9384 O   0  0  0  0  0  0  0  0  0  0  0  0
   21.9466  -20.1337   -9.9138 N   0  0  0  0  0  0  0  0  0  0  0  0
   20.7750  -20.8193  -10.3215 C   0  0  0  0  0  0  0  0  0  0  0  0
   20.6673  -22.0313  -10.0140 O   0  0  0  0  0  0  0  0  0  0  0  0
   19.7600  -20.0711  -11.0777 C   0  0  0  0  0  0  0  0  0  0  0  0
   19.6595  -20.5145  -12.5166 C   0  0  2  0  0  0  0  0  0  0  0  0
   20.5421  -19.7576  -13.3790 N   0  0  0  0  0  0  0  0  0  0  0  0
   18.2962  -20.4571  -13.0435 C   0  0  0  0  0  0  0  0  0  0  0  0
   17.3376  -21.4377  -12.8133 O   0  0  0  0  0  0  0  0  0  0  0  0
   17.9412  -19.4812  -13.7463 O   0  0  0  0  0  0  0  0  0  0  0  0
  1  2  1  0
  2  3  1  0
  4  3  1  0
  5  1  1  0
  5  4  1  0
  6  8  1  0
  5  6  1  6
  7  6  2  0
  9  8  1  0
  9 10  1  6
 10 11  1  0
 11 15  1  0
 12 11  2  0
 12 13  1  0
 13 14  1  0
 15 14  2  0
 16  9  1  0
 17 16  2  0
 18 19  1  0
 19 20  2  0
 19 21  1  0
 22 21  1  1
 22 24  1  0
 22 23  1  0
 23 16  1  0
 24 25  1  0
 26 24  2  0
M  END
$$$$
