PHN.pdb
     RDKit          3D

 26 27  0  0  1  0  0  0  0  0999 V2000
   33.6017  -37.1055   -2.3635 N   0  0  0  0  0  0  0  0  0  0  0  0
   33.3644  -37.1847   -3.7941 C   0  0  0  0  0  0  0  0  0  0  0  0
   34.6155  -36.4797   -4.3229 C   0  0  0  0  0  0  0  0  0  0  0  0
   34.6385  -35.2567   -3.4290 C   0  0  0  0  0  0  0  0  0  0  0  0
   33.8700  -35.6938   -2.1769 C   0  0  1  0  0  0  0  0  0  0  0  0
   32.5703  -34.9881   -2.0867 C   0  0  0  0  0  0  0  0  0  0  0  0
   32.5212  -33.7336   -2.0906 O   0  0  0  0  0  0  0  0  0  0  0  0
   31.3324  -35.6962   -1.9926 N   0  0  0  0  0  0  0  0  0  0  0  0
   30.0567  -35.0234   -1.9350 C   0  0  1  0  0  0  0  0  0  0  0  0
   29.1373  -35.6951   -2.9224 C   0  0  0  0  0  0  0  0  0  0  0  0
   29.2538  -35.1022   -4.2783 C   0  0  0  0  0  0  0  0  0  0  0  0
   30.1285  -34.0728   -4.5634 C   0  0  0  0  0  0  0  0  0  0  0  0
   29.9936  -33.7651   -5.8684 N   0  0  0  0  0  0  0  0  0  0  0  0
   29.0630  -34.5723   -6.3979 C   0  0  0  0  0  0  0  0  0  0  0  0
   28.6265  -35.3768   -5.4145 N   0  0  0  0  0  0  0  0  0  0  0  0
   29.4819  -35.2280   -0.5852 C   0  0  0  0  0  0  0  0  0  0  0  0
   29.6735  -36.3073    0.0247 O   0  0  0  0  0  0  0  0  0  0  0  0
   30.0325  -33.4769    2.9893 N   0  0  0  0  0  0  0  0  0  0  0  0
   28.8272  -32.7336    2.9289 C   0  0  0  0  0  0  0  0  0  0  0  0
   28.7624  -31.6663    3.5858 O   0  0  0  0  0  0  0  0  0  0  0  0
   27.7292  -33.2567    2.1026 C   0  0  0  0  0  0  0  0  0  0  0  0
   28.1036  -34.5190    1.3654 C   0  0  2  0  0  0  0  0  0  0  0  0
   28.7004  -34.2366    0.0771 N   0  0  0  0  0  0  0  0  0  0  0  0
   26.9802  -35.4393    1.1908 C   0  0  0  0  0  0  0  0  0  0  0  0
   26.1891  -35.4839    0.0481 O   0  0  0  0  0  0  0  0  0  0  0  0
   26.6887  -36.2462    2.1053 O   0  0  0  0  0  0  0  0  0  0  0  0
  1  2  1  0
  2  3  1  0
  4  3  1  0
  5  1  1  0
  5  4  1  0
  6  8  1  0
  5  6  1  6
  7  6  2  0
  9  8  1  0
  9 10  1  6
 10 11  1  0
 11 15  1  0
 12 11  2  0
 12 13  1  0
 13 14  1  0
 15 14  2  0
 16  9  1  0
 17 16  2  0
 18 19  1  0
 19 20  2  0
 19 21  1  0
 22 21  1  6
 22 24  1  0
 22 23  1  0
 23 16  1  0
 24 25  1  0
 26 24  2  0
M  END
$$$$
