PHN.pdb
     RDKit          3D

 26 27  0  0  1  0  0  0  0  0999 V2000
   26.5385  -19.3390  -16.0708 N   0  0  0  0  0  0  0  0  0  0  0  0
   27.3570  -18.8174  -14.9905 C   0  0  0  0  0  0  0  0  0  0  0  0
   28.6948  -19.4904  -15.3055 C   0  0  0  0  0  0  0  0  0  0  0  0
   28.2347  -20.9132  -15.5485 C   0  0  0  0  0  0  0  0  0  0  0  0
   26.7668  -20.7659  -15.9646 C   0  0  1  0  0  0  0  0  0  0  0  0
   25.8682  -21.2971  -14.9131 C   0  0  0  0  0  0  0  0  0  0  0  0
   25.9351  -22.5004  -14.5615 O   0  0  0  0  0  0  0  0  0  0  0  0
   24.8990  -20.4727  -14.2622 N   0  0  0  0  0  0  0  0  0  0  0  0
   24.0217  -20.9739  -13.2314 C   0  0  1  0  0  0  0  0  0  0  0  0
   24.3017  -20.1966  -11.9708 C   0  0  0  0  0  0  0  0  0  0  0  0
   25.6469  -20.5001  -11.4214 C   0  0  0  0  0  0  0  0  0  0  0  0
   26.7425  -19.6944  -11.6585 C   0  0  0  0  0  0  0  0  0  0  0  0
   27.8009  -20.2393  -11.0271 N   0  0  0  0  0  0  0  0  0  0  0  0
   27.3931  -21.3563  -10.4075 C   0  0  0  0  0  0  0  0  0  0  0  0
   26.0810  -21.4961  -10.6601 N   0  0  0  0  0  0  0  0  0  0  0  0
   22.6238  -20.6856  -13.6276 C   0  0  0  0  0  0  0  0  0  0  0  0
   22.2810  -19.5160  -13.9243 O   0  0  0  0  0  0  0  0  0  0  0  0
   18.0835  -21.9499  -16.6295 N   0  0  0  0  0  0  0  0  0  0  0  0
   18.2633  -22.3141  -15.2715 C   0  0  0  0  0  0  0  0  0  0  0  0
   17.2447  -22.3771  -14.5411 O   0  0  0  0  0  0  0  0  0  0  0  0
   19.6282  -22.5951  -14.8026 C   0  0  0  0  0  0  0  0  0  0  0  0
   20.3043  -21.3818  -14.2129 C   0  0  2  0  0  0  0  0  0  0  0  0
   21.6183  -21.6942  -13.6918 N   0  0  0  0  0  0  0  0  0  0  0  0
   19.5104  -20.7280  -13.1727 C   0  0  0  0  0  0  0  0  0  0  0  0
   18.6034  -19.7042  -13.4227 O   0  0  0  0  0  0  0  0  0  0  0  0
   19.6321  -21.0888  -11.9780 O   0  0  0  0  0  0  0  0  0  0  0  0
  1  2  1  0
  2  3  1  0
  4  3  1  0
  5  1  1  0
  5  4  1  0
  6  8  1  0
  5  6  1  1
  7  6  2  0
  9  8  1  0
  9 10  1  1
 10 11  1  0
 11 15  1  0
 12 11  2  0
 12 13  1  0
 13 14  1  0
 15 14  2  0
 16  9  1  0
 17 16  2  0
 18 19  1  0
 19 20  2  0
 19 21  1  0
 22 21  1  1
 22 24  1  0
 22 23  1  0
 23 16  1  0
 24 25  1  0
 26 24  2  0
M  END
$$$$
