PHN.pdb
     RDKit          3D

 26 27  0  0  1  0  0  0  0  0999 V2000
   26.1731  -12.5080  -14.9628 N   0  0  0  0  0  0  0  0  0  0  0  0
   25.6672  -13.7516  -15.5168 C   0  0  0  0  0  0  0  0  0  0  0  0
   26.7354  -14.0399  -16.5740 C   0  0  0  0  0  0  0  0  0  0  0  0
   26.8427  -12.6796  -17.2324 C   0  0  0  0  0  0  0  0  0  0  0  0
   26.3681  -11.7021  -16.1511 C   0  0  1  0  0  0  0  0  0  0  0  0
   25.0628  -11.1060  -16.5201 C   0  0  0  0  0  0  0  0  0  0  0  0
   24.8604  -10.6771  -17.6825 O   0  0  0  0  0  0  0  0  0  0  0  0
   23.9917  -10.9950  -15.5805 N   0  0  0  0  0  0  0  0  0  0  0  0
   22.7107  -10.4280  -15.9283 C   0  0  1  0  0  0  0  0  0  0  0  0
   21.6413  -11.3079  -15.3336 C   0  0  0  0  0  0  0  0  0  0  0  0
   21.5223  -12.5990  -16.0563 C   0  0  0  0  0  0  0  0  0  0  0  0
   21.6866  -13.8172  -15.4278 C   0  0  0  0  0  0  0  0  0  0  0  0
   21.5171  -14.7846  -16.3504 N   0  0  0  0  0  0  0  0  0  0  0  0
   21.2532  -14.2019  -17.5289 C   0  0  0  0  0  0  0  0  0  0  0  0
   21.2612  -12.8737  -17.3277 N   0  0  0  0  0  0  0  0  0  0  0  0
   22.5985   -9.0986  -15.2846 C   0  0  0  0  0  0  0  0  0  0  0  0
   22.9799   -8.9373  -14.1005 O   0  0  0  0  0  0  0  0  0  0  0  0
   23.5967   -3.5613  -15.2505 N   0  0  0  0  0  0  0  0  0  0  0  0
   22.4016   -4.2323  -15.6116 C   0  0  0  0  0  0  0  0  0  0  0  0
   21.3120   -3.6507  -15.3893 O   0  0  0  0  0  0  0  0  0  0  0  0
   22.5108   -5.5651  -16.2229 C   0  0  0  0  0  0  0  0  0  0  0  0
   22.0487   -6.6687  -15.3034 C   0  0  2  0  0  0  0  0  0  0  0  0
   22.0654   -7.9602  -15.9571 N   0  0  0  0  0  0  0  0  0  0  0  0
   20.7230   -6.4277  -14.7343 C   0  0  0  0  0  0  0  0  0  0  0  0
   20.5026   -5.6934  -13.5742 O   0  0  0  0  0  0  0  0  0  0  0  0
   19.7077   -6.8967  -15.3013 O   0  0  0  0  0  0  0  0  0  0  0  0
  1  2  1  0
  2  3  1  0
  4  3  1  0
  5  1  1  0
  5  4  1  0
  6  8  1  0
  5  6  1  6
  7  6  2  0
  9  8  1  0
  9 10  1  1
 10 11  1  0
 11 15  1  0
 12 11  2  0
 12 13  1  0
 13 14  1  0
 15 14  2  0
 16  9  1  0
 17 16  2  0
 18 19  1  0
 19 20  2  0
 19 21  1  0
 22 21  1  6
 22 24  1  0
 22 23  1  0
 23 16  1  0
 24 25  1  0
 26 24  2  0
M  END
$$$$
