PHN.pdb
     RDKit          3D

 26 27  0  0  1  0  0  0  0  0999 V2000
   21.9118  -13.1662  -19.7964 N   0  0  0  0  0  0  0  0  0  0  0  0
   23.0375  -14.0039  -19.4218 C   0  0  0  0  0  0  0  0  0  0  0  0
   22.3162  -15.3183  -19.1154 C   0  0  0  0  0  0  0  0  0  0  0  0
   21.1791  -14.8114  -18.2520 C   0  0  0  0  0  0  0  0  0  0  0  0
   21.0106  -13.3481  -18.6764 C   0  0  1  0  0  0  0  0  0  0  0  0
   21.4384  -12.4351  -17.5907 C   0  0  0  0  0  0  0  0  0  0  0  0
   21.1645  -12.6920  -16.3928 O   0  0  0  0  0  0  0  0  0  0  0  0
   22.1720  -11.2378  -17.8572 N   0  0  0  0  0  0  0  0  0  0  0  0
   22.5189  -10.2942  -16.8216 C   0  0  1  0  0  0  0  0  0  0  0  0
   23.8422   -9.6735  -17.1891 C   0  0  0  0  0  0  0  0  0  0  0  0
   24.9836  -10.4079  -16.5879 C   0  0  0  0  0  0  0  0  0  0  0  0
   24.8078  -11.4801  -15.7362 C   0  0  0  0  0  0  0  0  0  0  0  0
   26.0272  -11.9202  -15.3684 N   0  0  0  0  0  0  0  0  0  0  0  0
   26.9504  -11.1533  -15.9664 C   0  0  0  0  0  0  0  0  0  0  0  0
   26.2946  -10.2407  -16.7027 N   0  0  0  0  0  0  0  0  0  0  0  0
   21.5079   -9.2116  -16.8189 C   0  0  0  0  0  0  0  0  0  0  0  0
   21.0467   -8.7770  -17.9014 O   0  0  0  0  0  0  0  0  0  0  0  0
   16.7342   -6.7569  -15.8616 N   0  0  0  0  0  0  0  0  0  0  0  0
   17.8001   -6.8044  -14.9286 C   0  0  0  0  0  0  0  0  0  0  0  0
   17.8790   -5.8829  -14.0804 O   0  0  0  0  0  0  0  0  0  0  0  0
   18.7457   -7.9273  -15.0109 C   0  0  0  0  0  0  0  0  0  0  0  0
   20.0452   -7.5485  -15.6780 C   0  0  2  0  0  0  0  0  0  0  0  0
   21.0166   -8.6202  -15.6184 N   0  0  0  0  0  0  0  0  0  0  0  0
   20.6358   -6.3247  -15.1366 C   0  0  0  0  0  0  0  0  0  0  0  0
   21.8285   -6.2936  -14.4224 O   0  0  0  0  0  0  0  0  0  0  0  0
   20.0579   -5.2255  -15.3095 O   0  0  0  0  0  0  0  0  0  0  0  0
  1  2  1  0
  2  3  1  0
  4  3  1  0
  5  1  1  0
  5  4  1  0
  6  8  1  0
  5  6  1  1
  7  6  2  0
  9  8  1  0
  9 10  1  6
 10 11  1  0
 11 15  1  0
 12 11  2  0
 12 13  1  0
 13 14  1  0
 15 14  2  0
 16  9  1  0
 17 16  2  0
 18 19  1  0
 19 20  2  0
 19 21  1  0
 22 21  1  1
 22 24  1  0
 22 23  1  0
 23 16  1  0
 24 25  1  0
 26 24  2  0
M  END
$$$$
