PHN.pdb
     RDKit          3D

 26 27  0  0  1  0  0  0  0  0999 V2000
   20.7840  -13.0986  -16.6001 N   0  0  0  0  0  0  0  0  0  0  0  0
   19.8927  -13.4563  -17.6896 C   0  0  0  0  0  0  0  0  0  0  0  0
   20.7853  -14.4210  -18.4735 C   0  0  0  0  0  0  0  0  0  0  0  0
   22.0733  -13.6247  -18.5209 C   0  0  0  0  0  0  0  0  0  0  0  0
   21.9820  -12.6930  -17.3071 C   0  0  1  0  0  0  0  0  0  0  0  0
   21.8060  -11.2864  -17.7382 C   0  0  0  0  0  0  0  0  0  0  0  0
   22.6569  -10.7315  -18.4758 O   0  0  0  0  0  0  0  0  0  0  0  0
   20.6743  -10.5108  -17.3379 N   0  0  0  0  0  0  0  0  0  0  0  0
   20.3969   -9.2043  -17.8852 C   0  0  1  0  0  0  0  0  0  0  0  0
   19.1225   -9.3012  -18.6840 C   0  0  0  0  0  0  0  0  0  0  0  0
   19.3423   -9.9545  -19.9987 C   0  0  0  0  0  0  0  0  0  0  0  0
   18.7544  -11.1575  -20.3351 C   0  0  0  0  0  0  0  0  0  0  0  0
   19.1502  -11.4765  -21.5830 N   0  0  0  0  0  0  0  0  0  0  0  0
   19.9641  -10.5081  -22.0277 C   0  0  0  0  0  0  0  0  0  0  0  0
   20.0672   -9.5932  -21.0494 N   0  0  0  0  0  0  0  0  0  0  0  0
   20.1453   -8.2718  -16.7621 C   0  0  0  0  0  0  0  0  0  0  0  0
   19.5027   -8.6558  -15.7556 O   0  0  0  0  0  0  0  0  0  0  0  0
   22.6587   -6.4662  -14.1684 N   0  0  0  0  0  0  0  0  0  0  0  0
   22.5700   -5.2169  -14.8319 C   0  0  0  0  0  0  0  0  0  0  0  0
   23.5512   -4.4386  -14.7513 O   0  0  0  0  0  0  0  0  0  0  0  0
   21.3373   -4.9095  -15.5722 C   0  0  0  0  0  0  0  0  0  0  0  0
   20.3766   -6.0723  -15.6148 C   0  0  2  0  0  0  0  0  0  0  0  0
   20.6072   -6.9231  -16.7632 N   0  0  0  0  0  0  0  0  0  0  0  0
   18.9729   -5.6618  -15.5866 C   0  0  0  0  0  0  0  0  0  0  0  0
   18.2799   -5.3608  -14.4193 O   0  0  0  0  0  0  0  0  0  0  0  0
   18.3308   -5.5664  -16.6594 O   0  0  0  0  0  0  0  0  0  0  0  0
  1  2  1  0
  2  3  1  0
  4  3  1  0
  5  1  1  0
  5  4  1  0
  6  8  1  0
  5  6  1  6
  7  6  2  0
  9  8  1  0
  9 10  1  6
 10 11  1  0
 11 15  1  0
 12 11  2  0
 12 13  1  0
 13 14  1  0
 15 14  2  0
 16  9  1  0
 17 16  2  0
 18 19  1  0
 19 20  2  0
 19 21  1  0
 22 21  1  6
 22 24  1  0
 22 23  1  0
 23 16  1  0
 24 25  1  0
 26 24  2  0
M  END
$$$$
