SPN.pdb
     RDKit          3D

 22 22  0  0  1  0  0  0  0  0999 V2000
    7.7133  -17.1569   16.8841 O   0  0  0  0  0  0  0  0  0  0  0  0
    8.5740  -16.8154   15.8441 C   0  0  0  0  0  0  0  0  0  0  0  0
    8.9326  -15.3505   15.8916 C   0  0  2  0  0  0  0  0  0  0  0  0
    9.7884  -15.0487   14.7744 N   0  0  0  0  0  0  0  0  0  0  0  0
    9.5576  -15.0246   17.1981 C   0  0  0  0  0  0  0  0  0  0  0  0
   10.7956  -15.3548   17.2995 O   0  0  0  0  0  0  0  0  0  0  0  0
    8.8839  -14.4017   18.2722 N   0  0  0  0  0  0  0  0  0  0  0  0
    7.5364  -13.8940   18.2356 C   0  0  0  0  0  0  0  0  0  0  0  0
    7.2354  -13.2768   19.5707 C   0  0  0  0  0  0  0  0  0  0  0  0
    8.6077  -12.9737   20.1274 C   0  0  0  0  0  0  0  0  0  0  0  0
    9.4091  -14.1630   19.5805 C   0  0  1  0  0  0  0  0  0  0  0  0
    9.1699  -15.3002   20.5103 C   0  0  0  0  0  0  0  0  0  0  0  0
    8.2866  -16.1486   20.2554 O   0  0  0  0  0  0  0  0  0  0  0  0
   10.4517  -19.0941   21.2168 N   0  0  0  0  0  0  0  0  0  0  0  0
   11.4014  -18.3458   20.4606 C   0  0  0  0  0  0  0  0  0  0  0  0
   11.9596  -18.9174   19.5107 O   0  0  0  0  0  0  0  0  0  0  0  0
   11.6653  -16.9446   20.8467 C   0  0  0  0  0  0  0  0  0  0  0  0
   10.7925  -16.5325   21.9826 C   0  0  2  0  0  0  0  0  0  0  0  0
    9.9473  -15.4023   21.6692 N   0  0  0  0  0  0  0  0  0  0  0  0
   11.5129  -16.3727   23.2841 C   0  0  0  0  0  0  0  0  0  0  0  0
   11.3431  -17.2742   24.3133 O   0  0  0  0  0  0  0  0  0  0  0  0
   12.3009  -15.4157   23.4916 O   0  0  0  0  0  0  0  0  0  0  0  0
  1  2  1  0
  2  3  1  0
  3  4  1  6
  5  3  1  0
  6  5  2  0
  7 11  1  0
  7  5  1  0
  8  7  1  0
  9 10  1  0
  9  8  1  0
 10 11  1  0
 11 12  1  1
 12 13  2  0
 12 19  1  0
 15 14  1  0
 15 17  1  0
 16 15  2  0
 18 17  1  6
 18 20  1  0
 19 18  1  0
 20 21  1  0
 22 20  2  0
M  END
$$$$
