SPN.pdb
     RDKit          3D

 22 22  0  0  1  0  0  0  0  0999 V2000
    9.2820  -16.0092   17.5713 O   0  0  0  0  0  0  0  0  0  0  0  0
    8.0291  -15.4069   17.6527 C   0  0  0  0  0  0  0  0  0  0  0  0
    8.1442  -13.9645   18.0807 C   0  0  2  0  0  0  0  0  0  0  0  0
    8.8008  -13.2243   17.0354 N   0  0  0  0  0  0  0  0  0  0  0  0
    8.8565  -13.8776   19.3802 C   0  0  0  0  0  0  0  0  0  0  0  0
   10.0769  -13.4824   19.2995 O   0  0  0  0  0  0  0  0  0  0  0  0
    8.2790  -14.1939   20.6300 N   0  0  0  0  0  0  0  0  0  0  0  0
    6.9078  -14.5782   20.8471 C   0  0  0  0  0  0  0  0  0  0  0  0
    6.7089  -14.7799   22.3214 C   0  0  0  0  0  0  0  0  0  0  0  0
    7.8311  -13.9733   22.9340 C   0  0  0  0  0  0  0  0  0  0  0  0
    8.9415  -14.1916   21.8971 C   0  0  1  0  0  0  0  0  0  0  0  0
    9.5703  -15.5020   22.2173 C   0  0  0  0  0  0  0  0  0  0  0  0
    9.2316  -16.5332   21.5951 O   0  0  0  0  0  0  0  0  0  0  0  0
   13.7141  -18.2218   23.2541 N   0  0  0  0  0  0  0  0  0  0  0  0
   14.0180  -16.8961   22.8254 C   0  0  0  0  0  0  0  0  0  0  0  0
   15.1815  -16.6609   22.4627 O   0  0  0  0  0  0  0  0  0  0  0  0
   12.9404  -15.8857   22.8369 C   0  0  0  0  0  0  0  0  0  0  0  0
   11.6414  -16.4981   23.2359 C   0  0  2  0  0  0  0  0  0  0  0  0
   10.5422  -15.5592   23.2222 N   0  0  0  0  0  0  0  0  0  0  0  0
   11.7019  -17.2994   24.4979 C   0  0  0  0  0  0  0  0  0  0  0  0
   12.1856  -18.5904   24.5053 O   0  0  0  0  0  0  0  0  0  0  0  0
   11.3183  -16.8303   25.5991 O   0  0  0  0  0  0  0  0  0  0  0  0
  1  2  1  0
  2  3  1  0
  3  4  1  6
  5  3  1  0
  6  5  2  0
  7 11  1  0
  7  5  1  0
  8  7  1  0
  9 10  1  0
  9  8  1  0
 10 11  1  0
 11 12  1  1
 12 13  2  0
 12 19  1  0
 15 14  1  0
 15 17  1  0
 16 15  2  0
 18 17  1  1
 18 20  1  0
 19 18  1  0
 20 21  1  0
 22 20  2  0
M  END
$$$$
