SPN.pdb
     RDKit          3D

 22 22  0  0  1  0  0  0  0  0999 V2000
    7.5698  -18.2510   17.7874 O   0  0  0  0  0  0  0  0  0  0  0  0
    6.9927  -17.0925   17.2736 C   0  0  0  0  0  0  0  0  0  0  0  0
    8.0468  -16.0946   16.8615 C   0  0  2  0  0  0  0  0  0  0  0  0
    8.8140  -16.6543   15.7799 N   0  0  0  0  0  0  0  0  0  0  0  0
    8.8847  -15.7312   18.0317 C   0  0  0  0  0  0  0  0  0  0  0  0
   10.0489  -16.2756   18.0497 O   0  0  0  0  0  0  0  0  0  0  0  0
    8.4763  -14.8609   19.0667 N   0  0  0  0  0  0  0  0  0  0  0  0
    7.1720  -14.2630   19.1939 C   0  0  0  0  0  0  0  0  0  0  0  0
    7.1821  -13.3778   20.4065 C   0  0  0  0  0  0  0  0  0  0  0  0
    8.6515  -13.0846   20.6067 C   0  0  0  0  0  0  0  0  0  0  0  0
    9.2732  -14.4176   20.1680 C   0  0  1  0  0  0  0  0  0  0  0  0
    9.1903  -15.3313   21.3399 C   0  0  0  0  0  0  0  0  0  0  0  0
    8.1079  -15.8867   21.6315 O   0  0  0  0  0  0  0  0  0  0  0  0
   13.7848  -17.4903   23.4687 N   0  0  0  0  0  0  0  0  0  0  0  0
   12.8566  -17.1117   22.4544 C   0  0  0  0  0  0  0  0  0  0  0  0
   13.2466  -16.3163   21.5850 O   0  0  0  0  0  0  0  0  0  0  0  0
   11.4946  -17.6825   22.4950 C   0  0  0  0  0  0  0  0  0  0  0  0
   10.5128  -16.6803   22.9983 C   0  0  2  0  0  0  0  0  0  0  0  0
   10.3394  -15.5563   22.1058 N   0  0  0  0  0  0  0  0  0  0  0  0
   10.7341  -16.2629   24.4179 C   0  0  0  0  0  0  0  0  0  0  0  0
   10.7035  -17.1788   25.4479 O   0  0  0  0  0  0  0  0  0  0  0  0
   10.9584  -15.0659   24.7288 O   0  0  0  0  0  0  0  0  0  0  0  0
  1  2  1  0
  2  3  1  0
  3  4  1  6
  5  3  1  0
  6  5  2  0
  7 11  1  0
  7  5  1  0
  8  7  1  0
  9 10  1  0
  9  8  1  0
 10 11  1  0
 11 12  1  1
 12 13  2  0
 12 19  1  0
 15 14  1  0
 15 17  1  0
 16 15  2  0
 18 17  1  6
 18 20  1  0
 19 18  1  0
 20 21  1  0
 22 20  2  0
M  END
$$$$
