SPN.pdb
     RDKit          3D

 22 22  0  0  1  0  0  0  0  0999 V2000
    8.4128  -17.1342   15.4389 O   0  0  0  0  0  0  0  0  0  0  0  0
    7.3534  -16.2311   15.4738 C   0  0  0  0  0  0  0  0  0  0  0  0
    7.8264  -14.8247   15.1995 C   0  0  2  0  0  0  0  0  0  0  0  0
    8.3097  -14.7566   13.8455 N   0  0  0  0  0  0  0  0  0  0  0  0
    8.8541  -14.4329   16.1964 C   0  0  0  0  0  0  0  0  0  0  0  0
   10.0644  -14.4729   15.7654 O   0  0  0  0  0  0  0  0  0  0  0  0
    8.5706  -14.0405   17.5234 N   0  0  0  0  0  0  0  0  0  0  0  0
    7.2630  -14.0073   18.1270 C   0  0  0  0  0  0  0  0  0  0  0  0
    7.4107  -13.4906   19.5288 C   0  0  0  0  0  0  0  0  0  0  0  0
    8.7205  -12.7375   19.4823 C   0  0  0  0  0  0  0  0  0  0  0  0
    9.5187  -13.6089   18.5028 C   0  0  1  0  0  0  0  0  0  0  0  0
   10.0773  -14.7374   19.2961 C   0  0  0  0  0  0  0  0  0  0  0  0
    9.3684  -15.7332   19.5624 O   0  0  0  0  0  0  0  0  0  0  0  0
   14.2103  -13.8658   20.2651 N   0  0  0  0  0  0  0  0  0  0  0  0
   14.1635  -14.8858   19.2696 C   0  0  0  0  0  0  0  0  0  0  0  0
   14.7920  -14.6919   18.2169 O   0  0  0  0  0  0  0  0  0  0  0  0
   13.3765  -16.1053   19.5446 C   0  0  0  0  0  0  0  0  0  0  0  0
   12.1340  -15.7775   20.2998 C   0  0  2  0  0  0  0  0  0  0  0  0
   11.4034  -14.6644   19.7366 N   0  0  0  0  0  0  0  0  0  0  0  0
   12.3285  -15.6530   21.7780 C   0  0  0  0  0  0  0  0  0  0  0  0
   12.8039  -16.7061   22.5301 O   0  0  0  0  0  0  0  0  0  0  0  0
   12.0701  -14.5874   22.3924 O   0  0  0  0  0  0  0  0  0  0  0  0
  1  2  1  0
  2  3  1  0
  3  4  1  6
  5  3  1  0
  6  5  2  0
  7 11  1  0
  7  5  1  0
  8  7  1  0
  9 10  1  0
  9  8  1  0
 10 11  1  0
 11 12  1  1
 12 13  2  0
 12 19  1  0
 15 14  1  0
 15 17  1  0
 16 15  2  0
 18 17  1  6
 18 20  1  0
 19 18  1  0
 20 21  1  0
 22 20  2  0
M  END
$$$$
