SPN.pdb
     RDKit          3D

 22 22  0  0  1  0  0  0  0  0999 V2000
    7.5737  -18.7796   20.2636 O   0  0  0  0  0  0  0  0  0  0  0  0
    7.0849  -17.9298   19.2747 C   0  0  0  0  0  0  0  0  0  0  0  0
    8.1937  -17.1074   18.6654 C   0  0  2  0  0  0  0  0  0  0  0  0
    9.1489  -17.9978   18.0599 N   0  0  0  0  0  0  0  0  0  0  0  0
    8.8004  -16.2312   19.6987 C   0  0  0  0  0  0  0  0  0  0  0  0
    9.9205  -16.6505   20.1696 O   0  0  0  0  0  0  0  0  0  0  0  0
    8.2280  -15.0243   20.1583 N   0  0  0  0  0  0  0  0  0  0  0  0
    7.0108  -14.4323   19.6656 C   0  0  0  0  0  0  0  0  0  0  0  0
    6.7933  -13.1391   20.3965 C   0  0  0  0  0  0  0  0  0  0  0  0
    8.1786  -12.7822   20.8850 C   0  0  0  0  0  0  0  0  0  0  0  0
    8.7452  -14.1764   21.1869 C   0  0  1  0  0  0  0  0  0  0  0  0
    8.2525  -14.5513   22.5404 C   0  0  0  0  0  0  0  0  0  0  0  0
    7.0306  -14.4990   22.8039 O   0  0  0  0  0  0  0  0  0  0  0  0
    6.5977  -18.0553   25.8465 N   0  0  0  0  0  0  0  0  0  0  0  0
    7.9018  -18.0090   25.2714 C   0  0  0  0  0  0  0  0  0  0  0  0
    8.7719  -18.7487   25.7576 O   0  0  0  0  0  0  0  0  0  0  0  0
    8.1420  -17.0913   24.1390 C   0  0  0  0  0  0  0  0  0  0  0  0
    8.8704  -15.8710   24.5887 C   0  0  2  0  0  0  0  0  0  0  0  0
    9.1765  -14.9610   23.5079 N   0  0  0  0  0  0  0  0  0  0  0  0
   10.0520  -16.1483   25.4635 C   0  0  0  0  0  0  0  0  0  0  0  0
   11.3259  -16.2318   24.9429 O   0  0  0  0  0  0  0  0  0  0  0  0
    9.9334  -16.3137   26.7038 O   0  0  0  0  0  0  0  0  0  0  0  0
  1  2  1  0
  2  3  1  0
  3  4  1  1
  5  3  1  0
  6  5  2  0
  7 11  1  0
  7  5  1  0
  8  7  1  0
  9 10  1  0
  9  8  1  0
 10 11  1  0
 11 12  1  1
 12 13  2  0
 12 19  1  0
 15 14  1  0
 15 17  1  0
 16 15  2  0
 18 17  1  6
 18 20  1  0
 19 18  1  0
 20 21  1  0
 22 20  2  0
M  END
$$$$
