SPN.pdb
     RDKit          3D

 22 22  0  0  1  0  0  0  0  0999 V2000
    7.4130  -16.4956   22.6143 O   0  0  0  0  0  0  0  0  0  0  0  0
    6.5088  -15.4466   22.4686 C   0  0  0  0  0  0  0  0  0  0  0  0
    7.2246  -14.1313   22.2829 C   0  0  2  0  0  0  0  0  0  0  0  0
    7.9003  -14.1494   21.0122 N   0  0  0  0  0  0  0  0  0  0  0  0
    8.1477  -13.8926   23.4207 C   0  0  0  0  0  0  0  0  0  0  0  0
    9.3898  -14.0911   23.1565 O   0  0  0  0  0  0  0  0  0  0  0  0
    7.7382  -13.4796   24.7080 N   0  0  0  0  0  0  0  0  0  0  0  0
    6.3876  -13.1647   25.0977 C   0  0  0  0  0  0  0  0  0  0  0  0
    6.4072  -12.7308   26.5348 C   0  0  0  0  0  0  0  0  0  0  0  0
    7.8395  -12.2948   26.7436 C   0  0  0  0  0  0  0  0  0  0  0  0
    8.5793  -13.3001   25.8503 C   0  0  1  0  0  0  0  0  0  0  0  0
    8.7335  -14.5459   26.6498 C   0  0  0  0  0  0  0  0  0  0  0  0
    7.7368  -15.2552   26.9114 O   0  0  0  0  0  0  0  0  0  0  0  0
   12.2857  -16.2203   25.0545 N   0  0  0  0  0  0  0  0  0  0  0  0
   11.3393  -16.9621   25.8210 C   0  0  0  0  0  0  0  0  0  0  0  0
   10.4911  -17.6251   25.2031 O   0  0  0  0  0  0  0  0  0  0  0  0
   11.4205  -16.9005   27.2947 C   0  0  0  0  0  0  0  0  0  0  0  0
   10.2909  -16.1069   27.8569 C   0  0  2  0  0  0  0  0  0  0  0  0
   10.0075  -14.9073   27.1015 N   0  0  0  0  0  0  0  0  0  0  0  0
   10.3904  -15.8539   29.3282 C   0  0  0  0  0  0  0  0  0  0  0  0
   10.3469  -14.5748   29.8405 O   0  0  0  0  0  0  0  0  0  0  0  0
   10.5148  -16.7928   30.1545 O   0  0  0  0  0  0  0  0  0  0  0  0
  1  2  1  0
  2  3  1  0
  3  4  1  6
  5  3  1  0
  6  5  2  0
  7 11  1  0
  7  5  1  0
  8  7  1  0
  9 10  1  0
  9  8  1  0
 10 11  1  0
 11 12  1  1
 12 13  2  0
 12 19  1  0
 15 14  1  0
 15 17  1  0
 16 15  2  0
 18 17  1  6
 18 20  1  0
 19 18  1  0
 20 21  1  0
 22 20  2  0
M  END
$$$$
