SPN.pdb
     RDKit          3D

 22 22  0  0  1  0  0  0  0  0999 V2000
    8.9484  -17.1565   16.7332 O   0  0  0  0  0  0  0  0  0  0  0  0
    8.4764  -16.0268   16.0699 C   0  0  0  0  0  0  0  0  0  0  0  0
    9.4709  -14.8945   16.1455 C   0  0  2  0  0  0  0  0  0  0  0  0
   10.5847  -15.2009   15.2870 N   0  0  0  0  0  0  0  0  0  0  0  0
    9.8774  -14.6713   17.5557 C   0  0  0  0  0  0  0  0  0  0  0  0
   11.0502  -15.1052   17.8527 O   0  0  0  0  0  0  0  0  0  0  0  0
    9.0722  -14.0374   18.5280 N   0  0  0  0  0  0  0  0  0  0  0  0
    7.7314  -13.5535   18.3206 C   0  0  0  0  0  0  0  0  0  0  0  0
    7.2652  -12.9134   19.5961 C   0  0  0  0  0  0  0  0  0  0  0  0
    8.5573  -12.5754   20.3042 C   0  0  0  0  0  0  0  0  0  0  0  0
    9.4349  -13.7623   19.8834 C   0  0  1  0  0  0  0  0  0  0  0  0
    9.1034  -14.8835   20.8043 C   0  0  0  0  0  0  0  0  0  0  0  0
    8.1860  -15.6845   20.5184 O   0  0  0  0  0  0  0  0  0  0  0  0
   12.9643  -15.4935   20.4134 N   0  0  0  0  0  0  0  0  0  0  0  0
   12.5938  -16.2511   21.5633 C   0  0  0  0  0  0  0  0  0  0  0  0
   13.3931  -16.2850   22.5123 O   0  0  0  0  0  0  0  0  0  0  0  0
   11.2908  -16.9471   21.5607 C   0  0  0  0  0  0  0  0  0  0  0  0
   10.3323  -16.2852   22.4907 C   0  0  2  0  0  0  0  0  0  0  0  0
    9.8330  -15.0243   21.9899 N   0  0  0  0  0  0  0  0  0  0  0  0
   10.8110  -16.1968   23.9055 C   0  0  0  0  0  0  0  0  0  0  0  0
   10.9387  -14.9820   24.5448 O   0  0  0  0  0  0  0  0  0  0  0  0
   11.1130  -17.2215   24.5676 O   0  0  0  0  0  0  0  0  0  0  0  0
  1  2  1  0
  2  3  1  0
  3  4  1  6
  5  3  1  0
  6  5  2  0
  7 11  1  0
  7  5  1  0
  8  7  1  0
  9 10  1  0
  9  8  1  0
 10 11  1  0
 11 12  1  1
 12 13  2  0
 12 19  1  0
 15 14  1  0
 15 17  1  0
 16 15  2  0
 18 17  1  6
 18 20  1  0
 19 18  1  0
 20 21  1  0
 22 20  2  0
M  END
$$$$
