SPN.pdb
     RDKit          3D

 22 22  0  0  1  0  0  0  0  0999 V2000
    6.2962  -16.2190   23.3880 O   0  0  0  0  0  0  0  0  0  0  0  0
    6.7878  -15.6983   22.1937 C   0  0  0  0  0  0  0  0  0  0  0  0
    7.1530  -14.2419   22.3431 C   0  0  2  0  0  0  0  0  0  0  0  0
    7.6843  -13.7690   21.0919 N   0  0  0  0  0  0  0  0  0  0  0  0
    8.1027  -14.0714   23.4712 C   0  0  0  0  0  0  0  0  0  0  0  0
    9.3292  -14.3283   23.1854 O   0  0  0  0  0  0  0  0  0  0  0  0
    7.7327  -13.6617   24.7715 N   0  0  0  0  0  0  0  0  0  0  0  0
    6.3980  -13.3265   25.1972 C   0  0  0  0  0  0  0  0  0  0  0  0
    6.4609  -12.9045   26.6366 C   0  0  0  0  0  0  0  0  0  0  0  0
    7.9054  -12.4953   26.8129 C   0  0  0  0  0  0  0  0  0  0  0  0
    8.6049  -13.5061   25.8937 C   0  0  1  0  0  0  0  0  0  0  0  0
    8.7571  -14.7608   26.6796 C   0  0  0  0  0  0  0  0  0  0  0  0
    7.7514  -15.4383   26.9874 O   0  0  0  0  0  0  0  0  0  0  0  0
   10.5824  -18.3445   25.2902 N   0  0  0  0  0  0  0  0  0  0  0  0
   11.3763  -17.2858   25.8217 C   0  0  0  0  0  0  0  0  0  0  0  0
   11.9492  -16.5355   25.0158 O   0  0  0  0  0  0  0  0  0  0  0  0
   11.4716  -17.1426   27.2889 C   0  0  0  0  0  0  0  0  0  0  0  0
   10.3170  -16.3661   27.8236 C   0  0  2  0  0  0  0  0  0  0  0  0
   10.0391  -15.1664   27.0662 N   0  0  0  0  0  0  0  0  0  0  0  0
   10.3729  -16.1193   29.2982 C   0  0  0  0  0  0  0  0  0  0  0  0
   10.4337  -17.1619   30.1981 O   0  0  0  0  0  0  0  0  0  0  0  0
   10.3692  -14.9566   29.7755 O   0  0  0  0  0  0  0  0  0  0  0  0
  1  2  1  0
  2  3  1  0
  3  4  1  6
  5  3  1  0
  6  5  2  0
  7 11  1  0
  7  5  1  0
  8  7  1  0
  9 10  1  0
  9  8  1  0
 10 11  1  0
 11 12  1  1
 12 13  2  0
 12 19  1  0
 15 14  1  0
 15 17  1  0
 16 15  2  0
 18 17  1  6
 18 20  1  0
 19 18  1  0
 20 21  1  0
 22 20  2  0
M  END
$$$$
