SPN.pdb
     RDKit          3D

 22 22  0  0  1  0  0  0  0  0999 V2000
    8.3496  -17.5962   16.5705 O   0  0  0  0  0  0  0  0  0  0  0  0
    7.7852  -16.3611   16.2621 C   0  0  0  0  0  0  0  0  0  0  0  0
    8.8404  -15.2861   16.1739 C   0  0  2  0  0  0  0  0  0  0  0  0
    9.8097  -15.6715   15.1822 N   0  0  0  0  0  0  0  0  0  0  0  0
    9.4453  -15.0598   17.5105 C   0  0  0  0  0  0  0  0  0  0  0  0
   10.6159  -15.5679   17.6642 O   0  0  0  0  0  0  0  0  0  0  0  0
    8.8209  -14.3491   18.5595 N   0  0  0  0  0  0  0  0  0  0  0  0
    7.4958  -13.7857   18.5185 C   0  0  0  0  0  0  0  0  0  0  0  0
    7.2487  -13.0823   19.8216 C   0  0  0  0  0  0  0  0  0  0  0  0
    8.6438  -12.8089   20.3355 C   0  0  0  0  0  0  0  0  0  0  0  0
    9.3824  -14.0609   19.8425 C   0  0  1  0  0  0  0  0  0  0  0  0
    9.1139  -15.1328   20.8395 C   0  0  0  0  0  0  0  0  0  0  0  0
    8.1345  -15.8977   20.6952 O   0  0  0  0  0  0  0  0  0  0  0  0
    9.5830  -18.9308   21.8005 N   0  0  0  0  0  0  0  0  0  0  0  0
   10.5888  -18.4959   20.8879 C   0  0  0  0  0  0  0  0  0  0  0  0
   10.8549  -19.2371   19.9285 O   0  0  0  0  0  0  0  0  0  0  0  0
   11.2519  -17.1989   21.1334 C   0  0  0  0  0  0  0  0  0  0  0  0
   10.6382  -16.4998   22.2980 C   0  0  2  0  0  0  0  0  0  0  0  0
    9.9727  -15.2685   21.9357 N   0  0  0  0  0  0  0  0  0  0  0  0
   11.5538  -16.3391   23.4703 C   0  0  0  0  0  0  0  0  0  0  0  0
   11.4250  -17.1269   24.5942 O   0  0  0  0  0  0  0  0  0  0  0  0
   12.4757  -15.4848   23.4782 O   0  0  0  0  0  0  0  0  0  0  0  0
  1  2  1  0
  2  3  1  0
  3  4  1  6
  5  3  1  0
  6  5  2  0
  7 11  1  0
  7  5  1  0
  8  7  1  0
  9 10  1  0
  9  8  1  0
 10 11  1  0
 11 12  1  1
 12 13  2  0
 12 19  1  0
 15 14  1  0
 15 17  1  0
 16 15  2  0
 18 17  1  6
 18 20  1  0
 19 18  1  0
 20 21  1  0
 22 20  2  0
M  END
$$$$
