SPN.pdb
     RDKit          3D

 22 22  0  0  1  0  0  0  0  0999 V2000
    7.4980  -16.8914   16.6768 O   0  0  0  0  0  0  0  0  0  0  0  0
    8.6012  -16.7414   15.8405 C   0  0  0  0  0  0  0  0  0  0  0  0
    9.2354  -15.3831   16.0125 C   0  0  2  0  0  0  0  0  0  0  0  0
   10.3277  -15.2631   15.0829 N   0  0  0  0  0  0  0  0  0  0  0  0
    9.6590  -15.1974   17.4231 C   0  0  0  0  0  0  0  0  0  0  0  0
   10.7741  -15.7589   17.7284 O   0  0  0  0  0  0  0  0  0  0  0  0
    8.9267  -14.4697   18.3874 N   0  0  0  0  0  0  0  0  0  0  0  0
    7.6541  -13.8315   18.1681 C   0  0  0  0  0  0  0  0  0  0  0  0
    7.2570  -13.1368   19.4384 C   0  0  0  0  0  0  0  0  0  0  0  0
    8.5744  -12.9514   20.1561 C   0  0  0  0  0  0  0  0  0  0  0  0
    9.3089  -14.2350   19.7451 C   0  0  1  0  0  0  0  0  0  0  0  0
    8.8402  -15.3062   20.6658 C   0  0  0  0  0  0  0  0  0  0  0  0
    7.8827  -16.0430   20.3410 O   0  0  0  0  0  0  0  0  0  0  0  0
   11.8468  -19.2727   21.1228 N   0  0  0  0  0  0  0  0  0  0  0  0
   12.2537  -17.9731   21.5460 C   0  0  0  0  0  0  0  0  0  0  0  0
   13.3041  -17.8838   22.2012 O   0  0  0  0  0  0  0  0  0  0  0  0
   11.4096  -16.8161   21.1841 C   0  0  0  0  0  0  0  0  0  0  0  0
   10.3548  -16.5852   22.2116 C   0  0  2  0  0  0  0  0  0  0  0  0
    9.4868  -15.4731   21.8953 N   0  0  0  0  0  0  0  0  0  0  0  0
   10.8660  -16.5384   23.6169 C   0  0  0  0  0  0  0  0  0  0  0  0
   11.2885  -15.3565   24.1874 O   0  0  0  0  0  0  0  0  0  0  0  0
   10.9291  -17.5692   24.3332 O   0  0  0  0  0  0  0  0  0  0  0  0
  1  2  1  0
  2  3  1  0
  3  4  1  6
  5  3  1  0
  6  5  2  0
  7 11  1  0
  7  5  1  0
  8  7  1  0
  9 10  1  0
  9  8  1  0
 10 11  1  0
 11 12  1  1
 12 13  2  0
 12 19  1  0
 15 14  1  0
 15 17  1  0
 16 15  2  0
 18 17  1  6
 18 20  1  0
 19 18  1  0
 20 21  1  0
 22 20  2  0
M  END
$$$$
