SPN.pdb
     RDKit          3D

 22 22  0  0  1  0  0  0  0  0999 V2000
    6.4169  -15.8838   20.2620 O   0  0  0  0  0  0  0  0  0  0  0  0
    6.4629  -15.2890   21.5203 C   0  0  0  0  0  0  0  0  0  0  0  0
    7.5324  -14.2264   21.5825 C   0  0  2  0  0  0  0  0  0  0  0  0
    8.4317  -14.4117   20.4741 N   0  0  0  0  0  0  0  0  0  0  0  0
    8.2218  -14.2786   22.8961 C   0  0  0  0  0  0  0  0  0  0  0  0
    9.4191  -14.7443   22.8572 O   0  0  0  0  0  0  0  0  0  0  0  0
    7.6467  -13.8606   24.1168 N   0  0  0  0  0  0  0  0  0  0  0  0
    6.4465  -13.0758   24.2532 C   0  0  0  0  0  0  0  0  0  0  0  0
    6.2200  -12.8224   25.7156 C   0  0  0  0  0  0  0  0  0  0  0  0
    7.5951  -13.0099   26.3148 C   0  0  0  0  0  0  0  0  0  0  0  0
    8.1438  -14.1367   25.4287 C   0  0  1  0  0  0  0  0  0  0  0  0
    7.6145  -15.4113   25.9857 C   0  0  0  0  0  0  0  0  0  0  0  0
    6.4945  -15.8390   25.6284 O   0  0  0  0  0  0  0  0  0  0  0  0
    9.9099  -19.8797   26.0692 N   0  0  0  0  0  0  0  0  0  0  0  0
    9.9861  -18.9243   25.0132 C   0  0  0  0  0  0  0  0  0  0  0  0
   10.5433  -19.2733   23.9604 O   0  0  0  0  0  0  0  0  0  0  0  0
    9.4029  -17.5844   25.2296 C   0  0  0  0  0  0  0  0  0  0  0  0
    8.9904  -17.4071   26.6510 C   0  0  2  0  0  0  0  0  0  0  0  0
    8.3887  -16.1188   26.9118 N   0  0  0  0  0  0  0  0  0  0  0  0
   10.0487  -17.7635   27.6467 C   0  0  0  0  0  0  0  0  0  0  0  0
   11.3031  -17.1939   27.5949 O   0  0  0  0  0  0  0  0  0  0  0  0
    9.8385  -18.5914   28.5687 O   0  0  0  0  0  0  0  0  0  0  0  0
  1  2  1  0
  2  3  1  0
  3  4  1  6
  5  3  1  0
  6  5  2  0
  7 11  1  0
  7  5  1  0
  8  7  1  0
  9 10  1  0
  9  8  1  0
 10 11  1  0
 11 12  1  1
 12 13  2  0
 12 19  1  0
 15 14  1  0
 15 17  1  0
 16 15  2  0
 18 17  1  6
 18 20  1  0
 19 18  1  0
 20 21  1  0
 22 20  2  0
M  END
$$$$
