SPN.pdb
     RDKit          3D

 22 22  0  0  1  0  0  0  0  0999 V2000
    9.7394  -14.5589   14.8307 O   0  0  0  0  0  0  0  0  0  0  0  0
    9.5303  -14.5538   16.2074 C   0  0  0  0  0  0  0  0  0  0  0  0
    8.1155  -14.9549   16.5457 C   0  0  2  0  0  0  0  0  0  0  0  0
    7.2441  -13.8409   16.2787 N   0  0  0  0  0  0  0  0  0  0  0  0
    8.0434  -15.4154   17.9550 C   0  0  0  0  0  0  0  0  0  0  0  0
    7.4901  -14.5847   18.7648 O   0  0  0  0  0  0  0  0  0  0  0  0
    8.5308  -16.6591   18.4146 N   0  0  0  0  0  0  0  0  0  0  0  0
    9.2975  -17.5986   17.6370 C   0  0  0  0  0  0  0  0  0  0  0  0
    9.5692  -18.8003   18.4949 C   0  0  0  0  0  0  0  0  0  0  0  0
    8.4820  -18.7285   19.5427 C   0  0  0  0  0  0  0  0  0  0  0  0
    8.3557  -17.2094   19.7226 C   0  0  1  0  0  0  0  0  0  0  0  0
    9.4334  -16.8021   20.6647 C   0  0  0  0  0  0  0  0  0  0  0  0
   10.6049  -16.6463   20.2541 O   0  0  0  0  0  0  0  0  0  0  0  0
    8.1694  -13.5100   22.9061 N   0  0  0  0  0  0  0  0  0  0  0  0
    8.0401  -14.6854   23.7033 C   0  0  0  0  0  0  0  0  0  0  0  0
    6.8932  -15.0608   23.9935 O   0  0  0  0  0  0  0  0  0  0  0  0
    9.2678  -15.3842   24.1353 C   0  0  0  0  0  0  0  0  0  0  0  0
    9.9920  -15.9591   22.9661 C   0  0  2  0  0  0  0  0  0  0  0  0
    9.1140  -16.5976   22.0115 N   0  0  0  0  0  0  0  0  0  0  0  0
   11.1678  -16.8098   23.3296 C   0  0  0  0  0  0  0  0  0  0  0  0
   12.3135  -16.2593   23.8635 O   0  0  0  0  0  0  0  0  0  0  0  0
   11.1592  -18.0560   23.1664 O   0  0  0  0  0  0  0  0  0  0  0  0
  1  2  1  0
  2  3  1  0
  3  4  1  1
  5  3  1  0
  6  5  2  0
  7 11  1  0
  7  5  1  0
  8  7  1  0
  9 10  1  0
  9  8  1  0
 10 11  1  0
 11 12  1  1
 12 13  2  0
 12 19  1  0
 15 14  1  0
 15 17  1  0
 16 15  2  0
 18 17  1  1
 18 20  1  0
 19 18  1  0
 20 21  1  0
 22 20  2  0
M  END
$$$$
