SPN.pdb
     RDKit          3D

 22 22  0  0  1  0  0  0  0  0999 V2000
    6.9421  -16.6867   22.7334 O   0  0  0  0  0  0  0  0  0  0  0  0
    6.2378  -15.4991   22.5526 C   0  0  0  0  0  0  0  0  0  0  0  0
    7.1721  -14.3487   22.2685 C   0  0  2  0  0  0  0  0  0  0  0  0
    7.8580  -14.6069   21.0297 N   0  0  0  0  0  0  0  0  0  0  0  0
    8.1013  -14.1577   23.4102 C   0  0  0  0  0  0  0  0  0  0  0  0
    9.3101  -14.5345   23.1890 O   0  0  0  0  0  0  0  0  0  0  0  0
    7.7305  -13.6096   24.6583 N   0  0  0  0  0  0  0  0  0  0  0  0
    6.3933  -13.2447   25.0501 C   0  0  0  0  0  0  0  0  0  0  0  0
    6.4557  -12.6639   26.4331 C   0  0  0  0  0  0  0  0  0  0  0  0
    7.8957  -12.2205   26.5558 C   0  0  0  0  0  0  0  0  0  0  0  0
    8.6045  -13.3194   25.7521 C   0  0  1  0  0  0  0  0  0  0  0  0
    8.7746  -14.4765   26.6725 C   0  0  0  0  0  0  0  0  0  0  0  0
    7.7837  -15.1554   27.0222 O   0  0  0  0  0  0  0  0  0  0  0  0
   10.5941  -17.8379   25.8382 N   0  0  0  0  0  0  0  0  0  0  0  0
   11.7341  -17.1122   26.2936 C   0  0  0  0  0  0  0  0  0  0  0  0
   12.6980  -17.0087   25.5184 O   0  0  0  0  0  0  0  0  0  0  0  0
   11.7044  -16.5294   27.6507 C   0  0  0  0  0  0  0  0  0  0  0  0
   10.3662  -15.9447   27.9493 C   0  0  2  0  0  0  0  0  0  0  0  0
   10.0566  -14.7893   27.1373 N   0  0  0  0  0  0  0  0  0  0  0  0
   10.1071  -15.7150   29.4048 C   0  0  0  0  0  0  0  0  0  0  0  0
   10.0540  -16.7638   30.2981 O   0  0  0  0  0  0  0  0  0  0  0  0
    9.9302  -14.5616   29.8719 O   0  0  0  0  0  0  0  0  0  0  0  0
  1  2  1  0
  2  3  1  0
  3  4  1  6
  5  3  1  0
  6  5  2  0
  7 11  1  0
  7  5  1  0
  8  7  1  0
  9 10  1  0
  9  8  1  0
 10 11  1  0
 11 12  1  1
 12 13  2  0
 12 19  1  0
 15 14  1  0
 15 17  1  0
 16 15  2  0
 18 17  1  1
 18 20  1  0
 19 18  1  0
 20 21  1  0
 22 20  2  0
M  END
$$$$
