SPN.pdb
     RDKit          3D

 22 22  0  0  1  0  0  0  0  0999 V2000
    7.3351  -17.1425   17.3590 O   0  0  0  0  0  0  0  0  0  0  0  0
    8.3166  -17.0213   16.3787 C   0  0  0  0  0  0  0  0  0  0  0  0
    8.9574  -15.6556   16.4144 C   0  0  2  0  0  0  0  0  0  0  0  0
    9.9641  -15.5916   15.3878 N   0  0  0  0  0  0  0  0  0  0  0  0
    9.5012  -15.3871   17.7693 C   0  0  0  0  0  0  0  0  0  0  0  0
   10.6276  -15.9536   18.0189 O   0  0  0  0  0  0  0  0  0  0  0  0
    8.8659  -14.5800   18.7391 N   0  0  0  0  0  0  0  0  0  0  0  0
    7.6180  -13.8824   18.5627 C   0  0  0  0  0  0  0  0  0  0  0  0
    7.3329  -13.1136   19.8204 C   0  0  0  0  0  0  0  0  0  0  0  0
    8.6980  -12.9710   20.4539 C   0  0  0  0  0  0  0  0  0  0  0  0
    9.3386  -14.3094   20.0611 C   0  0  1  0  0  0  0  0  0  0  0  0
    8.8687  -15.3132   21.0544 C   0  0  0  0  0  0  0  0  0  0  0  0
    7.8868  -16.0442   20.7965 O   0  0  0  0  0  0  0  0  0  0  0  0
   11.8224  -19.3771   21.5889 N   0  0  0  0  0  0  0  0  0  0  0  0
   12.1710  -18.0838   22.0782 C   0  0  0  0  0  0  0  0  0  0  0  0
   13.1350  -18.0032   22.8559 O   0  0  0  0  0  0  0  0  0  0  0  0
   11.3722  -16.9225   21.6359 C   0  0  0  0  0  0  0  0  0  0  0  0
   10.3496  -16.5601   22.6580 C   0  0  2  0  0  0  0  0  0  0  0  0
    9.5419  -15.4235   22.2760 N   0  0  0  0  0  0  0  0  0  0  0  0
   10.8858  -16.4469   24.0502 C   0  0  0  0  0  0  0  0  0  0  0  0
   11.6050  -15.3422   24.4540 O   0  0  0  0  0  0  0  0  0  0  0  0
   10.7017  -17.3488   24.9060 O   0  0  0  0  0  0  0  0  0  0  0  0
  1  2  1  0
  2  3  1  0
  3  4  1  6
  5  3  1  0
  6  5  2  0
  7 11  1  0
  7  5  1  0
  8  7  1  0
  9 10  1  0
  9  8  1  0
 10 11  1  0
 11 12  1  1
 12 13  2  0
 12 19  1  0
 15 14  1  0
 15 17  1  0
 16 15  2  0
 18 17  1  6
 18 20  1  0
 19 18  1  0
 20 21  1  0
 22 20  2  0
M  END
$$$$
