SPN.pdb
     RDKit          3D

 22 22  0  0  1  0  0  0  0  0999 V2000
    7.3334  -16.7492   17.2756 O   0  0  0  0  0  0  0  0  0  0  0  0
    7.8905  -15.8990   16.3238 C   0  0  0  0  0  0  0  0  0  0  0  0
    7.9743  -14.4834   16.8396 C   0  0  2  0  0  0  0  0  0  0  0  0
    8.4985  -13.6425   15.7956 N   0  0  0  0  0  0  0  0  0  0  0  0
    8.7952  -14.4430   18.0758 C   0  0  0  0  0  0  0  0  0  0  0  0
   10.0652  -14.4614   17.8791 O   0  0  0  0  0  0  0  0  0  0  0  0
    8.2658  -14.3882   19.3843 N   0  0  0  0  0  0  0  0  0  0  0  0
    6.8672  -14.4361   19.7259 C   0  0  0  0  0  0  0  0  0  0  0  0
    6.7476  -14.3052   21.2167 C   0  0  0  0  0  0  0  0  0  0  0  0
    8.0476  -13.6414   21.6096 C   0  0  0  0  0  0  0  0  0  0  0  0
    9.0121  -14.2768   20.5988 C   0  0  1  0  0  0  0  0  0  0  0  0
    9.4003  -15.6010   21.1564 C   0  0  0  0  0  0  0  0  0  0  0  0
    8.6764  -16.6031   20.9646 O   0  0  0  0  0  0  0  0  0  0  0  0
   14.2179  -18.5029   23.2106 N   0  0  0  0  0  0  0  0  0  0  0  0
   13.0545  -18.4753   22.3862 C   0  0  0  0  0  0  0  0  0  0  0  0
   12.5247  -19.5611   22.1019 O   0  0  0  0  0  0  0  0  0  0  0  0
   12.5496  -17.1673   21.9210 C   0  0  0  0  0  0  0  0  0  0  0  0
   11.1426  -16.9524   22.3636 C   0  0  2  0  0  0  0  0  0  0  0  0
   10.5838  -15.7039   21.8956 N   0  0  0  0  0  0  0  0  0  0  0  0
   10.9180  -17.1744   23.8260 C   0  0  0  0  0  0  0  0  0  0  0  0
   10.8087  -18.4449   24.3501 O   0  0  0  0  0  0  0  0  0  0  0  0
   10.8224  -16.2165   24.6342 O   0  0  0  0  0  0  0  0  0  0  0  0
  1  2  1  0
  2  3  1  0
  3  4  1  6
  5  3  1  0
  6  5  2  0
  7 11  1  0
  7  5  1  0
  8  7  1  0
  9 10  1  0
  9  8  1  0
 10 11  1  0
 11 12  1  1
 12 13  2  0
 12 19  1  0
 15 14  1  0
 15 17  1  0
 16 15  2  0
 18 17  1  1
 18 20  1  0
 19 18  1  0
 20 21  1  0
 22 20  2  0
M  END
$$$$
