DPY.pdb
     RDKit          3D

 28 29  0  0  1  0  0  0  0  0999 V2000
   11.3746  -16.0199   17.2654 N   0  0  0  0  0  0  0  0  0  0  0  0
   10.0344  -15.8422   17.7109 C   0  0  1  0  0  0  0  0  0  0  0  0
    9.2011  -17.0910   17.4451 C   0  0  0  0  0  0  0  0  0  0  0  0
    8.8640  -17.1025   16.0009 C   0  0  0  0  0  0  0  0  0  0  0  0
    9.3004  -16.2193   15.2477 O   0  0  0  0  0  0  0  0  0  0  0  0
    9.8652  -15.3523   19.0832 C   0  0  0  0  0  0  0  0  0  0  0  0
   10.8421  -15.5456   19.8964 O   0  0  0  0  0  0  0  0  0  0  0  0
    8.0560  -18.0913   15.4432 O   0  0  0  0  0  0  0  0  0  0  0  0
    8.7183  -14.6838   19.5934 N   0  0  0  0  0  0  0  0  0  0  0  0
    7.4858  -14.2832   18.9869 C   0  0  0  0  0  0  0  0  0  0  0  0
    7.2286  -12.9112   19.6290 C   0  0  0  0  0  0  0  0  0  0  0  0
    7.5141  -13.2456   21.0745 C   0  0  0  0  0  0  0  0  0  0  0  0
    8.6088  -14.2508   20.9808 C   0  0  1  0  0  0  0  0  0  0  0  0
    8.4314  -15.4140   21.8936 C   0  0  0  0  0  0  0  0  0  0  0  0
    7.7854  -16.4174   21.4975 O   0  0  0  0  0  0  0  0  0  0  0  0
    9.6758  -13.1456   29.4001 O   0  0  0  0  0  0  0  0  0  0  0  0
    9.7376  -14.0013   28.3248 C   0  0  0  0  0  0  0  0  0  0  0  0
   10.1349  -15.3131   28.5146 C   0  0  0  0  0  0  0  0  0  0  0  0
   10.1982  -16.1725   27.4423 C   0  0  0  0  0  0  0  0  0  0  0  0
    9.8745  -15.7821   26.1382 C   0  0  0  0  0  0  0  0  0  0  0  0
    9.9844  -16.7358   25.0171 C   0  0  0  0  0  0  0  0  0  0  0  0
    8.8364  -16.6280   24.0806 C   0  0  2  0  0  0  0  0  0  0  0  0
    8.9554  -15.4623   23.2078 N   0  0  0  0  0  0  0  0  0  0  0  0
    7.5656  -16.6583   24.7879 C   0  0  0  0  0  0  0  0  0  0  0  0
    7.2566  -17.6689   25.5085 O   0  0  0  0  0  0  0  0  0  0  0  0
    9.4814  -14.4645   25.9835 C   0  0  0  0  0  0  0  0  0  0  0  0
    9.4167  -13.6027   27.0515 C   0  0  0  0  0  0  0  0  0  0  0  0
    6.6234  -15.6551   24.7551 O   0  0  0  0  0  0  0  0  0  0  0  0
  2  1  1  1
  2  6  1  0
  3  2  1  0
  3  4  1  0
  4  5  2  0
  6  9  1  0
  7  6  2  0
  8  4  1  0
  9 13  1  0
  9 10  1  0
 10 11  1  0
 11 12  1  0
 13 12  1  0
 13 14  1  1
 14 23  1  0
 15 14  2  0
 16 17  1  0
 17 27  2  0
 18 17  1  0
 18 19  2  0
 19 20  1  0
 20 26  2  0
 20 21  1  0
 22 21  1  1
 22 23  1  0
 22 24  1  0
 24 28  1  0
 25 24  2  0
 27 26  1  0
M  END
$$$$
