DPY.pdb
     RDKit          3D

 28 29  0  0  1  0  0  0  0  0999 V2000
    9.6831  -18.0067   18.0103 N   0  0  0  0  0  0  0  0  0  0  0  0
    8.6953  -17.2105   18.6556 C   0  0  1  0  0  0  0  0  0  0  0  0
    7.4985  -18.0582   19.0725 C   0  0  0  0  0  0  0  0  0  0  0  0
    7.0094  -18.7637   17.8632 C   0  0  0  0  0  0  0  0  0  0  0  0
    7.4671  -18.4837   16.7452 O   0  0  0  0  0  0  0  0  0  0  0  0
    9.1648  -16.3506   19.7473 C   0  0  0  0  0  0  0  0  0  0  0  0
   10.2174  -16.7321   20.3791 O   0  0  0  0  0  0  0  0  0  0  0  0
    6.0314  -19.7536   17.9356 O   0  0  0  0  0  0  0  0  0  0  0  0
    8.5598  -15.1345   20.1686 N   0  0  0  0  0  0  0  0  0  0  0  0
    7.3954  -14.4316   19.7241 C   0  0  0  0  0  0  0  0  0  0  0  0
    7.8461  -12.9642   19.7902 C   0  0  0  0  0  0  0  0  0  0  0  0
    8.5009  -12.9568   21.1517 C   0  0  0  0  0  0  0  0  0  0  0  0
    9.0984  -14.3174   21.2487 C   0  0  1  0  0  0  0  0  0  0  0  0
    8.8880  -14.9692   22.5711 C   0  0  0  0  0  0  0  0  0  0  0  0
    7.9135  -15.7482   22.7278 O   0  0  0  0  0  0  0  0  0  0  0  0
    5.5558  -10.7452   26.5228 O   0  0  0  0  0  0  0  0  0  0  0  0
    6.1546  -11.9461   26.2195 C   0  0  0  0  0  0  0  0  0  0  0  0
    7.5104  -12.1115   26.4418 C   0  0  0  0  0  0  0  0  0  0  0  0
    8.1135  -13.3105   26.1401 C   0  0  0  0  0  0  0  0  0  0  0  0
    7.4128  -14.3984   25.6077 C   0  0  0  0  0  0  0  0  0  0  0  0
    8.1118  -15.6553   25.2761 C   0  0  0  0  0  0  0  0  0  0  0  0
    9.5486  -15.4296   24.9736 C   0  0  2  0  0  0  0  0  0  0  0  0
    9.7342  -14.7627   23.6869 N   0  0  0  0  0  0  0  0  0  0  0  0
   10.3146  -16.6625   25.0698 C   0  0  0  0  0  0  0  0  0  0  0  0
   11.0338  -17.0492   24.0855 O   0  0  0  0  0  0  0  0  0  0  0  0
    6.0597  -14.1995   25.3978 C   0  0  0  0  0  0  0  0  0  0  0  0
    5.4531  -13.0038   25.6976 C   0  0  0  0  0  0  0  0  0  0  0  0
   10.3409  -17.4877   26.1714 O   0  0  0  0  0  0  0  0  0  0  0  0
  2  1  1  1
  2  6  1  0
  3  2  1  0
  3  4  1  0
  4  5  2  0
  6  9  1  0
  7  6  2  0
  8  4  1  0
  9 13  1  0
  9 10  1  0
 10 11  1  0
 11 12  1  0
 13 12  1  0
 13 14  1  1
 14 23  1  0
 15 14  2  0
 16 17  1  0
 17 27  2  0
 18 17  1  0
 18 19  2  0
 19 20  1  0
 20 26  2  0
 20 21  1  0
 22 21  1  6
 22 23  1  0
 22 24  1  0
 24 28  1  0
 25 24  2  0
 27 26  1  0
M  END
$$$$
