DPY.pdb
     RDKit          3D

 28 29  0  0  1  0  0  0  0  0999 V2000
   10.5004  -16.7632   17.6718 N   0  0  0  0  0  0  0  0  0  0  0  0
    9.3093  -16.7629   18.4510 C   0  0  1  0  0  0  0  0  0  0  0  0
    8.6661  -18.1452   18.4649 C   0  0  0  0  0  0  0  0  0  0  0  0
    8.2617  -18.4624   17.0737 C   0  0  0  0  0  0  0  0  0  0  0  0
    7.9504  -17.5545   16.2883 O   0  0  0  0  0  0  0  0  0  0  0  0
    9.4144  -16.1938   19.7989 C   0  0  0  0  0  0  0  0  0  0  0  0
   10.5529  -16.2944   20.3876 O   0  0  0  0  0  0  0  0  0  0  0  0
    8.2166  -19.7729   16.6027 O   0  0  0  0  0  0  0  0  0  0  0  0
    8.3705  -15.5419   20.5115 N   0  0  0  0  0  0  0  0  0  0  0  0
    7.0247  -15.2071   20.1590 C   0  0  0  0  0  0  0  0  0  0  0  0
    6.8495  -13.8184   20.7927 C   0  0  0  0  0  0  0  0  0  0  0  0
    7.4385  -14.0823   22.1588 C   0  0  0  0  0  0  0  0  0  0  0  0
    8.5304  -15.0547   21.8758 C   0  0  1  0  0  0  0  0  0  0  0  0
    8.5909  -16.1835   22.8452 C   0  0  0  0  0  0  0  0  0  0  0  0
    7.9332  -17.2304   22.6163 O   0  0  0  0  0  0  0  0  0  0  0  0
    9.9119  -13.1815   29.7212 O   0  0  0  0  0  0  0  0  0  0  0  0
   10.1169  -14.1625   28.7789 C   0  0  0  0  0  0  0  0  0  0  0  0
   10.4760  -13.8105   27.4897 C   0  0  0  0  0  0  0  0  0  0  0  0
   10.6821  -14.7881   26.5440 C   0  0  0  0  0  0  0  0  0  0  0  0
   10.5448  -16.1525   26.8223 C   0  0  0  0  0  0  0  0  0  0  0  0
   10.7511  -17.1614   25.7650 C   0  0  0  0  0  0  0  0  0  0  0  0
    9.5535  -17.3128   24.8992 C   0  0  2  0  0  0  0  0  0  0  0  0
    9.3588  -16.1516   24.0340 N   0  0  0  0  0  0  0  0  0  0  0  0
    8.3659  -17.6224   25.6801 C   0  0  0  0  0  0  0  0  0  0  0  0
    8.3344  -18.6714   26.4112 O   0  0  0  0  0  0  0  0  0  0  0  0
   10.1849  -16.4698   28.1201 C   0  0  0  0  0  0  0  0  0  0  0  0
    9.9781  -15.4969   29.0678 C   0  0  0  0  0  0  0  0  0  0  0  0
    7.2223  -16.8565   25.7091 O   0  0  0  0  0  0  0  0  0  0  0  0
  2  1  1  1
  2  6  1  0
  3  2  1  0
  3  4  1  0
  4  5  2  0
  6  9  1  0
  7  6  2  0
  8  4  1  0
  9 13  1  0
  9 10  1  0
 10 11  1  0
 11 12  1  0
 13 12  1  0
 13 14  1  1
 14 23  1  0
 15 14  2  0
 16 17  1  0
 17 27  2  0
 18 17  1  0
 18 19  2  0
 19 20  1  0
 20 26  2  0
 20 21  1  0
 22 21  1  1
 22 23  1  0
 22 24  1  0
 24 28  1  0
 25 24  2  0
 27 26  1  0
M  END
$$$$
