DPY.pdb
     RDKit          3D

 28 29  0  0  1  0  0  0  0  0999 V2000
    7.8438  -17.8873   19.2422 N   0  0  0  0  0  0  0  0  0  0  0  0
    9.1250  -17.7950   19.8554 C   0  0  1  0  0  0  0  0  0  0  0  0
   10.2349  -18.0416   18.8396 C   0  0  0  0  0  0  0  0  0  0  0  0
   10.0454  -19.4081   18.2955 C   0  0  0  0  0  0  0  0  0  0  0  0
   10.6547  -20.3695   18.7878 O   0  0  0  0  0  0  0  0  0  0  0  0
    9.3755  -16.5946   20.6603 C   0  0  0  0  0  0  0  0  0  0  0  0
   10.5058  -16.5255   21.2690 O   0  0  0  0  0  0  0  0  0  0  0  0
    9.1885  -19.6606   17.2262 O   0  0  0  0  0  0  0  0  0  0  0  0
    8.4804  -15.5022   20.8274 N   0  0  0  0  0  0  0  0  0  0  0  0
    7.2779  -15.1276   20.1481 C   0  0  0  0  0  0  0  0  0  0  0  0
    7.4068  -13.5991   20.0601 C   0  0  0  0  0  0  0  0  0  0  0  0
    7.8345  -13.2946   21.4769 C   0  0  0  0  0  0  0  0  0  0  0  0
    8.6738  -14.4704   21.8385 C   0  0  1  0  0  0  0  0  0  0  0  0
    8.4036  -14.9997   23.2040 C   0  0  0  0  0  0  0  0  0  0  0  0
    7.3543  -14.6540   23.8042 O   0  0  0  0  0  0  0  0  0  0  0  0
    5.5389  -11.1697   26.8745 O   0  0  0  0  0  0  0  0  0  0  0  0
    6.2551  -12.3333   26.7146 C   0  0  0  0  0  0  0  0  0  0  0  0
    7.5990  -12.3617   27.0432 C   0  0  0  0  0  0  0  0  0  0  0  0
    8.3192  -13.5230   26.8851 C   0  0  0  0  0  0  0  0  0  0  0  0
    7.7522  -14.7059   26.3981 C   0  0  0  0  0  0  0  0  0  0  0  0
    8.5748  -15.9187   26.2217 C   0  0  0  0  0  0  0  0  0  0  0  0
    9.6939  -15.6982   25.2699 C   0  0  2  0  0  0  0  0  0  0  0  0
    9.2726  -15.8868   23.8836 N   0  0  0  0  0  0  0  0  0  0  0  0
   10.8511  -16.5117   25.6088 C   0  0  0  0  0  0  0  0  0  0  0  0
   11.3068  -16.5125   26.8040 O   0  0  0  0  0  0  0  0  0  0  0  0
    6.4073  -14.6431   26.0792 C   0  0  0  0  0  0  0  0  0  0  0  0
    5.6841  -13.4855   26.2355 C   0  0  0  0  0  0  0  0  0  0  0  0
   11.5308  -17.3189   24.7248 O   0  0  0  0  0  0  0  0  0  0  0  0
  2  1  1  6
  2  6  1  0
  3  2  1  0
  3  4  1  0
  4  5  2  0
  6  9  1  0
  7  6  2  0
  8  4  1  0
  9 13  1  0
  9 10  1  0
 10 11  1  0
 11 12  1  0
 13 12  1  0
 13 14  1  1
 14 23  1  0
 15 14  2  0
 16 17  1  0
 17 27  2  0
 18 17  1  0
 18 19  2  0
 19 20  1  0
 20 26  2  0
 20 21  1  0
 22 21  1  1
 22 23  1  0
 22 24  1  0
 24 28  1  0
 25 24  2  0
 27 26  1  0
M  END
$$$$
