DPY.pdb
     RDKit          3D

 28 29  0  0  1  0  0  0  0  0999 V2000
   11.4812  -17.1966   18.3982 N   0  0  0  0  0  0  0  0  0  0  0  0
   10.1135  -17.0629   18.7689 C   0  0  1  0  0  0  0  0  0  0  0  0
    9.4468  -18.4282   18.8956 C   0  0  0  0  0  0  0  0  0  0  0  0
    9.3225  -18.9919   17.5296 C   0  0  0  0  0  0  0  0  0  0  0  0
    9.6908  -18.3354   16.5440 O   0  0  0  0  0  0  0  0  0  0  0  0
    9.8346  -16.2071   19.9271 C   0  0  0  0  0  0  0  0  0  0  0  0
   10.7718  -16.0801   20.7980 O   0  0  0  0  0  0  0  0  0  0  0  0
    8.7952  -20.2618   17.3042 O   0  0  0  0  0  0  0  0  0  0  0  0
    8.6214  -15.5067   20.1723 N   0  0  0  0  0  0  0  0  0  0  0  0
    7.4256  -15.3496   19.4023 C   0  0  0  0  0  0  0  0  0  0  0  0
    7.0561  -13.8799   19.6560 C   0  0  0  0  0  0  0  0  0  0  0  0
    7.2378  -13.8236   21.1548 C   0  0  0  0  0  0  0  0  0  0  0  0
    8.3802  -14.7487   21.3935 C   0  0  1  0  0  0  0  0  0  0  0  0
    8.1811  -15.6556   22.5578 C   0  0  0  0  0  0  0  0  0  0  0  0
    7.8278  -16.8461   22.3603 O   0  0  0  0  0  0  0  0  0  0  0  0
    5.5317  -10.6291   26.8230 O   0  0  0  0  0  0  0  0  0  0  0  0
    6.2255  -11.8120   26.7145 C   0  0  0  0  0  0  0  0  0  0  0  0
    7.5800  -11.7889   26.4322 C   0  0  0  0  0  0  0  0  0  0  0  0
    8.2780  -12.9692   26.3227 C   0  0  0  0  0  0  0  0  0  0  0  0
    7.6775  -14.2225   26.4854 C   0  0  0  0  0  0  0  0  0  0  0  0
    8.4653  -15.4610   26.3314 C   0  0  0  0  0  0  0  0  0  0  0  0
    8.1803  -16.1451   25.0439 C   0  0  2  0  0  0  0  0  0  0  0  0
    8.3686  -15.2533   23.9020 N   0  0  0  0  0  0  0  0  0  0  0  0
    6.8636  -16.7634   25.0479 C   0  0  0  0  0  0  0  0  0  0  0  0
    6.6069  -17.7204   25.8568 O   0  0  0  0  0  0  0  0  0  0  0  0
    6.3227  -14.2099   26.7666 C   0  0  0  0  0  0  0  0  0  0  0  0
    5.6217  -13.0335   26.8769 C   0  0  0  0  0  0  0  0  0  0  0  0
    5.8205  -16.3970   24.2277 O   0  0  0  0  0  0  0  0  0  0  0  0
  2  1  1  1
  2  6  1  0
  3  2  1  0
  3  4  1  0
  4  5  2  0
  6  9  1  0
  7  6  2  0
  8  4  1  0
  9 13  1  0
  9 10  1  0
 10 11  1  0
 11 12  1  0
 13 12  1  0
 13 14  1  1
 14 23  1  0
 15 14  2  0
 16 17  1  0
 17 27  2  0
 18 17  1  0
 18 19  2  0
 19 20  1  0
 20 26  2  0
 20 21  1  0
 22 21  1  1
 22 23  1  0
 22 24  1  0
 24 28  1  0
 25 24  2  0
 27 26  1  0
M  END
$$$$
