DPY.pdb
     RDKit          3D

 28 29  0  0  1  0  0  0  0  0999 V2000
   12.1507  -13.4817   19.8059 N   0  0  0  0  0  0  0  0  0  0  0  0
   11.3511  -14.6523   19.9341 C   0  0  1  0  0  0  0  0  0  0  0  0
   12.2225  -15.8952   20.0770 C   0  0  0  0  0  0  0  0  0  0  0  0
   13.1009  -15.9630   18.8840 C   0  0  0  0  0  0  0  0  0  0  0  0
   12.6268  -16.2324   17.7702 O   0  0  0  0  0  0  0  0  0  0  0  0
   10.2904  -14.6073   20.9464 C   0  0  0  0  0  0  0  0  0  0  0  0
   10.5738  -14.0375   22.0635 O   0  0  0  0  0  0  0  0  0  0  0  0
   14.4721  -15.7300   18.9673 O   0  0  0  0  0  0  0  0  0  0  0  0
    8.9787  -15.1373   20.8023 N   0  0  0  0  0  0  0  0  0  0  0  0
    8.3410  -15.8603   19.7449 C   0  0  0  0  0  0  0  0  0  0  0  0
    6.9260  -15.2614   19.7373 C   0  0  0  0  0  0  0  0  0  0  0  0
    6.6296  -15.2820   21.2187 C   0  0  0  0  0  0  0  0  0  0  0  0
    7.9577  -15.0098   21.8347 C   0  0  1  0  0  0  0  0  0  0  0  0
    8.2641  -15.8810   23.0030 C   0  0  0  0  0  0  0  0  0  0  0  0
    9.1260  -16.7891   22.8875 O   0  0  0  0  0  0  0  0  0  0  0  0
    6.5860  -10.4939   26.7464 O   0  0  0  0  0  0  0  0  0  0  0  0
    6.7739  -11.8564   26.7172 C   0  0  0  0  0  0  0  0  0  0  0  0
    5.6799  -12.6972   26.6115 C   0  0  0  0  0  0  0  0  0  0  0  0
    5.8629  -14.0603   26.5819 C   0  0  0  0  0  0  0  0  0  0  0  0
    7.1265  -14.6569   26.6547 C   0  0  0  0  0  0  0  0  0  0  0  0
    7.2675  -16.1261   26.6459 C   0  0  0  0  0  0  0  0  0  0  0  0
    7.9194  -16.6148   25.4037 C   0  0  2  0  0  0  0  0  0  0  0  0
    7.6323  -15.7483   24.2629 N   0  0  0  0  0  0  0  0  0  0  0  0
    7.5849  -18.0051   25.1366 C   0  0  0  0  0  0  0  0  0  0  0  0
    7.9634  -18.9223   25.9437 O   0  0  0  0  0  0  0  0  0  0  0  0
    8.1982  -13.7881   26.7598 C   0  0  0  0  0  0  0  0  0  0  0  0
    8.0202  -12.4262   26.7897 C   0  0  0  0  0  0  0  0  0  0  0  0
    6.8647  -18.4455   24.0493 O   0  0  0  0  0  0  0  0  0  0  0  0
  2  1  1  1
  2  6  1  0
  3  2  1  0
  3  4  1  0
  4  5  2  0
  6  9  1  0
  7  6  2  0
  8  4  1  0
  9 13  1  0
  9 10  1  0
 10 11  1  0
 11 12  1  0
 13 12  1  0
 13 14  1  1
 14 23  1  0
 15 14  2  0
 16 17  1  0
 17 27  2  0
 18 17  1  0
 18 19  2  0
 19 20  1  0
 20 26  2  0
 20 21  1  0
 22 21  1  1
 22 23  1  0
 22 24  1  0
 24 28  1  0
 25 24  2  0
 27 26  1  0
M  END
$$$$
