DPY.pdb
     RDKit          3D

 28 29  0  0  1  0  0  0  0  0999 V2000
    8.0074  -18.4658   18.1617 N   0  0  0  0  0  0  0  0  0  0  0  0
    7.5246  -17.9917   19.4140 C   0  0  1  0  0  0  0  0  0  0  0  0
    7.2333  -19.1509   20.3606 C   0  0  0  0  0  0  0  0  0  0  0  0
    6.3290  -20.0885   19.6517 C   0  0  0  0  0  0  0  0  0  0  0  0
    5.2869  -19.6750   19.1216 O   0  0  0  0  0  0  0  0  0  0  0  0
    8.3185  -16.9418   20.0614 C   0  0  0  0  0  0  0  0  0  0  0  0
    9.5959  -17.0148   19.9356 O   0  0  0  0  0  0  0  0  0  0  0  0
    6.6111  -21.4496   19.5554 O   0  0  0  0  0  0  0  0  0  0  0  0
    7.8017  -15.8520   20.8150 N   0  0  0  0  0  0  0  0  0  0  0  0
    6.4673  -15.4054   21.0745 C   0  0  0  0  0  0  0  0  0  0  0  0
    6.6074  -13.8769   21.0037 C   0  0  0  0  0  0  0  0  0  0  0  0
    7.8525  -13.6933   21.8396 C   0  0  0  0  0  0  0  0  0  0  0  0
    8.6552  -14.9075   21.5246 C   0  0  1  0  0  0  0  0  0  0  0  0
    9.2765  -15.5397   22.7213 C   0  0  0  0  0  0  0  0  0  0  0  0
    8.7768  -16.5924   23.1935 O   0  0  0  0  0  0  0  0  0  0  0  0
   10.3129  -15.3410   31.1954 O   0  0  0  0  0  0  0  0  0  0  0  0
   10.1155  -15.2103   29.8402 C   0  0  0  0  0  0  0  0  0  0  0  0
   10.4107  -14.0106   29.2169 C   0  0  0  0  0  0  0  0  0  0  0  0
   10.2149  -13.8753   27.8620 C   0  0  0  0  0  0  0  0  0  0  0  0
    9.7213  -14.9107   27.0606 C   0  0  0  0  0  0  0  0  0  0  0  0
    9.5038  -14.7063   25.6152 C   0  0  0  0  0  0  0  0  0  0  0  0
   10.6639  -15.1639   24.8080 C   0  0  2  0  0  0  0  0  0  0  0  0
   10.4191  -15.0190   23.3749 N   0  0  0  0  0  0  0  0  0  0  0  0
   11.0616  -16.5171   25.1641 C   0  0  0  0  0  0  0  0  0  0  0  0
   10.2612  -17.2694   25.8194 O   0  0  0  0  0  0  0  0  0  0  0  0
    9.4364  -16.0961   27.7150 C   0  0  0  0  0  0  0  0  0  0  0  0
    9.6304  -16.2358   29.0679 C   0  0  0  0  0  0  0  0  0  0  0  0
   12.2720  -17.0904   24.8456 O   0  0  0  0  0  0  0  0  0  0  0  0
  2  1  1  6
  2  6  1  0
  3  2  1  0
  3  4  1  0
  4  5  2  0
  6  9  1  0
  7  6  2  0
  8  4  1  0
  9 13  1  0
  9 10  1  0
 10 11  1  0
 11 12  1  0
 13 12  1  0
 13 14  1  1
 14 23  1  0
 15 14  2  0
 16 17  1  0
 17 27  2  0
 18 17  1  0
 18 19  2  0
 19 20  1  0
 20 26  2  0
 20 21  1  0
 22 21  1  1
 22 23  1  0
 22 24  1  0
 24 28  1  0
 25 24  2  0
 27 26  1  0
M  END
$$$$
