DPY.pdb
     RDKit          3D

 28 29  0  0  1  0  0  0  0  0999 V2000
   10.4383  -16.8475   17.7792 N   0  0  0  0  0  0  0  0  0  0  0  0
    9.4689  -17.0688   18.7976 C   0  0  1  0  0  0  0  0  0  0  0  0
    9.2271  -18.5598   19.0057 C   0  0  0  0  0  0  0  0  0  0  0  0
    8.8752  -19.1422   17.6880 C   0  0  0  0  0  0  0  0  0  0  0  0
    8.9804  -20.3624   17.4931 O   0  0  0  0  0  0  0  0  0  0  0  0
    9.6876  -16.3667   20.0668 C   0  0  0  0  0  0  0  0  0  0  0  0
   10.8956  -16.0252   20.3442 O   0  0  0  0  0  0  0  0  0  0  0  0
    8.4197  -18.3528   16.6341 O   0  0  0  0  0  0  0  0  0  0  0  0
    8.6837  -16.0310   21.0167 N   0  0  0  0  0  0  0  0  0  0  0  0
    7.2601  -16.1753   21.0075 C   0  0  0  0  0  0  0  0  0  0  0  0
    6.7885  -14.8713   21.6693 C   0  0  0  0  0  0  0  0  0  0  0  0
    7.7333  -14.8238   22.8474 C   0  0  0  0  0  0  0  0  0  0  0  0
    8.9872  -15.4128   22.3012 C   0  0  1  0  0  0  0  0  0  0  0  0
    9.6422  -16.3826   23.2222 C   0  0  0  0  0  0  0  0  0  0  0  0
    9.3918  -17.6094   23.1075 O   0  0  0  0  0  0  0  0  0  0  0  0
    9.2203  -13.6582   30.1265 O   0  0  0  0  0  0  0  0  0  0  0  0
    9.9428  -14.3087   29.1533 C   0  0  0  0  0  0  0  0  0  0  0  0
   10.1539  -13.6953   27.9310 C   0  0  0  0  0  0  0  0  0  0  0  0
   10.8759  -14.3419   26.9548 C   0  0  0  0  0  0  0  0  0  0  0  0
   11.4217  -15.6175   27.1356 C   0  0  0  0  0  0  0  0  0  0  0  0
   12.1661  -16.2797   26.0466 C   0  0  0  0  0  0  0  0  0  0  0  0
   11.2593  -16.9590   25.0858 C   0  0  2  0  0  0  0  0  0  0  0  0
   10.5486  -16.0021   24.2408 N   0  0  0  0  0  0  0  0  0  0  0  0
   10.3537  -17.8745   25.7623 C   0  0  0  0  0  0  0  0  0  0  0  0
   10.8153  -18.9000   26.3716 O   0  0  0  0  0  0  0  0  0  0  0  0
   11.1921  -16.2023   28.3685 C   0  0  0  0  0  0  0  0  0  0  0  0
   10.4717  -15.5602   29.3463 C   0  0  0  0  0  0  0  0  0  0  0  0
    8.9853  -17.7328   25.8126 O   0  0  0  0  0  0  0  0  0  0  0  0
  2  1  1  6
  2  6  1  0
  3  2  1  0
  3  4  1  0
  4  5  2  0
  6  9  1  0
  7  6  2  0
  8  4  1  0
  9 13  1  0
  9 10  1  0
 10 11  1  0
 11 12  1  0
 13 12  1  0
 13 14  1  1
 14 23  1  0
 15 14  2  0
 16 17  1  0
 17 27  2  0
 18 17  1  0
 18 19  2  0
 19 20  1  0
 20 26  2  0
 20 21  1  0
 22 21  1  1
 22 23  1  0
 22 24  1  0
 24 28  1  0
 25 24  2  0
 27 26  1  0
M  END
$$$$
