DPY.pdb
     RDKit          3D

 28 29  0  0  1  0  0  0  0  0999 V2000
    8.7793  -18.2388   18.0541 N   0  0  0  0  0  0  0  0  0  0  0  0
    8.0351  -17.5091   19.0235 C   0  0  1  0  0  0  0  0  0  0  0  0
    7.4576  -18.4414   20.0827 C   0  0  0  0  0  0  0  0  0  0  0  0
    6.4719  -19.3227   19.4110 C   0  0  0  0  0  0  0  0  0  0  0  0
    6.8536  -20.2854   18.7287 O   0  0  0  0  0  0  0  0  0  0  0  0
    8.7066  -16.3500   19.6210 C   0  0  0  0  0  0  0  0  0  0  0  0
    9.9218  -16.5146   20.0072 O   0  0  0  0  0  0  0  0  0  0  0  0
    5.0997  -19.1062   19.5189 O   0  0  0  0  0  0  0  0  0  0  0  0
    8.1338  -15.0622   19.8112 N   0  0  0  0  0  0  0  0  0  0  0  0
    6.8936  -14.4862   19.3897 C   0  0  0  0  0  0  0  0  0  0  0  0
    7.3020  -13.0534   19.0141 C   0  0  0  0  0  0  0  0  0  0  0  0
    8.1548  -12.7061   20.2120 C   0  0  0  0  0  0  0  0  0  0  0  0
    8.8033  -14.0022   20.5545 C   0  0  1  0  0  0  0  0  0  0  0  0
    8.8164  -14.2961   22.0143 C   0  0  0  0  0  0  0  0  0  0  0  0
    7.8963  -13.8459   22.7435 O   0  0  0  0  0  0  0  0  0  0  0  0
   10.2992  -15.3798   30.4215 O   0  0  0  0  0  0  0  0  0  0  0  0
    9.9602  -15.3210   29.0896 C   0  0  0  0  0  0  0  0  0  0  0  0
    9.9262  -16.4830   28.3389 C   0  0  0  0  0  0  0  0  0  0  0  0
    9.5877  -16.4292   27.0067 C   0  0  0  0  0  0  0  0  0  0  0  0
    9.2680  -15.2336   26.3538 C   0  0  0  0  0  0  0  0  0  0  0  0
    8.9372  -15.2259   24.9154 C   0  0  0  0  0  0  0  0  0  0  0  0
   10.1328  -14.9726   24.0710 C   0  0  2  0  0  0  0  0  0  0  0  0
    9.8214  -15.0669   22.6466 N   0  0  0  0  0  0  0  0  0  0  0  0
   11.2450  -15.8306   24.4491 C   0  0  0  0  0  0  0  0  0  0  0  0
   11.7716  -15.7240   25.6097 O   0  0  0  0  0  0  0  0  0  0  0  0
    9.3117  -14.0910   27.1329 C   0  0  0  0  0  0  0  0  0  0  0  0
    9.6492  -14.1400   28.4637 C   0  0  0  0  0  0  0  0  0  0  0  0
   11.8072  -16.7915   23.6393 O   0  0  0  0  0  0  0  0  0  0  0  0
  2  1  1  1
  2  6  1  0
  3  2  1  0
  3  4  1  0
  4  5  2  0
  6  9  1  0
  7  6  2  0
  8  4  1  0
  9 13  1  0
  9 10  1  0
 10 11  1  0
 11 12  1  0
 13 12  1  0
 13 14  1  1
 14 23  1  0
 15 14  2  0
 16 17  1  0
 17 27  2  0
 18 17  1  0
 18 19  2  0
 19 20  1  0
 20 26  2  0
 20 21  1  0
 22 21  1  1
 22 23  1  0
 22 24  1  0
 24 28  1  0
 25 24  2  0
 27 26  1  0
M  END
$$$$
