DPY.pdb
     RDKit          3D

 28 29  0  0  1  0  0  0  0  0999 V2000
   11.3743  -16.9272   18.4707 N   0  0  0  0  0  0  0  0  0  0  0  0
   10.0254  -16.5721   18.7544 C   0  0  1  0  0  0  0  0  0  0  0  0
    9.0762  -17.7136   18.4072 C   0  0  0  0  0  0  0  0  0  0  0  0
    9.2054  -17.9738   16.9529 C   0  0  0  0  0  0  0  0  0  0  0  0
    9.9033  -18.9134   16.5431 O   0  0  0  0  0  0  0  0  0  0  0  0
    9.7637  -16.0292   20.0917 C   0  0  0  0  0  0  0  0  0  0  0  0
   10.6555  -16.2426   20.9929 O   0  0  0  0  0  0  0  0  0  0  0  0
    8.5573  -17.1843   16.0051 O   0  0  0  0  0  0  0  0  0  0  0  0
    8.6128  -15.2893   20.4797 N   0  0  0  0  0  0  0  0  0  0  0  0
    7.4831  -14.8074   19.7456 C   0  0  0  0  0  0  0  0  0  0  0  0
    7.2452  -13.4237   20.3697 C   0  0  0  0  0  0  0  0  0  0  0  0
    7.3473  -13.7807   21.8343 C   0  0  0  0  0  0  0  0  0  0  0  0
    8.3789  -14.8546   21.8510 C   0  0  1  0  0  0  0  0  0  0  0  0
    8.0274  -16.0067   22.7267 C   0  0  0  0  0  0  0  0  0  0  0  0
    7.6227  -17.0774   22.2063 O   0  0  0  0  0  0  0  0  0  0  0  0
    9.7959  -13.3756   29.7845 O   0  0  0  0  0  0  0  0  0  0  0  0
    9.6648  -14.3576   28.8301 C   0  0  0  0  0  0  0  0  0  0  0  0
   10.1692  -14.1495   27.5585 C   0  0  0  0  0  0  0  0  0  0  0  0
   10.0404  -15.1287   26.6008 C   0  0  0  0  0  0  0  0  0  0  0  0
    9.4116  -16.3537   26.8495 C   0  0  0  0  0  0  0  0  0  0  0  0
    9.2755  -17.3614   25.7798 C   0  0  0  0  0  0  0  0  0  0  0  0
    8.0384  -17.1620   24.9819 C   0  0  2  0  0  0  0  0  0  0  0  0
    8.1222  -15.9717   24.1387 N   0  0  0  0  0  0  0  0  0  0  0  0
    6.8538  -17.1560   25.8261 C   0  0  0  0  0  0  0  0  0  0  0  0
    6.0986  -16.1244   25.8642 O   0  0  0  0  0  0  0  0  0  0  0  0
    8.9188  -16.5293   28.1305 C   0  0  0  0  0  0  0  0  0  0  0  0
    9.0451  -15.5542   29.0900 C   0  0  0  0  0  0  0  0  0  0  0  0
    6.4499  -18.2045   26.6214 O   0  0  0  0  0  0  0  0  0  0  0  0
  2  1  1  1
  2  6  1  0
  3  2  1  0
  3  4  1  0
  4  5  2  0
  6  9  1  0
  7  6  2  0
  8  4  1  0
  9 13  1  0
  9 10  1  0
 10 11  1  0
 11 12  1  0
 13 12  1  0
 13 14  1  1
 14 23  1  0
 15 14  2  0
 16 17  1  0
 17 27  2  0
 18 17  1  0
 18 19  2  0
 19 20  1  0
 20 26  2  0
 20 21  1  0
 22 21  1  1
 22 23  1  0
 22 24  1  0
 24 28  1  0
 25 24  2  0
 27 26  1  0
M  END
$$$$
