DPY.pdb
     RDKit          3D

 28 29  0  0  1  0  0  0  0  0999 V2000
    8.1514  -18.3159   18.4941 N   0  0  0  0  0  0  0  0  0  0  0  0
    7.5247  -17.3304   19.3079 C   0  0  1  0  0  0  0  0  0  0  0  0
    6.5252  -17.9692   20.2657 C   0  0  0  0  0  0  0  0  0  0  0  0
    5.5998  -18.7985   19.4562 C   0  0  0  0  0  0  0  0  0  0  0  0
    4.6725  -19.4167   20.0001 O   0  0  0  0  0  0  0  0  0  0  0  0
    8.4177  -16.3905   19.9941 C   0  0  0  0  0  0  0  0  0  0  0  0
    9.5374  -16.8557   20.4217 O   0  0  0  0  0  0  0  0  0  0  0  0
    5.7347  -18.9133   18.0741 O   0  0  0  0  0  0  0  0  0  0  0  0
    8.1552  -15.0126   20.2286 N   0  0  0  0  0  0  0  0  0  0  0  0
    7.1063  -14.1425   19.7925 C   0  0  0  0  0  0  0  0  0  0  0  0
    7.8571  -12.8331   19.5049 C   0  0  0  0  0  0  0  0  0  0  0  0
    8.7104  -12.7468   20.7487 C   0  0  0  0  0  0  0  0  0  0  0  0
    9.0194  -14.1725   21.0482 C   0  0  1  0  0  0  0  0  0  0  0  0
    8.8946  -14.5204   22.4909 C   0  0  0  0  0  0  0  0  0  0  0  0
    7.8245  -14.2619   23.0984 O   0  0  0  0  0  0  0  0  0  0  0  0
    5.7427  -11.2506   27.2182 O   0  0  0  0  0  0  0  0  0  0  0  0
    6.3865  -12.3521   26.7036 C   0  0  0  0  0  0  0  0  0  0  0  0
    7.7510  -12.4949   26.8838 C   0  0  0  0  0  0  0  0  0  0  0  0
    8.3991  -13.5947   26.3711 C   0  0  0  0  0  0  0  0  0  0  0  0
    7.7366  -14.6012   25.6598 C   0  0  0  0  0  0  0  0  0  0  0  0
    8.4825  -15.7485   25.1067 C   0  0  0  0  0  0  0  0  0  0  0  0
    9.8528  -15.3668   24.6785 C   0  0  2  0  0  0  0  0  0  0  0  0
    9.9271  -15.1370   23.2375 N   0  0  0  0  0  0  0  0  0  0  0  0
   10.8424  -16.3309   25.1337 C   0  0  0  0  0  0  0  0  0  0  0  0
   11.5506  -16.9729   24.2839 O   0  0  0  0  0  0  0  0  0  0  0  0
    6.3735  -14.4276   25.4976 C   0  0  0  0  0  0  0  0  0  0  0  0
    5.7221  -13.3309   26.0080 C   0  0  0  0  0  0  0  0  0  0  0  0
   11.1014  -16.6285   26.4526 O   0  0  0  0  0  0  0  0  0  0  0  0
  2  1  1  1
  2  6  1  0
  3  2  1  0
  3  4  1  0
  4  5  2  0
  6  9  1  0
  7  6  2  0
  8  4  1  0
  9 13  1  0
  9 10  1  0
 10 11  1  0
 11 12  1  0
 13 12  1  0
 13 14  1  1
 14 23  1  0
 15 14  2  0
 16 17  1  0
 17 27  2  0
 18 17  1  0
 18 19  2  0
 19 20  1  0
 20 26  2  0
 20 21  1  0
 22 21  1  6
 22 23  1  0
 22 24  1  0
 24 28  1  0
 25 24  2  0
 27 26  1  0
M  END
$$$$
