DPY.pdb
     RDKit          3D

 28 29  0  0  1  0  0  0  0  0999 V2000
   10.2266  -17.2789   16.8069 N   0  0  0  0  0  0  0  0  0  0  0  0
    9.1552  -17.1297   17.7320 C   0  0  1  0  0  0  0  0  0  0  0  0
    8.5187  -18.4778   18.0516 C   0  0  0  0  0  0  0  0  0  0  0  0
    7.9236  -18.9981   16.7968 C   0  0  0  0  0  0  0  0  0  0  0  0
    6.7019  -18.9155   16.6004 O   0  0  0  0  0  0  0  0  0  0  0  0
    9.4471  -16.3599   18.9460 C   0  0  0  0  0  0  0  0  0  0  0  0
   10.6269  -16.4788   19.4428 O   0  0  0  0  0  0  0  0  0  0  0  0
    8.7024  -19.5910   15.8052 O   0  0  0  0  0  0  0  0  0  0  0  0
    8.5424  -15.4952   19.6216 N   0  0  0  0  0  0  0  0  0  0  0  0
    7.1994  -15.0916   19.3373 C   0  0  0  0  0  0  0  0  0  0  0  0
    7.2084  -13.6051   19.7261 C   0  0  0  0  0  0  0  0  0  0  0  0
    7.9148  -13.6916   21.0588 C   0  0  0  0  0  0  0  0  0  0  0  0
    8.8859  -14.8025   20.8571 C   0  0  1  0  0  0  0  0  0  0  0  0
    8.9546  -15.7511   22.0030 C   0  0  0  0  0  0  0  0  0  0  0  0
    8.4075  -16.8789   21.9051 O   0  0  0  0  0  0  0  0  0  0  0  0
    6.0220  -11.3754   28.8390 O   0  0  0  0  0  0  0  0  0  0  0  0
    6.5527  -11.9317   27.6983 C   0  0  0  0  0  0  0  0  0  0  0  0
    7.9238  -11.9368   27.5120 C   0  0  0  0  0  0  0  0  0  0  0  0
    8.4591  -12.4921   26.3728 C   0  0  0  0  0  0  0  0  0  0  0  0
    7.6726  -13.0659   25.3679 C   0  0  0  0  0  0  0  0  0  0  0  0
    8.2943  -13.6250   24.1516 C   0  0  0  0  0  0  0  0  0  0  0  0
    8.9232  -14.9467   24.4056 C   0  0  2  0  0  0  0  0  0  0  0  0
    9.6114  -15.4568   23.2220 N   0  0  0  0  0  0  0  0  0  0  0  0
    7.9633  -15.9011   24.9380 C   0  0  0  0  0  0  0  0  0  0  0  0
    6.9103  -16.1911   24.2723 O   0  0  0  0  0  0  0  0  0  0  0  0
    6.3063  -13.0442   25.5855 C   0  0  0  0  0  0  0  0  0  0  0  0
    5.7673  -12.4908   26.7216 C   0  0  0  0  0  0  0  0  0  0  0  0
    8.0887  -16.5526   26.1443 O   0  0  0  0  0  0  0  0  0  0  0  0
  2  1  1  1
  2  6  1  0
  3  2  1  0
  3  4  1  0
  4  5  2  0
  6  9  1  0
  7  6  2  0
  8  4  1  0
  9 13  1  0
  9 10  1  0
 10 11  1  0
 11 12  1  0
 13 12  1  0
 13 14  1  1
 14 23  1  0
 15 14  2  0
 16 17  1  0
 17 27  2  0
 18 17  1  0
 18 19  2  0
 19 20  1  0
 20 26  2  0
 20 21  1  0
 22 21  1  6
 22 23  1  0
 22 24  1  0
 24 28  1  0
 25 24  2  0
 27 26  1  0
M  END
$$$$
