YWA.pdb
     RDKit          3D

 32 34  0  0  1  0  0  0  0  0999 V2000
    8.5106  -20.9635   29.9927 O   0  0  0  0  0  0  0  0  0  0  0  0
    8.3658  -20.8440   28.6147 C   0  0  0  0  0  0  0  0  0  0  0  0
    8.1786  -19.5734   28.1034 C   0  0  0  0  0  0  0  0  0  0  0  0
    8.0295  -19.4190   26.7199 C   0  0  0  0  0  0  0  0  0  0  0  0
    8.0695  -20.5171   25.8870 C   0  0  0  0  0  0  0  0  0  0  0  0
    7.9050  -20.2969   24.4346 C   0  0  0  0  0  0  0  0  0  0  0  0
    6.9695  -19.1212   24.2582 C   0  0  2  0  0  0  0  0  0  0  0  0
    5.9494  -19.3677   23.2824 N   0  0  0  0  0  0  0  0  0  0  0  0
    7.8218  -17.9754   23.7760 C   0  0  0  0  0  0  0  0  0  0  0  0
    8.0390  -17.7920   22.5525 O   0  0  0  0  0  0  0  0  0  0  0  0
    8.2545  -21.7814   26.3822 C   0  0  0  0  0  0  0  0  0  0  0  0
    8.4022  -21.9272   27.7611 C   0  0  0  0  0  0  0  0  0  0  0  0
    8.4010  -17.0736   24.6931 N   0  0  0  0  0  0  0  0  0  0  0  0
    9.1648  -15.9374   24.1673 C   0  0  1  0  0  0  0  0  0  0  0  0
    9.0454  -14.8791   25.2274 C   0  0  0  0  0  0  0  0  0  0  0  0
    7.6792  -14.5569   25.6455 C   0  0  0  0  0  0  0  0  0  0  0  0
    6.6585  -15.4405   25.8939 C   0  0  0  0  0  0  0  0  0  0  0  0
    5.5637  -14.7344   26.2351 N   0  0  0  0  0  0  0  0  0  0  0  0
    5.8180  -13.4176   26.2228 C   0  0  0  0  0  0  0  0  0  0  0  0
    5.0719  -12.2953   26.4845 C   0  0  0  0  0  0  0  0  0  0  0  0
    5.6089  -11.0165   26.3908 C   0  0  0  0  0  0  0  0  0  0  0  0
    6.9483  -10.8876   26.0183 C   0  0  0  0  0  0  0  0  0  0  0  0
    7.6691  -12.0374   25.7625 C   0  0  0  0  0  0  0  0  0  0  0  0
    7.1420  -13.3046   25.8539 C   0  0  0  0  0  0  0  0  0  0  0  0
   10.5332  -16.4159   23.9161 C   0  0  0  0  0  0  0  0  0  0  0  0
   11.4228  -15.6294   23.5017 O   0  0  0  0  0  0  0  0  0  0  0  0
   12.6144  -19.4939   24.5676 C   0  0  0  0  0  0  0  0  0  0  0  0
   12.3165  -18.1746   23.8664 C   0  0  2  0  0  0  0  0  0  0  0  0
   10.9446  -17.7580   24.1184 N   0  0  0  0  0  0  0  0  0  0  0  0
   12.6546  -18.2442   22.4283 C   0  0  0  0  0  0  0  0  0  0  0  0
   11.7124  -18.6826   21.5107 O   0  0  0  0  0  0  0  0  0  0  0  0
   13.7813  -17.9166   21.9940 O   0  0  0  0  0  0  0  0  0  0  0  0
  2  1  1  0
  3  2  2  0
  4  3  1  0
  5 11  1  0
  5  4  2  0
  6  5  1  0
  7  8  1  6
  7  6  1  0
  9  7  1  0
 10  9  2  0
 11 12  2  0
 12  2  1  0
 13  9  1  0
 14 13  1  0
 14 15  1  1
 16 24  1  0
 16 15  1  0
 17 16  2  0
 18 17  1  0
 18 19  1  0
 19 24  2  0
 20 19  1  0
 20 21  2  0
 21 22  1  0
 22 23  2  0
 24 23  1  0
 25 14  1  0
 26 25  2  0
 28 27  1  6
 28 29  1  0
 29 25  1  0
 30 28  1  0
 30 31  1  0
 32 30  2  0
M  END
$$$$
