YWA.pdb
     RDKit          3D

 32 34  0  0  1  0  0  0  0  0999 V2000
   10.9593  -21.5772   15.4616 O   0  0  0  0  0  0  0  0  0  0  0  0
   10.9243  -20.7958   16.6115 C   0  0  0  0  0  0  0  0  0  0  0  0
    9.7772  -20.8489   17.3811 C   0  0  0  0  0  0  0  0  0  0  0  0
    9.7102  -20.0741   18.5452 C   0  0  0  0  0  0  0  0  0  0  0  0
   10.7716  -19.2744   18.9131 C   0  0  0  0  0  0  0  0  0  0  0  0
   10.6468  -18.4761   20.1508 C   0  0  0  0  0  0  0  0  0  0  0  0
   10.0182  -17.1525   19.7742 C   0  0  2  0  0  0  0  0  0  0  0  0
   10.8195  -16.4019   18.8533 N   0  0  0  0  0  0  0  0  0  0  0  0
    9.9006  -16.3648   21.0539 C   0  0  0  0  0  0  0  0  0  0  0  0
   10.7527  -15.4970   21.3680 O   0  0  0  0  0  0  0  0  0  0  0  0
   11.9138  -19.2137   18.1584 C   0  0  0  0  0  0  0  0  0  0  0  0
   11.9731  -19.9882   17.0003 C   0  0  0  0  0  0  0  0  0  0  0  0
    8.8227  -16.5835   21.9371 N   0  0  0  0  0  0  0  0  0  0  0  0
    8.7194  -15.7427   23.1342 C   0  0  1  0  0  0  0  0  0  0  0  0
    7.2771  -15.8444   23.5438 C   0  0  0  0  0  0  0  0  0  0  0  0
    6.9417  -15.2269   24.8288 C   0  0  0  0  0  0  0  0  0  0  0  0
    6.3416  -15.8295   25.9063 C   0  0  0  0  0  0  0  0  0  0  0  0
    6.1968  -14.9082   26.8778 N   0  0  0  0  0  0  0  0  0  0  0  0
    6.6771  -13.7185   26.4872 C   0  0  0  0  0  0  0  0  0  0  0  0
    6.7719  -12.4828   27.0779 C   0  0  0  0  0  0  0  0  0  0  0  0
    7.3333  -11.3942   26.4205 C   0  0  0  0  0  0  0  0  0  0  0  0
    7.8099  -11.5803   25.1214 C   0  0  0  0  0  0  0  0  0  0  0  0
    7.6985  -12.8361   24.5580 C   0  0  0  0  0  0  0  0  0  0  0  0
    7.1439  -13.9161   25.2046 C   0  0  0  0  0  0  0  0  0  0  0  0
    9.6837  -16.2661   24.1143 C   0  0  0  0  0  0  0  0  0  0  0  0
   10.0998  -15.5430   25.0553 O   0  0  0  0  0  0  0  0  0  0  0  0
   12.4025  -17.1295   25.0514 C   0  0  0  0  0  0  0  0  0  0  0  0
   11.1818  -18.0410   25.0528 C   0  0  2  0  0  0  0  0  0  0  0  0
   10.2007  -17.5862   24.0783 N   0  0  0  0  0  0  0  0  0  0  0  0
   10.6288  -18.1936   26.4160 C   0  0  0  0  0  0  0  0  0  0  0  0
    9.2822  -17.9639   26.6520 O   0  0  0  0  0  0  0  0  0  0  0  0
   11.3410  -18.5289   27.3883 O   0  0  0  0  0  0  0  0  0  0  0  0
  2  1  1  0
  3  2  2  0
  4  3  1  0
  5 11  1  0
  5  4  2  0
  6  5  1  0
  7  8  1  6
  7  6  1  0
  9  7  1  0
 10  9  2  0
 11 12  2  0
 12  2  1  0
 13  9  1  0
 14 13  1  0
 14 15  1  1
 16 24  1  0
 16 15  1  0
 17 16  2  0
 18 17  1  0
 18 19  1  0
 19 24  2  0
 20 19  1  0
 20 21  2  0
 21 22  1  0
 22 23  2  0
 24 23  1  0
 25 14  1  0
 26 25  2  0
 28 27  1  1
 28 29  1  0
 29 25  1  0
 30 28  1  0
 30 31  1  0
 32 30  2  0
M  END
$$$$
