YWA.pdb
     RDKit          3D

 32 34  0  0  1  0  0  0  0  0999 V2000
    7.4622  -13.4519   16.6885 O   0  0  0  0  0  0  0  0  0  0  0  0
    7.7342  -13.6127   18.0429 C   0  0  0  0  0  0  0  0  0  0  0  0
    6.7492  -14.1863   18.8250 C   0  0  0  0  0  0  0  0  0  0  0  0
    6.9917  -14.3623   20.1925 C   0  0  0  0  0  0  0  0  0  0  0  0
    8.1927  -13.9692   20.7443 C   0  0  0  0  0  0  0  0  0  0  0  0
    8.3952  -14.1770   22.1937 C   0  0  0  0  0  0  0  0  0  0  0  0
    9.3872  -15.3077   22.3546 C   0  0  2  0  0  0  0  0  0  0  0  0
    8.8594  -16.5709   21.9310 N   0  0  0  0  0  0  0  0  0  0  0  0
    9.6935  -15.3906   23.8281 C   0  0  0  0  0  0  0  0  0  0  0  0
   10.3414  -14.4872   24.4129 O   0  0  0  0  0  0  0  0  0  0  0  0
    9.1765  -13.3996   19.9792 C   0  0  0  0  0  0  0  0  0  0  0  0
    8.9276  -13.2275   18.6179 C   0  0  0  0  0  0  0  0  0  0  0  0
    9.2570  -16.4924   24.5931 N   0  0  0  0  0  0  0  0  0  0  0  0
    9.7149  -16.6033   25.9819 C   0  0  1  0  0  0  0  0  0  0  0  0
    8.4512  -16.6980   26.7897 C   0  0  0  0  0  0  0  0  0  0  0  0
    7.4658  -15.6425   26.5447 C   0  0  0  0  0  0  0  0  0  0  0  0
    6.2482  -15.7733   25.9246 C   0  0  0  0  0  0  0  0  0  0  0  0
    5.6621  -14.5614   25.8871 N   0  0  0  0  0  0  0  0  0  0  0  0
    6.4428  -13.6321   26.4577 C   0  0  0  0  0  0  0  0  0  0  0  0
    6.3225  -12.2821   26.6756 C   0  0  0  0  0  0  0  0  0  0  0  0
    7.3172  -11.5477   27.3109 C   0  0  0  0  0  0  0  0  0  0  0  0
    8.4664  -12.2187   27.7335 C   0  0  0  0  0  0  0  0  0  0  0  0
    8.5542  -13.5766   27.4981 C   0  0  0  0  0  0  0  0  0  0  0  0
    7.5726  -14.3072   26.8701 C   0  0  0  0  0  0  0  0  0  0  0  0
   10.5909  -17.7830   26.0552 C   0  0  0  0  0  0  0  0  0  0  0  0
   11.0126  -18.2021   27.1634 O   0  0  0  0  0  0  0  0  0  0  0  0
   11.9227  -20.5108   23.8197 C   0  0  0  0  0  0  0  0  0  0  0  0
   11.9914  -19.5904   25.0317 C   0  0  2  0  0  0  0  0  0  0  0  0
   11.0125  -18.5189   24.9185 N   0  0  0  0  0  0  0  0  0  0  0  0
   13.3700  -19.1052   25.2583 C   0  0  0  0  0  0  0  0  0  0  0  0
   14.0063  -18.3376   24.2951 O   0  0  0  0  0  0  0  0  0  0  0  0
   14.0016  -19.3639   26.3069 O   0  0  0  0  0  0  0  0  0  0  0  0
  2  1  1  0
  3  2  2  0
  4  3  1  0
  5 11  1  0
  5  4  2  0
  6  5  1  0
  7  8  1  1
  7  6  1  0
  9  7  1  0
 10  9  2  0
 11 12  2  0
 12  2  1  0
 13  9  1  0
 14 13  1  0
 14 15  1  1
 16 24  1  0
 16 15  1  0
 17 16  2  0
 18 17  1  0
 18 19  1  0
 19 24  2  0
 20 19  1  0
 20 21  2  0
 21 22  1  0
 22 23  2  0
 24 23  1  0
 25 14  1  0
 26 25  2  0
 28 27  1  6
 28 29  1  0
 29 25  1  0
 30 28  1  0
 30 31  1  0
 32 30  2  0
M  END
$$$$
