YWA.pdb
     RDKit          3D

 32 34  0  0  1  0  0  0  0  0999 V2000
    8.0835  -12.7485   15.9578 O   0  0  0  0  0  0  0  0  0  0  0  0
    7.9403  -13.2836   17.2334 C   0  0  0  0  0  0  0  0  0  0  0  0
    8.3849  -12.5199   18.2964 C   0  0  0  0  0  0  0  0  0  0  0  0
    8.2551  -13.0301   19.5936 C   0  0  0  0  0  0  0  0  0  0  0  0
    7.6934  -14.2721   19.8019 C   0  0  0  0  0  0  0  0  0  0  0  0
    7.5822  -14.7627   21.1918 C   0  0  0  0  0  0  0  0  0  0  0  0
    8.5144  -15.9461   21.3300 C   0  0  2  0  0  0  0  0  0  0  0  0
    7.8240  -17.2013   21.2928 N   0  0  0  0  0  0  0  0  0  0  0  0
    9.1735  -15.8058   22.6783 C   0  0  0  0  0  0  0  0  0  0  0  0
   10.0665  -14.9465   22.8831 O   0  0  0  0  0  0  0  0  0  0  0  0
    7.2491  -15.0382   18.7562 C   0  0  0  0  0  0  0  0  0  0  0  0
    7.3818  -14.5233   17.4670 C   0  0  0  0  0  0  0  0  0  0  0  0
    8.8011  -16.6417   23.7518 N   0  0  0  0  0  0  0  0  0  0  0  0
    9.5310  -16.5189   25.0178 C   0  0  1  0  0  0  0  0  0  0  0  0
    8.4637  -16.5627   26.0748 C   0  0  0  0  0  0  0  0  0  0  0  0
    7.4392  -15.5203   25.9798 C   0  0  0  0  0  0  0  0  0  0  0  0
    6.1373  -15.6725   25.5724 C   0  0  0  0  0  0  0  0  0  0  0  0
    5.5392  -14.4666   25.6131 N   0  0  0  0  0  0  0  0  0  0  0  0
    6.3930  -13.5207   26.0315 C   0  0  0  0  0  0  0  0  0  0  0  0
    6.2949  -12.1681   26.2448 C   0  0  0  0  0  0  0  0  0  0  0  0
    7.3726  -11.4140   26.6945 C   0  0  0  0  0  0  0  0  0  0  0  0
    8.5835  -12.0675   26.9314 C   0  0  0  0  0  0  0  0  0  0  0  0
    8.6468  -13.4285   26.7064 C   0  0  0  0  0  0  0  0  0  0  0  0
    7.5831  -14.1786   26.2616 C   0  0  0  0  0  0  0  0  0  0  0  0
   10.5011  -17.6239   25.0662 C   0  0  0  0  0  0  0  0  0  0  0  0
   10.5686  -18.4609   24.1298 O   0  0  0  0  0  0  0  0  0  0  0  0
   13.3860  -18.4804   24.8455 C   0  0  0  0  0  0  0  0  0  0  0  0
   12.4920  -18.7927   26.0388 C   0  0  2  0  0  0  0  0  0  0  0  0
   11.4097  -17.8240   26.1365 N   0  0  0  0  0  0  0  0  0  0  0  0
   13.2827  -18.9175   27.2824 C   0  0  0  0  0  0  0  0  0  0  0  0
   14.2985  -19.8568   27.3716 O   0  0  0  0  0  0  0  0  0  0  0  0
   13.0692  -18.1947   28.2810 O   0  0  0  0  0  0  0  0  0  0  0  0
  2  1  1  0
  3  2  2  0
  4  3  1  0
  5 11  1  0
  5  4  2  0
  6  5  1  0
  7  8  1  1
  7  6  1  0
  9  7  1  0
 10  9  2  0
 11 12  2  0
 12  2  1  0
 13  9  1  0
 14 13  1  0
 14 15  1  1
 16 24  1  0
 16 15  1  0
 17 16  2  0
 18 17  1  0
 18 19  1  0
 19 24  2  0
 20 19  1  0
 20 21  2  0
 21 22  1  0
 22 23  2  0
 24 23  1  0
 25 14  1  0
 26 25  2  0
 28 27  1  6
 28 29  1  0
 29 25  1  0
 30 28  1  0
 30 31  1  0
 32 30  2  0
M  END
$$$$
