YWA.pdb
     RDKit          3D

 32 34  0  0  1  0  0  0  0  0999 V2000
    7.3159  -13.9501   15.9924 O   0  0  0  0  0  0  0  0  0  0  0  0
    7.4626  -14.0618   17.3708 C   0  0  0  0  0  0  0  0  0  0  0  0
    8.1873  -13.0762   18.0146 C   0  0  0  0  0  0  0  0  0  0  0  0
    8.3533  -13.1595   19.4022 C   0  0  0  0  0  0  0  0  0  0  0  0
    7.8022  -14.2072   20.1092 C   0  0  0  0  0  0  0  0  0  0  0  0
    8.0097  -14.2466   21.5722 C   0  0  0  0  0  0  0  0  0  0  0  0
    9.1847  -15.1615   21.8382 C   0  0  2  0  0  0  0  0  0  0  0  0
    8.9223  -16.5207   21.4675 N   0  0  0  0  0  0  0  0  0  0  0  0
    9.4265  -15.1124   23.3251 C   0  0  0  0  0  0  0  0  0  0  0  0
    9.7770  -14.0497   23.8956 O   0  0  0  0  0  0  0  0  0  0  0  0
    7.0818  -15.1898   19.4821 C   0  0  0  0  0  0  0  0  0  0  0  0
    6.9208  -15.1002   18.0999 C   0  0  0  0  0  0  0  0  0  0  0  0
    9.2639  -16.2669   24.1192 N   0  0  0  0  0  0  0  0  0  0  0  0
    9.8518  -16.2786   25.4627 C   0  0  1  0  0  0  0  0  0  0  0  0
    8.6787  -16.4466   26.3868 C   0  0  0  0  0  0  0  0  0  0  0  0
    7.5847  -15.4916   26.1968 C   0  0  0  0  0  0  0  0  0  0  0  0
    6.3658  -15.7329   25.6133 C   0  0  0  0  0  0  0  0  0  0  0  0
    5.6604  -14.5859   25.6212 N   0  0  0  0  0  0  0  0  0  0  0  0
    6.3630  -13.5934   26.1868 C   0  0  0  0  0  0  0  0  0  0  0  0
    6.1154  -12.2666   26.4381 C   0  0  0  0  0  0  0  0  0  0  0  0
    7.0527  -11.4476   27.0571 C   0  0  0  0  0  0  0  0  0  0  0  0
    8.2770  -12.0070   27.4279 C   0  0  0  0  0  0  0  0  0  0  0  0
    8.4924  -13.3445   27.1600 C   0  0  0  0  0  0  0  0  0  0  0  0
    7.5681  -14.1586   26.5478 C   0  0  0  0  0  0  0  0  0  0  0  0
   10.8326  -17.3747   25.4955 C   0  0  0  0  0  0  0  0  0  0  0  0
   10.5997  -18.4258   26.1457 O   0  0  0  0  0  0  0  0  0  0  0  0
   12.1889  -19.7218   24.2735 C   0  0  0  0  0  0  0  0  0  0  0  0
   12.9501  -18.4986   24.7685 C   0  0  2  0  0  0  0  0  0  0  0  0
   12.0766  -17.3350   24.8157 N   0  0  0  0  0  0  0  0  0  0  0  0
   14.1808  -18.2777   23.9785 C   0  0  0  0  0  0  0  0  0  0  0  0
   14.3453  -17.1055   23.2569 O   0  0  0  0  0  0  0  0  0  0  0  0
   15.1015  -19.1235   23.9324 O   0  0  0  0  0  0  0  0  0  0  0  0
  2  1  1  0
  3  2  2  0
  4  3  1  0
  5 11  1  0
  5  4  2  0
  6  5  1  0
  7  8  1  1
  7  6  1  0
  9  7  1  0
 10  9  2  0
 11 12  2  0
 12  2  1  0
 13  9  1  0
 14 13  1  0
 14 15  1  1
 16 24  1  0
 16 15  1  0
 17 16  2  0
 18 17  1  0
 18 19  1  0
 19 24  2  0
 20 19  1  0
 20 21  2  0
 21 22  1  0
 22 23  2  0
 24 23  1  0
 25 14  1  0
 26 25  2  0
 28 27  1  6
 28 29  1  0
 29 25  1  0
 30 28  1  0
 30 31  1  0
 32 30  2  0
M  END
$$$$
