YWA.pdb
     RDKit          3D

 32 34  0  0  1  0  0  0  0  0999 V2000
   11.7852  -22.5943   17.0067 O   0  0  0  0  0  0  0  0  0  0  0  0
   11.6081  -21.5542   17.9128 C   0  0  0  0  0  0  0  0  0  0  0  0
   12.4331  -20.4525   17.7846 C   0  0  0  0  0  0  0  0  0  0  0  0
   12.2803  -19.3881   18.6811 C   0  0  0  0  0  0  0  0  0  0  0  0
   11.3229  -19.4426   19.6720 C   0  0  0  0  0  0  0  0  0  0  0  0
   11.2059  -18.2917   20.5922 C   0  0  0  0  0  0  0  0  0  0  0  0
    9.9678  -17.5186   20.1948 C   0  0  2  0  0  0  0  0  0  0  0  0
   10.1235  -16.8272   18.9493 N   0  0  0  0  0  0  0  0  0  0  0  0
    9.7443  -16.4973   21.2807 C   0  0  0  0  0  0  0  0  0  0  0  0
   10.3510  -15.3975   21.2785 O   0  0  0  0  0  0  0  0  0  0  0  0
   10.4994  -20.5292   19.8089 C   0  0  0  0  0  0  0  0  0  0  0  0
   10.6576  -21.5854   18.9123 C   0  0  0  0  0  0  0  0  0  0  0  0
    8.8416  -16.7528   22.3340 N   0  0  0  0  0  0  0  0  0  0  0  0
    8.6705  -15.7293   23.3704 C   0  0  1  0  0  0  0  0  0  0  0  0
    7.2257  -15.8343   23.7700 C   0  0  0  0  0  0  0  0  0  0  0  0
    6.8540  -15.1094   24.9871 C   0  0  0  0  0  0  0  0  0  0  0  0
    6.3565  -15.6427   26.1501 C   0  0  0  0  0  0  0  0  0  0  0  0
    6.1303  -14.6340   27.0133 N   0  0  0  0  0  0  0  0  0  0  0  0
    6.4582  -13.4530   26.4688 C   0  0  0  0  0  0  0  0  0  0  0  0
    6.4234  -12.1529   26.9082 C   0  0  0  0  0  0  0  0  0  0  0  0
    6.8366  -11.0943   26.1076 C   0  0  0  0  0  0  0  0  0  0  0  0
    7.2978  -11.3795   24.8209 C   0  0  0  0  0  0  0  0  0  0  0  0
    7.3192  -12.6981   24.4116 C   0  0  0  0  0  0  0  0  0  0  0  0
    6.9114  -13.7487   25.2003 C   0  0  0  0  0  0  0  0  0  0  0  0
    9.6358  -16.0310   24.4390 C   0  0  0  0  0  0  0  0  0  0  0  0
    9.7902  -15.2425   25.4065 O   0  0  0  0  0  0  0  0  0  0  0  0
   11.2621  -18.7519   26.1705 C   0  0  0  0  0  0  0  0  0  0  0  0
   11.4496  -17.4009   25.4921 C   0  0  2  0  0  0  0  0  0  0  0  0
   10.4399  -17.1989   24.4631 N   0  0  0  0  0  0  0  0  0  0  0  0
   12.8337  -17.2375   24.9972 C   0  0  0  0  0  0  0  0  0  0  0  0
   13.0779  -17.1079   23.6388 O   0  0  0  0  0  0  0  0  0  0  0  0
   13.8169  -17.2105   25.7704 O   0  0  0  0  0  0  0  0  0  0  0  0
  2  1  1  0
  3  2  2  0
  4  3  1  0
  5 11  1  0
  5  4  2  0
  6  5  1  0
  7  8  1  6
  7  6  1  0
  9  7  1  0
 10  9  2  0
 11 12  2  0
 12  2  1  0
 13  9  1  0
 14 13  1  0
 14 15  1  1
 16 24  1  0
 16 15  1  0
 17 16  2  0
 18 17  1  0
 18 19  1  0
 19 24  2  0
 20 19  1  0
 20 21  2  0
 21 22  1  0
 22 23  2  0
 24 23  1  0
 25 14  1  0
 26 25  2  0
 28 27  1  6
 28 29  1  0
 29 25  1  0
 30 28  1  0
 30 31  1  0
 32 30  2  0
M  END
$$$$
