YWA.pdb
     RDKit          3D

 32 34  0  0  1  0  0  0  0  0999 V2000
    7.7992  -15.0048   14.1908 O   0  0  0  0  0  0  0  0  0  0  0  0
    7.9982  -14.7385   15.5412 C   0  0  0  0  0  0  0  0  0  0  0  0
    8.6652  -15.6935   16.2855 C   0  0  0  0  0  0  0  0  0  0  0  0
    8.8818  -15.4557   17.6480 C   0  0  0  0  0  0  0  0  0  0  0  0
    8.4362  -14.2887   18.2321 C   0  0  0  0  0  0  0  0  0  0  0  0
    8.6904  -14.0898   19.6745 C   0  0  0  0  0  0  0  0  0  0  0  0
    9.6344  -15.1837   20.1228 C   0  0  2  0  0  0  0  0  0  0  0  0
    9.0771  -16.4944   19.9646 N   0  0  0  0  0  0  0  0  0  0  0  0
    9.8840  -14.9471   21.5903 C   0  0  0  0  0  0  0  0  0  0  0  0
   10.5812  -13.9806   21.9874 O   0  0  0  0  0  0  0  0  0  0  0  0
    7.7740  -13.3348   17.5045 C   0  0  0  0  0  0  0  0  0  0  0  0
    7.5620  -13.5788   16.1480 C   0  0  0  0  0  0  0  0  0  0  0  0
    9.3367  -15.8111   22.5618 N   0  0  0  0  0  0  0  0  0  0  0  0
    9.0682  -15.2755   23.9004 C   0  0  1  0  0  0  0  0  0  0  0  0
    7.5901  -15.4658   24.0938 C   0  0  0  0  0  0  0  0  0  0  0  0
    7.0497  -14.9619   25.3584 C   0  0  0  0  0  0  0  0  0  0  0  0
    6.4244  -15.6889   26.3406 C   0  0  0  0  0  0  0  0  0  0  0  0
    6.0654  -14.8441   27.3261 N   0  0  0  0  0  0  0  0  0  0  0  0
    6.4279  -13.5858   27.0363 C   0  0  0  0  0  0  0  0  0  0  0  0
    6.3043  -12.3804   27.6815 C   0  0  0  0  0  0  0  0  0  0  0  0
    6.7868  -11.1985   27.1315 C   0  0  0  0  0  0  0  0  0  0  0  0
    7.4131  -11.2569   25.8850 C   0  0  0  0  0  0  0  0  0  0  0  0
    7.5202  -12.4857   25.2642 C   0  0  0  0  0  0  0  0  0  0  0  0
    7.0443  -13.6577   25.8046 C   0  0  0  0  0  0  0  0  0  0  0  0
    9.9203  -16.0186   24.8420 C   0  0  0  0  0  0  0  0  0  0  0  0
    9.8349  -17.2698   24.9356 O   0  0  0  0  0  0  0  0  0  0  0  0
   10.3795  -14.8402   28.0211 C   0  0  0  0  0  0  0  0  0  0  0  0
   11.0474  -15.8260   27.0709 C   0  0  2  0  0  0  0  0  0  0  0  0
   10.8767  -15.4024   25.6887 N   0  0  0  0  0  0  0  0  0  0  0  0
   10.5867  -17.2087   27.3228 C   0  0  0  0  0  0  0  0  0  0  0  0
   11.5063  -18.2159   27.5709 O   0  0  0  0  0  0  0  0  0  0  0  0
    9.3738  -17.5155   27.3214 O   0  0  0  0  0  0  0  0  0  0  0  0
  2  1  1  0
  3  2  2  0
  4  3  1  0
  5 11  1  0
  5  4  2  0
  6  5  1  0
  7  8  1  1
  7  6  1  0
  9  7  1  0
 10  9  2  0
 11 12  2  0
 12  2  1  0
 13  9  1  0
 14 13  1  0
 14 15  1  1
 16 24  1  0
 16 15  1  0
 17 16  2  0
 18 17  1  0
 18 19  1  0
 19 24  2  0
 20 19  1  0
 20 21  2  0
 21 22  1  0
 22 23  2  0
 24 23  1  0
 25 14  1  0
 26 25  2  0
 28 27  1  1
 28 29  1  0
 29 25  1  0
 30 28  1  0
 30 31  1  0
 32 30  2  0
M  END
$$$$
