YWA.pdb
     RDKit          3D

 32 34  0  0  1  0  0  0  0  0999 V2000
   10.7209  -22.3330   21.4914 O   0  0  0  0  0  0  0  0  0  0  0  0
   10.4771  -21.0063   21.1530 C   0  0  0  0  0  0  0  0  0  0  0  0
    9.2174  -20.6931   20.6775 C   0  0  0  0  0  0  0  0  0  0  0  0
    8.9397  -19.3662   20.3279 C   0  0  0  0  0  0  0  0  0  0  0  0
    9.9082  -18.3933   20.4575 C   0  0  0  0  0  0  0  0  0  0  0  0
    9.5615  -17.0089   20.0724 C   0  0  0  0  0  0  0  0  0  0  0  0
    8.4535  -16.5470   20.9932 C   0  0  2  0  0  0  0  0  0  0  0  0
    7.6566  -15.5033   20.4194 N   0  0  0  0  0  0  0  0  0  0  0  0
    9.1310  -16.0049   22.2257 C   0  0  0  0  0  0  0  0  0  0  0  0
    9.8359  -14.9663   22.1808 O   0  0  0  0  0  0  0  0  0  0  0  0
   11.1602  -18.6916   20.9277 C   0  0  0  0  0  0  0  0  0  0  0  0
   11.4294  -20.0154   21.2737 C   0  0  0  0  0  0  0  0  0  0  0  0
    8.9891  -16.6549   23.4696 N   0  0  0  0  0  0  0  0  0  0  0  0
    9.6612  -16.0788   24.6388 C   0  0  1  0  0  0  0  0  0  0  0  0
    8.6652  -16.2210   25.7551 C   0  0  0  0  0  0  0  0  0  0  0  0
    7.4998  -15.3374   25.6763 C   0  0  0  0  0  0  0  0  0  0  0  0
    6.2435  -15.6608   25.2274 C   0  0  0  0  0  0  0  0  0  0  0  0
    5.4726  -14.5592   25.3028 N   0  0  0  0  0  0  0  0  0  0  0  0
    6.1678  -13.5181   25.7839 C   0  0  0  0  0  0  0  0  0  0  0  0
    5.8659  -12.2058   26.0513 C   0  0  0  0  0  0  0  0  0  0  0  0
    6.8104  -11.3228   26.5617 C   0  0  0  0  0  0  0  0  0  0  0  0
    8.0996  -11.8011   26.8038 C   0  0  0  0  0  0  0  0  0  0  0  0
    8.3685  -13.1262   26.5233 C   0  0  0  0  0  0  0  0  0  0  0  0
    7.4373  -14.0035   26.0183 C   0  0  0  0  0  0  0  0  0  0  0  0
   10.9165  -16.8231   24.8257 C   0  0  0  0  0  0  0  0  0  0  0  0
   11.9469  -16.2463   25.2587 O   0  0  0  0  0  0  0  0  0  0  0  0
   13.4467  -18.0606   24.0182 C   0  0  0  0  0  0  0  0  0  0  0  0
   12.3429  -18.8772   24.6781 C   0  0  2  0  0  0  0  0  0  0  0  0
   11.0581  -18.2059   24.5444 N   0  0  0  0  0  0  0  0  0  0  0  0
   12.6879  -19.2124   26.0767 C   0  0  0  0  0  0  0  0  0  0  0  0
   13.8844  -19.8498   26.3662 O   0  0  0  0  0  0  0  0  0  0  0  0
   11.9281  -18.9390   27.0323 O   0  0  0  0  0  0  0  0  0  0  0  0
  2  1  1  0
  3  2  2  0
  4  3  1  0
  5 11  1  0
  5  4  2  0
  6  5  1  0
  7  8  1  6
  7  6  1  0
  9  7  1  0
 10  9  2  0
 11 12  2  0
 12  2  1  0
 13  9  1  0
 14 13  1  0
 14 15  1  1
 16 24  1  0
 16 15  1  0
 17 16  2  0
 18 17  1  0
 18 19  1  0
 19 24  2  0
 20 19  1  0
 20 21  2  0
 21 22  1  0
 22 23  2  0
 24 23  1  0
 25 14  1  0
 26 25  2  0
 28 27  1  1
 28 29  1  0
 29 25  1  0
 30 28  1  0
 30 31  1  0
 32 30  2  0
M  END
$$$$
