YWA.pdb
     RDKit          3D

 32 34  0  0  1  0  0  0  0  0999 V2000
    7.0519  -13.3377   15.8940 O   0  0  0  0  0  0  0  0  0  0  0  0
    7.9981  -13.8555   16.7718 C   0  0  0  0  0  0  0  0  0  0  0  0
    8.2873  -15.2036   16.6713 C   0  0  0  0  0  0  0  0  0  0  0  0
    9.2355  -15.7560   17.5406 C   0  0  0  0  0  0  0  0  0  0  0  0
    9.8667  -14.9658   18.4780 C   0  0  0  0  0  0  0  0  0  0  0  0
   10.8582  -15.6011   19.3714 C   0  0  0  0  0  0  0  0  0  0  0  0
   11.4538  -14.5107   20.2345 C   0  0  2  0  0  0  0  0  0  0  0  0
   12.8852  -14.4783   20.1752 N   0  0  0  0  0  0  0  0  0  0  0  0
   11.0437  -14.8253   21.6504 C   0  0  0  0  0  0  0  0  0  0  0  0
   11.8717  -14.7889   22.5942 O   0  0  0  0  0  0  0  0  0  0  0  0
    9.5883  -13.6285   18.5870 C   0  0  0  0  0  0  0  0  0  0  0  0
    8.6427  -13.0855   17.7178 C   0  0  0  0  0  0  0  0  0  0  0  0
    9.7100  -15.1708   21.9534 N   0  0  0  0  0  0  0  0  0  0  0  0
    9.2333  -14.9765   23.3266 C   0  0  1  0  0  0  0  0  0  0  0  0
    7.7624  -14.7058   23.1810 C   0  0  0  0  0  0  0  0  0  0  0  0
    7.0301  -14.5111   24.4344 C   0  0  0  0  0  0  0  0  0  0  0  0
    6.2045  -15.4116   25.0604 C   0  0  0  0  0  0  0  0  0  0  0  0
    5.7170  -14.8327   26.1743 N   0  0  0  0  0  0  0  0  0  0  0  0
    6.1867  -13.5840   26.3119 C   0  0  0  0  0  0  0  0  0  0  0  0
    6.0090  -12.5907   27.2427 C   0  0  0  0  0  0  0  0  0  0  0  0
    6.6393  -11.3567   27.1315 C   0  0  0  0  0  0  0  0  0  0  0  0
    7.4746  -11.1377   26.0343 C   0  0  0  0  0  0  0  0  0  0  0  0
    7.6306  -12.1585   25.1175 C   0  0  0  0  0  0  0  0  0  0  0  0
    7.0090  -13.3809   25.2234 C   0  0  0  0  0  0  0  0  0  0  0  0
    9.5709  -16.1958   24.0777 C   0  0  0  0  0  0  0  0  0  0  0  0
    9.2259  -16.3257   25.2801 O   0  0  0  0  0  0  0  0  0  0  0  0
   11.3588  -19.4894   23.4804 C   0  0  0  0  0  0  0  0  0  0  0  0
   10.6681  -18.4332   24.3337 C   0  0  2  0  0  0  0  0  0  0  0  0
   10.2861  -17.2870   23.5217 N   0  0  0  0  0  0  0  0  0  0  0  0
   11.4903  -18.0726   25.5091 C   0  0  0  0  0  0  0  0  0  0  0  0
   12.2908  -16.9412   25.4796 O   0  0  0  0  0  0  0  0  0  0  0  0
   11.4943  -18.7613   26.5536 O   0  0  0  0  0  0  0  0  0  0  0  0
  2  1  1  0
  3  2  2  0
  4  3  1  0
  5 11  1  0
  5  4  2  0
  6  5  1  0
  7  8  1  1
  7  6  1  0
  9  7  1  0
 10  9  2  0
 11 12  2  0
 12  2  1  0
 13  9  1  0
 14 13  1  0
 14 15  1  6
 16 24  1  0
 16 15  1  0
 17 16  2  0
 18 17  1  0
 18 19  1  0
 19 24  2  0
 20 19  1  0
 20 21  2  0
 21 22  1  0
 22 23  2  0
 24 23  1  0
 25 14  1  0
 26 25  2  0
 28 27  1  6
 28 29  1  0
 29 25  1  0
 30 28  1  0
 30 31  1  0
 32 30  2  0
M  END
$$$$
