YWA.pdb
     RDKit          3D

 32 34  0  0  1  0  0  0  0  0999 V2000
   13.1117  -21.2275   17.9047 O   0  0  0  0  0  0  0  0  0  0  0  0
   12.9216  -20.5239   19.0892 C   0  0  0  0  0  0  0  0  0  0  0  0
   11.6269  -20.4105   19.5600 C   0  0  0  0  0  0  0  0  0  0  0  0
   11.4016  -19.7083   20.7500 C   0  0  0  0  0  0  0  0  0  0  0  0
   12.4553  -19.1423   21.4362 C   0  0  0  0  0  0  0  0  0  0  0  0
   12.1604  -18.4109   22.6864 C   0  0  0  0  0  0  0  0  0  0  0  0
   11.1089  -17.3717   22.3656 C   0  0  2  0  0  0  0  0  0  0  0  0
   11.5894  -16.3542   21.4782 N   0  0  0  0  0  0  0  0  0  0  0  0
   10.7441  -16.7250   23.6773 C   0  0  0  0  0  0  0  0  0  0  0  0
   11.4043  -15.7600   24.1363 O   0  0  0  0  0  0  0  0  0  0  0  0
   13.7428  -19.2482   20.9795 C   0  0  0  0  0  0  0  0  0  0  0  0
   13.9593  -19.9490   19.7934 C   0  0  0  0  0  0  0  0  0  0  0  0
    9.6440  -17.1904   24.4277 N   0  0  0  0  0  0  0  0  0  0  0  0
    9.2642  -16.4556   25.6388 C   0  0  1  0  0  0  0  0  0  0  0  0
    7.7906  -16.2059   25.4824 C   0  0  0  0  0  0  0  0  0  0  0  0
    7.4302  -14.9353   24.8495 C   0  0  0  0  0  0  0  0  0  0  0  0
    7.3042  -14.6852   23.5056 C   0  0  0  0  0  0  0  0  0  0  0  0
    6.9776  -13.3884   23.3472 N   0  0  0  0  0  0  0  0  0  0  0  0
    6.8821  -12.7685   24.5327 C   0  0  0  0  0  0  0  0  0  0  0  0
    6.5851  -11.4860   24.9221 C   0  0  0  0  0  0  0  0  0  0  0  0
    6.5570  -11.1112   26.2604 C   0  0  0  0  0  0  0  0  0  0  0  0
    6.8417  -12.0803   27.2243 C   0  0  0  0  0  0  0  0  0  0  0  0
    7.1362  -13.3602   26.7974 C   0  0  0  0  0  0  0  0  0  0  0  0
    7.1652  -13.7355   25.4744 C   0  0  0  0  0  0  0  0  0  0  0  0
    9.6351  -17.2959   26.7881 C   0  0  0  0  0  0  0  0  0  0  0  0
    9.3080  -16.9664   27.9569 O   0  0  0  0  0  0  0  0  0  0  0  0
   10.7331  -20.7974   27.4591 C   0  0  0  0  0  0  0  0  0  0  0  0
   10.6649  -19.3236   27.8386 C   0  0  2  0  0  0  0  0  0  0  0  0
   10.3644  -18.5067   26.6718 N   0  0  0  0  0  0  0  0  0  0  0  0
   11.8867  -18.8979   28.5551 C   0  0  0  0  0  0  0  0  0  0  0  0
   12.6628  -17.8631   28.0563 O   0  0  0  0  0  0  0  0  0  0  0  0
   12.2588  -19.4446   29.6171 O   0  0  0  0  0  0  0  0  0  0  0  0
  2  1  1  0
  3  2  2  0
  4  3  1  0
  5 11  1  0
  5  4  2  0
  6  5  1  0
  7  8  1  6
  7  6  1  0
  9  7  1  0
 10  9  2  0
 11 12  2  0
 12  2  1  0
 13  9  1  0
 14 13  1  0
 14 15  1  6
 16 24  1  0
 16 15  1  0
 17 16  2  0
 18 17  1  0
 18 19  1  0
 19 24  2  0
 20 19  1  0
 20 21  2  0
 21 22  1  0
 22 23  2  0
 24 23  1  0
 25 14  1  0
 26 25  2  0
 28 27  1  6
 28 29  1  0
 29 25  1  0
 30 28  1  0
 30 31  1  0
 32 30  2  0
M  END
$$$$
