MYT.pdb
     RDKit          3D

 28 28  0  0  1  0  0  0  0  0999 V2000
   22.7365  -21.1463  -23.1836 C   0  0  0  0  0  0  0  0  0  0  0  0
   24.0779  -19.9876  -22.9021 S   0  0  0  0  0  0  0  0  0  0  0  0
   25.0027  -20.4312  -21.4064 C   0  0  0  0  0  0  0  0  0  0  0  0
   23.9919  -20.8302  -20.3470 C   0  0  0  0  0  0  0  0  0  0  0  0
   24.7454  -21.2404  -19.0988 C   0  0  2  0  0  0  0  0  0  0  0  0
   25.6001  -22.3674  -19.4397 N   0  0  0  0  0  0  0  0  0  0  0  0
   23.8548  -21.6393  -18.0061 C   0  0  0  0  0  0  0  0  0  0  0  0
   23.6322  -22.8686  -17.7526 O   0  0  0  0  0  0  0  0  0  0  0  0
   18.8536  -21.2143  -10.7303 O   0  0  0  0  0  0  0  0  0  0  0  0
   19.7504  -20.9803  -11.7647 C   0  0  0  0  0  0  0  0  0  0  0  0
   20.7629  -21.8470  -12.0554 C   0  0  0  0  0  0  0  0  0  0  0  0
   21.6274  -21.5610  -13.0995 C   0  0  0  0  0  0  0  0  0  0  0  0
   21.5011  -20.4208  -13.8640 C   0  0  0  0  0  0  0  0  0  0  0  0
   22.4228  -20.1065  -14.9836 C   0  0  0  0  0  0  0  0  0  0  0  0
   22.2834  -21.1364  -16.1104 C   0  0  2  0  0  0  0  0  0  0  0  0
   23.1777  -20.7212  -17.1535 N   0  0  0  0  0  0  0  0  0  0  0  0
   20.8600  -21.1486  -16.5259 C   0  0  0  0  0  0  0  0  0  0  0  0
   20.2837  -20.1817  -17.0827 O   0  0  0  0  0  0  0  0  0  0  0  0
   20.4679  -19.5670  -13.5437 C   0  0  0  0  0  0  0  0  0  0  0  0
   19.5988  -19.8428  -12.5030 C   0  0  0  0  0  0  0  0  0  0  0  0
   16.8200  -23.9104  -17.4067 C   0  0  0  0  0  0  0  0  0  0  0  0
   18.3083  -23.6994  -17.3099 C   0  0  1  0  0  0  0  0  0  0  0  0
   18.9524  -23.8638  -18.5335 O   0  0  0  0  0  0  0  0  0  0  0  0
   18.7088  -22.4789  -16.5748 C   0  0  2  0  0  0  0  0  0  0  0  0
   20.0853  -22.2958  -16.2959 N   0  0  0  0  0  0  0  0  0  0  0  0
   17.8753  -22.3735  -15.3417 C   0  0  0  0  0  0  0  0  0  0  0  0
   18.4147  -22.6527  -14.0948 O   0  0  0  0  0  0  0  0  0  0  0  0
   16.6739  -22.0320  -15.4027 O   0  0  0  0  0  0  0  0  0  0  0  0
  2  1  1  0
  3  2  1  0
  4  3  1  0
  5  4  1  0
  5  6  1  6
  7  8  2  0
  7  5  1  0
  9 10  1  0
 10 20  2  0
 11 12  2  0
 11 10  1  0
 12 13  1  0
 13 14  1  0
 13 19  2  0
 15 14  1  1
 15 16  1  0
 16  7  1  0
 17 15  1  0
 18 17  2  0
 20 19  1  0
 22 24  1  0
 22 21  1  6
 23 22  1  0
 24 25  1  1
 25 17  1  0
 26 27  1  0
 26 24  1  0
 28 26  2  0
M  END
$$$$
