MYT.pdb
     RDKit          3D

 28 28  0  0  1  0  0  0  0  0999 V2000
   27.1153  -19.7698   -6.4512 C   0  0  0  0  0  0  0  0  0  0  0  0
   28.6249  -19.9738   -7.4001 S   0  0  0  0  0  0  0  0  0  0  0  0
   28.3327  -21.0264   -8.8478 C   0  0  0  0  0  0  0  0  0  0  0  0
   27.0487  -20.5531   -9.5039 C   0  0  0  0  0  0  0  0  0  0  0  0
   27.0255  -21.0627  -10.9301 C   0  0  2  0  0  0  0  0  0  0  0  0
   28.2720  -20.6685  -11.5686 N   0  0  0  0  0  0  0  0  0  0  0  0
   25.9076  -20.5203  -11.7062 C   0  0  0  0  0  0  0  0  0  0  0  0
   25.7063  -19.2638  -11.7823 O   0  0  0  0  0  0  0  0  0  0  0  0
   28.7568  -18.3271  -16.6933 O   0  0  0  0  0  0  0  0  0  0  0  0
   27.6388  -18.9965  -16.2129 C   0  0  0  0  0  0  0  0  0  0  0  0
   26.4070  -18.4118  -16.1710 C   0  0  0  0  0  0  0  0  0  0  0  0
   25.3276  -19.1289  -15.6811 C   0  0  0  0  0  0  0  0  0  0  0  0
   25.4532  -20.4254  -15.2296 C   0  0  0  0  0  0  0  0  0  0  0  0
   24.3026  -21.2004  -14.7030 C   0  0  0  0  0  0  0  0  0  0  0  0
   23.9589  -20.7638  -13.2744 C   0  0  2  0  0  0  0  0  0  0  0  0
   24.9730  -21.3198  -12.4243 N   0  0  0  0  0  0  0  0  0  0  0  0
   22.5972  -21.2673  -12.9728 C   0  0  0  0  0  0  0  0  0  0  0  0
   22.3499  -22.4411  -12.6010 O   0  0  0  0  0  0  0  0  0  0  0  0
   26.7110  -20.9857  -15.2860 C   0  0  0  0  0  0  0  0  0  0  0  0
   27.7959  -20.2787  -15.7733 C   0  0  0  0  0  0  0  0  0  0  0  0
   20.0524  -20.7058  -10.3488 C   0  0  0  0  0  0  0  0  0  0  0  0
   19.5141  -20.1400  -11.6368 C   0  0  1  0  0  0  0  0  0  0  0  0
   19.4390  -18.7496  -11.6198 O   0  0  0  0  0  0  0  0  0  0  0  0
   20.1350  -20.6973  -12.8592 C   0  0  2  0  0  0  0  0  0  0  0  0
   21.4992  -20.4031  -13.1018 N   0  0  0  0  0  0  0  0  0  0  0  0
   19.2768  -20.3472  -14.0284 C   0  0  0  0  0  0  0  0  0  0  0  0
   19.7695  -19.5628  -15.0606 O   0  0  0  0  0  0  0  0  0  0  0  0
   18.0959  -20.7515  -14.1056 O   0  0  0  0  0  0  0  0  0  0  0  0
  2  1  1  0
  3  2  1  0
  4  3  1  0
  5  4  1  0
  5  6  1  6
  7  8  2  0
  7  5  1  0
  9 10  1  0
 10 20  2  0
 11 12  2  0
 11 10  1  0
 12 13  1  0
 13 14  1  0
 13 19  2  0
 15 14  1  6
 15 16  1  0
 16  7  1  0
 17 15  1  0
 18 17  2  0
 20 19  1  0
 22 24  1  0
 22 21  1  1
 23 22  1  0
 24 25  1  6
 25 17  1  0
 26 27  1  0
 26 24  1  0
 28 26  2  0
M  END
$$$$
