MYT.pdb
     RDKit          3D

 28 28  0  0  1  0  0  0  0  0999 V2000
   20.4014  -18.8539  -17.3732 C   0  0  0  0  0  0  0  0  0  0  0  0
   18.8152  -18.1195  -16.9665 S   0  0  0  0  0  0  0  0  0  0  0  0
   18.2294  -17.0699  -18.3246 C   0  0  0  0  0  0  0  0  0  0  0  0
   19.2122  -15.9227  -18.4706 C   0  0  0  0  0  0  0  0  0  0  0  0
   18.9301  -14.9108  -17.3793 C   0  0  2  0  0  0  0  0  0  0  0  0
   17.5022  -14.6320  -17.3830 N   0  0  0  0  0  0  0  0  0  0  0  0
   19.6554  -13.6528  -17.5736 C   0  0  0  0  0  0  0  0  0  0  0  0
   20.9297  -13.6226  -17.5904 O   0  0  0  0  0  0  0  0  0  0  0  0
   21.2034  -13.6523  -23.6703 O   0  0  0  0  0  0  0  0  0  0  0  0
   20.7639  -12.8819  -22.6016 C   0  0  0  0  0  0  0  0  0  0  0  0
   21.5273  -11.8878  -22.0631 C   0  0  0  0  0  0  0  0  0  0  0  0
   21.0363  -11.1517  -20.9971 C   0  0  0  0  0  0  0  0  0  0  0  0
   19.7913  -11.3888  -20.4544 C   0  0  0  0  0  0  0  0  0  0  0  0
   19.2579  -10.6057  -19.3126 C   0  0  0  0  0  0  0  0  0  0  0  0
   19.7576  -11.1749  -17.9799 C   0  0  2  0  0  0  0  0  0  0  0  0
   19.0252  -12.3888  -17.7561 N   0  0  0  0  0  0  0  0  0  0  0  0
   19.5197  -10.1440  -16.9408 C   0  0  0  0  0  0  0  0  0  0  0  0
   18.4917  -10.0983  -16.2209 O   0  0  0  0  0  0  0  0  0  0  0  0
   19.0465  -12.3998  -21.0221 C   0  0  0  0  0  0  0  0  0  0  0  0
   19.5271  -13.1413  -22.0869 C   0  0  0  0  0  0  0  0  0  0  0  0
   20.7384   -7.4196  -13.3417 C   0  0  0  0  0  0  0  0  0  0  0  0
   20.5799   -8.5548  -14.3191 C   0  0  1  0  0  0  0  0  0  0  0  0
   19.6080   -9.4699  -13.9227 O   0  0  0  0  0  0  0  0  0  0  0  0
   20.4747   -8.1359  -15.7346 C   0  0  2  0  0  0  0  0  0  0  0  0
   20.4834   -9.1469  -16.7266 N   0  0  0  0  0  0  0  0  0  0  0  0
   21.5087   -7.0929  -15.9981 C   0  0  0  0  0  0  0  0  0  0  0  0
   21.4807   -5.8802  -15.3257 O   0  0  0  0  0  0  0  0  0  0  0  0
   22.4228   -7.2866  -16.8292 O   0  0  0  0  0  0  0  0  0  0  0  0
  2  1  1  0
  3  2  1  0
  4  3  1  0
  5  4  1  0
  5  6  1  6
  7  8  2  0
  7  5  1  0
  9 10  1  0
 10 20  2  0
 11 12  2  0
 11 10  1  0
 12 13  1  0
 13 14  1  0
 13 19  2  0
 15 14  1  6
 15 16  1  0
 16  7  1  0
 17 15  1  0
 18 17  2  0
 20 19  1  0
 22 24  1  0
 22 21  1  1
 23 22  1  0
 24 25  1  6
 25 17  1  0
 26 27  1  0
 26 24  1  0
 28 26  2  0
M  END
$$$$
