MYT.pdb
     RDKit          3D

 28 28  0  0  1  0  0  0  0  0999 V2000
   27.1035  -16.4268  -18.7305 C   0  0  0  0  0  0  0  0  0  0  0  0
   27.2253  -15.5916  -17.1466 S   0  0  0  0  0  0  0  0  0  0  0  0
   25.8290  -16.0387  -16.0790 C   0  0  0  0  0  0  0  0  0  0  0  0
   24.6401  -15.1985  -16.5077 C   0  0  0  0  0  0  0  0  0  0  0  0
   24.9191  -13.7552  -16.1426 C   0  0  2  0  0  0  0  0  0  0  0  0
   25.2125  -13.7005  -14.7186 N   0  0  0  0  0  0  0  0  0  0  0  0
   23.7849  -12.8715  -16.4233 C   0  0  0  0  0  0  0  0  0  0  0  0
   23.3538  -12.7099  -17.6121 O   0  0  0  0  0  0  0  0  0  0  0  0
   18.2507  -16.3943  -16.9440 O   0  0  0  0  0  0  0  0  0  0  0  0
   18.9065  -15.3016  -16.3918 C   0  0  0  0  0  0  0  0  0  0  0  0
   19.9533  -15.4453  -15.5290 C   0  0  0  0  0  0  0  0  0  0  0  0
   20.5691  -14.3183  -15.0095 C   0  0  0  0  0  0  0  0  0  0  0  0
   20.1590  -13.0431  -15.3355 C   0  0  0  0  0  0  0  0  0  0  0  0
   20.8125  -11.8307  -14.7834 C   0  0  0  0  0  0  0  0  0  0  0  0
   21.9242  -11.3373  -15.7164 C   0  0  2  0  0  0  0  0  0  0  0  0
   23.0815  -12.1356  -15.4274 N   0  0  0  0  0  0  0  0  0  0  0  0
   22.1225   -9.8932  -15.4443 C   0  0  0  0  0  0  0  0  0  0  0  0
   22.7289   -9.4457  -14.4397 O   0  0  0  0  0  0  0  0  0  0  0  0
   19.0991  -12.9338  -16.2095 C   0  0  0  0  0  0  0  0  0  0  0  0
   18.4767  -14.0526  -16.7343 C   0  0  0  0  0  0  0  0  0  0  0  0
   19.9917   -7.0491  -18.0212 C   0  0  0  0  0  0  0  0  0  0  0  0
   21.3643   -6.7519  -17.4767 C   0  0  1  0  0  0  0  0  0  0  0  0
   21.6091   -5.3859  -17.3604 O   0  0  0  0  0  0  0  0  0  0  0  0
   21.7320   -7.5365  -16.2769 C   0  0  2  0  0  0  0  0  0  0  0  0
   21.6131   -8.9463  -16.3458 N   0  0  0  0  0  0  0  0  0  0  0  0
   21.0020   -6.9762  -15.1024 C   0  0  0  0  0  0  0  0  0  0  0  0
   21.1842   -5.6562  -14.7175 O   0  0  0  0  0  0  0  0  0  0  0  0
   20.2107   -7.6812  -14.4386 O   0  0  0  0  0  0  0  0  0  0  0  0
  2  1  1  0
  3  2  1  0
  4  3  1  0
  5  4  1  0
  5  6  1  1
  7  8  2  0
  7  5  1  0
  9 10  1  0
 10 20  2  0
 11 12  2  0
 11 10  1  0
 12 13  1  0
 13 14  1  0
 13 19  2  0
 15 14  1  1
 15 16  1  0
 16  7  1  0
 17 15  1  0
 18 17  2  0
 20 19  1  0
 22 24  1  0
 22 21  1  1
 23 22  1  0
 24 25  1  6
 25 17  1  0
 26 27  1  0
 26 24  1  0
 28 26  2  0
M  END
$$$$
