MYT.pdb
     RDKit          3D

 28 28  0  0  1  0  0  0  0  0999 V2000
   31.4941  -23.8910  -20.3970 C   0  0  0  0  0  0  0  0  0  0  0  0
   30.8438  -22.2285  -20.5813 S   0  0  0  0  0  0  0  0  0  0  0  0
   31.3501  -21.1856  -19.1865 C   0  0  0  0  0  0  0  0  0  0  0  0
   30.7479  -21.7833  -17.9282 C   0  0  0  0  0  0  0  0  0  0  0  0
   29.2590  -21.5048  -17.9328 C   0  0  2  0  0  0  0  0  0  0  0  0
   29.0660  -20.0980  -18.2496 N   0  0  0  0  0  0  0  0  0  0  0  0
   28.6271  -21.7871  -16.6416 C   0  0  0  0  0  0  0  0  0  0  0  0
   28.7978  -22.9058  -16.0548 O   0  0  0  0  0  0  0  0  0  0  0  0
   23.9166  -21.1835   -9.2369 O   0  0  0  0  0  0  0  0  0  0  0  0
   24.6976  -20.9214  -10.3551 C   0  0  0  0  0  0  0  0  0  0  0  0
   26.0235  -21.2389  -10.4030 C   0  0  0  0  0  0  0  0  0  0  0  0
   26.7526  -20.9534  -11.5458 C   0  0  0  0  0  0  0  0  0  0  0  0
   26.1821  -20.3541  -12.6485 C   0  0  0  0  0  0  0  0  0  0  0  0
   26.9557  -20.0444  -13.8762 C   0  0  0  0  0  0  0  0  0  0  0  0
   26.9747  -21.2468  -14.8268 C   0  0  2  0  0  0  0  0  0  0  0  0
   27.7912  -20.8682  -15.9448 N   0  0  0  0  0  0  0  0  0  0  0  0
   25.5693  -21.5408  -15.1974 C   0  0  0  0  0  0  0  0  0  0  0  0
   24.8641  -20.7949  -15.9210 O   0  0  0  0  0  0  0  0  0  0  0  0
   24.8412  -20.0468  -12.5667 C   0  0  0  0  0  0  0  0  0  0  0  0
   24.1035  -20.3273  -11.4302 C   0  0  0  0  0  0  0  0  0  0  0  0
   24.2011  -25.1333  -16.4881 C   0  0  0  0  0  0  0  0  0  0  0  0
   23.4799  -24.6295  -15.2653 C   0  0  1  0  0  0  0  0  0  0  0  0
   23.6841  -25.4408  -14.1520 O   0  0  0  0  0  0  0  0  0  0  0  0
   23.6559  -23.1840  -15.0008 C   0  0  2  0  0  0  0  0  0  0  0  0
   24.9641  -22.7158  -14.7260 N   0  0  0  0  0  0  0  0  0  0  0  0
   22.6877  -22.7749  -13.9418 C   0  0  0  0  0  0  0  0  0  0  0  0
   21.3210  -22.8195  -14.1744 O   0  0  0  0  0  0  0  0  0  0  0  0
   23.0839  -22.3831  -12.8223 O   0  0  0  0  0  0  0  0  0  0  0  0
  2  1  1  0
  3  2  1  0
  4  3  1  0
  5  4  1  0
  5  6  1  1
  7  8  2  0
  7  5  1  0
  9 10  1  0
 10 20  2  0
 11 12  2  0
 11 10  1  0
 12 13  1  0
 13 14  1  0
 13 19  2  0
 15 14  1  1
 15 16  1  0
 16  7  1  0
 17 15  1  0
 18 17  2  0
 20 19  1  0
 22 24  1  0
 22 21  1  6
 23 22  1  0
 24 25  1  1
 25 17  1  0
 26 27  1  0
 26 24  1  0
 28 26  2  0
M  END
$$$$
