MYT.pdb
     RDKit          3D

 28 28  0  0  1  0  0  0  0  0999 V2000
   20.2998  -12.1681  -25.6455 C   0  0  0  0  0  0  0  0  0  0  0  0
   19.4968  -11.4525  -24.2088 S   0  0  0  0  0  0  0  0  0  0  0  0
   19.5201  -12.6158  -22.8176 C   0  0  0  0  0  0  0  0  0  0  0  0
   18.6875  -12.0100  -21.7027 C   0  0  0  0  0  0  0  0  0  0  0  0
   18.7592  -12.9284  -20.5004 C   0  0  2  0  0  0  0  0  0  0  0  0
   18.0519  -14.1564  -20.8300 N   0  0  0  0  0  0  0  0  0  0  0  0
   18.1506  -12.3419  -19.3038 C   0  0  0  0  0  0  0  0  0  0  0  0
   16.8965  -12.4288  -19.0921 O   0  0  0  0  0  0  0  0  0  0  0  0
   16.6761  -16.9812  -15.5887 O   0  0  0  0  0  0  0  0  0  0  0  0
   17.1561  -15.6793  -15.6487 C   0  0  0  0  0  0  0  0  0  0  0  0
   16.4796  -14.6318  -15.0954 C   0  0  0  0  0  0  0  0  0  0  0  0
   17.0075  -13.3542  -15.1864 C   0  0  0  0  0  0  0  0  0  0  0  0
   18.2039  -13.0992  -15.8221 C   0  0  0  0  0  0  0  0  0  0  0  0
   18.7762  -11.7340  -15.9247 C   0  0  0  0  0  0  0  0  0  0  0  0
   18.2509  -11.0146  -17.1722 C   0  0  2  0  0  0  0  0  0  0  0  0
   18.8793  -11.6436  -18.2989 N   0  0  0  0  0  0  0  0  0  0  0  0
   18.5939   -9.5787  -17.0329 C   0  0  0  0  0  0  0  0  0  0  0  0
   19.7237   -9.0986  -17.2983 O   0  0  0  0  0  0  0  0  0  0  0  0
   18.8611  -14.1795  -16.3699 C   0  0  0  0  0  0  0  0  0  0  0  0
   18.3431  -15.4597  -16.2849 C   0  0  0  0  0  0  0  0  0  0  0  0
   16.7271   -4.9718  -16.6331 C   0  0  0  0  0  0  0  0  0  0  0  0
   16.5256   -6.4585  -16.7679 C   0  0  1  0  0  0  0  0  0  0  0  0
   15.8855   -6.8059  -17.9548 O   0  0  0  0  0  0  0  0  0  0  0  0
   17.7262   -7.2704  -16.4683 C   0  0  2  0  0  0  0  0  0  0  0  0
   17.6179   -8.6783  -16.5793 N   0  0  0  0  0  0  0  0  0  0  0  0
   18.2555   -6.8594  -15.1352 C   0  0  0  0  0  0  0  0  0  0  0  0
   18.8706   -5.6280  -14.9649 O   0  0  0  0  0  0  0  0  0  0  0  0
   18.1575   -7.6131  -14.1421 O   0  0  0  0  0  0  0  0  0  0  0  0
  2  1  1  0
  3  2  1  0
  4  3  1  0
  5  4  1  0
  5  6  1  6
  7  8  2  0
  7  5  1  0
  9 10  1  0
 10 20  2  0
 11 12  2  0
 11 10  1  0
 12 13  1  0
 13 14  1  0
 13 19  2  0
 15 14  1  1
 15 16  1  0
 16  7  1  0
 17 15  1  0
 18 17  2  0
 20 19  1  0
 22 24  1  0
 22 21  1  6
 23 22  1  0
 24 25  1  1
 25 17  1  0
 26 27  1  0
 26 24  1  0
 28 26  2  0
M  END
$$$$
