MYT.pdb
     RDKit          3D

 28 28  0  0  1  0  0  0  0  0999 V2000
   29.4362  -19.9808   -8.4348 C   0  0  0  0  0  0  0  0  0  0  0  0
   30.2497  -21.4380   -9.0949 S   0  0  0  0  0  0  0  0  0  0  0  0
   29.8688  -21.6400  -10.8566 C   0  0  0  0  0  0  0  0  0  0  0  0
   28.7369  -20.6859  -11.1906 C   0  0  0  0  0  0  0  0  0  0  0  0
   27.5474  -21.5005  -11.6552 C   0  0  2  0  0  0  0  0  0  0  0  0
   28.0290  -22.5069  -12.5890 N   0  0  0  0  0  0  0  0  0  0  0  0
   26.5310  -20.6855  -12.3252 C   0  0  0  0  0  0  0  0  0  0  0  0
   25.9089  -19.7639  -11.7015 O   0  0  0  0  0  0  0  0  0  0  0  0
   29.3899  -16.4607  -17.3475 O   0  0  0  0  0  0  0  0  0  0  0  0
   28.3742  -17.3272  -16.9648 C   0  0  0  0  0  0  0  0  0  0  0  0
   27.1436  -16.8776  -16.5847 C   0  0  0  0  0  0  0  0  0  0  0  0
   26.1689  -17.7892  -16.2131 C   0  0  0  0  0  0  0  0  0  0  0  0
   26.3986  -19.1486  -16.2133 C   0  0  0  0  0  0  0  0  0  0  0  0
   25.3607  -20.1318  -15.8163 C   0  0  0  0  0  0  0  0  0  0  0  0
   25.1077  -20.0780  -14.3053 C   0  0  2  0  0  0  0  0  0  0  0  0
   26.1561  -20.8414  -13.6903 N   0  0  0  0  0  0  0  0  0  0  0  0
   23.7547  -20.6342  -14.0626 C   0  0  0  0  0  0  0  0  0  0  0  0
   23.5049  -21.8626  -13.9860 O   0  0  0  0  0  0  0  0  0  0  0  0
   27.6521  -19.5686  -16.6026 C   0  0  0  0  0  0  0  0  0  0  0  0
   28.6330  -18.6669  -16.9756 C   0  0  0  0  0  0  0  0  0  0  0  0
   19.2977  -19.9257  -12.1356 C   0  0  0  0  0  0  0  0  0  0  0  0
   20.7612  -19.6232  -12.3245 C   0  0  1  0  0  0  0  0  0  0  0  0
   21.5249  -19.9596  -11.2097 O   0  0  0  0  0  0  0  0  0  0  0  0
   21.3250  -20.0955  -13.6088 C   0  0  2  0  0  0  0  0  0  0  0  0
   22.6687  -19.7597  -13.9053 N   0  0  0  0  0  0  0  0  0  0  0  0
   20.3989  -19.6958  -14.7083 C   0  0  0  0  0  0  0  0  0  0  0  0
   19.1497  -20.2852  -14.8333 O   0  0  0  0  0  0  0  0  0  0  0  0
   20.7259  -18.8221  -15.5412 O   0  0  0  0  0  0  0  0  0  0  0  0
  2  1  1  0
  3  2  1  0
  4  3  1  0
  5  4  1  0
  5  6  1  6
  7  8  2  0
  7  5  1  0
  9 10  1  0
 10 20  2  0
 11 12  2  0
 11 10  1  0
 12 13  1  0
 13 14  1  0
 13 19  2  0
 15 14  1  6
 15 16  1  0
 16  7  1  0
 17 15  1  0
 18 17  2  0
 20 19  1  0
 22 24  1  0
 22 21  1  1
 23 22  1  0
 24 25  1  6
 25 17  1  0
 26 27  1  0
 26 24  1  0
 28 26  2  0
M  END
$$$$
