MYT.pdb
     RDKit          3D

 28 28  0  0  1  0  0  0  0  0999 V2000
   28.5225  -16.4290  -15.2707 C   0  0  0  0  0  0  0  0  0  0  0  0
   27.5183  -15.0260  -15.7646 S   0  0  0  0  0  0  0  0  0  0  0  0
   25.9496  -15.5840  -16.4838 C   0  0  0  0  0  0  0  0  0  0  0  0
   25.1125  -14.3498  -16.7652 C   0  0  0  0  0  0  0  0  0  0  0  0
   23.8187  -14.7895  -17.4185 C   0  0  2  0  0  0  0  0  0  0  0  0
   24.1469  -15.4109  -18.6924 N   0  0  0  0  0  0  0  0  0  0  0  0
   22.9007  -13.6740  -17.6620 C   0  0  0  0  0  0  0  0  0  0  0  0
   22.9850  -12.9703  -18.7217 O   0  0  0  0  0  0  0  0  0  0  0  0
   15.7096   -8.7045  -17.9121 O   0  0  0  0  0  0  0  0  0  0  0  0
   16.6592   -9.6986  -17.7147 C   0  0  0  0  0  0  0  0  0  0  0  0
   17.3214  -10.2842  -18.7537 C   0  0  0  0  0  0  0  0  0  0  0  0
   18.2588  -11.2711  -18.4960 C   0  0  0  0  0  0  0  0  0  0  0  0
   18.5506  -11.6880  -17.2147 C   0  0  0  0  0  0  0  0  0  0  0  0
   19.5527  -12.7446  -16.9297 C   0  0  0  0  0  0  0  0  0  0  0  0
   20.9770  -12.1864  -17.0280 C   0  0  2  0  0  0  0  0  0  0  0  0
   21.8630  -13.2851  -16.7674 N   0  0  0  0  0  0  0  0  0  0  0  0
   21.0923  -11.0896  -16.0367 C   0  0  0  0  0  0  0  0  0  0  0  0
   21.1136  -11.2673  -14.7937 O   0  0  0  0  0  0  0  0  0  0  0  0
   17.8638  -11.0759  -16.1887 C   0  0  0  0  0  0  0  0  0  0  0  0
   16.9255  -10.0892  -16.4347 C   0  0  0  0  0  0  0  0  0  0  0  0
   22.2174   -7.1529  -17.5862 C   0  0  0  0  0  0  0  0  0  0  0  0
   22.4127   -7.6301  -16.1709 C   0  0  1  0  0  0  0  0  0  0  0  0
   22.6514   -6.5849  -15.2823 O   0  0  0  0  0  0  0  0  0  0  0  0
   21.3970   -8.6003  -15.7046 C   0  0  2  0  0  0  0  0  0  0  0  0
   21.1848   -9.7632  -16.4849 N   0  0  0  0  0  0  0  0  0  0  0  0
   20.1237   -7.8664  -15.4472 C   0  0  0  0  0  0  0  0  0  0  0  0
   20.0755   -6.8304  -14.5263 O   0  0  0  0  0  0  0  0  0  0  0  0
   19.0723   -8.1667  -16.0541 O   0  0  0  0  0  0  0  0  0  0  0  0
  2  1  1  0
  3  2  1  0
  4  3  1  0
  5  4  1  0
  5  6  1  6
  7  8  2  0
  7  5  1  0
  9 10  1  0
 10 20  2  0
 11 12  2  0
 11 10  1  0
 12 13  1  0
 13 14  1  0
 13 19  2  0
 15 14  1  1
 15 16  1  0
 16  7  1  0
 17 15  1  0
 18 17  2  0
 20 19  1  0
 22 24  1  0
 22 21  1  6
 23 22  1  0
 24 25  1  6
 25 17  1  0
 26 27  1  0
 26 24  1  0
 28 26  2  0
M  END
$$$$
