MYT.pdb
     RDKit          3D

 28 28  0  0  1  0  0  0  0  0999 V2000
   31.3995  -17.4567  -17.8903 C   0  0  0  0  0  0  0  0  0  0  0  0
   31.1076  -18.1212  -19.5317 S   0  0  0  0  0  0  0  0  0  0  0  0
   30.7587  -19.8990  -19.4491 C   0  0  0  0  0  0  0  0  0  0  0  0
   30.2748  -20.2037  -18.0433 C   0  0  0  0  0  0  0  0  0  0  0  0
   28.8225  -20.6273  -18.1199 C   0  0  2  0  0  0  0  0  0  0  0  0
   28.0509  -19.4989  -18.6179 N   0  0  0  0  0  0  0  0  0  0  0  0
   28.2816  -21.0295  -16.8192 C   0  0  0  0  0  0  0  0  0  0  0  0
   28.6965  -22.0807  -16.2294 O   0  0  0  0  0  0  0  0  0  0  0  0
   24.3494  -21.0394   -8.9723 O   0  0  0  0  0  0  0  0  0  0  0  0
   24.9432  -20.6950  -10.1796 C   0  0  0  0  0  0  0  0  0  0  0  0
   26.2714  -20.8966  -10.4169 C   0  0  0  0  0  0  0  0  0  0  0  0
   26.8087  -20.5331  -11.6410 C   0  0  0  0  0  0  0  0  0  0  0  0
   26.0429  -19.9692  -12.6391 C   0  0  0  0  0  0  0  0  0  0  0  0
   26.6103  -19.5764  -13.9526 C   0  0  0  0  0  0  0  0  0  0  0  0
   26.6797  -20.7804  -14.8989 C   0  0  2  0  0  0  0  0  0  0  0  0
   27.2756  -20.3072  -16.1158 N   0  0  0  0  0  0  0  0  0  0  0  0
   25.2963  -21.2835  -15.0779 C   0  0  0  0  0  0  0  0  0  0  0  0
   24.4256  -20.7077  -15.7762 O   0  0  0  0  0  0  0  0  0  0  0  0
   24.7055  -19.7795  -12.3664 C   0  0  0  0  0  0  0  0  0  0  0  0
   24.1584  -20.1388  -11.1473 C   0  0  0  0  0  0  0  0  0  0  0  0
   22.3312  -25.2698  -14.3157 C   0  0  0  0  0  0  0  0  0  0  0  0
   23.6966  -24.6361  -14.3704 C   0  0  1  0  0  0  0  0  0  0  0  0
   24.5750  -25.3296  -15.1991 O   0  0  0  0  0  0  0  0  0  0  0  0
   23.6860  -23.1726  -14.5902 C   0  0  2  0  0  0  0  0  0  0  0  0
   24.9078  -22.4718  -14.4408 N   0  0  0  0  0  0  0  0  0  0  0  0
   22.6005  -22.5765  -13.7579 C   0  0  0  0  0  0  0  0  0  0  0  0
   21.2676  -22.8444  -14.0324 O   0  0  0  0  0  0  0  0  0  0  0  0
   22.8656  -21.8231  -12.7957 O   0  0  0  0  0  0  0  0  0  0  0  0
  2  1  1  0
  3  2  1  0
  4  3  1  0
  5  4  1  0
  5  6  1  1
  7  8  2  0
  7  5  1  0
  9 10  1  0
 10 20  2  0
 11 12  2  0
 11 10  1  0
 12 13  1  0
 13 14  1  0
 13 19  2  0
 15 14  1  1
 15 16  1  0
 16  7  1  0
 17 15  1  0
 18 17  2  0
 20 19  1  0
 22 24  1  0
 22 21  1  6
 23 22  1  0
 24 25  1  1
 25 17  1  0
 26 27  1  0
 26 24  1  0
 28 26  2  0
M  END
$$$$
