MYT.pdb
     RDKit          3D

 28 28  0  0  1  0  0  0  0  0999 V2000
   29.6115  -19.5850   -6.3048 C   0  0  0  0  0  0  0  0  0  0  0  0
   28.9096  -20.0261   -7.8967 S   0  0  0  0  0  0  0  0  0  0  0  0
   27.0977  -20.0254   -7.8188 C   0  0  0  0  0  0  0  0  0  0  0  0
   26.5826  -20.4415   -9.1844 C   0  0  0  0  0  0  0  0  0  0  0  0
   25.0812  -20.2425   -9.2091 C   0  0  2  0  0  0  0  0  0  0  0  0
   24.5111  -20.9841   -8.0947 N   0  0  0  0  0  0  0  0  0  0  0  0
   24.4685  -20.7169  -10.4523 C   0  0  0  0  0  0  0  0  0  0  0  0
   24.1861  -21.9488  -10.6197 O   0  0  0  0  0  0  0  0  0  0  0  0
   19.4058  -20.9362  -17.5793 O   0  0  0  0  0  0  0  0  0  0  0  0
   20.2383  -20.4930  -16.5598 C   0  0  0  0  0  0  0  0  0  0  0  0
   21.4171  -19.8549  -16.8132 C   0  0  0  0  0  0  0  0  0  0  0  0
   22.2069  -19.4350  -15.7554 C   0  0  0  0  0  0  0  0  0  0  0  0
   21.8419  -19.6400  -14.4418 C   0  0  0  0  0  0  0  0  0  0  0  0
   22.6819  -19.1940  -13.3029 C   0  0  0  0  0  0  0  0  0  0  0  0
   23.5111  -20.3578  -12.7480 C   0  0  2  0  0  0  0  0  0  0  0  0
   24.1417  -19.8740  -11.5528 N   0  0  0  0  0  0  0  0  0  0  0  0
   24.4751  -20.7569  -13.8017 C   0  0  0  0  0  0  0  0  0  0  0  0
   25.5111  -20.1069  -14.0870 O   0  0  0  0  0  0  0  0  0  0  0  0
   20.6455  -20.2873  -14.2213 C   0  0  0  0  0  0  0  0  0  0  0  0
   19.8490  -20.7110  -15.2704 C   0  0  0  0  0  0  0  0  0  0  0  0
   25.0708  -24.8122  -14.7009 C   0  0  0  0  0  0  0  0  0  0  0  0
   25.8472  -23.6638  -15.2901 C   0  0  1  0  0  0  0  0  0  0  0  0
   26.6777  -24.0602  -16.3353 O   0  0  0  0  0  0  0  0  0  0  0  0
   25.0361  -22.4614  -15.5849 C   0  0  2  0  0  0  0  0  0  0  0  0
   24.2419  -21.9264  -14.5412 N   0  0  0  0  0  0  0  0  0  0  0  0
   24.2320  -22.7221  -16.8144 C   0  0  0  0  0  0  0  0  0  0  0  0
   24.8484  -23.0962  -17.9992 O   0  0  0  0  0  0  0  0  0  0  0  0
   22.9866  -22.6100  -16.8062 O   0  0  0  0  0  0  0  0  0  0  0  0
  2  1  1  0
  3  2  1  0
  4  3  1  0
  5  4  1  0
  5  6  1  1
  7  8  2  0
  7  5  1  0
  9 10  1  0
 10 20  2  0
 11 12  2  0
 11 10  1  0
 12 13  1  0
 13 14  1  0
 13 19  2  0
 15 14  1  6
 15 16  1  0
 16  7  1  0
 17 15  1  0
 18 17  2  0
 20 19  1  0
 22 24  1  0
 22 21  1  6
 23 22  1  0
 24 25  1  1
 25 17  1  0
 26 27  1  0
 26 24  1  0
 28 26  2  0
M  END
$$$$
