MYT.pdb
     RDKit          3D

 28 28  0  0  1  0  0  0  0  0999 V2000
   34.7751  -30.3145  -19.7249 C   0  0  0  0  0  0  0  0  0  0  0  0
   35.4484  -30.7496  -18.1192 S   0  0  0  0  0  0  0  0  0  0  0  0
   34.5634  -32.1690  -17.4181 C   0  0  0  0  0  0  0  0  0  0  0  0
   33.1168  -32.0709  -17.8664 C   0  0  0  0  0  0  0  0  0  0  0  0
   32.3679  -33.2726  -17.3284 C   0  0  2  0  0  0  0  0  0  0  0  0
   32.8015  -34.4436  -18.0751 N   0  0  0  0  0  0  0  0  0  0  0  0
   30.9152  -33.1403  -17.4633 C   0  0  0  0  0  0  0  0  0  0  0  0
   30.3121  -33.5361  -18.5143 O   0  0  0  0  0  0  0  0  0  0  0  0
   22.3743  -32.8243  -15.6129 O   0  0  0  0  0  0  0  0  0  0  0  0
   23.7585  -32.7682  -15.5145 C   0  0  0  0  0  0  0  0  0  0  0  0
   24.4112  -31.6377  -15.1183 C   0  0  0  0  0  0  0  0  0  0  0  0
   25.7942  -31.6408  -15.0386 C   0  0  0  0  0  0  0  0  0  0  0  0
   26.5437  -32.7557  -15.3479 C   0  0  0  0  0  0  0  0  0  0  0  0
   28.0252  -32.7675  -15.2657 C   0  0  0  0  0  0  0  0  0  0  0  0
   28.6497  -32.4438  -16.6278 C   0  0  2  0  0  0  0  0  0  0  0  0
   30.0696  -32.5762  -16.4657 N   0  0  0  0  0  0  0  0  0  0  0  0
   28.2247  -31.0715  -16.9951 C   0  0  0  0  0  0  0  0  0  0  0  0
   28.6754  -30.0302  -16.4568 O   0  0  0  0  0  0  0  0  0  0  0  0
   25.8530  -33.8804  -15.7444 C   0  0  0  0  0  0  0  0  0  0  0  0
   24.4719  -33.8885  -15.8276 C   0  0  0  0  0  0  0  0  0  0  0  0
   25.8366  -28.2587  -20.3455 C   0  0  0  0  0  0  0  0  0  0  0  0
   26.6512  -29.4545  -19.9269 C   0  0  1  0  0  0  0  0  0  0  0  0
   27.8895  -29.5068  -20.5619 O   0  0  0  0  0  0  0  0  0  0  0  0
   26.7116  -29.6748  -18.4646 C   0  0  2  0  0  0  0  0  0  0  0  0
   27.2626  -30.8945  -18.0011 N   0  0  0  0  0  0  0  0  0  0  0  0
   25.3566  -29.4263  -17.8917 C   0  0  0  0  0  0  0  0  0  0  0  0
   24.4645  -30.4711  -17.7006 O   0  0  0  0  0  0  0  0  0  0  0  0
   24.9935  -28.2734  -17.5709 O   0  0  0  0  0  0  0  0  0  0  0  0
  2  1  1  0
  3  2  1  0
  4  3  1  0
  5  4  1  0
  5  6  1  6
  7  8  2  0
  7  5  1  0
  9 10  1  0
 10 20  2  0
 11 12  2  0
 11 10  1  0
 12 13  1  0
 13 14  1  0
 13 19  2  0
 15 14  1  1
 15 16  1  0
 16  7  1  0
 17 15  1  0
 18 17  2  0
 20 19  1  0
 22 24  1  0
 22 21  1  1
 23 22  1  0
 24 25  1  6
 25 17  1  0
 26 27  1  0
 26 24  1  0
 28 26  2  0
M  END
$$$$
