MYT.pdb
     RDKit          3D

 28 28  0  0  1  0  0  0  0  0999 V2000
   18.2664  -12.5633  -20.3443 C   0  0  0  0  0  0  0  0  0  0  0  0
   19.2067  -11.6795  -19.0971 S   0  0  0  0  0  0  0  0  0  0  0  0
   19.4931  -12.7314  -17.6477 C   0  0  0  0  0  0  0  0  0  0  0  0
   20.1593  -11.8744  -16.5870 C   0  0  0  0  0  0  0  0  0  0  0  0
   21.5308  -11.4734  -17.0895 C   0  0  2  0  0  0  0  0  0  0  0  0
   22.3769  -12.6569  -17.0793 N   0  0  0  0  0  0  0  0  0  0  0  0
   22.1569  -10.4405  -16.2605 C   0  0  0  0  0  0  0  0  0  0  0  0
   22.1795  -10.5393  -14.9897 O   0  0  0  0  0  0  0  0  0  0  0  0
   27.7397  -12.9056  -16.4059 O   0  0  0  0  0  0  0  0  0  0  0  0
   27.0300  -11.7119  -16.3829 C   0  0  0  0  0  0  0  0  0  0  0  0
   26.9231  -10.9546  -15.2533 C   0  0  0  0  0  0  0  0  0  0  0  0
   26.2020   -9.7723  -15.2901 C   0  0  0  0  0  0  0  0  0  0  0  0
   25.5817   -9.3277  -16.4382 C   0  0  0  0  0  0  0  0  0  0  0  0
   24.8070   -8.0631  -16.4863 C   0  0  0  0  0  0  0  0  0  0  0  0
   23.3876   -8.2720  -15.9464 C   0  0  2  0  0  0  0  0  0  0  0  0
   22.7782   -9.2690  -16.7799 N   0  0  0  0  0  0  0  0  0  0  0  0
   22.6970   -6.9607  -15.9967 C   0  0  0  0  0  0  0  0  0  0  0  0
   22.5675   -6.2761  -17.0416 O   0  0  0  0  0  0  0  0  0  0  0  0
   25.7096  -10.1165  -17.5610 C   0  0  0  0  0  0  0  0  0  0  0  0
   26.4274  -11.2991  -17.5354 C   0  0  0  0  0  0  0  0  0  0  0  0
   19.0628   -6.0875  -15.2954 C   0  0  0  0  0  0  0  0  0  0  0  0
   19.9452   -5.4201  -14.2732 C   0  0  1  0  0  0  0  0  0  0  0  0
   19.7875   -5.9577  -12.9983 O   0  0  0  0  0  0  0  0  0  0  0  0
   21.3557   -5.2588  -14.6914 C   0  0  2  0  0  0  0  0  0  0  0  0
   22.1452   -6.4274  -14.8220 N   0  0  0  0  0  0  0  0  0  0  0  0
   22.0016   -4.2510  -13.8008 C   0  0  0  0  0  0  0  0  0  0  0  0
   21.5688   -2.9333  -13.7893 O   0  0  0  0  0  0  0  0  0  0  0  0
   22.9460   -4.5691  -13.0453 O   0  0  0  0  0  0  0  0  0  0  0  0
  2  1  1  0
  3  2  1  0
  4  3  1  0
  5  4  1  0
  5  6  1  1
  7  8  2  0
  7  5  1  0
  9 10  1  0
 10 20  2  0
 11 12  2  0
 11 10  1  0
 12 13  1  0
 13 14  1  0
 13 19  2  0
 15 14  1  6
 15 16  1  0
 16  7  1  0
 17 15  1  0
 18 17  2  0
 20 19  1  0
 22 24  1  0
 22 21  1  6
 23 22  1  0
 24 25  1  1
 25 17  1  0
 26 27  1  0
 26 24  1  0
 28 26  2  0
M  END
$$$$
