MYT.pdb
     RDKit          3D

 28 28  0  0  1  0  0  0  0  0999 V2000
   29.5357  -16.7869  -15.7039 C   0  0  0  0  0  0  0  0  0  0  0  0
   29.7022  -18.1015  -16.9143 S   0  0  0  0  0  0  0  0  0  0  0  0
   28.4042  -19.3476  -16.6873 C   0  0  0  0  0  0  0  0  0  0  0  0
   27.5984  -18.9491  -15.4646 C   0  0  0  0  0  0  0  0  0  0  0  0
   26.6359  -20.0728  -15.1402 C   0  0  2  0  0  0  0  0  0  0  0  0
   25.6011  -20.0875  -16.1629 N   0  0  0  0  0  0  0  0  0  0  0  0
   26.0001  -19.9122  -13.8302 C   0  0  0  0  0  0  0  0  0  0  0  0
   25.3747  -18.8433  -13.5277 O   0  0  0  0  0  0  0  0  0  0  0  0
   19.9407  -19.9010  -14.5605 O   0  0  0  0  0  0  0  0  0  0  0  0
   20.9913  -20.2994  -13.7443 C   0  0  0  0  0  0  0  0  0  0  0  0
   21.1726  -19.7846  -12.4940 C   0  0  0  0  0  0  0  0  0  0  0  0
   22.2391  -20.2203  -11.7247 C   0  0  0  0  0  0  0  0  0  0  0  0
   23.1338  -21.1650  -12.1804 C   0  0  0  0  0  0  0  0  0  0  0  0
   24.2791  -21.6368  -11.3634 C   0  0  0  0  0  0  0  0  0  0  0  0
   25.4736  -20.6856  -11.4977 C   0  0  2  0  0  0  0  0  0  0  0  0
   26.0207  -20.9025  -12.8068 N   0  0  0  0  0  0  0  0  0  0  0  0
   26.4212  -21.0071  -10.4034 C   0  0  0  0  0  0  0  0  0  0  0  0
   27.2538  -21.9461  -10.4500 O   0  0  0  0  0  0  0  0  0  0  0  0
   22.9216  -21.6641  -13.4473 C   0  0  0  0  0  0  0  0  0  0  0  0
   21.8597  -21.2361  -14.2242 C   0  0  0  0  0  0  0  0  0  0  0  0
   29.4861  -19.9645   -8.6647 C   0  0  0  0  0  0  0  0  0  0  0  0
   28.3219  -19.6723   -7.7546 C   0  0  1  0  0  0  0  0  0  0  0  0
   28.0779  -18.3079   -7.6200 O   0  0  0  0  0  0  0  0  0  0  0  0
   27.1117  -20.4791   -8.0276 C   0  0  2  0  0  0  0  0  0  0  0  0
   26.4099  -20.2330   -9.2331 N   0  0  0  0  0  0  0  0  0  0  0  0
   26.2134  -20.4029   -6.8387 C   0  0  0  0  0  0  0  0  0  0  0  0
   26.6649  -20.7808   -5.5829 O   0  0  0  0  0  0  0  0  0  0  0  0
   25.0351  -19.9977   -6.9455 O   0  0  0  0  0  0  0  0  0  0  0  0
  2  1  1  0
  3  2  1  0
  4  3  1  0
  5  4  1  0
  5  6  1  6
  7  8  2  0
  7  5  1  0
  9 10  1  0
 10 20  2  0
 11 12  2  0
 11 10  1  0
 12 13  1  0
 13 14  1  0
 13 19  2  0
 15 14  1  1
 15 16  1  0
 16  7  1  0
 17 15  1  0
 18 17  2  0
 20 19  1  0
 22 24  1  0
 22 21  1  6
 23 22  1  0
 24 25  1  6
 25 17  1  0
 26 27  1  0
 26 24  1  0
 28 26  2  0
M  END
$$$$
