MYT.pdb
     RDKit          3D

 28 28  0  0  1  0  0  0  0  0999 V2000
   27.6404  -21.2739  -10.0150 C   0  0  0  0  0  0  0  0  0  0  0  0
   29.1705  -21.3938  -10.9454 S   0  0  0  0  0  0  0  0  0  0  0  0
   28.9156  -20.8760  -12.6647 C   0  0  0  0  0  0  0  0  0  0  0  0
   27.4423  -20.5513  -12.8294 C   0  0  0  0  0  0  0  0  0  0  0  0
   27.1763  -20.2698  -14.2937 C   0  0  2  0  0  0  0  0  0  0  0  0
   28.1109  -19.2442  -14.7312 N   0  0  0  0  0  0  0  0  0  0  0  0
   25.8114  -19.7981  -14.5399 C   0  0  0  0  0  0  0  0  0  0  0  0
   25.4133  -18.6713  -14.0960 O   0  0  0  0  0  0  0  0  0  0  0  0
   17.7264  -18.6212  -17.6903 O   0  0  0  0  0  0  0  0  0  0  0  0
   19.0196  -19.0831  -17.4827 C   0  0  0  0  0  0  0  0  0  0  0  0
   19.3090  -20.4137  -17.4007 C   0  0  0  0  0  0  0  0  0  0  0  0
   20.6183  -20.8158  -17.1925 C   0  0  0  0  0  0  0  0  0  0  0  0
   21.6509  -19.9115  -17.0638 C   0  0  0  0  0  0  0  0  0  0  0  0
   23.0558  -20.3333  -16.8401 C   0  0  0  0  0  0  0  0  0  0  0  0
   23.4639  -20.1178  -15.3784 C   0  0  2  0  0  0  0  0  0  0  0  0
   24.8348  -20.5299  -15.2741 N   0  0  0  0  0  0  0  0  0  0  0  0
   22.5426  -20.9204  -14.5382 C   0  0  0  0  0  0  0  0  0  0  0  0
   22.5020  -22.1756  -14.5442 O   0  0  0  0  0  0  0  0  0  0  0  0
   21.3239  -18.5756  -17.1517 C   0  0  0  0  0  0  0  0  0  0  0  0
   20.0196  -18.1630  -17.3594 C   0  0  0  0  0  0  0  0  0  0  0  0
   21.1929  -19.2543  -10.9114 C   0  0  0  0  0  0  0  0  0  0  0  0
   20.9362  -20.6769  -11.3347 C   0  0  1  0  0  0  0  0  0  0  0  0
   19.9885  -21.3101  -10.5347 O   0  0  0  0  0  0  0  0  0  0  0  0
   20.7176  -20.8551  -12.7876 C   0  0  2  0  0  0  0  0  0  0  0  0
   21.6511  -20.2656  -13.6748 N   0  0  0  0  0  0  0  0  0  0  0  0
   19.3175  -20.4516  -13.1090 C   0  0  0  0  0  0  0  0  0  0  0  0
   18.2412  -21.0674  -12.4875 O   0  0  0  0  0  0  0  0  0  0  0  0
   19.0814  -19.5511  -13.9439 O   0  0  0  0  0  0  0  0  0  0  0  0
  2  1  1  0
  3  2  1  0
  4  3  1  0
  5  4  1  0
  5  6  1  1
  7  8  2  0
  7  5  1  0
  9 10  1  0
 10 20  2  0
 11 12  2  0
 11 10  1  0
 12 13  1  0
 13 14  1  0
 13 19  2  0
 15 14  1  6
 15 16  1  0
 16  7  1  0
 17 15  1  0
 18 17  2  0
 20 19  1  0
 22 24  1  0
 22 21  1  6
 23 22  1  0
 24 25  1  6
 25 17  1  0
 26 27  1  0
 26 24  1  0
 28 26  2  0
M  END
$$$$
