RTE.pdb
     RDKit          3D

 28 27  0  0  1  0  0  0  0  0999 V2000
   17.2783  -11.0179  -22.3811 N   0  0  0  0  0  0  0  0  0  0  0  0
   18.1715  -12.1252  -22.2329 C   0  0  0  0  0  0  0  0  0  0  0  0
   18.8698  -12.4643  -23.2430 N   0  0  0  0  0  0  0  0  0  0  0  0
   18.2952  -12.8409  -21.0104 N   0  0  0  0  0  0  0  0  0  0  0  0
   17.6425  -12.3166  -19.8207 C   0  0  0  0  0  0  0  0  0  0  0  0
   18.4308  -11.1690  -19.2989 C   0  0  0  0  0  0  0  0  0  0  0  0
   17.8878  -10.5509  -18.0427 C   0  0  0  0  0  0  0  0  0  0  0  0
   18.3736  -11.1969  -16.7719 C   0  0  2  0  0  0  0  0  0  0  0  0
   17.5603  -12.3148  -16.4390 N   0  0  0  0  0  0  0  0  0  0  0  0
   18.4638  -10.1740  -15.6873 C   0  0  0  0  0  0  0  0  0  0  0  0
   17.4938  -10.0808  -14.9032 O   0  0  0  0  0  0  0  0  0  0  0  0
   19.5757  -13.2124  -23.2790 C   0  0  0  0  0  0  0  0  0  0  0  0
   18.2707   -9.7554  -13.1545 C   0  0  2  0  0  0  0  0  0  0  0  0
   19.5708   -8.9374  -13.1945 O   0  0  0  0  0  0  0  0  0  0  0  0
   20.5247   -9.7326  -12.6337 C   0  0  2  0  0  0  0  0  0  0  0  0
   19.7874   -8.3637  -14.4992 N   0  0  0  0  0  0  0  0  0  0  0  0
   19.5931   -9.3436  -15.5467 C   0  0  0  0  0  0  0  0  0  0  0  0
   20.9446   -7.5508  -14.8065 O   0  0  0  0  0  0  0  0  0  0  0  0
   21.5228   -7.6955  -15.9100 N   0  0  0  0  0  0  0  0  0  0  0  0
   21.5209   -6.5707  -13.9673 C   0  0  1  0  0  0  0  0  0  0  0  0
   22.0773   -5.3088  -14.3557 C   0  0  0  0  0  0  0  0  0  0  0  0
   21.4140   -4.6128  -15.4600 C   0  0  0  0  0  0  0  0  0  0  0  0
   21.9153   -3.3032  -15.9185 C   0  0  0  0  0  0  0  0  0  0  0  0
   21.2626   -2.6041  -16.9962 O   0  0  0  0  0  0  0  0  0  0  0  0
   21.7935   -1.4996  -17.3912 C   0  0  0  0  0  0  0  0  0  0  0  0
   22.5064   -4.5056  -13.1975 O   0  0  0  0  0  0  0  0  0  0  0  0
   21.8600   -4.5486  -12.1206 O   0  0  0  0  0  0  0  0  0  0  0  0
   20.1264   -2.9334  -17.6971 O   0  0  0  0  0  0  0  0  0  0  0  0
  2  1  1  0
  2  3  2  0
  4  2  1  0
  5  4  1  0
  6  5  1  0
  7  6  1  0
  8 10  1  0
  8  7  1  0
  8  9  1  1
 10 11  2  0
 13 12  1  1
 13 15  1  0
 14 13  1  0
 15 16  1  1
 16 10  1  0
 17 15  1  0
 18 17  2  0
 19 17  1  0
 20 19  1  0
 20 25  1  0
 20 21  1  1
 22 21  1  0
 23 22  1  0
 24 23  2  0
 25 28  1  0
 26 25  2  0
 27 23  1  0
M  END
$$$$
