RTE.pdb
     RDKit          3D

 28 27  0  0  1  0  0  0  0  0999 V2000
   21.3800  -19.9613  -11.2317 N   0  0  0  0  0  0  0  0  0  0  0  0
   21.3652  -21.2965  -11.7448 C   0  0  0  0  0  0  0  0  0  0  0  0
   20.3711  -21.6469  -12.4600 N   0  0  0  0  0  0  0  0  0  0  0  0
   22.4123  -22.2215  -11.4805 N   0  0  0  0  0  0  0  0  0  0  0  0
   23.5515  -21.7850  -10.6881 C   0  0  0  0  0  0  0  0  0  0  0  0
   24.7888  -21.9141  -11.5023 C   0  0  0  0  0  0  0  0  0  0  0  0
   25.0008  -20.8163  -12.5047 C   0  0  0  0  0  0  0  0  0  0  0  0
   26.2670  -20.9460  -13.3100 C   0  0  2  0  0  0  0  0  0  0  0  0
   27.3854  -21.1348  -12.4525 N   0  0  0  0  0  0  0  0  0  0  0  0
   26.4037  -19.7765  -14.2288 C   0  0  0  0  0  0  0  0  0  0  0  0
   26.7185  -18.6787  -13.7188 O   0  0  0  0  0  0  0  0  0  0  0  0
   20.1623  -22.5959  -12.7996 C   0  0  0  0  0  0  0  0  0  0  0  0
   28.6754  -18.8556  -16.4341 C   0  0  2  0  0  0  0  0  0  0  0  0
   27.4361  -18.8193  -17.3419 O   0  0  0  0  0  0  0  0  0  0  0  0
   27.6361  -19.7888  -18.2784 C   0  0  2  0  0  0  0  0  0  0  0  0
   26.2208  -18.8065  -16.5668 N   0  0  0  0  0  0  0  0  0  0  0  0
   26.1883  -19.8973  -15.6158 C   0  0  0  0  0  0  0  0  0  0  0  0
   24.9156  -18.6555  -17.1736 O   0  0  0  0  0  0  0  0  0  0  0  0
   23.9376  -19.2758  -16.6923 N   0  0  0  0  0  0  0  0  0  0  0  0
   24.6061  -17.8536  -18.2953 C   0  0  1  0  0  0  0  0  0  0  0  0
   23.3179  -17.6401  -18.8853 C   0  0  0  0  0  0  0  0  0  0  0  0
   22.1898  -17.5027  -17.9621 C   0  0  0  0  0  0  0  0  0  0  0  0
   21.9525  -16.2231  -17.2669 C   0  0  0  0  0  0  0  0  0  0  0  0
   20.7744  -16.0343  -16.4593 O   0  0  0  0  0  0  0  0  0  0  0  0
   19.9070  -16.9857  -16.4479 C   0  0  0  0  0  0  0  0  0  0  0  0
   23.3751  -16.7267  -20.0398 O   0  0  0  0  0  0  0  0  0  0  0  0
   24.4281  -16.0894  -20.2936 O   0  0  0  0  0  0  0  0  0  0  0  0
   20.4106  -14.9680  -15.6710 O   0  0  0  0  0  0  0  0  0  0  0  0
  2  1  1  0
  2  3  2  0
  4  2  1  0
  5  4  1  0
  6  5  1  0
  7  6  1  0
  8 10  1  0
  8  7  1  0
  8  9  1  1
 10 11  2  0
 13 12  1  6
 13 15  1  0
 14 13  1  0
 15 16  1  6
 16 10  1  0
 17 15  1  0
 18 17  2  0
 19 17  1  0
 20 19  1  0
 20 25  1  0
 20 21  1  6
 22 21  1  0
 23 22  1  0
 24 23  2  0
 25 28  1  0
 26 25  2  0
 27 23  1  0
M  END
$$$$
