RTE.pdb
     RDKit          3D

 28 27  0  0  1  0  0  0  0  0999 V2000
   31.2448  -22.8356  -18.4321 N   0  0  0  0  0  0  0  0  0  0  0  0
   30.9392  -22.4426  -19.7731 C   0  0  0  0  0  0  0  0  0  0  0  0
   31.5818  -23.0055  -20.7180 N   0  0  0  0  0  0  0  0  0  0  0  0
   29.9557  -21.4593  -20.0691 N   0  0  0  0  0  0  0  0  0  0  0  0
   29.0381  -21.0454  -19.0188 C   0  0  0  0  0  0  0  0  0  0  0  0
   28.6013  -22.2434  -18.2543 C   0  0  0  0  0  0  0  0  0  0  0  0
   28.5046  -22.0425  -16.7693 C   0  0  0  0  0  0  0  0  0  0  0  0
   27.6078  -20.9063  -16.3530 C   0  0  2  0  0  0  0  0  0  0  0  0
   28.1796  -20.1943  -15.2631 N   0  0  0  0  0  0  0  0  0  0  0  0
   26.2327  -21.4216  -16.0802 C   0  0  0  0  0  0  0  0  0  0  0  0
   26.0289  -22.6416  -16.2655 O   0  0  0  0  0  0  0  0  0  0  0  0
   31.4988  -22.8030  -21.7237 C   0  0  0  0  0  0  0  0  0  0  0  0
   22.4826  -22.5475  -13.9751 C   0  0  2  0  0  0  0  0  0  0  0  0
   23.8614  -22.2481  -14.5839 O   0  0  0  0  0  0  0  0  0  0  0  0
   24.2390  -23.3912  -15.2225 C   0  0  1  0  0  0  0  0  0  0  0  0
   23.8579  -20.9938  -15.2943 N   0  0  0  0  0  0  0  0  0  0  0  0
   25.2012  -20.5733  -15.6319 C   0  0  0  0  0  0  0  0  0  0  0  0
   23.0921  -19.8506  -14.8457 O   0  0  0  0  0  0  0  0  0  0  0  0
   23.6802  -18.7663  -14.6195 N   0  0  0  0  0  0  0  0  0  0  0  0
   21.6967  -19.8175  -14.6244 C   0  0  1  0  0  0  0  0  0  0  0  0
   20.9048  -18.6937  -14.2210 C   0  0  0  0  0  0  0  0  0  0  0  0
   21.1944  -17.4185  -14.8796 C   0  0  0  0  0  0  0  0  0  0  0  0
   20.6298  -17.1269  -16.2111 C   0  0  0  0  0  0  0  0  0  0  0  0
   19.8466  -15.9378  -16.4316 O   0  0  0  0  0  0  0  0  0  0  0  0
   20.4794  -14.8192  -16.5082 C   0  0  0  0  0  0  0  0  0  0  0  0
   19.4912  -19.0515  -14.0100 O   0  0  0  0  0  0  0  0  0  0  0  0
   19.0286  -20.1187  -14.4860 O   0  0  0  0  0  0  0  0  0  0  0  0
   18.4868  -15.7956  -16.5790 O   0  0  0  0  0  0  0  0  0  0  0  0
  2  1  1  0
  2  3  2  0
  4  2  1  0
  5  4  1  0
  6  5  1  0
  7  6  1  0
  8 10  1  0
  8  7  1  0
  8  9  1  1
 10 11  2  0
 13 12  1  1
 13 15  1  0
 14 13  1  0
 15 16  1  1
 16 10  1  0
 17 15  1  0
 18 17  2  0
 19 17  1  0
 20 19  1  0
 20 25  1  0
 20 21  1  1
 22 21  1  0
 23 22  1  0
 24 23  2  0
 25 28  1  0
 26 25  2  0
 27 23  1  0
M  END
$$$$
