RTE.pdb
     RDKit          3D

 28 27  0  0  1  0  0  0  0  0999 V2000
   18.4295  -22.7526  -13.0841 N   0  0  0  0  0  0  0  0  0  0  0  0
   18.6220  -21.7776  -14.1129 C   0  0  0  0  0  0  0  0  0  0  0  0
   17.5904  -21.1908  -14.5756 N   0  0  0  0  0  0  0  0  0  0  0  0
   19.9108  -21.4553  -14.6200 N   0  0  0  0  0  0  0  0  0  0  0  0
   21.0678  -22.1692  -14.1021 C   0  0  0  0  0  0  0  0  0  0  0  0
   22.2792  -21.7396  -14.8495 C   0  0  0  0  0  0  0  0  0  0  0  0
   22.6944  -20.3162  -14.6118 C   0  0  0  0  0  0  0  0  0  0  0  0
   23.9139  -19.8873  -15.3846 C   0  0  2  0  0  0  0  0  0  0  0  0
   24.9716  -20.8203  -15.2040 N   0  0  0  0  0  0  0  0  0  0  0  0
   24.2782  -18.4862  -15.0171 C   0  0  0  0  0  0  0  0  0  0  0  0
   25.2240  -18.3301  -14.2137 O   0  0  0  0  0  0  0  0  0  0  0  0
   17.5597  -20.5365  -15.3696 C   0  0  0  0  0  0  0  0  0  0  0  0
   26.2567  -16.8429  -14.8945 C   0  0  2  0  0  0  0  0  0  0  0  0
   25.4226  -15.8625  -15.7335 O   0  0  0  0  0  0  0  0  0  0  0  0
   25.8769  -15.9914  -17.0117 C   0  0  2  0  0  0  0  0  0  0  0  0
   24.0155  -15.9997  -15.4521 N   0  0  0  0  0  0  0  0  0  0  0  0
   23.5885  -17.3793  -15.5501 C   0  0  0  0  0  0  0  0  0  0  0  0
   23.0171  -15.1412  -16.0527 O   0  0  0  0  0  0  0  0  0  0  0  0
   22.3195  -15.5772  -16.9993 N   0  0  0  0  0  0  0  0  0  0  0  0
   22.7277  -13.8101  -15.6764 C   0  0  1  0  0  0  0  0  0  0  0  0
   21.6898  -12.9656  -16.1888 C   0  0  0  0  0  0  0  0  0  0  0  0
   21.1522  -11.9591  -15.2714 C   0  0  0  0  0  0  0  0  0  0  0  0
   20.1143  -11.0165  -15.7309 C   0  0  0  0  0  0  0  0  0  0  0  0
   19.6549   -9.9550  -14.8717 O   0  0  0  0  0  0  0  0  0  0  0  0
   20.2140   -9.8455  -13.7171 C   0  0  0  0  0  0  0  0  0  0  0  0
   21.9346  -12.5612  -17.5842 O   0  0  0  0  0  0  0  0  0  0  0  0
   23.0868  -12.2220  -17.9541 O   0  0  0  0  0  0  0  0  0  0  0  0
   18.6835   -9.0062  -15.0890 O   0  0  0  0  0  0  0  0  0  0  0  0
  2  1  1  0
  2  3  2  0
  4  2  1  0
  5  4  1  0
  6  5  1  0
  7  6  1  0
  8 10  1  0
  8  7  1  0
  8  9  1  1
 10 11  2  0
 13 12  1  1
 13 15  1  0
 14 13  1  0
 15 16  1  1
 16 10  1  0
 17 15  1  0
 18 17  2  0
 19 17  1  0
 20 19  1  0
 20 25  1  0
 20 21  1  6
 22 21  1  0
 23 22  1  0
 24 23  2  0
 25 28  1  0
 26 25  2  0
 27 23  1  0
M  END
$$$$
