RTE.pdb
     RDKit          3D

 28 27  0  0  1  0  0  0  0  0999 V2000
   19.4996  -16.2442  -19.7994 N   0  0  0  0  0  0  0  0  0  0  0  0
   18.8062  -15.4542  -18.8292 C   0  0  0  0  0  0  0  0  0  0  0  0
   17.6612  -14.9946  -19.1461 N   0  0  0  0  0  0  0  0  0  0  0  0
   19.3540  -15.1761  -17.5468 N   0  0  0  0  0  0  0  0  0  0  0  0
   20.7282  -15.5656  -17.2707 C   0  0  0  0  0  0  0  0  0  0  0  0
   21.2394  -16.3824  -18.4030 C   0  0  0  0  0  0  0  0  0  0  0  0
   22.6309  -16.9154  -18.2177 C   0  0  0  0  0  0  0  0  0  0  0  0
   23.1914  -16.7217  -16.8332 C   0  0  2  0  0  0  0  0  0  0  0  0
   23.7753  -15.4312  -16.7084 N   0  0  0  0  0  0  0  0  0  0  0  0
   24.1263  -17.8394  -16.5054 C   0  0  0  0  0  0  0  0  0  0  0  0
   23.7027  -19.0063  -16.6577 O   0  0  0  0  0  0  0  0  0  0  0  0
   17.0663  -14.3791  -18.5746 C   0  0  0  0  0  0  0  0  0  0  0  0
   27.3280  -18.5543  -18.0030 C   0  0  2  0  0  0  0  0  0  0  0  0
   27.6165  -18.4519  -16.4972 O   0  0  0  0  0  0  0  0  0  0  0  0
   28.3792  -17.3333  -16.3427 C   0  0  2  0  0  0  0  0  0  0  0  0
   26.4122  -18.6152  -15.7221 N   0  0  0  0  0  0  0  0  0  0  0  0
   25.4347  -17.5969  -16.0426 C   0  0  0  0  0  0  0  0  0  0  0  0
   26.4341  -18.8304  -14.2910 O   0  0  0  0  0  0  0  0  0  0  0  0
   25.7892  -18.0580  -13.5426 N   0  0  0  0  0  0  0  0  0  0  0  0
   27.1303  -19.8567  -13.6135 C   0  0  1  0  0  0  0  0  0  0  0  0
   27.0243  -20.2156  -12.2305 C   0  0  0  0  0  0  0  0  0  0  0  0
   25.6792  -20.2035  -11.6523 C   0  0  0  0  0  0  0  0  0  0  0  0
   25.4747  -20.5893  -10.2430 C   0  0  0  0  0  0  0  0  0  0  0  0
   24.1450  -20.7265   -9.7052 O   0  0  0  0  0  0  0  0  0  0  0  0
   23.1592  -20.5435  -10.5130 C   0  0  0  0  0  0  0  0  0  0  0  0
   27.9154  -21.3328  -11.8719 O   0  0  0  0  0  0  0  0  0  0  0  0
   28.1753  -22.2319  -12.7105 O   0  0  0  0  0  0  0  0  0  0  0  0
   23.7408  -21.0311   -8.4267 O   0  0  0  0  0  0  0  0  0  0  0  0
  2  1  1  0
  2  3  2  0
  4  2  1  0
  5  4  1  0
  6  5  1  0
  7  6  1  0
  8 10  1  0
  8  7  1  0
  8  9  1  6
 10 11  2  0
 13 12  1  6
 13 15  1  0
 14 13  1  0
 15 16  1  1
 16 10  1  0
 17 15  1  0
 18 17  2  0
 19 17  1  0
 20 19  1  0
 20 25  1  0
 20 21  1  1
 22 21  1  0
 23 22  1  0
 24 23  2  0
 25 28  1  0
 26 25  2  0
 27 23  1  0
M  END
$$$$
