RTE.pdb
     RDKit          3D

 28 27  0  0  1  0  0  0  0  0999 V2000
   24.5739  -24.2449  -13.4944 N   0  0  0  0  0  0  0  0  0  0  0  0
   24.6195  -24.5965  -14.8802 C   0  0  0  0  0  0  0  0  0  0  0  0
   25.3217  -25.6055  -15.2141 N   0  0  0  0  0  0  0  0  0  0  0  0
   23.9143  -23.8612  -15.8722 N   0  0  0  0  0  0  0  0  0  0  0  0
   23.4308  -22.5283  -15.5470 C   0  0  0  0  0  0  0  0  0  0  0  0
   24.5800  -21.6818  -15.1306 C   0  0  0  0  0  0  0  0  0  0  0  0
   24.2263  -20.2630  -14.7888 C   0  0  0  0  0  0  0  0  0  0  0  0
   23.8259  -19.4202  -15.9711 C   0  0  2  0  0  0  0  0  0  0  0  0
   24.6580  -19.7030  -17.0889 N   0  0  0  0  0  0  0  0  0  0  0  0
   23.8105  -17.9783  -15.5818 C   0  0  0  0  0  0  0  0  0  0  0  0
   23.1711  -17.6677  -14.5527 O   0  0  0  0  0  0  0  0  0  0  0  0
   25.4962  -25.9435  -16.1705 C   0  0  0  0  0  0  0  0  0  0  0  0
   26.5738  -15.9144  -14.6264 C   0  0  2  0  0  0  0  0  0  0  0  0
   25.9320  -15.1761  -15.8113 O   0  0  0  0  0  0  0  0  0  0  0  0
   26.8281  -15.2696  -16.8336 C   0  0  2  0  0  0  0  0  0  0  0  0
   24.5667  -15.5939  -16.0099 N   0  0  0  0  0  0  0  0  0  0  0  0
   24.4867  -17.0012  -16.3387 C   0  0  0  0  0  0  0  0  0  0  0  0
   23.6409  -14.8508  -16.8378 O   0  0  0  0  0  0  0  0  0  0  0  0
   22.9649  -15.4578  -17.7023 N   0  0  0  0  0  0  0  0  0  0  0  0
   23.4031  -13.4591  -16.7791 C   0  0  1  0  0  0  0  0  0  0  0  0
   22.3422  -12.7290  -17.4072 C   0  0  0  0  0  0  0  0  0  0  0  0
   21.0324  -13.3822  -17.4476 C   0  0  0  0  0  0  0  0  0  0  0  0
   20.5071  -13.9115  -18.7206 C   0  0  0  0  0  0  0  0  0  0  0  0
   19.1425  -14.3633  -18.8200 O   0  0  0  0  0  0  0  0  0  0  0  0
   18.7478  -14.8038  -19.9636 C   0  0  0  0  0  0  0  0  0  0  0  0
   22.3828  -11.2923  -17.0834 O   0  0  0  0  0  0  0  0  0  0  0  0
   23.2200  -10.8513  -16.2563 O   0  0  0  0  0  0  0  0  0  0  0  0
   18.1576  -14.4031  -17.8613 O   0  0  0  0  0  0  0  0  0  0  0  0
  2  1  1  0
  2  3  2  0
  4  2  1  0
  5  4  1  0
  6  5  1  0
  7  6  1  0
  8 10  1  0
  8  7  1  0
  8  9  1  6
 10 11  2  0
 13 12  1  1
 13 15  1  0
 14 13  1  0
 15 16  1  1
 16 10  1  0
 17 15  1  0
 18 17  2  0
 19 17  1  0
 20 19  1  0
 20 25  1  0
 20 21  1  6
 22 21  1  0
 23 22  1  0
 24 23  2  0
 25 28  1  0
 26 25  2  0
 27 23  1  0
M  END
$$$$
