RTE.pdb
     RDKit          3D

 28 27  0  0  1  0  0  0  0  0999 V2000
   18.8533  -23.6084   -6.4064 N   0  0  0  0  0  0  0  0  0  0  0  0
   19.4347  -23.6402   -7.7130 C   0  0  0  0  0  0  0  0  0  0  0  0
   18.6943  -24.0036   -8.6838 N   0  0  0  0  0  0  0  0  0  0  0  0
   20.7909  -23.2833   -7.9479 N   0  0  0  0  0  0  0  0  0  0  0  0
   21.2069  -21.9097   -7.7100 C   0  0  0  0  0  0  0  0  0  0  0  0
   21.2207  -21.1747   -9.0023 C   0  0  0  0  0  0  0  0  0  0  0  0
   22.4682  -20.3801   -9.2619 C   0  0  0  0  0  0  0  0  0  0  0  0
   23.6530  -21.2056   -9.6899 C   0  0  2  0  0  0  0  0  0  0  0  0
   24.5437  -21.4014   -8.5990 N   0  0  0  0  0  0  0  0  0  0  0  0
   24.2952  -20.5854  -10.8873 C   0  0  0  0  0  0  0  0  0  0  0  0
   25.2179  -19.7657  -10.6847 O   0  0  0  0  0  0  0  0  0  0  0  0
   18.9860  -24.1414   -9.6612 C   0  0  0  0  0  0  0  0  0  0  0  0
   26.6462  -21.3237  -12.6115 C   0  0  2  0  0  0  0  0  0  0  0  0
   25.6465  -21.2217  -13.7739 O   0  0  0  0  0  0  0  0  0  0  0  0
   25.4711  -22.4963  -14.2228 C   0  0  2  0  0  0  0  0  0  0  0  0
   24.5032  -20.4221  -13.4113 N   0  0  0  0  0  0  0  0  0  0  0  0
   23.8834  -20.9058  -12.1959 C   0  0  0  0  0  0  0  0  0  0  0  0
   23.4772  -20.0585  -14.3652 O   0  0  0  0  0  0  0  0  0  0  0  0
   22.3735  -20.6535  -14.3387 N   0  0  0  0  0  0  0  0  0  0  0  0
   23.5839  -19.0661  -15.3656 C   0  0  1  0  0  0  0  0  0  0  0  0
   22.5643  -18.6302  -16.2730 C   0  0  0  0  0  0  0  0  0  0  0  0
   22.2529  -17.1995  -16.2695 C   0  0  0  0  0  0  0  0  0  0  0  0
   21.2719  -16.6522  -17.2260 C   0  0  0  0  0  0  0  0  0  0  0  0
   20.9228  -15.2545  -17.1999 O   0  0  0  0  0  0  0  0  0  0  0  0
   20.0017  -14.8604  -18.0087 C   0  0  0  0  0  0  0  0  0  0  0  0
   22.6464  -19.3114  -17.5768 O   0  0  0  0  0  0  0  0  0  0  0  0
   21.7068  -19.2119  -18.4054 O   0  0  0  0  0  0  0  0  0  0  0  0
   21.4287  -14.2363  -16.4267 O   0  0  0  0  0  0  0  0  0  0  0  0
  2  1  1  0
  2  3  2  0
  4  2  1  0
  5  4  1  0
  6  5  1  0
  7  6  1  0
  8 10  1  0
  8  7  1  0
  8  9  1  1
 10 11  2  0
 13 12  1  6
 13 15  1  0
 14 13  1  0
 15 16  1  6
 16 10  1  0
 17 15  1  0
 18 17  2  0
 19 17  1  0
 20 19  1  0
 20 25  1  0
 20 21  1  6
 22 21  1  0
 23 22  1  0
 24 23  2  0
 25 28  1  0
 26 25  2  0
 27 23  1  0
M  END
$$$$
