RTE.pdb
     RDKit          3D

 28 27  0  0  1  0  0  0  0  0999 V2000
   18.3619  -21.2277   -9.9318 N   0  0  0  0  0  0  0  0  0  0  0  0
   18.7478  -22.4790   -9.3561 C   0  0  0  0  0  0  0  0  0  0  0  0
   17.9190  -23.0564   -8.5800 N   0  0  0  0  0  0  0  0  0  0  0  0
   20.0081  -23.0802   -9.6246 N   0  0  0  0  0  0  0  0  0  0  0  0
   20.9145  -22.4253  -10.5551 C   0  0  0  0  0  0  0  0  0  0  0  0
   21.7525  -21.4477   -9.8116 C   0  0  0  0  0  0  0  0  0  0  0  0
   22.7335  -20.6874  -10.6570 C   0  0  0  0  0  0  0  0  0  0  0  0
   24.1776  -21.0061  -10.3718 C   0  0  2  0  0  0  0  0  0  0  0  0
   24.4984  -20.6974   -9.0214 N   0  0  0  0  0  0  0  0  0  0  0  0
   25.0529  -20.3216  -11.3699 C   0  0  0  0  0  0  0  0  0  0  0  0
   25.4509  -19.1693  -11.0906 O   0  0  0  0  0  0  0  0  0  0  0  0
   18.0520  -23.9564   -8.0986 C   0  0  0  0  0  0  0  0  0  0  0  0
   28.2284  -20.8870  -12.8661 C   0  0  2  0  0  0  0  0  0  0  0  0
   27.2793  -20.8505  -14.0740 O   0  0  0  0  0  0  0  0  0  0  0  0
   27.3330  -22.0964  -14.6233 C   0  0  2  0  0  0  0  0  0  0  0  0
   26.0065  -20.2732  -13.7213 N   0  0  0  0  0  0  0  0  0  0  0  0
   25.4199  -20.9429  -12.5799 C   0  0  0  0  0  0  0  0  0  0  0  0
   24.9786  -20.0029  -14.7036 O   0  0  0  0  0  0  0  0  0  0  0  0
   23.8043  -20.3863  -14.4871 N   0  0  0  0  0  0  0  0  0  0  0  0
   25.1571  -19.3267  -15.9317 C   0  0  1  0  0  0  0  0  0  0  0  0
   24.1889  -18.5503  -16.6477 C   0  0  0  0  0  0  0  0  0  0  0  0
   23.2724  -17.7416  -15.8415 C   0  0  0  0  0  0  0  0  0  0  0  0
   21.9257  -18.2494  -15.5171 C   0  0  0  0  0  0  0  0  0  0  0  0
   20.8223  -17.3404  -15.3376 O   0  0  0  0  0  0  0  0  0  0  0  0
   20.9328  -16.1672  -15.8564 C   0  0  0  0  0  0  0  0  0  0  0  0
   24.7497  -17.9419  -17.8668 O   0  0  0  0  0  0  0  0  0  0  0  0
   25.9940  -17.8843  -18.0330 O   0  0  0  0  0  0  0  0  0  0  0  0
   19.6287  -17.5255  -14.6805 O   0  0  0  0  0  0  0  0  0  0  0  0
  2  1  1  0
  2  3  2  0
  4  2  1  0
  5  4  1  0
  6  5  1  0
  7  6  1  0
  8 10  1  0
  8  7  1  0
  8  9  1  1
 10 11  2  0
 13 12  1  6
 13 15  1  0
 14 13  1  0
 15 16  1  6
 16 10  1  0
 17 15  1  0
 18 17  2  0
 19 17  1  0
 20 19  1  0
 20 25  1  0
 20 21  1  6
 22 21  1  0
 23 22  1  0
 24 23  2  0
 25 28  1  0
 26 25  2  0
 27 23  1  0
M  END
$$$$
