RTE.pdb
     RDKit          3D

 28 27  0  0  1  0  0  0  0  0999 V2000
   28.2035  -28.7303  -16.2476 N   0  0  0  0  0  0  0  0  0  0  0  0
   28.5199  -28.2210  -17.5463 C   0  0  0  0  0  0  0  0  0  0  0  0
   29.6284  -28.5706  -18.0676 N   0  0  0  0  0  0  0  0  0  0  0  0
   27.6443  -27.3520  -18.2535 N   0  0  0  0  0  0  0  0  0  0  0  0
   26.7205  -26.5194  -17.4987 C   0  0  0  0  0  0  0  0  0  0  0  0
   27.4176  -25.9823  -16.3002 C   0  0  0  0  0  0  0  0  0  0  0  0
   27.0667  -24.5650  -15.9497 C   0  0  0  0  0  0  0  0  0  0  0  0
   27.7915  -23.5257  -16.7639 C   0  0  2  0  0  0  0  0  0  0  0  0
   29.1979  -23.7163  -16.6763 N   0  0  0  0  0  0  0  0  0  0  0  0
   27.3426  -22.1607  -16.3562 C   0  0  0  0  0  0  0  0  0  0  0  0
   28.2118  -21.3787  -15.9120 O   0  0  0  0  0  0  0  0  0  0  0  0
   29.9807  -28.3063  -18.9978 C   0  0  0  0  0  0  0  0  0  0  0  0
   27.8041  -19.7562  -16.8004 C   0  0  2  0  0  0  0  0  0  0  0  0
   26.3065  -19.4461  -16.9497 O   0  0  0  0  0  0  0  0  0  0  0  0
   26.1074  -19.2193  -18.2785 C   0  0  2  0  0  0  0  0  0  0  0  0
   25.4997  -20.4188  -16.2563 N   0  0  0  0  0  0  0  0  0  0  0  0
   25.9956  -21.7627  -16.4647 C   0  0  0  0  0  0  0  0  0  0  0  0
   24.0542  -20.4206  -16.3285 O   0  0  0  0  0  0  0  0  0  0  0  0
   23.4548  -21.4778  -16.6381 N   0  0  0  0  0  0  0  0  0  0  0  0
   23.2063  -19.3180  -16.0788 C   0  0  1  0  0  0  0  0  0  0  0  0
   21.9146  -19.3348  -15.4592 C   0  0  0  0  0  0  0  0  0  0  0  0
   21.7576  -20.2107  -14.2964 C   0  0  0  0  0  0  0  0  0  0  0  0
   20.4628  -20.2841  -13.5930 C   0  0  0  0  0  0  0  0  0  0  0  0
   19.4706  -21.2539  -13.9815 O   0  0  0  0  0  0  0  0  0  0  0  0
   19.8904  -22.4148  -14.3471 C   0  0  0  0  0  0  0  0  0  0  0  0
   21.3065  -17.9943  -15.3955 O   0  0  0  0  0  0  0  0  0  0  0  0
   22.0124  -16.9888  -15.1311 O   0  0  0  0  0  0  0  0  0  0  0  0
   18.1010  -21.1402  -14.0279 O   0  0  0  0  0  0  0  0  0  0  0  0
  2  1  1  0
  2  3  2  0
  4  2  1  0
  5  4  1  0
  6  5  1  0
  7  6  1  0
  8 10  1  0
  8  7  1  0
  8  9  1  1
 10 11  2  0
 13 12  1  1
 13 15  1  0
 14 13  1  0
 15 16  1  1
 16 10  1  0
 17 15  1  0
 18 17  2  0
 19 17  1  0
 20 19  1  0
 20 25  1  0
 20 21  1  6
 22 21  1  0
 23 22  1  0
 24 23  2  0
 25 28  1  0
 26 25  2  0
 27 23  1  0
M  END
$$$$
