RTE.pdb
     RDKit          3D

 28 27  0  0  1  0  0  0  0  0999 V2000
   24.6430  -25.2255  -14.9161 N   0  0  0  0  0  0  0  0  0  0  0  0
   25.7994  -24.3898  -15.0176 C   0  0  0  0  0  0  0  0  0  0  0  0
   26.5869  -24.5823  -16.0002 N   0  0  0  0  0  0  0  0  0  0  0  0
   26.0840  -23.3710  -14.0673 N   0  0  0  0  0  0  0  0  0  0  0  0
   25.1302  -23.1227  -12.9972 C   0  0  0  0  0  0  0  0  0  0  0  0
   25.6222  -21.9983  -12.1580 C   0  0  0  0  0  0  0  0  0  0  0  0
   25.7952  -20.6968  -12.8868 C   0  0  0  0  0  0  0  0  0  0  0  0
   24.5127  -20.0961  -13.3992 C   0  0  2  0  0  0  0  0  0  0  0  0
   23.7406  -21.0770  -14.0802 N   0  0  0  0  0  0  0  0  0  0  0  0
   24.8144  -18.8883  -14.2243 C   0  0  0  0  0  0  0  0  0  0  0  0
   25.3070  -17.8998  -13.6374 O   0  0  0  0  0  0  0  0  0  0  0  0
   27.4532  -24.0651  -16.2041 C   0  0  0  0  0  0  0  0  0  0  0  0
   27.1814  -18.3048  -16.5586 C   0  0  2  0  0  0  0  0  0  0  0  0
   25.9142  -17.9574  -17.3553 O   0  0  0  0  0  0  0  0  0  0  0  0
   25.8260  -18.8981  -18.3372 C   0  0  2  0  0  0  0  0  0  0  0  0
   24.7936  -17.7238  -16.4791 N   0  0  0  0  0  0  0  0  0  0  0  0
   24.5573  -18.8562  -15.6091 C   0  0  0  0  0  0  0  0  0  0  0  0
   23.5282  -17.2104  -16.9584 O   0  0  0  0  0  0  0  0  0  0  0  0
   22.4973  -17.9165  -16.8513 N   0  0  0  0  0  0  0  0  0  0  0  0
   23.3146  -15.9492  -17.5591 C   0  0  1  0  0  0  0  0  0  0  0  0
   22.0801  -15.2287  -17.6577 C   0  0  0  0  0  0  0  0  0  0  0  0
   21.1942  -15.2855  -16.4933 C   0  0  0  0  0  0  0  0  0  0  0  0
   19.7811  -15.6775  -16.6555 C   0  0  0  0  0  0  0  0  0  0  0  0
   18.8587  -15.5699  -15.5540 O   0  0  0  0  0  0  0  0  0  0  0  0
   18.4484  -14.3906  -15.2398 C   0  0  0  0  0  0  0  0  0  0  0  0
   22.2421  -13.9298  -18.3339 O   0  0  0  0  0  0  0  0  0  0  0  0
   23.3895  -13.4622  -18.5440 O   0  0  0  0  0  0  0  0  0  0  0  0
   18.3254  -16.5534  -14.7546 O   0  0  0  0  0  0  0  0  0  0  0  0
  2  1  1  0
  2  3  2  0
  4  2  1  0
  5  4  1  0
  6  5  1  0
  7  6  1  0
  8 10  1  0
  8  7  1  0
  8  9  1  6
 10 11  2  0
 13 12  1  6
 13 15  1  0
 14 13  1  0
 15 16  1  6
 16 10  1  0
 17 15  1  0
 18 17  2  0
 19 17  1  0
 20 19  1  0
 20 25  1  0
 20 21  1  6
 22 21  1  0
 23 22  1  0
 24 23  2  0
 25 28  1  0
 26 25  2  0
 27 23  1  0
M  END
$$$$
