RTE.pdb
     RDKit          3D

 28 27  0  0  1  0  0  0  0  0999 V2000
   28.6944  -14.7680  -20.5089 N   0  0  0  0  0  0  0  0  0  0  0  0
   27.4439  -14.1334  -20.2265 C   0  0  0  0  0  0  0  0  0  0  0  0
   26.3886  -14.8435  -20.2959 N   0  0  0  0  0  0  0  0  0  0  0  0
   27.3537  -12.7579  -19.8777 N   0  0  0  0  0  0  0  0  0  0  0  0
   28.4793  -11.8840  -20.1707 C   0  0  0  0  0  0  0  0  0  0  0  0
   29.3408  -11.7787  -18.9635 C   0  0  0  0  0  0  0  0  0  0  0  0
   29.3287  -10.4336  -18.2961 C   0  0  0  0  0  0  0  0  0  0  0  0
   30.2340   -9.4141  -18.9359 C   0  0  2  0  0  0  0  0  0  0  0  0
   31.2939  -10.0569  -19.6326 N   0  0  0  0  0  0  0  0  0  0  0  0
   30.6966   -8.4334  -17.9087 C   0  0  0  0  0  0  0  0  0  0  0  0
   29.8449   -8.0040  -17.0996 O   0  0  0  0  0  0  0  0  0  0  0  0
   25.4198  -14.5183  -20.1733 C   0  0  0  0  0  0  0  0  0  0  0  0
   33.6370   -8.8540  -15.6696 C   0  0  2  0  0  0  0  0  0  0  0  0
   33.7995   -7.4746  -16.3271 O   0  0  0  0  0  0  0  0  0  0  0  0
   34.9258   -7.5596  -17.0895 C   0  0  2  0  0  0  0  0  0  0  0  0
   32.5625   -7.0279  -16.9170 N   0  0  0  0  0  0  0  0  0  0  0  0
   32.0371   -8.0044  -17.8474 C   0  0  0  0  0  0  0  0  0  0  0  0
   32.4016   -5.6996  -17.4687 O   0  0  0  0  0  0  0  0  0  0  0  0
   32.0089   -5.5683  -18.6525 N   0  0  0  0  0  0  0  0  0  0  0  0
   32.6477   -4.4821  -16.7947 C   0  0  1  0  0  0  0  0  0  0  0  0
   32.3686   -3.1562  -17.2605 C   0  0  0  0  0  0  0  0  0  0  0  0
   31.1753   -2.9925  -18.0931 C   0  0  0  0  0  0  0  0  0  0  0  0
   30.8008   -1.6575  -18.5973 C   0  0  0  0  0  0  0  0  0  0  0  0
   29.8120   -1.5161  -19.6357 O   0  0  0  0  0  0  0  0  0  0  0  0
   28.8785   -2.4013  -19.6871 C   0  0  0  0  0  0  0  0  0  0  0  0
   32.6339   -2.1342  -16.2330 O   0  0  0  0  0  0  0  0  0  0  0  0
   32.7023   -2.4561  -15.0201 O   0  0  0  0  0  0  0  0  0  0  0  0
   29.6967   -0.5582  -20.6154 O   0  0  0  0  0  0  0  0  0  0  0  0
  2  1  1  0
  2  3  2  0
  4  2  1  0
  5  4  1  0
  6  5  1  0
  7  6  1  0
  8 10  1  0
  8  7  1  0
  8  9  1  1
 10 11  2  0
 13 12  1  1
 13 15  1  0
 14 13  1  0
 15 16  1  1
 16 10  1  0
 17 15  1  0
 18 17  2  0
 19 17  1  0
 20 19  1  0
 20 25  1  0
 20 21  1  6
 22 21  1  0
 23 22  1  0
 24 23  2  0
 25 28  1  0
 26 25  2  0
 27 23  1  0
M  END
$$$$
