RTE.pdb
     RDKit          3D

 28 27  0  0  1  0  0  0  0  0999 V2000
   27.2461  -17.4426  -18.3458 N   0  0  0  0  0  0  0  0  0  0  0  0
   28.6285  -17.8083  -18.3110 C   0  0  0  0  0  0  0  0  0  0  0  0
   29.3476  -17.5089  -19.3188 N   0  0  0  0  0  0  0  0  0  0  0  0
   29.2060  -18.4840  -17.2010 N   0  0  0  0  0  0  0  0  0  0  0  0
   28.3416  -18.9103  -16.1113 C   0  0  0  0  0  0  0  0  0  0  0  0
   27.2096  -19.6976  -16.6675 C   0  0  0  0  0  0  0  0  0  0  0  0
   26.2118  -20.1714  -15.6502 C   0  0  0  0  0  0  0  0  0  0  0  0
   26.5728  -21.4737  -14.9852 C   0  0  2  0  0  0  0  0  0  0  0  0
   26.9242  -22.4491  -15.9583 N   0  0  0  0  0  0  0  0  0  0  0  0
   25.4670  -21.9010  -14.0768 C   0  0  0  0  0  0  0  0  0  0  0  0
   25.4022  -23.1147  -13.7816 O   0  0  0  0  0  0  0  0  0  0  0  0
   30.3440  -17.7307  -19.4507 C   0  0  0  0  0  0  0  0  0  0  0  0
   25.7254  -20.3544  -10.9325 C   0  0  1  0  0  0  0  0  0  0  0  0
   24.7269  -21.4804  -11.2428 O   0  0  0  0  0  0  0  0  0  0  0  0
   24.2260  -21.8720  -10.0376 C   0  0  1  0  0  0  0  0  0  0  0  0
   23.8306  -21.1053  -12.3077 N   0  0  0  0  0  0  0  0  0  0  0  0
   24.5304  -20.9795  -13.5685 C   0  0  0  0  0  0  0  0  0  0  0  0
   22.8771  -20.0247  -12.1743 O   0  0  0  0  0  0  0  0  0  0  0  0
   23.2740  -18.8387  -12.2687 N   0  0  0  0  0  0  0  0  0  0  0  0
   21.4903  -20.1615  -11.9398 C   0  0  1  0  0  0  0  0  0  0  0  0
   20.4165  -19.6851  -12.7601 C   0  0  0  0  0  0  0  0  0  0  0  0
   20.6408  -19.7020  -14.2069 C   0  0  0  0  0  0  0  0  0  0  0  0
   19.5821  -19.2437  -15.1265 C   0  0  0  0  0  0  0  0  0  0  0  0
   19.7731  -19.3033  -16.5534 O   0  0  0  0  0  0  0  0  0  0  0  0
   18.8224  -18.8537  -17.2962 C   0  0  0  0  0  0  0  0  0  0  0  0
   19.0985  -20.1188  -12.2649 O   0  0  0  0  0  0  0  0  0  0  0  0
   18.9155  -21.3091  -11.9055 O   0  0  0  0  0  0  0  0  0  0  0  0
   20.8408  -19.7780  -17.2784 O   0  0  0  0  0  0  0  0  0  0  0  0
  2  1  1  0
  2  3  2  0
  4  2  1  0
  5  4  1  0
  6  5  1  0
  7  6  1  0
  8 10  1  0
  8  7  1  0
  8  9  1  6
 10 11  2  0
 13 12  1  1
 13 15  1  0
 14 13  1  0
 15 16  1  6
 16 10  1  0
 17 15  1  0
 18 17  2  0
 19 17  1  0
 20 19  1  0
 20 25  1  0
 20 21  1  1
 22 21  1  0
 23 22  1  0
 24 23  2  0
 25 28  1  0
 26 25  2  0
 27 23  1  0
M  END
$$$$
