RTE.pdb
     RDKit          3D

 28 27  0  0  1  0  0  0  0  0999 V2000
   20.7503  -20.5301   -6.8037 N   0  0  0  0  0  0  0  0  0  0  0  0
   20.6757  -21.4847   -7.8664 C   0  0  0  0  0  0  0  0  0  0  0  0
   19.5680  -21.5997   -8.4847 N   0  0  0  0  0  0  0  0  0  0  0  0
   21.7858  -22.2908   -8.2403 N   0  0  0  0  0  0  0  0  0  0  0  0
   23.1286  -21.8222   -7.9343 C   0  0  0  0  0  0  0  0  0  0  0  0
   23.5072  -20.7620   -8.9055 C   0  0  0  0  0  0  0  0  0  0  0  0
   24.1102  -21.2659  -10.1851 C   0  0  0  0  0  0  0  0  0  0  0  0
   25.5958  -21.0468  -10.3006 C   0  0  2  0  0  0  0  0  0  0  0  0
   26.1357  -20.6271   -9.0539 N   0  0  0  0  0  0  0  0  0  0  0  0
   25.8824  -20.1087  -11.4270 C   0  0  0  0  0  0  0  0  0  0  0  0
   25.9218  -18.8871  -11.1616 O   0  0  0  0  0  0  0  0  0  0  0  0
   19.3434  -22.2821   -9.2219 C   0  0  0  0  0  0  0  0  0  0  0  0
   28.5669  -19.4942  -13.5431 C   0  0  2  0  0  0  0  0  0  0  0  0
   27.4479  -19.7997  -14.5509 O   0  0  0  0  0  0  0  0  0  0  0  0
   27.8398  -20.9279  -15.2069 C   0  0  2  0  0  0  0  0  0  0  0  0
   26.1509  -19.7447  -13.9242 N   0  0  0  0  0  0  0  0  0  0  0  0
   26.1006  -20.5739  -12.7387 C   0  0  0  0  0  0  0  0  0  0  0  0
   24.9211  -19.8961  -14.6721 O   0  0  0  0  0  0  0  0  0  0  0  0
   23.9484  -20.4859  -14.1442 N   0  0  0  0  0  0  0  0  0  0  0  0
   24.6832  -19.4344  -15.9864 C   0  0  1  0  0  0  0  0  0  0  0  0
   23.4294  -19.3809  -16.6777 C   0  0  0  0  0  0  0  0  0  0  0  0
   22.2654  -18.9676  -15.8914 C   0  0  0  0  0  0  0  0  0  0  0  0
   21.7681  -17.5811  -15.9762 C   0  0  0  0  0  0  0  0  0  0  0  0
   20.5583  -17.1927  -15.2968 O   0  0  0  0  0  0  0  0  0  0  0  0
   20.2873  -17.7862  -14.1869 C   0  0  0  0  0  0  0  0  0  0  0  0
   23.5641  -18.8388  -18.0410 O   0  0  0  0  0  0  0  0  0  0  0  0
   24.5382  -18.1024  -18.3380 O   0  0  0  0  0  0  0  0  0  0  0  0
   19.6121  -16.2598  -15.6508 O   0  0  0  0  0  0  0  0  0  0  0  0
  2  1  1  0
  2  3  2  0
  4  2  1  0
  5  4  1  0
  6  5  1  0
  7  6  1  0
  8 10  1  0
  8  7  1  0
  8  9  1  1
 10 11  2  0
 13 12  1  6
 13 15  1  0
 14 13  1  0
 15 16  1  6
 16 10  1  0
 17 15  1  0
 18 17  2  0
 19 17  1  0
 20 19  1  0
 20 25  1  0
 20 21  1  6
 22 21  1  0
 23 22  1  0
 24 23  2  0
 25 28  1  0
 26 25  2  0
 27 23  1  0
M  END
$$$$
