QAF.pdb
     RDKit          3D

 26 26  0  0  1  0  0  0  0  0999 V2000
   20.7712  -22.1779  -14.2850 N   0  0  0  0  0  0  0  0  0  0  0  0
   19.9464  -21.0238  -14.1817 C   0  0  0  0  0  0  0  0  0  0  0  0
   19.1992  -20.7609  -15.1565 O   0  0  0  0  0  0  0  0  0  0  0  0
   19.9918  -20.1948  -12.9570 C   0  0  0  0  0  0  0  0  0  0  0  0
   20.9774  -20.6283  -11.9680 C   0  0  0  0  0  0  0  0  0  0  0  0
   22.2926  -20.0207  -11.8467 C   0  0  2  0  0  0  0  0  0  0  0  0
   22.7370  -19.7087  -13.2297 N   0  0  0  0  0  0  0  0  0  0  0  0
   23.3933  -20.6250  -11.1614 C   0  0  0  0  0  0  0  0  0  0  0  0
   23.3876  -21.1757  -10.0289 O   0  0  0  0  0  0  0  0  0  0  0  0
   26.9099  -21.6133  -12.1948 C   0  0  0  0  0  0  0  0  0  0  0  0
   25.8381  -21.2857  -11.1783 C   0  0  2  0  0  0  0  0  0  0  0  0
   24.6958  -20.6406  -11.7862 N   0  0  0  0  0  0  0  0  0  0  0  0
   26.4388  -20.4160  -10.1545 C   0  0  0  0  0  0  0  0  0  0  0  0
   26.1786  -19.1823  -10.1587 O   0  0  0  0  0  0  0  0  0  0  0  0
   27.3037  -20.8931   -9.1523 N   0  0  0  0  0  0  0  0  0  0  0  0
   28.1239  -20.0419   -8.3125 C   0  0  1  0  0  0  0  0  0  0  0  0
   27.1918  -19.3884   -7.3260 C   0  0  0  0  0  0  0  0  0  0  0  0
   27.6778  -19.3640   -5.9461 C   0  0  0  0  0  0  0  0  0  0  0  0
   27.5423  -20.4199   -5.0876 C   0  0  0  0  0  0  0  0  0  0  0  0
   28.0179  -20.3516   -3.7984 C   0  0  0  0  0  0  0  0  0  0  0  0
   28.6530  -19.2208   -3.3061 C   0  0  0  0  0  0  0  0  0  0  0  0
   28.7900  -18.1566   -4.1702 C   0  0  0  0  0  0  0  0  0  0  0  0
   28.3059  -18.2289   -5.4794 C   0  0  0  0  0  0  0  0  0  0  0  0
   29.1558  -20.8899   -7.6784 C   0  0  0  0  0  0  0  0  0  0  0  0
   30.1460  -20.3601   -7.1361 O   0  0  0  0  0  0  0  0  0  0  0  0
   29.0405  -22.2695   -7.6767 O   0  0  0  0  0  0  0  0  0  0  0  0
  2  3  2  0
  2  1  1  0
  4  2  1  0
  5  4  1  0
  6  5  1  0
  6  7  1  6
  8  6  1  0
  9  8  2  0
 11 10  1  6
 11 12  1  0
 12  8  1  0
 13 11  1  0
 14 13  2  0
 15 13  1  0
 16 17  1  1
 16 15  1  0
 17 18  1  0
 18 19  2  0
 19 20  1  0
 21 20  2  0
 22 21  1  0
 23 18  1  0
 23 22  2  0
 24 26  1  0
 24 16  1  0
 25 24  2  0
M  END
$$$$
