QAF.pdb
     RDKit          3D

 26 26  0  0  1  0  0  0  0  0999 V2000
   12.0029  -12.7800  -10.6412 N   0  0  0  0  0  0  0  0  0  0  0  0
   11.3381  -11.5721  -10.2919 C   0  0  0  0  0  0  0  0  0  0  0  0
   10.2964  -11.6684   -9.5968 O   0  0  0  0  0  0  0  0  0  0  0  0
   11.8857  -10.2742  -10.7441 C   0  0  0  0  0  0  0  0  0  0  0  0
   13.0844  -10.3785  -11.5747 C   0  0  0  0  0  0  0  0  0  0  0  0
   14.4236  -10.1451  -11.0593 C   0  0  2  0  0  0  0  0  0  0  0  0
   14.3610  -10.4122   -9.5991 N   0  0  0  0  0  0  0  0  0  0  0  0
   15.1536   -8.9295  -11.2487 C   0  0  0  0  0  0  0  0  0  0  0  0
   15.5000   -8.4002  -12.3376 O   0  0  0  0  0  0  0  0  0  0  0  0
   16.1800   -6.0935   -8.9353 C   0  0  0  0  0  0  0  0  0  0  0  0
   16.2579   -6.8990  -10.2137 C   0  0  2  0  0  0  0  0  0  0  0  0
   15.5745   -8.1677  -10.0958 N   0  0  0  0  0  0  0  0  0  0  0  0
   17.6800   -7.1052  -10.5305 C   0  0  0  0  0  0  0  0  0  0  0  0
   18.3424   -7.9591   -9.8808 O   0  0  0  0  0  0  0  0  0  0  0  0
   18.3549   -6.3895  -11.5367 N   0  0  0  0  0  0  0  0  0  0  0  0
   19.6715   -6.7343  -12.0369 C   0  0  1  0  0  0  0  0  0  0  0  0
   19.5632   -8.1263  -12.6020 C   0  0  0  0  0  0  0  0  0  0  0  0
   20.7699   -8.6122  -13.2718 C   0  0  0  0  0  0  0  0  0  0  0  0
   21.7201   -9.3686  -12.6431 C   0  0  0  0  0  0  0  0  0  0  0  0
   22.8383   -9.8054  -13.3154 C   0  0  0  0  0  0  0  0  0  0  0  0
   23.0589   -9.5053  -14.6517 C   0  0  0  0  0  0  0  0  0  0  0  0
   22.1022   -8.7434  -15.2859 C   0  0  0  0  0  0  0  0  0  0  0  0
   20.9673   -8.3011  -14.6004 C   0  0  0  0  0  0  0  0  0  0  0  0
   20.0561   -5.7176  -13.0391 C   0  0  0  0  0  0  0  0  0  0  0  0
   19.1827   -5.1992  -13.7626 O   0  0  0  0  0  0  0  0  0  0  0  0
   21.3766   -5.3296  -13.1884 O   0  0  0  0  0  0  0  0  0  0  0  0
  2  3  2  0
  2  1  1  0
  4  2  1  0
  5  4  1  0
  6  5  1  0
  6  7  1  1
  8  6  1  0
  9  8  2  0
 11 10  1  1
 11 12  1  0
 12  8  1  0
 13 11  1  0
 14 13  2  0
 15 13  1  0
 16 17  1  6
 16 15  1  0
 17 18  1  0
 18 19  2  0
 19 20  1  0
 21 20  2  0
 22 21  1  0
 23 18  1  0
 23 22  2  0
 24 26  1  0
 24 16  1  0
 25 24  2  0
M  END
$$$$
