QAF.pdb
     RDKit          3D

 26 26  0  0  1  0  0  0  0  0999 V2000
   28.0310  -16.2605  -17.6850 N   0  0  0  0  0  0  0  0  0  0  0  0
   26.9311  -16.1011  -18.5726 C   0  0  0  0  0  0  0  0  0  0  0  0
   26.6085  -14.9280  -18.8849 O   0  0  0  0  0  0  0  0  0  0  0  0
   26.2245  -17.2938  -19.0893 C   0  0  0  0  0  0  0  0  0  0  0  0
   25.8617  -18.2737  -18.0667 C   0  0  0  0  0  0  0  0  0  0  0  0
   26.1372  -19.6946  -18.2030 C   0  0  2  0  0  0  0  0  0  0  0  0
   25.4543  -20.1344  -19.4471 N   0  0  0  0  0  0  0  0  0  0  0  0
   25.8611  -20.6645  -17.1885 C   0  0  0  0  0  0  0  0  0  0  0  0
   24.7719  -21.2551  -16.9629 O   0  0  0  0  0  0  0  0  0  0  0  0
   27.9642  -22.6123  -14.6991 C   0  0  0  0  0  0  0  0  0  0  0  0
   26.6821  -21.9668  -15.1776 C   0  0  2  0  0  0  0  0  0  0  0  0
   26.9123  -21.0599  -16.2799 N   0  0  0  0  0  0  0  0  0  0  0  0
   26.0838  -21.2539  -14.0378 C   0  0  0  0  0  0  0  0  0  0  0  0
   26.1868  -19.9992  -13.9682 O   0  0  0  0  0  0  0  0  0  0  0  0
   25.3902  -21.9064  -13.0018 N   0  0  0  0  0  0  0  0  0  0  0  0
   24.9103  -21.2472  -11.8027 C   0  0  1  0  0  0  0  0  0  0  0  0
   25.8682  -20.1190  -11.5225 C   0  0  0  0  0  0  0  0  0  0  0  0
   26.7715  -20.3469  -10.3943 C   0  0  0  0  0  0  0  0  0  0  0  0
   26.4420  -20.0473   -9.1012 C   0  0  0  0  0  0  0  0  0  0  0  0
   27.3241  -20.2820   -8.0717 C   0  0  0  0  0  0  0  0  0  0  0  0
   28.5806  -20.8288   -8.2881 C   0  0  0  0  0  0  0  0  0  0  0  0
   28.9134  -21.1309   -9.5903 C   0  0  0  0  0  0  0  0  0  0  0  0
   28.0152  -20.8914  -10.6341 C   0  0  0  0  0  0  0  0  0  0  0  0
   23.5250  -20.7973  -12.0564 C   0  0  0  0  0  0  0  0  0  0  0  0
   23.0433  -20.8903  -13.2029 O   0  0  0  0  0  0  0  0  0  0  0  0
   22.7496  -20.2717  -11.0370 O   0  0  0  0  0  0  0  0  0  0  0  0
  2  3  2  0
  2  1  1  0
  4  2  1  0
  5  4  1  0
  6  5  1  0
  6  7  1  6
  8  6  1  0
  9  8  2  0
 11 10  1  1
 11 12  1  0
 12  8  1  0
 13 11  1  0
 14 13  2  0
 15 13  1  0
 16 17  1  6
 16 15  1  0
 17 18  1  0
 18 19  2  0
 19 20  1  0
 21 20  2  0
 22 21  1  0
 23 18  1  0
 23 22  2  0
 24 26  1  0
 24 16  1  0
 25 24  2  0
M  END
$$$$
