QAF.pdb
     RDKit          3D

 26 26  0  0  1  0  0  0  0  0999 V2000
   29.4836  -18.9971  -16.8040 N   0  0  0  0  0  0  0  0  0  0  0  0
   28.0954  -18.7075  -16.9136 C   0  0  0  0  0  0  0  0  0  0  0  0
   27.6958  -17.6152  -16.4394 O   0  0  0  0  0  0  0  0  0  0  0  0
   27.1917  -19.6770  -17.5711 C   0  0  0  0  0  0  0  0  0  0  0  0
   26.2054  -20.2866  -16.6805 C   0  0  0  0  0  0  0  0  0  0  0  0
   26.5160  -21.4091  -15.8104 C   0  0  2  0  0  0  0  0  0  0  0  0
   26.6893  -22.5886  -16.6970 N   0  0  0  0  0  0  0  0  0  0  0  0
   25.7047  -21.8120  -14.7032 C   0  0  0  0  0  0  0  0  0  0  0  0
   24.6809  -22.5450  -14.7244 O   0  0  0  0  0  0  0  0  0  0  0  0
   25.8525  -21.2351  -10.9316 C   0  0  0  0  0  0  0  0  0  0  0  0
   25.1680  -21.5615  -12.2409 C   0  0  2  0  0  0  0  0  0  0  0  0
   26.0437  -21.3602  -13.3736 N   0  0  0  0  0  0  0  0  0  0  0  0
   23.9753  -20.7067  -12.3512 C   0  0  0  0  0  0  0  0  0  0  0  0
   24.0804  -19.4666  -12.1490 O   0  0  0  0  0  0  0  0  0  0  0  0
   22.7000  -21.2052  -12.6758 N   0  0  0  0  0  0  0  0  0  0  0  0
   21.4993  -20.3942  -12.7312 C   0  0  1  0  0  0  0  0  0  0  0  0
   21.7565  -19.3187  -13.7539 C   0  0  0  0  0  0  0  0  0  0  0  0
   21.6869  -19.7658  -15.1454 C   0  0  0  0  0  0  0  0  0  0  0  0
   22.5770  -19.3663  -16.1038 C   0  0  0  0  0  0  0  0  0  0  0  0
   22.4731  -19.8158  -17.4000 C   0  0  0  0  0  0  0  0  0  0  0  0
   21.4713  -20.6883  -17.7994 C   0  0  0  0  0  0  0  0  0  0  0  0
   20.5741  -21.0912  -16.8346 C   0  0  0  0  0  0  0  0  0  0  0  0
   20.6822  -20.6330  -15.5186 C   0  0  0  0  0  0  0  0  0  0  0  0
   20.3687  -21.2816  -13.0780 C   0  0  0  0  0  0  0  0  0  0  0  0
   19.1983  -20.8645  -12.9717 O   0  0  0  0  0  0  0  0  0  0  0  0
   20.5890  -22.5745  -13.5211 O   0  0  0  0  0  0  0  0  0  0  0  0
  2  3  2  0
  2  1  1  0
  4  2  1  0
  5  4  1  0
  6  5  1  0
  6  7  1  6
  8  6  1  0
  9  8  2  0
 11 10  1  1
 11 12  1  0
 12  8  1  0
 13 11  1  0
 14 13  2  0
 15 13  1  0
 16 17  1  6
 16 15  1  0
 17 18  1  0
 18 19  2  0
 19 20  1  0
 21 20  2  0
 22 21  1  0
 23 18  1  0
 23 22  2  0
 24 26  1  0
 24 16  1  0
 25 24  2  0
M  END
$$$$
