QAF.pdb
     RDKit          3D

 26 26  0  0  1  0  0  0  0  0999 V2000
   18.5891  -15.9225  -17.0136 N   0  0  0  0  0  0  0  0  0  0  0  0
   18.1036  -14.9676  -16.0778 C   0  0  0  0  0  0  0  0  0  0  0  0
   17.2467  -15.3594  -15.2473 O   0  0  0  0  0  0  0  0  0  0  0  0
   18.6158  -13.5799  -16.1106 C   0  0  0  0  0  0  0  0  0  0  0  0
   19.4865  -13.2819  -17.2466 C   0  0  0  0  0  0  0  0  0  0  0  0
   20.0199  -11.9543  -17.5045 C   0  0  2  0  0  0  0  0  0  0  0  0
   21.0886  -11.7312  -16.4967 N   0  0  0  0  0  0  0  0  0  0  0  0
   19.2218  -10.7686  -17.5627 C   0  0  0  0  0  0  0  0  0  0  0  0
   18.2462  -10.5327  -18.3233 O   0  0  0  0  0  0  0  0  0  0  0  0
   17.2674   -8.9028  -16.0595 C   0  0  0  0  0  0  0  0  0  0  0  0
   18.6482   -8.5209  -16.5464 C   0  0  2  0  0  0  0  0  0  0  0  0
   19.5152   -9.6713  -16.6699 N   0  0  0  0  0  0  0  0  0  0  0  0
   19.2096   -7.5503  -15.5935 C   0  0  0  0  0  0  0  0  0  0  0  0
   18.5407   -6.5272  -15.2840 O   0  0  0  0  0  0  0  0  0  0  0  0
   20.4749   -7.7029  -14.9970 N   0  0  0  0  0  0  0  0  0  0  0  0
   21.0668   -6.7415  -14.0871 C   0  0  1  0  0  0  0  0  0  0  0  0
   22.1658   -7.4661  -13.3549 C   0  0  0  0  0  0  0  0  0  0  0  0
   23.2195   -8.0098  -14.2121 C   0  0  0  0  0  0  0  0  0  0  0  0
   24.0684   -7.2242  -14.9419 C   0  0  0  0  0  0  0  0  0  0  0  0
   25.0469   -7.7812  -15.7328 C   0  0  0  0  0  0  0  0  0  0  0  0
   25.2225   -9.1538  -15.8309 C   0  0  0  0  0  0  0  0  0  0  0  0
   24.3679   -9.9460  -15.0961 C   0  0  0  0  0  0  0  0  0  0  0  0
   23.3748   -9.3773  -14.2936 C   0  0  0  0  0  0  0  0  0  0  0  0
   21.5462   -5.5950  -14.8881 C   0  0  0  0  0  0  0  0  0  0  0  0
   21.6069   -5.6889  -16.1301 O   0  0  0  0  0  0  0  0  0  0  0  0
   21.9308   -4.4127  -14.2790 O   0  0  0  0  0  0  0  0  0  0  0  0
  2  3  2  0
  2  1  1  0
  4  2  1  0
  5  4  1  0
  6  5  1  0
  6  7  1  1
  8  6  1  0
  9  8  2  0
 11 10  1  1
 11 12  1  0
 12  8  1  0
 13 11  1  0
 14 13  2  0
 15 13  1  0
 16 17  1  6
 16 15  1  0
 17 18  1  0
 18 19  2  0
 19 20  1  0
 21 20  2  0
 22 21  1  0
 23 18  1  0
 23 22  2  0
 24 26  1  0
 24 16  1  0
 25 24  2  0
M  END
$$$$
