QAF.pdb
     RDKit          3D

 26 26  0  0  1  0  0  0  0  0999 V2000
   31.1535  -25.0748  -15.7448 N   0  0  0  0  0  0  0  0  0  0  0  0
   31.3126  -25.1356  -17.1569 C   0  0  0  0  0  0  0  0  0  0  0  0
   31.4926  -26.2687  -17.6679 O   0  0  0  0  0  0  0  0  0  0  0  0
   31.2572  -23.8924  -17.9571 C   0  0  0  0  0  0  0  0  0  0  0  0
   30.9002  -22.6966  -17.1953 C   0  0  0  0  0  0  0  0  0  0  0  0
   29.5369  -22.3998  -16.7868 C   0  0  2  0  0  0  0  0  0  0  0  0
   28.7660  -22.1764  -18.0372 N   0  0  0  0  0  0  0  0  0  0  0  0
   29.1849  -21.3623  -15.8670 C   0  0  0  0  0  0  0  0  0  0  0  0
   29.8218  -20.3050  -15.6172 O   0  0  0  0  0  0  0  0  0  0  0  0
   27.0768  -19.1924  -15.0305 C   0  0  0  0  0  0  0  0  0  0  0  0
   27.4884  -20.4163  -14.2419 C   0  0  2  0  0  0  0  0  0  0  0  0
   27.9658  -21.4772  -15.1005 N   0  0  0  0  0  0  0  0  0  0  0  0
   26.3219  -20.8652  -13.4653 C   0  0  0  0  0  0  0  0  0  0  0  0
   25.3613  -21.4270  -14.0580 O   0  0  0  0  0  0  0  0  0  0  0  0
   26.2166  -20.6995  -12.0718 N   0  0  0  0  0  0  0  0  0  0  0  0
   25.2359  -21.3743  -11.2440 C   0  0  1  0  0  0  0  0  0  0  0  0
   25.9935  -21.9818  -10.0926 C   0  0  0  0  0  0  0  0  0  0  0  0
   26.7274  -21.0225   -9.2667 C   0  0  0  0  0  0  0  0  0  0  0  0
   26.1113  -20.1144   -8.4505 C   0  0  0  0  0  0  0  0  0  0  0  0
   26.8440  -19.2329   -7.6895 C   0  0  0  0  0  0  0  0  0  0  0  0
   28.2310  -19.2184   -7.7093 C   0  0  0  0  0  0  0  0  0  0  0  0
   28.8526  -20.1329   -8.5311 C   0  0  0  0  0  0  0  0  0  0  0  0
   28.1056  -21.0272   -9.3030 C   0  0  0  0  0  0  0  0  0  0  0  0
   24.2293  -20.3746  -10.8276 C   0  0  0  0  0  0  0  0  0  0  0  0
   23.1898  -20.7462  -10.2476 O   0  0  0  0  0  0  0  0  0  0  0  0
   24.4228  -19.0257  -11.0723 O   0  0  0  0  0  0  0  0  0  0  0  0
  2  3  2  0
  2  1  1  0
  4  2  1  0
  5  4  1  0
  6  5  1  0
  6  7  1  6
  8  6  1  0
  9  8  2  0
 11 10  1  6
 11 12  1  0
 12  8  1  0
 13 11  1  0
 14 13  2  0
 15 13  1  0
 16 17  1  1
 16 15  1  0
 17 18  1  0
 18 19  2  0
 19 20  1  0
 21 20  2  0
 22 21  1  0
 23 18  1  0
 23 22  2  0
 24 26  1  0
 24 16  1  0
 25 24  2  0
M  END
$$$$
