QAF.pdb
     RDKit          3D

 26 26  0  0  1  0  0  0  0  0999 V2000
   24.8666  -15.4019  -16.3968 N   0  0  0  0  0  0  0  0  0  0  0  0
   23.5787  -15.3489  -16.9981 C   0  0  0  0  0  0  0  0  0  0  0  0
   22.9895  -14.2397  -17.0004 O   0  0  0  0  0  0  0  0  0  0  0  0
   22.9931  -16.5716  -17.5905 C   0  0  0  0  0  0  0  0  0  0  0  0
   23.8420  -17.7581  -17.4946 C   0  0  0  0  0  0  0  0  0  0  0  0
   24.0621  -18.4716  -16.2473 C   0  0  2  0  0  0  0  0  0  0  0  0
   23.7748  -17.5040  -15.1570 N   0  0  0  0  0  0  0  0  0  0  0  0
   25.2768  -19.1512  -15.9175 C   0  0  0  0  0  0  0  0  0  0  0  0
   25.7882  -20.1429  -16.5015 O   0  0  0  0  0  0  0  0  0  0  0  0
   28.2018  -18.4082  -13.6315 C   0  0  0  0  0  0  0  0  0  0  0  0
   27.2907  -19.3450  -14.3941 C   0  0  2  0  0  0  0  0  0  0  0  0
   26.0604  -18.6979  -14.7917 N   0  0  0  0  0  0  0  0  0  0  0  0
   27.0100  -20.5029  -13.5304 C   0  0  0  0  0  0  0  0  0  0  0  0
   27.4181  -21.6456  -13.8734 O   0  0  0  0  0  0  0  0  0  0  0  0
   26.2983  -20.4045  -12.3205 N   0  0  0  0  0  0  0  0  0  0  0  0
   25.6569  -21.5249  -11.6603 C   0  0  1  0  0  0  0  0  0  0  0  0
   26.6047  -21.9872  -10.5848 C   0  0  0  0  0  0  0  0  0  0  0  0
   26.8324  -21.0203   -9.5105 C   0  0  0  0  0  0  0  0  0  0  0  0
   28.0779  -20.5894   -9.1450 C   0  0  0  0  0  0  0  0  0  0  0  0
   28.2428  -19.6759   -8.1294 C   0  0  0  0  0  0  0  0  0  0  0  0
   27.1668  -19.1493   -7.4299 C   0  0  0  0  0  0  0  0  0  0  0  0
   25.9118  -19.5828   -7.7974 C   0  0  0  0  0  0  0  0  0  0  0  0
   25.7473  -20.5108   -8.8296 C   0  0  0  0  0  0  0  0  0  0  0  0
   24.3540  -21.0588  -11.1398 C   0  0  0  0  0  0  0  0  0  0  0  0
   24.0643  -19.8469  -11.1896 O   0  0  0  0  0  0  0  0  0  0  0  0
   23.4453  -21.9501  -10.5951 O   0  0  0  0  0  0  0  0  0  0  0  0
  2  3  2  0
  2  1  1  0
  4  2  1  0
  5  4  1  0
  6  5  1  0
  6  7  1  1
  8  6  1  0
  9  8  2  0
 11 10  1  1
 11 12  1  0
 12  8  1  0
 13 11  1  0
 14 13  2  0
 15 13  1  0
 16 17  1  1
 16 15  1  0
 17 18  1  0
 18 19  2  0
 19 20  1  0
 21 20  2  0
 22 21  1  0
 23 18  1  0
 23 22  2  0
 24 26  1  0
 24 16  1  0
 25 24  2  0
M  END
$$$$
