QAF.pdb
     RDKit          3D

 26 26  0  0  1  0  0  0  0  0999 V2000
   30.2797  -16.2660  -19.7971 N   0  0  0  0  0  0  0  0  0  0  0  0
   29.2018  -16.4115  -20.7136 C   0  0  0  0  0  0  0  0  0  0  0  0
   29.0258  -15.4883  -21.5468 O   0  0  0  0  0  0  0  0  0  0  0  0
   28.3481  -17.6187  -20.6589 C   0  0  0  0  0  0  0  0  0  0  0  0
   28.6866  -18.5523  -19.5858 C   0  0  0  0  0  0  0  0  0  0  0  0
   27.7980  -18.8244  -18.4678 C   0  0  2  0  0  0  0  0  0  0  0  0
   27.5133  -17.5119  -17.8323 N   0  0  0  0  0  0  0  0  0  0  0  0
   28.0872  -19.7597  -17.4248 C   0  0  0  0  0  0  0  0  0  0  0  0
   29.1457  -20.4200  -17.2534 O   0  0  0  0  0  0  0  0  0  0  0  0
   28.1698  -19.0787  -14.4256 C   0  0  0  0  0  0  0  0  0  0  0  0
   27.4346  -20.2556  -15.0286 C   0  0  2  0  0  0  0  0  0  0  0  0
   27.0901  -20.0257  -16.4138 N   0  0  0  0  0  0  0  0  0  0  0  0
   26.2232  -20.4892  -14.2265 C   0  0  0  0  0  0  0  0  0  0  0  0
   26.3318  -20.7146  -12.9907 O   0  0  0  0  0  0  0  0  0  0  0  0
   24.9260  -20.4748  -14.7717 N   0  0  0  0  0  0  0  0  0  0  0  0
   23.7119  -20.5795  -13.9860 C   0  0  1  0  0  0  0  0  0  0  0  0
   23.6899  -19.3830  -13.0712 C   0  0  0  0  0  0  0  0  0  0  0  0
   23.7160  -18.0887  -13.7531 C   0  0  0  0  0  0  0  0  0  0  0  0
   24.8322  -17.3012  -13.8187 C   0  0  0  0  0  0  0  0  0  0  0  0
   24.8096  -16.0917  -14.4740 C   0  0  0  0  0  0  0  0  0  0  0  0
   23.6663  -15.6119  -15.0962 C   0  0  0  0  0  0  0  0  0  0  0  0
   22.5413  -16.4045  -15.0308 C   0  0  0  0  0  0  0  0  0  0  0  0
   22.5673  -17.6328  -14.3643 C   0  0  0  0  0  0  0  0  0  0  0  0
   22.5689  -20.6288  -14.9224 C   0  0  0  0  0  0  0  0  0  0  0  0
   22.7537  -20.4187  -16.1376 O   0  0  0  0  0  0  0  0  0  0  0  0
   21.2900  -20.9059  -14.4702 O   0  0  0  0  0  0  0  0  0  0  0  0
  2  3  2  0
  2  1  1  0
  4  2  1  0
  5  4  1  0
  6  5  1  0
  6  7  1  1
  8  6  1  0
  9  8  2  0
 11 10  1  1
 11 12  1  0
 12  8  1  0
 13 11  1  0
 14 13  2  0
 15 13  1  0
 16 17  1  1
 16 15  1  0
 17 18  1  0
 18 19  2  0
 19 20  1  0
 21 20  2  0
 22 21  1  0
 23 18  1  0
 23 22  2  0
 24 26  1  0
 24 16  1  0
 25 24  2  0
M  END
$$$$
