QAF.pdb
     RDKit          3D

 26 26  0  0  1  0  0  0  0  0999 V2000
   27.4245  -20.9483  -10.7670 N   0  0  0  0  0  0  0  0  0  0  0  0
   28.6299  -20.5943  -11.4339 C   0  0  0  0  0  0  0  0  0  0  0  0
   29.6912  -21.1291  -11.0276 O   0  0  0  0  0  0  0  0  0  0  0  0
   28.5928  -19.6349  -12.5596 C   0  0  0  0  0  0  0  0  0  0  0  0
   27.2525  -19.1766  -12.9215 C   0  0  0  0  0  0  0  0  0  0  0  0
   26.3062  -20.0045  -13.6513 C   0  0  2  0  0  0  0  0  0  0  0  0
   26.9851  -20.4015  -14.9119 N   0  0  0  0  0  0  0  0  0  0  0  0
   24.9757  -19.5969  -13.9829 C   0  0  0  0  0  0  0  0  0  0  0  0
   24.1161  -19.0790  -13.2221 O   0  0  0  0  0  0  0  0  0  0  0  0
   23.0245  -19.2222  -17.2180 C   0  0  0  0  0  0  0  0  0  0  0  0
   23.1447  -19.4383  -15.7253 C   0  0  2  0  0  0  0  0  0  0  0  0
   24.4963  -19.7714  -15.3344 N   0  0  0  0  0  0  0  0  0  0  0  0
   22.2172  -20.5173  -15.3501 C   0  0  0  0  0  0  0  0  0  0  0  0
   22.4097  -21.6822  -15.7925 O   0  0  0  0  0  0  0  0  0  0  0  0
   21.1065  -20.3181  -14.5093 N   0  0  0  0  0  0  0  0  0  0  0  0
   20.2278  -21.3791  -14.0569 C   0  0  1  0  0  0  0  0  0  0  0  0
   21.0235  -22.2067  -13.0818 C   0  0  0  0  0  0  0  0  0  0  0  0
   21.4758  -21.4862  -11.8913 C   0  0  0  0  0  0  0  0  0  0  0  0
   20.6203  -21.0106  -10.9361 C   0  0  0  0  0  0  0  0  0  0  0  0
   21.0926  -20.3406   -9.8311 C   0  0  0  0  0  0  0  0  0  0  0  0
   22.4463  -20.1143   -9.6293 C   0  0  0  0  0  0  0  0  0  0  0  0
   23.3088  -20.5931  -10.5910 C   0  0  0  0  0  0  0  0  0  0  0  0
   22.8261  -21.2735  -11.7125 C   0  0  0  0  0  0  0  0  0  0  0  0
   19.0297  -20.7515  -13.4597 C   0  0  0  0  0  0  0  0  0  0  0  0
   18.9813  -19.5128  -13.3241 O   0  0  0  0  0  0  0  0  0  0  0  0
   17.9550  -21.5202  -13.0464 O   0  0  0  0  0  0  0  0  0  0  0  0
  2  3  2  0
  2  1  1  0
  4  2  1  0
  5  4  1  0
  6  5  1  0
  6  7  1  6
  8  6  1  0
  9  8  2  0
 11 10  1  6
 11 12  1  0
 12  8  1  0
 13 11  1  0
 14 13  2  0
 15 13  1  0
 16 17  1  1
 16 15  1  0
 17 18  1  0
 18 19  2  0
 19 20  1  0
 21 20  2  0
 22 21  1  0
 23 18  1  0
 23 22  2  0
 24 26  1  0
 24 16  1  0
 25 24  2  0
M  END
$$$$
