QAF.pdb
     RDKit          3D

 26 26  0  0  1  0  0  0  0  0999 V2000
   22.5351  -16.5150  -22.0375 N   0  0  0  0  0  0  0  0  0  0  0  0
   21.6098  -15.4639  -22.2864 C   0  0  0  0  0  0  0  0  0  0  0  0
   20.7240  -15.6696  -23.1528 O   0  0  0  0  0  0  0  0  0  0  0  0
   21.7166  -14.1962  -21.5311 C   0  0  0  0  0  0  0  0  0  0  0  0
   22.8592  -14.1271  -20.6215 C   0  0  0  0  0  0  0  0  0  0  0  0
   22.8057  -13.4455  -19.3385 C   0  0  2  0  0  0  0  0  0  0  0  0
   21.7625  -14.1401  -18.5404 N   0  0  0  0  0  0  0  0  0  0  0  0
   22.6035  -12.0374  -19.1880 C   0  0  0  0  0  0  0  0  0  0  0  0
   23.3314  -11.1040  -19.6180 O   0  0  0  0  0  0  0  0  0  0  0  0
   19.6446   -9.8957  -18.5119 C   0  0  0  0  0  0  0  0  0  0  0  0
   21.1276  -10.1535  -18.3594 C   0  0  2  0  0  0  0  0  0  0  0  0
   21.4458  -11.5597  -18.4680 N   0  0  0  0  0  0  0  0  0  0  0  0
   21.5438   -9.6290  -17.0490 C   0  0  0  0  0  0  0  0  0  0  0  0
   21.3046  -10.2997  -16.0084 O   0  0  0  0  0  0  0  0  0  0  0  0
   22.2063   -8.3979  -16.8893 N   0  0  0  0  0  0  0  0  0  0  0  0
   22.6847   -7.8902  -15.6181 C   0  0  1  0  0  0  0  0  0  0  0  0
   24.1322   -7.5260  -15.8205 C   0  0  0  0  0  0  0  0  0  0  0  0
   25.0180   -8.6589  -16.0902 C   0  0  0  0  0  0  0  0  0  0  0  0
   25.3979   -9.5553  -15.1298 C   0  0  0  0  0  0  0  0  0  0  0  0
   26.2314  -10.6077  -15.4314 C   0  0  0  0  0  0  0  0  0  0  0  0
   26.7252  -10.8132  -16.7114 C   0  0  0  0  0  0  0  0  0  0  0  0
   26.3431   -9.9107  -17.6796 C   0  0  0  0  0  0  0  0  0  0  0  0
   25.4962   -8.8426  -17.3702 C   0  0  0  0  0  0  0  0  0  0  0  0
   21.8336   -6.7421  -15.2393 C   0  0  0  0  0  0  0  0  0  0  0  0
   21.1062   -6.2008  -16.0955 O   0  0  0  0  0  0  0  0  0  0  0  0
   21.8308   -6.2555  -13.9432 O   0  0  0  0  0  0  0  0  0  0  0  0
  2  3  2  0
  2  1  1  0
  4  2  1  0
  5  4  1  0
  6  5  1  0
  6  7  1  1
  8  6  1  0
  9  8  2  0
 11 10  1  1
 11 12  1  0
 12  8  1  0
 13 11  1  0
 14 13  2  0
 15 13  1  0
 16 17  1  6
 16 15  1  0
 17 18  1  0
 18 19  2  0
 19 20  1  0
 21 20  2  0
 22 21  1  0
 23 18  1  0
 23 22  2  0
 24 26  1  0
 24 16  1  0
 25 24  2  0
M  END
$$$$
