QAF.pdb
     RDKit          3D

 26 26  0  0  1  0  0  0  0  0999 V2000
   21.3345  -13.9878  -18.3851 N   0  0  0  0  0  0  0  0  0  0  0  0
   21.7072  -13.1331  -19.4591 C   0  0  0  0  0  0  0  0  0  0  0  0
   22.3940  -13.6353  -20.3831 O   0  0  0  0  0  0  0  0  0  0  0  0
   21.2795  -11.7167  -19.4539 C   0  0  0  0  0  0  0  0  0  0  0  0
   20.5376  -11.3120  -18.2609 C   0  0  0  0  0  0  0  0  0  0  0  0
   20.9359  -10.1890  -17.4278 C   0  0  2  0  0  0  0  0  0  0  0  0
   19.8916  -10.0565  -16.3793 N   0  0  0  0  0  0  0  0  0  0  0  0
   21.2169   -8.8796  -17.9305 C   0  0  0  0  0  0  0  0  0  0  0  0
   22.2812   -8.4715  -18.4659 O   0  0  0  0  0  0  0  0  0  0  0  0
   19.0668   -6.0983  -19.1272 C   0  0  0  0  0  0  0  0  0  0  0  0
   20.3525   -6.5631  -18.4790 C   0  0  2  0  0  0  0  0  0  0  0  0
   20.2027   -7.8543  -17.8459 N   0  0  0  0  0  0  0  0  0  0  0  0
   20.7529   -5.5471  -17.4927 C   0  0  0  0  0  0  0  0  0  0  0  0
   21.0091   -4.3746  -17.8795 O   0  0  0  0  0  0  0  0  0  0  0  0
   20.8681   -5.8157  -16.1162 N   0  0  0  0  0  0  0  0  0  0  0  0
   21.2594   -4.8323  -15.1252 C   0  0  1  0  0  0  0  0  0  0  0  0
   20.0167   -4.4945  -14.3440 C   0  0  0  0  0  0  0  0  0  0  0  0
   19.0482   -3.6641  -15.0605 C   0  0  0  0  0  0  0  0  0  0  0  0
   19.2768   -2.3530  -15.3755 C   0  0  0  0  0  0  0  0  0  0  0  0
   18.3365   -1.6119  -16.0534 C   0  0  0  0  0  0  0  0  0  0  0  0
   17.1202   -2.1490  -16.4491 C   0  0  0  0  0  0  0  0  0  0  0  0
   16.8890   -3.4696  -16.1322 C   0  0  0  0  0  0  0  0  0  0  0  0
   17.8461   -4.2200  -15.4435 C   0  0  0  0  0  0  0  0  0  0  0  0
   22.3341   -5.4236  -14.2997 C   0  0  0  0  0  0  0  0  0  0  0  0
   22.7521   -6.5703  -14.5553 O   0  0  0  0  0  0  0  0  0  0  0  0
   22.8870   -4.7215  -13.2423 O   0  0  0  0  0  0  0  0  0  0  0  0
  2  3  2  0
  2  1  1  0
  4  2  1  0
  5  4  1  0
  6  5  1  0
  6  7  1  1
  8  6  1  0
  9  8  2  0
 11 10  1  1
 11 12  1  0
 12  8  1  0
 13 11  1  0
 14 13  2  0
 15 13  1  0
 16 17  1  1
 16 15  1  0
 17 18  1  0
 18 19  2  0
 19 20  1  0
 21 20  2  0
 22 21  1  0
 23 18  1  0
 23 22  2  0
 24 26  1  0
 24 16  1  0
 25 24  2  0
M  END
$$$$
