YRI.pdb
     RDKit          3D

 32 32  0  0  1  0  0  0  0  0999 V2000
   31.1012  -17.8580  -19.5066 O   0  0  0  0  0  0  0  0  0  0  0  0
   30.3460  -17.8236  -18.3216 C   0  0  0  0  0  0  0  0  0  0  0  0
   30.5095  -18.7799  -17.3446 C   0  0  0  0  0  0  0  0  0  0  0  0
   29.7870  -18.7826  -16.1647 C   0  0  0  0  0  0  0  0  0  0  0  0
   28.8551  -17.7921  -15.9350 C   0  0  0  0  0  0  0  0  0  0  0  0
   28.0596  -17.7675  -14.6804 C   0  0  0  0  0  0  0  0  0  0  0  0
   27.1383  -18.9601  -14.7283 C   0  0  2  0  0  0  0  0  0  0  0  0
   26.4093  -18.9664  -15.9584 N   0  0  0  0  0  0  0  0  0  0  0  0
   26.2656  -19.0706  -13.5359 C   0  0  0  0  0  0  0  0  0  0  0  0
   25.5438  -18.0930  -13.1887 O   0  0  0  0  0  0  0  0  0  0  0  0
   28.6896  -16.8230  -16.9254 C   0  0  0  0  0  0  0  0  0  0  0  0
   29.4165  -16.8390  -18.0884 C   0  0  0  0  0  0  0  0  0  0  0  0
   19.4750  -21.8464  -12.8158 N   0  0  0  0  0  0  0  0  0  0  0  0
   19.6199  -21.2134  -11.5500 C   0  0  0  0  0  0  0  0  0  0  0  0
   18.6549  -21.2803  -10.7069 N   0  0  0  0  0  0  0  0  0  0  0  0
   20.8042  -20.5094  -11.1991 N   0  0  0  0  0  0  0  0  0  0  0  0
   22.0554  -20.7256  -11.9185 C   0  0  0  0  0  0  0  0  0  0  0  0
   23.0699  -21.4512  -11.0501 C   0  0  0  0  0  0  0  0  0  0  0  0
   24.3367  -21.5280  -11.8461 C   0  0  0  0  0  0  0  0  0  0  0  0
   25.3005  -20.4144  -11.6299 C   0  0  2  0  0  0  0  0  0  0  0  0
   26.1967  -20.2323  -12.7513 N   0  0  0  0  0  0  0  0  0  0  0  0
   26.0899  -20.7921  -10.4012 C   0  0  0  0  0  0  0  0  0  0  0  0
   26.8822  -21.7562  -10.5186 O   0  0  0  0  0  0  0  0  0  0  0  0
   18.7402  -20.8039   -9.7900 C   0  0  0  0  0  0  0  0  0  0  0  0
   28.8073  -19.3852   -5.2542 C   0  0  0  0  0  0  0  0  0  0  0  0
   27.9766  -20.3559   -6.0199 C   0  0  2  0  0  0  0  0  0  0  0  0
   27.3489  -19.8562   -7.2668 C   0  0  0  0  0  0  0  0  0  0  0  0
   26.8637  -18.4227   -7.1996 C   0  0  2  0  0  0  0  0  0  0  0  0
   26.4530  -20.7971   -7.9663 N   0  0  0  0  0  0  0  0  0  0  0  0
   25.9562  -20.1121   -9.1874 C   0  0  0  0  0  0  0  0  0  0  0  0
   25.3243  -21.3622   -7.2243 O   0  0  0  0  0  0  0  0  0  0  0  0
   24.1109  -21.2721   -7.5140 O   0  0  0  0  0  0  0  0  0  0  0  0
  2  3  2  0
  2  1  1  0
  4  3  1  0
  5  4  2  0
  6  5  1  0
  7  6  1  0
  7  8  1  6
  9 21  1  0
  9  7  1  0
 10  9  2  0
 11  5  1  0
 11 12  2  0
 12  2  1  0
 14 13  1  0
 15 14  2  0
 16 14  1  0
 17 16  1  0
 18 17  1  0
 18 19  1  0
 20 19  1  6
 20 22  1  0
 20 21  1  0
 22 23  2  0
 24 25  1  0
 26 25  1  0
 26 27  1  6
 28 26  1  0
 29 22  1  0
 28 29  1  1
 30 32  1  0
 30 28  1  0
 31 30  2  0
M  END
$$$$
