YRI.pdb
     RDKit          3D

 32 32  0  0  1  0  0  0  0  0999 V2000
   27.7801  -31.0135  -19.5917 O   0  0  0  0  0  0  0  0  0  0  0  0
   27.6161  -29.9137  -18.7319 C   0  0  0  0  0  0  0  0  0  0  0  0
   26.7273  -28.9045  -19.0277 C   0  0  0  0  0  0  0  0  0  0  0  0
   26.5358  -27.8054  -18.2094 C   0  0  0  0  0  0  0  0  0  0  0  0
   27.2570  -27.6945  -17.0389 C   0  0  0  0  0  0  0  0  0  0  0  0
   27.0784  -26.5257  -16.1393 C   0  0  0  0  0  0  0  0  0  0  0  0
   27.8260  -25.3772  -16.7679 C   0  0  2  0  0  0  0  0  0  0  0  0
   29.2351  -25.6026  -16.6782 N   0  0  0  0  0  0  0  0  0  0  0  0
   27.4149  -24.0553  -16.2394 C   0  0  0  0  0  0  0  0  0  0  0  0
   27.9575  -23.5964  -15.1943 O   0  0  0  0  0  0  0  0  0  0  0  0
   28.1576  -28.7175  -16.7394 C   0  0  0  0  0  0  0  0  0  0  0  0
   28.3322  -29.7988  -17.5650 C   0  0  0  0  0  0  0  0  0  0  0  0
   21.7937  -21.2462  -16.9647 N   0  0  0  0  0  0  0  0  0  0  0  0
   21.5447  -19.8463  -17.0108 C   0  0  0  0  0  0  0  0  0  0  0  0
   20.4380  -19.3955  -16.5428 N   0  0  0  0  0  0  0  0  0  0  0  0
   22.4891  -18.9383  -17.5628 N   0  0  0  0  0  0  0  0  0  0  0  0
   23.7658  -19.4035  -18.0950 C   0  0  0  0  0  0  0  0  0  0  0  0
   24.6787  -19.8933  -16.9830 C   0  0  0  0  0  0  0  0  0  0  0  0
   25.1101  -21.2768  -17.3624 C   0  0  0  0  0  0  0  0  0  0  0  0
   26.0538  -21.9375  -16.4197 C   0  0  2  0  0  0  0  0  0  0  0  0
   26.4297  -23.2660  -16.8528 N   0  0  0  0  0  0  0  0  0  0  0  0
   25.3240  -22.0170  -15.1020 C   0  0  0  0  0  0  0  0  0  0  0  0
   24.4635  -22.9217  -14.9917 O   0  0  0  0  0  0  0  0  0  0  0  0
   20.2067  -18.3906  -16.6501 C   0  0  0  0  0  0  0  0  0  0  0  0
   25.9968  -20.4828   -9.2017 C   0  0  0  0  0  0  0  0  0  0  0  0
   25.2394  -21.1454  -10.2998 C   0  0  2  0  0  0  0  0  0  0  0  0
   25.7549  -20.9496  -11.6761 C   0  0  0  0  0  0  0  0  0  0  0  0
   26.4831  -19.6398  -11.8979 C   0  0  2  0  0  0  0  0  0  0  0  0
   24.8613  -21.3721  -12.7717 N   0  0  0  0  0  0  0  0  0  0  0  0
   25.5824  -21.1351  -14.0489 C   0  0  0  0  0  0  0  0  0  0  0  0
   23.5239  -20.7803  -12.8436 O   0  0  0  0  0  0  0  0  0  0  0  0
   22.4878  -21.1875  -12.2736 O   0  0  0  0  0  0  0  0  0  0  0  0
  2  3  2  0
  2  1  1  0
  4  3  1  0
  5  4  2  0
  6  5  1  0
  7  6  1  0
  7  8  1  1
  9 21  1  0
  9  7  1  0
 10  9  2  0
 11  5  1  0
 11 12  2  0
 12  2  1  0
 14 13  1  0
 15 14  2  0
 16 14  1  0
 17 16  1  0
 18 17  1  0
 18 19  1  0
 20 19  1  6
 20 22  1  0
 20 21  1  0
 22 23  2  0
 24 25  1  0
 26 25  1  0
 26 27  1  6
 28 26  1  0
 29 22  1  0
 28 29  1  6
 30 32  1  0
 30 28  1  0
 31 30  2  0
M  END
$$$$
