YRI.pdb
     RDKit          3D

 32 32  0  0  1  0  0  0  0  0999 V2000
   20.4816  -17.1976  -15.9850 O   0  0  0  0  0  0  0  0  0  0  0  0
   21.0117  -17.7652  -14.8135 C   0  0  0  0  0  0  0  0  0  0  0  0
   20.1907  -18.1882  -13.7922 C   0  0  0  0  0  0  0  0  0  0  0  0
   20.6713  -18.7516  -12.6236 C   0  0  0  0  0  0  0  0  0  0  0  0
   22.0310  -18.9068  -12.4517 C   0  0  0  0  0  0  0  0  0  0  0  0
   22.5807  -19.5047  -11.2076 C   0  0  0  0  0  0  0  0  0  0  0  0
   23.2738  -20.7816  -11.6104 C   0  0  2  0  0  0  0  0  0  0  0  0
   22.3126  -21.8249  -11.7896 N   0  0  0  0  0  0  0  0  0  0  0  0
   24.3768  -21.1595  -10.6959 C   0  0  0  0  0  0  0  0  0  0  0  0
   24.1262  -21.7961   -9.6333 O   0  0  0  0  0  0  0  0  0  0  0  0
   22.8628  -18.4781  -13.4870 C   0  0  0  0  0  0  0  0  0  0  0  0
   22.3653  -17.9217  -14.6378 C   0  0  0  0  0  0  0  0  0  0  0  0
   31.9965  -23.1378  -12.8028 N   0  0  0  0  0  0  0  0  0  0  0  0
   32.3526  -23.0667  -11.4273 C   0  0  0  0  0  0  0  0  0  0  0  0
   33.3224  -23.7891  -10.9977 N   0  0  0  0  0  0  0  0  0  0  0  0
   31.6607  -22.2184  -10.5203 N   0  0  0  0  0  0  0  0  0  0  0  0
   30.5403  -21.3929  -10.9596 C   0  0  0  0  0  0  0  0  0  0  0  0
   29.3389  -21.5657  -10.0449 C   0  0  0  0  0  0  0  0  0  0  0  0
   28.1313  -21.1971  -10.8512 C   0  0  0  0  0  0  0  0  0  0  0  0
   26.8336  -21.2433  -10.1235 C   0  0  2  0  0  0  0  0  0  0  0  0
   25.7189  -20.8393  -10.9532 N   0  0  0  0  0  0  0  0  0  0  0  0
   26.9817  -20.2874   -8.9660 C   0  0  0  0  0  0  0  0  0  0  0  0
   26.6045  -19.1081   -9.1613 O   0  0  0  0  0  0  0  0  0  0  0  0
   33.5706  -23.7693   -9.9913 C   0  0  0  0  0  0  0  0  0  0  0  0
   26.8533  -21.7733   -3.6293 C   0  0  0  0  0  0  0  0  0  0  0  0
   26.7204  -21.1085   -4.9555 C   0  0  2  0  0  0  0  0  0  0  0  0
   27.8703  -20.2888   -5.4072 C   0  0  0  0  0  0  0  0  0  0  0  0
   28.5181  -19.4554   -4.3205 C   0  0  2  0  0  0  0  0  0  0  0  0
   27.7193  -19.6205   -6.7140 N   0  0  0  0  0  0  0  0  0  0  0  0
   27.5100  -20.6809   -7.7333 C   0  0  0  0  0  0  0  0  0  0  0  0
   28.7808  -18.7141   -7.1566 O   0  0  0  0  0  0  0  0  0  0  0  0
   29.7919  -19.0096   -7.8308 O   0  0  0  0  0  0  0  0  0  0  0  0
  2  3  2  0
  2  1  1  0
  4  3  1  0
  5  4  2  0
  6  5  1  0
  7  6  1  0
  7  8  1  1
  9 21  1  0
  9  7  1  0
 10  9  2  0
 11  5  1  0
 11 12  2  0
 12  2  1  0
 14 13  1  0
 15 14  2  0
 16 14  1  0
 17 16  1  0
 18 17  1  0
 18 19  1  0
 20 19  1  6
 20 22  1  0
 20 21  1  0
 22 23  2  0
 24 25  1  0
 26 25  1  0
 26 27  1  6
 28 26  1  0
 29 22  1  0
 28 29  1  6
 30 32  1  0
 30 28  1  0
 31 30  2  0
M  END
$$$$
