YRI.pdb
     RDKit          3D

 32 32  0  0  1  0  0  0  0  0999 V2000
   18.5223  -12.0902  -16.9729 O   0  0  0  0  0  0  0  0  0  0  0  0
   19.0407  -13.2785  -16.4299 C   0  0  0  0  0  0  0  0  0  0  0  0
   18.2353  -14.1580  -15.7415 C   0  0  0  0  0  0  0  0  0  0  0  0
   18.7052  -15.3374  -15.1917 C   0  0  0  0  0  0  0  0  0  0  0  0
   20.0374  -15.6680  -15.3269 C   0  0  0  0  0  0  0  0  0  0  0  0
   20.5755  -16.9250  -14.7456 C   0  0  0  0  0  0  0  0  0  0  0  0
   20.7628  -17.8866  -15.8916 C   0  0  2  0  0  0  0  0  0  0  0  0
   19.4908  -18.2849  -16.4093 N   0  0  0  0  0  0  0  0  0  0  0  0
   21.6365  -19.0344  -15.5524 C   0  0  0  0  0  0  0  0  0  0  0  0
   21.1741  -20.0057  -14.8891 O   0  0  0  0  0  0  0  0  0  0  0  0
   20.8534  -14.7766  -16.0246 C   0  0  0  0  0  0  0  0  0  0  0  0
   20.3670  -13.6121  -16.5619 C   0  0  0  0  0  0  0  0  0  0  0  0
   24.2045  -25.2681  -15.5900 N   0  0  0  0  0  0  0  0  0  0  0  0
   25.5987  -25.0229  -15.7307 C   0  0  0  0  0  0  0  0  0  0  0  0
   26.3977  -26.0209  -15.8417 N   0  0  0  0  0  0  0  0  0  0  0  0
   26.1260  -23.7028  -15.7495 N   0  0  0  0  0  0  0  0  0  0  0  0
   25.2876  -22.5569  -16.0868 C   0  0  0  0  0  0  0  0  0  0  0  0
   26.1002  -21.2730  -16.1208 C   0  0  0  0  0  0  0  0  0  0  0  0
   25.1337  -20.1626  -16.3988 C   0  0  0  0  0  0  0  0  0  0  0  0
   23.8871  -20.1762  -15.5855 C   0  0  2  0  0  0  0  0  0  0  0  0
   22.9844  -19.1016  -15.9378 N   0  0  0  0  0  0  0  0  0  0  0  0
   24.3338  -20.0194  -14.1533 C   0  0  0  0  0  0  0  0  0  0  0  0
   24.8131  -18.9059  -13.8345 O   0  0  0  0  0  0  0  0  0  0  0  0
   27.4126  -25.8540  -15.9724 C   0  0  0  0  0  0  0  0  0  0  0  0
   21.3571  -19.9204  -10.2502 C   0  0  0  0  0  0  0  0  0  0  0  0
   22.5064  -19.8967  -11.1974 C   0  0  2  0  0  0  0  0  0  0  0  0
   23.6165  -20.8397  -10.9206 C   0  0  0  0  0  0  0  0  0  0  0  0
   23.9793  -20.9765   -9.4561 C   0  0  2  0  0  0  0  0  0  0  0  0
   24.7574  -20.7938  -11.8552 N   0  0  0  0  0  0  0  0  0  0  0  0
   24.2255  -21.0524  -13.2180 C   0  0  0  0  0  0  0  0  0  0  0  0
   25.9010  -21.6713  -11.5977 O   0  0  0  0  0  0  0  0  0  0  0  0
   26.1812  -22.7373  -12.1886 O   0  0  0  0  0  0  0  0  0  0  0  0
  2  3  2  0
  2  1  1  0
  4  3  1  0
  5  4  2  0
  6  5  1  0
  7  6  1  0
  7  8  1  1
  9 21  1  0
  9  7  1  0
 10  9  2  0
 11  5  1  0
 11 12  2  0
 12  2  1  0
 14 13  1  0
 15 14  2  0
 16 14  1  0
 17 16  1  0
 18 17  1  0
 18 19  1  0
 20 19  1  6
 20 22  1  0
 20 21  1  0
 22 23  2  0
 24 25  1  0
 26 25  1  0
 26 27  1  6
 28 26  1  0
 29 22  1  0
 28 29  1  1
 30 32  1  0
 30 28  1  0
 31 30  2  0
M  END
$$$$
