YRI.pdb
     RDKit          3D

 32 32  0  0  1  0  0  0  0  0999 V2000
   26.2113  -11.7091  -20.5853 O   0  0  0  0  0  0  0  0  0  0  0  0
   25.3613  -12.6436  -19.9689 C   0  0  0  0  0  0  0  0  0  0  0  0
   25.8625  -13.6314  -19.1510 C   0  0  0  0  0  0  0  0  0  0  0  0
   25.0614  -14.5702  -18.5257 C   0  0  0  0  0  0  0  0  0  0  0  0
   23.6957  -14.5344  -18.7156 C   0  0  0  0  0  0  0  0  0  0  0  0
   22.8069  -15.5295  -18.0621 C   0  0  0  0  0  0  0  0  0  0  0  0
   23.2471  -16.8876  -18.5471 C   0  0  2  0  0  0  0  0  0  0  0  0
   23.1628  -16.9491  -19.9732 N   0  0  0  0  0  0  0  0  0  0  0  0
   22.5407  -18.0035  -17.8753 C   0  0  0  0  0  0  0  0  0  0  0  0
   21.3858  -18.3429  -18.2604 O   0  0  0  0  0  0  0  0  0  0  0  0
   23.1881  -13.5331  -19.5446 C   0  0  0  0  0  0  0  0  0  0  0  0
   24.0005  -12.6119  -20.1552 C   0  0  0  0  0  0  0  0  0  0  0  0
   26.7087  -21.5786  -14.0352 N   0  0  0  0  0  0  0  0  0  0  0  0
   25.8942  -21.4681  -12.8741 C   0  0  0  0  0  0  0  0  0  0  0  0
   26.3961  -20.9592  -11.8083 N   0  0  0  0  0  0  0  0  0  0  0  0
   24.5424  -21.9084  -12.8663 N   0  0  0  0  0  0  0  0  0  0  0  0
   23.9632  -22.5969  -14.0152 C   0  0  0  0  0  0  0  0  0  0  0  0
   22.8064  -21.8062  -14.6035 C   0  0  0  0  0  0  0  0  0  0  0  0
   23.4114  -20.6725  -15.3737 C   0  0  0  0  0  0  0  0  0  0  0  0
   22.4502  -19.8209  -16.1263 C   0  0  2  0  0  0  0  0  0  0  0  0
   23.0997  -18.7213  -16.8065 N   0  0  0  0  0  0  0  0  0  0  0  0
   21.4864  -19.2867  -15.0961 C   0  0  0  0  0  0  0  0  0  0  0  0
   21.9481  -18.4651  -14.2697 O   0  0  0  0  0  0  0  0  0  0  0  0
   25.8117  -20.8727  -10.9563 C   0  0  0  0  0  0  0  0  0  0  0  0
   15.6849  -19.7587  -15.3036 C   0  0  0  0  0  0  0  0  0  0  0  0
   17.0580  -19.9660  -14.7650 C   0  0  2  0  0  0  0  0  0  0  0  0
   17.9531  -18.7841  -14.7517 C   0  0  0  0  0  0  0  0  0  0  0  0
   17.9790  -17.9965  -16.0455 C   0  0  1  0  0  0  0  0  0  0  0  0
   19.2611  -18.9660  -14.0934 N   0  0  0  0  0  0  0  0  0  0  0  0
   20.1452  -19.6777  -15.0521 C   0  0  0  0  0  0  0  0  0  0  0  0
   19.2964  -19.6421  -12.7951 O   0  0  0  0  0  0  0  0  0  0  0  0
   19.6776  -20.8106  -12.5638 O   0  0  0  0  0  0  0  0  0  0  0  0
  2  3  2  0
  2  1  1  0
  4  3  1  0
  5  4  2  0
  6  5  1  0
  7  6  1  0
  7  8  1  6
  9 21  1  0
  9  7  1  0
 10  9  2  0
 11  5  1  0
 11 12  2  0
 12  2  1  0
 14 13  1  0
 15 14  2  0
 16 14  1  0
 17 16  1  0
 18 17  1  0
 18 19  1  0
 20 19  1  1
 20 22  1  0
 20 21  1  0
 22 23  2  0
 24 25  1  0
 26 25  1  0
 26 27  1  1
 28 26  1  0
 29 22  1  0
 28 29  1  6
 30 32  1  0
 30 28  1  0
 31 30  2  0
M  END
$$$$
