YRI.pdb
     RDKit          3D

 32 32  0  0  1  0  0  0  0  0999 V2000
   30.7761  -13.5284  -16.3694 O   0  0  0  0  0  0  0  0  0  0  0  0
   29.6974  -12.6294  -16.4310 C   0  0  0  0  0  0  0  0  0  0  0  0
   28.5121  -12.8934  -15.7819 C   0  0  0  0  0  0  0  0  0  0  0  0
   27.4268  -12.0360  -15.8170 C   0  0  0  0  0  0  0  0  0  0  0  0
   27.5133  -10.8573  -16.5282 C   0  0  0  0  0  0  0  0  0  0  0  0
   26.3655   -9.9160  -16.5896 C   0  0  0  0  0  0  0  0  0  0  0  0
   25.3993  -10.4767  -17.6022 C   0  0  2  0  0  0  0  0  0  0  0  0
   26.0019  -10.4898  -18.8989 N   0  0  0  0  0  0  0  0  0  0  0  0
   24.0791   -9.8043  -17.5826 C   0  0  0  0  0  0  0  0  0  0  0  0
   23.9332   -8.6825  -18.1462 O   0  0  0  0  0  0  0  0  0  0  0  0
   28.7147  -10.5901  -17.1858 C   0  0  0  0  0  0  0  0  0  0  0  0
   29.7788  -11.4542  -17.1381 C   0  0  0  0  0  0  0  0  0  0  0  0
   16.1059  -12.9583  -15.0934 N   0  0  0  0  0  0  0  0  0  0  0  0
   15.8343  -11.6489  -15.5787 C   0  0  0  0  0  0  0  0  0  0  0  0
   14.6225  -11.2267  -15.5847 N   0  0  0  0  0  0  0  0  0  0  0  0
   16.8701  -10.8008  -16.0572 N   0  0  0  0  0  0  0  0  0  0  0  0
   18.2630  -11.2361  -16.0646 C   0  0  0  0  0  0  0  0  0  0  0  0
   19.1890  -10.1073  -16.4867 C   0  0  0  0  0  0  0  0  0  0  0  0
   20.5707  -10.6839  -16.5367 C   0  0  0  0  0  0  0  0  0  0  0  0
   21.6557   -9.7250  -16.8817 C   0  0  2  0  0  0  0  0  0  0  0  0
   22.9536  -10.3605  -16.9550 N   0  0  0  0  0  0  0  0  0  0  0  0
   21.6531   -8.6939  -15.7808 C   0  0  0  0  0  0  0  0  0  0  0  0
   22.0978   -9.0612  -14.6679 O   0  0  0  0  0  0  0  0  0  0  0  0
   14.4089  -10.2849  -15.9621 C   0  0  0  0  0  0  0  0  0  0  0  0
   22.8223   -2.9518  -14.6847 C   0  0  0  0  0  0  0  0  0  0  0  0
   22.0808   -4.1702  -14.2554 C   0  0  2  0  0  0  0  0  0  0  0  0
   22.0358   -5.2959  -15.2193 C   0  0  0  0  0  0  0  0  0  0  0  0
   21.8921   -4.8810  -16.6692 C   0  0  2  0  0  0  0  0  0  0  0  0
   21.2379   -6.4687  -14.8130 N   0  0  0  0  0  0  0  0  0  0  0  0
   21.1827   -7.3922  -15.9755 C   0  0  0  0  0  0  0  0  0  0  0  0
   19.8859   -6.2434  -14.2978 O   0  0  0  0  0  0  0  0  0  0  0  0
   19.5709   -5.6620  -13.2363 O   0  0  0  0  0  0  0  0  0  0  0  0
  2  3  2  0
  2  1  1  0
  4  3  1  0
  5  4  2  0
  6  5  1  0
  7  6  1  0
  7  8  1  6
  9 21  1  0
  9  7  1  0
 10  9  2  0
 11  5  1  0
 11 12  2  0
 12  2  1  0
 14 13  1  0
 15 14  2  0
 16 14  1  0
 17 16  1  0
 18 17  1  0
 18 19  1  0
 20 19  1  1
 20 22  1  0
 20 21  1  0
 22 23  2  0
 24 25  1  0
 26 25  1  0
 26 27  1  1
 28 26  1  0
 29 22  1  0
 28 29  1  6
 30 32  1  0
 30 28  1  0
 31 30  2  0
M  END
$$$$
