YRI.pdb
     RDKit          3D

 32 32  0  0  1  0  0  0  0  0999 V2000
   31.4987  -16.2956  -19.1455 O   0  0  0  0  0  0  0  0  0  0  0  0
   30.5221  -16.4866  -18.1528 C   0  0  0  0  0  0  0  0  0  0  0  0
   30.6775  -17.4440  -17.1754 C   0  0  0  0  0  0  0  0  0  0  0  0
   29.7412  -17.6643  -16.1810 C   0  0  0  0  0  0  0  0  0  0  0  0
   28.5921  -16.9022  -16.1472 C   0  0  0  0  0  0  0  0  0  0  0  0
   27.5646  -17.1151  -15.0954 C   0  0  0  0  0  0  0  0  0  0  0  0
   26.7785  -18.3368  -15.4990 C   0  0  2  0  0  0  0  0  0  0  0  0
   26.1756  -18.1301  -16.7790 N   0  0  0  0  0  0  0  0  0  0  0  0
   25.8110  -18.7748  -14.4657 C   0  0  0  0  0  0  0  0  0  0  0  0
   24.8645  -18.0110  -14.1224 O   0  0  0  0  0  0  0  0  0  0  0  0
   28.4349  -15.9320  -17.1378 C   0  0  0  0  0  0  0  0  0  0  0  0
   29.3760  -15.7300  -18.1151 C   0  0  0  0  0  0  0  0  0  0  0  0
   20.0624  -22.9730  -13.8504 N   0  0  0  0  0  0  0  0  0  0  0  0
   19.7920  -22.1214  -12.7434 C   0  0  0  0  0  0  0  0  0  0  0  0
   18.7074  -22.2906  -12.0788 N   0  0  0  0  0  0  0  0  0  0  0  0
   20.6914  -21.0899  -12.3584 N   0  0  0  0  0  0  0  0  0  0  0  0
   21.9820  -20.9243  -13.0192 C   0  0  0  0  0  0  0  0  0  0  0  0
   22.9364  -22.0479  -12.6496 C   0  0  0  0  0  0  0  0  0  0  0  0
   24.2363  -21.7459  -13.3302 C   0  0  0  0  0  0  0  0  0  0  0  0
   24.9366  -20.5181  -12.8636 C   0  0  2  0  0  0  0  0  0  0  0  0
   25.8923  -20.0242  -13.8313 N   0  0  0  0  0  0  0  0  0  0  0  0
   25.6514  -20.9141  -11.5957 C   0  0  0  0  0  0  0  0  0  0  0  0
   26.4657  -21.8630  -11.6845 O   0  0  0  0  0  0  0  0  0  0  0  0
   18.5235  -21.7099  -11.2398 C   0  0  0  0  0  0  0  0  0  0  0  0
   28.4831  -19.4056   -6.6282 C   0  0  0  0  0  0  0  0  0  0  0  0
   27.6076  -20.3994   -7.3098 C   0  0  2  0  0  0  0  0  0  0  0  0
   26.9244  -19.9474   -8.5456 C   0  0  0  0  0  0  0  0  0  0  0  0
   26.4602  -18.5056   -8.5198 C   0  0  2  0  0  0  0  0  0  0  0  0
   25.9834  -20.9059   -9.1564 N   0  0  0  0  0  0  0  0  0  0  0  0
   25.4287  -20.2665  -10.3773 C   0  0  0  0  0  0  0  0  0  0  0  0
   24.8905  -21.4262   -8.3325 O   0  0  0  0  0  0  0  0  0  0  0  0
   23.6657  -21.2323   -8.4952 O   0  0  0  0  0  0  0  0  0  0  0  0
  2  3  2  0
  2  1  1  0
  4  3  1  0
  5  4  2  0
  6  5  1  0
  7  6  1  0
  7  8  1  6
  9 21  1  0
  9  7  1  0
 10  9  2  0
 11  5  1  0
 11 12  2  0
 12  2  1  0
 14 13  1  0
 15 14  2  0
 16 14  1  0
 17 16  1  0
 18 17  1  0
 18 19  1  0
 20 19  1  6
 20 22  1  0
 20 21  1  0
 22 23  2  0
 24 25  1  0
 26 25  1  0
 26 27  1  6
 28 26  1  0
 29 22  1  0
 28 29  1  1
 30 32  1  0
 30 28  1  0
 31 30  2  0
M  END
$$$$
