YRI.pdb
     RDKit          3D

 32 32  0  0  1  0  0  0  0  0999 V2000
   15.8313  -23.9057  -15.1315 O   0  0  0  0  0  0  0  0  0  0  0  0
   17.0103  -23.1477  -15.0262 C   0  0  0  0  0  0  0  0  0  0  0  0
   16.9718  -21.7718  -14.9901 C   0  0  0  0  0  0  0  0  0  0  0  0
   18.1078  -20.9888  -14.8872 C   0  0  0  0  0  0  0  0  0  0  0  0
   19.3461  -21.5921  -14.8161 C   0  0  0  0  0  0  0  0  0  0  0  0
   20.5862  -20.7810  -14.7087 C   0  0  0  0  0  0  0  0  0  0  0  0
   21.0932  -20.9497  -13.2989 C   0  0  2  0  0  0  0  0  0  0  0  0
   20.1705  -20.3686  -12.3740 N   0  0  0  0  0  0  0  0  0  0  0  0
   22.4811  -20.4637  -13.1167 C   0  0  0  0  0  0  0  0  0  0  0  0
   22.6946  -19.2463  -12.8531 O   0  0  0  0  0  0  0  0  0  0  0  0
   19.3847  -22.9866  -14.8526 C   0  0  0  0  0  0  0  0  0  0  0  0
   18.2459  -23.7442  -14.9551 C   0  0  0  0  0  0  0  0  0  0  0  0
   30.0595  -21.7183   -9.0253 N   0  0  0  0  0  0  0  0  0  0  0  0
   30.0844  -21.6497  -10.4461 C   0  0  0  0  0  0  0  0  0  0  0  0
   30.9166  -22.3843  -11.0899 N   0  0  0  0  0  0  0  0  0  0  0  0
   29.2130  -20.7880  -11.1668 N   0  0  0  0  0  0  0  0  0  0  0  0
   27.7657  -20.9720  -11.1314 C   0  0  0  0  0  0  0  0  0  0  0  0
   27.2687  -21.6612  -12.3914 C   0  0  0  0  0  0  0  0  0  0  0  0
   25.7832  -21.7928  -12.2490 C   0  0  0  0  0  0  0  0  0  0  0  0
   24.9723  -20.8679  -13.0873 C   0  0  2  0  0  0  0  0  0  0  0  0
   23.5997  -21.3047  -13.2246 N   0  0  0  0  0  0  0  0  0  0  0  0
   25.6410  -20.8519  -14.4394 C   0  0  0  0  0  0  0  0  0  0  0  0
   25.4333  -21.8423  -15.1790 O   0  0  0  0  0  0  0  0  0  0  0  0
   31.0076  -22.2777  -12.1172 C   0  0  0  0  0  0  0  0  0  0  0  0
   28.4308  -16.3224  -16.8376 C   0  0  0  0  0  0  0  0  0  0  0  0
   28.1728  -17.6427  -16.1981 C   0  0  2  0  0  0  0  0  0  0  0  0
   27.0315  -18.4270  -16.7279 C   0  0  0  0  0  0  0  0  0  0  0  0
   25.7214  -17.6694  -16.7959 C   0  0  1  0  0  0  0  0  0  0  0  0
   26.9328  -19.8249  -16.2661 N   0  0  0  0  0  0  0  0  0  0  0  0
   26.4530  -19.7951  -14.8604 C   0  0  0  0  0  0  0  0  0  0  0  0
   28.1222  -20.6734  -16.3631 O   0  0  0  0  0  0  0  0  0  0  0  0
   28.6826  -21.0690  -17.4088 O   0  0  0  0  0  0  0  0  0  0  0  0
  2  3  2  0
  2  1  1  0
  4  3  1  0
  5  4  2  0
  6  5  1  0
  7  6  1  0
  7  8  1  1
  9 21  1  0
  9  7  1  0
 10  9  2  0
 11  5  1  0
 11 12  2  0
 12  2  1  0
 14 13  1  0
 15 14  2  0
 16 14  1  0
 17 16  1  0
 18 17  1  0
 18 19  1  0
 20 19  1  1
 20 22  1  0
 20 21  1  0
 22 23  2  0
 24 25  1  0
 26 25  1  0
 26 27  1  6
 28 26  1  0
 29 22  1  0
 28 29  1  1
 30 32  1  0
 30 28  1  0
 31 30  2  0
M  END
$$$$
