YRI.pdb
     RDKit          3D

 32 32  0  0  1  0  0  0  0  0999 V2000
   34.7691  -24.4935  -14.4175 O   0  0  0  0  0  0  0  0  0  0  0  0
   33.7517  -23.5914  -14.0613 C   0  0  0  0  0  0  0  0  0  0  0  0
   33.3329  -22.6101  -14.9317 C   0  0  0  0  0  0  0  0  0  0  0  0
   32.3357  -21.7029  -14.6208 C   0  0  0  0  0  0  0  0  0  0  0  0
   31.7188  -21.7653  -13.3887 C   0  0  0  0  0  0  0  0  0  0  0  0
   30.6470  -20.8042  -13.0213 C   0  0  0  0  0  0  0  0  0  0  0  0
   29.3345  -21.4970  -13.2868 C   0  0  2  0  0  0  0  0  0  0  0  0
   29.1417  -21.6575  -14.6945 N   0  0  0  0  0  0  0  0  0  0  0  0
   28.1856  -20.8465  -12.6142 C   0  0  0  0  0  0  0  0  0  0  0  0
   28.1993  -19.6002  -12.4047 O   0  0  0  0  0  0  0  0  0  0  0  0
   32.1435  -22.7599  -12.5069 C   0  0  0  0  0  0  0  0  0  0  0  0
   33.1345  -23.6496  -12.8353 C   0  0  0  0  0  0  0  0  0  0  0  0
   20.5416  -21.1882  -11.6364 N   0  0  0  0  0  0  0  0  0  0  0  0
   20.6938  -19.7786  -11.5187 C   0  0  0  0  0  0  0  0  0  0  0  0
   19.7610  -19.0967  -10.9606 N   0  0  0  0  0  0  0  0  0  0  0  0
   21.8504  -19.1099  -12.0048 N   0  0  0  0  0  0  0  0  0  0  0  0
   23.0480  -19.8499  -12.3891 C   0  0  0  0  0  0  0  0  0  0  0  0
   23.4214  -20.8772  -11.3331 C   0  0  0  0  0  0  0  0  0  0  0  0
   24.6386  -21.5883  -11.8400 C   0  0  0  0  0  0  0  0  0  0  0  0
   25.9432  -20.9787  -11.4633 C   0  0  2  0  0  0  0  0  0  0  0  0
   27.0546  -21.5588  -12.1859 N   0  0  0  0  0  0  0  0  0  0  0  0
   26.1026  -21.2389   -9.9860 C   0  0  0  0  0  0  0  0  0  0  0  0
   26.0801  -22.4384   -9.6227 O   0  0  0  0  0  0  0  0  0  0  0  0
   19.8378  -18.0638  -10.9139 C   0  0  0  0  0  0  0  0  0  0  0  0
   28.7726  -20.3984   -5.0879 C   0  0  0  0  0  0  0  0  0  0  0  0
   27.4616  -19.8290   -5.5072 C   0  0  2  0  0  0  0  0  0  0  0  0
   27.2555  -19.6342   -6.9624 C   0  0  0  0  0  0  0  0  0  0  0  0
   27.1077  -18.1889   -7.3919 C   0  0  2  0  0  0  0  0  0  0  0  0
   26.3455  -20.5888   -7.6241 N   0  0  0  0  0  0  0  0  0  0  0  0
   26.2679  -20.2071   -9.0578 C   0  0  0  0  0  0  0  0  0  0  0  0
   24.9943  -20.7484   -7.0828 O   0  0  0  0  0  0  0  0  0  0  0  0
   24.6547  -21.4345   -6.0938 O   0  0  0  0  0  0  0  0  0  0  0  0
  2  3  2  0
  2  1  1  0
  4  3  1  0
  5  4  2  0
  6  5  1  0
  7  6  1  0
  7  8  1  6
  9 21  1  0
  9  7  1  0
 10  9  2  0
 11  5  1  0
 11 12  2  0
 12  2  1  0
 14 13  1  0
 15 14  2  0
 16 14  1  0
 17 16  1  0
 18 17  1  0
 18 19  1  0
 20 19  1  6
 20 22  1  0
 20 21  1  0
 22 23  2  0
 24 25  1  0
 26 25  1  0
 26 27  1  6
 28 26  1  0
 29 22  1  0
 28 29  1  1
 30 32  1  0
 30 28  1  0
 31 30  2  0
M  END
$$$$
