YRI.pdb
     RDKit          3D

 32 32  0  0  1  0  0  0  0  0999 V2000
   28.6671  -17.8087   -3.0646 O   0  0  0  0  0  0  0  0  0  0  0  0
   28.4195  -18.3994   -4.3157 C   0  0  0  0  0  0  0  0  0  0  0  0
   28.7302  -19.7195   -4.5543 C   0  0  0  0  0  0  0  0  0  0  0  0
   28.5030  -20.3390   -5.7703 C   0  0  0  0  0  0  0  0  0  0  0  0
   27.9406  -19.6213   -6.8053 C   0  0  0  0  0  0  0  0  0  0  0  0
   27.6867  -20.2548   -8.1249 C   0  0  0  0  0  0  0  0  0  0  0  0
   26.1983  -20.4762   -8.2197 C   0  0  2  0  0  0  0  0  0  0  0  0
   25.7647  -21.3443   -7.1695 N   0  0  0  0  0  0  0  0  0  0  0  0
   25.7603  -20.9255   -9.5621 C   0  0  0  0  0  0  0  0  0  0  0  0
   26.3310  -21.9071  -10.1170 O   0  0  0  0  0  0  0  0  0  0  0  0
   27.6258  -18.2835   -6.5631 C   0  0  0  0  0  0  0  0  0  0  0  0
   27.8596  -17.6886   -5.3495 C   0  0  0  0  0  0  0  0  0  0  0  0
   21.1588  -22.8996  -15.0803 N   0  0  0  0  0  0  0  0  0  0  0  0
   20.3919  -23.1120  -13.9011 C   0  0  0  0  0  0  0  0  0  0  0  0
   19.8569  -24.2619  -13.7058 N   0  0  0  0  0  0  0  0  0  0  0  0
   20.2034  -22.0831  -12.9382 N   0  0  0  0  0  0  0  0  0  0  0  0
   20.8134  -20.7679  -13.1055 C   0  0  0  0  0  0  0  0  0  0  0  0
   22.3285  -20.8689  -13.1665 C   0  0  0  0  0  0  0  0  0  0  0  0
   22.8279  -20.6527  -11.7707 C   0  0  0  0  0  0  0  0  0  0  0  0
   24.3076  -20.6594  -11.6088 C   0  0  2  0  0  0  0  0  0  0  0  0
   24.7194  -20.3027  -10.2683 N   0  0  0  0  0  0  0  0  0  0  0  0
   24.8293  -19.6408  -12.5916 C   0  0  0  0  0  0  0  0  0  0  0  0
   24.4983  -18.4485  -12.3917 O   0  0  0  0  0  0  0  0  0  0  0  0
   19.3169  -24.4362  -12.8380 C   0  0  0  0  0  0  0  0  0  0  0  0
   29.7374  -18.2858  -15.7772 C   0  0  0  0  0  0  0  0  0  0  0  0
   28.2625  -18.1362  -15.6331 C   0  0  2  0  0  0  0  0  0  0  0  0
   27.5883  -19.0628  -14.6922 C   0  0  0  0  0  0  0  0  0  0  0  0
   28.0709  -20.4971  -14.7629 C   0  0  2  0  0  0  0  0  0  0  0  0
   26.1306  -18.8907  -14.5420 N   0  0  0  0  0  0  0  0  0  0  0  0
   25.6407  -19.9924  -13.6740 C   0  0  0  0  0  0  0  0  0  0  0  0
   25.3121  -18.8169  -15.7539 O   0  0  0  0  0  0  0  0  0  0  0  0
   25.1931  -17.8393  -16.5248 O   0  0  0  0  0  0  0  0  0  0  0  0
  2  3  2  0
  2  1  1  0
  4  3  1  0
  5  4  2  0
  6  5  1  0
  7  6  1  0
  7  8  1  1
  9 21  1  0
  9  7  1  0
 10  9  2  0
 11  5  1  0
 11 12  2  0
 12  2  1  0
 14 13  1  0
 15 14  2  0
 16 14  1  0
 17 16  1  0
 18 17  1  0
 18 19  1  0
 20 19  1  1
 20 22  1  0
 20 21  1  0
 22 23  2  0
 24 25  1  0
 26 25  1  0
 26 27  1  1
 28 26  1  0
 29 22  1  0
 28 29  1  6
 30 32  1  0
 30 28  1  0
 31 30  2  0
M  END
$$$$
