YRI.pdb
     RDKit          3D

 32 32  0  0  1  0  0  0  0  0999 V2000
   29.0388  -20.6305   -3.8036 O   0  0  0  0  0  0  0  0  0  0  0  0
   28.5996  -20.3983   -5.1185 C   0  0  0  0  0  0  0  0  0  0  0  0
   29.3596  -19.6686   -6.0050 C   0  0  0  0  0  0  0  0  0  0  0  0
   28.9644  -19.4170   -7.3068 C   0  0  0  0  0  0  0  0  0  0  0  0
   27.7581  -19.9096   -7.7591 C   0  0  0  0  0  0  0  0  0  0  0  0
   27.3018  -19.6549   -9.1499 C   0  0  0  0  0  0  0  0  0  0  0  0
   27.4433  -20.9566   -9.8974 C   0  0  2  0  0  0  0  0  0  0  0  0
   28.8205  -21.3355   -9.9643 N   0  0  0  0  0  0  0  0  0  0  0  0
   26.7801  -20.9429  -11.2223 C   0  0  0  0  0  0  0  0  0  0  0  0
   27.3671  -20.4300  -12.2172 O   0  0  0  0  0  0  0  0  0  0  0  0
   26.9881  -20.6491   -6.8604 C   0  0  0  0  0  0  0  0  0  0  0  0
   27.3988  -20.8868   -5.5735 C   0  0  0  0  0  0  0  0  0  0  0  0
   25.0636  -24.2769  -17.1609 N   0  0  0  0  0  0  0  0  0  0  0  0
   25.5375  -25.1359  -16.1307 C   0  0  0  0  0  0  0  0  0  0  0  0
   26.6101  -25.8120  -16.3288 N   0  0  0  0  0  0  0  0  0  0  0  0
   24.8522  -25.2638  -14.8917 N   0  0  0  0  0  0  0  0  0  0  0  0
   23.5887  -24.5745  -14.6501 C   0  0  0  0  0  0  0  0  0  0  0  0
   23.8071  -23.0854  -14.4389 C   0  0  0  0  0  0  0  0  0  0  0  0
   24.4706  -22.9357  -13.1041 C   0  0  0  0  0  0  0  0  0  0  0  0
   24.8423  -21.5457  -12.7229 C   0  0  2  0  0  0  0  0  0  0  0  0
   25.5021  -21.4821  -11.4367 N   0  0  0  0  0  0  0  0  0  0  0  0
   23.5452  -20.7774  -12.6704 C   0  0  0  0  0  0  0  0  0  0  0  0
   22.9495  -20.7582  -11.5677 O   0  0  0  0  0  0  0  0  0  0  0  0
   26.9830  -26.4163  -15.5734 C   0  0  0  0  0  0  0  0  0  0  0  0
   20.5307  -16.1723  -15.3233 C   0  0  0  0  0  0  0  0  0  0  0  0
   20.5269  -17.3749  -14.4445 C   0  0  2  0  0  0  0  0  0  0  0  0
   21.7228  -18.2490  -14.5076 C   0  0  0  0  0  0  0  0  0  0  0  0
   22.2510  -18.4974  -15.9056 C   0  0  2  0  0  0  0  0  0  0  0  0
   21.7188  -19.4225  -13.6131 N   0  0  0  0  0  0  0  0  0  0  0  0
   23.0216  -20.1158  -13.7846 C   0  0  0  0  0  0  0  0  0  0  0  0
   20.6258  -20.3886  -13.7409 O   0  0  0  0  0  0  0  0  0  0  0  0
   20.5989  -21.4042  -14.4702 O   0  0  0  0  0  0  0  0  0  0  0  0
  2  3  2  0
  2  1  1  0
  4  3  1  0
  5  4  2  0
  6  5  1  0
  7  6  1  0
  7  8  1  6
  9 21  1  0
  9  7  1  0
 10  9  2  0
 11  5  1  0
 11 12  2  0
 12  2  1  0
 14 13  1  0
 15 14  2  0
 16 14  1  0
 17 16  1  0
 18 17  1  0
 18 19  1  0
 20 19  1  1
 20 22  1  0
 20 21  1  0
 22 23  2  0
 24 25  1  0
 26 25  1  0
 26 27  1  1
 28 26  1  0
 29 22  1  0
 28 29  1  6
 30 32  1  0
 30 28  1  0
 31 30  2  0
M  END
$$$$
