GME.pdb
     RDKit          3D

 22 21  0  0  1  0  0  0  0  0999 V2000
   22.2902  -19.9315   -9.9411 N   0  0  0  0  0  0  0  0  0  0  0  0
   23.1862  -21.0084  -10.3111 C   0  0  0  0  0  0  0  0  0  0  0  0
   24.2840  -20.4415  -11.1095 C   0  0  0  0  0  0  0  0  0  0  0  0
   24.0751  -19.5387  -11.9939 O   0  0  0  0  0  0  0  0  0  0  0  0
   30.9877  -22.4670  -11.7244 C   0  0  0  0  0  0  0  0  0  0  0  0
   30.7216  -20.6916  -11.4932 S   0  0  0  0  0  0  0  0  0  0  0  0
   29.1351  -20.1534  -12.1748 C   0  0  0  0  0  0  0  0  0  0  0  0
   28.0370  -20.7656  -11.3436 C   0  0  0  0  0  0  0  0  0  0  0  0
   26.6604  -20.3629  -11.8391 C   0  0  2  0  0  0  0  0  0  0  0  0
   25.6277  -20.8563  -10.9467 N   0  0  0  0  0  0  0  0  0  0  0  0
   26.4648  -20.9235  -13.1821 C   0  0  0  0  0  0  0  0  0  0  0  0
   26.1532  -22.1203  -13.4172 O   0  0  0  0  0  0  0  0  0  0  0  0
   26.6312  -20.0833  -14.3050 N   0  0  0  0  0  0  0  0  0  0  0  0
   26.2654  -20.4824  -15.6720 C   0  0  1  0  0  0  0  0  0  0  0  0
   24.7704  -20.6228  -15.6660 C   0  0  0  0  0  0  0  0  0  0  0  0
   24.0364  -19.3302  -15.5422 C   0  0  0  0  0  0  0  0  0  0  0  0
   22.6699  -19.5373  -16.0838 C   0  0  0  0  0  0  0  0  0  0  0  0
   22.3870  -20.6013  -16.6834 O   0  0  0  0  0  0  0  0  0  0  0  0
   26.8073  -19.5396  -16.6413 C   0  0  0  0  0  0  0  0  0  0  0  0
   26.7377  -19.7931  -17.8659 O   0  0  0  0  0  0  0  0  0  0  0  0
   21.6685  -18.5742  -15.9441 O   0  0  0  0  0  0  0  0  0  0  0  0
   27.4071  -18.3551  -16.2499 O   0  0  0  0  0  0  0  0  0  0  0  0
  2  3  1  0
  2  1  1  0
  3 10  1  0
  4  3  2  0
  6  7  1  0
  6  5  1  0
  9  8  1  1
  8  7  1  0
  9 11  1  0
 10  9  1  0
 11 13  1  0
 11 12  2  0
 13 14  1  0
 14 19  1  0
 14 15  1  1
 16 17  1  0
 16 15  1  0
 17 18  2  0
 19 22  1  0
 20 19  2  0
 21 17  1  0
M  END
$$$$
