GME.pdb
     RDKit          3D

 22 21  0  0  1  0  0  0  0  0999 V2000
   13.7555   -6.6186   -8.0899 N   0  0  0  0  0  0  0  0  0  0  0  0
   15.1356   -6.2829   -7.8034 C   0  0  0  0  0  0  0  0  0  0  0  0
   16.0003   -7.1482   -8.6204 C   0  0  0  0  0  0  0  0  0  0  0  0
   17.2720   -6.9962   -8.6455 O   0  0  0  0  0  0  0  0  0  0  0  0
   16.8525  -14.0702  -12.3330 C   0  0  0  0  0  0  0  0  0  0  0  0
   15.7630  -12.8082  -11.6284 S   0  0  0  0  0  0  0  0  0  0  0  0
   16.6462  -11.2657  -11.2938 C   0  0  0  0  0  0  0  0  0  0  0  0
   15.6965  -10.3242  -10.5990 C   0  0  0  0  0  0  0  0  0  0  0  0
   16.3715   -9.0205  -10.2150 C   0  0  2  0  0  0  0  0  0  0  0  0
   15.4812   -8.1947   -9.4201 N   0  0  0  0  0  0  0  0  0  0  0  0
   16.7443   -8.3078  -11.4436 C   0  0  0  0  0  0  0  0  0  0  0  0
   15.9323   -7.7044  -12.1927 O   0  0  0  0  0  0  0  0  0  0  0  0
   18.1012   -8.2817  -11.8344 N   0  0  0  0  0  0  0  0  0  0  0  0
   18.6004   -7.4813  -12.9622 C   0  0  1  0  0  0  0  0  0  0  0  0
   19.9147   -6.9159  -12.5066 C   0  0  0  0  0  0  0  0  0  0  0  0
   20.5863   -6.0443  -13.5136 C   0  0  0  0  0  0  0  0  0  0  0  0
   21.8160   -5.4994  -12.8856 C   0  0  0  0  0  0  0  0  0  0  0  0
   22.2388   -5.9841  -11.8094 O   0  0  0  0  0  0  0  0  0  0  0  0
   18.6452   -8.2836  -14.1772 C   0  0  0  0  0  0  0  0  0  0  0  0
   18.8867   -9.5107  -14.1073 O   0  0  0  0  0  0  0  0  0  0  0  0
   22.5345   -4.4500  -13.4620 O   0  0  0  0  0  0  0  0  0  0  0  0
   18.4279   -7.7283  -15.4263 O   0  0  0  0  0  0  0  0  0  0  0  0
  2  3  1  0
  2  1  1  0
  3 10  1  0
  4  3  2  0
  6  7  1  0
  6  5  1  0
  9  8  1  6
  8  7  1  0
  9 11  1  0
 10  9  1  0
 11 13  1  0
 11 12  2  0
 13 14  1  0
 14 19  1  0
 14 15  1  1
 16 17  1  0
 16 15  1  0
 17 18  2  0
 19 22  1  0
 20 19  2  0
 21 17  1  0
M  END
$$$$
