GME.pdb
     RDKit          3D

 22 21  0  0  1  0  0  0  0  0999 V2000
   23.7747  -15.1395  -21.0214 N   0  0  0  0  0  0  0  0  0  0  0  0
   24.1687  -13.7853  -21.3536 C   0  0  0  0  0  0  0  0  0  0  0  0
   24.6134  -13.1184  -20.1201 C   0  0  0  0  0  0  0  0  0  0  0  0
   23.9922  -13.2739  -19.0106 O   0  0  0  0  0  0  0  0  0  0  0  0
   28.1561  -11.5531  -14.4705 C   0  0  0  0  0  0  0  0  0  0  0  0
   27.7114  -12.1297  -16.1276 S   0  0  0  0  0  0  0  0  0  0  0  0
   27.9651  -10.8478  -17.3781 C   0  0  0  0  0  0  0  0  0  0  0  0
   27.5854  -11.4209  -18.7192 C   0  0  0  0  0  0  0  0  0  0  0  0
   26.0811  -11.5404  -18.8784 C   0  0  2  0  0  0  0  0  0  0  0  0
   25.7481  -12.2726  -20.0865 N   0  0  0  0  0  0  0  0  0  0  0  0
   25.5094  -10.1894  -18.9438 C   0  0  0  0  0  0  0  0  0  0  0  0
   25.5200   -9.4591  -19.9691 O   0  0  0  0  0  0  0  0  0  0  0  0
   24.8993   -9.6483  -17.7908 N   0  0  0  0  0  0  0  0  0  0  0  0
   24.2983   -8.3070  -17.7505 C   0  0  1  0  0  0  0  0  0  0  0  0
   23.3619   -8.3185  -16.5768 C   0  0  0  0  0  0  0  0  0  0  0  0
   22.6704   -7.0191  -16.3349 C   0  0  0  0  0  0  0  0  0  0  0  0
   21.6786   -7.2343  -15.2515 C   0  0  0  0  0  0  0  0  0  0  0  0
   20.8967   -6.3107  -14.9238 O   0  0  0  0  0  0  0  0  0  0  0  0
   25.3347   -7.2838  -17.7217 C   0  0  0  0  0  0  0  0  0  0  0  0
   26.4063   -7.4970  -17.1094 O   0  0  0  0  0  0  0  0  0  0  0  0
   21.5803   -8.4513  -14.5740 O   0  0  0  0  0  0  0  0  0  0  0  0
   25.1736   -6.0644  -18.3565 O   0  0  0  0  0  0  0  0  0  0  0  0
  2  3  1  0
  2  1  1  0
  3 10  1  0
  4  3  2  0
  6  7  1  0
  6  5  1  0
  9  8  1  6
  8  7  1  0
  9 11  1  0
 10  9  1  0
 11 13  1  0
 11 12  2  0
 13 14  1  0
 14 19  1  0
 14 15  1  1
 16 17  1  0
 16 15  1  0
 17 18  2  0
 19 22  1  0
 20 19  2  0
 21 17  1  0
M  END
$$$$
