GME.pdb
     RDKit          3D

 22 21  0  0  1  0  0  0  0  0999 V2000
   28.2729  -21.0098  -15.1739 N   0  0  0  0  0  0  0  0  0  0  0  0
   28.0641  -20.1996  -13.9910 C   0  0  0  0  0  0  0  0  0  0  0  0
   26.9586  -20.7871  -13.2185 C   0  0  0  0  0  0  0  0  0  0  0  0
   26.2399  -21.7370  -13.6897 O   0  0  0  0  0  0  0  0  0  0  0  0
   28.4236  -20.5402   -6.6215 C   0  0  0  0  0  0  0  0  0  0  0  0
   26.8476  -20.2129   -7.4493 S   0  0  0  0  0  0  0  0  0  0  0  0
   26.7915  -20.9407   -9.1041 C   0  0  0  0  0  0  0  0  0  0  0  0
   25.4993  -20.5208   -9.7562 C   0  0  0  0  0  0  0  0  0  0  0  0
   25.4668  -20.8787  -11.2305 C   0  0  2  0  0  0  0  0  0  0  0  0
   26.6276  -20.3415  -11.9162 N   0  0  0  0  0  0  0  0  0  0  0  0
   24.2417  -20.3230  -11.8193 C   0  0  0  0  0  0  0  0  0  0  0  0
   24.0072  -19.0931  -11.9498 O   0  0  0  0  0  0  0  0  0  0  0  0
   23.2415  -21.2076  -12.2792 N   0  0  0  0  0  0  0  0  0  0  0  0
   22.0287  -20.7596  -12.9795 C   0  0  1  0  0  0  0  0  0  0  0  0
   22.1213  -21.3410  -14.3608 C   0  0  0  0  0  0  0  0  0  0  0  0
   20.9359  -21.0609  -15.2218 C   0  0  0  0  0  0  0  0  0  0  0  0
   21.1676  -21.7201  -16.5315 C   0  0  0  0  0  0  0  0  0  0  0  0
   20.8230  -22.9132  -16.7034 O   0  0  0  0  0  0  0  0  0  0  0  0
   20.8386  -21.1203  -12.2210 C   0  0  0  0  0  0  0  0  0  0  0  0
   20.8383  -22.1532  -11.5124 O   0  0  0  0  0  0  0  0  0  0  0  0
   21.7629  -21.0465  -17.6000 O   0  0  0  0  0  0  0  0  0  0  0  0
   19.6893  -20.3498  -12.2573 O   0  0  0  0  0  0  0  0  0  0  0  0
  2  3  1  0
  2  1  1  0
  3 10  1  0
  4  3  2  0
  6  7  1  0
  6  5  1  0
  9  8  1  1
  8  7  1  0
  9 11  1  0
 10  9  1  0
 11 13  1  0
 11 12  2  0
 13 14  1  0
 14 19  1  0
 14 15  1  6
 16 17  1  0
 16 15  1  0
 17 18  2  0
 19 22  1  0
 20 19  2  0
 21 17  1  0
M  END
$$$$
