GME.pdb
     RDKit          3D

 22 21  0  0  1  0  0  0  0  0999 V2000
   28.0489  -21.8526  -16.3880 N   0  0  0  0  0  0  0  0  0  0  0  0
   27.8080  -20.7409  -15.4905 C   0  0  0  0  0  0  0  0  0  0  0  0
   26.8909  -21.1922  -14.4326 C   0  0  0  0  0  0  0  0  0  0  0  0
   26.1407  -22.2191  -14.5866 O   0  0  0  0  0  0  0  0  0  0  0  0
   26.9346  -20.6858   -7.4359 C   0  0  0  0  0  0  0  0  0  0  0  0
   25.4885  -19.9739   -8.2592 S   0  0  0  0  0  0  0  0  0  0  0  0
   25.1113  -20.8217   -9.8118 C   0  0  0  0  0  0  0  0  0  0  0  0
   26.0561  -20.3072  -10.8672 C   0  0  0  0  0  0  0  0  0  0  0  0
   25.7754  -20.9214  -12.2262 C   0  0  2  0  0  0  0  0  0  0  0  0
   26.7859  -20.5238  -13.1891 N   0  0  0  0  0  0  0  0  0  0  0  0
   24.4537  -20.4695  -12.6791 C   0  0  0  0  0  0  0  0  0  0  0  0
   24.1957  -19.3029  -13.0756 O   0  0  0  0  0  0  0  0  0  0  0  0
   23.3803  -21.3873  -12.6802 N   0  0  0  0  0  0  0  0  0  0  0  0
   22.0546  -21.0771  -13.2353 C   0  0  1  0  0  0  0  0  0  0  0  0
   21.7438  -22.1945  -14.1889 C   0  0  0  0  0  0  0  0  0  0  0  0
   20.3864  -22.1140  -14.8021 C   0  0  0  0  0  0  0  0  0  0  0  0
   20.2479  -23.2597  -15.7359 C   0  0  0  0  0  0  0  0  0  0  0  0
   20.0278  -24.4103  -15.2894 O   0  0  0  0  0  0  0  0  0  0  0  0
   21.0880  -20.8732  -12.1648 C   0  0  0  0  0  0  0  0  0  0  0  0
   20.2114  -19.9853  -12.2750 O   0  0  0  0  0  0  0  0  0  0  0  0
   20.3522  -23.0992  -17.1190 O   0  0  0  0  0  0  0  0  0  0  0  0
   21.1052  -21.6379  -11.0111 O   0  0  0  0  0  0  0  0  0  0  0  0
  2  3  1  0
  2  1  1  0
  3 10  1  0
  4  3  2  0
  6  7  1  0
  6  5  1  0
  9  8  1  1
  8  7  1  0
  9 11  1  0
 10  9  1  0
 11 13  1  0
 11 12  2  0
 13 14  1  0
 14 19  1  0
 14 15  1  6
 16 17  1  0
 16 15  1  0
 17 18  2  0
 19 22  1  0
 20 19  2  0
 21 17  1  0
M  END
$$$$
