GME.pdb
     RDKit          3D

 22 21  0  0  1  0  0  0  0  0999 V2000
   24.9364  -24.4729  -14.5065 N   0  0  0  0  0  0  0  0  0  0  0  0
   25.1915  -23.6333  -15.6594 C   0  0  0  0  0  0  0  0  0  0  0  0
   24.8983  -22.2400  -15.2897 C   0  0  0  0  0  0  0  0  0  0  0  0
   24.4532  -21.9324  -14.1285 O   0  0  0  0  0  0  0  0  0  0  0  0
   29.5707  -17.8897  -17.4130 C   0  0  0  0  0  0  0  0  0  0  0  0
   27.7688  -17.7418  -17.4985 S   0  0  0  0  0  0  0  0  0  0  0  0
   26.9406  -19.0142  -16.5154 C   0  0  0  0  0  0  0  0  0  0  0  0
   25.4541  -18.7843  -16.6095 C   0  0  0  0  0  0  0  0  0  0  0  0
   24.6701  -19.8227  -15.8286 C   0  0  2  0  0  0  0  0  0  0  0  0
   25.0917  -21.1639  -16.1889 N   0  0  0  0  0  0  0  0  0  0  0  0
   23.2428  -19.6538  -16.1292 C   0  0  0  0  0  0  0  0  0  0  0  0
   22.6206  -20.2918  -17.0183 O   0  0  0  0  0  0  0  0  0  0  0  0
   22.4928  -18.7178  -15.3836 N   0  0  0  0  0  0  0  0  0  0  0  0
   21.0254  -18.7470  -15.2955 C   0  0  1  0  0  0  0  0  0  0  0  0
   20.6791  -20.1082  -14.7648 C   0  0  0  0  0  0  0  0  0  0  0  0
   19.6371  -20.8249  -15.5558 C   0  0  0  0  0  0  0  0  0  0  0  0
   19.3991  -22.1352  -14.8999 C   0  0  0  0  0  0  0  0  0  0  0  0
   18.9475  -22.1792  -13.7312 O   0  0  0  0  0  0  0  0  0  0  0  0
   20.5386  -17.6205  -14.5107 C   0  0  0  0  0  0  0  0  0  0  0  0
   21.2426  -17.1519  -13.5867 O   0  0  0  0  0  0  0  0  0  0  0  0
   19.6610  -23.3427  -15.5502 O   0  0  0  0  0  0  0  0  0  0  0  0
   19.3052  -17.0412  -14.7535 O   0  0  0  0  0  0  0  0  0  0  0  0
  2  3  1  0
  2  1  1  0
  3 10  1  0
  4  3  2  0
  6  7  1  0
  6  5  1  0
  9  8  1  6
  8  7  1  0
  9 11  1  0
 10  9  1  0
 11 13  1  0
 11 12  2  0
 13 14  1  0
 14 19  1  0
 14 15  1  1
 16 17  1  0
 16 15  1  0
 17 18  2  0
 19 22  1  0
 20 19  2  0
 21 17  1  0
M  END
$$$$
