GME.pdb
     RDKit          3D

 22 21  0  0  1  0  0  0  0  0999 V2000
   31.5461  -22.6671  -10.8080 N   0  0  0  0  0  0  0  0  0  0  0  0
   30.8903  -21.3767  -10.7448 C   0  0  0  0  0  0  0  0  0  0  0  0
   29.6928  -21.5084   -9.9007 C   0  0  0  0  0  0  0  0  0  0  0  0
   28.9201  -22.5267   -9.9847 O   0  0  0  0  0  0  0  0  0  0  0  0
   29.1027  -19.9652   -3.6961 C   0  0  0  0  0  0  0  0  0  0  0  0
   27.4577  -19.5141   -4.3017 S   0  0  0  0  0  0  0  0  0  0  0  0
   27.1014  -20.2653   -5.9080 C   0  0  0  0  0  0  0  0  0  0  0  0
   28.2453  -19.9484   -6.8367 C   0  0  0  0  0  0  0  0  0  0  0  0
   28.1211  -20.6825   -8.1589 C   0  0  2  0  0  0  0  0  0  0  0  0
   29.3275  -20.5249   -8.9503 N   0  0  0  0  0  0  0  0  0  0  0  0
   26.9724  -20.1346   -8.8914 C   0  0  0  0  0  0  0  0  0  0  0  0
   26.8830  -18.9443   -9.2912 O   0  0  0  0  0  0  0  0  0  0  0  0
   25.8789  -20.9803   -9.1805 N   0  0  0  0  0  0  0  0  0  0  0  0
   24.8201  -20.6303  -10.1388 C   0  0  1  0  0  0  0  0  0  0  0  0
   25.1435  -21.3886  -11.3938 C   0  0  0  0  0  0  0  0  0  0  0  0
   25.8844  -20.5922  -12.4144 C   0  0  0  0  0  0  0  0  0  0  0  0
   25.5917  -21.1844  -13.7438 C   0  0  0  0  0  0  0  0  0  0  0  0
   24.7762  -20.6250  -14.5143 O   0  0  0  0  0  0  0  0  0  0  0  0
   23.5064  -20.8895   -9.5652 C   0  0  0  0  0  0  0  0  0  0  0  0
   23.3888  -21.6908   -8.6097 O   0  0  0  0  0  0  0  0  0  0  0  0
   26.2055  -22.3614  -14.1770 O   0  0  0  0  0  0  0  0  0  0  0  0
   22.3653  -20.2721  -10.0474 O   0  0  0  0  0  0  0  0  0  0  0  0
  2  3  1  0
  2  1  1  0
  3 10  1  0
  4  3  2  0
  6  7  1  0
  6  5  1  0
  9  8  1  1
  8  7  1  0
  9 11  1  0
 10  9  1  0
 11 13  1  0
 11 12  2  0
 13 14  1  0
 14 19  1  0
 14 15  1  6
 16 17  1  0
 16 15  1  0
 17 18  2  0
 19 22  1  0
 20 19  2  0
 21 17  1  0
M  END
$$$$
