GME.pdb
     RDKit          3D

 22 21  0  0  1  0  0  0  0  0999 V2000
   53.1397   21.3239  -70.8780 N   0  0  0  0  0  0  0  0  0  0  0  0
   52.3018   21.3752  -69.6970 C   0  0  0  0  0  0  0  0  0  0  0  0
   53.0436   22.0719  -68.6348 C   0  0  0  0  0  0  0  0  0  0  0  0
   52.4669   22.8974  -67.8429 O   0  0  0  0  0  0  0  0  0  0  0  0
   55.0189   22.1087  -64.2491 C   0  0  0  0  0  0  0  0  0  0  0  0
   56.2667   23.3393  -64.7014 S   0  0  0  0  0  0  0  0  0  0  0  0
   57.2666   22.7997  -66.1087 C   0  0  0  0  0  0  0  0  0  0  0  0
   56.4051   21.9311  -66.9890 C   0  0  0  0  0  0  0  0  0  0  0  0
   55.1394   22.6458  -67.4247 C   0  0  2  0  0  0  0  0  0  0  0  0
   54.4291   21.8705  -68.4251 N   0  0  0  0  0  0  0  0  0  0  0  0
   55.5092   23.9534  -67.9812 C   0  0  0  0  0  0  0  0  0  0  0  0
   56.4707   24.6562  -67.5734 O   0  0  0  0  0  0  0  0  0  0  0  0
   54.7503   24.4820  -69.0486 N   0  0  0  0  0  0  0  0  0  0  0  0
   55.2488   24.5638  -70.4294 C   0  0  1  0  0  0  0  0  0  0  0  0
   56.2810   23.4802  -70.5517 C   0  0  0  0  0  0  0  0  0  0  0  0
   56.0520   22.5447  -71.6906 C   0  0  0  0  0  0  0  0  0  0  0  0
   55.0438   21.5462  -71.2545 C   0  0  0  0  0  0  0  0  0  0  0  0
   54.5240   21.6347  -70.1171 O   0  0  0  0  0  0  0  0  0  0  0  0
   54.1439   24.4932  -71.3760 C   0  0  0  0  0  0  0  0  0  0  0  0
   54.3237   23.9934  -72.5103 O   0  0  0  0  0  0  0  0  0  0  0  0
   54.6432   20.4947  -72.0812 O   0  0  0  0  0  0  0  0  0  0  0  0
   52.8823   24.9678  -71.0611 O   0  0  0  0  0  0  0  0  0  0  0  0
  2  3  1  0
  2  1  1  0
  3 10  1  0
  4  3  2  0
  6  7  1  0
  6  5  1  0
  9  8  1  6
  8  7  1  0
  9 11  1  0
 10  9  1  0
 11 13  1  0
 11 12  2  0
 13 14  1  0
 14 19  1  0
 14 15  1  6
 16 17  1  0
 16 15  1  0
 17 18  2  0
 19 22  1  0
 20 19  2  0
 21 17  1  0
M  END
$$$$
