GME.pdb
     RDKit          3D

 22 21  0  0  1  0  0  0  0  0999 V2000
   27.5371  -22.2435  -15.4253 N   0  0  0  0  0  0  0  0  0  0  0  0
   27.3635  -21.0111  -14.6834 C   0  0  0  0  0  0  0  0  0  0  0  0
   26.6996  -21.3288  -13.4098 C   0  0  0  0  0  0  0  0  0  0  0  0
   25.7556  -22.1920  -13.3410 O   0  0  0  0  0  0  0  0  0  0  0  0
   26.2697  -20.2418   -5.5539 C   0  0  0  0  0  0  0  0  0  0  0  0
   27.0484  -19.8487   -7.1399 S   0  0  0  0  0  0  0  0  0  0  0  0
   26.1268  -20.5416   -8.5334 C   0  0  0  0  0  0  0  0  0  0  0  0
   26.9098  -20.2719   -9.7926 C   0  0  0  0  0  0  0  0  0  0  0  0
   26.2170  -20.8320  -11.0210 C   0  0  2  0  0  0  0  0  0  0  0  0
   27.0643  -20.7049  -12.1925 N   0  0  0  0  0  0  0  0  0  0  0  0
   24.9665  -20.0912  -11.2306 C   0  0  0  0  0  0  0  0  0  0  0  0
   24.9027  -18.8795  -11.5656 O   0  0  0  0  0  0  0  0  0  0  0  0
   23.7363  -20.7611  -11.0508 N   0  0  0  0  0  0  0  0  0  0  0  0
   22.4582  -20.2539  -11.5716 C   0  0  1  0  0  0  0  0  0  0  0  0
   22.1477  -21.0982  -12.7738 C   0  0  0  0  0  0  0  0  0  0  0  0
   21.8895  -20.3171  -14.0181 C   0  0  0  0  0  0  0  0  0  0  0  0
   20.6426  -20.8442  -14.6273 C   0  0  0  0  0  0  0  0  0  0  0  0
   20.0747  -20.2070  -15.5456 O   0  0  0  0  0  0  0  0  0  0  0  0
   21.4458  -20.2497  -10.5242 C   0  0  0  0  0  0  0  0  0  0  0  0
   20.5271  -19.3986  -10.5466 O   0  0  0  0  0  0  0  0  0  0  0  0
   20.0704  -22.0475  -14.2098 O   0  0  0  0  0  0  0  0  0  0  0  0
   21.4646  -21.1672   -9.4881 O   0  0  0  0  0  0  0  0  0  0  0  0
  2  3  1  0
  2  1  1  0
  3 10  1  0
  4  3  2  0
  6  7  1  0
  6  5  1  0
  9  8  1  1
  8  7  1  0
  9 11  1  0
 10  9  1  0
 11 13  1  0
 11 12  2  0
 13 14  1  0
 14 19  1  0
 14 15  1  6
 16 17  1  0
 16 15  1  0
 17 18  2  0
 19 22  1  0
 20 19  2  0
 21 17  1  0
M  END
$$$$
