GME.pdb
     RDKit          3D

 22 21  0  0  1  0  0  0  0  0999 V2000
   27.8691  -21.6345  -15.4991 N   0  0  0  0  0  0  0  0  0  0  0  0
   27.6674  -20.6316  -14.4730 C   0  0  0  0  0  0  0  0  0  0  0  0
   26.5657  -21.0748  -13.6047 C   0  0  0  0  0  0  0  0  0  0  0  0
   25.6723  -21.8945  -14.0182 O   0  0  0  0  0  0  0  0  0  0  0  0
   26.3168  -19.3294   -7.1392 C   0  0  0  0  0  0  0  0  0  0  0  0
   27.4531  -20.1168   -8.3074 S   0  0  0  0  0  0  0  0  0  0  0  0
   26.6039  -21.2990   -9.3810 C   0  0  0  0  0  0  0  0  0  0  0  0
   25.4450  -20.5899  -10.0332 C   0  0  0  0  0  0  0  0  0  0  0  0
   25.2707  -21.0046  -11.4825 C   0  0  2  0  0  0  0  0  0  0  0  0
   26.4303  -20.6260  -12.2690 N   0  0  0  0  0  0  0  0  0  0  0  0
   24.0724  -20.3448  -12.0163 C   0  0  0  0  0  0  0  0  0  0  0  0
   23.9691  -19.1062  -12.2161 O   0  0  0  0  0  0  0  0  0  0  0  0
   22.9438  -21.1311  -12.3363 N   0  0  0  0  0  0  0  0  0  0  0  0
   21.7552  -20.5964  -13.0170 C   0  0  1  0  0  0  0  0  0  0  0  0
   21.9324  -20.9381  -14.4684 C   0  0  0  0  0  0  0  0  0  0  0  0
   22.1262  -19.7543  -15.3550 C   0  0  0  0  0  0  0  0  0  0  0  0
   22.3711  -20.2592  -16.7294 C   0  0  0  0  0  0  0  0  0  0  0  0
   21.4770  -20.8994  -17.3314 O   0  0  0  0  0  0  0  0  0  0  0  0
   20.5395  -21.1010  -12.3932 C   0  0  0  0  0  0  0  0  0  0  0  0
   20.5119  -22.2637  -11.9282 O   0  0  0  0  0  0  0  0  0  0  0  0
   23.5817  -20.0401  -17.3897 O   0  0  0  0  0  0  0  0  0  0  0  0
   19.3950  -20.3287  -12.2959 O   0  0  0  0  0  0  0  0  0  0  0  0
  2  3  1  0
  2  1  1  0
  3 10  1  0
  4  3  2  0
  6  7  1  0
  6  5  1  0
  9  8  1  1
  8  7  1  0
  9 11  1  0
 10  9  1  0
 11 13  1  0
 11 12  2  0
 13 14  1  0
 14 19  1  0
 14 15  1  6
 16 17  1  0
 16 15  1  0
 17 18  2  0
 19 22  1  0
 20 19  2  0
 21 17  1  0
M  END
$$$$
