CSL.pdb
     RDKit          3D

 21 20  0  0  1  0  0  0  0  0999 V2000
   10.8872  -15.2332   17.7255 N   0  0  0  0  0  0  0  0  0  0  0  0
   11.4160  -15.5791   19.0270 C   0  0  1  0  0  0  0  0  0  0  0  0
   12.3893  -14.4543   19.4017 C   0  0  0  0  0  0  0  0  0  0  0  0
   13.2118  -14.7676   20.9638 S   0  0  0  0  0  0  0  0  0  0  0  0
   10.3435  -15.5664   20.0218 C   0  0  0  0  0  0  0  0  0  0  0  0
    9.5384  -14.5726   20.0164 O   0  0  0  0  0  0  0  0  0  0  0  0
    9.6020  -18.5221   23.0192 O   0  0  0  0  0  0  0  0  0  0  0  0
    8.6203  -17.9106   22.2465 C   0  0  0  0  0  0  0  0  0  0  0  0
    9.0154  -16.5060   21.8333 C   0  0  2  0  0  0  0  0  0  0  0  0
   10.1466  -16.5921   20.9899 N   0  0  0  0  0  0  0  0  0  0  0  0
    9.2072  -15.7078   23.0622 C   0  0  0  0  0  0  0  0  0  0  0  0
   10.3427  -15.7335   23.5786 O   0  0  0  0  0  0  0  0  0  0  0  0
    8.0809  -11.5570   26.3332 C   0  0  0  0  0  0  0  0  0  0  0  0
    7.0861  -12.7074   26.5671 C   0  0  1  0  0  0  0  0  0  0  0  0
    5.7433  -11.9683   26.8361 C   0  0  0  0  0  0  0  0  0  0  0  0
    7.0125  -13.4574   25.2949 C   0  0  0  0  0  0  0  0  0  0  0  0
    8.2229  -14.3057   24.9586 C   0  0  2  0  0  0  0  0  0  0  0  0
    8.1989  -14.9319   23.6749 N   0  0  0  0  0  0  0  0  0  0  0  0
    8.5042  -15.1712   26.0999 C   0  0  0  0  0  0  0  0  0  0  0  0
    9.3136  -14.8069   26.9881 O   0  0  0  0  0  0  0  0  0  0  0  0
    7.8998  -16.4071   26.2455 O   0  0  0  0  0  0  0  0  0  0  0  0
  2  1  1  6
  2  3  1  0
  3  4  1  0
  5  6  2  0
  5  2  1  0
  7  8  1  0
  9  8  1  1
  9 10  1  0
 10  5  1  0
 11  9  1  0
 11 12  2  0
 14 15  1  6
 14 13  1  0
 16 14  1  0
 17 18  1  0
 17 16  1  1
 18 11  1  0
 19 17  1  0
 20 19  2  0
 21 19  1  0
M  END
$$$$
