CSL.pdb
     RDKit          3D

 21 20  0  0  1  0  0  0  0  0999 V2000
    7.6843  -14.9494   17.5742 N   0  0  0  0  0  0  0  0  0  0  0  0
    8.4313  -14.4213   18.6951 C   0  0  1  0  0  0  0  0  0  0  0  0
    8.0636  -12.9350   18.7871 C   0  0  0  0  0  0  0  0  0  0  0  0
    8.8696  -12.1258   20.1691 S   0  0  0  0  0  0  0  0  0  0  0  0
    7.9820  -15.0513   19.9365 C   0  0  0  0  0  0  0  0  0  0  0  0
    6.7243  -15.2185   20.0978 O   0  0  0  0  0  0  0  0  0  0  0  0
    9.9685  -17.7970   22.0692 O   0  0  0  0  0  0  0  0  0  0  0  0
    8.6011  -17.5474   22.1229 C   0  0  0  0  0  0  0  0  0  0  0  0
    8.2946  -16.0622   22.1294 C   0  0  2  0  0  0  0  0  0  0  0  0
    8.8609  -15.4861   20.9693 N   0  0  0  0  0  0  0  0  0  0  0  0
    8.7793  -15.5037   23.4090 C   0  0  0  0  0  0  0  0  0  0  0  0
    9.9968  -15.2414   23.4835 O   0  0  0  0  0  0  0  0  0  0  0  0
    5.6450  -12.2657   26.6990 C   0  0  0  0  0  0  0  0  0  0  0  0
    6.8671  -12.7639   25.9078 C   0  0  1  0  0  0  0  0  0  0  0  0
    7.9064  -11.6219   26.1008 C   0  0  0  0  0  0  0  0  0  0  0  0
    7.3266  -13.9950   26.5859 C   0  0  0  0  0  0  0  0  0  0  0  0
    8.3536  -14.8180   25.8337 C   0  0  2  0  0  0  0  0  0  0  0  0
    7.9600  -15.2540   24.5316 N   0  0  0  0  0  0  0  0  0  0  0  0
    8.8654  -15.8442   26.7369 C   0  0  0  0  0  0  0  0  0  0  0  0
    9.3971  -15.5216   27.8276 O   0  0  0  0  0  0  0  0  0  0  0  0
    8.7860  -17.1912   26.4313 O   0  0  0  0  0  0  0  0  0  0  0  0
  2  1  1  6
  2  3  1  0
  3  4  1  0
  5  6  2  0
  5  2  1  0
  7  8  1  0
  9  8  1  1
  9 10  1  0
 10  5  1  0
 11  9  1  0
 11 12  2  0
 14 15  1  1
 14 13  1  0
 16 14  1  0
 17 18  1  0
 17 16  1  1
 18 11  1  0
 19 17  1  0
 20 19  2  0
 21 19  1  0
M  END
$$$$
