CSL.pdb
     RDKit          3D

 21 20  0  0  1  0  0  0  0  0999 V2000
    8.0582  -15.0136   17.0875 N   0  0  0  0  0  0  0  0  0  0  0  0
    8.7914  -14.4907   18.2199 C   0  0  1  0  0  0  0  0  0  0  0  0
    8.3584  -13.0265   18.3658 C   0  0  0  0  0  0  0  0  0  0  0  0
    9.0823  -12.2506   19.8110 S   0  0  0  0  0  0  0  0  0  0  0  0
    8.3825  -15.1821   19.4425 C   0  0  0  0  0  0  0  0  0  0  0  0
    7.1346  -15.4065   19.6103 O   0  0  0  0  0  0  0  0  0  0  0  0
   10.7842  -17.4629   21.9883 O   0  0  0  0  0  0  0  0  0  0  0  0
    9.4093  -17.5660   21.8041 C   0  0  0  0  0  0  0  0  0  0  0  0
    8.7578  -16.2093   21.6179 C   0  0  2  0  0  0  0  0  0  0  0  0
    9.2902  -15.6167   20.4501 N   0  0  0  0  0  0  0  0  0  0  0  0
    8.9559  -15.4355   22.8614 C   0  0  0  0  0  0  0  0  0  0  0  0
   10.0896  -14.9488   23.0470 O   0  0  0  0  0  0  0  0  0  0  0  0
    7.9962  -11.7074   26.4304 C   0  0  0  0  0  0  0  0  0  0  0  0
    7.0387  -12.8797   26.7070 C   0  0  1  0  0  0  0  0  0  0  0  0
    5.6982  -12.1704   27.0559 C   0  0  0  0  0  0  0  0  0  0  0  0
    6.9105  -13.6200   25.4334 C   0  0  0  0  0  0  0  0  0  0  0  0
    8.0690  -14.5319   25.0813 C   0  0  2  0  0  0  0  0  0  0  0  0
    7.9554  -15.2189   23.8340 N   0  0  0  0  0  0  0  0  0  0  0  0
    8.3759  -15.3509   26.2500 C   0  0  0  0  0  0  0  0  0  0  0  0
    7.6980  -16.3776   26.5010 O   0  0  0  0  0  0  0  0  0  0  0  0
    9.4093  -15.0331   27.1132 O   0  0  0  0  0  0  0  0  0  0  0  0
  2  1  1  6
  2  3  1  0
  3  4  1  0
  5  6  2  0
  5  2  1  0
  7  8  1  0
  9  8  1  1
  9 10  1  0
 10  5  1  0
 11  9  1  0
 11 12  2  0
 14 15  1  6
 14 13  1  0
 16 14  1  0
 17 18  1  0
 17 16  1  1
 18 11  1  0
 19 17  1  0
 20 19  2  0
 21 19  1  0
M  END
$$$$
