CSL.pdb
     RDKit          3D

 21 20  0  0  1  0  0  0  0  0999 V2000
    9.9720  -17.8183   18.3800 N   0  0  0  0  0  0  0  0  0  0  0  0
   10.9010  -17.3380   19.3797 C   0  0  1  0  0  0  0  0  0  0  0  0
   11.2311  -15.8912   18.9916 C   0  0  0  0  0  0  0  0  0  0  0  0
   12.3882  -15.1346   20.1331 S   0  0  0  0  0  0  0  0  0  0  0  0
   10.2479  -17.2921   20.6879 C   0  0  0  0  0  0  0  0  0  0  0  0
    9.1030  -16.7269   20.7620 O   0  0  0  0  0  0  0  0  0  0  0  0
   10.8898  -19.9595   23.6584 O   0  0  0  0  0  0  0  0  0  0  0  0
    9.7374  -19.1960   23.5038 C   0  0  0  0  0  0  0  0  0  0  0  0
   10.0499  -17.7782   23.0655 C   0  0  2  0  0  0  0  0  0  0  0  0
   10.8118  -17.8381   21.8762 N   0  0  0  0  0  0  0  0  0  0  0  0
   10.7034  -17.0865   24.1963 C   0  0  0  0  0  0  0  0  0  0  0  0
   11.9428  -17.1994   24.2847 O   0  0  0  0  0  0  0  0  0  0  0  0
   11.0495  -13.4665   28.1786 C   0  0  0  0  0  0  0  0  0  0  0  0
   10.0220  -14.5522   28.5436 C   0  0  1  0  0  0  0  0  0  0  0  0
    8.9112  -13.7559   29.2879 C   0  0  0  0  0  0  0  0  0  0  0  0
    9.5036  -15.0801   27.2633 C   0  0  0  0  0  0  0  0  0  0  0  0
   10.4629  -15.9451   26.4701 C   0  0  2  0  0  0  0  0  0  0  0  0
   10.0196  -16.3194   25.1647 N   0  0  0  0  0  0  0  0  0  0  0  0
   10.9241  -17.0262   27.3358 C   0  0  0  0  0  0  0  0  0  0  0  0
   10.1570  -17.9763   27.6279 O   0  0  0  0  0  0  0  0  0  0  0  0
   12.2043  -17.0460   27.8600 O   0  0  0  0  0  0  0  0  0  0  0  0
  2  1  1  6
  2  3  1  0
  3  4  1  0
  5  6  2  0
  5  2  1  0
  7  8  1  0
  9  8  1  1
  9 10  1  0
 10  5  1  0
 11  9  1  0
 11 12  2  0
 14 15  1  1
 14 13  1  0
 16 14  1  0
 17 18  1  0
 17 16  1  1
 18 11  1  0
 19 17  1  0
 20 19  2  0
 21 19  1  0
M  END
$$$$
