CSL.pdb
     RDKit          3D

 21 20  0  0  1  0  0  0  0  0999 V2000
    9.9066  -17.0512   17.5012 N   0  0  0  0  0  0  0  0  0  0  0  0
   10.1787  -17.3405   18.8925 C   0  0  1  0  0  0  0  0  0  0  0  0
   11.6081  -16.8505   19.1558 C   0  0  0  0  0  0  0  0  0  0  0  0
   12.0871  -17.0603   20.8708 S   0  0  0  0  0  0  0  0  0  0  0  0
    9.2915  -16.5538   19.7493 C   0  0  0  0  0  0  0  0  0  0  0  0
    9.0976  -15.3282   19.4394 O   0  0  0  0  0  0  0  0  0  0  0  0
    6.7786  -18.1239   22.7243 O   0  0  0  0  0  0  0  0  0  0  0  0
    6.5014  -17.0058   21.9447 C   0  0  0  0  0  0  0  0  0  0  0  0
    7.7555  -16.2221   21.6092 C   0  0  2  0  0  0  0  0  0  0  0  0
    8.6358  -17.0727   20.9020 N   0  0  0  0  0  0  0  0  0  0  0  0
    8.2947  -15.6665   22.8681 C   0  0  0  0  0  0  0  0  0  0  0  0
    9.2604  -16.2676   23.3806 O   0  0  0  0  0  0  0  0  0  0  0  0
    8.0098  -11.7096   26.8349 C   0  0  0  0  0  0  0  0  0  0  0  0
    6.9287  -12.8043   26.8129 C   0  0  1  0  0  0  0  0  0  0  0  0
    5.6468  -12.0485   27.2680 C   0  0  0  0  0  0  0  0  0  0  0  0
    6.7989  -13.2308   25.4030 C   0  0  0  0  0  0  0  0  0  0  0  0
    7.8766  -14.1684   24.8958 C   0  0  2  0  0  0  0  0  0  0  0  0
    7.7898  -14.5163   23.5131 N   0  0  0  0  0  0  0  0  0  0  0  0
    7.9984  -15.2756   25.8392 C   0  0  0  0  0  0  0  0  0  0  0  0
    7.1188  -16.1706   25.8841 O   0  0  0  0  0  0  0  0  0  0  0  0
    9.0706  -15.3806   26.7071 O   0  0  0  0  0  0  0  0  0  0  0  0
  2  1  1  6
  2  3  1  0
  3  4  1  0
  5  6  2  0
  5  2  1  0
  7  8  1  0
  9  8  1  1
  9 10  1  0
 10  5  1  0
 11  9  1  0
 11 12  2  0
 14 15  1  6
 14 13  1  0
 16 14  1  0
 17 18  1  0
 17 16  1  1
 18 11  1  0
 19 17  1  0
 20 19  2  0
 21 19  1  0
M  END
$$$$
