CSL.pdb
     RDKit          3D

 21 20  0  0  1  0  0  0  0  0999 V2000
    7.9243  -16.1003   17.5415 N   0  0  0  0  0  0  0  0  0  0  0  0
    8.7799  -15.9538   18.6990 C   0  0  1  0  0  0  0  0  0  0  0  0
    9.3738  -14.5423   18.6112 C   0  0  0  0  0  0  0  0  0  0  0  0
    8.1646  -13.2771   19.0012 S   0  0  0  0  0  0  0  0  0  0  0  0
    7.9793  -16.0063   19.9222 C   0  0  0  0  0  0  0  0  0  0  0  0
    6.7112  -16.1196   19.7991 O   0  0  0  0  0  0  0  0  0  0  0  0
    8.1896  -18.3956   22.9765 O   0  0  0  0  0  0  0  0  0  0  0  0
    7.2400  -17.5895   22.3573 C   0  0  0  0  0  0  0  0  0  0  0  0
    7.6605  -16.1326   22.3328 C   0  0  2  0  0  0  0  0  0  0  0  0
    8.5289  -15.9388   21.2342 N   0  0  0  0  0  0  0  0  0  0  0  0
    8.2354  -15.8033   23.6538 C   0  0  0  0  0  0  0  0  0  0  0  0
    9.4535  -16.0245   23.8087 O   0  0  0  0  0  0  0  0  0  0  0  0
    5.7091  -11.8591   26.8837 C   0  0  0  0  0  0  0  0  0  0  0  0
    6.6849  -12.6300   25.9774 C   0  0  1  0  0  0  0  0  0  0  0  0
    7.8896  -11.6546   25.8395 C   0  0  0  0  0  0  0  0  0  0  0  0
    7.0862  -13.8368   26.7318 C   0  0  0  0  0  0  0  0  0  0  0  0
    7.9882  -14.8061   25.9938 C   0  0  2  0  0  0  0  0  0  0  0  0
    7.5000  -15.2627   24.7314 N   0  0  0  0  0  0  0  0  0  0  0  0
    8.4196  -15.8346   26.9356 C   0  0  0  0  0  0  0  0  0  0  0  0
    7.9348  -16.9914   26.8777 O   0  0  0  0  0  0  0  0  0  0  0  0
    9.3644  -15.5791   27.9133 O   0  0  0  0  0  0  0  0  0  0  0  0
  2  1  1  6
  2  3  1  0
  3  4  1  0
  5  6  2  0
  5  2  1  0
  7  8  1  0
  9  8  1  1
  9 10  1  0
 10  5  1  0
 11  9  1  0
 11 12  2  0
 14 15  1  1
 14 13  1  0
 16 14  1  0
 17 18  1  0
 17 16  1  1
 18 11  1  0
 19 17  1  0
 20 19  2  0
 21 19  1  0
M  END
$$$$
