CSL.pdb
     RDKit          3D

 21 20  0  0  1  0  0  0  0  0999 V2000
   11.0682  -15.3172   18.0939 N   0  0  0  0  0  0  0  0  0  0  0  0
   11.5821  -15.5492   19.4263 C   0  0  1  0  0  0  0  0  0  0  0  0
   12.5049  -14.3641   19.7372 C   0  0  0  0  0  0  0  0  0  0  0  0
   13.3212  -14.5438   21.3234 S   0  0  0  0  0  0  0  0  0  0  0  0
   10.4892  -15.5074   20.3978 C   0  0  0  0  0  0  0  0  0  0  0  0
    9.6085  -14.5897   20.2637 O   0  0  0  0  0  0  0  0  0  0  0  0
    9.4872  -18.5758   23.1379 O   0  0  0  0  0  0  0  0  0  0  0  0
    8.6213  -17.7357   22.4455 C   0  0  0  0  0  0  0  0  0  0  0  0
    9.1926  -16.3404   22.2828 C   0  0  2  0  0  0  0  0  0  0  0  0
   10.3516  -16.4254   21.4778 N   0  0  0  0  0  0  0  0  0  0  0  0
    9.4048  -15.7760   23.6322 C   0  0  0  0  0  0  0  0  0  0  0  0
   10.5749  -15.7772   24.0651 O   0  0  0  0  0  0  0  0  0  0  0  0
    5.6044  -12.3559   26.3078 C   0  0  0  0  0  0  0  0  0  0  0  0
    6.9163  -12.8588   25.6805 C   0  0  1  0  0  0  0  0  0  0  0  0
    7.9447  -11.7597   26.0756 C   0  0  0  0  0  0  0  0  0  0  0  0
    7.2399  -14.1316   26.3601 C   0  0  0  0  0  0  0  0  0  0  0  0
    8.4456  -14.8775   25.8238 C   0  0  2  0  0  0  0  0  0  0  0  0
    8.3794  -15.2453   24.4451 N   0  0  0  0  0  0  0  0  0  0  0  0
    8.7797  -15.9412   26.7660 C   0  0  0  0  0  0  0  0  0  0  0  0
    8.4230  -17.1238   26.5404 O   0  0  0  0  0  0  0  0  0  0  0  0
    9.4910  -15.6921   27.9261 O   0  0  0  0  0  0  0  0  0  0  0  0
  2  1  1  6
  2  3  1  0
  3  4  1  0
  5  6  2  0
  5  2  1  0
  7  8  1  0
  9  8  1  1
  9 10  1  0
 10  5  1  0
 11  9  1  0
 11 12  2  0
 14 15  1  1
 14 13  1  0
 16 14  1  0
 17 18  1  0
 17 16  1  1
 18 11  1  0
 19 17  1  0
 20 19  2  0
 21 19  1  0
M  END
$$$$
