CSL.pdb
     RDKit          3D

 21 20  0  0  1  0  0  0  0  0999 V2000
    8.0300  -15.2973   17.4897 N   0  0  0  0  0  0  0  0  0  0  0  0
    8.6218  -14.5963   18.6086 C   0  0  1  0  0  0  0  0  0  0  0  0
    8.1269  -13.1478   18.5111 C   0  0  0  0  0  0  0  0  0  0  0  0
    8.6646  -12.1568   19.9052 S   0  0  0  0  0  0  0  0  0  0  0  0
    8.1098  -15.1401   19.8664 C   0  0  0  0  0  0  0  0  0  0  0  0
    6.8492  -15.3342   19.9615 O   0  0  0  0  0  0  0  0  0  0  0  0
    9.9153  -17.7395   22.3417 O   0  0  0  0  0  0  0  0  0  0  0  0
    8.5593  -17.4470   22.2390 C   0  0  0  0  0  0  0  0  0  0  0  0
    8.3050  -15.9545   22.1527 C   0  0  2  0  0  0  0  0  0  0  0  0
    8.9309  -15.4635   20.9841 N   0  0  0  0  0  0  0  0  0  0  0  0
    8.7646  -15.3414   23.4165 C   0  0  0  0  0  0  0  0  0  0  0  0
    9.9890  -15.1285   23.5263 O   0  0  0  0  0  0  0  0  0  0  0  0
    5.4459  -12.1641   26.8054 C   0  0  0  0  0  0  0  0  0  0  0  0
    6.5509  -12.6804   25.8672 C   0  0  1  0  0  0  0  0  0  0  0  0
    7.5372  -11.4796   25.7835 C   0  0  0  0  0  0  0  0  0  0  0  0
    7.1875  -13.8191   26.5633 C   0  0  0  0  0  0  0  0  0  0  0  0
    8.2779  -14.5368   25.7928 C   0  0  2  0  0  0  0  0  0  0  0  0
    7.9143  -14.9888   24.4874 N   0  0  0  0  0  0  0  0  0  0  0  0
    8.8865  -15.5251   26.6779 C   0  0  0  0  0  0  0  0  0  0  0  0
    9.4040  -15.1697   27.7653 O   0  0  0  0  0  0  0  0  0  0  0  0
    8.9167  -16.8709   26.3584 O   0  0  0  0  0  0  0  0  0  0  0  0
  2  1  1  6
  2  3  1  0
  3  4  1  0
  5  6  2  0
  5  2  1  0
  7  8  1  0
  9  8  1  1
  9 10  1  0
 10  5  1  0
 11  9  1  0
 11 12  2  0
 14 15  1  1
 14 13  1  0
 16 14  1  0
 17 18  1  0
 17 16  1  1
 18 11  1  0
 19 17  1  0
 20 19  2  0
 21 19  1  0
M  END
$$$$
