CSL.pdb
     RDKit          3D

 21 20  0  0  1  0  0  0  0  0999 V2000
    8.0389  -14.6939   17.5530 N   0  0  0  0  0  0  0  0  0  0  0  0
    8.9832  -14.6775   18.6491 C   0  0  1  0  0  0  0  0  0  0  0  0
    9.3739  -13.2079   18.8502 C   0  0  0  0  0  0  0  0  0  0  0  0
    8.0463  -12.2522   19.5841 S   0  0  0  0  0  0  0  0  0  0  0  0
    8.3276  -15.1187   19.8802 C   0  0  0  0  0  0  0  0  0  0  0  0
    7.0502  -15.0719   19.9240 O   0  0  0  0  0  0  0  0  0  0  0  0
    9.5965  -18.0284   22.2854 O   0  0  0  0  0  0  0  0  0  0  0  0
    8.2997  -17.5346   22.1889 C   0  0  0  0  0  0  0  0  0  0  0  0
    8.2709  -16.0191   22.1417 C   0  0  2  0  0  0  0  0  0  0  0  0
    9.0275  -15.5944   21.0256 N   0  0  0  0  0  0  0  0  0  0  0  0
    8.7417  -15.5147   23.4487 C   0  0  0  0  0  0  0  0  0  0  0  0
    9.9752  -15.3993   23.5963 O   0  0  0  0  0  0  0  0  0  0  0  0
    5.7561  -11.9657   26.7143 C   0  0  0  0  0  0  0  0  0  0  0  0
    6.8121  -12.6458   25.8254 C   0  0  1  0  0  0  0  0  0  0  0  0
    7.9722  -11.6091   25.7932 C   0  0  0  0  0  0  0  0  0  0  0  0
    7.2355  -13.8666   26.5443 C   0  0  0  0  0  0  0  0  0  0  0  0
    8.2577  -14.7301   25.8322 C   0  0  2  0  0  0  0  0  0  0  0  0
    7.8926  -15.1622   24.5205 N   0  0  0  0  0  0  0  0  0  0  0  0
    8.7034  -15.7665   26.7584 C   0  0  0  0  0  0  0  0  0  0  0  0
    8.4371  -16.9733   26.5361 O   0  0  0  0  0  0  0  0  0  0  0  0
    9.4252  -15.4647   27.8994 O   0  0  0  0  0  0  0  0  0  0  0  0
  2  1  1  6
  2  3  1  0
  3  4  1  0
  5  6  2  0
  5  2  1  0
  7  8  1  0
  9  8  1  1
  9 10  1  0
 10  5  1  0
 11  9  1  0
 11 12  2  0
 14 15  1  1
 14 13  1  0
 16 14  1  0
 17 18  1  0
 17 16  1  1
 18 11  1  0
 19 17  1  0
 20 19  2  0
 21 19  1  0
M  END
$$$$
