CSL.pdb
     RDKit          3D

 21 20  0  0  1  0  0  0  0  0999 V2000
    8.1704  -15.3421   17.6358 N   0  0  0  0  0  0  0  0  0  0  0  0
    8.6478  -14.6226   18.7967 C   0  0  1  0  0  0  0  0  0  0  0  0
    7.9347  -13.2648   18.7768 C   0  0  0  0  0  0  0  0  0  0  0  0
    9.0371  -11.9317   18.3049 S   0  0  0  0  0  0  0  0  0  0  0  0
    8.2274  -15.3093   20.0181 C   0  0  0  0  0  0  0  0  0  0  0  0
    7.0097  -15.6924   20.0964 O   0  0  0  0  0  0  0  0  0  0  0  0
   10.3785  -17.7352   22.2630 O   0  0  0  0  0  0  0  0  0  0  0  0
    8.9934  -17.6208   22.3207 C   0  0  0  0  0  0  0  0  0  0  0  0
    8.5404  -16.1743   22.2724 C   0  0  2  0  0  0  0  0  0  0  0  0
    9.0925  -15.5736   21.1180 N   0  0  0  0  0  0  0  0  0  0  0  0
    8.9154  -15.5377   23.5524 C   0  0  0  0  0  0  0  0  0  0  0  0
   10.1064  -15.1889   23.6800 O   0  0  0  0  0  0  0  0  0  0  0  0
    5.4788  -12.3532   26.7745 C   0  0  0  0  0  0  0  0  0  0  0  0
    6.6421  -12.8775   25.9145 C   0  0  1  0  0  0  0  0  0  0  0  0
    7.6807  -11.7203   25.9761 C   0  0  0  0  0  0  0  0  0  0  0  0
    7.1654  -14.0734   26.6091 C   0  0  0  0  0  0  0  0  0  0  0  0
    8.3105  -14.7881   25.9195 C   0  0  2  0  0  0  0  0  0  0  0  0
    8.0207  -15.3055   24.6199 N   0  0  0  0  0  0  0  0  0  0  0  0
    8.9068  -15.7191   26.8727 C   0  0  0  0  0  0  0  0  0  0  0  0
    8.7613  -16.9576   26.7258 O   0  0  0  0  0  0  0  0  0  0  0  0
    9.6439  -15.2804   27.9581 O   0  0  0  0  0  0  0  0  0  0  0  0
  2  1  1  6
  2  3  1  0
  3  4  1  0
  5  6  2  0
  5  2  1  0
  7  8  1  0
  9  8  1  1
  9 10  1  0
 10  5  1  0
 11  9  1  0
 11 12  2  0
 14 15  1  1
 14 13  1  0
 16 14  1  0
 17 18  1  0
 17 16  1  1
 18 11  1  0
 19 17  1  0
 20 19  2  0
 21 19  1  0
M  END
$$$$
