CSL.pdb
     RDKit          3D

 21 20  0  0  1  0  0  0  0  0999 V2000
    9.4177  -17.8305   12.7762 N   0  0  0  0  0  0  0  0  0  0  0  0
   10.4011  -17.5363   13.7958 C   0  0  1  0  0  0  0  0  0  0  0  0
   10.8809  -16.1054   13.5219 C   0  0  0  0  0  0  0  0  0  0  0  0
   11.9340  -16.0135   12.0737 S   0  0  0  0  0  0  0  0  0  0  0  0
    9.7676  -17.5307   15.1144 C   0  0  0  0  0  0  0  0  0  0  0  0
    8.5225  -17.2444   15.1752 O   0  0  0  0  0  0  0  0  0  0  0  0
    9.0693  -19.4226   19.2612 O   0  0  0  0  0  0  0  0  0  0  0  0
    9.7926  -19.2834   18.0812 C   0  0  0  0  0  0  0  0  0  0  0  0
    9.7050  -17.8758   17.5238 C   0  0  2  0  0  0  0  0  0  0  0  0
   10.4550  -17.8241   16.3266 N   0  0  0  0  0  0  0  0  0  0  0  0
   10.1434  -16.9404   18.5807 C   0  0  0  0  0  0  0  0  0  0  0  0
   11.3735  -16.7842   18.7194 O   0  0  0  0  0  0  0  0  0  0  0  0
    6.5462  -13.0149   20.5711 C   0  0  0  0  0  0  0  0  0  0  0  0
    7.7512  -13.6859   19.8889 C   0  0  1  0  0  0  0  0  0  0  0  0
    8.6010  -12.4782   19.3980 C   0  0  0  0  0  0  0  0  0  0  0  0
    8.4717  -14.4221   20.9498 C   0  0  0  0  0  0  0  0  0  0  0  0
    9.5993  -15.3197   20.4802 C   0  0  2  0  0  0  0  0  0  0  0  0
    9.2675  -16.2262   19.4273 N   0  0  0  0  0  0  0  0  0  0  0  0
   10.2432  -15.8960   21.6567 C   0  0  0  0  0  0  0  0  0  0  0  0
    9.9405  -17.0516   22.0435 O   0  0  0  0  0  0  0  0  0  0  0  0
   11.1970  -15.2026   22.3801 O   0  0  0  0  0  0  0  0  0  0  0  0
  2  1  1  6
  2  3  1  0
  3  4  1  0
  5  6  2  0
  5  2  1  0
  7  8  1  0
  9  8  1  1
  9 10  1  0
 10  5  1  0
 11  9  1  0
 11 12  2  0
 14 15  1  1
 14 13  1  0
 16 14  1  0
 17 18  1  0
 17 16  1  1
 18 11  1  0
 19 17  1  0
 20 19  2  0
 21 19  1  0
M  END
$$$$
