LSF.pdb
     RDKit          3D

 26 26  0  0  1  0  0  0  0  0999 V2000
    7.3341  -11.7178   19.9149 C   0  0  0  0  0  0  0  0  0  0  0  0
    7.9127  -13.0102   19.3994 C   0  0  1  0  0  0  0  0  0  0  0  0
    9.3180  -12.8471   18.9117 C   0  0  0  0  0  0  0  0  0  0  0  0
    7.8182  -14.0757   20.4664 C   0  0  0  0  0  0  0  0  0  0  0  0
    8.4753  -15.3625   20.0353 C   0  0  2  0  0  0  0  0  0  0  0  0
    7.7265  -16.0407   19.0133 N   0  0  0  0  0  0  0  0  0  0  0  0
    8.6246  -16.2266   21.2355 C   0  0  0  0  0  0  0  0  0  0  0  0
    7.6279  -16.6686   21.8513 O   0  0  0  0  0  0  0  0  0  0  0  0
   12.5051  -17.3421   22.8777 O   0  0  0  0  0  0  0  0  0  0  0  0
   11.3991  -18.1717   22.9118 C   0  0  0  0  0  0  0  0  0  0  0  0
   10.1009  -17.4201   22.9000 C   0  0  2  0  0  0  0  0  0  0  0  0
    9.8948  -16.6042   21.7579 N   0  0  0  0  0  0  0  0  0  0  0  0
    9.9198  -16.6276   24.1395 C   0  0  0  0  0  0  0  0  0  0  0  0
   10.2133  -15.4052   24.1448 O   0  0  0  0  0  0  0  0  0  0  0  0
    9.4222  -17.1837   25.3490 N   0  0  0  0  0  0  0  0  0  0  0  0
    9.2678  -16.4290   26.5786 C   0  0  1  0  0  0  0  0  0  0  0  0
    7.8120  -16.1006   26.7421 C   0  0  0  0  0  0  0  0  0  0  0  0
    7.4963  -14.6638   26.6048 C   0  0  0  0  0  0  0  0  0  0  0  0
    8.3598  -13.6804   27.0661 C   0  0  0  0  0  0  0  0  0  0  0  0
    8.0835  -12.3353   26.9441 C   0  0  0  0  0  0  0  0  0  0  0  0
    6.8891  -12.0113   26.3320 C   0  0  0  0  0  0  0  0  0  0  0  0
    6.0161  -12.9733   25.8661 C   0  0  0  0  0  0  0  0  0  0  0  0
    6.3155  -14.3065   26.0001 C   0  0  0  0  0  0  0  0  0  0  0  0
    9.8606  -17.2008   27.6697 C   0  0  0  0  0  0  0  0  0  0  0  0
   10.3871  -16.6551   28.8278 O   0  0  0  0  0  0  0  0  0  0  0  0
    9.9014  -18.4535   27.5608 O   0  0  0  0  0  0  0  0  0  0  0  0
  2  1  1  1
  2  4  1  0
  3  2  1  0
  5  4  1  0
  5  6  1  6
  7  5  1  0
  7  8  2  0
  9 10  1  0
 11 10  1  6
 11 12  1  0
 11 13  1  0
 12  7  1  0
 13 15  1  0
 14 13  2  0
 15 16  1  0
 16 24  1  0
 17 18  1  0
 16 17  1  1
 18 19  2  0
 19 20  1  0
 21 20  2  0
 22 21  1  0
 23 22  2  0
 23 18  1  0
 24 26  2  0
 24 25  1  0
M  END
$$$$
