LSF.pdb
     RDKit          3D

 26 26  0  0  1  0  0  0  0  0999 V2000
    6.6164  -12.4773   18.8133 C   0  0  0  0  0  0  0  0  0  0  0  0
    7.8436  -13.2944   19.1253 C   0  0  1  0  0  0  0  0  0  0  0  0
    9.0877  -12.4631   19.1454 C   0  0  0  0  0  0  0  0  0  0  0  0
    7.6504  -14.0315   20.4300 C   0  0  0  0  0  0  0  0  0  0  0  0
    8.8948  -14.7749   20.8450 C   0  0  2  0  0  0  0  0  0  0  0  0
    9.3112  -15.7334   19.8586 N   0  0  0  0  0  0  0  0  0  0  0  0
    8.6183  -15.4452   22.1425 C   0  0  0  0  0  0  0  0  0  0  0  0
    7.8799  -14.9191   23.0062 O   0  0  0  0  0  0  0  0  0  0  0  0
   10.6699  -19.0343   23.3774 O   0  0  0  0  0  0  0  0  0  0  0  0
    9.3326  -18.8568   23.6819 C   0  0  0  0  0  0  0  0  0  0  0  0
    8.9196  -17.4147   23.6932 C   0  0  2  0  0  0  0  0  0  0  0  0
    9.1677  -16.7140   22.4850 N   0  0  0  0  0  0  0  0  0  0  0  0
    9.5116  -16.6883   24.8417 C   0  0  0  0  0  0  0  0  0  0  0  0
   10.5486  -15.9979   24.6735 O   0  0  0  0  0  0  0  0  0  0  0  0
    8.9611  -16.7290   26.1514 N   0  0  0  0  0  0  0  0  0  0  0  0
    9.5998  -16.1375   27.3121 C   0  0  1  0  0  0  0  0  0  0  0  0
    8.5583  -15.3713   28.0751 C   0  0  0  0  0  0  0  0  0  0  0  0
    8.0824  -14.1510   27.3915 C   0  0  0  0  0  0  0  0  0  0  0  0
    6.8446  -14.1013   26.7663 C   0  0  0  0  0  0  0  0  0  0  0  0
    6.3829  -12.9710   26.1264 C   0  0  0  0  0  0  0  0  0  0  0  0
    7.2244  -11.8766   26.1387 C   0  0  0  0  0  0  0  0  0  0  0  0
    8.4592  -11.9045   26.7545 C   0  0  0  0  0  0  0  0  0  0  0  0
    8.8954  -13.0434   27.3851 C   0  0  0  0  0  0  0  0  0  0  0  0
   10.2676  -17.2004   28.0615 C   0  0  0  0  0  0  0  0  0  0  0  0
   11.2169  -16.9948   29.0479 O   0  0  0  0  0  0  0  0  0  0  0  0
    9.9666  -18.3939   27.8008 O   0  0  0  0  0  0  0  0  0  0  0  0
  2  1  1  1
  2  4  1  0
  3  2  1  0
  5  4  1  0
  5  6  1  6
  7  5  1  0
  7  8  2  0
  9 10  1  0
 11 10  1  6
 11 12  1  0
 11 13  1  0
 12  7  1  0
 13 15  1  0
 14 13  2  0
 15 16  1  0
 16 24  1  0
 17 18  1  0
 16 17  1  1
 18 19  2  0
 19 20  1  0
 21 20  2  0
 22 21  1  0
 23 22  2  0
 23 18  1  0
 24 26  2  0
 24 25  1  0
M  END
$$$$
