LSF.pdb
     RDKit          3D

 26 26  0  0  1  0  0  0  0  0999 V2000
    6.8084  -12.0713   19.6327 C   0  0  0  0  0  0  0  0  0  0  0  0
    7.8873  -13.1233   19.6511 C   0  0  1  0  0  0  0  0  0  0  0  0
    9.2147  -12.5811   19.2233 C   0  0  0  0  0  0  0  0  0  0  0  0
    7.9640  -13.7548   21.0215 C   0  0  0  0  0  0  0  0  0  0  0  0
    8.9584  -14.8874   21.0635 C   0  0  2  0  0  0  0  0  0  0  0  0
    8.7110  -15.8677   20.0423 N   0  0  0  0  0  0  0  0  0  0  0  0
    8.8911  -15.5081   22.4124 C   0  0  0  0  0  0  0  0  0  0  0  0
    8.0151  -15.1747   23.2428 O   0  0  0  0  0  0  0  0  0  0  0  0
   11.7573  -18.4415   23.6612 O   0  0  0  0  0  0  0  0  0  0  0  0
   10.4440  -18.5369   24.0843 C   0  0  0  0  0  0  0  0  0  0  0  0
    9.7256  -17.2200   24.0699 C   0  0  2  0  0  0  0  0  0  0  0  0
    9.8066  -16.5101   22.8443 N   0  0  0  0  0  0  0  0  0  0  0  0
   10.1517  -16.3554   25.1960 C   0  0  0  0  0  0  0  0  0  0  0  0
   11.0330  -15.4789   25.0084 O   0  0  0  0  0  0  0  0  0  0  0  0
    9.6083  -16.4637   26.5047 N   0  0  0  0  0  0  0  0  0  0  0  0
   10.1094  -15.7247   27.6484 C   0  0  1  0  0  0  0  0  0  0  0  0
    8.9403  -15.0733   28.3287 C   0  0  0  0  0  0  0  0  0  0  0  0
    8.1861  -14.1358   27.4711 C   0  0  0  0  0  0  0  0  0  0  0  0
    7.0408  -14.5284   26.7932 C   0  0  0  0  0  0  0  0  0  0  0  0
    6.3228  -13.6671   25.9913 C   0  0  0  0  0  0  0  0  0  0  0  0
    6.8065  -12.3776   25.8952 C   0  0  0  0  0  0  0  0  0  0  0  0
    7.9433  -11.9663   26.5608 C   0  0  0  0  0  0  0  0  0  0  0  0
    8.6402  -12.8444   27.3535 C   0  0  0  0  0  0  0  0  0  0  0  0
   10.8874  -16.6393   28.4824 C   0  0  0  0  0  0  0  0  0  0  0  0
   10.9923  -18.0036   28.2727 O   0  0  0  0  0  0  0  0  0  0  0  0
   11.5123  -16.1647   29.4659 O   0  0  0  0  0  0  0  0  0  0  0  0
  2  1  1  1
  2  4  1  0
  3  2  1  0
  5  4  1  0
  5  6  1  6
  7  5  1  0
  7  8  2  0
  9 10  1  0
 11 10  1  6
 11 12  1  0
 11 13  1  0
 12  7  1  0
 13 15  1  0
 14 13  2  0
 15 16  1  0
 16 24  1  0
 17 18  1  0
 16 17  1  1
 18 19  2  0
 19 20  1  0
 21 20  2  0
 22 21  1  0
 23 22  2  0
 23 18  1  0
 24 26  2  0
 24 25  1  0
M  END
$$$$
