LSF.pdb
     RDKit          3D

 26 26  0  0  1  0  0  0  0  0999 V2000
    7.5900  -11.7376   20.0174 C   0  0  0  0  0  0  0  0  0  0  0  0
    7.8403  -13.2017   19.7633 C   0  0  1  0  0  0  0  0  0  0  0  0
    9.1317  -13.4396   19.0457 C   0  0  0  0  0  0  0  0  0  0  0  0
    7.7834  -13.9650   21.0660 C   0  0  0  0  0  0  0  0  0  0  0  0
    8.0120  -15.4414   20.8627 C   0  0  2  0  0  0  0  0  0  0  0  0
    6.9479  -16.0604   20.1213 N   0  0  0  0  0  0  0  0  0  0  0  0
    8.1541  -16.0728   22.2007 C   0  0  0  0  0  0  0  0  0  0  0  0
    7.1810  -16.1753   22.9823 O   0  0  0  0  0  0  0  0  0  0  0  0
   11.7516  -18.1141   23.3234 O   0  0  0  0  0  0  0  0  0  0  0  0
   10.5144  -18.4472   23.8440 C   0  0  0  0  0  0  0  0  0  0  0  0
    9.5705  -17.2828   23.9050 C   0  0  2  0  0  0  0  0  0  0  0  0
    9.3904  -16.5965   22.6765 N   0  0  0  0  0  0  0  0  0  0  0  0
    9.9487  -16.3313   24.9768 C   0  0  0  0  0  0  0  0  0  0  0  0
   10.7105  -15.3670   24.7123 O   0  0  0  0  0  0  0  0  0  0  0  0
    9.4887  -16.4502   26.3163 N   0  0  0  0  0  0  0  0  0  0  0  0
   10.0202  -15.6754   27.4219 C   0  0  1  0  0  0  0  0  0  0  0  0
    8.8662  -15.0332   28.1357 C   0  0  0  0  0  0  0  0  0  0  0  0
    8.1483  -14.0190   27.3362 C   0  0  0  0  0  0  0  0  0  0  0  0
    6.9491  -14.3072   26.7003 C   0  0  0  0  0  0  0  0  0  0  0  0
    6.2640  -13.3732   25.9528 C   0  0  0  0  0  0  0  0  0  0  0  0
    6.8381  -12.1205   25.8674 C   0  0  0  0  0  0  0  0  0  0  0  0
    8.0297  -11.8128   26.4919 C   0  0  0  0  0  0  0  0  0  0  0  0
    8.6921  -12.7617   27.2307 C   0  0  0  0  0  0  0  0  0  0  0  0
   10.8512  -16.5548   28.2426 C   0  0  0  0  0  0  0  0  0  0  0  0
   11.0304  -17.9089   28.0171 O   0  0  0  0  0  0  0  0  0  0  0  0
   11.4531  -16.0573   29.2290 O   0  0  0  0  0  0  0  0  0  0  0  0
  2  1  1  1
  2  4  1  0
  3  2  1  0
  5  4  1  0
  5  6  1  1
  7  5  1  0
  7  8  2  0
  9 10  1  0
 11 10  1  6
 11 12  1  0
 11 13  1  0
 12  7  1  0
 13 15  1  0
 14 13  2  0
 15 16  1  0
 16 24  1  0
 17 18  1  0
 16 17  1  1
 18 19  2  0
 19 20  1  0
 21 20  2  0
 22 21  1  0
 23 22  2  0
 23 18  1  0
 24 26  2  0
 24 25  1  0
M  END
$$$$
