LSF.pdb
     RDKit          3D

 26 26  0  0  1  0  0  0  0  0999 V2000
    9.5438  -13.5684   19.7852 C   0  0  0  0  0  0  0  0  0  0  0  0
    8.3628  -13.3806   20.7021 C   0  0  1  0  0  0  0  0  0  0  0  0
    7.9246  -11.9517   20.7762 C   0  0  0  0  0  0  0  0  0  0  0  0
    7.2309  -14.2840   20.2715 C   0  0  0  0  0  0  0  0  0  0  0  0
    7.6302  -15.7376   20.2997 C   0  0  2  0  0  0  0  0  0  0  0  0
    6.6439  -16.5854   19.6884 N   0  0  0  0  0  0  0  0  0  0  0  0
    7.8487  -16.1266   21.7175 C   0  0  0  0  0  0  0  0  0  0  0  0
    6.9416  -16.0147   22.5736 O   0  0  0  0  0  0  0  0  0  0  0  0
   11.4497  -18.2056   22.8598 O   0  0  0  0  0  0  0  0  0  0  0  0
   10.1880  -18.5322   23.3226 C   0  0  0  0  0  0  0  0  0  0  0  0
    9.2698  -17.3490   23.4088 C   0  0  2  0  0  0  0  0  0  0  0  0
    9.0880  -16.6456   22.1903 N   0  0  0  0  0  0  0  0  0  0  0  0
    9.6824  -16.4176   24.4855 C   0  0  0  0  0  0  0  0  0  0  0  0
   10.3997  -15.4235   24.2072 O   0  0  0  0  0  0  0  0  0  0  0  0
    9.3045  -16.5885   25.8449 N   0  0  0  0  0  0  0  0  0  0  0  0
    9.8238  -15.7808   26.9327 C   0  0  1  0  0  0  0  0  0  0  0  0
    8.6595  -15.2914   27.7442 C   0  0  0  0  0  0  0  0  0  0  0  0
    7.9450  -14.1441   27.1473 C   0  0  0  0  0  0  0  0  0  0  0  0
    8.4520  -12.8542   27.2151 C   0  0  0  0  0  0  0  0  0  0  0  0
    7.8011  -11.7724   26.6616 C   0  0  0  0  0  0  0  0  0  0  0  0
    6.6038  -12.0399   26.0282 C   0  0  0  0  0  0  0  0  0  0  0  0
    6.0817  -13.3150   25.9493 C   0  0  0  0  0  0  0  0  0  0  0  0
    6.7504  -14.3754   26.5092 C   0  0  0  0  0  0  0  0  0  0  0  0
   10.8072  -16.5753   27.6669 C   0  0  0  0  0  0  0  0  0  0  0  0
   11.6825  -16.0706   28.6132 O   0  0  0  0  0  0  0  0  0  0  0  0
   10.8733  -17.8094   27.4310 O   0  0  0  0  0  0  0  0  0  0  0  0
  2  1  1  6
  2  4  1  0
  3  2  1  0
  5  4  1  0
  5  6  1  1
  7  5  1  0
  7  8  2  0
  9 10  1  0
 11 10  1  6
 11 12  1  0
 11 13  1  0
 12  7  1  0
 13 15  1  0
 14 13  2  0
 15 16  1  0
 16 24  1  0
 17 18  1  0
 16 17  1  1
 18 19  2  0
 19 20  1  0
 21 20  2  0
 22 21  1  0
 23 22  2  0
 23 18  1  0
 24 26  2  0
 24 25  1  0
M  END
$$$$
