LSF.pdb
     RDKit          3D

 26 26  0  0  1  0  0  0  0  0999 V2000
    6.7098  -12.8460   18.3122 C   0  0  0  0  0  0  0  0  0  0  0  0
    8.1295  -13.3175   18.4948 C   0  0  1  0  0  0  0  0  0  0  0  0
    9.0270  -12.2309   18.9978 C   0  0  0  0  0  0  0  0  0  0  0  0
    8.1561  -14.5224   19.4061 C   0  0  0  0  0  0  0  0  0  0  0  0
    9.5649  -14.9399   19.7445 C   0  0  2  0  0  0  0  0  0  0  0  0
   10.2096  -15.6164   18.6528 N   0  0  0  0  0  0  0  0  0  0  0  0
    9.5087  -15.8163   20.9437 C   0  0  0  0  0  0  0  0  0  0  0  0
    8.8760  -15.4799   21.9706 O   0  0  0  0  0  0  0  0  0  0  0  0
   12.1869  -19.1106   21.5377 O   0  0  0  0  0  0  0  0  0  0  0  0
   10.8622  -19.2590   21.9065 C   0  0  0  0  0  0  0  0  0  0  0  0
   10.1634  -17.9496   22.1246 C   0  0  2  0  0  0  0  0  0  0  0  0
   10.1624  -17.0805   21.0035 N   0  0  0  0  0  0  0  0  0  0  0  0
   10.6850  -17.2473   23.3213 C   0  0  0  0  0  0  0  0  0  0  0  0
   11.5787  -16.3732   23.1894 O   0  0  0  0  0  0  0  0  0  0  0  0
   10.2217  -17.5122   24.6385 N   0  0  0  0  0  0  0  0  0  0  0  0
   10.7125  -16.8246   25.8182 C   0  0  1  0  0  0  0  0  0  0  0  0
    9.5924  -15.9904   26.3689 C   0  0  0  0  0  0  0  0  0  0  0  0
    9.9165  -15.3016   27.6353 C   0  0  0  0  0  0  0  0  0  0  0  0
   10.2190  -16.0064   28.7917 C   0  0  0  0  0  0  0  0  0  0  0  0
   10.5267  -15.3811   29.9811 C   0  0  0  0  0  0  0  0  0  0  0  0
   10.5186  -14.0006   29.9641 C   0  0  0  0  0  0  0  0  0  0  0  0
   10.2206  -13.2803   28.8252 C   0  0  0  0  0  0  0  0  0  0  0  0
    9.9176  -13.9278   27.6531 C   0  0  0  0  0  0  0  0  0  0  0  0
   11.2596  -17.8212   26.7374 C   0  0  0  0  0  0  0  0  0  0  0  0
   10.6640  -19.0359   27.0310 O   0  0  0  0  0  0  0  0  0  0  0  0
   12.3510  -17.5691   27.3101 O   0  0  0  0  0  0  0  0  0  0  0  0
  2  1  1  1
  2  4  1  0
  3  2  1  0
  5  4  1  0
  5  6  1  6
  7  5  1  0
  7  8  2  0
  9 10  1  0
 11 10  1  6
 11 12  1  0
 11 13  1  0
 12  7  1  0
 13 15  1  0
 14 13  2  0
 15 16  1  0
 16 24  1  0
 17 18  1  0
 16 17  1  1
 18 19  2  0
 19 20  1  0
 21 20  2  0
 22 21  1  0
 23 22  2  0
 23 18  1  0
 24 26  2  0
 24 25  1  0
M  END
$$$$
