LSF.pdb
     RDKit          3D

 26 26  0  0  1  0  0  0  0  0999 V2000
   10.0435  -13.2082   19.5809 C   0  0  0  0  0  0  0  0  0  0  0  0
    8.5554  -13.4402   19.5274 C   0  0  1  0  0  0  0  0  0  0  0  0
    7.7916  -12.1714   19.3129 C   0  0  0  0  0  0  0  0  0  0  0  0
    8.2344  -14.4649   18.4645 C   0  0  0  0  0  0  0  0  0  0  0  0
    8.8539  -15.8050   18.7706 C   0  0  2  0  0  0  0  0  0  0  0  0
    8.5527  -16.7867   17.7652 N   0  0  0  0  0  0  0  0  0  0  0  0
    8.3577  -16.2477   20.0999 C   0  0  0  0  0  0  0  0  0  0  0  0
    7.1673  -16.5968   20.2707 O   0  0  0  0  0  0  0  0  0  0  0  0
   10.2156  -18.9788   22.1630 O   0  0  0  0  0  0  0  0  0  0  0  0
    8.9350  -18.4907   22.3486 C   0  0  0  0  0  0  0  0  0  0  0  0
    8.8863  -16.9949   22.4529 C   0  0  2  0  0  0  0  0  0  0  0  0
    9.1925  -16.3033   21.2527 N   0  0  0  0  0  0  0  0  0  0  0  0
    9.7329  -16.4993   23.5642 C   0  0  0  0  0  0  0  0  0  0  0  0
   10.9768  -16.4095   23.4064 O   0  0  0  0  0  0  0  0  0  0  0  0
    9.2062  -16.1112   24.8259 N   0  0  0  0  0  0  0  0  0  0  0  0
   10.0242  -15.6540   25.9337 C   0  0  1  0  0  0  0  0  0  0  0  0
    9.9021  -14.1599   26.0151 C   0  0  0  0  0  0  0  0  0  0  0  0
    8.5368  -13.6792   26.3116 C   0  0  0  0  0  0  0  0  0  0  0  0
    7.4754  -13.9226   25.4515 C   0  0  0  0  0  0  0  0  0  0  0  0
    6.1947  -13.4846   25.7130 C   0  0  0  0  0  0  0  0  0  0  0  0
    6.0186  -12.7825   26.8886 C   0  0  0  0  0  0  0  0  0  0  0  0
    7.0602  -12.5295   27.7580 C   0  0  0  0  0  0  0  0  0  0  0  0
    8.3266  -12.9771   27.4737 C   0  0  0  0  0  0  0  0  0  0  0  0
    9.6185  -16.3804   27.1358 C   0  0  0  0  0  0  0  0  0  0  0  0
   10.2068  -16.2381   28.3808 O   0  0  0  0  0  0  0  0  0  0  0  0
    8.6662  -17.1978   27.0461 O   0  0  0  0  0  0  0  0  0  0  0  0
  2  1  1  6
  2  4  1  0
  3  2  1  0
  5  4  1  0
  5  6  1  6
  7  5  1  0
  7  8  2  0
  9 10  1  0
 11 10  1  6
 11 12  1  0
 11 13  1  0
 12  7  1  0
 13 15  1  0
 14 13  2  0
 15 16  1  0
 16 24  1  0
 17 18  1  0
 16 17  1  1
 18 19  2  0
 19 20  1  0
 21 20  2  0
 22 21  1  0
 23 22  2  0
 23 18  1  0
 24 26  2  0
 24 25  1  0
M  END
$$$$
