LSF.pdb
     RDKit          3D

 26 26  0  0  1  0  0  0  0  0999 V2000
    7.4804  -11.8234   20.0701 C   0  0  0  0  0  0  0  0  0  0  0  0
    7.7141  -13.2972   19.8601 C   0  0  1  0  0  0  0  0  0  0  0  0
    9.0516  -13.5776   19.2503 C   0  0  0  0  0  0  0  0  0  0  0  0
    7.5367  -14.0355   21.1663 C   0  0  0  0  0  0  0  0  0  0  0  0
    7.7378  -15.5210   21.0041 C   0  0  2  0  0  0  0  0  0  0  0  0
    6.6685  -16.1383   20.2688 N   0  0  0  0  0  0  0  0  0  0  0  0
    7.8549  -16.1195   22.3596 C   0  0  0  0  0  0  0  0  0  0  0  0
    6.8564  -16.2553   23.1030 O   0  0  0  0  0  0  0  0  0  0  0  0
   11.3766  -18.1955   23.5916 O   0  0  0  0  0  0  0  0  0  0  0  0
   10.1284  -18.4243   24.1417 C   0  0  0  0  0  0  0  0  0  0  0  0
    9.2604  -17.2009   24.1566 C   0  0  2  0  0  0  0  0  0  0  0  0
    9.0944  -16.5723   22.8958 N   0  0  0  0  0  0  0  0  0  0  0  0
    9.7222  -16.2184   25.1659 C   0  0  0  0  0  0  0  0  0  0  0  0
   10.4741  -15.2737   24.8160 O   0  0  0  0  0  0  0  0  0  0  0  0
    9.3550  -16.2855   26.5373 N   0  0  0  0  0  0  0  0  0  0  0  0
    9.9674  -15.4776   27.5753 C   0  0  1  0  0  0  0  0  0  0  0  0
    8.8830  -14.6881   28.2495 C   0  0  0  0  0  0  0  0  0  0  0  0
    8.1963  -13.7243   27.3647 C   0  0  0  0  0  0  0  0  0  0  0  0
    7.0242  -14.0532   26.6987 C   0  0  0  0  0  0  0  0  0  0  0  0
    6.3683  -13.1664   25.8719 C   0  0  0  0  0  0  0  0  0  0  0  0
    6.9434  -11.9184   25.7377 C   0  0  0  0  0  0  0  0  0  0  0  0
    8.1084  -11.5707   26.3908 C   0  0  0  0  0  0  0  0  0  0  0  0
    8.7419  -12.4730   27.2090 C   0  0  0  0  0  0  0  0  0  0  0  0
   10.7352  -16.3600   28.4524 C   0  0  0  0  0  0  0  0  0  0  0  0
   10.8300  -17.7331   28.3042 O   0  0  0  0  0  0  0  0  0  0  0  0
   11.3601  -15.8469   29.4162 O   0  0  0  0  0  0  0  0  0  0  0  0
  2  1  1  1
  2  4  1  0
  3  2  1  0
  5  4  1  0
  5  6  1  1
  7  5  1  0
  7  8  2  0
  9 10  1  0
 11 10  1  6
 11 12  1  0
 11 13  1  0
 12  7  1  0
 13 15  1  0
 14 13  2  0
 15 16  1  0
 16 24  1  0
 17 18  1  0
 16 17  1  1
 18 19  2  0
 19 20  1  0
 21 20  2  0
 22 21  1  0
 23 22  2  0
 23 18  1  0
 24 26  2  0
 24 25  1  0
M  END
$$$$
