LSF.pdb
     RDKit          3D

 26 26  0  0  1  0  0  0  0  0999 V2000
    7.2229  -21.8319   26.0466 C   0  0  0  0  0  0  0  0  0  0  0  0
    6.6826  -21.3482   24.7256 C   0  0  1  0  0  0  0  0  0  0  0  0
    5.2472  -21.7229   24.5292 C   0  0  0  0  0  0  0  0  0  0  0  0
    6.8857  -19.8559   24.6044 C   0  0  0  0  0  0  0  0  0  0  0  0
    6.5015  -19.3456   23.2386 C   0  0  2  0  0  0  0  0  0  0  0  0
    6.2552  -20.4126   22.3079 N   0  0  0  0  0  0  0  0  0  0  0  0
    7.5977  -18.4681   22.7509 C   0  0  0  0  0  0  0  0  0  0  0  0
    8.7702  -18.8914   22.6313 O   0  0  0  0  0  0  0  0  0  0  0  0
    6.5707  -14.7655   21.3149 O   0  0  0  0  0  0  0  0  0  0  0  0
    7.8803  -15.1122   21.0364 C   0  0  0  0  0  0  0  0  0  0  0  0
    8.3896  -16.2258   21.9029 C   0  0  2  0  0  0  0  0  0  0  0  0
    7.3899  -17.1055   22.3921 N   0  0  0  0  0  0  0  0  0  0  0  0
    9.2156  -15.7110   23.0209 C   0  0  0  0  0  0  0  0  0  0  0  0
   10.1474  -14.9010   22.7844 O   0  0  0  0  0  0  0  0  0  0  0  0
    9.0092  -16.0896   24.3751 N   0  0  0  0  0  0  0  0  0  0  0  0
    9.8461  -15.6424   25.4728 C   0  0  1  0  0  0  0  0  0  0  0  0
    9.8154  -14.1417   25.4984 C   0  0  0  0  0  0  0  0  0  0  0  0
    8.4805  -13.5678   25.7665 C   0  0  0  0  0  0  0  0  0  0  0  0
    7.5521  -13.3771   24.7530 C   0  0  0  0  0  0  0  0  0  0  0  0
    6.3013  -12.8460   24.9848 C   0  0  0  0  0  0  0  0  0  0  0  0
    6.0147  -12.5089   26.2926 C   0  0  0  0  0  0  0  0  0  0  0  0
    6.9233  -12.6903   27.3154 C   0  0  0  0  0  0  0  0  0  0  0  0
    8.1628  -13.2215   27.0575 C   0  0  0  0  0  0  0  0  0  0  0  0
    9.3883  -16.2976   26.6970 C   0  0  0  0  0  0  0  0  0  0  0  0
   10.0012  -16.1793   27.9326 O   0  0  0  0  0  0  0  0  0  0  0  0
    8.3636  -17.0251   26.6370 O   0  0  0  0  0  0  0  0  0  0  0  0
  2  1  1  1
  2  4  1  0
  3  2  1  0
  5  4  1  0
  5  6  1  6
  7  5  1  0
  7  8  2  0
  9 10  1  0
 11 10  1  1
 11 12  1  0
 11 13  1  0
 12  7  1  0
 13 15  1  0
 14 13  2  0
 15 16  1  0
 16 24  1  0
 17 18  1  0
 16 17  1  1
 18 19  2  0
 19 20  1  0
 21 20  2  0
 22 21  1  0
 23 22  2  0
 23 18  1  0
 24 26  2  0
 24 25  1  0
M  END
$$$$
