LSF.pdb
     RDKit          3D

 26 26  0  0  1  0  0  0  0  0999 V2000
    6.7343  -12.8900   18.5598 C   0  0  0  0  0  0  0  0  0  0  0  0
    8.0154  -13.6309   18.8441 C   0  0  1  0  0  0  0  0  0  0  0  0
    9.2120  -12.7339   18.7921 C   0  0  0  0  0  0  0  0  0  0  0  0
    7.9132  -14.3393   20.1747 C   0  0  0  0  0  0  0  0  0  0  0  0
    9.1742  -15.0965   20.5065 C   0  0  2  0  0  0  0  0  0  0  0  0
    9.4634  -16.1220   19.5421 N   0  0  0  0  0  0  0  0  0  0  0  0
    9.0144  -15.6832   21.8627 C   0  0  0  0  0  0  0  0  0  0  0  0
    8.6357  -14.9903   22.8347 O   0  0  0  0  0  0  0  0  0  0  0  0
   10.6868  -19.4780   23.0046 O   0  0  0  0  0  0  0  0  0  0  0  0
    9.4139  -19.1459   23.4314 C   0  0  0  0  0  0  0  0  0  0  0  0
    9.1567  -17.6681   23.4166 C   0  0  2  0  0  0  0  0  0  0  0  0
    9.2779  -17.0546   22.1432 N   0  0  0  0  0  0  0  0  0  0  0  0
    9.9958  -16.9598   24.4123 C   0  0  0  0  0  0  0  0  0  0  0  0
   11.1634  -16.6095   24.1054 O   0  0  0  0  0  0  0  0  0  0  0  0
    9.5450  -16.6474   25.7235 N   0  0  0  0  0  0  0  0  0  0  0  0
   10.3853  -16.0455   26.7418 C   0  0  1  0  0  0  0  0  0  0  0  0
   10.4580  -14.5706   26.4714 C   0  0  0  0  0  0  0  0  0  0  0  0
    9.1623  -13.8696   26.5849 C   0  0  0  0  0  0  0  0  0  0  0  0
    8.8345  -13.1204   27.7059 C   0  0  0  0  0  0  0  0  0  0  0  0
    7.6321  -12.4574   27.8280 C   0  0  0  0  0  0  0  0  0  0  0  0
    6.7589  -12.5776   26.7654 C   0  0  0  0  0  0  0  0  0  0  0  0
    7.0649  -13.3175   25.6413 C   0  0  0  0  0  0  0  0  0  0  0  0
    8.2699  -13.9683   25.5449 C   0  0  0  0  0  0  0  0  0  0  0  0
    9.8552  -16.4150   28.0532 C   0  0  0  0  0  0  0  0  0  0  0  0
    8.7389  -17.2073   28.2592 O   0  0  0  0  0  0  0  0  0  0  0  0
   10.4474  -15.9882   29.0779 O   0  0  0  0  0  0  0  0  0  0  0  0
  2  1  1  1
  2  4  1  0
  3  2  1  0
  5  4  1  0
  5  6  1  6
  7  5  1  0
  7  8  2  0
  9 10  1  0
 11 10  1  6
 11 12  1  0
 11 13  1  0
 12  7  1  0
 13 15  1  0
 14 13  2  0
 15 16  1  0
 16 24  1  0
 17 18  1  0
 16 17  1  6
 18 19  2  0
 19 20  1  0
 21 20  2  0
 22 21  1  0
 23 22  2  0
 23 18  1  0
 24 26  2  0
 24 25  1  0
M  END
$$$$
