LSF.pdb
     RDKit          3D

 26 26  0  0  1  0  0  0  0  0999 V2000
    7.4639  -11.8461   19.8368 C   0  0  0  0  0  0  0  0  0  0  0  0
    7.8323  -13.2947   19.6447 C   0  0  1  0  0  0  0  0  0  0  0  0
    9.1107  -13.4581   18.8843 C   0  0  0  0  0  0  0  0  0  0  0  0
    7.8936  -13.9899   20.9847 C   0  0  0  0  0  0  0  0  0  0  0  0
    8.2176  -15.4556   20.8431 C   0  0  2  0  0  0  0  0  0  0  0  0
    7.1690  -16.1839   20.1832 N   0  0  0  0  0  0  0  0  0  0  0  0
    8.4618  -16.0056   22.2022 C   0  0  0  0  0  0  0  0  0  0  0  0
    7.5435  -16.0867   23.0497 O   0  0  0  0  0  0  0  0  0  0  0  0
   12.3326  -17.5531   23.3948 O   0  0  0  0  0  0  0  0  0  0  0  0
   11.1379  -18.1408   23.7689 C   0  0  0  0  0  0  0  0  0  0  0  0
    9.9994  -17.1661   23.8342 C   0  0  2  0  0  0  0  0  0  0  0  0
    9.7399  -16.4708   22.6252 N   0  0  0  0  0  0  0  0  0  0  0  0
   10.1658  -16.2093   24.9540 C   0  0  0  0  0  0  0  0  0  0  0  0
   10.6889  -15.0864   24.7403 O   0  0  0  0  0  0  0  0  0  0  0  0
    9.7585  -16.4959   26.2851 N   0  0  0  0  0  0  0  0  0  0  0  0
   10.0747  -15.6531   27.4230 C   0  0  1  0  0  0  0  0  0  0  0  0
    8.7834  -15.2413   28.0687 C   0  0  0  0  0  0  0  0  0  0  0  0
    8.1092  -14.1067   27.4043 C   0  0  0  0  0  0  0  0  0  0  0  0
    6.8942  -14.2614   26.7520 C   0  0  0  0  0  0  0  0  0  0  0  0
    6.2492  -13.2141   26.1295 C   0  0  0  0  0  0  0  0  0  0  0  0
    6.8806  -11.9878   26.1881 C   0  0  0  0  0  0  0  0  0  0  0  0
    8.0889  -11.8120   26.8315 C   0  0  0  0  0  0  0  0  0  0  0  0
    8.7104  -12.8720   27.4439 C   0  0  0  0  0  0  0  0  0  0  0  0
   11.0028  -16.3783   28.2891 C   0  0  0  0  0  0  0  0  0  0  0  0
   11.4546  -17.6665   28.0592 O   0  0  0  0  0  0  0  0  0  0  0  0
   11.4298  -15.8010   29.3222 O   0  0  0  0  0  0  0  0  0  0  0  0
  2  1  1  1
  2  4  1  0
  3  2  1  0
  5  4  1  0
  5  6  1  1
  7  5  1  0
  7  8  2  0
  9 10  1  0
 11 10  1  6
 11 12  1  0
 11 13  1  0
 12  7  1  0
 13 15  1  0
 14 13  2  0
 15 16  1  0
 16 24  1  0
 17 18  1  0
 16 17  1  1
 18 19  2  0
 19 20  1  0
 21 20  2  0
 22 21  1  0
 23 22  2  0
 23 18  1  0
 24 26  2  0
 24 25  1  0
M  END
$$$$
