LSF.pdb
     RDKit          3D

 26 26  0  0  1  0  0  0  0  0999 V2000
    8.2550  -12.0922   18.7838 C   0  0  0  0  0  0  0  0  0  0  0  0
    8.5602  -13.5649   18.6894 C   0  0  1  0  0  0  0  0  0  0  0  0
    9.9933  -13.8672   18.9962 C   0  0  0  0  0  0  0  0  0  0  0  0
    7.6269  -14.3405   19.5895 C   0  0  0  0  0  0  0  0  0  0  0  0
    7.9953  -15.8010   19.6562 C   0  0  2  0  0  0  0  0  0  0  0  0
    7.1489  -16.6146   18.8274 N   0  0  0  0  0  0  0  0  0  0  0  0
    7.9085  -16.2323   21.0760 C   0  0  0  0  0  0  0  0  0  0  0  0
    6.8428  -16.1326   21.7259 O   0  0  0  0  0  0  0  0  0  0  0  0
   10.5400  -19.1150   22.6563 O   0  0  0  0  0  0  0  0  0  0  0  0
    9.2794  -18.8152   23.1398 C   0  0  0  0  0  0  0  0  0  0  0  0
    8.9609  -17.3505   23.0802 C   0  0  2  0  0  0  0  0  0  0  0  0
    9.0174  -16.7805   21.7823 N   0  0  0  0  0  0  0  0  0  0  0  0
    9.8003  -16.5724   24.0222 C   0  0  0  0  0  0  0  0  0  0  0  0
   10.8600  -16.0345   23.6126 O   0  0  0  0  0  0  0  0  0  0  0  0
    9.4674  -16.3962   25.3926 N   0  0  0  0  0  0  0  0  0  0  0  0
   10.2826  -15.6456   26.3292 C   0  0  1  0  0  0  0  0  0  0  0  0
    9.9753  -14.1874   26.1473 C   0  0  0  0  0  0  0  0  0  0  0  0
    8.5862  -13.8146   26.4858 C   0  0  0  0  0  0  0  0  0  0  0  0
    7.5068  -14.2751   25.7454 C   0  0  0  0  0  0  0  0  0  0  0  0
    6.2042  -13.9402   26.0481 C   0  0  0  0  0  0  0  0  0  0  0  0
    6.0250  -13.1131   27.1389 C   0  0  0  0  0  0  0  0  0  0  0  0
    7.0844  -12.6439   27.8888 C   0  0  0  0  0  0  0  0  0  0  0  0
    8.3724  -12.9927   27.5659 C   0  0  0  0  0  0  0  0  0  0  0  0
   10.0433  -16.1718   27.6720 C   0  0  0  0  0  0  0  0  0  0  0  0
   10.6360  -15.6897   28.8264 O   0  0  0  0  0  0  0  0  0  0  0  0
    9.2422  -17.1331   27.8021 O   0  0  0  0  0  0  0  0  0  0  0  0
  2  1  1  1
  2  4  1  0
  3  2  1  0
  5  4  1  0
  5  6  1  6
  7  5  1  0
  7  8  2  0
  9 10  1  0
 11 10  1  6
 11 12  1  0
 11 13  1  0
 12  7  1  0
 13 15  1  0
 14 13  2  0
 15 16  1  0
 16 24  1  0
 17 18  1  0
 16 17  1  1
 18 19  2  0
 19 20  1  0
 21 20  2  0
 22 21  1  0
 23 22  2  0
 23 18  1  0
 24 26  2  0
 24 25  1  0
M  END
$$$$
