VQF.pdb
     RDKit          3D

 28 28  0  0  1  0  0  0  0  0999 V2000
   16.7014   -7.3052  -20.4389 C   0  0  0  0  0  0  0  0  0  0  0  0
   17.8272   -7.1606  -21.3978 C   0  0  2  0  0  0  0  0  0  0  0  0
   17.4898   -7.8006  -22.7223 C   0  0  0  0  0  0  0  0  0  0  0  0
   19.1740   -7.6022  -20.8838 C   0  0  2  0  0  0  0  0  0  0  0  0
   19.1011   -9.0674  -20.7392 N   0  0  0  0  0  0  0  0  0  0  0  0
   19.5126   -7.0669  -19.5475 C   0  0  0  0  0  0  0  0  0  0  0  0
   19.7107   -5.8418  -19.4059 O   0  0  0  0  0  0  0  0  0  0  0  0
   22.1586   -9.5175  -14.8840 N   0  0  0  0  0  0  0  0  0  0  0  0
   21.5866   -8.3506  -14.3131 C   0  0  0  0  0  0  0  0  0  0  0  0
   22.2391   -7.6503  -13.5042 O   0  0  0  0  0  0  0  0  0  0  0  0
   20.2180   -7.9919  -14.6962 C   0  0  0  0  0  0  0  0  0  0  0  0
   19.9405   -8.4977  -16.0995 C   0  0  0  0  0  0  0  0  0  0  0  0
   20.0218   -7.3405  -17.0887 C   0  0  2  0  0  0  0  0  0  0  0  0
   19.6316   -7.8712  -18.3768 N   0  0  0  0  0  0  0  0  0  0  0  0
   21.4635   -6.9132  -17.1036 C   0  0  0  0  0  0  0  0  0  0  0  0
   22.3214   -7.6941  -17.5964 O   0  0  0  0  0  0  0  0  0  0  0  0
   21.8915   -5.6818  -16.5916 N   0  0  0  0  0  0  0  0  0  0  0  0
   23.2971   -5.2742  -16.5200 C   0  0  1  0  0  0  0  0  0  0  0  0
   23.6860   -4.7674  -17.8779 C   0  0  0  0  0  0  0  0  0  0  0  0
   25.0238   -4.1342  -17.9254 C   0  0  0  0  0  0  0  0  0  0  0  0
   25.1780   -2.8354  -17.4956 C   0  0  0  0  0  0  0  0  0  0  0  0
   26.4433   -2.2505  -17.5417 C   0  0  0  0  0  0  0  0  0  0  0  0
   27.5526   -2.9302  -18.0054 C   0  0  0  0  0  0  0  0  0  0  0  0
   27.3868   -4.2299  -18.4333 C   0  0  0  0  0  0  0  0  0  0  0  0
   26.1364   -4.8155  -18.3903 C   0  0  0  0  0  0  0  0  0  0  0  0
   23.4119   -4.2465  -15.4574 C   0  0  0  0  0  0  0  0  0  0  0  0
   22.2861   -3.7858  -14.7567 O   0  0  0  0  0  0  0  0  0  0  0  0
   24.5042   -3.7252  -15.1154 O   0  0  0  0  0  0  0  0  0  0  0  0
  2  1  1  1
  2  4  1  0
  2  3  1  0
  4  5  1  1
  6  4  1  0
  6 14  1  0
  7  6  2  0
  8  9  1  0
  9 11  1  0
  9 10  2  0
 11 12  1  0
 13 12  1  1
 13 14  1  0
 15 13  1  0
 16 15  2  0
 17 15  1  0
 18 17  1  0
 18 26  1  0
 18 19  1  6
 20 25  2  0
 20 19  1  0
 21 20  1  0
 22 23  1  0
 22 21  2  0
 23 24  2  0
 24 25  1  0
 26 27  1  0
 28 26  2  0
M  END
$$$$
