VQF.pdb
     RDKit          3D

 28 28  0  0  1  0  0  0  0  0999 V2000
   29.3950  -19.1297  -14.5737 C   0  0  0  0  0  0  0  0  0  0  0  0
   28.8456  -20.4169  -15.0728 C   0  0  2  0  0  0  0  0  0  0  0  0
   29.5846  -20.8736  -16.3069 C   0  0  0  0  0  0  0  0  0  0  0  0
   27.3505  -20.4496  -15.2654 C   0  0  2  0  0  0  0  0  0  0  0  0
   27.0576  -19.5334  -16.3824 N   0  0  0  0  0  0  0  0  0  0  0  0
   26.5837  -19.9503  -14.1036 C   0  0  0  0  0  0  0  0  0  0  0  0
   26.6416  -18.7399  -13.8006 O   0  0  0  0  0  0  0  0  0  0  0  0
   21.2129  -21.8653  -12.0606 N   0  0  0  0  0  0  0  0  0  0  0  0
   21.4958  -20.9095  -11.0501 C   0  0  0  0  0  0  0  0  0  0  0  0
   20.6178  -20.5821  -10.2178 O   0  0  0  0  0  0  0  0  0  0  0  0
   22.8376  -20.3209  -11.0098 C   0  0  0  0  0  0  0  0  0  0  0  0
   23.6602  -20.8671  -12.1618 C   0  0  0  0  0  0  0  0  0  0  0  0
   25.0674  -20.2830  -12.1112 C   0  0  2  0  0  0  0  0  0  0  0  0
   25.7599  -20.7742  -13.2826 N   0  0  0  0  0  0  0  0  0  0  0  0
   25.6929  -20.8260  -10.8562 C   0  0  0  0  0  0  0  0  0  0  0  0
   26.0322  -22.0395  -10.8249 O   0  0  0  0  0  0  0  0  0  0  0  0
   25.9137  -20.0373   -9.7200 N   0  0  0  0  0  0  0  0  0  0  0  0
   26.5311  -20.5376   -8.4891 C   0  0  1  0  0  0  0  0  0  0  0  0
   27.4473  -19.4640   -7.9793 C   0  0  0  0  0  0  0  0  0  0  0  0
   27.9609  -19.7079   -6.6120 C   0  0  0  0  0  0  0  0  0  0  0  0
   27.4566  -18.9830   -5.5558 C   0  0  0  0  0  0  0  0  0  0  0  0
   27.9455  -19.2237   -4.2720 C   0  0  0  0  0  0  0  0  0  0  0  0
   28.9220  -20.1673   -4.0205 C   0  0  0  0  0  0  0  0  0  0  0  0
   29.4200  -20.8873   -5.0852 C   0  0  0  0  0  0  0  0  0  0  0  0
   28.9403  -20.6541   -6.3595 C   0  0  0  0  0  0  0  0  0  0  0  0
   25.4387  -20.8715   -7.5436 C   0  0  0  0  0  0  0  0  0  0  0  0
   24.1322  -20.3943   -7.7331 O   0  0  0  0  0  0  0  0  0  0  0  0
   25.6022  -21.5915   -6.5255 O   0  0  0  0  0  0  0  0  0  0  0  0
  2  1  1  6
  2  4  1  0
  2  3  1  0
  4  5  1  6
  6  4  1  0
  6 14  1  0
  7  6  2  0
  8  9  1  0
  9 11  1  0
  9 10  2  0
 11 12  1  0
 13 12  1  6
 13 14  1  0
 15 13  1  0
 16 15  2  0
 17 15  1  0
 18 17  1  0
 18 26  1  0
 18 19  1  1
 20 25  2  0
 20 19  1  0
 21 20  1  0
 22 23  1  0
 22 21  2  0
 23 24  2  0
 24 25  1  0
 26 27  1  0
 28 26  2  0
M  END
$$$$
