VQF.pdb
     RDKit          3D

 28 28  0  0  1  0  0  0  0  0999 V2000
   25.9982  -16.8593  -15.1502 C   0  0  0  0  0  0  0  0  0  0  0  0
   27.2553  -17.6485  -15.2188 C   0  0  2  0  0  0  0  0  0  0  0  0
   28.4596  -16.7391  -15.2416 C   0  0  0  0  0  0  0  0  0  0  0  0
   27.3088  -18.6841  -16.3133 C   0  0  2  0  0  0  0  0  0  0  0  0
   27.3224  -17.9402  -17.5858 N   0  0  0  0  0  0  0  0  0  0  0  0
   26.1260  -19.5706  -16.3604 C   0  0  0  0  0  0  0  0  0  0  0  0
   25.0858  -19.1810  -16.9317 O   0  0  0  0  0  0  0  0  0  0  0  0
   25.8556  -25.6256  -16.4718 N   0  0  0  0  0  0  0  0  0  0  0  0
   25.8980  -24.7496  -17.5879 C   0  0  0  0  0  0  0  0  0  0  0  0
   26.1970  -25.1805  -18.7261 O   0  0  0  0  0  0  0  0  0  0  0  0
   25.5835  -23.3347  -17.3699 C   0  0  0  0  0  0  0  0  0  0  0  0
   25.2735  -23.1097  -15.9017 C   0  0  0  0  0  0  0  0  0  0  0  0
   24.8745  -21.6555  -15.6774 C   0  0  2  0  0  0  0  0  0  0  0  0
   26.0873  -20.8741  -15.7853 N   0  0  0  0  0  0  0  0  0  0  0  0
   24.3225  -21.5916  -14.2802 C   0  0  0  0  0  0  0  0  0  0  0  0
   25.1187  -21.6995  -13.3091 O   0  0  0  0  0  0  0  0  0  0  0  0
   22.9585  -21.4170  -14.0143 N   0  0  0  0  0  0  0  0  0  0  0  0
   22.4174  -21.1452  -12.6800 C   0  0  1  0  0  0  0  0  0  0  0  0
   22.9659  -19.8210  -12.2357 C   0  0  0  0  0  0  0  0  0  0  0  0
   23.9557  -19.9152  -11.1382 C   0  0  0  0  0  0  0  0  0  0  0  0
   25.2996  -19.9533  -11.4346 C   0  0  0  0  0  0  0  0  0  0  0  0
   26.2226  -20.0386  -10.3926 C   0  0  0  0  0  0  0  0  0  0  0  0
   25.8356  -20.0865   -9.0676 C   0  0  0  0  0  0  0  0  0  0  0  0
   24.4877  -20.0478   -8.7823 C   0  0  0  0  0  0  0  0  0  0  0  0
   23.5679  -19.9633   -9.8095 C   0  0  0  0  0  0  0  0  0  0  0  0
   20.9384  -21.1601  -12.7848 C   0  0  0  0  0  0  0  0  0  0  0  0
   20.1226  -21.2583  -11.6468 O   0  0  0  0  0  0  0  0  0  0  0  0
   20.3226  -21.0871  -13.8790 O   0  0  0  0  0  0  0  0  0  0  0  0
  2  1  1  6
  2  4  1  0
  2  3  1  0
  4  5  1  6
  6  4  1  0
  6 14  1  0
  7  6  2  0
  8  9  1  0
  9 11  1  0
  9 10  2  0
 11 12  1  0
 13 12  1  1
 13 14  1  0
 15 13  1  0
 16 15  2  0
 17 15  1  0
 18 17  1  0
 18 26  1  0
 18 19  1  6
 20 25  2  0
 20 19  1  0
 21 20  1  0
 22 23  1  0
 22 21  2  0
 23 24  2  0
 24 25  1  0
 26 27  1  0
 28 26  2  0
M  END
$$$$
