VQF.pdb
     RDKit          3D

 28 28  0  0  1  0  0  0  0  0999 V2000
   29.2442  -18.2635  -15.8031 C   0  0  0  0  0  0  0  0  0  0  0  0
   28.4962  -18.4707  -14.5361 C   0  0  2  0  0  0  0  0  0  0  0  0
   29.3475  -19.1956  -13.5224 C   0  0  0  0  0  0  0  0  0  0  0  0
   27.1352  -19.1022  -14.6855 C   0  0  2  0  0  0  0  0  0  0  0  0
   26.4107  -18.2919  -15.6813 N   0  0  0  0  0  0  0  0  0  0  0  0
   26.3206  -19.0738  -13.4515 C   0  0  0  0  0  0  0  0  0  0  0  0
   25.9768  -17.9761  -12.9646 O   0  0  0  0  0  0  0  0  0  0  0  0
   21.6214  -22.2358  -12.2149 N   0  0  0  0  0  0  0  0  0  0  0  0
   21.7164  -20.9451  -12.7978 C   0  0  0  0  0  0  0  0  0  0  0  0
   20.7734  -20.4829  -13.4818 O   0  0  0  0  0  0  0  0  0  0  0  0
   22.9433  -20.1742  -12.5768 C   0  0  0  0  0  0  0  0  0  0  0  0
   23.8853  -20.9718  -11.6943 C   0  0  0  0  0  0  0  0  0  0  0  0
   25.1834  -20.1974  -11.4959 C   0  0  2  0  0  0  0  0  0  0  0  0
   25.8870  -20.2419  -12.7593 N   0  0  0  0  0  0  0  0  0  0  0  0
   25.9472  -20.9403  -10.4349 C   0  0  0  0  0  0  0  0  0  0  0  0
   26.6444  -21.9339  -10.7742 O   0  0  0  0  0  0  0  0  0  0  0  0
   25.9148  -20.5724   -9.0838 N   0  0  0  0  0  0  0  0  0  0  0  0
   26.6623  -21.2675   -8.0326 C   0  0  1  0  0  0  0  0  0  0  0  0
   27.9924  -20.5850   -7.9029 C   0  0  0  0  0  0  0  0  0  0  0  0
   28.2915  -20.1007   -6.5358 C   0  0  0  0  0  0  0  0  0  0  0  0
   27.8282  -18.8682   -6.1335 C   0  0  0  0  0  0  0  0  0  0  0  0
   28.1132  -18.4240   -4.8426 C   0  0  0  0  0  0  0  0  0  0  0  0
   28.8469  -19.1791   -3.9488 C   0  0  0  0  0  0  0  0  0  0  0  0
   29.3059  -20.4113   -4.3621 C   0  0  0  0  0  0  0  0  0  0  0  0
   29.0273  -20.8577   -5.6394 C   0  0  0  0  0  0  0  0  0  0  0  0
   25.8514  -21.2085   -6.7926 C   0  0  0  0  0  0  0  0  0  0  0  0
   24.6523  -20.4812   -6.7334 O   0  0  0  0  0  0  0  0  0  0  0  0
   26.1742  -21.7943   -5.7276 O   0  0  0  0  0  0  0  0  0  0  0  0
  2  1  1  6
  2  4  1  0
  2  3  1  0
  4  5  1  6
  6  4  1  0
  6 14  1  0
  7  6  2  0
  8  9  1  0
  9 11  1  0
  9 10  2  0
 11 12  1  0
 13 12  1  6
 13 14  1  0
 15 13  1  0
 16 15  2  0
 17 15  1  0
 18 17  1  0
 18 26  1  0
 18 19  1  1
 20 25  2  0
 20 19  1  0
 21 20  1  0
 22 23  1  0
 22 21  2  0
 23 24  2  0
 24 25  1  0
 26 27  1  0
 28 26  2  0
M  END
$$$$
