VQF.pdb
     RDKit          3D

 28 28  0  0  1  0  0  0  0  0999 V2000
   19.9492  -11.7361  -20.5249 C   0  0  0  0  0  0  0  0  0  0  0  0
   19.5913  -11.8241  -19.0855 C   0  0  2  0  0  0  0  0  0  0  0  0
   18.1532  -11.4229  -18.8643 C   0  0  0  0  0  0  0  0  0  0  0  0
   20.5277  -11.1120  -18.1424 C   0  0  2  0  0  0  0  0  0  0  0  0
   20.0800  -11.4525  -16.7799 N   0  0  0  0  0  0  0  0  0  0  0  0
   20.4754   -9.6374  -18.2428 C   0  0  0  0  0  0  0  0  0  0  0  0
   21.1028   -9.0588  -19.1549 O   0  0  0  0  0  0  0  0  0  0  0  0
   15.8585   -6.4466  -18.9976 N   0  0  0  0  0  0  0  0  0  0  0  0
   16.7453   -5.3479  -18.8519 C   0  0  0  0  0  0  0  0  0  0  0  0
   16.3864   -4.1912  -19.1741 O   0  0  0  0  0  0  0  0  0  0  0  0
   18.0852   -5.6059  -18.3164 C   0  0  0  0  0  0  0  0  0  0  0  0
   18.2441   -7.0922  -18.0560 C   0  0  0  0  0  0  0  0  0  0  0  0
   19.6379   -7.3716  -17.5051 C   0  0  2  0  0  0  0  0  0  0  0  0
   19.7394   -8.8063  -17.3490 N   0  0  0  0  0  0  0  0  0  0  0  0
   19.6968   -6.6851  -16.1686 C   0  0  0  0  0  0  0  0  0  0  0  0
   18.8797   -7.0313  -15.2735 O   0  0  0  0  0  0  0  0  0  0  0  0
   20.6236   -5.6759  -15.8781 N   0  0  0  0  0  0  0  0  0  0  0  0
   20.7383   -5.0283  -14.5688 C   0  0  1  0  0  0  0  0  0  0  0  0
   22.0805   -5.3925  -14.0052 C   0  0  0  0  0  0  0  0  0  0  0  0
   22.2383   -6.8341  -13.7054 C   0  0  0  0  0  0  0  0  0  0  0  0
   22.9486   -7.6358  -14.5703 C   0  0  0  0  0  0  0  0  0  0  0  0
   23.0935   -8.9913  -14.2758 C   0  0  0  0  0  0  0  0  0  0  0  0
   22.5475   -9.5615  -13.1426 C   0  0  0  0  0  0  0  0  0  0  0  0
   21.8383   -8.7497  -12.2836 C   0  0  0  0  0  0  0  0  0  0  0  0
   21.6909   -7.4061  -12.5690 C   0  0  0  0  0  0  0  0  0  0  0  0
   20.5664   -3.5699  -14.7738 C   0  0  0  0  0  0  0  0  0  0  0  0
   20.5215   -2.6765  -13.6920 O   0  0  0  0  0  0  0  0  0  0  0  0
   20.4511   -3.0406  -15.9089 O   0  0  0  0  0  0  0  0  0  0  0  0
  2  1  1  6
  2  4  1  0
  2  3  1  0
  4  5  1  1
  6  4  1  0
  6 14  1  0
  7  6  2  0
  8  9  1  0
  9 11  1  0
  9 10  2  0
 11 12  1  0
 13 12  1  1
 13 14  1  0
 15 13  1  0
 16 15  2  0
 17 15  1  0
 18 17  1  0
 18 26  1  0
 18 19  1  6
 20 25  2  0
 20 19  1  0
 21 20  1  0
 22 23  1  0
 22 21  2  0
 23 24  2  0
 24 25  1  0
 26 27  1  0
 28 26  2  0
M  END
$$$$
