VQF.pdb
     RDKit          3D

 28 28  0  0  1  0  0  0  0  0999 V2000
   21.5856  -29.2070  -15.1124 C   0  0  0  0  0  0  0  0  0  0  0  0
   22.1896  -27.9744  -14.5433 C   0  0  2  0  0  0  0  0  0  0  0  0
   21.1823  -27.2166  -13.7134 C   0  0  0  0  0  0  0  0  0  0  0  0
   22.8904  -27.0812  -15.5355 C   0  0  2  0  0  0  0  0  0  0  0  0
   23.9603  -27.8950  -16.1405 N   0  0  0  0  0  0  0  0  0  0  0  0
   23.5523  -25.9080  -14.9253 C   0  0  0  0  0  0  0  0  0  0  0  0
   24.4349  -26.0796  -14.0582 O   0  0  0  0  0  0  0  0  0  0  0  0
   27.7734  -23.1092  -16.1659 N   0  0  0  0  0  0  0  0  0  0  0  0
   26.7345  -22.7696  -17.0714 C   0  0  0  0  0  0  0  0  0  0  0  0
   27.0003  -22.4172  -18.2444 O   0  0  0  0  0  0  0  0  0  0  0  0
   25.3500  -22.8432  -16.5959 C   0  0  0  0  0  0  0  0  0  0  0  0
   25.3321  -23.4084  -15.1879 C   0  0  0  0  0  0  0  0  0  0  0  0
   23.9031  -23.4211  -14.6570 C   0  0  2  0  0  0  0  0  0  0  0  0
   23.2474  -24.5579  -15.2658 N   0  0  0  0  0  0  0  0  0  0  0  0
   23.2800  -22.1345  -15.1233 C   0  0  0  0  0  0  0  0  0  0  0  0
   22.6606  -22.1246  -16.2209 O   0  0  0  0  0  0  0  0  0  0  0  0
   23.3603  -20.9459  -14.3867 N   0  0  0  0  0  0  0  0  0  0  0  0
   22.7418  -19.6853  -14.8052 C   0  0  1  0  0  0  0  0  0  0  0  0
   22.4896  -18.8772  -13.5662 C   0  0  0  0  0  0  0  0  0  0  0  0
   21.4085  -19.4116  -12.7067 C   0  0  0  0  0  0  0  0  0  0  0  0
   21.7265  -20.1997  -11.6235 C   0  0  0  0  0  0  0  0  0  0  0  0
   20.7001  -20.6945  -10.8192 C   0  0  0  0  0  0  0  0  0  0  0  0
   19.3699  -20.4213  -11.0711 C   0  0  0  0  0  0  0  0  0  0  0  0
   19.0630  -19.6314  -12.1582 C   0  0  0  0  0  0  0  0  0  0  0  0
   20.0746  -19.1379  -12.9591 C   0  0  0  0  0  0  0  0  0  0  0  0
   23.6693  -19.0251  -15.7552 C   0  0  0  0  0  0  0  0  0  0  0  0
   23.2411  -17.9876  -16.5983 O   0  0  0  0  0  0  0  0  0  0  0  0
   24.8810  -19.3415  -15.8705 O   0  0  0  0  0  0  0  0  0  0  0  0
  2  1  1  6
  2  4  1  0
  2  3  1  0
  4  5  1  1
  6  4  1  0
  6 14  1  0
  7  6  2  0
  8  9  1  0
  9 11  1  0
  9 10  2  0
 11 12  1  0
 13 12  1  6
 13 14  1  0
 15 13  1  0
 16 15  2  0
 17 15  1  0
 18 17  1  0
 18 26  1  0
 18 19  1  1
 20 25  2  0
 20 19  1  0
 21 20  1  0
 22 23  1  0
 22 21  2  0
 23 24  2  0
 24 25  1  0
 26 27  1  0
 28 26  2  0
M  END
$$$$
