VQF.pdb
     RDKit          3D

 28 28  0  0  1  0  0  0  0  0999 V2000
   23.4094  -14.4963  -15.7338 C   0  0  0  0  0  0  0  0  0  0  0  0
   24.0603  -15.7374  -15.2398 C   0  0  2  0  0  0  0  0  0  0  0  0
   25.2598  -15.4105  -14.3842 C   0  0  0  0  0  0  0  0  0  0  0  0
   24.3834  -16.7621  -16.2976 C   0  0  2  0  0  0  0  0  0  0  0  0
   23.1203  -17.0369  -17.0062 N   0  0  0  0  0  0  0  0  0  0  0  0
   24.8495  -18.0574  -15.7573 C   0  0  0  0  0  0  0  0  0  0  0  0
   24.0236  -18.8502  -15.2576 O   0  0  0  0  0  0  0  0  0  0  0  0
   28.5409  -21.6485  -17.9197 N   0  0  0  0  0  0  0  0  0  0  0  0
   28.8503  -22.1863  -16.6431 C   0  0  0  0  0  0  0  0  0  0  0  0
   29.3848  -23.3150  -16.5387 O   0  0  0  0  0  0  0  0  0  0  0  0
   28.5277  -21.3862  -15.4581 C   0  0  0  0  0  0  0  0  0  0  0  0
   28.0175  -20.0255  -15.8946 C   0  0  0  0  0  0  0  0  0  0  0  0
   26.6431  -19.7721  -15.2855 C   0  0  2  0  0  0  0  0  0  0  0  0
   26.2113  -18.4779  -15.7669 N   0  0  0  0  0  0  0  0  0  0  0  0
   26.8522  -19.7436  -13.7967 C   0  0  0  0  0  0  0  0  0  0  0  0
   27.2780  -18.6831  -13.2652 O   0  0  0  0  0  0  0  0  0  0  0  0
   26.5929  -20.8489  -12.9764 N   0  0  0  0  0  0  0  0  0  0  0  0
   26.9139  -20.8954  -11.5475 C   0  0  1  0  0  0  0  0  0  0  0  0
   26.0526  -19.8758  -10.8617 C   0  0  0  0  0  0  0  0  0  0  0  0
   26.2048  -19.8495   -9.3889 C   0  0  0  0  0  0  0  0  0  0  0  0
   25.3843  -20.6295   -8.6055 C   0  0  0  0  0  0  0  0  0  0  0  0
   25.5392  -20.5991   -7.2197 C   0  0  0  0  0  0  0  0  0  0  0  0
   26.4903  -19.8111   -6.6018 C   0  0  0  0  0  0  0  0  0  0  0  0
   27.3063  -19.0341   -7.3957 C   0  0  0  0  0  0  0  0  0  0  0  0
   27.1585  -19.0593   -8.7690 C   0  0  0  0  0  0  0  0  0  0  0  0
   26.6676  -22.2801  -11.0779 C   0  0  0  0  0  0  0  0  0  0  0  0
   27.4246  -22.8498  -10.0422 O   0  0  0  0  0  0  0  0  0  0  0  0
   25.7805  -23.0271  -11.5646 O   0  0  0  0  0  0  0  0  0  0  0  0
  2  1  1  6
  2  4  1  0
  2  3  1  0
  4  5  1  1
  6  4  1  0
  6 14  1  0
  7  6  2  0
  8  9  1  0
  9 11  1  0
  9 10  2  0
 11 12  1  0
 13 12  1  6
 13 14  1  0
 15 13  1  0
 16 15  2  0
 17 15  1  0
 18 17  1  0
 18 26  1  0
 18 19  1  1
 20 25  2  0
 20 19  1  0
 21 20  1  0
 22 23  1  0
 22 21  2  0
 23 24  2  0
 24 25  1  0
 26 27  1  0
 28 26  2  0
M  END
$$$$
