VQF.pdb
     RDKit          3D

 28 28  0  0  1  0  0  0  0  0999 V2000
   29.4975  -19.3043  -16.4589 C   0  0  0  0  0  0  0  0  0  0  0  0
   28.8437  -20.5638  -16.8997 C   0  0  2  0  0  0  0  0  0  0  0  0
   29.5342  -21.1297  -18.1165 C   0  0  0  0  0  0  0  0  0  0  0  0
   27.3492  -20.4856  -17.0836 C   0  0  2  0  0  0  0  0  0  0  0  0
   27.1192  -19.5622  -18.2094 N   0  0  0  0  0  0  0  0  0  0  0  0
   26.6297  -19.9170  -15.9234 C   0  0  0  0  0  0  0  0  0  0  0  0
   26.1530  -18.7649  -15.9976 O   0  0  0  0  0  0  0  0  0  0  0  0
   22.3212  -18.6694  -15.3689 N   0  0  0  0  0  0  0  0  0  0  0  0
   22.1511  -18.8846  -13.9763 C   0  0  0  0  0  0  0  0  0  0  0  0
   21.2400  -18.2980  -13.3466 O   0  0  0  0  0  0  0  0  0  0  0  0
   23.0678  -19.8079  -13.3013 C   0  0  0  0  0  0  0  0  0  0  0  0
   24.1081  -20.2964  -14.2919 C   0  0  0  0  0  0  0  0  0  0  0  0
   25.4988  -20.1736  -13.6795 C   0  0  2  0  0  0  0  0  0  0  0  0
   26.4351  -20.6093  -14.6928 N   0  0  0  0  0  0  0  0  0  0  0  0
   25.5139  -21.1098  -12.5030 C   0  0  0  0  0  0  0  0  0  0  0  0
   25.2286  -22.3230  -12.6908 O   0  0  0  0  0  0  0  0  0  0  0  0
   25.8324  -20.6877  -11.2060 N   0  0  0  0  0  0  0  0  0  0  0  0
   25.8323  -21.5732  -10.0386 C   0  0  1  0  0  0  0  0  0  0  0  0
   27.2484  -21.6734   -9.5525 C   0  0  0  0  0  0  0  0  0  0  0  0
   27.6127  -20.6554   -8.5406 C   0  0  0  0  0  0  0  0  0  0  0  0
   28.8358  -20.7269   -7.9126 C   0  0  0  0  0  0  0  0  0  0  0  0
   29.1694  -19.7606   -6.9638 C   0  0  0  0  0  0  0  0  0  0  0  0
   28.3132  -18.7298   -6.6296 C   0  0  0  0  0  0  0  0  0  0  0  0
   27.0913  -18.6679   -7.2644 C   0  0  0  0  0  0  0  0  0  0  0  0
   26.7543  -19.6216   -8.2053 C   0  0  0  0  0  0  0  0  0  0  0  0
   24.9093  -20.9909   -9.0348 C   0  0  0  0  0  0  0  0  0  0  0  0
   24.3438  -19.7179   -9.2085 O   0  0  0  0  0  0  0  0  0  0  0  0
   24.5745  -21.5845   -7.9778 O   0  0  0  0  0  0  0  0  0  0  0  0
  2  1  1  6
  2  4  1  0
  2  3  1  0
  4  5  1  6
  6  4  1  0
  6 14  1  0
  7  6  2  0
  8  9  1  0
  9 11  1  0
  9 10  2  0
 11 12  1  0
 13 12  1  6
 13 14  1  0
 15 13  1  0
 16 15  2  0
 17 15  1  0
 18 17  1  0
 18 26  1  0
 18 19  1  1
 20 25  2  0
 20 19  1  0
 21 20  1  0
 22 23  1  0
 22 21  2  0
 23 24  2  0
 24 25  1  0
 26 27  1  0
 28 26  2  0
M  END
$$$$
