VQF.pdb
     RDKit          3D

 28 28  0  0  1  0  0  0  0  0999 V2000
   24.6721  -12.5537  -21.0428 C   0  0  0  0  0  0  0  0  0  0  0  0
   23.5308  -11.6676  -20.6961 C   0  0  2  0  0  0  0  0  0  0  0  0
   23.3068  -10.6342  -21.7730 C   0  0  0  0  0  0  0  0  0  0  0  0
   23.5879  -11.0486  -19.3225 C   0  0  2  0  0  0  0  0  0  0  0  0
   23.6932  -12.1678  -18.3689 N   0  0  0  0  0  0  0  0  0  0  0  0
   22.3699  -10.2966  -18.9509 C   0  0  0  0  0  0  0  0  0  0  0  0
   22.0784   -9.2508  -19.5685 O   0  0  0  0  0  0  0  0  0  0  0  0
   17.9327  -12.3046  -15.0535 N   0  0  0  0  0  0  0  0  0  0  0  0
   17.3218  -11.1133  -15.5248 C   0  0  0  0  0  0  0  0  0  0  0  0
   16.1533  -10.8168  -15.1822 O   0  0  0  0  0  0  0  0  0  0  0  0
   18.0944  -10.2458  -16.4187 C   0  0  0  0  0  0  0  0  0  0  0  0
   19.4613  -10.8599  -16.6565 C   0  0  0  0  0  0  0  0  0  0  0  0
   20.2757   -9.9603  -17.5794 C   0  0  2  0  0  0  0  0  0  0  0  0
   21.4798  -10.6911  -17.9099 N   0  0  0  0  0  0  0  0  0  0  0  0
   20.6019   -8.7330  -16.7742 C   0  0  0  0  0  0  0  0  0  0  0  0
   19.6695   -7.9395  -16.4752 O   0  0  0  0  0  0  0  0  0  0  0  0
   21.9010   -8.4360  -16.3429 N   0  0  0  0  0  0  0  0  0  0  0  0
   22.2430   -7.2593  -15.5398 C   0  0  1  0  0  0  0  0  0  0  0  0
   23.2624   -7.6898  -14.5262 C   0  0  0  0  0  0  0  0  0  0  0  0
   24.4221   -8.4072  -15.1036 C   0  0  0  0  0  0  0  0  0  0  0  0
   24.5865   -9.7505  -14.8509 C   0  0  0  0  0  0  0  0  0  0  0  0
   25.6806  -10.4164  -15.4029 C   0  0  0  0  0  0  0  0  0  0  0  0
   26.6097   -9.7741  -16.1976 C   0  0  0  0  0  0  0  0  0  0  0  0
   26.4355   -8.4292  -16.4441 C   0  0  0  0  0  0  0  0  0  0  0  0
   25.3540   -7.7633  -15.9006 C   0  0  0  0  0  0  0  0  0  0  0  0
   22.7440   -6.2151  -16.4658 C   0  0  0  0  0  0  0  0  0  0  0  0
   23.0820   -4.9310  -16.0107 O   0  0  0  0  0  0  0  0  0  0  0  0
   22.8984   -6.4025  -17.6998 O   0  0  0  0  0  0  0  0  0  0  0  0
  2  1  1  6
  2  4  1  0
  2  3  1  0
  4  5  1  1
  6  4  1  0
  6 14  1  0
  7  6  2  0
  8  9  1  0
  9 11  1  0
  9 10  2  0
 11 12  1  0
 13 12  1  1
 13 14  1  0
 15 13  1  0
 16 15  2  0
 17 15  1  0
 18 17  1  0
 18 26  1  0
 18 19  1  1
 20 25  2  0
 20 19  1  0
 21 20  1  0
 22 23  1  0
 22 21  2  0
 23 24  2  0
 24 25  1  0
 26 27  1  0
 28 26  2  0
M  END
$$$$
