VQF.pdb
     RDKit          3D

 28 28  0  0  1  0  0  0  0  0999 V2000
   26.5250  -20.4364  -18.0490 C   0  0  0  0  0  0  0  0  0  0  0  0
   27.7619  -19.7727  -17.5616 C   0  0  2  0  0  0  0  0  0  0  0  0
   28.9059  -19.9990  -18.5197 C   0  0  0  0  0  0  0  0  0  0  0  0
   28.1464  -20.0884  -16.1383 C   0  0  2  0  0  0  0  0  0  0  0  0
   28.4384  -21.5328  -16.0998 N   0  0  0  0  0  0  0  0  0  0  0  0
   27.0646  -19.8548  -15.1574 C   0  0  0  0  0  0  0  0  0  0  0  0
   26.7067  -18.6859  -14.9008 O   0  0  0  0  0  0  0  0  0  0  0  0
   21.9011  -22.6959  -14.5782 N   0  0  0  0  0  0  0  0  0  0  0  0
   21.8043  -21.9289  -13.3878 C   0  0  0  0  0  0  0  0  0  0  0  0
   20.7326  -21.8900  -12.7392 O   0  0  0  0  0  0  0  0  0  0  0  0
   22.9885  -21.1884  -12.9431 C   0  0  0  0  0  0  0  0  0  0  0  0
   24.1342  -21.4506  -13.9026 C   0  0  0  0  0  0  0  0  0  0  0  0
   25.3581  -20.6492  -13.4733 C   0  0  2  0  0  0  0  0  0  0  0  0
   26.3815  -20.8969  -14.4654 N   0  0  0  0  0  0  0  0  0  0  0  0
   25.7659  -21.2059  -12.1373 C   0  0  0  0  0  0  0  0  0  0  0  0
   26.6654  -22.0878  -12.0978 O   0  0  0  0  0  0  0  0  0  0  0  0
   25.1860  -20.7837  -10.9343 N   0  0  0  0  0  0  0  0  0  0  0  0
   25.8039  -20.9785   -9.6202 C   0  0  1  0  0  0  0  0  0  0  0  0
   27.0868  -20.2002   -9.6088 C   0  0  0  0  0  0  0  0  0  0  0  0
   27.7073  -20.0786   -8.2697 C   0  0  0  0  0  0  0  0  0  0  0  0
   28.7195  -20.9387   -7.9076 C   0  0  0  0  0  0  0  0  0  0  0  0
   29.2986  -20.8125   -6.6452 C   0  0  0  0  0  0  0  0  0  0  0  0
   28.8916  -19.8515   -5.7406 C   0  0  0  0  0  0  0  0  0  0  0  0
   27.8774  -18.9958   -6.1134 C   0  0  0  0  0  0  0  0  0  0  0  0
   27.2993  -19.1151   -7.3624 C   0  0  0  0  0  0  0  0  0  0  0  0
   24.8334  -20.5211   -8.5966 C   0  0  0  0  0  0  0  0  0  0  0  0
   23.8217  -19.5981   -8.9046 O   0  0  0  0  0  0  0  0  0  0  0  0
   24.8479  -20.9199   -7.4039 O   0  0  0  0  0  0  0  0  0  0  0  0
  2  1  1  6
  2  4  1  0
  2  3  1  0
  4  5  1  6
  6  4  1  0
  6 14  1  0
  7  6  2  0
  8  9  1  0
  9 11  1  0
  9 10  2  0
 11 12  1  0
 13 12  1  6
 13 14  1  0
 15 13  1  0
 16 15  2  0
 17 15  1  0
 18 17  1  0
 18 26  1  0
 18 19  1  6
 20 25  2  0
 20 19  1  0
 21 20  1  0
 22 23  1  0
 22 21  2  0
 23 24  2  0
 24 25  1  0
 26 27  1  0
 28 26  2  0
M  END
$$$$
