VQF.pdb
     RDKit          3D

 28 28  0  0  1  0  0  0  0  0999 V2000
   23.2882  -20.3013  -15.5474 C   0  0  0  0  0  0  0  0  0  0  0  0
   22.3877  -20.4690  -14.3774 C   0  0  2  0  0  0  0  0  0  0  0  0
   21.1262  -19.6589  -14.5504 C   0  0  0  0  0  0  0  0  0  0  0  0
   23.0274  -20.2377  -13.0318 C   0  0  2  0  0  0  0  0  0  0  0  0
   23.2965  -18.7910  -12.9453 N   0  0  0  0  0  0  0  0  0  0  0  0
   24.3305  -20.9158  -12.8611 C   0  0  0  0  0  0  0  0  0  0  0  0
   24.3816  -22.1639  -12.8663 O   0  0  0  0  0  0  0  0  0  0  0  0
   26.8364  -21.1856  -16.1534 N   0  0  0  0  0  0  0  0  0  0  0  0
   27.8755  -20.8618  -15.2423 C   0  0  0  0  0  0  0  0  0  0  0  0
   28.8519  -21.6321  -15.0881 O   0  0  0  0  0  0  0  0  0  0  0  0
   27.7724  -19.6068  -14.4921 C   0  0  0  0  0  0  0  0  0  0  0  0
   27.9034  -19.8966  -13.0084 C   0  0  0  0  0  0  0  0  0  0  0  0
   26.8412  -20.9052  -12.5857 C   0  0  2  0  0  0  0  0  0  0  0  0
   25.5667  -20.2281  -12.6869 N   0  0  0  0  0  0  0  0  0  0  0  0
   27.1486  -21.2503  -11.1548 C   0  0  0  0  0  0  0  0  0  0  0  0
   27.8726  -22.2540  -10.9161 O   0  0  0  0  0  0  0  0  0  0  0  0
   26.6623  -20.5010  -10.0760 N   0  0  0  0  0  0  0  0  0  0  0  0
   26.9811  -20.7892   -8.6752 C   0  0  1  0  0  0  0  0  0  0  0  0
   28.0492  -19.8242   -8.2514 C   0  0  0  0  0  0  0  0  0  0  0  0
   28.3395  -19.8446   -6.7994 C   0  0  0  0  0  0  0  0  0  0  0  0
   27.5957  -19.0620   -5.9452 C   0  0  0  0  0  0  0  0  0  0  0  0
   27.8759  -19.0921   -4.5793 C   0  0  0  0  0  0  0  0  0  0  0  0
   28.8774  -19.8821   -4.0498 C   0  0  0  0  0  0  0  0  0  0  0  0
   29.6159  -20.6615   -4.9141 C   0  0  0  0  0  0  0  0  0  0  0  0
   29.3438  -20.6367   -6.2682 C   0  0  0  0  0  0  0  0  0  0  0  0
   25.7281  -20.6548   -7.8939 C   0  0  0  0  0  0  0  0  0  0  0  0
   24.5912  -20.0307   -8.4310 O   0  0  0  0  0  0  0  0  0  0  0  0
   25.5978  -21.0819   -6.7181 O   0  0  0  0  0  0  0  0  0  0  0  0
  2  1  1  6
  2  4  1  0
  2  3  1  0
  4  5  1  6
  6  4  1  0
  6 14  1  0
  7  6  2  0
  8  9  1  0
  9 11  1  0
  9 10  2  0
 11 12  1  0
 13 12  1  1
 13 14  1  0
 15 13  1  0
 16 15  2  0
 17 15  1  0
 18 17  1  0
 18 26  1  0
 18 19  1  1
 20 25  2  0
 20 19  1  0
 21 20  1  0
 22 23  1  0
 22 21  2  0
 23 24  2  0
 24 25  1  0
 26 27  1  0
 28 26  2  0
M  END
$$$$
