VQF.pdb
     RDKit          3D

 28 28  0  0  1  0  0  0  0  0999 V2000
   23.0400  -22.5941  -15.3675 C   0  0  0  0  0  0  0  0  0  0  0  0
   24.1431  -23.2111  -16.1489 C   0  0  2  0  0  0  0  0  0  0  0  0
   23.6418  -24.3900  -16.9468 C   0  0  0  0  0  0  0  0  0  0  0  0
   25.3828  -23.5491  -15.3601 C   0  0  2  0  0  0  0  0  0  0  0  0
   24.9673  -24.5235  -14.3349 N   0  0  0  0  0  0  0  0  0  0  0  0
   25.9646  -22.4003  -14.6330 C   0  0  0  0  0  0  0  0  0  0  0  0
   26.6332  -21.5499  -15.2574 O   0  0  0  0  0  0  0  0  0  0  0  0
   23.3382  -19.0577  -14.3449 N   0  0  0  0  0  0  0  0  0  0  0  0
   22.9422  -19.7061  -13.1460 C   0  0  0  0  0  0  0  0  0  0  0  0
   21.7284  -19.8377  -12.8627 O   0  0  0  0  0  0  0  0  0  0  0  0
   23.9894  -20.2139  -12.2550 C   0  0  0  0  0  0  0  0  0  0  0  0
   25.3499  -19.8840  -12.8401 C   0  0  0  0  0  0  0  0  0  0  0  0
   26.3241  -21.0199  -12.5486 C   0  0  2  0  0  0  0  0  0  0  0  0
   25.8119  -22.1877  -13.2319 N   0  0  0  0  0  0  0  0  0  0  0  0
   26.2906  -21.2176  -11.0583 C   0  0  0  0  0  0  0  0  0  0  0  0
   25.2080  -21.5713  -10.5186 O   0  0  0  0  0  0  0  0  0  0  0  0
   27.4148  -21.0246  -10.2454 N   0  0  0  0  0  0  0  0  0  0  0  0
   27.3632  -20.9811   -8.7817 C   0  0  1  0  0  0  0  0  0  0  0  0
   28.6122  -20.2961   -8.3099 C   0  0  0  0  0  0  0  0  0  0  0  0
   28.6612  -20.0708   -6.8471 C   0  0  0  0  0  0  0  0  0  0  0  0
   27.7096  -19.2764   -6.2482 C   0  0  0  0  0  0  0  0  0  0  0  0
   27.7638  -19.0742   -4.8693 C   0  0  0  0  0  0  0  0  0  0  0  0
   28.7422  -19.6446   -4.0789 C   0  0  0  0  0  0  0  0  0  0  0  0
   29.6900  -20.4381   -4.6889 C   0  0  0  0  0  0  0  0  0  0  0  0
   29.6423  -20.6427   -6.0543 C   0  0  0  0  0  0  0  0  0  0  0  0
   26.1229  -20.2648   -8.3983 C   0  0  0  0  0  0  0  0  0  0  0  0
   25.2396  -20.7870   -7.4405 O   0  0  0  0  0  0  0  0  0  0  0  0
   25.7814  -19.1606   -8.8942 O   0  0  0  0  0  0  0  0  0  0  0  0
  2  1  1  1
  2  4  1  0
  2  3  1  0
  4  5  1  1
  6  4  1  0
  6 14  1  0
  7  6  2  0
  8  9  1  0
  9 11  1  0
  9 10  2  0
 11 12  1  0
 13 12  1  1
 13 14  1  0
 15 13  1  0
 16 15  2  0
 17 15  1  0
 18 17  1  0
 18 26  1  0
 18 19  1  6
 20 25  2  0
 20 19  1  0
 21 20  1  0
 22 23  1  0
 22 21  2  0
 23 24  2  0
 24 25  1  0
 26 27  1  0
 28 26  2  0
M  END
$$$$
