VQF.pdb
     RDKit          3D

 28 28  0  0  1  0  0  0  0  0999 V2000
   22.6355  -16.2555  -15.4306 C   0  0  0  0  0  0  0  0  0  0  0  0
   24.0661  -15.8583  -15.3714 C   0  0  2  0  0  0  0  0  0  0  0  0
   24.2602  -14.4668  -15.9224 C   0  0  0  0  0  0  0  0  0  0  0  0
   25.0354  -16.8442  -15.9729 C   0  0  2  0  0  0  0  0  0  0  0  0
   24.7748  -16.8473  -17.4238 N   0  0  0  0  0  0  0  0  0  0  0  0
   24.8420  -18.2357  -15.5109 C   0  0  0  0  0  0  0  0  0  0  0  0
   24.1733  -19.0290  -16.2063 O   0  0  0  0  0  0  0  0  0  0  0  0
   28.4791  -21.7610  -16.4573 N   0  0  0  0  0  0  0  0  0  0  0  0
   27.7973  -22.6935  -15.6326 C   0  0  0  0  0  0  0  0  0  0  0  0
   28.1162  -23.9055  -15.6411 O   0  0  0  0  0  0  0  0  0  0  0  0
   26.7156  -22.1988  -14.7759 C   0  0  0  0  0  0  0  0  0  0  0  0
   26.6118  -20.6918  -14.9182 C   0  0  0  0  0  0  0  0  0  0  0  0
   25.4980  -20.1660  -14.0198 C   0  0  2  0  0  0  0  0  0  0  0  0
   25.3797  -18.7507  -14.2955 N   0  0  0  0  0  0  0  0  0  0  0  0
   25.9646  -20.3964  -12.6091 C   0  0  0  0  0  0  0  0  0  0  0  0
   27.1290  -20.0349  -12.2898 O   0  0  0  0  0  0  0  0  0  0  0  0
   25.1569  -20.9970  -11.6350 N   0  0  0  0  0  0  0  0  0  0  0  0
   25.4985  -21.0454  -10.2110 C   0  0  1  0  0  0  0  0  0  0  0  0
   25.7330  -19.6340   -9.7585 C   0  0  0  0  0  0  0  0  0  0  0  0
   26.5604  -19.5218   -8.5355 C   0  0  0  0  0  0  0  0  0  0  0  0
   26.2415  -20.2724   -7.4264 C   0  0  0  0  0  0  0  0  0  0  0  0
   27.0300  -20.1610   -6.2814 C   0  0  0  0  0  0  0  0  0  0  0  0
   28.1244  -19.3209   -6.2194 C   0  0  0  0  0  0  0  0  0  0  0  0
   28.4346  -18.5739   -7.3355 C   0  0  0  0  0  0  0  0  0  0  0  0
   27.6579  -18.6793   -8.4731 C   0  0  0  0  0  0  0  0  0  0  0  0
   24.3761  -21.7074   -9.5034 C   0  0  0  0  0  0  0  0  0  0  0  0
   24.5549  -22.3176   -8.2520 O   0  0  0  0  0  0  0  0  0  0  0  0
   23.2079  -21.7678   -9.9652 O   0  0  0  0  0  0  0  0  0  0  0  0
  2  1  1  6
  2  4  1  0
  2  3  1  0
  4  5  1  6
  6  4  1  0
  6 14  1  0
  7  6  2  0
  8  9  1  0
  9 11  1  0
  9 10  2  0
 11 12  1  0
 13 12  1  6
 13 14  1  0
 15 13  1  0
 16 15  2  0
 17 15  1  0
 18 17  1  0
 18 26  1  0
 18 19  1  1
 20 25  2  0
 20 19  1  0
 21 20  1  0
 22 23  1  0
 22 21  2  0
 23 24  2  0
 24 25  1  0
 26 27  1  0
 28 26  2  0
M  END
$$$$
