TAM.pdb
     RDKit          3D

 21 20  0  0  1  0  0  0  0  0999 V2000
    9.8145  -12.7512   20.0629 C   0  0  0  0  0  0  0  0  0  0  0  0
    8.6274  -12.8322   19.1271 C   0  0  1  0  0  0  0  0  0  0  0  0
    8.8684  -12.1680   17.9250 O   0  0  0  0  0  0  0  0  0  0  0  0
    8.3489  -14.2973   18.8722 C   0  0  2  0  0  0  0  0  0  0  0  0
    7.2756  -14.3834   17.9005 N   0  0  0  0  0  0  0  0  0  0  0  0
    7.9300  -15.0198   20.0934 C   0  0  0  0  0  0  0  0  0  0  0  0
    6.7724  -14.8709   20.5602 O   0  0  0  0  0  0  0  0  0  0  0  0
    8.8020  -18.1012   21.8418 C   0  0  0  0  0  0  0  0  0  0  0  0
    8.4486  -16.6120   21.9636 C   0  0  2  0  0  0  0  0  0  0  0  0
    8.8357  -15.9001   20.7636 N   0  0  0  0  0  0  0  0  0  0  0  0
    9.1917  -16.1191   23.1519 C   0  0  0  0  0  0  0  0  0  0  0  0
   10.3785  -15.7464   22.9739 O   0  0  0  0  0  0  0  0  0  0  0  0
    5.2222  -12.0890   26.7117 C   0  0  0  0  0  0  0  0  0  0  0  0
    7.0113  -12.4004   26.7987 S   0  0  0  0  0  0  0  0  0  0  0  0
    7.4685  -13.8750   25.8937 C   0  0  0  0  0  0  0  0  0  0  0  0
    8.9578  -14.0542   25.8248 C   0  0  0  0  0  0  0  0  0  0  0  0
    9.3577  -15.4802   25.6054 C   0  0  2  0  0  0  0  0  0  0  0  0
    8.6540  -16.0460   24.4431 N   0  0  0  0  0  0  0  0  0  0  0  0
    9.0356  -16.3684   26.7388 C   0  0  0  0  0  0  0  0  0  0  0  0
    9.6766  -16.2956   27.9660 O   0  0  0  0  0  0  0  0  0  0  0  0
    8.1422  -17.2447   26.6210 O   0  0  0  0  0  0  0  0  0  0  0  0
  2  1  1  1
  3  2  1  0
  4  2  1  0
  4  5  1  6
  6  4  1  0
  6 10  1  0
  7  6  2  0
  9  8  1  6
  9 10  1  0
  9 11  1  0
 11 18  1  0
 12 11  2  0
 14 13  1  0
 15 14  1  0
 16 15  1  0
 17 19  1  0
 17 16  1  1
 18 17  1  0
 19 20  1  0
 21 19  2  0
M  END
$$$$
