TAM.pdb
     RDKit          3D

 21 20  0  0  1  0  0  0  0  0999 V2000
    6.2153  -18.2210   24.4882 C   0  0  0  0  0  0  0  0  0  0  0  0
    6.5042  -19.3076   23.4747 C   0  0  1  0  0  0  0  0  0  0  0  0
    5.7427  -20.4516   23.7096 O   0  0  0  0  0  0  0  0  0  0  0  0
    6.1979  -18.7437   22.1044 C   0  0  2  0  0  0  0  0  0  0  0  0
    6.2773  -19.8313   21.1482 N   0  0  0  0  0  0  0  0  0  0  0  0
    7.1537  -17.6919   21.6932 C   0  0  0  0  0  0  0  0  0  0  0  0
    8.3281  -17.9893   21.3578 O   0  0  0  0  0  0  0  0  0  0  0  0
    6.9458  -13.9401   21.1076 C   0  0  0  0  0  0  0  0  0  0  0  0
    7.6875  -15.2691   21.3097 C   0  0  2  0  0  0  0  0  0  0  0  0
    6.7570  -16.3184   21.6703 N   0  0  0  0  0  0  0  0  0  0  0  0
    8.6716  -15.0187   22.3941 C   0  0  0  0  0  0  0  0  0  0  0  0
    9.7046  -14.3690   22.0942 O   0  0  0  0  0  0  0  0  0  0  0  0
    5.8637  -11.9573   27.3114 C   0  0  0  0  0  0  0  0  0  0  0  0
    7.6087  -12.2187   26.8731 S   0  0  0  0  0  0  0  0  0  0  0  0
    7.8389  -13.7428   25.9640 C   0  0  0  0  0  0  0  0  0  0  0  0
    9.2363  -13.8745   25.4304 C   0  0  0  0  0  0  0  0  0  0  0  0
    9.4874  -15.2057   24.7930 C   0  0  2  0  0  0  0  0  0  0  0  0
    8.5179  -15.4586   23.7149 N   0  0  0  0  0  0  0  0  0  0  0  0
    9.3563  -16.3436   25.7233 C   0  0  0  0  0  0  0  0  0  0  0  0
    8.4437  -17.3714   25.5412 O   0  0  0  0  0  0  0  0  0  0  0  0
   10.0915  -16.4165   26.7402 O   0  0  0  0  0  0  0  0  0  0  0  0
  2  1  1  1
  3  2  1  0
  4  2  1  0
  4  5  1  6
  6  4  1  0
  6 10  1  0
  7  6  2  0
  9  8  1  1
  9 10  1  0
  9 11  1  0
 11 18  1  0
 12 11  2  0
 14 13  1  0
 15 14  1  0
 16 15  1  0
 17 19  1  0
 17 16  1  1
 18 17  1  0
 19 20  1  0
 21 19  2  0
M  END
$$$$
