TAM.pdb
     RDKit          3D

 21 20  0  0  1  0  0  0  0  0999 V2000
   10.4694  -13.2612   19.8353 C   0  0  0  0  0  0  0  0  0  0  0  0
    9.2470  -12.8806   19.0277 C   0  0  1  0  0  0  0  0  0  0  0  0
    9.5881  -12.1957   17.8621 O   0  0  0  0  0  0  0  0  0  0  0  0
    8.5094  -14.1580   18.6907 C   0  0  2  0  0  0  0  0  0  0  0  0
    7.3027  -13.7979   17.9710 N   0  0  0  0  0  0  0  0  0  0  0  0
    8.1217  -14.9276   19.8932 C   0  0  0  0  0  0  0  0  0  0  0  0
    7.1680  -14.5461   20.6180 O   0  0  0  0  0  0  0  0  0  0  0  0
    9.2975  -18.1628   21.5206 C   0  0  0  0  0  0  0  0  0  0  0  0
    8.5242  -16.8373   21.4723 C   0  0  2  0  0  0  0  0  0  0  0  0
    8.8259  -16.1194   20.2515 N   0  0  0  0  0  0  0  0  0  0  0  0
    8.9575  -16.0758   22.6721 C   0  0  0  0  0  0  0  0  0  0  0  0
   10.0599  -15.4764   22.6054 O   0  0  0  0  0  0  0  0  0  0  0  0
    6.2512  -10.9864   27.9115 C   0  0  0  0  0  0  0  0  0  0  0  0
    6.0176  -12.1414   26.5269 S   0  0  0  0  0  0  0  0  0  0  0  0
    7.4290  -13.2230   26.3255 C   0  0  0  0  0  0  0  0  0  0  0  0
    7.2713  -14.1409   25.1476 C   0  0  0  0  0  0  0  0  0  0  0  0
    8.4733  -15.0053   24.9249 C   0  0  2  0  0  0  0  0  0  0  0  0
    8.2186  -15.9875   23.8587 N   0  0  0  0  0  0  0  0  0  0  0  0
    8.8655  -15.7936   26.1090 C   0  0  0  0  0  0  0  0  0  0  0  0
    8.4500  -17.0988   26.3233 O   0  0  0  0  0  0  0  0  0  0  0  0
    9.6113  -15.2885   26.9857 O   0  0  0  0  0  0  0  0  0  0  0  0
  2  1  1  6
  3  2  1  0
  4  2  1  0
  4  5  1  1
  6  4  1  0
  6 10  1  0
  7  6  2  0
  9  8  1  6
  9 10  1  0
  9 11  1  0
 11 18  1  0
 12 11  2  0
 14 13  1  0
 15 14  1  0
 16 15  1  0
 17 19  1  0
 17 16  1  1
 18 17  1  0
 19 20  1  0
 21 19  2  0
M  END
$$$$
