TAM.pdb
     RDKit          3D

 21 20  0  0  1  0  0  0  0  0999 V2000
    5.0219  -19.3454   21.5116 C   0  0  0  0  0  0  0  0  0  0  0  0
    6.1782  -18.3975   21.7478 C   0  0  1  0  0  0  0  0  0  0  0  0
    7.3014  -19.0618   22.2388 O   0  0  0  0  0  0  0  0  0  0  0  0
    6.4964  -17.7311   20.4272 C   0  0  2  0  0  0  0  0  0  0  0  0
    6.9691  -18.7549   19.5151 N   0  0  0  0  0  0  0  0  0  0  0  0
    7.5459  -16.6954   20.5486 C   0  0  0  0  0  0  0  0  0  0  0  0
    8.7621  -17.0042   20.4737 O   0  0  0  0  0  0  0  0  0  0  0  0
    7.5577  -12.9044   20.8878 C   0  0  0  0  0  0  0  0  0  0  0  0
    8.2050  -14.2966   20.8850 C   0  0  2  0  0  0  0  0  0  0  0  0
    7.1939  -15.3248   20.7533 N   0  0  0  0  0  0  0  0  0  0  0  0
    8.9266  -14.4063   22.1790 C   0  0  0  0  0  0  0  0  0  0  0  0
   10.0134  -13.7845   22.2857 O   0  0  0  0  0  0  0  0  0  0  0  0
    5.2915  -12.0872   26.9209 C   0  0  0  0  0  0  0  0  0  0  0  0
    7.0714  -12.4152   26.7478 S   0  0  0  0  0  0  0  0  0  0  0  0
    7.3871  -13.7478   25.5959 C   0  0  0  0  0  0  0  0  0  0  0  0
    8.8564  -13.9629   25.3728 C   0  0  0  0  0  0  0  0  0  0  0  0
    9.1446  -15.2013   24.5823 C   0  0  2  0  0  0  0  0  0  0  0  0
    8.4726  -15.1526   23.2738 N   0  0  0  0  0  0  0  0  0  0  0  0
    8.6726  -16.4413   25.2281 C   0  0  0  0  0  0  0  0  0  0  0  0
    9.2019  -16.9285   26.4132 O   0  0  0  0  0  0  0  0  0  0  0  0
    7.7476  -17.1132   24.7058 O   0  0  0  0  0  0  0  0  0  0  0  0
  2  1  1  6
  3  2  1  0
  4  2  1  0
  4  5  1  6
  6  4  1  0
  6 10  1  0
  7  6  2  0
  9  8  1  1
  9 10  1  0
  9 11  1  0
 11 18  1  0
 12 11  2  0
 14 13  1  0
 15 14  1  0
 16 15  1  0
 17 19  1  0
 17 16  1  1
 18 17  1  0
 19 20  1  0
 21 19  2  0
M  END
$$$$
