TAM.pdb
     RDKit          3D

 21 20  0  0  1  0  0  0  0  0999 V2000
    9.4394  -12.9723   20.6987 C   0  0  0  0  0  0  0  0  0  0  0  0
    8.0710  -13.2305   20.1054 C   0  0  1  0  0  0  0  0  0  0  0  0
    7.9712  -12.7462   18.8017 O   0  0  0  0  0  0  0  0  0  0  0  0
    7.8396  -14.7255   20.1306 C   0  0  2  0  0  0  0  0  0  0  0  0
    6.5600  -14.9881   19.5004 N   0  0  0  0  0  0  0  0  0  0  0  0
    7.8033  -15.2746   21.5040 C   0  0  0  0  0  0  0  0  0  0  0  0
    6.8380  -15.0230   22.2690 O   0  0  0  0  0  0  0  0  0  0  0  0
    9.6436  -17.9915   23.3377 C   0  0  0  0  0  0  0  0  0  0  0  0
    8.8260  -16.6923   23.3057 C   0  0  2  0  0  0  0  0  0  0  0  0
    8.8665  -16.1012   21.9844 N   0  0  0  0  0  0  0  0  0  0  0  0
    9.4479  -15.8016   24.3191 C   0  0  0  0  0  0  0  0  0  0  0  0
   10.5241  -15.2349   24.0034 O   0  0  0  0  0  0  0  0  0  0  0  0
    5.6441  -10.9194   25.6025 C   0  0  0  0  0  0  0  0  0  0  0  0
    6.4827  -11.9255   26.8634 S   0  0  0  0  0  0  0  0  0  0  0  0
    7.7445  -12.9693   26.1418 C   0  0  0  0  0  0  0  0  0  0  0  0
    8.4879  -13.7557   27.1829 C   0  0  0  0  0  0  0  0  0  0  0  0
    9.5182  -14.6666   26.5912 C   0  0  2  0  0  0  0  0  0  0  0  0
    8.9118  -15.5591   25.5901 N   0  0  0  0  0  0  0  0  0  0  0  0
   10.1639  -15.5533   27.5781 C   0  0  0  0  0  0  0  0  0  0  0  0
   11.1079  -15.1113   28.4922 O   0  0  0  0  0  0  0  0  0  0  0  0
    9.8674  -16.7741   27.6201 O   0  0  0  0  0  0  0  0  0  0  0  0
  2  1  1  6
  3  2  1  0
  4  2  1  0
  4  5  1  1
  6  4  1  0
  6 10  1  0
  7  6  2  0
  9  8  1  6
  9 10  1  0
  9 11  1  0
 11 18  1  0
 12 11  2  0
 14 13  1  0
 15 14  1  0
 16 15  1  0
 17 19  1  0
 17 16  1  1
 18 17  1  0
 19 20  1  0
 21 19  2  0
M  END
$$$$
