TAM.pdb
     RDKit          3D

 21 20  0  0  1  0  0  0  0  0999 V2000
    8.5240  -18.8956   23.1405 C   0  0  0  0  0  0  0  0  0  0  0  0
    9.4080  -19.2512   21.9642 C   0  0  1  0  0  0  0  0  0  0  0  0
    9.4702  -20.6291   21.7603 O   0  0  0  0  0  0  0  0  0  0  0  0
    8.8376  -18.5637   20.7430 C   0  0  2  0  0  0  0  0  0  0  0  0
    9.5428  -19.0665   19.5797 N   0  0  0  0  0  0  0  0  0  0  0  0
    9.0008  -17.0939   20.7869 C   0  0  0  0  0  0  0  0  0  0  0  0
   10.1455  -16.5754   20.7551 O   0  0  0  0  0  0  0  0  0  0  0  0
    6.6225  -14.1236   20.9717 C   0  0  0  0  0  0  0  0  0  0  0  0
    7.9969  -14.8056   21.0275 C   0  0  2  0  0  0  0  0  0  0  0  0
    7.8582  -16.2380   20.8662 N   0  0  0  0  0  0  0  0  0  0  0  0
    8.5626  -14.4604   22.3572 C   0  0  0  0  0  0  0  0  0  0  0  0
    9.0052  -13.2941   22.5084 O   0  0  0  0  0  0  0  0  0  0  0  0
    7.3798  -10.9985   27.3363 C   0  0  0  0  0  0  0  0  0  0  0  0
    6.2833  -12.3343   26.7718 S   0  0  0  0  0  0  0  0  0  0  0  0
    7.1614  -13.8855   26.6135 C   0  0  0  0  0  0  0  0  0  0  0  0
    7.2509  -14.3385   25.1847 C   0  0  0  0  0  0  0  0  0  0  0  0
    8.5814  -14.9394   24.8523 C   0  0  2  0  0  0  0  0  0  0  0  0
    8.6306  -15.3474   23.4390 N   0  0  0  0  0  0  0  0  0  0  0  0
    8.8956  -16.1534   25.6299 C   0  0  0  0  0  0  0  0  0  0  0  0
    9.1818  -17.3769   25.0440 O   0  0  0  0  0  0  0  0  0  0  0  0
    8.9135  -16.1124   26.8861 O   0  0  0  0  0  0  0  0  0  0  0  0
  2  1  1  1
  3  2  1  0
  4  2  1  0
  4  5  1  6
  6  4  1  0
  6 10  1  0
  7  6  2  0
  9  8  1  1
  9 10  1  0
  9 11  1  0
 11 18  1  0
 12 11  2  0
 14 13  1  0
 15 14  1  0
 16 15  1  0
 17 19  1  0
 17 16  1  1
 18 17  1  0
 19 20  1  0
 21 19  2  0
M  END
$$$$
