TAM.pdb
     RDKit          3D

 21 20  0  0  1  0  0  0  0  0999 V2000
    7.8895  -19.3069   18.4809 C   0  0  0  0  0  0  0  0  0  0  0  0
    6.7112  -18.4723   18.9354 C   0  0  1  0  0  0  0  0  0  0  0  0
    5.5173  -19.1909   18.8870 O   0  0  0  0  0  0  0  0  0  0  0  0
    6.9952  -18.0181   20.3504 C   0  0  2  0  0  0  0  0  0  0  0  0
    5.7361  -17.6210   20.9509 N   0  0  0  0  0  0  0  0  0  0  0  0
    7.9208  -16.8653   20.4051 C   0  0  0  0  0  0  0  0  0  0  0  0
    9.1426  -17.0122   20.1486 O   0  0  0  0  0  0  0  0  0  0  0  0
    7.5840  -13.1219   20.5895 C   0  0  0  0  0  0  0  0  0  0  0  0
    8.3373  -14.4320   20.8608 C   0  0  2  0  0  0  0  0  0  0  0  0
    7.4406  -15.5636   20.7510 N   0  0  0  0  0  0  0  0  0  0  0  0
    8.8843  -14.3031   22.2360 C   0  0  0  0  0  0  0  0  0  0  0  0
    9.7664  -13.4281   22.4242 O   0  0  0  0  0  0  0  0  0  0  0  0
    5.9220  -10.9674   26.8267 C   0  0  0  0  0  0  0  0  0  0  0  0
    6.2371  -12.7565   26.7543 S   0  0  0  0  0  0  0  0  0  0  0  0
    7.5832  -13.1442   25.6407 C   0  0  0  0  0  0  0  0  0  0  0  0
    7.9181  -14.6080   25.6504 C   0  0  0  0  0  0  0  0  0  0  0  0
    9.0110  -14.9562   24.6881 C   0  0  2  0  0  0  0  0  0  0  0  0
    8.4797  -15.0896   23.3220 N   0  0  0  0  0  0  0  0  0  0  0  0
    9.6771  -16.2390   24.9849 C   0  0  0  0  0  0  0  0  0  0  0  0
    9.6770  -17.3143   24.1098 O   0  0  0  0  0  0  0  0  0  0  0  0
   10.2832  -16.3992   26.0743 O   0  0  0  0  0  0  0  0  0  0  0  0
  2  1  1  1
  3  2  1  0
  4  2  1  0
  4  5  1  6
  6  4  1  0
  6 10  1  0
  7  6  2  0
  9  8  1  1
  9 10  1  0
  9 11  1  0
 11 18  1  0
 12 11  2  0
 14 13  1  0
 15 14  1  0
 16 15  1  0
 17 19  1  0
 17 16  1  1
 18 17  1  0
 19 20  1  0
 21 19  2  0
M  END
$$$$
