TAM.pdb
     RDKit          3D

 21 20  0  0  1  0  0  0  0  0999 V2000
    9.6838  -12.6188   20.2373 C   0  0  0  0  0  0  0  0  0  0  0  0
    8.6902  -12.9321   19.1391 C   0  0  1  0  0  0  0  0  0  0  0  0
    8.9330  -12.1806   17.9901 O   0  0  0  0  0  0  0  0  0  0  0  0
    8.8009  -14.4100   18.8345 C   0  0  2  0  0  0  0  0  0  0  0  0
    7.8941  -14.7080   17.7425 N   0  0  0  0  0  0  0  0  0  0  0  0
    8.4345  -15.2600   19.9886 C   0  0  0  0  0  0  0  0  0  0  0  0
    7.2685  -15.2351   20.4578 O   0  0  0  0  0  0  0  0  0  0  0  0
   10.1236  -17.9684   22.0352 C   0  0  0  0  0  0  0  0  0  0  0  0
    9.1256  -16.8197   21.8303 C   0  0  2  0  0  0  0  0  0  0  0  0
    9.4014  -16.1246   20.5903 N   0  0  0  0  0  0  0  0  0  0  0  0
    9.2961  -15.9256   23.0045 C   0  0  0  0  0  0  0  0  0  0  0  0
   10.3009  -15.1711   23.0114 O   0  0  0  0  0  0  0  0  0  0  0  0
    6.4036  -10.5985   26.3286 C   0  0  0  0  0  0  0  0  0  0  0  0
    6.0758  -12.2679   26.9698 S   0  0  0  0  0  0  0  0  0  0  0  0
    7.4889  -13.3450   26.7571 C   0  0  0  0  0  0  0  0  0  0  0  0
    7.3900  -14.1623   25.5013 C   0  0  0  0  0  0  0  0  0  0  0  0
    8.5984  -15.0159   25.2719 C   0  0  2  0  0  0  0  0  0  0  0  0
    8.4135  -15.8745   24.0908 N   0  0  0  0  0  0  0  0  0  0  0  0
    8.8991  -15.9321   26.3888 C   0  0  0  0  0  0  0  0  0  0  0  0
    9.5646  -15.5345   27.5382 O   0  0  0  0  0  0  0  0  0  0  0  0
    8.5496  -17.1380   26.3286 O   0  0  0  0  0  0  0  0  0  0  0  0
  2  1  1  1
  3  2  1  0
  4  2  1  0
  4  5  1  6
  6  4  1  0
  6 10  1  0
  7  6  2  0
  9  8  1  1
  9 10  1  0
  9 11  1  0
 11 18  1  0
 12 11  2  0
 14 13  1  0
 15 14  1  0
 16 15  1  0
 17 19  1  0
 17 16  1  1
 18 17  1  0
 19 20  1  0
 21 19  2  0
M  END
$$$$
