TAM.pdb
     RDKit          3D

 21 20  0  0  1  0  0  0  0  0999 V2000
    8.4135  -12.4287   17.4795 C   0  0  0  0  0  0  0  0  0  0  0  0
    8.0125  -13.7076   18.1829 C   0  0  1  0  0  0  0  0  0  0  0  0
    8.4529  -14.8377   17.4952 O   0  0  0  0  0  0  0  0  0  0  0  0
    8.6123  -13.6696   19.5715 C   0  0  2  0  0  0  0  0  0  0  0  0
   10.0326  -13.9372   19.4498 N   0  0  0  0  0  0  0  0  0  0  0  0
    8.0240  -14.6823   20.4755 C   0  0  0  0  0  0  0  0  0  0  0  0
    6.7959  -14.6652   20.7436 O   0  0  0  0  0  0  0  0  0  0  0  0
    9.3311  -17.7310   22.3397 C   0  0  0  0  0  0  0  0  0  0  0  0
    8.3200  -16.6114   22.0544 C   0  0  2  0  0  0  0  0  0  0  0  0
    8.8431  -15.6981   21.0598 N   0  0  0  0  0  0  0  0  0  0  0  0
    8.0984  -15.9295   23.3556 C   0  0  0  0  0  0  0  0  0  0  0  0
    7.1529  -15.1042   23.4184 O   0  0  0  0  0  0  0  0  0  0  0  0
    6.2965  -11.4559   28.5664 C   0  0  0  0  0  0  0  0  0  0  0  0
    6.2349  -12.5896   27.1464 S   0  0  0  0  0  0  0  0  0  0  0  0
    7.7489  -13.5303   26.9877 C   0  0  0  0  0  0  0  0  0  0  0  0
    7.7840  -14.3306   25.7176 C   0  0  0  0  0  0  0  0  0  0  0  0
    9.0043  -15.1914   25.6117 C   0  0  2  0  0  0  0  0  0  0  0  0
    8.8716  -16.1498   24.5025 N   0  0  0  0  0  0  0  0  0  0  0  0
    9.2627  -16.0059   26.8147 C   0  0  0  0  0  0  0  0  0  0  0  0
    9.7473  -15.4755   28.0004 O   0  0  0  0  0  0  0  0  0  0  0  0
    9.0442  -17.2436   26.7988 O   0  0  0  0  0  0  0  0  0  0  0  0
  2  1  1  6
  3  2  1  0
  4  2  1  0
  4  5  1  6
  6  4  1  0
  6 10  1  0
  7  6  2  0
  9  8  1  1
  9 10  1  0
  9 11  1  0
 11 18  1  0
 12 11  2  0
 14 13  1  0
 15 14  1  0
 16 15  1  0
 17 19  1  0
 17 16  1  1
 18 17  1  0
 19 20  1  0
 21 19  2  0
M  END
$$$$
