TAM.pdb
     RDKit          3D

 21 20  0  0  1  0  0  0  0  0999 V2000
    8.7794  -12.5911   19.9909 C   0  0  0  0  0  0  0  0  0  0  0  0
    7.9340  -13.3455   18.9871 C   0  0  1  0  0  0  0  0  0  0  0  0
    8.1412  -12.8877   17.6865 O   0  0  0  0  0  0  0  0  0  0  0  0
    8.3000  -14.8097   19.0942 C   0  0  2  0  0  0  0  0  0  0  0  0
    7.5621  -15.5282   18.0731 N   0  0  0  0  0  0  0  0  0  0  0  0
    7.9562  -15.3893   20.4113 C   0  0  0  0  0  0  0  0  0  0  0  0
    6.9167  -15.0277   21.0185 O   0  0  0  0  0  0  0  0  0  0  0  0
    9.2109  -18.2847   22.4924 C   0  0  0  0  0  0  0  0  0  0  0  0
    8.4925  -16.9399   22.3113 C   0  0  2  0  0  0  0  0  0  0  0  0
    8.8015  -16.3713   21.0159 N   0  0  0  0  0  0  0  0  0  0  0  0
    8.9787  -16.0731   23.4156 C   0  0  0  0  0  0  0  0  0  0  0  0
    9.1882  -14.8635   23.1473 O   0  0  0  0  0  0  0  0  0  0  0  0
    6.7145  -10.9271   27.1585 C   0  0  0  0  0  0  0  0  0  0  0  0
    6.4889  -12.6285   26.5586 S   0  0  0  0  0  0  0  0  0  0  0  0
    8.0553  -13.4705   26.3598 C   0  0  0  0  0  0  0  0  0  0  0  0
    7.8753  -14.9138   25.9866 C   0  0  0  0  0  0  0  0  0  0  0  0
    9.1729  -15.6573   25.9145 C   0  0  2  0  0  0  0  0  0  0  0  0
    9.2143  -16.5192   24.7222 N   0  0  0  0  0  0  0  0  0  0  0  0
    9.4087  -16.5528   27.0633 C   0  0  0  0  0  0  0  0  0  0  0  0
    9.4282  -17.9350   26.9566 O   0  0  0  0  0  0  0  0  0  0  0  0
    9.6050  -16.0733   28.2086 O   0  0  0  0  0  0  0  0  0  0  0  0
  2  1  1  1
  3  2  1  0
  4  2  1  0
  4  5  1  6
  6  4  1  0
  6 10  1  0
  7  6  2  0
  9  8  1  6
  9 10  1  0
  9 11  1  0
 11 18  1  0
 12 11  2  0
 14 13  1  0
 15 14  1  0
 16 15  1  0
 17 19  1  0
 17 16  1  1
 18 17  1  0
 19 20  1  0
 21 19  2  0
M  END
$$$$
