TAM.pdb
     RDKit          3D

 21 20  0  0  1  0  0  0  0  0999 V2000
    8.3596  -20.7347   20.5524 C   0  0  0  0  0  0  0  0  0  0  0  0
    7.1202  -19.9494   20.1803 C   0  0  1  0  0  0  0  0  0  0  0  0
    6.0103  -20.7778   20.0194 O   0  0  0  0  0  0  0  0  0  0  0  0
    6.8712  -18.9441   21.2833 C   0  0  2  0  0  0  0  0  0  0  0  0
    5.5044  -18.4754   21.1575 N   0  0  0  0  0  0  0  0  0  0  0  0
    7.7734  -17.7743   21.2041 C   0  0  0  0  0  0  0  0  0  0  0  0
    9.0130  -17.9096   21.3625 O   0  0  0  0  0  0  0  0  0  0  0  0
    7.3331  -14.1504   20.1547 C   0  0  0  0  0  0  0  0  0  0  0  0
    8.1224  -15.3331   20.7340 C   0  0  2  0  0  0  0  0  0  0  0  0
    7.2497  -16.4691   20.9457 N   0  0  0  0  0  0  0  0  0  0  0  0
    8.6978  -14.8436   22.0133 C   0  0  0  0  0  0  0  0  0  0  0  0
    9.5536  -13.9260   21.9448 O   0  0  0  0  0  0  0  0  0  0  0  0
    6.6956  -11.2852   28.3802 C   0  0  0  0  0  0  0  0  0  0  0  0
    6.2924  -12.3260   26.9450 S   0  0  0  0  0  0  0  0  0  0  0  0
    7.7221  -13.2333   26.3662 C   0  0  0  0  0  0  0  0  0  0  0  0
    7.4618  -13.9175   25.0551 C   0  0  0  0  0  0  0  0  0  0  0  0
    8.6557  -14.6647   24.5473 C   0  0  2  0  0  0  0  0  0  0  0  0
    8.3469  -15.3384   23.2757 N   0  0  0  0  0  0  0  0  0  0  0  0
    9.1233  -15.7267   25.4588 C   0  0  0  0  0  0  0  0  0  0  0  0
    9.8552  -15.4721   26.6085 O   0  0  0  0  0  0  0  0  0  0  0  0
    8.8636  -16.9314   25.2115 O   0  0  0  0  0  0  0  0  0  0  0  0
  2  1  1  1
  3  2  1  0
  4  2  1  0
  4  5  1  6
  6  4  1  0
  6 10  1  0
  7  6  2  0
  9  8  1  1
  9 10  1  0
  9 11  1  0
 11 18  1  0
 12 11  2  0
 14 13  1  0
 15 14  1  0
 16 15  1  0
 17 19  1  0
 17 16  1  1
 18 17  1  0
 19 20  1  0
 21 19  2  0
M  END
$$$$
