TAM.pdb
     RDKit          3D

 21 20  0  0  1  0  0  0  0  0999 V2000
    5.8955  -18.1190   23.2533 C   0  0  0  0  0  0  0  0  0  0  0  0
    6.5491  -19.0496   22.2542 C   0  0  1  0  0  0  0  0  0  0  0  0
    5.8621  -20.2580   22.1447 O   0  0  0  0  0  0  0  0  0  0  0  0
    6.5762  -18.3369   20.9198 C   0  0  2  0  0  0  0  0  0  0  0  0
    7.0165  -19.2876   19.9169 N   0  0  0  0  0  0  0  0  0  0  0  0
    7.5035  -17.1842   20.9070 C   0  0  0  0  0  0  0  0  0  0  0  0
    8.7470  -17.3629   20.8620 O   0  0  0  0  0  0  0  0  0  0  0  0
    7.1284  -13.4150   20.6617 C   0  0  0  0  0  0  0  0  0  0  0  0
    7.8904  -14.7053   20.9956 C   0  0  2  0  0  0  0  0  0  0  0  0
    7.0003  -15.8463   20.9457 N   0  0  0  0  0  0  0  0  0  0  0  0
    8.4411  -14.5045   22.3607 C   0  0  0  0  0  0  0  0  0  0  0  0
    9.3728  -13.6709   22.4879 O   0  0  0  0  0  0  0  0  0  0  0  0
    7.3126  -10.4306   27.5915 C   0  0  0  0  0  0  0  0  0  0  0  0
    6.6967  -11.8266   26.6028 S   0  0  0  0  0  0  0  0  0  0  0  0
    7.8871  -13.1608   26.5328 C   0  0  0  0  0  0  0  0  0  0  0  0
    7.3938  -14.3126   25.7053 C   0  0  0  0  0  0  0  0  0  0  0  0
    8.4727  -14.9241   24.8664 C   0  0  2  0  0  0  0  0  0  0  0  0
    7.9884  -15.1810   23.5004 N   0  0  0  0  0  0  0  0  0  0  0  0
    8.9524  -16.2249   25.3716 C   0  0  0  0  0  0  0  0  0  0  0  0
    8.9348  -17.3861   24.6145 O   0  0  0  0  0  0  0  0  0  0  0  0
    9.4051  -16.3209   26.5402 O   0  0  0  0  0  0  0  0  0  0  0  0
  2  1  1  1
  3  2  1  0
  4  2  1  0
  4  5  1  6
  6  4  1  0
  6 10  1  0
  7  6  2  0
  9  8  1  1
  9 10  1  0
  9 11  1  0
 11 18  1  0
 12 11  2  0
 14 13  1  0
 15 14  1  0
 16 15  1  0
 17 19  1  0
 17 16  1  1
 18 17  1  0
 19 20  1  0
 21 19  2  0
M  END
$$$$
