TAM.pdb
     RDKit          3D

 21 20  0  0  1  0  0  0  0  0999 V2000
    9.4121  -13.6137   17.9496 C   0  0  0  0  0  0  0  0  0  0  0  0
    9.1199  -14.2808   19.2767 C   0  0  1  0  0  0  0  0  0  0  0  0
    9.8361  -13.6957   20.3201 O   0  0  0  0  0  0  0  0  0  0  0  0
    7.6325  -14.1612   19.5274 C   0  0  2  0  0  0  0  0  0  0  0  0
    7.2963  -12.7504   19.5431 N   0  0  0  0  0  0  0  0  0  0  0  0
    7.2222  -14.7517   20.8204 C   0  0  0  0  0  0  0  0  0  0  0  0
    6.7920  -14.0226   21.7497 O   0  0  0  0  0  0  0  0  0  0  0  0
    6.6173  -18.2333   22.1501 C   0  0  0  0  0  0  0  0  0  0  0  0
    6.9888  -16.7530   22.3178 C   0  0  2  0  0  0  0  0  0  0  0  0
    7.3083  -16.1627   21.0347 N   0  0  0  0  0  0  0  0  0  0  0  0
    8.1599  -16.7341   23.2317 C   0  0  0  0  0  0  0  0  0  0  0  0
    8.6770  -17.8409   23.5265 O   0  0  0  0  0  0  0  0  0  0  0  0
    7.8396  -11.4136   26.8086 C   0  0  0  0  0  0  0  0  0  0  0  0
    6.3769  -12.4855   26.9393 S   0  0  0  0  0  0  0  0  0  0  0  0
    6.8070  -14.2129   26.7564 C   0  0  0  0  0  0  0  0  0  0  0  0
    7.1177  -14.5678   25.3308 C   0  0  0  0  0  0  0  0  0  0  0  0
    8.5003  -15.1164   25.1611 C   0  0  2  0  0  0  0  0  0  0  0  0
    8.7150  -15.5698   23.7773 N   0  0  0  0  0  0  0  0  0  0  0  0
    8.7835  -16.2871   26.0136 C   0  0  0  0  0  0  0  0  0  0  0  0
    9.6727  -16.2541   27.0768 O   0  0  0  0  0  0  0  0  0  0  0  0
    8.2087  -17.3830   25.7935 O   0  0  0  0  0  0  0  0  0  0  0  0
  2  1  1  6
  3  2  1  0
  4  2  1  0
  4  5  1  1
  6  4  1  0
  6 10  1  0
  7  6  2  0
  9  8  1  6
  9 10  1  0
  9 11  1  0
 11 18  1  0
 12 11  2  0
 14 13  1  0
 15 14  1  0
 16 15  1  0
 17 19  1  0
 17 16  1  6
 18 17  1  0
 19 20  1  0
 21 19  2  0
M  END
$$$$
