TAM.pdb
     RDKit          3D

 21 20  0  0  1  0  0  0  0  0999 V2000
    7.9370  -12.9409   20.4663 C   0  0  0  0  0  0  0  0  0  0  0  0
    8.7759  -14.1089   19.9938 C   0  0  1  0  0  0  0  0  0  0  0  0
   10.0006  -14.1699   20.6575 O   0  0  0  0  0  0  0  0  0  0  0  0
    7.9789  -15.3708   20.2427 C   0  0  2  0  0  0  0  0  0  0  0  0
    6.7937  -15.3199   19.4083 N   0  0  0  0  0  0  0  0  0  0  0  0
    7.5502  -15.5065   21.6522 C   0  0  0  0  0  0  0  0  0  0  0  0
    6.5710  -14.8508   22.0897 O   0  0  0  0  0  0  0  0  0  0  0  0
    7.4035  -17.9657   24.2171 C   0  0  0  0  0  0  0  0  0  0  0  0
    7.8483  -16.5251   23.9272 C   0  0  2  0  0  0  0  0  0  0  0  0
    8.2431  -16.3865   22.5409 N   0  0  0  0  0  0  0  0  0  0  0  0
    8.9865  -16.2639   24.8455 C   0  0  0  0  0  0  0  0  0  0  0  0
    9.7106  -17.2427   25.1565 O   0  0  0  0  0  0  0  0  0  0  0  0
    5.5173  -12.1789   27.0114 C   0  0  0  0  0  0  0  0  0  0  0  0
    7.1499  -11.7399   27.6804 S   0  0  0  0  0  0  0  0  0  0  0  0
    8.4621  -12.6364   26.8578 C   0  0  0  0  0  0  0  0  0  0  0  0
    8.7376  -13.9588   27.5136 C   0  0  0  0  0  0  0  0  0  0  0  0
    9.7414  -14.7772   26.7626 C   0  0  2  0  0  0  0  0  0  0  0  0
    9.2965  -15.0063   25.3784 N   0  0  0  0  0  0  0  0  0  0  0  0
    9.9644  -16.1177   27.3377 C   0  0  0  0  0  0  0  0  0  0  0  0
    9.1476  -17.2048   27.0674 O   0  0  0  0  0  0  0  0  0  0  0  0
   10.9322  -16.3193   28.1140 O   0  0  0  0  0  0  0  0  0  0  0  0
  2  1  1  1
  3  2  1  0
  4  2  1  0
  4  5  1  6
  6  4  1  0
  6 10  1  0
  7  6  2  0
  9  8  1  6
  9 10  1  0
  9 11  1  0
 11 18  1  0
 12 11  2  0
 14 13  1  0
 15 14  1  0
 16 15  1  0
 17 19  1  0
 17 16  1  1
 18 17  1  0
 19 20  1  0
 21 19  2  0
M  END
$$$$
