TAM.pdb
     RDKit          3D

 21 20  0  0  1  0  0  0  0  0999 V2000
    9.3459  -12.7920   20.1821 C   0  0  0  0  0  0  0  0  0  0  0  0
    8.0737  -13.2174   19.4808 C   0  0  1  0  0  0  0  0  0  0  0  0
    7.8920  -12.5362   18.2779 O   0  0  0  0  0  0  0  0  0  0  0  0
    8.1679  -14.7070   19.2329 C   0  0  2  0  0  0  0  0  0  0  0  0
    6.9770  -15.1140   18.5120 N   0  0  0  0  0  0  0  0  0  0  0  0
    8.2440  -15.4906   20.4855 C   0  0  0  0  0  0  0  0  0  0  0  0
    7.2546  -15.5617   21.2576 O   0  0  0  0  0  0  0  0  0  0  0  0
   10.8163  -17.7853   22.0858 C   0  0  0  0  0  0  0  0  0  0  0  0
    9.5654  -16.8950   22.0929 C   0  0  2  0  0  0  0  0  0  0  0  0
    9.4454  -16.1807   20.8390 N   0  0  0  0  0  0  0  0  0  0  0  0
    9.7432  -15.9620   23.2353 C   0  0  0  0  0  0  0  0  0  0  0  0
   10.1007  -14.7873   22.9679 O   0  0  0  0  0  0  0  0  0  0  0  0
    6.2843  -11.1917   27.4877 C   0  0  0  0  0  0  0  0  0  0  0  0
    6.5843  -12.3551   26.1231 S   0  0  0  0  0  0  0  0  0  0  0  0
    7.8530  -13.5464   26.5395 C   0  0  0  0  0  0  0  0  0  0  0  0
    8.2115  -14.4188   25.3710 C   0  0  0  0  0  0  0  0  0  0  0  0
    9.3538  -15.3399   25.6677 C   0  0  2  0  0  0  0  0  0  0  0  0
    9.5382  -16.3101   24.5763 N   0  0  0  0  0  0  0  0  0  0  0  0
    9.1656  -16.1447   26.8901 C   0  0  0  0  0  0  0  0  0  0  0  0
    8.7802  -17.4763   26.8701 O   0  0  0  0  0  0  0  0  0  0  0  0
    9.3551  -15.6299   28.0211 O   0  0  0  0  0  0  0  0  0  0  0  0
  2  1  1  6
  3  2  1  0
  4  2  1  0
  4  5  1  1
  6  4  1  0
  6 10  1  0
  7  6  2  0
  9  8  1  6
  9 10  1  0
  9 11  1  0
 11 18  1  0
 12 11  2  0
 14 13  1  0
 15 14  1  0
 16 15  1  0
 17 19  1  0
 17 16  1  6
 18 17  1  0
 19 20  1  0
 21 19  2  0
M  END
$$$$
