AGC.pdb
     RDKit          3D

 16 15  0  0  1  0  0  0  0  0999 V2000
   -1.2477  -26.3036   28.3631 C   0  0  0  0  0  0  0  0  0  0  0  0
   -2.7519  -26.0492   28.2763 C   0  0  2  0  0  0  0  0  0  0  0  0
   -3.1935  -26.5842   27.0252 N   0  0  0  0  0  0  0  0  0  0  0  0
   -2.9955  -24.5805   28.3314 C   0  0  0  0  0  0  0  0  0  0  0  0
   -2.7558  -23.9791   29.4312 O   0  0  0  0  0  0  0  0  0  0  0  0
   -3.4782  -23.8411   27.2163 N   0  0  0  0  0  0  0  0  0  0  0  0
   -3.8672  -22.4754   27.4407 C   0  0  0  0  0  0  0  0  0  0  0  0
   -5.3339  -22.2995   27.4894 C   0  0  0  0  0  0  0  0  0  0  0  0
   -6.0608  -22.3241   26.4562 O   0  0  0  0  0  0  0  0  0  0  0  0
   -5.9740  -22.0929   28.7408 N   0  0  0  0  0  0  0  0  0  0  0  0
   -7.3818  -22.3146   28.9718 C   0  0  1  0  0  0  0  0  0  0  0  0
   -7.6425  -23.7880   28.6546 C   0  0  0  0  0  0  0  0  0  0  0  0
   -8.8731  -23.7909   27.2999 S   0  0  0  0  0  0  0  0  0  0  0  0
   -7.7877  -21.9710   30.3504 C   0  0  0  0  0  0  0  0  0  0  0  0
   -6.9621  -22.0668   31.2732 O   0  0  0  0  0  0  0  0  0  0  0  0
   -9.0702  -21.5454   30.6276 O   0  0  0  0  0  0  0  0  0  0  0  0
  2  1  1  6
  2  3  1  0
  4  2  1  0
  4  5  2  0
  6  4  1  0
  7  6  1  0
  8  7  1  0
  9  8  2  0
 10  8  1  0
 11 12  1  1
 11 10  1  0
 12 13  1  0
 14 11  1  0
 15 14  2  0
 16 14  1  0
M  END
$$$$
