AGC.pdb
     RDKit          3D

 16 15  0  0  1  0  0  0  0  0999 V2000
    8.6666  -17.3226   19.0205 C   0  0  0  0  0  0  0  0  0  0  0  0
    8.9293  -17.3330   20.5258 C   0  0  2  0  0  0  0  0  0  0  0  0
    8.0272  -18.2835   21.0996 N   0  0  0  0  0  0  0  0  0  0  0  0
    8.6681  -15.9707   21.0693 C   0  0  0  0  0  0  0  0  0  0  0  0
    9.5572  -15.0750   20.8807 O   0  0  0  0  0  0  0  0  0  0  0  0
    7.4797  -15.6435   21.7791 N   0  0  0  0  0  0  0  0  0  0  0  0
    7.3670  -14.3128   22.3117 C   0  0  0  0  0  0  0  0  0  0  0  0
    8.0371  -14.1624   23.6204 C   0  0  0  0  0  0  0  0  0  0  0  0
    9.1356  -14.7230   23.8953 O   0  0  0  0  0  0  0  0  0  0  0  0
    7.4380  -13.3578   24.6264 N   0  0  0  0  0  0  0  0  0  0  0  0
    8.0676  -13.0423   25.8867 C   0  0  1  0  0  0  0  0  0  0  0  0
    7.2339  -11.9248   26.5157 C   0  0  0  0  0  0  0  0  0  0  0  0
    5.5301  -12.5836   26.6280 S   0  0  0  0  0  0  0  0  0  0  0  0
    8.1680  -14.2177   26.7764 C   0  0  0  0  0  0  0  0  0  0  0  0
    7.5187  -15.2428   26.5117 O   0  0  0  0  0  0  0  0  0  0  0  0
    8.9724  -14.1934   27.8968 O   0  0  0  0  0  0  0  0  0  0  0  0
  2  1  1  6
  2  3  1  0
  4  2  1  0
  4  5  2  0
  6  4  1  0
  7  6  1  0
  8  7  1  0
  9  8  2  0
 10  8  1  0
 11 12  1  1
 11 10  1  0
 12 13  1  0
 14 11  1  0
 15 14  2  0
 16 14  1  0
M  END
$$$$
