AGC.pdb
     RDKit          3D

 16 15  0  0  1  0  0  0  0  0999 V2000
   -1.8590  -28.2441   28.0597 C   0  0  0  0  0  0  0  0  0  0  0  0
   -3.2475  -27.7694   28.4860 C   0  0  2  0  0  0  0  0  0  0  0  0
   -3.7934  -27.0366   27.3853 N   0  0  0  0  0  0  0  0  0  0  0  0
   -3.1098  -26.8909   29.6813 C   0  0  0  0  0  0  0  0  0  0  0  0
   -2.7094  -27.4254   30.7687 O   0  0  0  0  0  0  0  0  0  0  0  0
   -3.4055  -25.4999   29.6486 N   0  0  0  0  0  0  0  0  0  0  0  0
   -3.1808  -24.7428   30.8499 C   0  0  0  0  0  0  0  0  0  0  0  0
   -4.3431  -23.9117   31.2275 C   0  0  0  0  0  0  0  0  0  0  0  0
   -4.3647  -23.1985   32.2703 O   0  0  0  0  0  0  0  0  0  0  0  0
   -5.4956  -23.8994   30.3967 N   0  0  0  0  0  0  0  0  0  0  0  0
   -6.6677  -23.0978   30.6571 C   0  0  1  0  0  0  0  0  0  0  0  0
   -6.8971  -22.2521   29.4034 C   0  0  0  0  0  0  0  0  0  0  0  0
   -8.3021  -21.1492   29.8022 S   0  0  0  0  0  0  0  0  0  0  0  0
   -7.8505  -23.9195   30.9873 C   0  0  0  0  0  0  0  0  0  0  0  0
   -8.0049  -25.0203   30.4334 O   0  0  0  0  0  0  0  0  0  0  0  0
   -8.7860  -23.4820   31.9019 O   0  0  0  0  0  0  0  0  0  0  0  0
  2  1  1  6
  2  3  1  0
  4  2  1  0
  4  5  2  0
  6  4  1  0
  7  6  1  0
  8  7  1  0
  9  8  2  0
 10  8  1  0
 11 12  1  6
 11 10  1  0
 12 13  1  0
 14 11  1  0
 15 14  2  0
 16 14  1  0
M  END
$$$$
