AGC.pdb
     RDKit          3D

 16 15  0  0  1  0  0  0  0  0999 V2000
   -1.7304  -27.5536   26.9525 C   0  0  0  0  0  0  0  0  0  0  0  0
   -2.9389  -26.6534   27.2059 C   0  0  2  0  0  0  0  0  0  0  0  0
   -2.6389  -25.3802   26.6266 N   0  0  0  0  0  0  0  0  0  0  0  0
   -3.1422  -26.5233   28.6760 C   0  0  0  0  0  0  0  0  0  0  0  0
   -3.5221  -27.5591   29.3174 O   0  0  0  0  0  0  0  0  0  0  0  0
   -2.9298  -25.3024   29.3743 N   0  0  0  0  0  0  0  0  0  0  0  0
   -3.1794  -25.2927   30.7901 C   0  0  0  0  0  0  0  0  0  0  0  0
   -4.3747  -24.5034   31.1544 C   0  0  0  0  0  0  0  0  0  0  0  0
   -4.7566  -24.3516   32.3492 O   0  0  0  0  0  0  0  0  0  0  0  0
   -5.1412  -23.8803   30.1333 N   0  0  0  0  0  0  0  0  0  0  0  0
   -6.3302  -23.0998   30.3814 C   0  0  1  0  0  0  0  0  0  0  0  0
   -6.1421  -21.7802   29.6311 C   0  0  0  0  0  0  0  0  0  0  0  0
   -7.5798  -20.7437   30.0878 S   0  0  0  0  0  0  0  0  0  0  0  0
   -7.5616  -23.7990   29.9595 C   0  0  0  0  0  0  0  0  0  0  0  0
   -7.5438  -24.5084   28.9402 O   0  0  0  0  0  0  0  0  0  0  0  0
   -8.7308  -23.6754   30.6810 O   0  0  0  0  0  0  0  0  0  0  0  0
  2  1  1  1
  2  3  1  0
  4  2  1  0
  4  5  2  0
  6  4  1  0
  7  6  1  0
  8  7  1  0
  9  8  2  0
 10  8  1  0
 11 12  1  6
 11 10  1  0
 12 13  1  0
 14 11  1  0
 15 14  2  0
 16 14  1  0
M  END
$$$$
