AGC.pdb
     RDKit          3D

 16 15  0  0  1  0  0  0  0  0999 V2000
    8.0561  -18.6714   20.4642 C   0  0  0  0  0  0  0  0  0  0  0  0
    8.7668  -18.0743   21.6780 C   0  0  2  0  0  0  0  0  0  0  0  0
    8.2690  -18.7594   22.8310 N   0  0  0  0  0  0  0  0  0  0  0  0
    8.4478  -16.6212   21.7557 C   0  0  0  0  0  0  0  0  0  0  0  0
    8.9611  -15.8521   20.8762 O   0  0  0  0  0  0  0  0  0  0  0  0
    7.6039  -16.0743   22.7618 N   0  0  0  0  0  0  0  0  0  0  0  0
    7.3758  -14.6550   22.7406 C   0  0  0  0  0  0  0  0  0  0  0  0
    7.9862  -13.9608   23.8939 C   0  0  0  0  0  0  0  0  0  0  0  0
    9.0162  -13.2362   23.7897 O   0  0  0  0  0  0  0  0  0  0  0  0
    7.4064  -14.1004   25.1833 N   0  0  0  0  0  0  0  0  0  0  0  0
    7.9346  -13.4807   26.3755 C   0  0  1  0  0  0  0  0  0  0  0  0
    6.7329  -12.9151   27.1342 C   0  0  0  0  0  0  0  0  0  0  0  0
    5.7981  -11.9256   25.9109 S   0  0  0  0  0  0  0  0  0  0  0  0
    8.7109  -14.4253   27.2051 C   0  0  0  0  0  0  0  0  0  0  0  0
    8.7576  -15.6246   26.8858 O   0  0  0  0  0  0  0  0  0  0  0  0
    9.3846  -13.9949   28.3292 O   0  0  0  0  0  0  0  0  0  0  0  0
  2  1  1  6
  2  3  1  0
  4  2  1  0
  4  5  2  0
  6  4  1  0
  7  6  1  0
  8  7  1  0
  9  8  2  0
 10  8  1  0
 11 12  1  1
 11 10  1  0
 12 13  1  0
 14 11  1  0
 15 14  2  0
 16 14  1  0
M  END
$$$$
