AGC.pdb
     RDKit          3D

 16 15  0  0  1  0  0  0  0  0999 V2000
    8.8279  -20.6873   24.0999 C   0  0  0  0  0  0  0  0  0  0  0  0
    8.9675  -19.3832   24.8840 C   0  0  2  0  0  0  0  0  0  0  0  0
    8.2401  -19.5509   26.1044 N   0  0  0  0  0  0  0  0  0  0  0  0
    8.3869  -18.2728   24.0783 C   0  0  0  0  0  0  0  0  0  0  0  0
    9.1482  -17.6866   23.2385 O   0  0  0  0  0  0  0  0  0  0  0  0
    7.0345  -17.8532   24.2137 N   0  0  0  0  0  0  0  0  0  0  0  0
    6.5797  -16.7867   23.3636 C   0  0  0  0  0  0  0  0  0  0  0  0
    6.9465  -15.4503   23.8773 C   0  0  0  0  0  0  0  0  0  0  0  0
    6.7857  -14.3915   23.2067 O   0  0  0  0  0  0  0  0  0  0  0  0
    7.5050  -15.3282   25.1779 N   0  0  0  0  0  0  0  0  0  0  0  0
    7.7376  -14.0663   25.8395 C   0  0  1  0  0  0  0  0  0  0  0  0
    6.3878  -13.6231   26.4062 C   0  0  0  0  0  0  0  0  0  0  0  0
    6.5542  -11.8298   26.7319 S   0  0  0  0  0  0  0  0  0  0  0  0
    8.7686  -14.1640   26.8934 C   0  0  0  0  0  0  0  0  0  0  0  0
    9.0348  -15.2716   27.3882 O   0  0  0  0  0  0  0  0  0  0  0  0
    9.4399  -13.0432   27.3360 O   0  0  0  0  0  0  0  0  0  0  0  0
  2  1  1  6
  2  3  1  0
  4  2  1  0
  4  5  2  0
  6  4  1  0
  7  6  1  0
  8  7  1  0
  9  8  2  0
 10  8  1  0
 11 12  1  1
 11 10  1  0
 12 13  1  0
 14 11  1  0
 15 14  2  0
 16 14  1  0
M  END
$$$$
