AGC.pdb
     RDKit          3D

 16 15  0  0  1  0  0  0  0  0999 V2000
    9.3106  -19.2128   20.1232 C   0  0  0  0  0  0  0  0  0  0  0  0
    8.2741  -18.1084   20.3253 C   0  0  2  0  0  0  0  0  0  0  0  0
    8.7041  -16.9863   19.5490 N   0  0  0  0  0  0  0  0  0  0  0  0
    8.2239  -17.7545   21.7716 C   0  0  0  0  0  0  0  0  0  0  0  0
    7.3776  -18.3671   22.5043 O   0  0  0  0  0  0  0  0  0  0  0  0
    9.0748  -16.7725   22.3504 N   0  0  0  0  0  0  0  0  0  0  0  0
    8.9542  -16.5363   23.7635 C   0  0  0  0  0  0  0  0  0  0  0  0
    8.4462  -15.1839   24.0755 C   0  0  0  0  0  0  0  0  0  0  0  0
    8.1204  -14.3521   23.1819 O   0  0  0  0  0  0  0  0  0  0  0  0
    8.3105  -14.7815   25.4313 N   0  0  0  0  0  0  0  0  0  0  0  0
    7.8630  -13.4718   25.8419 C   0  0  1  0  0  0  0  0  0  0  0  0
    6.3697  -13.4066   25.5172 C   0  0  0  0  0  0  0  0  0  0  0  0
    5.8017  -11.7790   26.1318 S   0  0  0  0  0  0  0  0  0  0  0  0
    8.1243  -13.2097   27.2724 C   0  0  0  0  0  0  0  0  0  0  0  0
    8.4892  -14.1411   28.0085 O   0  0  0  0  0  0  0  0  0  0  0  0
    7.9689  -11.9457   27.8025 O   0  0  0  0  0  0  0  0  0  0  0  0
  2  1  1  1
  2  3  1  0
  4  2  1  0
  4  5  2  0
  6  4  1  0
  7  6  1  0
  8  7  1  0
  9  8  2  0
 10  8  1  0
 11 12  1  1
 11 10  1  0
 12 13  1  0
 14 11  1  0
 15 14  2  0
 16 14  1  0
M  END
$$$$
