AGC.pdb
     RDKit          3D

 16 15  0  0  1  0  0  0  0  0999 V2000
    7.8376  -17.5720   16.3810 C   0  0  0  0  0  0  0  0  0  0  0  0
    7.3086  -18.1415   17.6967 C   0  0  2  0  0  0  0  0  0  0  0  0
    5.8828  -18.1844   17.5887 N   0  0  0  0  0  0  0  0  0  0  0  0
    7.7212  -17.2425   18.8106 C   0  0  0  0  0  0  0  0  0  0  0  0
    8.9518  -17.2409   19.1485 O   0  0  0  0  0  0  0  0  0  0  0  0
    6.8025  -16.4010   19.4970 N   0  0  0  0  0  0  0  0  0  0  0  0
    7.3288  -15.5262   20.5093 C   0  0  0  0  0  0  0  0  0  0  0  0
    7.7285  -16.2471   21.7361 C   0  0  0  0  0  0  0  0  0  0  0  0
    7.2060  -17.3428   22.0870 O   0  0  0  0  0  0  0  0  0  0  0  0
    8.7412  -15.7027   22.5706 N   0  0  0  0  0  0  0  0  0  0  0  0
    9.3055  -16.3920   23.7068 C   0  0  1  0  0  0  0  0  0  0  0  0
   10.5841  -17.0672   23.2081 C   0  0  0  0  0  0  0  0  0  0  0  0
   11.2385  -18.0026   24.6387 S   0  0  0  0  0  0  0  0  0  0  0  0
    9.5725  -15.4838   24.8413 C   0  0  0  0  0  0  0  0  0  0  0  0
    9.7946  -14.2814   24.6236 O   0  0  0  0  0  0  0  0  0  0  0  0
    9.5786  -15.9517   26.1390 O   0  0  0  0  0  0  0  0  0  0  0  0
  2  1  1  6
  2  3  1  0
  4  2  1  0
  4  5  2  0
  6  4  1  0
  7  6  1  0
  8  7  1  0
  9  8  2  0
 10  8  1  0
 11 12  1  6
 11 10  1  0
 12 13  1  0
 14 11  1  0
 15 14  2  0
 16 14  1  0
M  END
$$$$
