AGC.pdb
     RDKit          3D

 16 15  0  0  1  0  0  0  0  0999 V2000
    8.1734  -12.9935   18.1861 C   0  0  0  0  0  0  0  0  0  0  0  0
    8.6665  -14.0138   19.2113 C   0  0  2  0  0  0  0  0  0  0  0  0
    8.2540  -15.3028   18.7479 N   0  0  0  0  0  0  0  0  0  0  0  0
    8.0447  -13.7093   20.5304 C   0  0  0  0  0  0  0  0  0  0  0  0
    8.4556  -12.6763   21.1569 O   0  0  0  0  0  0  0  0  0  0  0  0
    7.0257  -14.5199   21.1029 N   0  0  0  0  0  0  0  0  0  0  0  0
    6.4236  -14.0669   22.3274 C   0  0  0  0  0  0  0  0  0  0  0  0
    7.3073  -14.2445   23.4987 C   0  0  0  0  0  0  0  0  0  0  0  0
    8.2080  -15.1293   23.5485 O   0  0  0  0  0  0  0  0  0  0  0  0
    7.1547  -13.3951   24.6272 N   0  0  0  0  0  0  0  0  0  0  0  0
    7.9405  -13.5087   25.8330 C   0  0  1  0  0  0  0  0  0  0  0  0
    7.4870  -12.3717   26.7501 C   0  0  0  0  0  0  0  0  0  0  0  0
    5.6840  -12.6006   26.9654 S   0  0  0  0  0  0  0  0  0  0  0  0
    7.7906  -14.8280   26.4813 C   0  0  0  0  0  0  0  0  0  0  0  0
    6.8454  -15.5655   26.1567 O   0  0  0  0  0  0  0  0  0  0  0  0
    8.6850  -15.2529   27.4417 O   0  0  0  0  0  0  0  0  0  0  0  0
  2  1  1  6
  2  3  1  0
  4  2  1  0
  4  5  2  0
  6  4  1  0
  7  6  1  0
  8  7  1  0
  9  8  2  0
 10  8  1  0
 11 12  1  1
 11 10  1  0
 12 13  1  0
 14 11  1  0
 15 14  2  0
 16 14  1  0
M  END
$$$$
