AGC.pdb
     RDKit          3D

 16 15  0  0  1  0  0  0  0  0999 V2000
    7.6314  -19.6955   21.7445 C   0  0  0  0  0  0  0  0  0  0  0  0
    7.2883  -18.6602   22.8147 C   0  0  2  0  0  0  0  0  0  0  0  0
    6.0871  -18.0075   22.3932 N   0  0  0  0  0  0  0  0  0  0  0  0
    8.4073  -17.6817   22.9139 C   0  0  0  0  0  0  0  0  0  0  0  0
    9.4795  -18.0614   23.4923 O   0  0  0  0  0  0  0  0  0  0  0  0
    8.3190  -16.3610   22.3931 N   0  0  0  0  0  0  0  0  0  0  0  0
    9.4514  -15.4947   22.5787 C   0  0  0  0  0  0  0  0  0  0  0  0
    9.3430  -14.6658   23.7976 C   0  0  0  0  0  0  0  0  0  0  0  0
   10.3504  -14.1874   24.3916 O   0  0  0  0  0  0  0  0  0  0  0  0
    8.0613  -14.3826   24.3411 N   0  0  0  0  0  0  0  0  0  0  0  0
    7.8472  -13.5899   25.5286 C   0  0  1  0  0  0  0  0  0  0  0  0
    6.3898  -13.1284   25.4801 C   0  0  0  0  0  0  0  0  0  0  0  0
    6.1351  -12.1377   26.9978 S   0  0  0  0  0  0  0  0  0  0  0  0
    8.1435  -14.3391   26.7673 C   0  0  0  0  0  0  0  0  0  0  0  0
    7.9428  -15.5642   26.8043 O   0  0  0  0  0  0  0  0  0  0  0  0
    8.6397  -13.6979   27.8833 O   0  0  0  0  0  0  0  0  0  0  0  0
  2  1  1  6
  2  3  1  0
  4  2  1  0
  4  5  2  0
  6  4  1  0
  7  6  1  0
  8  7  1  0
  9  8  2  0
 10  8  1  0
 11 12  1  1
 11 10  1  0
 12 13  1  0
 14 11  1  0
 15 14  2  0
 16 14  1  0
M  END
$$$$
