AGC.pdb
     RDKit          3D

 16 15  0  0  1  0  0  0  0  0999 V2000
    6.4688  -19.6258   21.7887 C   0  0  0  0  0  0  0  0  0  0  0  0
    7.6520  -19.4396   22.7376 C   0  0  2  0  0  0  0  0  0  0  0  0
    7.1137  -19.3333   24.0588 N   0  0  0  0  0  0  0  0  0  0  0  0
    8.3748  -18.1910   22.3662 C   0  0  0  0  0  0  0  0  0  0  0  0
    9.0815  -18.2071   21.3037 O   0  0  0  0  0  0  0  0  0  0  0  0
    8.3030  -17.0030   23.1451 N   0  0  0  0  0  0  0  0  0  0  0  0
    9.0359  -15.8567   22.6806 C   0  0  0  0  0  0  0  0  0  0  0  0
    8.8306  -14.6645   23.5298 C   0  0  0  0  0  0  0  0  0  0  0  0
    9.4234  -13.5677   23.3245 O   0  0  0  0  0  0  0  0  0  0  0  0
    7.9330  -14.7329   24.6288 N   0  0  0  0  0  0  0  0  0  0  0  0
    7.7155  -13.6510   25.5598 C   0  0  1  0  0  0  0  0  0  0  0  0
    6.2077  -13.3943   25.5757 C   0  0  0  0  0  0  0  0  0  0  0  0
    5.9460  -12.0672   26.8084 S   0  0  0  0  0  0  0  0  0  0  0  0
    8.2333  -13.9563   26.9096 C   0  0  0  0  0  0  0  0  0  0  0  0
    8.2999  -13.0521   27.7584 O   0  0  0  0  0  0  0  0  0  0  0  0
    8.6440  -15.2308   27.2409 O   0  0  0  0  0  0  0  0  0  0  0  0
  2  1  1  6
  2  3  1  0
  4  2  1  0
  4  5  2  0
  6  4  1  0
  7  6  1  0
  8  7  1  0
  9  8  2  0
 10  8  1  0
 11 12  1  1
 11 10  1  0
 12 13  1  0
 14 11  1  0
 15 14  2  0
 16 14  1  0
M  END
$$$$
