AGC.pdb
     RDKit          3D

 16 15  0  0  1  0  0  0  0  0999 V2000
    5.6087  -18.4401   22.0872 C   0  0  0  0  0  0  0  0  0  0  0  0
    7.0903  -18.1856   22.3614 C   0  0  2  0  0  0  0  0  0  0  0  0
    7.3170  -18.4897   23.7408 N   0  0  0  0  0  0  0  0  0  0  0  0
    7.3913  -16.7528   22.0861 C   0  0  0  0  0  0  0  0  0  0  0  0
    7.5697  -16.4057   20.8712 O   0  0  0  0  0  0  0  0  0  0  0  0
    7.4845  -15.7772   23.1171 N   0  0  0  0  0  0  0  0  0  0  0  0
    7.7159  -14.4136   22.7248 C   0  0  0  0  0  0  0  0  0  0  0  0
    7.7160  -13.4811   23.8715 C   0  0  0  0  0  0  0  0  0  0  0  0
    7.8834  -12.2355   23.7407 O   0  0  0  0  0  0  0  0  0  0  0  0
    7.5212  -13.9855   25.1853 N   0  0  0  0  0  0  0  0  0  0  0  0
    8.0876  -13.3863   26.3704 C   0  0  1  0  0  0  0  0  0  0  0  0
    6.9134  -13.0874   27.3039 C   0  0  0  0  0  0  0  0  0  0  0  0
    5.6114  -12.3613   26.2422 S   0  0  0  0  0  0  0  0  0  0  0  0
    9.0930  -14.2556   27.0160 C   0  0  0  0  0  0  0  0  0  0  0  0
    9.2931  -15.3967   26.5685 O   0  0  0  0  0  0  0  0  0  0  0  0
    9.8127  -13.8184   28.1087 O   0  0  0  0  0  0  0  0  0  0  0  0
  2  1  1  1
  2  3  1  0
  4  2  1  0
  4  5  2  0
  6  4  1  0
  7  6  1  0
  8  7  1  0
  9  8  2  0
 10  8  1  0
 11 12  1  1
 11 10  1  0
 12 13  1  0
 14 11  1  0
 15 14  2  0
 16 14  1  0
M  END
$$$$
