AGC.pdb
     RDKit          3D

 16 15  0  0  1  0  0  0  0  0999 V2000
    8.3620  -17.5502   19.2799 C   0  0  0  0  0  0  0  0  0  0  0  0
    9.1813  -16.8991   20.3934 C   0  0  2  0  0  0  0  0  0  0  0  0
    9.5901  -17.9471   21.2772 N   0  0  0  0  0  0  0  0  0  0  0  0
    8.3222  -15.9160   21.1110 C   0  0  0  0  0  0  0  0  0  0  0  0
    8.0884  -14.8006   20.5370 O   0  0  0  0  0  0  0  0  0  0  0  0
    7.7645  -16.1776   22.3932 N   0  0  0  0  0  0  0  0  0  0  0  0
    7.0189  -15.1221   23.0231 C   0  0  0  0  0  0  0  0  0  0  0  0
    7.7844  -14.4370   24.0857 C   0  0  0  0  0  0  0  0  0  0  0  0
    9.0383  -14.2883   24.0383 O   0  0  0  0  0  0  0  0  0  0  0  0
    7.1012  -13.9161   25.2172 N   0  0  0  0  0  0  0  0  0  0  0  0
    7.7548  -13.2358   26.3100 C   0  0  1  0  0  0  0  0  0  0  0  0
    6.6404  -12.6824   27.1996 C   0  0  0  0  0  0  0  0  0  0  0  0
    5.7123  -11.5032   26.1518 S   0  0  0  0  0  0  0  0  0  0  0  0
    8.6661  -14.1231   27.0620 C   0  0  0  0  0  0  0  0  0  0  0  0
    8.5555  -15.3546   26.9453 O   0  0  0  0  0  0  0  0  0  0  0  0
    9.6380  -13.6038   27.8919 O   0  0  0  0  0  0  0  0  0  0  0  0
  2  1  1  6
  2  3  1  0
  4  2  1  0
  4  5  2  0
  6  4  1  0
  7  6  1  0
  8  7  1  0
  9  8  2  0
 10  8  1  0
 11 12  1  1
 11 10  1  0
 12 13  1  0
 14 11  1  0
 15 14  2  0
 16 14  1  0
M  END
$$$$
