AGC.pdb
     RDKit          3D

 16 15  0  0  1  0  0  0  0  0999 V2000
    4.5408  -18.5216   21.7137 C   0  0  0  0  0  0  0  0  0  0  0  0
    5.9404  -18.4256   22.3196 C   0  0  2  0  0  0  0  0  0  0  0  0
    5.7756  -18.3455   23.7384 N   0  0  0  0  0  0  0  0  0  0  0  0
    6.6060  -17.1979   21.8010 C   0  0  0  0  0  0  0  0  0  0  0  0
    6.9364  -17.1764   20.5686 O   0  0  0  0  0  0  0  0  0  0  0  0
    6.8798  -16.0692   22.6222 N   0  0  0  0  0  0  0  0  0  0  0  0
    7.5657  -14.9582   22.0203 C   0  0  0  0  0  0  0  0  0  0  0  0
    7.7975  -13.8481   22.9682 C   0  0  0  0  0  0  0  0  0  0  0  0
    8.4591  -12.8155   22.6642 O   0  0  0  0  0  0  0  0  0  0  0  0
    7.2625  -13.9250   24.2821 N   0  0  0  0  0  0  0  0  0  0  0  0
    8.0129  -13.6174   25.4766 C   0  0  1  0  0  0  0  0  0  0  0  0
    7.2130  -12.5486   26.2231 C   0  0  0  0  0  0  0  0  0  0  0  0
    5.5395  -13.2537   26.4507 S   0  0  0  0  0  0  0  0  0  0  0  0
    8.2498  -14.8101   26.3160 C   0  0  0  0  0  0  0  0  0  0  0  0
    7.6704  -15.8745   26.0445 O   0  0  0  0  0  0  0  0  0  0  0  0
    9.1052  -14.7588   27.3970 O   0  0  0  0  0  0  0  0  0  0  0  0
  2  1  1  6
  2  3  1  0
  4  2  1  0
  4  5  2  0
  6  4  1  0
  7  6  1  0
  8  7  1  0
  9  8  2  0
 10  8  1  0
 11 12  1  1
 11 10  1  0
 12 13  1  0
 14 11  1  0
 15 14  2  0
 16 14  1  0
M  END
$$$$
