AGC.pdb
     RDKit          3D

 16 15  0  0  1  0  0  0  0  0999 V2000
    7.1782  -18.8656   21.8778 C   0  0  0  0  0  0  0  0  0  0  0  0
    7.0481  -17.9500   23.0942 C   0  0  2  0  0  0  0  0  0  0  0  0
    5.6648  -17.9358   23.4590 N   0  0  0  0  0  0  0  0  0  0  0  0
    7.5030  -16.5823   22.7178 C   0  0  0  0  0  0  0  0  0  0  0  0
    8.7452  -16.4138   22.4788 O   0  0  0  0  0  0  0  0  0  0  0  0
    6.6118  -15.4782   22.6184 N   0  0  0  0  0  0  0  0  0  0  0  0
    7.1511  -14.2258   22.1627 C   0  0  0  0  0  0  0  0  0  0  0  0
    7.6298  -13.3727   23.2706 C   0  0  0  0  0  0  0  0  0  0  0  0
    8.2554  -12.2915   23.0807 O   0  0  0  0  0  0  0  0  0  0  0  0
    7.3871  -13.7665   24.6139 N   0  0  0  0  0  0  0  0  0  0  0  0
    7.9929  -13.1330   25.7611 C   0  0  1  0  0  0  0  0  0  0  0  0
    7.0364  -12.0199   26.1922 C   0  0  0  0  0  0  0  0  0  0  0  0
    5.4940  -12.8639   26.7003 S   0  0  0  0  0  0  0  0  0  0  0  0
    8.2539  -14.0865   26.8592 C   0  0  0  0  0  0  0  0  0  0  0  0
    7.8050  -15.2422   26.7857 O   0  0  0  0  0  0  0  0  0  0  0  0
    8.9890  -13.7122   27.9648 O   0  0  0  0  0  0  0  0  0  0  0  0
  2  1  1  6
  2  3  1  0
  4  2  1  0
  4  5  2  0
  6  4  1  0
  7  6  1  0
  8  7  1  0
  9  8  2  0
 10  8  1  0
 11 12  1  1
 11 10  1  0
 12 13  1  0
 14 11  1  0
 15 14  2  0
 16 14  1  0
M  END
$$$$
