EVG.pdb
     RDKit          3D

 21 20  0  0  1  0  0  0  0  0999 V2000
   18.5779  -10.8441  -17.4764 N   0  0  0  0  0  0  0  0  0  0  0  0
   19.2814   -9.6050  -17.4871 C   0  0  1  0  0  0  0  0  0  0  0  0
   18.5663   -8.4441  -18.0661 C   0  0  0  0  0  0  0  0  0  0  0  0
   18.0086   -8.5893  -19.4293 C   0  0  0  0  0  0  0  0  0  0  0  0
   16.5438   -8.7617  -19.5060 C   0  0  0  0  0  0  0  0  0  0  0  0
   15.8726   -8.7716  -18.4426 O   0  0  0  0  0  0  0  0  0  0  0  0
   19.8677   -9.3256  -16.1457 C   0  0  0  0  0  0  0  0  0  0  0  0
   19.1703   -9.5590  -15.1376 O   0  0  0  0  0  0  0  0  0  0  0  0
   15.8363   -8.9172  -20.6874 O   0  0  0  0  0  0  0  0  0  0  0  0
   22.3874  -10.9065  -14.2807 C   0  0  0  0  0  0  0  0  0  0  0  0
   22.8897   -9.4696  -14.3460 C   0  0  1  0  0  0  0  0  0  0  0  0
   23.9873   -9.4677  -15.3845 C   0  0  0  0  0  0  0  0  0  0  0  0
   21.7646   -8.5435  -14.6826 C   0  0  2  0  0  0  0  0  0  0  0  0
   21.1786   -8.8079  -15.9677 N   0  0  0  0  0  0  0  0  0  0  0  0
   22.1804   -7.1134  -14.5532 C   0  0  0  0  0  0  0  0  0  0  0  0
   22.9133   -6.5583  -15.4425 O   0  0  0  0  0  0  0  0  0  0  0  0
   21.7880   -6.3086  -13.4508 N   0  0  0  0  0  0  0  0  0  0  0  0
   22.2447   -4.9210  -13.3164 C   0  0  0  0  0  0  0  0  0  0  0  0
   21.2270   -4.0671  -13.9787 C   0  0  0  0  0  0  0  0  0  0  0  0
   21.2991   -2.6889  -14.0619 O   0  0  0  0  0  0  0  0  0  0  0  0
   20.2347   -4.6370  -14.4974 O   0  0  0  0  0  0  0  0  0  0  0  0
  2  1  1  1
  3  2  1  0
  3  4  1  0
  4  5  1  0
  5  9  1  0
  5  6  2  0
  7  2  1  0
  8  7  2  0
 11 12  1  6
 11 10  1  0
 13 11  1  0
 13 14  1  6
 14  7  1  0
 15 17  1  0
 15 13  1  0
 16 15  2  0
 18 17  1  0
 19 18  1  0
 20 19  1  0
 21 19  2  0
M  END
$$$$
