EVG.pdb
     RDKit          3D

 21 20  0  0  1  0  0  0  0  0999 V2000
   17.9537  -13.0423  -16.3257 N   0  0  0  0  0  0  0  0  0  0  0  0
   18.2055  -11.6637  -16.5833 C   0  0  1  0  0  0  0  0  0  0  0  0
   17.0201  -10.8104  -16.8304 C   0  0  0  0  0  0  0  0  0  0  0  0
   16.1743  -11.1298  -18.0021 C   0  0  0  0  0  0  0  0  0  0  0  0
   15.0169  -10.2381  -18.2175 C   0  0  0  0  0  0  0  0  0  0  0  0
   13.8667  -10.7390  -18.3045 O   0  0  0  0  0  0  0  0  0  0  0  0
   19.1320  -11.1018  -15.5601 C   0  0  0  0  0  0  0  0  0  0  0  0
   18.9689  -11.4380  -14.3695 O   0  0  0  0  0  0  0  0  0  0  0  0
   15.1036   -8.8600  -18.3341 O   0  0  0  0  0  0  0  0  0  0  0  0
   23.0358   -9.6076  -16.4154 C   0  0  0  0  0  0  0  0  0  0  0  0
   22.4929  -10.0737  -15.0703 C   0  0  1  0  0  0  0  0  0  0  0  0
   23.4182   -9.4853  -14.0307 C   0  0  0  0  0  0  0  0  0  0  0  0
   21.0730   -9.6339  -14.9055 C   0  0  2  0  0  0  0  0  0  0  0  0
   20.1862  -10.2052  -15.8812 N   0  0  0  0  0  0  0  0  0  0  0  0
   20.9659   -8.1432  -14.8733 C   0  0  0  0  0  0  0  0  0  0  0  0
   21.0226   -7.4562  -15.9508 O   0  0  0  0  0  0  0  0  0  0  0  0
   20.7979   -7.4231  -13.6608 N   0  0  0  0  0  0  0  0  0  0  0  0
   20.6568   -5.9629  -13.6521 C   0  0  0  0  0  0  0  0  0  0  0  0
   22.0241   -5.3994  -13.5241 C   0  0  0  0  0  0  0  0  0  0  0  0
   22.3284   -4.0556  -13.6393 O   0  0  0  0  0  0  0  0  0  0  0  0
   22.9662   -6.1987  -13.2961 O   0  0  0  0  0  0  0  0  0  0  0  0
  2  1  1  1
  3  2  1  0
  3  4  1  0
  4  5  1  0
  5  9  1  0
  5  6  2  0
  7  2  1  0
  8  7  2  0
 11 12  1  1
 11 10  1  0
 13 11  1  0
 13 14  1  6
 14  7  1  0
 15 17  1  0
 15 13  1  0
 16 15  2  0
 18 17  1  0
 19 18  1  0
 20 19  1  0
 21 19  2  0
M  END
$$$$
