EVG.pdb
     RDKit          3D

 21 20  0  0  1  0  0  0  0  0999 V2000
   19.3894  -12.4553  -18.3321 N   0  0  0  0  0  0  0  0  0  0  0  0
   20.4078  -11.4586  -18.3212 C   0  0  1  0  0  0  0  0  0  0  0  0
   20.4316  -10.5257  -19.4717 C   0  0  0  0  0  0  0  0  0  0  0  0
   20.4174  -11.1095  -20.8316 C   0  0  0  0  0  0  0  0  0  0  0  0
   20.5309  -10.1439  -21.9433 C   0  0  0  0  0  0  0  0  0  0  0  0
   19.6374  -10.1219  -22.8280 O   0  0  0  0  0  0  0  0  0  0  0  0
   20.4477  -10.7669  -17.0018 C   0  0  0  0  0  0  0  0  0  0  0  0
   19.3727  -10.6031  -16.3896 O   0  0  0  0  0  0  0  0  0  0  0  0
   21.5707   -9.2396  -22.0896 O   0  0  0  0  0  0  0  0  0  0  0  0
   24.1324   -9.9824  -14.8460 C   0  0  0  0  0  0  0  0  0  0  0  0
   22.7477  -10.1442  -14.2315 C   0  0  1  0  0  0  0  0  0  0  0  0
   22.8012   -9.4173  -12.9079 C   0  0  0  0  0  0  0  0  0  0  0  0
   21.7053   -9.6002  -15.1557 C   0  0  2  0  0  0  0  0  0  0  0  0
   21.6503  -10.2890  -16.4157 N   0  0  0  0  0  0  0  0  0  0  0  0
   21.8614   -8.1253  -15.3434 C   0  0  0  0  0  0  0  0  0  0  0  0
   22.7619   -7.6525  -16.1192 O   0  0  0  0  0  0  0  0  0  0  0  0
   21.0288   -7.1861  -14.6788 N   0  0  0  0  0  0  0  0  0  0  0  0
   21.1282   -5.7484  -14.9525 C   0  0  0  0  0  0  0  0  0  0  0  0
   21.8064   -5.1339  -13.7838 C   0  0  0  0  0  0  0  0  0  0  0  0
   22.1035   -3.7882  -13.6723 O   0  0  0  0  0  0  0  0  0  0  0  0
   22.1315   -5.8890  -12.8338 O   0  0  0  0  0  0  0  0  0  0  0  0
  2  1  1  1
  3  2  1  0
  3  4  1  0
  4  5  1  0
  5  9  1  0
  5  6  2  0
  7  2  1  0
  8  7  2  0
 11 12  1  1
 11 10  1  0
 13 11  1  0
 13 14  1  6
 14  7  1  0
 15 17  1  0
 15 13  1  0
 16 15  2  0
 18 17  1  0
 19 18  1  0
 20 19  1  0
 21 19  2  0
M  END
$$$$
