EVG.pdb
     RDKit          3D

 21 20  0  0  1  0  0  0  0  0999 V2000
   19.5751  -14.6059  -18.3759 N   0  0  0  0  0  0  0  0  0  0  0  0
   19.1806  -13.9136  -17.1946 C   0  0  1  0  0  0  0  0  0  0  0  0
   19.5889  -14.5197  -15.9060 C   0  0  0  0  0  0  0  0  0  0  0  0
   18.9814  -15.8164  -15.5321 C   0  0  0  0  0  0  0  0  0  0  0  0
   17.5384  -15.7802  -15.2197 C   0  0  0  0  0  0  0  0  0  0  0  0
   17.1393  -15.0828  -14.2524 O   0  0  0  0  0  0  0  0  0  0  0  0
   19.5216  -12.4666  -17.2985 C   0  0  0  0  0  0  0  0  0  0  0  0
   20.5755  -12.1504  -17.8871 O   0  0  0  0  0  0  0  0  0  0  0  0
   16.5683  -16.4721  -15.9273 O   0  0  0  0  0  0  0  0  0  0  0  0
   17.6404   -9.8640  -18.9951 C   0  0  0  0  0  0  0  0  0  0  0  0
   17.8711   -9.2950  -17.6008 C   0  0  1  0  0  0  0  0  0  0  0  0
   16.5453   -9.4164  -16.8861 C   0  0  0  0  0  0  0  0  0  0  0  0
   18.9747  -10.0365  -16.9160 C   0  0  2  0  0  0  0  0  0  0  0  0
   18.7027  -11.4388  -16.7590 N   0  0  0  0  0  0  0  0  0  0  0  0
   19.3316   -9.3978  -15.6123 C   0  0  0  0  0  0  0  0  0  0  0  0
   18.8060   -9.7991  -14.5174 O   0  0  0  0  0  0  0  0  0  0  0  0
   20.2603   -8.3270  -15.5241 N   0  0  0  0  0  0  0  0  0  0  0  0
   20.5971   -7.7114  -14.2359 C   0  0  0  0  0  0  0  0  0  0  0  0
   21.7129   -6.7659  -14.4896 C   0  0  0  0  0  0  0  0  0  0  0  0
   22.2276   -5.8949  -13.5472 O   0  0  0  0  0  0  0  0  0  0  0  0
   22.2221   -6.7583  -15.6381 O   0  0  0  0  0  0  0  0  0  0  0  0
  2  1  1  6
  3  2  1  0
  3  4  1  0
  4  5  1  0
  5  9  1  0
  5  6  2  0
  7  2  1  0
  8  7  2  0
 11 12  1  1
 11 10  1  0
 13 11  1  0
 13 14  1  1
 14  7  1  0
 15 17  1  0
 15 13  1  0
 16 15  2  0
 18 17  1  0
 19 18  1  0
 20 19  1  0
 21 19  2  0
M  END
$$$$
