EVG.pdb
     RDKit          3D

 21 20  0  0  1  0  0  0  0  0999 V2000
   14.0792  -10.9040  -13.1466 N   0  0  0  0  0  0  0  0  0  0  0  0
   15.4784  -10.7317  -12.9387 C   0  0  1  0  0  0  0  0  0  0  0  0
   16.3769  -11.3665  -13.9308 C   0  0  0  0  0  0  0  0  0  0  0  0
   16.3047  -12.8368  -14.0832 C   0  0  0  0  0  0  0  0  0  0  0  0
   17.2887  -13.4328  -15.0093 C   0  0  0  0  0  0  0  0  0  0  0  0
   18.0826  -12.6781  -15.6269 O   0  0  0  0  0  0  0  0  0  0  0  0
   15.7967   -9.2973  -12.6894 C   0  0  0  0  0  0  0  0  0  0  0  0
   15.1770   -8.4339  -13.3432 O   0  0  0  0  0  0  0  0  0  0  0  0
   17.4066  -14.7915  -15.2554 O   0  0  0  0  0  0  0  0  0  0  0  0
   15.0902   -7.1072  -10.1576 C   0  0  0  0  0  0  0  0  0  0  0  0
   16.6055   -6.9633  -10.2229 C   0  0  1  0  0  0  0  0  0  0  0  0
   17.1385   -7.7106   -9.0227 C   0  0  0  0  0  0  0  0  0  0  0  0
   17.1201   -7.4988  -11.5211 C   0  0  2  0  0  0  0  0  0  0  0  0
   16.7700   -8.8744  -11.7449 N   0  0  0  0  0  0  0  0  0  0  0  0
   18.5927   -7.2790  -11.6543 C   0  0  0  0  0  0  0  0  0  0  0  0
   19.4293   -8.1244  -11.1835 O   0  0  0  0  0  0  0  0  0  0  0  0
   19.1310   -6.1354  -12.3019 N   0  0  0  0  0  0  0  0  0  0  0  0
   20.5794   -5.9349  -12.4203 C   0  0  0  0  0  0  0  0  0  0  0  0
   20.7795   -4.7382  -13.2753 C   0  0  0  0  0  0  0  0  0  0  0  0
   21.9975   -4.1140  -13.4719 O   0  0  0  0  0  0  0  0  0  0  0  0
   19.7735   -4.2622  -13.8583 O   0  0  0  0  0  0  0  0  0  0  0  0
  2  1  1  6
  3  2  1  0
  3  4  1  0
  4  5  1  0
  5  9  1  0
  5  6  2  0
  7  2  1  0
  8  7  2  0
 11 12  1  1
 11 10  1  0
 13 11  1  0
 13 14  1  1
 14  7  1  0
 15 17  1  0
 15 13  1  0
 16 15  2  0
 18 17  1  0
 19 18  1  0
 20 19  1  0
 21 19  2  0
M  END
$$$$
