EVG.pdb
     RDKit          3D

 21 20  0  0  1  0  0  0  0  0999 V2000
   10.6430  -10.7604  -10.1496 N   0  0  0  0  0  0  0  0  0  0  0  0
   12.0403  -10.8693   -9.8922 C   0  0  1  0  0  0  0  0  0  0  0  0
   12.6795  -12.1571  -10.2492 C   0  0  0  0  0  0  0  0  0  0  0  0
   12.5712  -12.6135  -11.6529 C   0  0  0  0  0  0  0  0  0  0  0  0
   13.1207  -13.9553  -11.9333 C   0  0  0  0  0  0  0  0  0  0  0  0
   14.3586  -14.1454  -11.8192 O   0  0  0  0  0  0  0  0  0  0  0  0
   12.7647   -9.6836  -10.4309 C   0  0  0  0  0  0  0  0  0  0  0  0
   12.2954   -9.1130  -11.4365 O   0  0  0  0  0  0  0  0  0  0  0  0
   12.3591  -15.0459  -12.3218 O   0  0  0  0  0  0  0  0  0  0  0  0
   16.0914   -7.7896   -8.3243 C   0  0  0  0  0  0  0  0  0  0  0  0
   15.0676   -7.0913   -9.2105 C   0  0  1  0  0  0  0  0  0  0  0  0
   15.7464   -5.8360   -9.7071 C   0  0  0  0  0  0  0  0  0  0  0  0
   14.6366   -8.0001  -10.3174 C   0  0  2  0  0  0  0  0  0  0  0  0
   13.9595   -9.1788   -9.8513 N   0  0  0  0  0  0  0  0  0  0  0  0
   15.7814   -8.3441  -11.2151 C   0  0  0  0  0  0  0  0  0  0  0  0
   16.6244   -9.2491  -10.8889 O   0  0  0  0  0  0  0  0  0  0  0  0
   15.9886   -7.6923  -12.4598 N   0  0  0  0  0  0  0  0  0  0  0  0
   17.1264   -8.0327  -13.3209 C   0  0  0  0  0  0  0  0  0  0  0  0
   18.1191   -6.9389  -13.1742 C   0  0  0  0  0  0  0  0  0  0  0  0
   19.3617   -6.9261  -13.7804 O   0  0  0  0  0  0  0  0  0  0  0  0
   17.8074   -5.9605  -12.4503 O   0  0  0  0  0  0  0  0  0  0  0  0
  2  1  1  6
  3  2  1  0
  3  4  1  0
  4  5  1  0
  5  9  1  0
  5  6  2  0
  7  2  1  0
  8  7  2  0
 11 12  1  6
 11 10  1  0
 13 11  1  0
 13 14  1  1
 14  7  1  0
 15 17  1  0
 15 13  1  0
 16 15  2  0
 18 17  1  0
 19 18  1  0
 20 19  1  0
 21 19  2  0
M  END
$$$$
