EVG.pdb
     RDKit          3D

 21 20  0  0  1  0  0  0  0  0999 V2000
   26.7834  -21.9182  -13.1858 N   0  0  0  0  0  0  0  0  0  0  0  0
   26.2841  -20.6475  -12.7777 C   0  0  1  0  0  0  0  0  0  0  0  0
   26.5634  -20.2459  -11.3794 C   0  0  0  0  0  0  0  0  0  0  0  0
   25.8462  -20.9624  -10.3011 C   0  0  0  0  0  0  0  0  0  0  0  0
   24.3721  -20.9370  -10.3869 C   0  0  0  0  0  0  0  0  0  0  0  0
   23.8267  -20.4080  -11.3890 O   0  0  0  0  0  0  0  0  0  0  0  0
   26.6451  -19.5998  -13.7741 C   0  0  0  0  0  0  0  0  0  0  0  0
   27.8468  -19.4710  -14.0846 O   0  0  0  0  0  0  0  0  0  0  0  0
   23.5244  -21.4635   -9.4253 O   0  0  0  0  0  0  0  0  0  0  0  0
   26.2893  -19.4703  -17.0942 C   0  0  0  0  0  0  0  0  0  0  0  0
   25.6637  -18.1246  -16.7494 C   0  0  1  0  0  0  0  0  0  0  0  0
   24.1778  -18.2991  -16.9609 C   0  0  0  0  0  0  0  0  0  0  0  0
   26.0133  -17.7359  -15.3482 C   0  0  2  0  0  0  0  0  0  0  0  0
   25.6848  -18.7469  -14.3813 N   0  0  0  0  0  0  0  0  0  0  0  0
   25.4150  -16.4149  -14.9851 C   0  0  0  0  0  0  0  0  0  0  0  0
   24.2366  -16.3392  -14.4936 O   0  0  0  0  0  0  0  0  0  0  0  0
   26.1154  -15.1926  -15.1650 N   0  0  0  0  0  0  0  0  0  0  0  0
   25.4938  -13.9017  -14.8498 C   0  0  0  0  0  0  0  0  0  0  0  0
   24.5915  -13.5712  -15.9812 C   0  0  0  0  0  0  0  0  0  0  0  0
   23.7360  -12.4853  -16.0059 O   0  0  0  0  0  0  0  0  0  0  0  0
   24.6078  -14.3304  -16.9822 O   0  0  0  0  0  0  0  0  0  0  0  0
  2  1  1  6
  3  2  1  0
  3  4  1  0
  4  5  1  0
  5  9  1  0
  5  6  2  0
  7  2  1  0
  8  7  2  0
 11 12  1  1
 11 10  1  0
 13 11  1  0
 13 14  1  1
 14  7  1  0
 15 17  1  0
 15 13  1  0
 16 15  2  0
 18 17  1  0
 19 18  1  0
 20 19  1  0
 21 19  2  0
M  END
$$$$
