EVG.pdb
     RDKit          3D

 21 20  0  0  1  0  0  0  0  0999 V2000
   27.8105  -22.2873  -15.7445 N   0  0  0  0  0  0  0  0  0  0  0  0
   26.9561  -21.1981  -15.4066 C   0  0  1  0  0  0  0  0  0  0  0  0
   26.3956  -20.4225  -16.5373 C   0  0  0  0  0  0  0  0  0  0  0  0
   27.3151  -20.0393  -17.6320 C   0  0  0  0  0  0  0  0  0  0  0  0
   26.7375  -19.1713  -18.6780 C   0  0  0  0  0  0  0  0  0  0  0  0
   26.4264  -17.9879  -18.3878 O   0  0  0  0  0  0  0  0  0  0  0  0
   25.9252  -21.6293  -14.4205 C   0  0  0  0  0  0  0  0  0  0  0  0
   25.3272  -22.7051  -14.6256 O   0  0  0  0  0  0  0  0  0  0  0  0
   26.5066  -19.5706  -19.9848 O   0  0  0  0  0  0  0  0  0  0  0  0
   26.2540  -21.9606  -10.7293 C   0  0  0  0  0  0  0  0  0  0  0  0
   24.9589  -21.1814  -10.9207 C   0  0  1  0  0  0  0  0  0  0  0  0
   25.2475  -19.7827  -10.4271 C   0  0  0  0  0  0  0  0  0  0  0  0
   24.5395  -21.2202  -12.3557 C   0  0  2  0  0  0  0  0  0  0  0  0
   25.5968  -20.8718  -13.2644 N   0  0  0  0  0  0  0  0  0  0  0  0
   23.3198  -20.3877  -12.5883 C   0  0  0  0  0  0  0  0  0  0  0  0
   23.3959  -19.1124  -12.6507 O   0  0  0  0  0  0  0  0  0  0  0  0
   22.0314  -20.9627  -12.7500 N   0  0  0  0  0  0  0  0  0  0  0  0
   20.8371  -20.1275  -12.9176 C   0  0  0  0  0  0  0  0  0  0  0  0
   19.7013  -20.8770  -12.3244 C   0  0  0  0  0  0  0  0  0  0  0  0
   18.4282  -20.3636  -12.1600 O   0  0  0  0  0  0  0  0  0  0  0  0
   19.9135  -22.0565  -11.9472 O   0  0  0  0  0  0  0  0  0  0  0  0
  2  1  1  6
  3  2  1  0
  3  4  1  0
  4  5  1  0
  5  9  1  0
  5  6  2  0
  7  2  1  0
  8  7  2  0
 11 12  1  6
 11 10  1  0
 13 11  1  0
 13 14  1  6
 14  7  1  0
 15 17  1  0
 15 13  1  0
 16 15  2  0
 18 17  1  0
 19 18  1  0
 20 19  1  0
 21 19  2  0
M  END
$$$$
