EVG.pdb
     RDKit          3D

 21 20  0  0  1  0  0  0  0  0999 V2000
   21.7626  -12.8553  -17.8873 N   0  0  0  0  0  0  0  0  0  0  0  0
   22.2774  -11.5385  -18.0641 C   0  0  1  0  0  0  0  0  0  0  0  0
   22.5798  -11.1284  -19.4551 C   0  0  0  0  0  0  0  0  0  0  0  0
   21.4782  -11.1782  -20.4422 C   0  0  0  0  0  0  0  0  0  0  0  0
   21.8123  -10.6977  -21.7982 C   0  0  0  0  0  0  0  0  0  0  0  0
   22.9779  -10.2872  -22.0317 O   0  0  0  0  0  0  0  0  0  0  0  0
   21.4428  -10.5480  -17.3269 C   0  0  0  0  0  0  0  0  0  0  0  0
   20.2141  -10.5347  -17.5445 O   0  0  0  0  0  0  0  0  0  0  0  0
   20.9191  -10.6635  -22.8571 O   0  0  0  0  0  0  0  0  0  0  0  0
   21.6857   -9.8023  -13.4501 C   0  0  0  0  0  0  0  0  0  0  0  0
   20.5873   -9.3440  -14.4012 C   0  0  1  0  0  0  0  0  0  0  0  0
   19.7288   -8.3900  -13.6038 C   0  0  0  0  0  0  0  0  0  0  0  0
   21.1868   -8.7138  -15.6178 C   0  0  2  0  0  0  0  0  0  0  0  0
   21.9837   -9.6242  -16.3930 N   0  0  0  0  0  0  0  0  0  0  0  0
   21.9504   -7.4768  -15.2690 C   0  0  0  0  0  0  0  0  0  0  0  0
   23.0963   -7.5481  -14.7052 O   0  0  0  0  0  0  0  0  0  0  0  0
   21.4490   -6.1764  -15.5424 N   0  0  0  0  0  0  0  0  0  0  0  0
   22.2365   -4.9752  -15.2441 C   0  0  0  0  0  0  0  0  0  0  0  0
   21.8995   -4.5739  -13.8553 C   0  0  0  0  0  0  0  0  0  0  0  0
   22.4976   -3.5272  -13.1783 O   0  0  0  0  0  0  0  0  0  0  0  0
   21.0112   -5.2307  -13.2570 O   0  0  0  0  0  0  0  0  0  0  0  0
  2  1  1  6
  3  2  1  0
  3  4  1  0
  4  5  1  0
  5  9  1  0
  5  6  2  0
  7  2  1  0
  8  7  2  0
 11 12  1  1
 11 10  1  0
 13 11  1  0
 13 14  1  1
 14  7  1  0
 15 17  1  0
 15 13  1  0
 16 15  2  0
 18 17  1  0
 19 18  1  0
 20 19  1  0
 21 19  2  0
M  END
$$$$
