EVG.pdb
     RDKit          3D

 21 20  0  0  1  0  0  0  0  0999 V2000
   22.4151  -13.3660  -18.7419 N   0  0  0  0  0  0  0  0  0  0  0  0
   22.5951  -11.9563  -18.6375 C   0  0  1  0  0  0  0  0  0  0  0  0
   21.5047  -11.1094  -19.1744 C   0  0  0  0  0  0  0  0  0  0  0  0
   21.0456  -11.3728  -20.5565 C   0  0  0  0  0  0  0  0  0  0  0  0
   20.0283  -10.4396  -21.0812 C   0  0  0  0  0  0  0  0  0  0  0  0
   19.6302   -9.4955  -20.3519 O   0  0  0  0  0  0  0  0  0  0  0  0
   23.0031  -11.5829  -17.2536 C   0  0  0  0  0  0  0  0  0  0  0  0
   22.4509  -12.1665  -16.2988 O   0  0  0  0  0  0  0  0  0  0  0  0
   19.4657  -10.5269  -22.3446 O   0  0  0  0  0  0  0  0  0  0  0  0
   26.3385  -11.5732  -15.5567 C   0  0  0  0  0  0  0  0  0  0  0  0
   25.7855  -10.1656  -15.3719 C   0  0  1  0  0  0  0  0  0  0  0  0
   26.5790   -9.2888  -16.3125 C   0  0  0  0  0  0  0  0  0  0  0  0
   24.3168  -10.1461  -15.6534 C   0  0  2  0  0  0  0  0  0  0  0  0
   23.9878  -10.5968  -16.9776 N   0  0  0  0  0  0  0  0  0  0  0  0
   23.7266   -8.8024  -15.3690 C   0  0  0  0  0  0  0  0  0  0  0  0
   23.8265   -8.2721  -14.2093 O   0  0  0  0  0  0  0  0  0  0  0  0
   23.0339   -8.0559  -16.3589 N   0  0  0  0  0  0  0  0  0  0  0  0
   22.5760   -6.6861  -16.1022 C   0  0  0  0  0  0  0  0  0  0  0  0
   21.1739   -6.7836  -15.6249 C   0  0  0  0  0  0  0  0  0  0  0  0
   20.4924   -7.9726  -15.4419 O   0  0  0  0  0  0  0  0  0  0  0  0
   20.5677   -5.7128  -15.3708 O   0  0  0  0  0  0  0  0  0  0  0  0
  2  1  1  1
  3  2  1  0
  3  4  1  0
  4  5  1  0
  5  9  1  0
  5  6  2  0
  7  2  1  0
  8  7  2  0
 11 12  1  6
 11 10  1  0
 13 11  1  0
 13 14  1  6
 14  7  1  0
 15 17  1  0
 15 13  1  0
 16 15  2  0
 18 17  1  0
 19 18  1  0
 20 19  1  0
 21 19  2  0
M  END
$$$$
