EVG.pdb
     RDKit          3D

 21 20  0  0  1  0  0  0  0  0999 V2000
   24.2857  -19.5650  -16.7336 N   0  0  0  0  0  0  0  0  0  0  0  0
   23.9014  -19.0323  -15.4692 C   0  0  1  0  0  0  0  0  0  0  0  0
   22.9032  -17.9378  -15.4890 C   0  0  0  0  0  0  0  0  0  0  0  0
   23.1385  -16.8084  -16.4161 C   0  0  0  0  0  0  0  0  0  0  0  0
   22.9540  -17.1091  -17.8502 C   0  0  0  0  0  0  0  0  0  0  0  0
   22.1173  -17.9847  -18.1888 O   0  0  0  0  0  0  0  0  0  0  0  0
   23.5519  -20.1303  -14.5241 C   0  0  0  0  0  0  0  0  0  0  0  0
   22.9155  -21.1083  -14.9665 O   0  0  0  0  0  0  0  0  0  0  0  0
   23.6485  -16.4858  -18.8747 O   0  0  0  0  0  0  0  0  0  0  0  0
   25.9001  -21.7357  -11.9772 C   0  0  0  0  0  0  0  0  0  0  0  0
   24.5933  -21.4787  -11.2372 C   0  0  1  0  0  0  0  0  0  0  0  0
   24.8936  -20.3745  -10.2504 C   0  0  0  0  0  0  0  0  0  0  0  0
   23.5126  -21.1189  -12.2064 C   0  0  2  0  0  0  0  0  0  0  0  0
   23.9103  -20.1104  -13.1496 N   0  0  0  0  0  0  0  0  0  0  0  0
   22.2514  -20.7408  -11.4984 C   0  0  0  0  0  0  0  0  0  0  0  0
   22.0814  -19.5573  -11.0441 O   0  0  0  0  0  0  0  0  0  0  0  0
   21.1913  -21.6643  -11.2970 N   0  0  0  0  0  0  0  0  0  0  0  0
   19.9979  -21.3016  -10.5248 C   0  0  0  0  0  0  0  0  0  0  0  0
   19.0696  -22.4575  -10.5994 C   0  0  0  0  0  0  0  0  0  0  0  0
   17.8458  -22.5183   -9.9589 O   0  0  0  0  0  0  0  0  0  0  0  0
   19.4217  -23.4455  -11.2910 O   0  0  0  0  0  0  0  0  0  0  0  0
  2  1  1  6
  3  2  1  0
  3  4  1  0
  4  5  1  0
  5  9  1  0
  5  6  2  0
  7  2  1  0
  8  7  2  0
 11 12  1  1
 11 10  1  0
 13 11  1  0
 13 14  1  1
 14  7  1  0
 15 17  1  0
 15 13  1  0
 16 15  2  0
 18 17  1  0
 19 18  1  0
 20 19  1  0
 21 19  2  0
M  END
$$$$
