EVG.pdb
     RDKit          3D

 21 20  0  0  1  0  0  0  0  0999 V2000
   18.0390  -12.4237  -16.0805 N   0  0  0  0  0  0  0  0  0  0  0  0
   18.4923  -11.1921  -16.6357 C   0  0  1  0  0  0  0  0  0  0  0  0
   17.4464  -10.2156  -17.0193 C   0  0  0  0  0  0  0  0  0  0  0  0
   16.4363  -10.6436  -18.0127 C   0  0  0  0  0  0  0  0  0  0  0  0
   16.5305  -10.0001  -19.3386 C   0  0  0  0  0  0  0  0  0  0  0  0
   16.3432   -8.7600  -19.4313 O   0  0  0  0  0  0  0  0  0  0  0  0
   19.5667  -10.6013  -15.7886 C   0  0  0  0  0  0  0  0  0  0  0  0
   19.3543  -10.4835  -14.5646 O   0  0  0  0  0  0  0  0  0  0  0  0
   16.8159  -10.6738  -20.5155 O   0  0  0  0  0  0  0  0  0  0  0  0
   24.2304   -9.8225  -14.7416 C   0  0  0  0  0  0  0  0  0  0  0  0
   23.1735  -10.3750  -15.6897 C   0  0  1  0  0  0  0  0  0  0  0  0
   23.0707  -11.8487  -15.3720 C   0  0  0  0  0  0  0  0  0  0  0  0
   21.8811   -9.6454  -15.5048 C   0  0  2  0  0  0  0  0  0  0  0  0
   20.8144  -10.1692  -16.3127 N   0  0  0  0  0  0  0  0  0  0  0  0
   22.0530   -8.1746  -15.7099 C   0  0  0  0  0  0  0  0  0  0  0  0
   22.3902   -7.7044  -16.8506 O   0  0  0  0  0  0  0  0  0  0  0  0
   21.8530   -7.2367  -14.6624 N   0  0  0  0  0  0  0  0  0  0  0  0
   22.1056   -5.8051  -14.8596 C   0  0  0  0  0  0  0  0  0  0  0  0
   21.7655   -5.1284  -13.5830 C   0  0  0  0  0  0  0  0  0  0  0  0
   22.5239   -5.2105  -12.4298 O   0  0  0  0  0  0  0  0  0  0  0  0
   20.7180   -4.4355  -13.5504 O   0  0  0  0  0  0  0  0  0  0  0  0
  2  1  1  1
  3  2  1  0
  3  4  1  0
  4  5  1  0
  5  9  1  0
  5  6  2  0
  7  2  1  0
  8  7  2  0
 11 12  1  1
 11 10  1  0
 13 11  1  0
 13 14  1  6
 14  7  1  0
 15 17  1  0
 15 13  1  0
 16 15  2  0
 18 17  1  0
 19 18  1  0
 20 19  1  0
 21 19  2  0
M  END
$$$$
