EVG.pdb
     RDKit          3D

 21 20  0  0  1  0  0  0  0  0999 V2000
   16.2952  -11.8417  -16.5103 N   0  0  0  0  0  0  0  0  0  0  0  0
   17.4475  -11.5610  -15.7204 C   0  0  1  0  0  0  0  0  0  0  0  0
   18.3502  -12.7016  -15.4399 C   0  0  0  0  0  0  0  0  0  0  0  0
   17.7807  -13.8738  -14.7384 C   0  0  0  0  0  0  0  0  0  0  0  0
   17.5015  -15.0518  -15.5842 C   0  0  0  0  0  0  0  0  0  0  0  0
   18.4608  -15.7631  -15.9783 O   0  0  0  0  0  0  0  0  0  0  0  0
   18.1602  -10.3615  -16.2439 C   0  0  0  0  0  0  0  0  0  0  0  0
   18.0764  -10.1119  -17.4637 O   0  0  0  0  0  0  0  0  0  0  0  0
   16.2340  -15.4421  -15.9863 O   0  0  0  0  0  0  0  0  0  0  0  0
   17.5326   -6.9208  -15.5714 C   0  0  0  0  0  0  0  0  0  0  0  0
   18.6184   -7.3472  -16.5514 C   0  0  1  0  0  0  0  0  0  0  0  0
   19.2852   -6.0688  -17.0032 C   0  0  0  0  0  0  0  0  0  0  0  0
   19.5650   -8.2990  -15.8920 C   0  0  2  0  0  0  0  0  0  0  0  0
   18.9263   -9.4959  -15.4181 N   0  0  0  0  0  0  0  0  0  0  0  0
   20.3442   -7.6270  -14.8075 C   0  0  0  0  0  0  0  0  0  0  0  0
   19.8053   -7.3608  -13.6784 O   0  0  0  0  0  0  0  0  0  0  0  0
   21.7047   -7.2549  -14.9733 N   0  0  0  0  0  0  0  0  0  0  0  0
   22.4613   -6.6201  -13.8886 C   0  0  0  0  0  0  0  0  0  0  0  0
   22.0876   -5.1835  -13.8870 C   0  0  0  0  0  0  0  0  0  0  0  0
   22.5265   -4.2639  -12.9525 O   0  0  0  0  0  0  0  0  0  0  0  0
   21.3212   -4.7785  -14.7964 O   0  0  0  0  0  0  0  0  0  0  0  0
  2  1  1  6
  3  2  1  0
  3  4  1  0
  4  5  1  0
  5  9  1  0
  5  6  2  0
  7  2  1  0
  8  7  2  0
 11 12  1  1
 11 10  1  0
 13 11  1  0
 13 14  1  1
 14  7  1  0
 15 17  1  0
 15 13  1  0
 16 15  2  0
 18 17  1  0
 19 18  1  0
 20 19  1  0
 21 19  2  0
M  END
$$$$
