EVG.pdb
     RDKit          3D

 21 20  0  0  1  0  0  0  0  0999 V2000
   19.8365  -12.0628  -18.6093 N   0  0  0  0  0  0  0  0  0  0  0  0
   20.7466  -11.0874  -18.1085 C   0  0  1  0  0  0  0  0  0  0  0  0
   21.7311  -10.5452  -19.0734 C   0  0  0  0  0  0  0  0  0  0  0  0
   22.6292  -11.5052  -19.7533 C   0  0  0  0  0  0  0  0  0  0  0  0
   23.5053  -10.9334  -20.7957 C   0  0  0  0  0  0  0  0  0  0  0  0
   23.1084  -10.9209  -21.9889 O   0  0  0  0  0  0  0  0  0  0  0  0
   20.0158  -10.0288  -17.3560 C   0  0  0  0  0  0  0  0  0  0  0  0
   18.7922   -9.8972  -17.5625 O   0  0  0  0  0  0  0  0  0  0  0  0
   24.7602  -10.3975  -20.5539 O   0  0  0  0  0  0  0  0  0  0  0  0
   17.9368   -9.6082  -15.7166 C   0  0  0  0  0  0  0  0  0  0  0  0
   18.8266   -8.7315  -14.8442 C   0  0  1  0  0  0  0  0  0  0  0  0
   19.2937   -9.6202  -13.7150 C   0  0  0  0  0  0  0  0  0  0  0  0
   19.9536   -8.1724  -15.6529 C   0  0  2  0  0  0  0  0  0  0  0  0
   20.6495   -9.1688  -16.4196 N   0  0  0  0  0  0  0  0  0  0  0  0
   20.8931   -7.3805  -14.8014 C   0  0  0  0  0  0  0  0  0  0  0  0
   22.0158   -7.8689  -14.4310 O   0  0  0  0  0  0  0  0  0  0  0  0
   20.5911   -6.0629  -14.3659 N   0  0  0  0  0  0  0  0  0  0  0  0
   21.5498   -5.2791  -13.5794 C   0  0  0  0  0  0  0  0  0  0  0  0
   22.2190   -4.3473  -14.5213 C   0  0  0  0  0  0  0  0  0  0  0  0
   23.1039   -3.3553  -14.1413 O   0  0  0  0  0  0  0  0  0  0  0  0
   21.9624   -4.4699  -15.7451 O   0  0  0  0  0  0  0  0  0  0  0  0
  2  1  1  6
  3  2  1  0
  3  4  1  0
  4  5  1  0
  5  9  1  0
  5  6  2  0
  7  2  1  0
  8  7  2  0
 11 12  1  1
 11 10  1  0
 13 11  1  0
 13 14  1  1
 14  7  1  0
 15 17  1  0
 15 13  1  0
 16 15  2  0
 18 17  1  0
 19 18  1  0
 20 19  1  0
 21 19  2  0
M  END
$$$$
