HEP.pdb
     RDKit          3D

 27 28  0  0  1  0  0  0  0  0999 V2000
   25.4317  -15.5036  -17.1500 N   0  0  0  0  0  0  0  0  0  0  0  0
   26.0183  -16.7647  -16.7681 C   0  0  1  0  0  0  0  0  0  0  0  0
   27.4952  -16.4896  -16.4896 C   0  0  0  0  0  0  0  0  0  0  0  0
   28.1845  -16.1537  -17.7865 C   0  0  0  0  0  0  0  0  0  0  0  0
   28.5418  -17.0335  -18.7845 C   0  0  0  0  0  0  0  0  0  0  0  0
   29.1366  -16.3697  -19.7861 N   0  0  0  0  0  0  0  0  0  0  0  0
   29.1579  -15.0757  -19.4286 C   0  0  0  0  0  0  0  0  0  0  0  0
   28.5843  -14.9450  -18.2236 N   0  0  0  0  0  0  0  0  0  0  0  0
   25.3442  -17.3929  -15.6261 C   0  0  0  0  0  0  0  0  0  0  0  0
   25.3237  -16.8248  -14.5080 O   0  0  0  0  0  0  0  0  0  0  0  0
   24.7011  -18.6426  -15.7287 N   0  0  0  0  0  0  0  0  0  0  0  0
   24.0895  -19.3038  -14.5873 C   0  0  1  0  0  0  0  0  0  0  0  0
   22.6269  -19.4786  -14.8258 C   0  0  0  0  0  0  0  0  0  0  0  0
   21.8418  -20.2610  -13.8371 C   0  0  0  0  0  0  0  0  0  0  0  0
   20.4289  -20.4111  -14.0933 C   0  0  0  0  0  0  0  0  0  0  0  0
   19.9233  -21.1420  -14.9546 O   0  0  0  0  0  0  0  0  0  0  0  0
   24.7821  -20.5238  -14.2180 C   0  0  0  0  0  0  0  0  0  0  0  0
   25.1175  -21.3408  -15.0967 O   0  0  0  0  0  0  0  0  0  0  0  0
   19.5415  -19.6597  -13.2936 O   0  0  0  0  0  0  0  0  0  0  0  0
   25.1095  -20.8376  -12.8682 N   0  0  0  0  0  0  0  0  0  0  0  0
   24.7946  -19.9686  -11.7228 C   0  0  0  0  0  0  0  0  0  0  0  0
   25.0509  -20.7470  -10.4754 C   0  0  0  0  0  0  0  0  0  0  0  0
   26.1793  -21.6699  -10.9127 C   0  0  0  0  0  0  0  0  0  0  0  0
   25.7838  -22.0006  -12.3508 C   0  0  1  0  0  0  0  0  0  0  0  0
   24.9055  -23.2025  -12.3693 C   0  0  0  0  0  0  0  0  0  0  0  0
   25.4285  -24.4672  -12.2461 O   0  0  0  0  0  0  0  0  0  0  0  0
   23.6784  -23.0437  -12.5000 O   0  0  0  0  0  0  0  0  0  0  0  0
  2  1  1  1
  2  3  1  0
  3  4  1  0
  4  5  2  0
  4  8  1  0
  5  6  1  0
  6  7  1  0
  8  7  2  0
  9  2  1  0
  9 10  2  0
 11  9  1  0
 12 11  1  0
 12 17  1  0
 12 13  1  6
 14 13  1  0
 15 14  1  0
 16 15  2  0
 17 20  1  0
 18 17  2  0
 19 15  1  0
 20 24  1  0
 20 21  1  0
 21 22  1  0
 23 22  1  0
 24 23  1  0
 25 26  1  0
 24 25  1  1
 27 25  2  0
M  END
$$$$
