HEP.pdb
     RDKit          3D

 27 28  0  0  1  0  0  0  0  0999 V2000
   20.5187  -35.9726  -13.2497 N   0  0  0  0  0  0  0  0  0  0  0  0
   20.3355  -35.0950  -12.1198 C   0  0  1  0  0  0  0  0  0  0  0  0
   18.9212  -35.3467  -11.5997 C   0  0  0  0  0  0  0  0  0  0  0  0
   17.9299  -34.7610  -12.5716 C   0  0  0  0  0  0  0  0  0  0  0  0
   17.3987  -35.3781  -13.6828 C   0  0  0  0  0  0  0  0  0  0  0  0
   16.5513  -34.5461  -14.3050 N   0  0  0  0  0  0  0  0  0  0  0  0
   16.5428  -33.4065  -13.5949 C   0  0  0  0  0  0  0  0  0  0  0  0
   17.3735  -33.5356  -12.5503 N   0  0  0  0  0  0  0  0  0  0  0  0
   21.3523  -35.2759  -11.0773 C   0  0  0  0  0  0  0  0  0  0  0  0
   21.6768  -36.4265  -10.6977 O   0  0  0  0  0  0  0  0  0  0  0  0
   21.9993  -34.1854  -10.4627 N   0  0  0  0  0  0  0  0  0  0  0  0
   23.0031  -34.3551   -9.4245 C   0  0  1  0  0  0  0  0  0  0  0  0
   24.0316  -33.2794   -9.5324 C   0  0  0  0  0  0  0  0  0  0  0  0
   25.1293  -33.2533   -8.5323 C   0  0  0  0  0  0  0  0  0  0  0  0
   26.1397  -32.2348   -8.6945 C   0  0  0  0  0  0  0  0  0  0  0  0
   27.1533  -32.1035   -7.9966 O   0  0  0  0  0  0  0  0  0  0  0  0
   22.4169  -34.4876   -8.1043 C   0  0  0  0  0  0  0  0  0  0  0  0
   21.4254  -33.8016   -7.7906 O   0  0  0  0  0  0  0  0  0  0  0  0
   25.9599  -31.3037   -9.7396 O   0  0  0  0  0  0  0  0  0  0  0  0
   22.9290  -35.3889   -7.1281 N   0  0  0  0  0  0  0  0  0  0  0  0
   24.1071  -36.2458   -7.3384 C   0  0  0  0  0  0  0  0  0  0  0  0
   24.4820  -36.8375   -6.0205 C   0  0  0  0  0  0  0  0  0  0  0  0
   23.1304  -36.9308   -5.3272 C   0  0  0  0  0  0  0  0  0  0  0  0
   22.4391  -35.6530   -5.7994 C   0  0  1  0  0  0  0  0  0  0  0  0
   22.7482  -34.5364   -4.8645 C   0  0  0  0  0  0  0  0  0  0  0  0
   22.2456  -34.5201   -3.5857 O   0  0  0  0  0  0  0  0  0  0  0  0
   23.4752  -33.6083   -5.2620 O   0  0  0  0  0  0  0  0  0  0  0  0
  2  1  1  6
  2  3  1  0
  3  4  1  0
  4  5  2  0
  4  8  1  0
  5  6  1  0
  6  7  1  0
  8  7  2  0
  9  2  1  0
  9 10  2  0
 11  9  1  0
 12 11  1  0
 12 17  1  0
 12 13  1  1
 14 13  1  0
 15 14  1  0
 16 15  2  0
 17 20  1  0
 18 17  2  0
 19 15  1  0
 20 24  1  0
 20 21  1  0
 21 22  1  0
 23 22  1  0
 24 23  1  0
 25 26  1  0
 24 25  1  1
 27 25  2  0
M  END
$$$$
