HEP.pdb
     RDKit          3D

 27 28  0  0  1  0  0  0  0  0999 V2000
   30.0220  -22.8304  -18.2296 N   0  0  0  0  0  0  0  0  0  0  0  0
   29.0345  -23.2256  -17.2555 C   0  0  1  0  0  0  0  0  0  0  0  0
   29.6754  -24.3244  -16.4093 C   0  0  0  0  0  0  0  0  0  0  0  0
   29.7350  -25.5942  -17.2181 C   0  0  0  0  0  0  0  0  0  0  0  0
   30.8632  -26.3149  -17.5429 C   0  0  0  0  0  0  0  0  0  0  0  0
   30.5249  -27.3865  -18.2742 N   0  0  0  0  0  0  0  0  0  0  0  0
   29.1900  -27.3487  -18.4143 C   0  0  0  0  0  0  0  0  0  0  0  0
   28.7136  -26.2688  -17.7781 N   0  0  0  0  0  0  0  0  0  0  0  0
   28.5483  -22.1070  -16.4395 C   0  0  0  0  0  0  0  0  0  0  0  0
   29.3540  -21.2827  -15.9449 O   0  0  0  0  0  0  0  0  0  0  0  0
   27.1781  -21.9104  -16.1758 N   0  0  0  0  0  0  0  0  0  0  0  0
   26.6890  -20.8176  -15.3507 C   0  0  1  0  0  0  0  0  0  0  0  0
   26.3959  -19.6292  -16.2042 C   0  0  0  0  0  0  0  0  0  0  0  0
   25.8947  -18.3964  -15.5448 C   0  0  0  0  0  0  0  0  0  0  0  0
   25.5468  -17.2890  -16.4033 C   0  0  0  0  0  0  0  0  0  0  0  0
   24.4048  -16.8510  -16.5924 O   0  0  0  0  0  0  0  0  0  0  0  0
   25.5902  -21.2201  -14.4935 C   0  0  0  0  0  0  0  0  0  0  0  0
   24.5899  -21.7786  -14.9830 O   0  0  0  0  0  0  0  0  0  0  0  0
   26.5984  -16.6458  -17.0904 O   0  0  0  0  0  0  0  0  0  0  0  0
   25.6022  -21.0075  -13.0856 N   0  0  0  0  0  0  0  0  0  0  0  0
   26.6847  -20.3147  -12.3683 C   0  0  0  0  0  0  0  0  0  0  0  0
   26.2177  -20.0595  -10.9739 C   0  0  0  0  0  0  0  0  0  0  0  0
   25.2851  -21.2389  -10.7389 C   0  0  0  0  0  0  0  0  0  0  0  0
   24.6222  -21.4006  -12.1058 C   0  0  1  0  0  0  0  0  0  0  0  0
   23.3992  -20.5548  -12.1773 C   0  0  0  0  0  0  0  0  0  0  0  0
   22.2250  -20.9510  -11.5835 O   0  0  0  0  0  0  0  0  0  0  0  0
   23.4559  -19.4730  -12.7893 O   0  0  0  0  0  0  0  0  0  0  0  0
  2  1  1  6
  2  3  1  0
  3  4  1  0
  4  5  2  0
  4  8  1  0
  5  6  1  0
  6  7  1  0
  8  7  2  0
  9  2  1  0
  9 10  2  0
 11  9  1  0
 12 11  1  0
 12 17  1  0
 12 13  1  6
 14 13  1  0
 15 14  1  0
 16 15  2  0
 17 20  1  0
 18 17  2  0
 19 15  1  0
 20 24  1  0
 20 21  1  0
 21 22  1  0
 23 22  1  0
 24 23  1  0
 25 26  1  0
 24 25  1  1
 27 25  2  0
M  END
$$$$
