HEP.pdb
     RDKit          3D

 27 28  0  0  1  0  0  0  0  0999 V2000
   20.1860  -18.1297  -15.2999 N   0  0  0  0  0  0  0  0  0  0  0  0
   20.9874  -19.2367  -15.7610 C   0  0  1  0  0  0  0  0  0  0  0  0
   20.8531  -19.2654  -17.2827 C   0  0  0  0  0  0  0  0  0  0  0  0
   19.4578  -19.7050  -17.6435 C   0  0  0  0  0  0  0  0  0  0  0  0
   19.0413  -20.9887  -17.9199 C   0  0  0  0  0  0  0  0  0  0  0  0
   17.7301  -20.9922  -18.2000 N   0  0  0  0  0  0  0  0  0  0  0  0
   17.3141  -19.7193  -18.1024 C   0  0  0  0  0  0  0  0  0  0  0  0
   18.3550  -18.9432  -17.7672 N   0  0  0  0  0  0  0  0  0  0  0  0
   22.3870  -19.1566  -15.3274 C   0  0  0  0  0  0  0  0  0  0  0  0
   23.0740  -18.1379  -15.5792 O   0  0  0  0  0  0  0  0  0  0  0  0
   23.0151  -20.2023  -14.6218 N   0  0  0  0  0  0  0  0  0  0  0  0
   24.3994  -20.1291  -14.1831 C   0  0  1  0  0  0  0  0  0  0  0  0
   24.5524  -20.8187  -12.8687 C   0  0  0  0  0  0  0  0  0  0  0  0
   24.1170  -20.1012  -11.6433 C   0  0  0  0  0  0  0  0  0  0  0  0
   24.2773  -20.7935  -10.3866 C   0  0  0  0  0  0  0  0  0  0  0  0
   23.3632  -21.1217   -9.6194 O   0  0  0  0  0  0  0  0  0  0  0  0
   25.3277  -20.5794  -15.2028 C   0  0  0  0  0  0  0  0  0  0  0  0
   25.0491  -21.5692  -15.9063 O   0  0  0  0  0  0  0  0  0  0  0  0
   25.5909  -21.1275   -9.9932 O   0  0  0  0  0  0  0  0  0  0  0  0
   26.5690  -19.9263  -15.4480 N   0  0  0  0  0  0  0  0  0  0  0  0
   27.0309  -18.7370  -14.7141 C   0  0  0  0  0  0  0  0  0  0  0  0
   28.4639  -18.5121  -15.0655 C   0  0  0  0  0  0  0  0  0  0  0  0
   28.5226  -19.0517  -16.4872 C   0  0  0  0  0  0  0  0  0  0  0  0
   27.5876  -20.2576  -16.4112 C   0  0  1  0  0  0  0  0  0  0  0  0
   28.3558  -21.4676  -16.0090 C   0  0  0  0  0  0  0  0  0  0  0  0
   29.1172  -22.1613  -16.9186 O   0  0  0  0  0  0  0  0  0  0  0  0
   28.2974  -21.8463  -14.8252 O   0  0  0  0  0  0  0  0  0  0  0  0
  2  1  1  6
  2  3  1  0
  3  4  1  0
  4  5  2  0
  4  8  1  0
  5  6  1  0
  6  7  1  0
  8  7  2  0
  9  2  1  0
  9 10  2  0
 11  9  1  0
 12 11  1  0
 12 17  1  0
 12 13  1  1
 14 13  1  0
 15 14  1  0
 16 15  2  0
 17 20  1  0
 18 17  2  0
 19 15  1  0
 20 24  1  0
 20 21  1  0
 21 22  1  0
 23 22  1  0
 24 23  1  0
 25 26  1  0
 24 25  1  1
 27 25  2  0
M  END
$$$$
