HEP.pdb
     RDKit          3D

 27 28  0  0  1  0  0  0  0  0999 V2000
   14.8266  -14.1353    5.9870 N   0  0  0  0  0  0  0  0  0  0  0  0
   15.5895  -14.8661    5.0049 C   0  0  1  0  0  0  0  0  0  0  0  0
   17.0026  -14.2859    5.0337 C   0  0  0  0  0  0  0  0  0  0  0  0
   17.7982  -14.8762    3.8986 C   0  0  0  0  0  0  0  0  0  0  0  0
   18.7135  -15.9029    3.9772 C   0  0  0  0  0  0  0  0  0  0  0  0
   19.2212  -16.1550    2.7622 N   0  0  0  0  0  0  0  0  0  0  0  0
   18.6332  -15.2948    1.9152 C   0  0  0  0  0  0  0  0  0  0  0  0
   17.7757  -14.5240    2.5997 N   0  0  0  0  0  0  0  0  0  0  0  0
   15.5787  -16.3165    5.2276 C   0  0  0  0  0  0  0  0  0  0  0  0
   15.6893  -16.7832    6.3865 O   0  0  0  0  0  0  0  0  0  0  0  0
   15.4479  -17.2373    4.1689 N   0  0  0  0  0  0  0  0  0  0  0  0
   15.4754  -18.6763    4.3758 C   0  0  1  0  0  0  0  0  0  0  0  0
   15.1543  -19.3787    3.0991 C   0  0  0  0  0  0  0  0  0  0  0  0
   15.2164  -20.8625    3.0780 C   0  0  0  0  0  0  0  0  0  0  0  0
   15.0563  -21.5071    1.7961 C   0  0  0  0  0  0  0  0  0  0  0  0
   14.9354  -20.9318    0.7070 O   0  0  0  0  0  0  0  0  0  0  0  0
   16.7032  -19.1213    5.0073 C   0  0  0  0  0  0  0  0  0  0  0  0
   17.7967  -18.6432    4.6502 O   0  0  0  0  0  0  0  0  0  0  0  0
   15.0346  -22.9181    1.7780 O   0  0  0  0  0  0  0  0  0  0  0  0
   16.7187  -20.0976    6.0438 N   0  0  0  0  0  0  0  0  0  0  0  0
   15.5072  -20.6472    6.6734 C   0  0  0  0  0  0  0  0  0  0  0  0
   15.9166  -21.8137    7.5096 C   0  0  0  0  0  0  0  0  0  0  0  0
   17.3230  -21.4138    7.9315 C   0  0  0  0  0  0  0  0  0  0  0  0
   17.8515  -20.7258    6.6740 C   0  0  1  0  0  0  0  0  0  0  0  0
   18.4942  -21.7291    5.7816 C   0  0  0  0  0  0  0  0  0  0  0  0
   19.7268  -22.2589    6.0790 O   0  0  0  0  0  0  0  0  0  0  0  0
   17.8934  -22.0843    4.7516 O   0  0  0  0  0  0  0  0  0  0  0  0
  2  1  1  1
  2  3  1  0
  3  4  1  0
  4  5  2  0
  4  8  1  0
  5  6  1  0
  6  7  1  0
  8  7  2  0
  9  2  1  0
  9 10  2  0
 11  9  1  0
 12 11  1  0
 12 17  1  0
 12 13  1  6
 14 13  1  0
 15 14  1  0
 16 15  2  0
 17 20  1  0
 18 17  2  0
 19 15  1  0
 20 24  1  0
 20 21  1  0
 21 22  1  0
 23 22  1  0
 24 23  1  0
 25 26  1  0
 24 25  1  6
 27 25  2  0
M  END
$$$$
