HEP.pdb
     RDKit          3D

 27 28  0  0  1  0  0  0  0  0999 V2000
   24.2541  -14.8188  -19.6141 N   0  0  0  0  0  0  0  0  0  0  0  0
   23.8417  -16.1923  -19.4595 C   0  0  1  0  0  0  0  0  0  0  0  0
   24.3648  -16.9427  -20.6832 C   0  0  0  0  0  0  0  0  0  0  0  0
   23.4539  -16.6702  -21.8519 C   0  0  0  0  0  0  0  0  0  0  0  0
   22.7535  -17.6003  -22.5883 C   0  0  0  0  0  0  0  0  0  0  0  0
   22.0502  -16.9850  -23.5496 N   0  0  0  0  0  0  0  0  0  0  0  0
   22.3008  -15.6716  -23.4265 C   0  0  0  0  0  0  0  0  0  0  0  0
   23.1467  -15.4815  -22.4036 N   0  0  0  0  0  0  0  0  0  0  0  0
   24.2973  -16.7939  -18.2009 C   0  0  0  0  0  0  0  0  0  0  0  0
   25.4320  -16.5231  -17.7403 O   0  0  0  0  0  0  0  0  0  0  0  0
   23.4969  -17.6897  -17.4644 N   0  0  0  0  0  0  0  0  0  0  0  0
   23.9478  -18.3058  -16.2269 C   0  0  1  0  0  0  0  0  0  0  0  0
   22.7740  -18.7944  -15.4461 C   0  0  0  0  0  0  0  0  0  0  0  0
   23.0281  -19.5980  -14.2232 C   0  0  0  0  0  0  0  0  0  0  0  0
   21.8740  -20.1210  -13.5310 C   0  0  0  0  0  0  0  0  0  0  0  0
   20.6933  -19.9459  -13.8579 O   0  0  0  0  0  0  0  0  0  0  0  0
   24.9733  -19.3075  -16.4491 C   0  0  0  0  0  0  0  0  0  0  0  0
   24.7905  -20.2119  -17.2862 O   0  0  0  0  0  0  0  0  0  0  0  0
   22.1077  -20.9015  -12.3785 O   0  0  0  0  0  0  0  0  0  0  0  0
   26.2102  -19.3040  -15.7436 N   0  0  0  0  0  0  0  0  0  0  0  0
   26.5442  -18.3483  -14.6752 C   0  0  0  0  0  0  0  0  0  0  0  0
   27.7938  -18.8238  -14.0120 C   0  0  0  0  0  0  0  0  0  0  0  0
   28.5062  -19.5247  -15.1598 C   0  0  0  0  0  0  0  0  0  0  0  0
   27.3445  -20.1767  -15.9076 C   0  0  1  0  0  0  0  0  0  0  0  0
   27.0833  -21.5327  -15.3516 C   0  0  0  0  0  0  0  0  0  0  0  0
   25.9474  -21.7964  -14.6247 O   0  0  0  0  0  0  0  0  0  0  0  0
   27.9173  -22.4331  -15.5561 O   0  0  0  0  0  0  0  0  0  0  0  0
  2  1  1  6
  2  3  1  0
  3  4  1  0
  4  5  2  0
  4  8  1  0
  5  6  1  0
  6  7  1  0
  8  7  2  0
  9  2  1  0
  9 10  2  0
 11  9  1  0
 12 11  1  0
 12 17  1  0
 12 13  1  6
 14 13  1  0
 15 14  1  0
 16 15  2  0
 17 20  1  0
 18 17  2  0
 19 15  1  0
 20 24  1  0
 20 21  1  0
 21 22  1  0
 23 22  1  0
 24 23  1  0
 25 26  1  0
 24 25  1  1
 27 25  2  0
M  END
$$$$
