HEP.pdb
     RDKit          3D

 27 28  0  0  1  0  0  0  0  0999 V2000
   24.2897   -6.0089  -20.4860 N   0  0  0  0  0  0  0  0  0  0  0  0
   23.1017   -6.6973  -20.0439 C   0  0  1  0  0  0  0  0  0  0  0  0
   22.6486   -7.5734  -21.2107 C   0  0  0  0  0  0  0  0  0  0  0  0
   22.1297   -6.6895  -22.3150 C   0  0  0  0  0  0  0  0  0  0  0  0
   20.8745   -6.1287  -22.4038 C   0  0  0  0  0  0  0  0  0  0  0  0
   20.7774   -5.4041  -23.5278 N   0  0  0  0  0  0  0  0  0  0  0  0
   21.9629   -5.5027  -24.1507 C   0  0  0  0  0  0  0  0  0  0  0  0
   22.7780   -6.2772  -23.4202 N   0  0  0  0  0  0  0  0  0  0  0  0
   23.3064   -7.4707  -18.8138 C   0  0  0  0  0  0  0  0  0  0  0  0
   24.2961   -8.2325  -18.6984 O   0  0  0  0  0  0  0  0  0  0  0  0
   22.4159   -7.3973  -17.7242 N   0  0  0  0  0  0  0  0  0  0  0  0
   22.6055   -8.1674  -16.5055 C   0  0  1  0  0  0  0  0  0  0  0  0
   22.0796   -7.4045  -15.3360 C   0  0  0  0  0  0  0  0  0  0  0  0
   22.7134   -6.1033  -15.0027 C   0  0  0  0  0  0  0  0  0  0  0  0
   22.1650   -5.3748  -13.8833 C   0  0  0  0  0  0  0  0  0  0  0  0
   22.8155   -4.8751  -12.9565 O   0  0  0  0  0  0  0  0  0  0  0  0
   22.0864   -9.5173  -16.6175 C   0  0  0  0  0  0  0  0  0  0  0  0
   21.0544   -9.7355  -17.2805 O   0  0  0  0  0  0  0  0  0  0  0  0
   20.7635   -5.2159  -13.8370 O   0  0  0  0  0  0  0  0  0  0  0  0
   22.7171  -10.6324  -15.9958 N   0  0  0  0  0  0  0  0  0  0  0  0
   23.9379  -10.5361  -15.1793 C   0  0  0  0  0  0  0  0  0  0  0  0
   24.1342  -11.8482  -14.4957 C   0  0  0  0  0  0  0  0  0  0  0  0
   23.5241  -12.8151  -15.5001 C   0  0  0  0  0  0  0  0  0  0  0  0
   22.3306  -12.0197  -16.0264 C   0  0  1  0  0  0  0  0  0  0  0  0
   21.1363  -12.2794  -15.1765 C   0  0  0  0  0  0  0  0  0  0  0  0
   20.3944  -13.4266  -15.3243 O   0  0  0  0  0  0  0  0  0  0  0  0
   20.8157  -11.4337  -14.3221 O   0  0  0  0  0  0  0  0  0  0  0  0
  2  1  1  6
  2  3  1  0
  3  4  1  0
  4  5  2  0
  4  8  1  0
  5  6  1  0
  6  7  1  0
  8  7  2  0
  9  2  1  0
  9 10  2  0
 11  9  1  0
 12 11  1  0
 12 17  1  0
 12 13  1  1
 14 13  1  0
 15 14  1  0
 16 15  2  0
 17 20  1  0
 18 17  2  0
 19 15  1  0
 20 24  1  0
 20 21  1  0
 21 22  1  0
 23 22  1  0
 24 23  1  0
 25 26  1  0
 24 25  1  1
 27 25  2  0
M  END
$$$$
