HEP.pdb
     RDKit          3D

 27 28  0  0  1  0  0  0  0  0999 V2000
   20.4310  -31.4413    5.4841 N   0  0  0  0  0  0  0  0  0  0  0  0
   21.4683  -30.6988    4.8108 C   0  0  1  0  0  0  0  0  0  0  0  0
   21.8031  -29.5092    5.7092 C   0  0  0  0  0  0  0  0  0  0  0  0
   20.6454  -28.5450    5.6978 C   0  0  0  0  0  0  0  0  0  0  0  0
   19.6229  -28.4705    6.6180 C   0  0  0  0  0  0  0  0  0  0  0  0
   18.7748  -27.4891    6.2787 N   0  0  0  0  0  0  0  0  0  0  0  0
   19.2538  -26.9421    5.1499 C   0  0  0  0  0  0  0  0  0  0  0  0
   20.3810  -27.5781    4.7994 N   0  0  0  0  0  0  0  0  0  0  0  0
   22.6502  -31.5108    4.4991 C   0  0  0  0  0  0  0  0  0  0  0  0
   23.1450  -32.2727    5.3639 O   0  0  0  0  0  0  0  0  0  0  0  0
   23.2754  -31.4725    3.2368 N   0  0  0  0  0  0  0  0  0  0  0  0
   24.4680  -32.2457    2.9307 C   0  0  1  0  0  0  0  0  0  0  0  0
   24.7475  -32.1890    1.4661 C   0  0  0  0  0  0  0  0  0  0  0  0
   25.9233  -32.9321    0.9453 C   0  0  0  0  0  0  0  0  0  0  0  0
   26.1540  -32.8790   -0.4790 C   0  0  0  0  0  0  0  0  0  0  0  0
   27.2512  -32.7190   -1.0288 O   0  0  0  0  0  0  0  0  0  0  0  0
   25.5954  -31.8783    3.7663 C   0  0  0  0  0  0  0  0  0  0  0  0
   25.8622  -30.6770    3.9605 O   0  0  0  0  0  0  0  0  0  0  0  0
   25.0322  -33.0213   -1.3233 O   0  0  0  0  0  0  0  0  0  0  0  0
   26.4287  -32.8473    4.3943 N   0  0  0  0  0  0  0  0  0  0  0  0
   26.2547  -34.3012    4.2453 C   0  0  0  0  0  0  0  0  0  0  0  0
   27.4580  -34.9665    4.8257 C   0  0  0  0  0  0  0  0  0  0  0  0
   27.8570  -33.9859    5.9190 C   0  0  0  0  0  0  0  0  0  0  0  0
   27.5564  -32.6380    5.2658 C   0  0  1  0  0  0  0  0  0  0  0  0
   28.7519  -32.1616    4.5175 C   0  0  0  0  0  0  0  0  0  0  0  0
   29.8017  -31.5562    5.1656 O   0  0  0  0  0  0  0  0  0  0  0  0
   28.7872  -32.3205    3.2840 O   0  0  0  0  0  0  0  0  0  0  0  0
  2  1  1  1
  2  3  1  0
  3  4  1  0
  4  5  2  0
  4  8  1  0
  5  6  1  0
  6  7  1  0
  8  7  2  0
  9  2  1  0
  9 10  2  0
 11  9  1  0
 12 11  1  0
 12 17  1  0
 12 13  1  6
 14 13  1  0
 15 14  1  0
 16 15  2  0
 17 20  1  0
 18 17  2  0
 19 15  1  0
 20 24  1  0
 20 21  1  0
 21 22  1  0
 23 22  1  0
 24 23  1  0
 25 26  1  0
 24 25  1  6
 27 25  2  0
M  END
$$$$
