HEP.pdb
     RDKit          3D

 27 28  0  0  1  0  0  0  0  0999 V2000
   22.4611  -17.3082  -17.7256 N   0  0  0  0  0  0  0  0  0  0  0  0
   23.2582  -18.4542  -17.3623 C   0  0  1  0  0  0  0  0  0  0  0  0
   24.5858  -18.3121  -18.1051 C   0  0  0  0  0  0  0  0  0  0  0  0
   24.3339  -18.4278  -19.5860 C   0  0  0  0  0  0  0  0  0  0  0  0
   24.0880  -19.5833  -20.2947 C   0  0  0  0  0  0  0  0  0  0  0  0
   23.9127  -19.2939  -21.5920 N   0  0  0  0  0  0  0  0  0  0  0  0
   24.0461  -17.9629  -21.7090 C   0  0  0  0  0  0  0  0  0  0  0  0
   24.3000  -17.4406  -20.5004 N   0  0  0  0  0  0  0  0  0  0  0  0
   23.4433  -18.5930  -15.9133 C   0  0  0  0  0  0  0  0  0  0  0  0
   24.2522  -17.8551  -15.3014 O   0  0  0  0  0  0  0  0  0  0  0  0
   22.7353  -19.5460  -15.1542 N   0  0  0  0  0  0  0  0  0  0  0  0
   22.9474  -19.7234  -13.7267 C   0  0  1  0  0  0  0  0  0  0  0  0
   21.6390  -19.9364  -13.0418 C   0  0  0  0  0  0  0  0  0  0  0  0
   20.5079  -19.0395  -13.3916 C   0  0  0  0  0  0  0  0  0  0  0  0
   19.1751  -19.5618  -13.2042 C   0  0  0  0  0  0  0  0  0  0  0  0
   18.3766  -19.8479  -14.1056 O   0  0  0  0  0  0  0  0  0  0  0  0
   23.9428  -20.7380  -13.4369 C   0  0  0  0  0  0  0  0  0  0  0  0
   24.0251  -21.7535  -14.1539 O   0  0  0  0  0  0  0  0  0  0  0  0
   18.7391  -19.7657  -11.8776 O   0  0  0  0  0  0  0  0  0  0  0  0
   24.8555  -20.6243  -12.3498 N   0  0  0  0  0  0  0  0  0  0  0  0
   24.9285  -19.4567  -11.4567 C   0  0  0  0  0  0  0  0  0  0  0  0
   25.8048  -19.8182  -10.3039 C   0  0  0  0  0  0  0  0  0  0  0  0
   26.7666  -20.8084  -10.9445 C   0  0  0  0  0  0  0  0  0  0  0  0
   25.8535  -21.5645  -11.9081 C   0  0  1  0  0  0  0  0  0  0  0  0
   25.2440  -22.7324  -11.2149 C   0  0  0  0  0  0  0  0  0  0  0  0
   25.9424  -23.9042  -11.0482 O   0  0  0  0  0  0  0  0  0  0  0  0
   24.0809  -22.6317  -10.7847 O   0  0  0  0  0  0  0  0  0  0  0  0
  2  1  1  1
  2  3  1  0
  3  4  1  0
  4  5  2  0
  4  8  1  0
  5  6  1  0
  6  7  1  0
  8  7  2  0
  9  2  1  0
  9 10  2  0
 11  9  1  0
 12 11  1  0
 12 17  1  0
 12 13  1  1
 14 13  1  0
 15 14  1  0
 16 15  2  0
 17 20  1  0
 18 17  2  0
 19 15  1  0
 20 24  1  0
 20 21  1  0
 21 22  1  0
 23 22  1  0
 24 23  1  0
 25 26  1  0
 24 25  1  1
 27 25  2  0
M  END
$$$$
