HEP.pdb
     RDKit          3D

 27 28  0  0  1  0  0  0  0  0999 V2000
   14.6994  -19.7813    1.7368 N   0  0  0  0  0  0  0  0  0  0  0  0
   15.4030  -20.6971    2.6009 C   0  0  1  0  0  0  0  0  0  0  0  0
   16.2500  -21.5867    1.6924 C   0  0  0  0  0  0  0  0  0  0  0  0
   15.3363  -22.4187    0.8305 C   0  0  0  0  0  0  0  0  0  0  0  0
   15.1847  -22.3331   -0.5360 C   0  0  0  0  0  0  0  0  0  0  0  0
   14.2821  -23.2331   -0.9520 N   0  0  0  0  0  0  0  0  0  0  0  0
   13.8616  -23.8878    0.1424 C   0  0  0  0  0  0  0  0  0  0  0  0
   14.4966  -23.3973    1.2167 N   0  0  0  0  0  0  0  0  0  0  0  0
   16.2075  -20.0217    3.6256 C   0  0  0  0  0  0  0  0  0  0  0  0
   16.9535  -19.0614    3.3183 O   0  0  0  0  0  0  0  0  0  0  0  0
   16.1823  -20.4141    4.9788 N   0  0  0  0  0  0  0  0  0  0  0  0
   17.0764  -19.8461    5.9749 C   0  0  1  0  0  0  0  0  0  0  0  0
   16.3132  -19.5206    7.2150 C   0  0  0  0  0  0  0  0  0  0  0  0
   17.0603  -18.9782    8.3785 C   0  0  0  0  0  0  0  0  0  0  0  0
   16.3109  -18.7541    9.5920 C   0  0  0  0  0  0  0  0  0  0  0  0
   15.1466  -19.1178    9.8010 O   0  0  0  0  0  0  0  0  0  0  0  0
   18.2506  -20.6683    6.1974 C   0  0  0  0  0  0  0  0  0  0  0  0
   18.1623  -21.9097    6.1419 O   0  0  0  0  0  0  0  0  0  0  0  0
   16.9589  -18.0587   10.6352 O   0  0  0  0  0  0  0  0  0  0  0  0
   19.5309  -20.1115    6.4779 N   0  0  0  0  0  0  0  0  0  0  0  0
   19.8147  -18.6674    6.4883 C   0  0  0  0  0  0  0  0  0  0  0  0
   21.1735  -18.4736    7.0745 C   0  0  0  0  0  0  0  0  0  0  0  0
   21.8768  -19.7570    6.6570 C   0  0  0  0  0  0  0  0  0  0  0  0
   20.7613  -20.7921    6.7912 C   0  0  1  0  0  0  0  0  0  0  0  0
   20.7499  -21.3461    8.1729 C   0  0  0  0  0  0  0  0  0  0  0  0
   21.5936  -22.3682    8.5359 O   0  0  0  0  0  0  0  0  0  0  0  0
   19.9568  -20.8660    9.0026 O   0  0  0  0  0  0  0  0  0  0  0  0
  2  1  1  6
  2  3  1  0
  3  4  1  0
  4  5  2  0
  4  8  1  0
  5  6  1  0
  6  7  1  0
  8  7  2  0
  9  2  1  0
  9 10  2  0
 11  9  1  0
 12 11  1  0
 12 17  1  0
 12 13  1  1
 14 13  1  0
 15 14  1  0
 16 15  2  0
 17 20  1  0
 18 17  2  0
 19 15  1  0
 20 24  1  0
 20 21  1  0
 21 22  1  0
 23 22  1  0
 24 23  1  0
 25 26  1  0
 24 25  1  1
 27 25  2  0
M  END
$$$$
