HEP.pdb
     RDKit          3D

 27 28  0  0  1  0  0  0  0  0999 V2000
   24.8941  -17.3918  -21.3411 N   0  0  0  0  0  0  0  0  0  0  0  0
   24.0252  -17.8080  -20.2677 C   0  0  1  0  0  0  0  0  0  0  0  0
   23.4541  -19.1657  -20.6734 C   0  0  0  0  0  0  0  0  0  0  0  0
   22.2102  -18.9485  -21.4954 C   0  0  0  0  0  0  0  0  0  0  0  0
   22.0911  -19.0714  -22.8624 C   0  0  0  0  0  0  0  0  0  0  0  0
   20.8326  -18.7998  -23.2366 N   0  0  0  0  0  0  0  0  0  0  0  0
   20.1546  -18.5059  -22.1155 C   0  0  0  0  0  0  0  0  0  0  0  0
   20.9844  -18.5954  -21.0660 N   0  0  0  0  0  0  0  0  0  0  0  0
   24.6987  -17.8545  -18.9647 C   0  0  0  0  0  0  0  0  0  0  0  0
   25.8516  -18.3374  -18.8611 O   0  0  0  0  0  0  0  0  0  0  0  0
   24.0923  -17.3693  -17.7888 N   0  0  0  0  0  0  0  0  0  0  0  0
   24.7564  -17.4011  -16.4957 C   0  0  1  0  0  0  0  0  0  0  0  0
   24.2719  -16.2724  -15.6485 C   0  0  0  0  0  0  0  0  0  0  0  0
   24.5319  -14.8848  -16.1098 C   0  0  0  0  0  0  0  0  0  0  0  0
   24.1095  -13.8142  -15.2381 C   0  0  0  0  0  0  0  0  0  0  0  0
   24.7633  -13.3467  -14.2970 O   0  0  0  0  0  0  0  0  0  0  0  0
   24.6687  -18.7022  -15.8604 C   0  0  0  0  0  0  0  0  0  0  0  0
   23.6483  -19.4012  -16.0092 O   0  0  0  0  0  0  0  0  0  0  0  0
   22.8390  -13.2476  -15.4757 O   0  0  0  0  0  0  0  0  0  0  0  0
   25.7197  -19.2340  -15.0602 N   0  0  0  0  0  0  0  0  0  0  0  0
   26.9407  -18.4914  -14.7080 C   0  0  0  0  0  0  0  0  0  0  0  0
   27.6624  -19.2710  -13.6597 C   0  0  0  0  0  0  0  0  0  0  0  0
   27.2755  -20.6994  -14.0147 C   0  0  0  0  0  0  0  0  0  0  0  0
   25.8219  -20.5376  -14.4558 C   0  0  1  0  0  0  0  0  0  0  0  0
   24.9191  -20.6736  -13.2799 C   0  0  0  0  0  0  0  0  0  0  0  0
   24.6318  -21.9055  -12.7429 O   0  0  0  0  0  0  0  0  0  0  0  0
   24.4228  -19.6454  -12.7855 O   0  0  0  0  0  0  0  0  0  0  0  0
  2  1  1  6
  2  3  1  0
  3  4  1  0
  4  5  2  0
  4  8  1  0
  5  6  1  0
  6  7  1  0
  8  7  2  0
  9  2  1  0
  9 10  2  0
 11  9  1  0
 12 11  1  0
 12 17  1  0
 12 13  1  1
 14 13  1  0
 15 14  1  0
 16 15  2  0
 17 20  1  0
 18 17  2  0
 19 15  1  0
 20 24  1  0
 20 21  1  0
 21 22  1  0
 23 22  1  0
 24 23  1  0
 25 26  1  0
 24 25  1  1
 27 25  2  0
M  END
$$$$
