HEP.pdb
     RDKit          3D

 27 28  0  0  1  0  0  0  0  0999 V2000
   36.9834   -8.3191   -8.0133 N   0  0  0  0  0  0  0  0  0  0  0  0
   38.3655   -7.9080   -8.0498 C   0  0  1  0  0  0  0  0  0  0  0  0
   38.5956   -7.0491   -6.8074 C   0  0  0  0  0  0  0  0  0  0  0  0
   38.1353   -5.6428   -7.0914 C   0  0  0  0  0  0  0  0  0  0  0  0
   37.5774   -5.1763   -8.2614 C   0  0  0  0  0  0  0  0  0  0  0  0
   37.2950   -3.8710   -8.1431 N   0  0  0  0  0  0  0  0  0  0  0  0
   37.6704   -3.5084   -6.9060 C   0  0  0  0  0  0  0  0  0  0  0  0
   38.1769   -4.5758   -6.2719 N   0  0  0  0  0  0  0  0  0  0  0  0
   39.3015   -9.0354   -8.1281 C   0  0  0  0  0  0  0  0  0  0  0  0
   39.2120   -9.9939   -7.3241 O   0  0  0  0  0  0  0  0  0  0  0  0
   40.3281   -9.0930   -9.0917 N   0  0  0  0  0  0  0  0  0  0  0  0
   41.3410  -10.1362   -9.0944 C   0  0  1  0  0  0  0  0  0  0  0  0
   41.5394  -10.6473  -10.4821 C   0  0  0  0  0  0  0  0  0  0  0  0
   40.4097  -11.3520  -11.1402 C   0  0  0  0  0  0  0  0  0  0  0  0
   40.6220  -11.8109  -12.4925 C   0  0  0  0  0  0  0  0  0  0  0  0
   41.6771  -11.7145  -13.1321 O   0  0  0  0  0  0  0  0  0  0  0  0
   42.5635   -9.7223   -8.4322 C   0  0  0  0  0  0  0  0  0  0  0  0
   42.9576   -8.5445   -8.5301 O   0  0  0  0  0  0  0  0  0  0  0  0
   39.5328  -12.4243  -13.1476 O   0  0  0  0  0  0  0  0  0  0  0  0
   43.3509  -10.6171   -7.6531 N   0  0  0  0  0  0  0  0  0  0  0  0
   43.0290  -12.0403   -7.4603 C   0  0  0  0  0  0  0  0  0  0  0  0
   44.2082  -12.6918   -6.8179 C   0  0  0  0  0  0  0  0  0  0  0  0
   44.7870  -11.5468   -5.9995 C   0  0  0  0  0  0  0  0  0  0  0  0
   44.5617  -10.3487   -6.9203 C   0  0  1  0  0  0  0  0  0  0  0  0
   45.7306  -10.1815   -7.8267 C   0  0  0  0  0  0  0  0  0  0  0  0
   46.8278   -9.4478   -7.4441 O   0  0  0  0  0  0  0  0  0  0  0  0
   45.6994  -10.7206   -8.9476 O   0  0  0  0  0  0  0  0  0  0  0  0
  2  1  1  1
  2  3  1  0
  3  4  1  0
  4  5  2  0
  4  8  1  0
  5  6  1  0
  6  7  1  0
  8  7  2  0
  9  2  1  0
  9 10  2  0
 11  9  1  0
 12 11  1  0
 12 17  1  0
 12 13  1  6
 14 13  1  0
 15 14  1  0
 16 15  2  0
 17 20  1  0
 18 17  2  0
 19 15  1  0
 20 24  1  0
 20 21  1  0
 21 22  1  0
 23 22  1  0
 24 23  1  0
 25 26  1  0
 24 25  1  6
 27 25  2  0
M  END
$$$$
