GEG.pdb
     RDKit          3D

 18 17  0  0  1  0  0  0  0  0999 V2000
    5.1786  -19.5016   22.7143 N   0  0  0  0  0  0  0  0  0  0  0  0
    5.8412  -18.9890   23.8988 C   0  0  0  0  0  0  0  0  0  0  0  0
    6.6113  -17.7710   23.5765 C   0  0  0  0  0  0  0  0  0  0  0  0
    6.6999  -17.3274   22.3859 O   0  0  0  0  0  0  0  0  0  0  0  0
    7.2718  -17.0750   24.6250 N   0  0  0  0  0  0  0  0  0  0  0  0
    8.0846  -15.9102   24.3431 C   0  0  1  0  0  0  0  0  0  0  0  0
    7.9273  -14.8333   25.3711 C   0  0  0  0  0  0  0  0  0  0  0  0
    6.6409  -14.0984   25.3271 C   0  0  0  0  0  0  0  0  0  0  0  0
    6.4795  -13.0341   26.3111 C   0  0  0  0  0  0  0  0  0  0  0  0
    7.4106  -12.8466   27.1431 O   0  0  0  0  0  0  0  0  0  0  0  0
    9.5301  -16.2522   24.2799 C   0  0  0  0  0  0  0  0  0  0  0  0
    9.9647  -17.2636   24.8846 O   0  0  0  0  0  0  0  0  0  0  0  0
    5.3893  -12.1856   26.4354 O   0  0  0  0  0  0  0  0  0  0  0  0
   10.4815  -15.4851   23.5572 N   0  0  0  0  0  0  0  0  0  0  0  0
   10.8411  -15.7350   22.1955 C   0  0  0  0  0  0  0  0  0  0  0  0
   11.9905  -16.6677   22.1597 C   0  0  0  0  0  0  0  0  0  0  0  0
   13.1544  -16.2933   21.5104 O   0  0  0  0  0  0  0  0  0  0  0  0
   11.8895  -17.7741   22.7153 O   0  0  0  0  0  0  0  0  0  0  0  0
  2  1  1  0
  3  4  2  0
  3  2  1  0
  5  3  1  0
  6  5  1  0
  6  7  1  1
  8  7  1  0
  9  8  1  0
 10  9  2  0
 11  6  1  0
 11 14  1  0
 12 11  2  0
 13  9  1  0
 15 14  1  0
 16 15  1  0
 17 16  1  0
 18 16  2  0
M  END
$$$$
