GEG.pdb
     RDKit          3D

 18 17  0  0  1  0  0  0  0  0999 V2000
    9.6820  -14.2503   11.9666 N   0  0  0  0  0  0  0  0  0  0  0  0
    9.9212  -15.6027   12.4343 C   0  0  0  0  0  0  0  0  0  0  0  0
   10.8843  -15.6019   13.5537 C   0  0  0  0  0  0  0  0  0  0  0  0
   11.5553  -14.5642   13.8620 O   0  0  0  0  0  0  0  0  0  0  0  0
   11.0668  -16.7929   14.3074 N   0  0  0  0  0  0  0  0  0  0  0  0
   12.0474  -16.8526   15.3713 C   0  0  1  0  0  0  0  0  0  0  0  0
   11.7517  -17.9282   16.3698 C   0  0  0  0  0  0  0  0  0  0  0  0
   12.5906  -17.9066   17.5915 C   0  0  0  0  0  0  0  0  0  0  0  0
   12.3162  -18.9498   18.5731 C   0  0  0  0  0  0  0  0  0  0  0  0
   12.8892  -20.0659   18.4313 O   0  0  0  0  0  0  0  0  0  0  0  0
   13.4145  -17.1039   14.8438 C   0  0  0  0  0  0  0  0  0  0  0  0
   13.5726  -17.4646   13.6511 O   0  0  0  0  0  0  0  0  0  0  0  0
   11.4747  -18.8469   19.6710 O   0  0  0  0  0  0  0  0  0  0  0  0
   14.5905  -16.9579   15.6258 N   0  0  0  0  0  0  0  0  0  0  0  0
   15.5099  -15.8705   15.4908 C   0  0  0  0  0  0  0  0  0  0  0  0
   16.6098  -16.0398   16.4676 C   0  0  0  0  0  0  0  0  0  0  0  0
   16.3928  -15.7357   17.8005 O   0  0  0  0  0  0  0  0  0  0  0  0
   17.7121  -16.4536   16.0718 O   0  0  0  0  0  0  0  0  0  0  0  0
  2  1  1  0
  3  4  2  0
  3  2  1  0
  5  3  1  0
  6  5  1  0
  6  7  1  1
  8  7  1  0
  9  8  1  0
 10  9  2  0
 11  6  1  0
 11 14  1  0
 12 11  2  0
 13  9  1  0
 15 14  1  0
 16 15  1  0
 17 16  1  0
 18 16  2  0
M  END
$$$$
