GEG.pdb
     RDKit          3D

 18 17  0  0  1  0  0  0  0  0999 V2000
    1.7260  -20.3479   22.1284 N   0  0  0  0  0  0  0  0  0  0  0  0
    2.4216  -19.0764   22.1940 C   0  0  0  0  0  0  0  0  0  0  0  0
    3.8180  -19.2708   22.6329 C   0  0  0  0  0  0  0  0  0  0  0  0
    4.2213  -20.3759   23.1208 O   0  0  0  0  0  0  0  0  0  0  0  0
    4.7368  -18.1939   22.5068 N   0  0  0  0  0  0  0  0  0  0  0  0
    6.1247  -18.3567   22.8870 C   0  0  1  0  0  0  0  0  0  0  0  0
    7.0688  -17.7249   21.9119 C   0  0  0  0  0  0  0  0  0  0  0  0
    7.1773  -18.4084   20.6013 C   0  0  0  0  0  0  0  0  0  0  0  0
    7.1141  -17.5482   19.4253 C   0  0  0  0  0  0  0  0  0  0  0  0
    6.3787  -17.9075   18.4639 O   0  0  0  0  0  0  0  0  0  0  0  0
    6.4019  -17.7594   24.2200 C   0  0  0  0  0  0  0  0  0  0  0  0
    5.8168  -16.7050   24.5714 O   0  0  0  0  0  0  0  0  0  0  0  0
    7.7894  -16.3502   19.2437 O   0  0  0  0  0  0  0  0  0  0  0  0
    7.3143  -18.3216   25.1512 N   0  0  0  0  0  0  0  0  0  0  0  0
    7.5217  -17.8143   26.4725 C   0  0  0  0  0  0  0  0  0  0  0  0
    8.5410  -18.6422   27.1566 C   0  0  0  0  0  0  0  0  0  0  0  0
    8.8352  -18.4021   28.4878 O   0  0  0  0  0  0  0  0  0  0  0  0
    9.1163  -19.5411   26.5210 O   0  0  0  0  0  0  0  0  0  0  0  0
  2  1  1  0
  3  4  2  0
  3  2  1  0
  5  3  1  0
  6  5  1  0
  6  7  1  6
  8  7  1  0
  9  8  1  0
 10  9  2  0
 11  6  1  0
 11 14  1  0
 12 11  2  0
 13  9  1  0
 15 14  1  0
 16 15  1  0
 17 16  1  0
 18 16  2  0
M  END
$$$$
