GEG.pdb
     RDKit          3D

 18 17  0  0  1  0  0  0  0  0999 V2000
    8.7586  -13.5522   17.5955 N   0  0  0  0  0  0  0  0  0  0  0  0
    9.4436  -14.6522   18.2480 C   0  0  0  0  0  0  0  0  0  0  0  0
   10.6767  -14.1777   18.9073 C   0  0  0  0  0  0  0  0  0  0  0  0
   11.1544  -13.0182   18.6842 O   0  0  0  0  0  0  0  0  0  0  0  0
   11.3485  -15.0396   19.8159 N   0  0  0  0  0  0  0  0  0  0  0  0
   12.6265  -14.6646   20.3845 C   0  0  1  0  0  0  0  0  0  0  0  0
   13.0156  -15.5232   21.5476 C   0  0  0  0  0  0  0  0  0  0  0  0
   14.2669  -15.1278   22.2364 C   0  0  0  0  0  0  0  0  0  0  0  0
   14.6237  -15.9127   23.4127 C   0  0  0  0  0  0  0  0  0  0  0  0
   15.3797  -15.3835   24.2745 O   0  0  0  0  0  0  0  0  0  0  0  0
   13.7209  -14.7565   19.3824 C   0  0  0  0  0  0  0  0  0  0  0  0
   13.8059  -15.7611   18.6334 O   0  0  0  0  0  0  0  0  0  0  0  0
   14.2134  -17.2075   23.6945 O   0  0  0  0  0  0  0  0  0  0  0  0
   14.7077  -13.7500   19.2117 N   0  0  0  0  0  0  0  0  0  0  0  0
   15.6486  -13.7281   18.1345 C   0  0  0  0  0  0  0  0  0  0  0  0
   17.0032  -14.0004   18.6669 C   0  0  0  0  0  0  0  0  0  0  0  0
   18.0948  -13.9470   17.8171 O   0  0  0  0  0  0  0  0  0  0  0  0
   17.1364  -14.2730   19.8714 O   0  0  0  0  0  0  0  0  0  0  0  0
  2  1  1  0
  3  4  2  0
  3  2  1  0
  5  3  1  0
  6  5  1  0
  6  7  1  1
  8  7  1  0
  9  8  1  0
 10  9  2  0
 11  6  1  0
 11 14  1  0
 12 11  2  0
 13  9  1  0
 15 14  1  0
 16 15  1  0
 17 16  1  0
 18 16  2  0
M  END
$$$$
