GEG.pdb
     RDKit          3D

 18 17  0  0  1  0  0  0  0  0999 V2000
    7.6463  -13.2639   20.0209 N   0  0  0  0  0  0  0  0  0  0  0  0
    7.4999  -14.3940   20.9188 C   0  0  0  0  0  0  0  0  0  0  0  0
    8.6917  -14.5305   21.7797 C   0  0  0  0  0  0  0  0  0  0  0  0
    9.7160  -13.7880   21.6320 O   0  0  0  0  0  0  0  0  0  0  0  0
    8.6950  -15.5183   22.8016 N   0  0  0  0  0  0  0  0  0  0  0  0
    9.8314  -15.6631   23.6875 C   0  0  1  0  0  0  0  0  0  0  0  0
    9.5219  -16.4954   24.8928 C   0  0  0  0  0  0  0  0  0  0  0  0
   10.6495  -16.6905   25.8346 C   0  0  0  0  0  0  0  0  0  0  0  0
   10.3778  -17.5395   26.9890 C   0  0  0  0  0  0  0  0  0  0  0  0
    9.2575  -18.1184   27.0514 O   0  0  0  0  0  0  0  0  0  0  0  0
   10.9867  -16.2964   22.9986 C   0  0  0  0  0  0  0  0  0  0  0  0
   10.7962  -17.2234   22.1727 O   0  0  0  0  0  0  0  0  0  0  0  0
   11.2362  -17.7861   28.0503 O   0  0  0  0  0  0  0  0  0  0  0  0
   12.3344  -15.9090   23.2209 N   0  0  0  0  0  0  0  0  0  0  0  0
   13.4143  -16.2324   22.3404 C   0  0  0  0  0  0  0  0  0  0  0  0
   14.6441  -15.5545   22.8102 C   0  0  0  0  0  0  0  0  0  0  0  0
   15.8424  -15.7821   22.1555 O   0  0  0  0  0  0  0  0  0  0  0  0
   14.5782  -14.7906   23.7874 O   0  0  0  0  0  0  0  0  0  0  0  0
  2  1  1  0
  3  4  2  0
  3  2  1  0
  5  3  1  0
  6  5  1  0
  6  7  1  1
  8  7  1  0
  9  8  1  0
 10  9  2  0
 11  6  1  0
 11 14  1  0
 12 11  2  0
 13  9  1  0
 15 14  1  0
 16 15  1  0
 17 16  1  0
 18 16  2  0
M  END
$$$$
