GEG.pdb
     RDKit          3D

 18 17  0  0  1  0  0  0  0  0999 V2000
    6.5545  -14.2208   19.6551 N   0  0  0  0  0  0  0  0  0  0  0  0
    6.8140  -13.9331   21.0532 C   0  0  0  0  0  0  0  0  0  0  0  0
    7.3118  -15.1377   21.7472 C   0  0  0  0  0  0  0  0  0  0  0  0
    7.3591  -16.2731   21.1721 O   0  0  0  0  0  0  0  0  0  0  0  0
    7.7501  -15.0258   23.0945 N   0  0  0  0  0  0  0  0  0  0  0  0
    8.3207  -16.1642   23.7841 C   0  0  1  0  0  0  0  0  0  0  0  0
    9.7585  -15.9586   24.1472 C   0  0  0  0  0  0  0  0  0  0  0  0
   10.6938  -15.8621   23.0015 C   0  0  0  0  0  0  0  0  0  0  0  0
   12.1123  -15.8153   23.3373 C   0  0  0  0  0  0  0  0  0  0  0  0
   12.4323  -15.6777   24.5509 O   0  0  0  0  0  0  0  0  0  0  0  0
    7.5873  -16.4682   25.0411 C   0  0  0  0  0  0  0  0  0  0  0  0
    6.7966  -15.6228   25.5287 O   0  0  0  0  0  0  0  0  0  0  0  0
   13.1728  -15.9078   22.4480 O   0  0  0  0  0  0  0  0  0  0  0  0
    7.7271  -17.6912   25.7487 N   0  0  0  0  0  0  0  0  0  0  0  0
    6.8484  -18.1137   26.7953 C   0  0  0  0  0  0  0  0  0  0  0  0
    7.3001  -19.4272   27.3084 C   0  0  0  0  0  0  0  0  0  0  0  0
    8.3389  -20.0877   26.6751 O   0  0  0  0  0  0  0  0  0  0  0  0
    6.7365  -19.9149   28.3021 O   0  0  0  0  0  0  0  0  0  0  0  0
  2  1  1  0
  3  4  2  0
  3  2  1  0
  5  3  1  0
  6  5  1  0
  6  7  1  1
  8  7  1  0
  9  8  1  0
 10  9  2  0
 11  6  1  0
 11 14  1  0
 12 11  2  0
 13  9  1  0
 15 14  1  0
 16 15  1  0
 17 16  1  0
 18 16  2  0
M  END
$$$$
