GEG.pdb
     RDKit          3D

 18 17  0  0  1  0  0  0  0  0999 V2000
    6.0368  -20.1926   22.8795 N   0  0  0  0  0  0  0  0  0  0  0  0
    6.7271  -18.9170   22.8444 C   0  0  0  0  0  0  0  0  0  0  0  0
    7.9722  -18.9788   23.6358 C   0  0  0  0  0  0  0  0  0  0  0  0
    8.2785  -20.0034   24.3276 O   0  0  0  0  0  0  0  0  0  0  0  0
    8.8527  -17.8633   23.6245 N   0  0  0  0  0  0  0  0  0  0  0  0
   10.0396  -17.8487   24.4541 C   0  0  1  0  0  0  0  0  0  0  0  0
   11.0728  -16.8806   23.9675 C   0  0  0  0  0  0  0  0  0  0  0  0
   11.7333  -17.2467   22.6923 C   0  0  0  0  0  0  0  0  0  0  0  0
   12.7199  -16.2978   22.1888 C   0  0  0  0  0  0  0  0  0  0  0  0
   13.8914  -16.3531   22.6565 O   0  0  0  0  0  0  0  0  0  0  0  0
    9.7215  -17.4851   25.8602 C   0  0  0  0  0  0  0  0  0  0  0  0
    9.0247  -16.4693   26.1055 O   0  0  0  0  0  0  0  0  0  0  0  0
   12.5064  -15.3186   21.2298 O   0  0  0  0  0  0  0  0  0  0  0  0
   10.1688  -18.2356   26.9794 N   0  0  0  0  0  0  0  0  0  0  0  0
    9.8687  -17.9009   28.3373 C   0  0  0  0  0  0  0  0  0  0  0  0
   10.5815  -18.8360   29.2372 C   0  0  0  0  0  0  0  0  0  0  0  0
   10.5597  -18.6190   30.6043 O   0  0  0  0  0  0  0  0  0  0  0  0
   11.1889  -19.8025   28.7474 O   0  0  0  0  0  0  0  0  0  0  0  0
  2  1  1  0
  3  4  2  0
  3  2  1  0
  5  3  1  0
  6  5  1  0
  6  7  1  6
  8  7  1  0
  9  8  1  0
 10  9  2  0
 11  6  1  0
 11 14  1  0
 12 11  2  0
 13  9  1  0
 15 14  1  0
 16 15  1  0
 17 16  1  0
 18 16  2  0
M  END
$$$$
