GEG.pdb
     RDKit          3D

 18 17  0  0  1  0  0  0  0  0999 V2000
    8.7274  -11.7049   18.9877 N   0  0  0  0  0  0  0  0  0  0  0  0
    8.5960  -13.1482   18.9203 C   0  0  0  0  0  0  0  0  0  0  0  0
    8.1710  -13.6921   20.2256 C   0  0  0  0  0  0  0  0  0  0  0  0
    8.1197  -12.9668   21.2713 O   0  0  0  0  0  0  0  0  0  0  0  0
    7.8092  -15.0635   20.3165 N   0  0  0  0  0  0  0  0  0  0  0  0
    7.4042  -15.6398   21.5819 C   0  0  1  0  0  0  0  0  0  0  0  0
    6.5979  -16.8902   21.4155 C   0  0  0  0  0  0  0  0  0  0  0  0
    6.1802  -17.5473   22.6766 C   0  0  0  0  0  0  0  0  0  0  0  0
    5.1128  -18.5342   22.5593 C   0  0  0  0  0  0  0  0  0  0  0  0
    5.2254  -19.4306   21.6773 O   0  0  0  0  0  0  0  0  0  0  0  0
    8.5770  -15.9805   22.4298 C   0  0  0  0  0  0  0  0  0  0  0  0
    9.5732  -16.5551   21.9250 O   0  0  0  0  0  0  0  0  0  0  0  0
    3.9607  -18.5968   23.3292 O   0  0  0  0  0  0  0  0  0  0  0  0
    8.6460  -15.6889   23.8177 N   0  0  0  0  0  0  0  0  0  0  0  0
    9.8245  -15.8547   24.6113 C   0  0  0  0  0  0  0  0  0  0  0  0
    9.7933  -17.1877   25.2551 C   0  0  0  0  0  0  0  0  0  0  0  0
   10.6793  -17.4724   26.2800 O   0  0  0  0  0  0  0  0  0  0  0  0
    8.9693  -18.0301   24.8625 O   0  0  0  0  0  0  0  0  0  0  0  0
  2  1  1  0
  3  4  2  0
  3  2  1  0
  5  3  1  0
  6  5  1  0
  6  7  1  6
  8  7  1  0
  9  8  1  0
 10  9  2  0
 11  6  1  0
 11 14  1  0
 12 11  2  0
 13  9  1  0
 15 14  1  0
 16 15  1  0
 17 16  1  0
 18 16  2  0
M  END
$$$$
