GEG.pdb
     RDKit          3D

 18 17  0  0  1  0  0  0  0  0999 V2000
    9.5524  -16.0803   16.8671 N   0  0  0  0  0  0  0  0  0  0  0  0
   10.3000  -16.7591   17.9088 C   0  0  0  0  0  0  0  0  0  0  0  0
   11.0569  -15.7864   18.7221 C   0  0  0  0  0  0  0  0  0  0  0  0
   11.1901  -14.5711   18.3647 O   0  0  0  0  0  0  0  0  0  0  0  0
   11.6531  -16.2193   19.9374 N   0  0  0  0  0  0  0  0  0  0  0  0
   12.3367  -15.2802   20.8022 C   0  0  1  0  0  0  0  0  0  0  0  0
   12.2618  -15.6653   22.2470 C   0  0  0  0  0  0  0  0  0  0  0  0
   10.8980  -15.6876   22.8269 C   0  0  0  0  0  0  0  0  0  0  0  0
   10.7999  -16.1370   24.2110 C   0  0  0  0  0  0  0  0  0  0  0  0
   11.3486  -17.2309   24.5218 O   0  0  0  0  0  0  0  0  0  0  0  0
   13.7764  -15.1596   20.4517 C   0  0  0  0  0  0  0  0  0  0  0  0
   14.5486  -16.1363   20.6172 O   0  0  0  0  0  0  0  0  0  0  0  0
   10.1546  -15.4782   25.2471 O   0  0  0  0  0  0  0  0  0  0  0  0
   14.3536  -13.9741   19.9251 N   0  0  0  0  0  0  0  0  0  0  0  0
   15.7500  -13.8153   19.6589 C   0  0  0  0  0  0  0  0  0  0  0  0
   16.0263  -14.2126   18.2595 C   0  0  0  0  0  0  0  0  0  0  0  0
   16.4854  -13.2671   17.3586 O   0  0  0  0  0  0  0  0  0  0  0  0
   15.8403  -15.3922   17.9175 O   0  0  0  0  0  0  0  0  0  0  0  0
  2  1  1  0
  3  4  2  0
  3  2  1  0
  5  3  1  0
  6  5  1  0
  6  7  1  1
  8  7  1  0
  9  8  1  0
 10  9  2  0
 11  6  1  0
 11 14  1  0
 12 11  2  0
 13  9  1  0
 15 14  1  0
 16 15  1  0
 17 16  1  0
 18 16  2  0
M  END
$$$$
