GEG.pdb
     RDKit          3D

 18 17  0  0  1  0  0  0  0  0999 V2000
   10.2822  -18.7985   20.7006 N   0  0  0  0  0  0  0  0  0  0  0  0
   10.6344  -17.5276   21.3052 C   0  0  0  0  0  0  0  0  0  0  0  0
   11.5566  -17.7309   22.4404 C   0  0  0  0  0  0  0  0  0  0  0  0
   11.8699  -18.8950   22.8515 O   0  0  0  0  0  0  0  0  0  0  0  0
   12.1096  -16.5951   23.0917 N   0  0  0  0  0  0  0  0  0  0  0  0
   12.9748  -16.7502   24.2426 C   0  0  1  0  0  0  0  0  0  0  0  0
   13.8437  -15.5539   24.4775 C   0  0  0  0  0  0  0  0  0  0  0  0
   14.8189  -15.2579   23.4014 C   0  0  0  0  0  0  0  0  0  0  0  0
   16.1427  -15.8495   23.5590 C   0  0  0  0  0  0  0  0  0  0  0  0
   16.9115  -15.3631   24.4345 O   0  0  0  0  0  0  0  0  0  0  0  0
   12.1955  -16.9809   25.4875 C   0  0  0  0  0  0  0  0  0  0  0  0
   11.2503  -16.2112   25.7903 O   0  0  0  0  0  0  0  0  0  0  0  0
   16.6611  -16.9130   22.8349 O   0  0  0  0  0  0  0  0  0  0  0  0
   12.4589  -18.0491   26.3850 N   0  0  0  0  0  0  0  0  0  0  0  0
   11.6426  -18.3608   27.5176 C   0  0  0  0  0  0  0  0  0  0  0  0
   12.1746  -19.5729   28.1812 C   0  0  0  0  0  0  0  0  0  0  0  0
   11.5721  -20.0393   29.3369 O   0  0  0  0  0  0  0  0  0  0  0  0
   13.1562  -20.1518   27.6869 O   0  0  0  0  0  0  0  0  0  0  0  0
  2  1  1  0
  3  4  2  0
  3  2  1  0
  5  3  1  0
  6  5  1  0
  6  7  1  1
  8  7  1  0
  9  8  1  0
 10  9  2  0
 11  6  1  0
 11 14  1  0
 12 11  2  0
 13  9  1  0
 15 14  1  0
 16 15  1  0
 17 16  1  0
 18 16  2  0
M  END
$$$$
