GEG.pdb
     RDKit          3D

 18 17  0  0  1  0  0  0  0  0999 V2000
    2.6826  -20.3320   20.4230 N   0  0  0  0  0  0  0  0  0  0  0  0
    3.9801  -20.8759   20.7773 C   0  0  0  0  0  0  0  0  0  0  0  0
    4.1868  -20.8153   22.2381 C   0  0  0  0  0  0  0  0  0  0  0  0
    3.4428  -20.1094   22.9933 O   0  0  0  0  0  0  0  0  0  0  0  0
    5.2460  -21.5659   22.8165 N   0  0  0  0  0  0  0  0  0  0  0  0
    5.4798  -21.5365   24.2454 C   0  0  1  0  0  0  0  0  0  0  0  0
    5.7615  -22.8929   24.8128 C   0  0  0  0  0  0  0  0  0  0  0  0
    5.7990  -22.9654   26.2927 C   0  0  0  0  0  0  0  0  0  0  0  0
    6.8945  -23.7384   26.8666 C   0  0  0  0  0  0  0  0  0  0  0  0
    7.4225  -24.6396   26.1571 O   0  0  0  0  0  0  0  0  0  0  0  0
    6.6318  -20.6640   24.5948 C   0  0  0  0  0  0  0  0  0  0  0  0
    7.6475  -20.6367   23.8565 O   0  0  0  0  0  0  0  0  0  0  0  0
    7.4321  -23.5879   28.1364 O   0  0  0  0  0  0  0  0  0  0  0  0
    6.6590  -19.8331   25.7458 N   0  0  0  0  0  0  0  0  0  0  0  0
    7.7097  -18.9076   26.0385 C   0  0  0  0  0  0  0  0  0  0  0  0
    8.0336  -18.9806   27.4815 C   0  0  0  0  0  0  0  0  0  0  0  0
    9.0605  -18.2048   27.9914 O   0  0  0  0  0  0  0  0  0  0  0  0
    7.3752  -19.7397   28.2117 O   0  0  0  0  0  0  0  0  0  0  0  0
  2  1  1  0
  3  4  2  0
  3  2  1  0
  5  3  1  0
  6  5  1  0
  6  7  1  6
  8  7  1  0
  9  8  1  0
 10  9  2  0
 11  6  1  0
 11 14  1  0
 12 11  2  0
 13  9  1  0
 15 14  1  0
 16 15  1  0
 17 16  1  0
 18 16  2  0
M  END
$$$$
