RDG.pdb
     RDKit          3D

 24 23  0  0  1  0  0  0  0  0999 V2000
   24.2521  -20.2771  -10.4425 N   0  0  0  0  0  0  0  0  0  0  0  0
   25.2412  -20.8075   -9.5730 C   0  0  0  0  0  0  0  0  0  0  0  0
   24.9211  -20.9956   -8.3436 N   0  0  0  0  0  0  0  0  0  0  0  0
   26.5464  -21.1224  -10.0449 N   0  0  0  0  0  0  0  0  0  0  0  0
   26.8987  -20.6671  -11.3721 C   0  0  0  0  0  0  0  0  0  0  0  0
   26.4372  -21.5739  -12.4562 C   0  0  0  0  0  0  0  0  0  0  0  0
   25.9238  -20.9367  -13.6933 C   0  0  0  0  0  0  0  0  0  0  0  0
   24.8676  -19.8812  -13.4613 C   0  0  2  0  0  0  0  0  0  0  0  0
   24.2783  -20.0761  -12.1764 N   0  0  0  0  0  0  0  0  0  0  0  0
   23.8594  -19.9826  -14.5652 C   0  0  0  0  0  0  0  0  0  0  0  0
   24.1994  -19.9228  -15.7728 O   0  0  0  0  0  0  0  0  0  0  0  0
   25.5839  -21.2877   -7.5936 N   0  0  0  0  0  0  0  0  0  0  0  0
   22.4632  -20.1522  -14.3118 C   0  0  2  0  0  0  0  0  0  0  0  0
   21.5044  -20.2034  -15.4158 C   0  0  0  0  0  0  0  0  0  0  0  0
   20.3214  -21.0433  -14.9202 C   0  0  0  0  0  0  0  0  0  0  0  0
   20.7680  -22.4140  -14.5775 O   0  0  0  0  0  0  0  0  0  0  0  0
   21.5408  -23.0845  -15.3229 C   0  0  0  0  0  0  0  0  0  0  0  0
   21.0651  -18.8573  -15.8066 O   0  0  0  0  0  0  0  0  0  0  0  0
   20.7886  -17.9527  -14.9606 O   0  0  0  0  0  0  0  0  0  0  0  0
   20.3535  -23.0376  -13.4041 N   0  0  0  0  0  0  0  0  0  0  0  0
   20.9329  -18.5181  -17.1619 C   0  0  0  0  0  0  0  0  0  0  0  0
   20.5311  -17.1896  -17.6119 C   0  0  0  0  0  0  0  0  0  0  0  0
   20.5567  -17.1045  -19.0930 O   0  0  0  0  0  0  0  0  0  0  0  0
   20.8883  -18.0956  -19.7888 O   0  0  0  0  0  0  0  0  0  0  0  0
  1  2  1  0
  2  4  1  0
  3  2  2  0
  5  6  1  0
  5  4  1  0
  7  6  1  0
  7  8  1  0
  8  9  1  1
 10  8  1  0
 10 12  1  0
 11 10  2  0
 13 12  1  0
 13 17  1  0
 13 14  1  6
 15 16  2  0
 15 14  1  0
 17 18  2  0
 19 15  1  0
 20 17  1  0
 20 21  1  0
 22 21  1  0
 22 24  1  0
 23 22  2  0
M  END
$$$$
