RDG.pdb
     RDKit          3D

 24 23  0  0  1  0  0  0  0  0999 V2000
   26.9048  -21.3845  -10.6229 N   0  0  0  0  0  0  0  0  0  0  0  0
   25.5043  -21.1510  -10.6171 C   0  0  0  0  0  0  0  0  0  0  0  0
   24.9847  -20.6443   -9.5576 N   0  0  0  0  0  0  0  0  0  0  0  0
   24.6989  -21.4665  -11.7472 N   0  0  0  0  0  0  0  0  0  0  0  0
   25.3525  -22.1044  -12.8692 C   0  0  0  0  0  0  0  0  0  0  0  0
   25.8642  -21.1467  -13.8849 C   0  0  0  0  0  0  0  0  0  0  0  0
   24.9139  -20.7105  -14.9370 C   0  0  0  0  0  0  0  0  0  0  0  0
   23.8543  -19.7440  -14.4611 C   0  0  2  0  0  0  0  0  0  0  0  0
   23.1365  -20.3267  -13.3742 N   0  0  0  0  0  0  0  0  0  0  0  0
   22.9606  -19.4264  -15.6212 C   0  0  0  0  0  0  0  0  0  0  0  0
   23.4237  -19.2254  -16.7713 O   0  0  0  0  0  0  0  0  0  0  0  0
   23.9802  -20.3861   -9.4518 N   0  0  0  0  0  0  0  0  0  0  0  0
   21.5406  -19.3346  -15.4893 C   0  0  2  0  0  0  0  0  0  0  0  0
   20.6975  -19.0706  -16.6555 C   0  0  0  0  0  0  0  0  0  0  0  0
   20.8539  -20.2814  -17.5830 C   0  0  0  0  0  0  0  0  0  0  0  0
   20.2306  -21.4812  -16.9765 O   0  0  0  0  0  0  0  0  0  0  0  0
   20.5162  -21.8805  -15.8097 C   0  0  0  0  0  0  0  0  0  0  0  0
   19.2927  -18.8832  -16.2696 O   0  0  0  0  0  0  0  0  0  0  0  0
   18.8671  -19.1093  -15.0956 O   0  0  0  0  0  0  0  0  0  0  0  0
   19.2890  -22.2360  -17.6702 N   0  0  0  0  0  0  0  0  0  0  0  0
   18.3507  -18.4371  -17.2092 C   0  0  0  0  0  0  0  0  0  0  0  0
   17.5258  -17.2510  -17.0044 C   0  0  0  0  0  0  0  0  0  0  0  0
   16.7810  -17.3413  -15.7243 O   0  0  0  0  0  0  0  0  0  0  0  0
   17.3638  -17.6733  -14.6629 O   0  0  0  0  0  0  0  0  0  0  0  0
  1  2  1  0
  2  4  1  0
  3  2  2  0
  5  6  1  0
  5  4  1  0
  7  6  1  0
  7  8  1  0
  8  9  1  1
 10  8  1  0
 10 12  1  0
 11 10  2  0
 13 12  1  0
 13 17  1  0
 13 14  1  6
 15 16  2  0
 15 14  1  0
 17 18  2  0
 19 15  1  0
 20 17  1  0
 20 21  1  0
 22 21  1  0
 22 24  1  0
 23 22  2  0
M  END
$$$$
