RDG.pdb
     RDKit          3D

 24 23  0  0  1  0  0  0  0  0999 V2000
   25.9287  -20.3826  -12.5550 N   0  0  0  0  0  0  0  0  0  0  0  0
   26.6359  -21.6124  -12.6105 C   0  0  0  0  0  0  0  0  0  0  0  0
   27.1513  -22.0580  -11.5219 N   0  0  0  0  0  0  0  0  0  0  0  0
   26.7712  -22.3315  -13.8312 N   0  0  0  0  0  0  0  0  0  0  0  0
   25.9778  -21.8839  -14.9551 C   0  0  0  0  0  0  0  0  0  0  0  0
   24.8388  -22.7835  -15.2774 C   0  0  0  0  0  0  0  0  0  0  0  0
   23.4758  -22.2090  -15.1673 C   0  0  0  0  0  0  0  0  0  0  0  0
   23.1213  -21.6993  -13.7895 C   0  0  2  0  0  0  0  0  0  0  0  0
   23.4741  -22.6816  -12.8166 N   0  0  0  0  0  0  0  0  0  0  0  0
   21.6553  -21.3896  -13.7720 C   0  0  0  0  0  0  0  0  0  0  0  0
   20.7910  -22.2979  -13.8475 O   0  0  0  0  0  0  0  0  0  0  0  0
   27.7710  -22.8937  -11.4548 N   0  0  0  0  0  0  0  0  0  0  0  0
   21.1575  -20.0540  -13.6688 C   0  0  1  0  0  0  0  0  0  0  0  0
   19.7194  -19.7877  -13.7062 C   0  0  0  0  0  0  0  0  0  0  0  0
   19.4235  -18.8538  -12.5268 C   0  0  0  0  0  0  0  0  0  0  0  0
   19.6375  -19.5600  -11.2417 O   0  0  0  0  0  0  0  0  0  0  0  0
   19.2030  -20.7295  -11.0270 C   0  0  0  0  0  0  0  0  0  0  0  0
   19.3219  -19.1691  -14.9778 O   0  0  0  0  0  0  0  0  0  0  0  0
   20.0666  -18.3586  -15.6094 O   0  0  0  0  0  0  0  0  0  0  0  0
   20.3358  -18.9631  -10.1960 N   0  0  0  0  0  0  0  0  0  0  0  0
   18.0746  -19.4606  -15.5510 C   0  0  0  0  0  0  0  0  0  0  0  0
   17.6542  -18.9359  -16.8459 C   0  0  0  0  0  0  0  0  0  0  0  0
   17.4094  -17.4745  -16.7684 O   0  0  0  0  0  0  0  0  0  0  0  0
   17.6542  -16.8361  -15.7153 O   0  0  0  0  0  0  0  0  0  0  0  0
  1  2  1  0
  2  4  1  0
  3  2  2  0
  5  6  1  0
  5  4  1  0
  7  6  1  0
  7  8  1  0
  8  9  1  1
 10  8  1  0
 10 12  1  0
 11 10  2  0
 13 12  1  0
 13 17  1  0
 13 14  1  6
 15 16  2  0
 15 14  1  0
 17 18  2  0
 19 15  1  0
 20 17  1  0
 20 21  1  0
 22 21  1  0
 22 24  1  0
 23 22  2  0
M  END
$$$$
