RDG.pdb
     RDKit          3D

 24 23  0  0  1  0  0  0  0  0999 V2000
   25.8815  -16.9110  -18.5445 N   0  0  0  0  0  0  0  0  0  0  0  0
   27.0925  -17.2195  -19.2185 C   0  0  0  0  0  0  0  0  0  0  0  0
   27.2075  -16.8529  -20.4439 N   0  0  0  0  0  0  0  0  0  0  0  0
   28.1475  -17.9121  -18.5606 N   0  0  0  0  0  0  0  0  0  0  0  0
   27.9306  -18.2944  -17.1824 C   0  0  0  0  0  0  0  0  0  0  0  0
   27.8611  -19.7651  -16.9749 C   0  0  0  0  0  0  0  0  0  0  0  0
   26.6920  -20.2840  -16.2240 C   0  0  0  0  0  0  0  0  0  0  0  0
   26.7263  -20.0015  -14.7399 C   0  0  2  0  0  0  0  0  0  0  0  0
   27.9050  -20.5751  -14.1763 N   0  0  0  0  0  0  0  0  0  0  0  0
   25.4785  -20.5650  -14.1309 C   0  0  0  0  0  0  0  0  0  0  0  0
   24.6899  -21.2829  -14.7947 O   0  0  0  0  0  0  0  0  0  0  0  0
   28.0665  -16.9712  -21.0228 N   0  0  0  0  0  0  0  0  0  0  0  0
   25.1147  -20.3217  -12.7705 C   0  0  1  0  0  0  0  0  0  0  0  0
   23.8730  -20.8659  -12.2204 C   0  0  0  0  0  0  0  0  0  0  0  0
   23.9694  -20.7054  -10.6987 C   0  0  0  0  0  0  0  0  0  0  0  0
   25.1581  -21.4204  -10.1775 O   0  0  0  0  0  0  0  0  0  0  0  0
   25.7934  -22.2744  -10.8627 C   0  0  0  0  0  0  0  0  0  0  0  0
   22.6982  -20.1603  -12.7491 O   0  0  0  0  0  0  0  0  0  0  0  0
   22.6857  -18.9086  -12.9583 O   0  0  0  0  0  0  0  0  0  0  0  0
   25.6390  -21.1836   -8.8929 N   0  0  0  0  0  0  0  0  0  0  0  0
   21.5212  -20.8636  -13.0479 C   0  0  0  0  0  0  0  0  0  0  0  0
   20.3858  -20.2557  -13.7336 C   0  0  0  0  0  0  0  0  0  0  0  0
   19.2956  -19.9460  -12.7759 O   0  0  0  0  0  0  0  0  0  0  0  0
   19.4061  -20.2365  -11.5594 O   0  0  0  0  0  0  0  0  0  0  0  0
  1  2  1  0
  2  4  1  0
  3  2  2  0
  5  6  1  0
  5  4  1  0
  7  6  1  0
  7  8  1  0
  8  9  1  1
 10  8  1  0
 10 12  1  0
 11 10  2  0
 13 12  1  0
 13 17  1  0
 13 14  1  6
 15 16  2  0
 15 14  1  0
 17 18  2  0
 19 15  1  0
 20 17  1  0
 20 21  1  0
 22 21  1  0
 22 24  1  0
 23 22  2  0
M  END
$$$$
