RDG.pdb
     RDKit          3D

 24 23  0  0  1  0  0  0  0  0999 V2000
   26.1782  -20.5570   -9.3260 N   0  0  0  0  0  0  0  0  0  0  0  0
   25.3991  -20.9426  -10.4485 C   0  0  0  0  0  0  0  0  0  0  0  0
   24.1216  -20.8547  -10.3511 N   0  0  0  0  0  0  0  0  0  0  0  0
   26.0104  -21.4114  -11.6451 N   0  0  0  0  0  0  0  0  0  0  0  0
   27.4320  -21.1885  -11.7941 C   0  0  0  0  0  0  0  0  0  0  0  0
   27.7680  -19.8982  -12.4520 C   0  0  0  0  0  0  0  0  0  0  0  0
   27.6124  -19.8341  -13.9257 C   0  0  0  0  0  0  0  0  0  0  0  0
   26.3566  -19.1349  -14.3923 C   0  0  2  0  0  0  0  0  0  0  0  0
   25.6603  -18.6096  -13.2630 N   0  0  0  0  0  0  0  0  0  0  0  0
   25.5293  -20.1253  -15.1539 C   0  0  0  0  0  0  0  0  0  0  0  0
   25.8938  -20.5625  -16.2737 O   0  0  0  0  0  0  0  0  0  0  0  0
   23.4453  -21.1831  -11.0734 N   0  0  0  0  0  0  0  0  0  0  0  0
   24.2875  -20.6274  -14.6559 C   0  0  2  0  0  0  0  0  0  0  0  0
   23.4665  -21.5272  -15.4664 C   0  0  0  0  0  0  0  0  0  0  0  0
   23.1854  -22.7565  -14.5943 C   0  0  0  0  0  0  0  0  0  0  0  0
   24.4137  -23.5702  -14.4362 O   0  0  0  0  0  0  0  0  0  0  0  0
   25.3175  -23.6175  -15.3212 C   0  0  0  0  0  0  0  0  0  0  0  0
   22.2145  -20.8814  -15.8822 O   0  0  0  0  0  0  0  0  0  0  0  0
   21.3436  -20.4746  -15.0537 O   0  0  0  0  0  0  0  0  0  0  0  0
   24.6349  -24.3310  -13.2918 N   0  0  0  0  0  0  0  0  0  0  0  0
   21.9322  -20.6880  -17.2432 C   0  0  0  0  0  0  0  0  0  0  0  0
   20.7402  -19.9913  -17.7152 C   0  0  0  0  0  0  0  0  0  0  0  0
   20.6826  -19.9900  -19.1979 O   0  0  0  0  0  0  0  0  0  0  0  0
   21.6400  -20.4323  -19.8792 O   0  0  0  0  0  0  0  0  0  0  0  0
  1  2  1  0
  2  4  1  0
  3  2  2  0
  5  6  1  0
  5  4  1  0
  7  6  1  0
  7  8  1  0
  8  9  1  1
 10  8  1  0
 10 12  1  0
 11 10  2  0
 13 12  1  0
 13 17  1  0
 13 14  1  1
 15 16  2  0
 15 14  1  0
 17 18  2  0
 19 15  1  0
 20 17  1  0
 20 21  1  0
 22 21  1  0
 22 24  1  0
 23 22  2  0
M  END
$$$$
