RDG.pdb
     RDKit          3D

 24 23  0  0  1  0  0  0  0  0999 V2000
   24.9303  -20.5416  -10.5230 N   0  0  0  0  0  0  0  0  0  0  0  0
   26.2682  -20.5272  -10.0482 C   0  0  0  0  0  0  0  0  0  0  0  0
   26.4616  -20.2638   -8.8062 N   0  0  0  0  0  0  0  0  0  0  0  0
   27.3627  -20.7959  -10.9174 N   0  0  0  0  0  0  0  0  0  0  0  0
   27.0774  -20.8877  -12.3327 C   0  0  0  0  0  0  0  0  0  0  0  0
   27.8217  -19.8990  -13.1568 C   0  0  0  0  0  0  0  0  0  0  0  0
   27.1963  -19.4824  -14.4356 C   0  0  0  0  0  0  0  0  0  0  0  0
   25.6983  -19.6735  -14.4907 C   0  0  2  0  0  0  0  0  0  0  0  0
   25.3930  -20.7730  -15.3474 N   0  0  0  0  0  0  0  0  0  0  0  0
   25.0845  -18.3948  -14.9740 C   0  0  0  0  0  0  0  0  0  0  0  0
   25.6268  -17.2828  -14.7574 O   0  0  0  0  0  0  0  0  0  0  0  0
   27.3971  -20.1855   -8.3527 N   0  0  0  0  0  0  0  0  0  0  0  0
   23.8563  -18.3647  -15.7040 C   0  0  1  0  0  0  0  0  0  0  0  0
   23.7658  -17.6643  -16.9854 C   0  0  0  0  0  0  0  0  0  0  0  0
   24.8134  -18.3065  -17.9023 C   0  0  0  0  0  0  0  0  0  0  0  0
   25.7674  -17.2842  -18.3929 O   0  0  0  0  0  0  0  0  0  0  0  0
   26.7546  -16.8890  -17.7062 C   0  0  0  0  0  0  0  0  0  0  0  0
   22.4208  -17.7787  -17.5646 O   0  0  0  0  0  0  0  0  0  0  0  0
   22.0898  -17.2099  -18.6497 O   0  0  0  0  0  0  0  0  0  0  0  0
   25.6213  -16.7023  -19.6489 N   0  0  0  0  0  0  0  0  0  0  0  0
   21.4322  -18.5394  -16.9218 C   0  0  0  0  0  0  0  0  0  0  0  0
   20.6714  -18.0479  -15.7778 C   0  0  0  0  0  0  0  0  0  0  0  0
   19.7481  -19.0928  -15.2703 O   0  0  0  0  0  0  0  0  0  0  0  0
   19.7109  -20.2306  -15.7998 O   0  0  0  0  0  0  0  0  0  0  0  0
  1  2  1  0
  2  4  1  0
  3  2  2  0
  5  6  1  0
  5  4  1  0
  7  6  1  0
  7  8  1  0
  8  9  1  6
 10  8  1  0
 10 12  1  0
 11 10  2  0
 13 12  1  0
 13 17  1  0
 13 14  1  1
 15 16  2  0
 15 14  1  0
 17 18  2  0
 19 15  1  0
 20 17  1  0
 20 21  1  0
 22 21  1  0
 22 24  1  0
 23 22  2  0
M  END
$$$$
