RDG.pdb
     RDKit          3D

 24 23  0  0  1  0  0  0  0  0999 V2000
   27.2060  -19.9401  -11.6508 N   0  0  0  0  0  0  0  0  0  0  0  0
   26.6095  -21.2077  -11.8812 C   0  0  0  0  0  0  0  0  0  0  0  0
   27.1264  -21.9588  -12.7856 N   0  0  0  0  0  0  0  0  0  0  0  0
   25.4755  -21.6361  -11.1356 N   0  0  0  0  0  0  0  0  0  0  0  0
   24.2267  -21.7780  -11.8520 C   0  0  0  0  0  0  0  0  0  0  0  0
   23.4892  -20.4986  -12.0248 C   0  0  0  0  0  0  0  0  0  0  0  0
   22.3092  -20.5184  -12.9233 C   0  0  0  0  0  0  0  0  0  0  0  0
   22.5829  -21.0697  -14.3034 C   0  0  2  0  0  0  0  0  0  0  0  0
   23.9706  -21.3802  -14.4220 N   0  0  0  0  0  0  0  0  0  0  0  0
   22.1463  -20.0466  -15.3073 C   0  0  0  0  0  0  0  0  0  0  0  0
   21.0072  -19.5199  -15.2555 O   0  0  0  0  0  0  0  0  0  0  0  0
   26.7349  -22.8743  -13.0947 N   0  0  0  0  0  0  0  0  0  0  0  0
   22.9926  -19.6126  -16.3739 C   0  0  2  0  0  0  0  0  0  0  0  0
   22.5394  -18.5922  -17.3194 C   0  0  0  0  0  0  0  0  0  0  0  0
   22.1942  -17.3539  -16.4840 C   0  0  0  0  0  0  0  0  0  0  0  0
   21.7145  -16.2577  -17.3582 O   0  0  0  0  0  0  0  0  0  0  0  0
   22.5016  -15.5296  -18.0311 C   0  0  0  0  0  0  0  0  0  0  0  0
   23.5770  -18.2830  -18.3120 O   0  0  0  0  0  0  0  0  0  0  0  0
   23.3671  -17.5327  -19.3137 O   0  0  0  0  0  0  0  0  0  0  0  0
   20.3577  -15.9729  -17.4826 N   0  0  0  0  0  0  0  0  0  0  0  0
   24.8670  -18.8202  -18.1830 C   0  0  0  0  0  0  0  0  0  0  0  0
   25.9197  -18.6023  -19.1695 C   0  0  0  0  0  0  0  0  0  0  0  0
   26.5931  -17.2996  -18.9431 O   0  0  0  0  0  0  0  0  0  0  0  0
   26.3505  -16.6200  -17.9156 O   0  0  0  0  0  0  0  0  0  0  0  0
  1  2  1  0
  2  4  1  0
  3  2  2  0
  5  6  1  0
  5  4  1  0
  7  6  1  0
  7  8  1  0
  8  9  1  1
 10  8  1  0
 10 12  1  0
 11 10  2  0
 13 12  1  0
 13 17  1  0
 13 14  1  1
 15 16  2  0
 15 14  1  0
 17 18  2  0
 19 15  1  0
 20 17  1  0
 20 21  1  0
 22 21  1  0
 22 24  1  0
 23 22  2  0
M  END
$$$$
