RDG.pdb
     RDKit          3D

 24 23  0  0  1  0  0  0  0  0999 V2000
   18.7861  -23.5610  -14.4258 N   0  0  0  0  0  0  0  0  0  0  0  0
   17.8725  -22.6519  -15.0212 C   0  0  0  0  0  0  0  0  0  0  0  0
   16.6787  -23.0653  -15.2519 N   0  0  0  0  0  0  0  0  0  0  0  0
   18.2630  -21.3241  -15.3528 N   0  0  0  0  0  0  0  0  0  0  0  0
   19.6606  -20.9855  -15.1941 C   0  0  0  0  0  0  0  0  0  0  0  0
   19.9286  -20.0806  -14.0452 C   0  0  0  0  0  0  0  0  0  0  0  0
   21.2943  -19.5115  -13.9416 C   0  0  0  0  0  0  0  0  0  0  0  0
   22.4030  -20.4793  -14.2846 C   0  0  2  0  0  0  0  0  0  0  0  0
   22.0584  -21.7804  -13.8109 N   0  0  0  0  0  0  0  0  0  0  0  0
   23.6703  -19.9717  -13.6667 C   0  0  0  0  0  0  0  0  0  0  0  0
   24.0743  -18.7991  -13.8656 O   0  0  0  0  0  0  0  0  0  0  0  0
   15.9187  -22.4872  -15.6705 N   0  0  0  0  0  0  0  0  0  0  0  0
   24.4874  -20.7843  -12.8215 C   0  0  1  0  0  0  0  0  0  0  0  0
   25.8104  -20.3262  -12.3969 C   0  0  0  0  0  0  0  0  0  0  0  0
   26.1825  -21.1641  -11.1681 C   0  0  0  0  0  0  0  0  0  0  0  0
   25.2462  -20.8902  -10.0526 O   0  0  0  0  0  0  0  0  0  0  0  0
   24.3134  -20.0390  -10.1403 C   0  0  0  0  0  0  0  0  0  0  0  0
   26.8037  -20.4929  -13.4661 O   0  0  0  0  0  0  0  0  0  0  0  0
   27.0674  -21.6188  -13.9889 O   0  0  0  0  0  0  0  0  0  0  0  0
   25.3494  -21.5649   -8.8395 N   0  0  0  0  0  0  0  0  0  0  0  0
   27.5122  -19.3856  -13.9573 C   0  0  0  0  0  0  0  0  0  0  0  0
   28.5705  -19.4997  -14.9553 C   0  0  0  0  0  0  0  0  0  0  0  0
   28.0184  -19.3712  -16.3265 O   0  0  0  0  0  0  0  0  0  0  0  0
   26.9749  -18.7065  -16.5401 O   0  0  0  0  0  0  0  0  0  0  0  0
  1  2  1  0
  2  4  1  0
  3  2  2  0
  5  6  1  0
  5  4  1  0
  7  6  1  0
  7  8  1  0
  8  9  1  1
 10  8  1  0
 10 12  1  0
 11 10  2  0
 13 12  1  0
 13 17  1  0
 13 14  1  6
 15 16  2  0
 15 14  1  0
 17 18  2  0
 19 15  1  0
 20 17  1  0
 20 21  1  0
 22 21  1  0
 22 24  1  0
 23 22  2  0
M  END
$$$$
