RDG.pdb
     RDKit          3D

 24 23  0  0  1  0  0  0  0  0999 V2000
   25.6620  -20.5144   -9.2906 N   0  0  0  0  0  0  0  0  0  0  0  0
   24.6100  -20.8314  -10.1898 C   0  0  0  0  0  0  0  0  0  0  0  0
   23.4137  -20.5096   -9.8514 N   0  0  0  0  0  0  0  0  0  0  0  0
   24.8689  -21.4842  -11.4277 N   0  0  0  0  0  0  0  0  0  0  0  0
   26.1748  -21.2894  -12.0189 C   0  0  0  0  0  0  0  0  0  0  0  0
   26.5256  -19.8605  -12.2331 C   0  0  0  0  0  0  0  0  0  0  0  0
   26.6330  -19.3975  -13.6382 C   0  0  0  0  0  0  0  0  0  0  0  0
   26.3828  -20.4714  -14.6715 C   0  0  2  0  0  0  0  0  0  0  0  0
   27.6150  -20.8167  -15.3027 N   0  0  0  0  0  0  0  0  0  0  0  0
   25.3753  -19.9488  -15.6498 C   0  0  0  0  0  0  0  0  0  0  0  0
   25.5562  -18.8690  -16.2655 O   0  0  0  0  0  0  0  0  0  0  0  0
   22.5670  -20.6605  -10.4408 N   0  0  0  0  0  0  0  0  0  0  0  0
   24.1594  -20.6419  -15.9385 C   0  0  1  0  0  0  0  0  0  0  0  0
   23.1573  -20.0541  -16.8279 C   0  0  0  0  0  0  0  0  0  0  0  0
   23.0529  -20.9903  -18.0376 C   0  0  0  0  0  0  0  0  0  0  0  0
   24.2771  -20.9010  -18.8678 O   0  0  0  0  0  0  0  0  0  0  0  0
   24.8145  -19.7958  -19.1714 C   0  0  0  0  0  0  0  0  0  0  0  0
   21.8583  -19.9183  -16.1559 O   0  0  0  0  0  0  0  0  0  0  0  0
   21.5194  -20.6353  -15.1651 O   0  0  0  0  0  0  0  0  0  0  0  0
   24.9024  -22.0431  -19.3596 N   0  0  0  0  0  0  0  0  0  0  0  0
   20.9252  -18.9678  -16.5977 C   0  0  0  0  0  0  0  0  0  0  0  0
   19.5802  -18.8586  -16.0427 C   0  0  0  0  0  0  0  0  0  0  0  0
   19.5559  -17.9104  -14.9016 O   0  0  0  0  0  0  0  0  0  0  0  0
   20.2886  -18.0923  -13.8984 O   0  0  0  0  0  0  0  0  0  0  0  0
  1  2  1  0
  2  4  1  0
  3  2  2  0
  5  6  1  0
  5  4  1  0
  7  6  1  0
  7  8  1  0
  8  9  1  6
 10  8  1  0
 10 12  1  0
 11 10  2  0
 13 12  1  0
 13 17  1  0
 13 14  1  6
 15 16  2  0
 15 14  1  0
 17 18  2  0
 19 15  1  0
 20 17  1  0
 20 21  1  0
 22 21  1  0
 22 24  1  0
 23 22  2  0
M  END
$$$$
