RDG.pdb
     RDKit          3D

 24 23  0  0  1  0  0  0  0  0999 V2000
   18.7511  -24.8390   -7.5226 N   0  0  0  0  0  0  0  0  0  0  0  0
   17.4847  -24.6592   -8.1387 C   0  0  0  0  0  0  0  0  0  0  0  0
   16.5038  -24.2884   -7.3973 N   0  0  0  0  0  0  0  0  0  0  0  0
   17.3041  -24.8811   -9.5328 N   0  0  0  0  0  0  0  0  0  0  0  0
   18.3698  -24.4573  -10.4146 C   0  0  0  0  0  0  0  0  0  0  0  0
   18.4181  -22.9868  -10.6285 C   0  0  0  0  0  0  0  0  0  0  0  0
   19.5161  -22.4664  -11.4792 C   0  0  0  0  0  0  0  0  0  0  0  0
   19.3273  -22.7051  -12.9594 C   0  0  2  0  0  0  0  0  0  0  0  0
   19.3696  -24.1071  -13.2216 N   0  0  0  0  0  0  0  0  0  0  0  0
   20.4036  -21.9621  -13.6906 C   0  0  0  0  0  0  0  0  0  0  0  0
   21.3761  -22.5608  -14.2136 O   0  0  0  0  0  0  0  0  0  0  0  0
   15.5210  -24.1710   -7.7247 N   0  0  0  0  0  0  0  0  0  0  0  0
   20.3878  -20.5405  -13.8356 C   0  0  2  0  0  0  0  0  0  0  0  0
   21.3979  -19.8609  -14.6470 C   0  0  0  0  0  0  0  0  0  0  0  0
   20.8819  -18.4348  -14.8716 C   0  0  0  0  0  0  0  0  0  0  0  0
   21.8498  -17.6559  -15.6793 O   0  0  0  0  0  0  0  0  0  0  0  0
   22.8950  -18.1717  -16.1732 C   0  0  0  0  0  0  0  0  0  0  0  0
   22.7040  -19.8467  -13.9751 O   0  0  0  0  0  0  0  0  0  0  0  0
   22.8364  -19.6039  -12.7366 O   0  0  0  0  0  0  0  0  0  0  0  0
   21.6530  -16.3022  -15.9367 N   0  0  0  0  0  0  0  0  0  0  0  0
   23.8783  -20.1073  -14.6980 C   0  0  0  0  0  0  0  0  0  0  0  0
   25.1504  -20.4247  -14.0577 C   0  0  0  0  0  0  0  0  0  0  0  0
   26.2085  -20.6543  -15.0722 O   0  0  0  0  0  0  0  0  0  0  0  0
   27.3964  -20.8673  -14.7260 O   0  0  0  0  0  0  0  0  0  0  0  0
  1  2  1  0
  2  4  1  0
  3  2  2  0
  5  6  1  0
  5  4  1  0
  7  6  1  0
  7  8  1  0
  8  9  1  1
 10  8  1  0
 10 12  1  0
 11 10  2  0
 13 12  1  0
 13 17  1  0
 13 14  1  6
 15 16  2  0
 15 14  1  0
 17 18  2  0
 19 15  1  0
 20 17  1  0
 20 21  1  0
 22 21  1  0
 22 24  1  0
 23 22  2  0
M  END
$$$$
