RDG.pdb
     RDKit          3D

 24 23  0  0  1  0  0  0  0  0999 V2000
   28.9440  -28.3824  -15.8805 N   0  0  0  0  0  0  0  0  0  0  0  0
   28.0859  -28.8043  -16.9299 C   0  0  0  0  0  0  0  0  0  0  0  0
   27.4319  -29.8976  -16.7676 N   0  0  0  0  0  0  0  0  0  0  0  0
   27.9515  -28.0427  -18.1247 N   0  0  0  0  0  0  0  0  0  0  0  0
   27.3936  -26.7134  -18.0036 C   0  0  0  0  0  0  0  0  0  0  0  0
   27.5903  -26.1037  -16.6618 C   0  0  0  0  0  0  0  0  0  0  0  0
   26.5246  -25.1951  -16.1731 C   0  0  0  0  0  0  0  0  0  0  0  0
   25.7181  -24.5321  -17.2657 C   0  0  2  0  0  0  0  0  0  0  0  0
   26.6031  -24.0023  -18.2517 N   0  0  0  0  0  0  0  0  0  0  0  0
   24.8718  -23.4672  -16.6372 C   0  0  0  0  0  0  0  0  0  0  0  0
   24.1408  -23.7095  -15.6448 O   0  0  0  0  0  0  0  0  0  0  0  0
   27.5536  -30.5507  -15.9641 N   0  0  0  0  0  0  0  0  0  0  0  0
   24.8464  -22.1242  -17.1248 C   0  0  1  0  0  0  0  0  0  0  0  0
   23.9933  -21.1164  -16.4946 C   0  0  0  0  0  0  0  0  0  0  0  0
   24.6385  -19.7581  -16.7931 C   0  0  0  0  0  0  0  0  0  0  0  0
   25.9700  -19.6654  -16.1491 O   0  0  0  0  0  0  0  0  0  0  0  0
   26.1899  -20.0885  -14.9765 C   0  0  0  0  0  0  0  0  0  0  0  0
   22.6220  -21.1723  -17.0179 O   0  0  0  0  0  0  0  0  0  0  0  0
   22.3626  -21.3698  -18.2444 O   0  0  0  0  0  0  0  0  0  0  0  0
   27.0562  -19.1013  -16.8118 N   0  0  0  0  0  0  0  0  0  0  0  0
   21.5255  -21.0048  -16.1582 C   0  0  0  0  0  0  0  0  0  0  0  0
   20.1585  -20.8349  -16.6393 C   0  0  0  0  0  0  0  0  0  0  0  0
   19.2428  -20.5038  -15.5197 O   0  0  0  0  0  0  0  0  0  0  0  0
   18.2578  -21.2364  -15.2562 O   0  0  0  0  0  0  0  0  0  0  0  0
  1  2  1  0
  2  4  1  0
  3  2  2  0
  5  6  1  0
  5  4  1  0
  7  6  1  0
  7  8  1  0
  8  9  1  6
 10  8  1  0
 10 12  1  0
 11 10  2  0
 13 12  1  0
 13 17  1  0
 13 14  1  1
 15 16  2  0
 15 14  1  0
 17 18  2  0
 19 15  1  0
 20 17  1  0
 20 21  1  0
 22 21  1  0
 22 24  1  0
 23 22  2  0
M  END
$$$$
