RDG.pdb
     RDKit          3D

 24 23  0  0  1  0  0  0  0  0999 V2000
   30.7824  -21.5512   -8.7788 N   0  0  0  0  0  0  0  0  0  0  0  0
   31.5099  -21.9830   -9.9190 C   0  0  0  0  0  0  0  0  0  0  0  0
   32.4784  -22.8065   -9.7366 N   0  0  0  0  0  0  0  0  0  0  0  0
   31.1793  -21.5210  -11.2239 N   0  0  0  0  0  0  0  0  0  0  0  0
   30.0228  -20.6609  -11.3488 C   0  0  0  0  0  0  0  0  0  0  0  0
   29.0562  -21.1075  -12.3864 C   0  0  0  0  0  0  0  0  0  0  0  0
   27.8662  -20.2510  -12.6105 C   0  0  0  0  0  0  0  0  0  0  0  0
   26.6351  -20.6780  -11.8454 C   0  0  2  0  0  0  0  0  0  0  0  0
   26.7016  -22.0797  -11.5865 N   0  0  0  0  0  0  0  0  0  0  0  0
   25.4318  -20.3117  -12.6598 C   0  0  0  0  0  0  0  0  0  0  0  0
   25.1891  -19.1199  -12.9738 O   0  0  0  0  0  0  0  0  0  0  0  0
   33.1320  -23.1315  -10.4810 N   0  0  0  0  0  0  0  0  0  0  0  0
   24.4971  -21.2879  -13.1241 C   0  0  1  0  0  0  0  0  0  0  0  0
   23.3022  -20.8847  -13.8660 C   0  0  0  0  0  0  0  0  0  0  0  0
   23.3767  -21.5963  -15.2220 C   0  0  0  0  0  0  0  0  0  0  0  0
   22.2567  -21.1681  -16.0928 O   0  0  0  0  0  0  0  0  0  0  0  0
   21.4489  -20.2515  -15.7616 C   0  0  0  0  0  0  0  0  0  0  0  0
   22.0755  -21.2528  -13.1469 O   0  0  0  0  0  0  0  0  0  0  0  0
   21.9603  -22.3356  -12.4952 O   0  0  0  0  0  0  0  0  0  0  0  0
   22.0371  -21.7613  -17.3327 N   0  0  0  0  0  0  0  0  0  0  0  0
   20.9621  -20.3986  -13.1567 C   0  0  0  0  0  0  0  0  0  0  0  0
   19.7533  -20.6615  -12.3830 C   0  0  0  0  0  0  0  0  0  0  0  0
   18.8747  -21.6265  -13.0891 O   0  0  0  0  0  0  0  0  0  0  0  0
   19.2191  -22.1244  -14.1891 O   0  0  0  0  0  0  0  0  0  0  0  0
  1  2  1  0
  2  4  1  0
  3  2  2  0
  5  6  1  0
  5  4  1  0
  7  6  1  0
  7  8  1  0
  8  9  1  6
 10  8  1  0
 10 12  1  0
 11 10  2  0
 13 12  1  0
 13 17  1  0
 13 14  1  1
 15 16  2  0
 15 14  1  0
 17 18  2  0
 19 15  1  0
 20 17  1  0
 20 21  1  0
 22 21  1  0
 22 24  1  0
 23 22  2  0
M  END
$$$$
