QRD.pdb
     RDKit          3D

 29 28  0  0  1  0  0  0  0  0999 V2000
   10.3748  -16.9818   27.7839 N   0  0  0  0  0  0  0  0  0  0  0  0
    9.9458  -18.2660   28.3157 C   0  0  0  0  0  0  0  0  0  0  0  0
   10.8593  -18.9293   28.8551 O   0  0  0  0  0  0  0  0  0  0  0  0
    8.5372  -18.6797   28.1853 C   0  0  0  0  0  0  0  0  0  0  0  0
    7.6126  -17.7057   27.5447 C   0  0  0  0  0  0  0  0  0  0  0  0
    6.8793  -18.3385   26.3946 C   0  0  2  0  0  0  0  0  0  0  0  0
    6.8015  -19.7502   26.5410 N   0  0  0  0  0  0  0  0  0  0  0  0
    7.5248  -17.9337   25.0930 C   0  0  0  0  0  0  0  0  0  0  0  0
    8.0097  -18.8471   24.3822 O   0  0  0  0  0  0  0  0  0  0  0  0
    7.6439  -11.8988   18.4253 N   0  0  0  0  0  0  0  0  0  0  0  0
    7.6987  -13.2794   18.0929 C   0  0  0  0  0  0  0  0  0  0  0  0
    7.9014  -13.6524   16.8610 N   0  0  0  0  0  0  0  0  0  0  0  0
    7.5371  -14.2880   19.0790 N   0  0  0  0  0  0  0  0  0  0  0  0
    7.4150  -13.9001   20.5161 C   0  0  0  0  0  0  0  0  0  0  0  0
    7.0689  -15.1066   21.2882 C   0  0  0  0  0  0  0  0  0  0  0  0
    7.3846  -15.2785   22.6808 C   0  0  0  0  0  0  0  0  0  0  0  0
    8.1862  -16.3794   23.2647 C   0  0  2  0  0  0  0  0  0  0  0  0
    7.6026  -16.6034   24.6558 N   0  0  0  0  0  0  0  0  0  0  0  0
    9.5524  -15.9410   23.6028 C   0  0  0  0  0  0  0  0  0  0  0  0
    9.8169  -15.7951   24.8499 O   0  0  0  0  0  0  0  0  0  0  0  0
    7.9617  -14.6614   16.6068 N   0  0  0  0  0  0  0  0  0  0  0  0
   10.6235  -15.6667   22.7383 C   0  0  2  0  0  0  0  0  0  0  0  0
   11.9424  -16.1907   22.9913 C   0  0  0  0  0  0  0  0  0  0  0  0
   11.9105  -17.6890   23.2466 C   0  0  0  0  0  0  0  0  0  0  0  0
   12.2254  -18.0535   24.6328 O   0  0  0  0  0  0  0  0  0  0  0  0
   12.4557  -17.1888   25.5127 C   0  0  0  0  0  0  0  0  0  0  0  0
   12.8797  -15.8290   21.9337 O   0  0  0  0  0  0  0  0  0  0  0  0
   14.2247  -15.6628   22.2188 O   0  0  0  0  0  0  0  0  0  0  0  0
   12.2764  -19.3854   25.0091 O   0  0  0  0  0  0  0  0  0  0  0  0
  2  1  1  0
  2  3  2  0
  4  2  1  0
  5  4  1  0
  5  6  1  0
  6  7  1  1
  8  6  1  0
  8  9  2  0
 10 11  1  0
 11 13  1  0
 11 12  2  0
 13 14  1  0
 15 14  1  0
 16 15  1  0
 17 16  1  1
 17 18  1  0
 18  8  1  0
 19 17  1  0
 20 19  2  0
 21 19  1  0
 22 21  1  0
 22 26  1  0
 23 24  1  0
 22 23  1  1
 24 25  2  0
 26 27  1  0
 28 24  1  0
 29 26  2  0
M  END
$$$$
