QRD.pdb
     RDKit          3D

 29 28  0  0  1  0  0  0  0  0999 V2000
   18.0494  -15.0018   16.0034 N   0  0  0  0  0  0  0  0  0  0  0  0
   16.9413  -14.6120   15.1452 C   0  0  0  0  0  0  0  0  0  0  0  0
   17.1929  -14.6755   13.9214 O   0  0  0  0  0  0  0  0  0  0  0  0
   15.6642  -14.1860   15.7452 C   0  0  0  0  0  0  0  0  0  0  0  0
   15.5857  -14.2065   17.2309 C   0  0  0  0  0  0  0  0  0  0  0  0
   14.5943  -15.2344   17.7016 C   0  0  2  0  0  0  0  0  0  0  0  0
   13.8560  -15.7802   16.6164 N   0  0  0  0  0  0  0  0  0  0  0  0
   13.6994  -14.6347   18.7573 C   0  0  0  0  0  0  0  0  0  0  0  0
   14.2549  -14.0478   19.7173 O   0  0  0  0  0  0  0  0  0  0  0  0
    8.0081  -12.7331   16.8512 N   0  0  0  0  0  0  0  0  0  0  0  0
    7.5663  -14.0081   17.2970 C   0  0  0  0  0  0  0  0  0  0  0  0
    7.3166  -14.9557   16.4380 N   0  0  0  0  0  0  0  0  0  0  0  0
    7.3843  -14.2910   18.6763 N   0  0  0  0  0  0  0  0  0  0  0  0
    7.7041  -13.2431   19.6914 C   0  0  0  0  0  0  0  0  0  0  0  0
    9.0422  -13.5291   20.2385 C   0  0  0  0  0  0  0  0  0  0  0  0
   10.1737  -13.8899   19.4272 C   0  0  0  0  0  0  0  0  0  0  0  0
   11.5492  -14.1490   19.9133 C   0  0  2  0  0  0  0  0  0  0  0  0
   12.2997  -14.7066   18.7084 N   0  0  0  0  0  0  0  0  0  0  0  0
   11.5969  -15.3027   20.8297 C   0  0  0  0  0  0  0  0  0  0  0  0
   11.4672  -16.4638   20.2990 O   0  0  0  0  0  0  0  0  0  0  0  0
    7.0269  -15.9059   16.7535 N   0  0  0  0  0  0  0  0  0  0  0  0
   11.7772  -15.3089   22.2216 C   0  0  1  0  0  0  0  0  0  0  0  0
   11.7608  -16.5392   22.9727 C   0  0  0  0  0  0  0  0  0  0  0  0
   13.0011  -16.6826   23.8400 C   0  0  0  0  0  0  0  0  0  0  0  0
   12.9819  -17.8741   24.6966 O   0  0  0  0  0  0  0  0  0  0  0  0
   13.1098  -19.0319   24.2296 C   0  0  0  0  0  0  0  0  0  0  0  0
   10.5288  -16.6881   23.7394 O   0  0  0  0  0  0  0  0  0  0  0  0
    9.7533  -15.5802   24.0377 O   0  0  0  0  0  0  0  0  0  0  0  0
   12.8194  -17.7458   26.0660 O   0  0  0  0  0  0  0  0  0  0  0  0
  2  1  1  0
  2  3  2  0
  4  2  1  0
  5  4  1  0
  5  6  1  0
  6  7  1  6
  8  6  1  0
  8  9  2  0
 10 11  1  0
 11 13  1  0
 11 12  2  0
 13 14  1  0
 15 14  1  0
 16 15  1  0
 17 16  1  6
 17 18  1  0
 18  8  1  0
 19 17  1  0
 20 19  2  0
 21 19  1  0
 22 21  1  0
 22 26  1  0
 23 24  1  0
 22 23  1  1
 24 25  2  0
 26 27  1  0
 28 24  1  0
 29 26  2  0
M  END
$$$$
