QRD.pdb
     RDKit          3D

 29 28  0  0  1  0  0  0  0  0999 V2000
   16.9258  -18.5639   17.6705 N   0  0  0  0  0  0  0  0  0  0  0  0
   17.6115  -17.3068   17.9267 C   0  0  0  0  0  0  0  0  0  0  0  0
   18.7615  -17.4370   18.4018 O   0  0  0  0  0  0  0  0  0  0  0  0
   16.9376  -16.0303   17.6287 C   0  0  0  0  0  0  0  0  0  0  0  0
   15.6127  -16.1165   16.9571 C   0  0  0  0  0  0  0  0  0  0  0  0
   14.9855  -14.7557   16.8314 C   0  0  2  0  0  0  0  0  0  0  0  0
   15.9689  -13.7430   16.6645 N   0  0  0  0  0  0  0  0  0  0  0  0
   14.0915  -14.4941   18.0177 C   0  0  0  0  0  0  0  0  0  0  0  0
   14.3787  -13.5170   18.7507 O   0  0  0  0  0  0  0  0  0  0  0  0
    7.2590  -10.8580   19.6524 N   0  0  0  0  0  0  0  0  0  0  0  0
    7.5140  -12.2385   19.8734 C   0  0  0  0  0  0  0  0  0  0  0  0
    7.4509  -12.7352   21.0764 N   0  0  0  0  0  0  0  0  0  0  0  0
    7.8417  -13.1139   18.8047 N   0  0  0  0  0  0  0  0  0  0  0  0
    8.1772  -14.5396   19.0972 C   0  0  0  0  0  0  0  0  0  0  0  0
    9.5217  -14.5792   19.6991 C   0  0  0  0  0  0  0  0  0  0  0  0
   10.7305  -14.7441   18.9375 C   0  0  0  0  0  0  0  0  0  0  0  0
   12.1058  -14.8077   19.4854 C   0  0  2  0  0  0  0  0  0  0  0  0
   12.9752  -15.2847   18.3268 N   0  0  0  0  0  0  0  0  0  0  0  0
   12.2656  -15.9259   20.4327 C   0  0  0  0  0  0  0  0  0  0  0  0
   12.8520  -16.9768   19.9873 O   0  0  0  0  0  0  0  0  0  0  0  0
    7.6907  -13.7327   21.2603 N   0  0  0  0  0  0  0  0  0  0  0  0
   11.8690  -15.9985   21.7770 C   0  0  2  0  0  0  0  0  0  0  0  0
   12.5001  -16.9133   22.6949 C   0  0  0  0  0  0  0  0  0  0  0  0
   14.0116  -16.7500   22.6982 C   0  0  0  0  0  0  0  0  0  0  0  0
   14.6940  -17.6353   23.6491 O   0  0  0  0  0  0  0  0  0  0  0  0
   14.0672  -18.4552   24.3632 C   0  0  0  0  0  0  0  0  0  0  0  0
   11.9298  -16.8150   24.0340 O   0  0  0  0  0  0  0  0  0  0  0  0
   12.3301  -17.6901   25.0299 O   0  0  0  0  0  0  0  0  0  0  0  0
   16.0717  -17.5855   23.7827 O   0  0  0  0  0  0  0  0  0  0  0  0
  2  1  1  0
  2  3  2  0
  4  2  1  0
  5  4  1  0
  5  6  1  0
  6  7  1  1
  8  6  1  0
  8  9  2  0
 10 11  1  0
 11 13  1  0
 11 12  2  0
 13 14  1  0
 15 14  1  0
 16 15  1  0
 17 16  1  6
 17 18  1  0
 18  8  1  0
 19 17  1  0
 20 19  2  0
 21 19  1  0
 22 21  1  0
 22 26  1  0
 23 24  1  0
 22 23  1  1
 24 25  2  0
 26 27  1  0
 28 24  1  0
 29 26  2  0
M  END
$$$$
