QRD.pdb
     RDKit          3D

 29 28  0  0  1  0  0  0  0  0999 V2000
    8.0754  -11.5477   21.3671 N   0  0  0  0  0  0  0  0  0  0  0  0
    7.9017  -12.9920   21.3555 C   0  0  0  0  0  0  0  0  0  0  0  0
    7.4310  -13.4608   22.4156 O   0  0  0  0  0  0  0  0  0  0  0  0
    8.2774  -13.7659   20.1587 C   0  0  0  0  0  0  0  0  0  0  0  0
    8.8085  -12.9924   19.0039 C   0  0  0  0  0  0  0  0  0  0  0  0
    9.0984  -13.8982   17.8393 C   0  0  2  0  0  0  0  0  0  0  0  0
    7.9408  -14.6210   17.4417 N   0  0  0  0  0  0  0  0  0  0  0  0
   10.2530  -14.8085   18.1756 C   0  0  0  0  0  0  0  0  0  0  0  0
    9.9811  -15.9954   18.4787 O   0  0  0  0  0  0  0  0  0  0  0  0
   14.1052  -14.8583   11.6321 N   0  0  0  0  0  0  0  0  0  0  0  0
   14.3619  -15.0475   13.0170 C   0  0  0  0  0  0  0  0  0  0  0  0
   15.0460  -14.1634   13.6865 N   0  0  0  0  0  0  0  0  0  0  0  0
   13.8874  -16.1915   13.7111 N   0  0  0  0  0  0  0  0  0  0  0  0
   14.2396  -16.3781   15.1505 C   0  0  0  0  0  0  0  0  0  0  0  0
   13.5667  -15.3219   15.9271 C   0  0  0  0  0  0  0  0  0  0  0  0
   13.6938  -15.1781   17.3525 C   0  0  0  0  0  0  0  0  0  0  0  0
   12.6449  -15.4732   18.3566 C   0  0  2  0  0  0  0  0  0  0  0  0
   11.5909  -14.3881   18.1632 N   0  0  0  0  0  0  0  0  0  0  0  0
   13.1012  -15.1774   19.7268 C   0  0  0  0  0  0  0  0  0  0  0  0
   13.1908  -13.9382   20.0477 O   0  0  0  0  0  0  0  0  0  0  0  0
   15.2999  -14.3221   14.6848 N   0  0  0  0  0  0  0  0  0  0  0  0
   13.4470  -16.0760   20.7481 C   0  0  1  0  0  0  0  0  0  0  0  0
   13.9238  -15.6091   22.0257 C   0  0  0  0  0  0  0  0  0  0  0  0
   13.5019  -16.5363   23.1542 C   0  0  0  0  0  0  0  0  0  0  0  0
   12.0492  -16.5909   23.3549 O   0  0  0  0  0  0  0  0  0  0  0  0
   11.2656  -15.8084   22.7644 C   0  0  0  0  0  0  0  0  0  0  0  0
   15.3633  -15.3730   22.0120 O   0  0  0  0  0  0  0  0  0  0  0  0
   15.9920  -14.8248   23.1175 O   0  0  0  0  0  0  0  0  0  0  0  0
   11.4991  -17.5250   24.2169 O   0  0  0  0  0  0  0  0  0  0  0  0
  2  1  1  0
  2  3  2  0
  4  2  1  0
  5  4  1  0
  5  6  1  0
  6  7  1  1
  8  6  1  0
  8  9  2  0
 10 11  1  0
 11 13  1  0
 11 12  2  0
 13 14  1  0
 15 14  1  0
 16 15  1  0
 17 16  1  6
 17 18  1  0
 18  8  1  0
 19 17  1  0
 20 19  2  0
 21 19  1  0
 22 21  1  0
 22 26  1  0
 23 24  1  0
 22 23  1  1
 24 25  2  0
 26 27  1  0
 28 24  1  0
 29 26  2  0
M  END
$$$$
