QRD.pdb
     RDKit          3D

 29 28  0  0  1  0  0  0  0  0999 V2000
   14.3839  -19.7819   14.9948 N   0  0  0  0  0  0  0  0  0  0  0  0
   13.8127  -19.8234   13.6576 C   0  0  0  0  0  0  0  0  0  0  0  0
   13.7416  -20.9713   13.1651 O   0  0  0  0  0  0  0  0  0  0  0  0
   13.3830  -18.5736   13.0050 C   0  0  0  0  0  0  0  0  0  0  0  0
   13.4773  -17.3305   13.8173 C   0  0  0  0  0  0  0  0  0  0  0  0
   12.1601  -16.6058   13.8438 C   0  0  2  0  0  0  0  0  0  0  0  0
   11.8765  -15.9962   12.5914 N   0  0  0  0  0  0  0  0  0  0  0  0
   12.1467  -15.6126   14.9788 C   0  0  0  0  0  0  0  0  0  0  0  0
   12.7572  -14.5303   14.8041 O   0  0  0  0  0  0  0  0  0  0  0  0
    6.1542  -13.3348   19.8575 N   0  0  0  0  0  0  0  0  0  0  0  0
    7.0581  -13.0700   20.9216 C   0  0  0  0  0  0  0  0  0  0  0  0
    6.6091  -12.7704   22.1076 N   0  0  0  0  0  0  0  0  0  0  0  0
    8.4643  -13.1224   20.7324 N   0  0  0  0  0  0  0  0  0  0  0  0
    9.0633  -14.2608   19.9737 C   0  0  0  0  0  0  0  0  0  0  0  0
    9.6001  -13.7343   18.7063 C   0  0  0  0  0  0  0  0  0  0  0  0
   10.0814  -14.5682   17.6379 C   0  0  0  0  0  0  0  0  0  0  0  0
   11.4907  -14.6980   17.1989 C   0  0  2  0  0  0  0  0  0  0  0  0
   11.4921  -15.8475   16.1967 N   0  0  0  0  0  0  0  0  0  0  0  0
   12.3456  -15.2548   18.2630 C   0  0  0  0  0  0  0  0  0  0  0  0
   12.3687  -16.5331   18.3715 O   0  0  0  0  0  0  0  0  0  0  0  0
    7.2532  -12.4517   22.8625 N   0  0  0  0  0  0  0  0  0  0  0  0
   13.1581  -14.5716   19.1812 C   0  0  2  0  0  0  0  0  0  0  0  0
   13.9693  -15.2835   20.1367 C   0  0  0  0  0  0  0  0  0  0  0  0
   15.3058  -14.5946   20.3606 C   0  0  0  0  0  0  0  0  0  0  0  0
   16.1477  -14.5455   19.1595 O   0  0  0  0  0  0  0  0  0  0  0  0
   16.2152  -15.5056   18.3541 C   0  0  0  0  0  0  0  0  0  0  0  0
   13.2522  -15.5198   21.3849 O   0  0  0  0  0  0  0  0  0  0  0  0
   13.8383  -16.2599   22.3980 O   0  0  0  0  0  0  0  0  0  0  0  0
   16.9012  -13.4171   18.8818 O   0  0  0  0  0  0  0  0  0  0  0  0
  2  1  1  0
  2  3  2  0
  4  2  1  0
  5  4  1  0
  5  6  1  0
  6  7  1  6
  8  6  1  0
  8  9  2  0
 10 11  1  0
 11 13  1  0
 11 12  2  0
 13 14  1  0
 15 14  1  0
 16 15  1  0
 17 16  1  1
 17 18  1  0
 18  8  1  0
 19 17  1  0
 20 19  2  0
 21 19  1  0
 22 21  1  0
 22 26  1  0
 23 24  1  0
 22 23  1  6
 24 25  2  0
 26 27  1  0
 28 24  1  0
 29 26  2  0
M  END
$$$$
