QRD.pdb
     RDKit          3D

 29 28  0  0  1  0  0  0  0  0999 V2000
    5.5888  -12.9685   18.1683 N   0  0  0  0  0  0  0  0  0  0  0  0
    6.7922  -13.3578   17.4495 C   0  0  0  0  0  0  0  0  0  0  0  0
    6.5938  -13.6949   16.2611 O   0  0  0  0  0  0  0  0  0  0  0  0
    8.0961  -13.3344   18.1363 C   0  0  0  0  0  0  0  0  0  0  0  0
    8.0919  -12.9047   19.5608 C   0  0  0  0  0  0  0  0  0  0  0  0
    9.4764  -12.9675   20.1441 C   0  0  2  0  0  0  0  0  0  0  0  0
   10.4708  -12.9280   19.1291 N   0  0  0  0  0  0  0  0  0  0  0  0
    9.6052  -14.1862   21.0233 C   0  0  0  0  0  0  0  0  0  0  0  0
    8.5529  -14.6431   21.5317 O   0  0  0  0  0  0  0  0  0  0  0  0
   11.3623  -16.3330   15.9538 N   0  0  0  0  0  0  0  0  0  0  0  0
   10.2306  -17.1735   15.7738 C   0  0  0  0  0  0  0  0  0  0  0  0
    9.9197  -17.6139   14.5875 N   0  0  0  0  0  0  0  0  0  0  0  0
    9.4098  -17.5586   16.8665 N   0  0  0  0  0  0  0  0  0  0  0  0
    8.8496  -16.5110   17.7716 C   0  0  0  0  0  0  0  0  0  0  0  0
    9.2426  -16.8417   19.1529 C   0  0  0  0  0  0  0  0  0  0  0  0
   10.5466  -16.5714   19.6960 C   0  0  0  0  0  0  0  0  0  0  0  0
   10.8652  -16.3305   21.1229 C   0  0  2  0  0  0  0  0  0  0  0  0
   10.8302  -14.8150   21.2892 N   0  0  0  0  0  0  0  0  0  0  0  0
   12.2812  -16.6111   21.4217 C   0  0  0  0  0  0  0  0  0  0  0  0
   12.6396  -17.8430   21.4012 O   0  0  0  0  0  0  0  0  0  0  0  0
    9.0698  -18.1978   14.4356 N   0  0  0  0  0  0  0  0  0  0  0  0
   13.3099  -15.7040   21.7202 C   0  0  1  0  0  0  0  0  0  0  0  0
   14.6422  -16.1591   22.0295 C   0  0  0  0  0  0  0  0  0  0  0  0
   15.6974  -15.3301   21.3149 C   0  0  0  0  0  0  0  0  0  0  0  0
   15.4642  -15.2038   19.8715 O   0  0  0  0  0  0  0  0  0  0  0  0
   15.8286  -16.0876   19.0584 C   0  0  0  0  0  0  0  0  0  0  0  0
   14.8706  -16.2245   23.4688 O   0  0  0  0  0  0  0  0  0  0  0  0
   13.8503  -15.9158   24.3528 O   0  0  0  0  0  0  0  0  0  0  0  0
   14.8245  -14.0853   19.3639 O   0  0  0  0  0  0  0  0  0  0  0  0
  2  1  1  0
  2  3  2  0
  4  2  1  0
  5  4  1  0
  5  6  1  0
  6  7  1  6
  8  6  1  0
  8  9  2  0
 10 11  1  0
 11 13  1  0
 11 12  2  0
 13 14  1  0
 15 14  1  0
 16 15  1  0
 17 16  1  6
 17 18  1  0
 18  8  1  0
 19 17  1  0
 20 19  2  0
 21 19  1  0
 22 21  1  0
 22 26  1  0
 23 24  1  0
 22 23  1  1
 24 25  2  0
 26 27  1  0
 28 24  1  0
 29 26  2  0
M  END
$$$$
