QRD.pdb
     RDKit          3D

 29 28  0  0  1  0  0  0  0  0999 V2000
    8.2515  -12.2489   22.0087 N   0  0  0  0  0  0  0  0  0  0  0  0
    7.5427  -13.4357   21.5558 C   0  0  0  0  0  0  0  0  0  0  0  0
    6.6911  -13.8652   22.3655 O   0  0  0  0  0  0  0  0  0  0  0  0
    7.8628  -14.0244   20.2430 C   0  0  0  0  0  0  0  0  0  0  0  0
    8.8485  -13.2895   19.4051 C   0  0  0  0  0  0  0  0  0  0  0  0
    8.9927  -13.9359   18.0551 C   0  0  2  0  0  0  0  0  0  0  0  0
    7.8883  -14.7819   17.7629 N   0  0  0  0  0  0  0  0  0  0  0  0
   10.3093  -14.6675   17.9774 C   0  0  0  0  0  0  0  0  0  0  0  0
   10.7245  -14.9862   16.8370 O   0  0  0  0  0  0  0  0  0  0  0  0
   17.2988  -11.8047   16.8104 N   0  0  0  0  0  0  0  0  0  0  0  0
   17.4978  -13.1888   16.5573 C   0  0  0  0  0  0  0  0  0  0  0  0
   18.2652  -13.5752   15.5777 N   0  0  0  0  0  0  0  0  0  0  0  0
   16.8760  -14.1866   17.3533 N   0  0  0  0  0  0  0  0  0  0  0  0
   15.6724  -13.8366   18.1654 C   0  0  0  0  0  0  0  0  0  0  0  0
   14.5095  -14.5287   17.5821 C   0  0  0  0  0  0  0  0  0  0  0  0
   13.1820  -14.4558   18.1307 C   0  0  0  0  0  0  0  0  0  0  0  0
   12.4719  -15.5423   18.8455 C   0  0  2  0  0  0  0  0  0  0  0  0
   11.0713  -14.9988   19.1072 N   0  0  0  0  0  0  0  0  0  0  0  0
   12.9693  -15.7063   20.2235 C   0  0  0  0  0  0  0  0  0  0  0  0
   12.3724  -15.0278   21.1344 O   0  0  0  0  0  0  0  0  0  0  0  0
   18.3479  -14.5826   15.3236 N   0  0  0  0  0  0  0  0  0  0  0  0
   14.0140  -16.5212   20.6865 C   0  0  1  0  0  0  0  0  0  0  0  0
   13.9880  -17.0910   22.0103 C   0  0  0  0  0  0  0  0  0  0  0  0
   14.3212  -16.0556   23.0725 C   0  0  0  0  0  0  0  0  0  0  0  0
   15.7385  -15.6756   23.0954 O   0  0  0  0  0  0  0  0  0  0  0  0
   16.4386  -15.6526   22.0541 C   0  0  0  0  0  0  0  0  0  0  0  0
   12.7281  -17.7750   22.2798 O   0  0  0  0  0  0  0  0  0  0  0  0
   11.7146  -17.7700   21.3360 O   0  0  0  0  0  0  0  0  0  0  0  0
   16.3475  -15.3268   24.2894 O   0  0  0  0  0  0  0  0  0  0  0  0
  2  1  1  0
  2  3  2  0
  4  2  1  0
  5  4  1  0
  5  6  1  0
  6  7  1  1
  8  6  1  0
  8  9  2  0
 10 11  1  0
 11 13  1  0
 11 12  2  0
 13 14  1  0
 15 14  1  0
 16 15  1  0
 17 16  1  6
 17 18  1  0
 18  8  1  0
 19 17  1  0
 20 19  2  0
 21 19  1  0
 22 21  1  0
 22 26  1  0
 23 24  1  0
 22 23  1  6
 24 25  2  0
 26 27  1  0
 28 24  1  0
 29 26  2  0
M  END
$$$$
