QRD.pdb
     RDKit          3D

 29 28  0  0  1  0  0  0  0  0999 V2000
   17.0696  -18.1584   18.7584 N   0  0  0  0  0  0  0  0  0  0  0  0
   17.2743  -17.4239   17.5196 C   0  0  0  0  0  0  0  0  0  0  0  0
   17.9880  -18.0191   16.6819 O   0  0  0  0  0  0  0  0  0  0  0  0
   16.6623  -16.0944   17.3460 C   0  0  0  0  0  0  0  0  0  0  0  0
   15.7589  -15.6290   18.4329 C   0  0  0  0  0  0  0  0  0  0  0  0
   14.9832  -14.4148   18.0028 C   0  0  2  0  0  0  0  0  0  0  0  0
   15.8469  -13.3308   17.6874 N   0  0  0  0  0  0  0  0  0  0  0  0
   13.9741  -14.0517   19.0632 C   0  0  0  0  0  0  0  0  0  0  0  0
   14.1591  -12.9815   19.6917 O   0  0  0  0  0  0  0  0  0  0  0  0
    7.0215  -16.1085   18.2609 N   0  0  0  0  0  0  0  0  0  0  0  0
    7.7058  -15.8982   17.0333 C   0  0  0  0  0  0  0  0  0  0  0  0
    7.5295  -16.7144   16.0331 N   0  0  0  0  0  0  0  0  0  0  0  0
    8.5940  -14.8048   16.8556 N   0  0  0  0  0  0  0  0  0  0  0  0
    8.9281  -13.9308   18.0197 C   0  0  0  0  0  0  0  0  0  0  0  0
   10.1377  -14.4707   18.6653 C   0  0  0  0  0  0  0  0  0  0  0  0
   10.7163  -13.9184   19.8606 C   0  0  0  0  0  0  0  0  0  0  0  0
   11.9720  -14.3637   20.5089 C   0  0  2  0  0  0  0  0  0  0  0  0
   12.8603  -14.8477   19.3677 N   0  0  0  0  0  0  0  0  0  0  0  0
   11.7829  -15.6150   21.2650 C   0  0  0  0  0  0  0  0  0  0  0  0
   10.6266  -15.8002   21.7895 O   0  0  0  0  0  0  0  0  0  0  0  0
    8.0390  -16.5819   15.1336 N   0  0  0  0  0  0  0  0  0  0  0  0
   12.7021  -16.6524   21.4858 C   0  0  1  0  0  0  0  0  0  0  0  0
   12.9975  -17.1194   22.8172 C   0  0  0  0  0  0  0  0  0  0  0  0
   14.3161  -16.5606   23.3273 C   0  0  0  0  0  0  0  0  0  0  0  0
   15.4688  -16.9307   22.4978 O   0  0  0  0  0  0  0  0  0  0  0  0
   15.3391  -17.5637   21.4220 C   0  0  0  0  0  0  0  0  0  0  0  0
   11.8947  -16.8631   23.7370 O   0  0  0  0  0  0  0  0  0  0  0  0
   11.7746  -17.5967   24.9055 O   0  0  0  0  0  0  0  0  0  0  0  0
   16.7506  -16.5831   22.8906 O   0  0  0  0  0  0  0  0  0  0  0  0
  2  1  1  0
  2  3  2  0
  4  2  1  0
  5  4  1  0
  5  6  1  0
  6  7  1  1
  8  6  1  0
  8  9  2  0
 10 11  1  0
 11 13  1  0
 11 12  2  0
 13 14  1  0
 15 14  1  0
 16 15  1  0
 17 16  1  6
 17 18  1  0
 18  8  1  0
 19 17  1  0
 20 19  2  0
 21 19  1  0
 22 21  1  0
 22 26  1  0
 23 24  1  0
 22 23  1  1
 24 25  2  0
 26 27  1  0
 28 24  1  0
 29 26  2  0
M  END
$$$$
