QRD.pdb
     RDKit          3D

 29 28  0  0  1  0  0  0  0  0999 V2000
    6.2281  -20.1110   14.8223 N   0  0  0  0  0  0  0  0  0  0  0  0
    6.9106  -19.1793   15.7068 C   0  0  0  0  0  0  0  0  0  0  0  0
    6.5283  -17.9932   15.5965 O   0  0  0  0  0  0  0  0  0  0  0  0
    7.9561  -19.6700   16.6225 C   0  0  0  0  0  0  0  0  0  0  0  0
    8.6563  -18.6467   17.4450 C   0  0  0  0  0  0  0  0  0  0  0  0
    9.6737  -19.2881   18.3474 C   0  0  2  0  0  0  0  0  0  0  0  0
    9.0516  -20.0399   19.3810 N   0  0  0  0  0  0  0  0  0  0  0  0
   10.6100  -18.2372   18.8894 C   0  0  0  0  0  0  0  0  0  0  0  0
   11.2643  -17.5643   18.0565 O   0  0  0  0  0  0  0  0  0  0  0  0
    7.1753  -12.6108   21.0070 N   0  0  0  0  0  0  0  0  0  0  0  0
    7.5606  -12.6226   19.6392 C   0  0  0  0  0  0  0  0  0  0  0  0
    6.7167  -12.2615   18.7143 N   0  0  0  0  0  0  0  0  0  0  0  0
    8.8623  -13.0226   19.2374 N   0  0  0  0  0  0  0  0  0  0  0  0
    9.8429  -13.4797   20.2670 C   0  0  0  0  0  0  0  0  0  0  0  0
    9.9161  -14.9504   20.2083 C   0  0  0  0  0  0  0  0  0  0  0  0
   10.7581  -15.7405   21.0658 C   0  0  0  0  0  0  0  0  0  0  0  0
   11.6782  -16.8184   20.6334 C   0  0  2  0  0  0  0  0  0  0  0  0
   10.7743  -17.9885   20.2597 N   0  0  0  0  0  0  0  0  0  0  0  0
   12.4209  -17.3920   21.7704 C   0  0  0  0  0  0  0  0  0  0  0  0
   11.8542  -17.3245   22.9196 O   0  0  0  0  0  0  0  0  0  0  0  0
    6.9716  -12.3082   17.7048 N   0  0  0  0  0  0  0  0  0  0  0  0
   13.6760  -18.0201   21.7693 C   0  0  2  0  0  0  0  0  0  0  0  0
   14.8551  -17.3367   22.2389 C   0  0  0  0  0  0  0  0  0  0  0  0
   15.1550  -16.1005   21.4065 C   0  0  0  0  0  0  0  0  0  0  0  0
   16.3848  -15.4080   21.8087 O   0  0  0  0  0  0  0  0  0  0  0  0
   17.1230  -15.8411   22.7266 C   0  0  0  0  0  0  0  0  0  0  0  0
   14.7751  -17.0381   23.6646 O   0  0  0  0  0  0  0  0  0  0  0  0
   13.8039  -16.1753   24.1443 O   0  0  0  0  0  0  0  0  0  0  0  0
   16.7664  -14.2385   21.1724 O   0  0  0  0  0  0  0  0  0  0  0  0
  2  1  1  0
  2  3  2  0
  4  2  1  0
  5  4  1  0
  5  6  1  0
  6  7  1  1
  8  6  1  0
  8  9  2  0
 10 11  1  0
 11 13  1  0
 11 12  2  0
 13 14  1  0
 15 14  1  0
 16 15  1  0
 17 16  1  1
 17 18  1  0
 18  8  1  0
 19 17  1  0
 20 19  2  0
 21 19  1  0
 22 21  1  0
 22 26  1  0
 23 24  1  0
 22 23  1  6
 24 25  2  0
 26 27  1  0
 28 24  1  0
 29 26  2  0
M  END
$$$$
