QRD.pdb
     RDKit          3D

 29 28  0  0  1  0  0  0  0  0999 V2000
   13.1567  -16.8696   11.9133 N   0  0  0  0  0  0  0  0  0  0  0  0
   11.7768  -17.2384   12.1894 C   0  0  0  0  0  0  0  0  0  0  0  0
   11.2095  -17.8423   11.2521 O   0  0  0  0  0  0  0  0  0  0  0  0
   11.1703  -16.8891   13.4866 C   0  0  0  0  0  0  0  0  0  0  0  0
   12.0463  -16.1910   14.4660 C   0  0  0  0  0  0  0  0  0  0  0  0
   11.9385  -16.8214   15.8268 C   0  0  2  0  0  0  0  0  0  0  0  0
   10.6760  -17.4480   16.0113 N   0  0  0  0  0  0  0  0  0  0  0  0
   12.2265  -15.7919   16.8907 C   0  0  0  0  0  0  0  0  0  0  0  0
   13.3393  -15.2136   16.8461 O   0  0  0  0  0  0  0  0  0  0  0  0
    7.8367  -11.9269   22.2142 N   0  0  0  0  0  0  0  0  0  0  0  0
    7.5719  -13.2298   21.7126 C   0  0  0  0  0  0  0  0  0  0  0  0
    7.0947  -14.1533   22.4983 N   0  0  0  0  0  0  0  0  0  0  0  0
    7.8142  -13.5667   20.3548 N   0  0  0  0  0  0  0  0  0  0  0  0
    8.3090  -12.5184   19.4130 C   0  0  0  0  0  0  0  0  0  0  0  0
    9.5485  -13.0128   18.7880 C   0  0  0  0  0  0  0  0  0  0  0  0
   10.5042  -13.8470   19.4658 C   0  0  0  0  0  0  0  0  0  0  0  0
   11.7593  -14.3831   18.8889 C   0  0  2  0  0  0  0  0  0  0  0  0
   11.3176  -15.4631   17.9068 N   0  0  0  0  0  0  0  0  0  0  0  0
   12.5112  -15.1880   19.8686 C   0  0  0  0  0  0  0  0  0  0  0  0
   12.1616  -16.4164   19.9923 O   0  0  0  0  0  0  0  0  0  0  0  0
    6.9231  -15.1206   22.1502 N   0  0  0  0  0  0  0  0  0  0  0  0
   13.5790  -14.7946   20.6902 C   0  0  2  0  0  0  0  0  0  0  0  0
   14.3083  -15.7548   21.4803 C   0  0  0  0  0  0  0  0  0  0  0  0
   15.8102  -15.5506   21.3643 C   0  0  0  0  0  0  0  0  0  0  0  0
   16.5948  -16.5332   22.1210 O   0  0  0  0  0  0  0  0  0  0  0  0
   17.8498  -16.5334   22.1109 C   0  0  0  0  0  0  0  0  0  0  0  0
   13.8568  -15.7678   22.8673 O   0  0  0  0  0  0  0  0  0  0  0  0
   13.5207  -16.9627   23.4815 O   0  0  0  0  0  0  0  0  0  0  0  0
   15.9562  -17.5013   22.8781 O   0  0  0  0  0  0  0  0  0  0  0  0
  2  1  1  0
  2  3  2  0
  4  2  1  0
  5  4  1  0
  5  6  1  0
  6  7  1  1
  8  6  1  0
  8  9  2  0
 10 11  1  0
 11 13  1  0
 11 12  2  0
 13 14  1  0
 15 14  1  0
 16 15  1  0
 17 16  1  1
 17 18  1  0
 18  8  1  0
 19 17  1  0
 20 19  2  0
 21 19  1  0
 22 21  1  0
 22 26  1  0
 23 24  1  0
 22 23  1  1
 24 25  2  0
 26 27  1  0
 28 24  1  0
 29 26  2  0
M  END
$$$$
