QRD.pdb
     RDKit          3D

 29 28  0  0  1  0  0  0  0  0999 V2000
    8.7792  -22.5438   16.7984 N   0  0  0  0  0  0  0  0  0  0  0  0
    9.9907  -21.8933   16.3236 C   0  0  0  0  0  0  0  0  0  0  0  0
   10.2689  -22.1361   15.1282 O   0  0  0  0  0  0  0  0  0  0  0  0
   10.7708  -21.0399   17.2376 C   0  0  0  0  0  0  0  0  0  0  0  0
   10.2339  -20.8727   18.6152 C   0  0  0  0  0  0  0  0  0  0  0  0
   11.1808  -21.4455   19.6332 C   0  0  2  0  0  0  0  0  0  0  0  0
   11.6719  -22.7168   19.2293 N   0  0  0  0  0  0  0  0  0  0  0  0
   10.5103  -21.4944   20.9833 C   0  0  0  0  0  0  0  0  0  0  0  0
   10.0766  -20.4135   21.4503 O   0  0  0  0  0  0  0  0  0  0  0  0
    5.1056  -25.4267   23.2129 N   0  0  0  0  0  0  0  0  0  0  0  0
    4.9879  -25.2676   21.8057 C   0  0  0  0  0  0  0  0  0  0  0  0
    3.8136  -25.2469   21.2414 N   0  0  0  0  0  0  0  0  0  0  0  0
    6.1312  -25.1266   20.9757 N   0  0  0  0  0  0  0  0  0  0  0  0
    7.4944  -25.1964   21.5819 C   0  0  0  0  0  0  0  0  0  0  0  0
    7.6410  -24.0617   22.5107 C   0  0  0  0  0  0  0  0  0  0  0  0
    8.8549  -23.7684   23.2241 C   0  0  0  0  0  0  0  0  0  0  0  0
    9.6777  -22.5445   23.0809 C   0  0  2  0  0  0  0  0  0  0  0  0
   10.3565  -22.6768   21.7217 N   0  0  0  0  0  0  0  0  0  0  0  0
   10.8464  -22.5633   23.9791 C   0  0  0  0  0  0  0  0  0  0  0  0
   11.9810  -22.8258   23.4404 O   0  0  0  0  0  0  0  0  0  0  0  0
    3.7137  -25.1349   20.2100 N   0  0  0  0  0  0  0  0  0  0  0  0
   10.8933  -22.3204   25.3607 C   0  0  1  0  0  0  0  0  0  0  0  0
   12.0938  -21.8360   25.9949 C   0  0  0  0  0  0  0  0  0  0  0  0
   12.6454  -20.6089   25.2869 C   0  0  0  0  0  0  0  0  0  0  0  0
   14.1117  -20.5693   25.2408 O   0  0  0  0  0  0  0  0  0  0  0  0
   14.7339  -19.7032   24.5792 C   0  0  0  0  0  0  0  0  0  0  0  0
   11.8975  -21.6100   27.4226 O   0  0  0  0  0  0  0  0  0  0  0  0
   12.9881  -21.4560   28.2620 O   0  0  0  0  0  0  0  0  0  0  0  0
   14.8567  -21.5045   25.9398 O   0  0  0  0  0  0  0  0  0  0  0  0
  2  1  1  0
  2  3  2  0
  4  2  1  0
  5  4  1  0
  5  6  1  0
  6  7  1  6
  8  6  1  0
  8  9  2  0
 10 11  1  0
 11 13  1  0
 11 12  2  0
 13 14  1  0
 15 14  1  0
 16 15  1  0
 17 16  1  1
 17 18  1  0
 18  8  1  0
 19 17  1  0
 20 19  2  0
 21 19  1  0
 22 21  1  0
 22 26  1  0
 23 24  1  0
 22 23  1  6
 24 25  2  0
 26 27  1  0
 28 24  1  0
 29 26  2  0
M  END
$$$$
