QRD.pdb
     RDKit          3D

 29 28  0  0  1  0  0  0  0  0999 V2000
    9.1022  -14.2511   17.1364 N   0  0  0  0  0  0  0  0  0  0  0  0
    7.8943  -13.4411   17.1058 C   0  0  0  0  0  0  0  0  0  0  0  0
    7.3139  -13.4268   15.9976 O   0  0  0  0  0  0  0  0  0  0  0  0
    7.4610  -12.7250   18.3190 C   0  0  0  0  0  0  0  0  0  0  0  0
    8.2355  -12.9891   19.5617 C   0  0  0  0  0  0  0  0  0  0  0  0
    7.8934  -14.3383   20.1306 C   0  0  2  0  0  0  0  0  0  0  0  0
    6.5027  -14.4507   20.4026 N   0  0  0  0  0  0  0  0  0  0  0  0
    8.7379  -14.6068   21.3510 C   0  0  0  0  0  0  0  0  0  0  0  0
    8.3088  -14.1850   22.4523 O   0  0  0  0  0  0  0  0  0  0  0  0
   10.9262  -23.1662   20.1070 N   0  0  0  0  0  0  0  0  0  0  0  0
   11.6182  -22.1026   20.7467 C   0  0  0  0  0  0  0  0  0  0  0  0
   12.9177  -22.1250   20.8404 N   0  0  0  0  0  0  0  0  0  0  0  0
   10.9270  -20.9920   21.2986 N   0  0  0  0  0  0  0  0  0  0  0  0
   10.1855  -20.0629   20.3945 C   0  0  0  0  0  0  0  0  0  0  0  0
    9.5032  -19.0588   21.2299 C   0  0  0  0  0  0  0  0  0  0  0  0
    9.6116  -17.6403   21.0180 C   0  0  0  0  0  0  0  0  0  0  0  0
   10.0116  -16.6346   22.0300 C   0  0  2  0  0  0  0  0  0  0  0  0
    9.9590  -15.2948   21.3034 N   0  0  0  0  0  0  0  0  0  0  0  0
   11.4481  -16.7222   22.3496 C   0  0  0  0  0  0  0  0  0  0  0  0
   11.8249  -17.7452   23.0263 O   0  0  0  0  0  0  0  0  0  0  0  0
   13.4344  -21.3725   21.3436 N   0  0  0  0  0  0  0  0  0  0  0  0
   12.4783  -15.8342   22.0028 C   0  0  2  0  0  0  0  0  0  0  0  0
   13.8467  -16.0944   22.3737 C   0  0  0  0  0  0  0  0  0  0  0  0
   14.0291  -16.0873   23.8830 C   0  0  0  0  0  0  0  0  0  0  0  0
   15.4096  -16.3485   24.3071 O   0  0  0  0  0  0  0  0  0  0  0  0
   16.3917  -15.7954   23.7551 C   0  0  0  0  0  0  0  0  0  0  0  0
   14.3493  -17.3192   21.7611 O   0  0  0  0  0  0  0  0  0  0  0  0
   13.4694  -18.2433   21.2230 O   0  0  0  0  0  0  0  0  0  0  0  0
   15.6652  -17.2279   25.3461 O   0  0  0  0  0  0  0  0  0  0  0  0
  2  1  1  0
  2  3  2  0
  4  2  1  0
  5  4  1  0
  5  6  1  0
  6  7  1  1
  8  6  1  0
  8  9  2  0
 10 11  1  0
 11 13  1  0
 11 12  2  0
 13 14  1  0
 15 14  1  0
 16 15  1  0
 17 16  1  6
 17 18  1  0
 18  8  1  0
 19 17  1  0
 20 19  2  0
 21 19  1  0
 22 21  1  0
 22 26  1  0
 23 24  1  0
 22 23  1  1
 24 25  2  0
 26 27  1  0
 28 24  1  0
 29 26  2  0
M  END
$$$$
