QRD.pdb
     RDKit          3D

 29 28  0  0  1  0  0  0  0  0999 V2000
   17.0639  -12.4086   17.0396 N   0  0  0  0  0  0  0  0  0  0  0  0
   15.7970  -12.7684   16.4219 C   0  0  0  0  0  0  0  0  0  0  0  0
   15.3884  -11.9461   15.5721 O   0  0  0  0  0  0  0  0  0  0  0  0
   15.1133  -14.0113   16.8220 C   0  0  0  0  0  0  0  0  0  0  0  0
   15.9140  -14.9903   17.6058 C   0  0  0  0  0  0  0  0  0  0  0  0
   15.0508  -16.1203   18.0946 C   0  0  2  0  0  0  0  0  0  0  0  0
   14.2644  -16.6662   17.0439 N   0  0  0  0  0  0  0  0  0  0  0  0
   14.2088  -15.6541   19.2558 C   0  0  0  0  0  0  0  0  0  0  0  0
   14.7593  -14.9121   20.1050 O   0  0  0  0  0  0  0  0  0  0  0  0
    8.0114  -13.7586   17.4832 N   0  0  0  0  0  0  0  0  0  0  0  0
    7.7097  -12.8800   18.5587 C   0  0  0  0  0  0  0  0  0  0  0  0
    7.4569  -11.6223   18.3303 N   0  0  0  0  0  0  0  0  0  0  0  0
    7.6730  -13.3361   19.9028 N   0  0  0  0  0  0  0  0  0  0  0  0
    8.3028  -14.6440   20.2540 C   0  0  0  0  0  0  0  0  0  0  0  0
    9.7500  -14.5389   19.9971 C   0  0  0  0  0  0  0  0  0  0  0  0
   10.6933  -15.5757   20.3194 C   0  0  0  0  0  0  0  0  0  0  0  0
   12.1347  -15.3863   20.6057 C   0  0  2  0  0  0  0  0  0  0  0  0
   12.8624  -16.0108   19.4198 N   0  0  0  0  0  0  0  0  0  0  0  0
   12.5929  -16.2568   21.7037 C   0  0  0  0  0  0  0  0  0  0  0  0
   12.4233  -17.5188   21.5454 O   0  0  0  0  0  0  0  0  0  0  0  0
    7.2903  -10.9556   19.1139 N   0  0  0  0  0  0  0  0  0  0  0  0
   13.2073  -15.8927   22.9120 C   0  0  2  0  0  0  0  0  0  0  0  0
   13.7314  -16.8873   23.8142 C   0  0  0  0  0  0  0  0  0  0  0  0
   15.1160  -16.5127   24.3179 C   0  0  0  0  0  0  0  0  0  0  0  0
   15.7414  -17.5548   25.1406 O   0  0  0  0  0  0  0  0  0  0  0  0
   15.1709  -18.6470   25.3785 C   0  0  0  0  0  0  0  0  0  0  0  0
   12.8039  -17.1711   24.9037 O   0  0  0  0  0  0  0  0  0  0  0  0
   11.5990  -16.4939   24.9899 O   0  0  0  0  0  0  0  0  0  0  0  0
   16.9995  -17.3530   25.6835 O   0  0  0  0  0  0  0  0  0  0  0  0
  2  1  1  0
  2  3  2  0
  4  2  1  0
  5  4  1  0
  5  6  1  0
  6  7  1  6
  8  6  1  0
  8  9  2  0
 10 11  1  0
 11 13  1  0
 11 12  2  0
 13 14  1  0
 15 14  1  0
 16 15  1  0
 17 16  1  6
 17 18  1  0
 18  8  1  0
 19 17  1  0
 20 19  2  0
 21 19  1  0
 22 21  1  0
 22 26  1  0
 23 24  1  0
 22 23  1  1
 24 25  2  0
 26 27  1  0
 28 24  1  0
 29 26  2  0
M  END
$$$$
