QRD.pdb
     RDKit          3D

 29 28  0  0  1  0  0  0  0  0999 V2000
    7.0698  -13.4187   17.3120 N   0  0  0  0  0  0  0  0  0  0  0  0
    7.7324  -14.1766   16.2619 C   0  0  0  0  0  0  0  0  0  0  0  0
    7.0262  -14.3748   15.2484 O   0  0  0  0  0  0  0  0  0  0  0  0
    9.1181  -14.6400   16.4553 C   0  0  0  0  0  0  0  0  0  0  0  0
    9.7725  -14.2688   17.7390 C   0  0  0  0  0  0  0  0  0  0  0  0
    9.9395  -15.4728   18.6240 C   0  0  2  0  0  0  0  0  0  0  0  0
    8.8907  -16.4121   18.4277 N   0  0  0  0  0  0  0  0  0  0  0  0
   10.0540  -15.0366   20.0632 C   0  0  0  0  0  0  0  0  0  0  0  0
   10.9572  -14.2123   20.3449 O   0  0  0  0  0  0  0  0  0  0  0  0
    7.7140  -17.5658   26.6568 N   0  0  0  0  0  0  0  0  0  0  0  0
    6.6971  -17.6499   25.6677 C   0  0  0  0  0  0  0  0  0  0  0  0
    6.1976  -18.8061   25.3337 N   0  0  0  0  0  0  0  0  0  0  0  0
    6.1955  -16.4917   25.0174 N   0  0  0  0  0  0  0  0  0  0  0  0
    6.7829  -15.1559   25.3356 C   0  0  0  0  0  0  0  0  0  0  0  0
    8.0886  -15.0572   24.6597 C   0  0  0  0  0  0  0  0  0  0  0  0
    8.2531  -15.1202   23.2323 C   0  0  0  0  0  0  0  0  0  0  0  0
    9.5389  -15.0623   22.4983 C   0  0  2  0  0  0  0  0  0  0  0  0
    9.2078  -15.5073   21.0777 N   0  0  0  0  0  0  0  0  0  0  0  0
   10.4576  -16.1354   22.9196 C   0  0  0  0  0  0  0  0  0  0  0  0
   10.1872  -17.3191   22.5045 O   0  0  0  0  0  0  0  0  0  0  0  0
    5.4503  -18.8814   24.6111 N   0  0  0  0  0  0  0  0  0  0  0  0
   11.6100  -16.0399   23.7151 C   0  0  1  0  0  0  0  0  0  0  0  0
   12.3338  -17.2161   24.1279 C   0  0  0  0  0  0  0  0  0  0  0  0
   13.8304  -16.9579   24.1959 C   0  0  0  0  0  0  0  0  0  0  0  0
   14.3858  -16.4033   22.9559 O   0  0  0  0  0  0  0  0  0  0  0  0
   15.1865  -15.4370   22.9587 C   0  0  0  0  0  0  0  0  0  0  0  0
   11.8093  -17.7640   25.3740 O   0  0  0  0  0  0  0  0  0  0  0  0
   12.3075  -18.9536   25.8786 O   0  0  0  0  0  0  0  0  0  0  0  0
   14.0326  -16.9441   21.7307 O   0  0  0  0  0  0  0  0  0  0  0  0
  2  1  1  0
  2  3  2  0
  4  2  1  0
  5  4  1  0
  5  6  1  0
  6  7  1  1
  8  6  1  0
  8  9  2  0
 10 11  1  0
 11 13  1  0
 11 12  2  0
 13 14  1  0
 15 14  1  0
 16 15  1  0
 17 16  1  1
 17 18  1  0
 18  8  1  0
 19 17  1  0
 20 19  2  0
 21 19  1  0
 22 21  1  0
 22 26  1  0
 23 24  1  0
 22 23  1  1
 24 25  2  0
 26 27  1  0
 28 24  1  0
 29 26  2  0
M  END
$$$$
