QRD.pdb
     RDKit          3D

 29 28  0  0  1  0  0  0  0  0999 V2000
   16.7651  -12.5261   17.7687 N   0  0  0  0  0  0  0  0  0  0  0  0
   16.7640  -13.6042   16.7920 C   0  0  0  0  0  0  0  0  0  0  0  0
   17.8308  -13.7140   16.1476 O   0  0  0  0  0  0  0  0  0  0  0  0
   15.5658  -14.4476   16.6326 C   0  0  0  0  0  0  0  0  0  0  0  0
   14.4272  -14.1688   17.5490 C   0  0  0  0  0  0  0  0  0  0  0  0
   14.1354  -15.3595   18.4197 C   0  0  2  0  0  0  0  0  0  0  0  0
   13.4208  -16.3614   17.7084 N   0  0  0  0  0  0  0  0  0  0  0  0
   13.4100  -14.9155   19.6652 C   0  0  0  0  0  0  0  0  0  0  0  0
   13.9587  -14.0318   20.3671 O   0  0  0  0  0  0  0  0  0  0  0  0
    6.1550  -12.7764   18.1335 N   0  0  0  0  0  0  0  0  0  0  0  0
    7.3374  -13.3684   17.6128 C   0  0  0  0  0  0  0  0  0  0  0  0
    7.3722  -13.7974   16.3829 N   0  0  0  0  0  0  0  0  0  0  0  0
    8.5076  -13.5107   18.4041 N   0  0  0  0  0  0  0  0  0  0  0  0
    8.4544  -13.1896   19.8617 C   0  0  0  0  0  0  0  0  0  0  0  0
    9.8061  -13.3710   20.4201 C   0  0  0  0  0  0  0  0  0  0  0  0
   10.2252  -14.5539   21.1226 C   0  0  0  0  0  0  0  0  0  0  0  0
   11.6245  -14.9554   21.3990 C   0  0  2  0  0  0  0  0  0  0  0  0
   12.1717  -15.4416   20.0612 N   0  0  0  0  0  0  0  0  0  0  0  0
   11.6906  -16.1949   22.1943 C   0  0  0  0  0  0  0  0  0  0  0  0
   11.3844  -17.2836   21.5880 O   0  0  0  0  0  0  0  0  0  0  0  0
    8.2326  -14.2346   15.9893 N   0  0  0  0  0  0  0  0  0  0  0  0
   12.0570  -16.3539   23.5398 C   0  0  1  0  0  0  0  0  0  0  0  0
   12.0224  -17.6465   24.1769 C   0  0  0  0  0  0  0  0  0  0  0  0
   13.3590  -17.9937   24.8126 C   0  0  0  0  0  0  0  0  0  0  0  0
   14.5024  -17.8034   23.9126 O   0  0  0  0  0  0  0  0  0  0  0  0
   14.6173  -18.4416   22.8380 C   0  0  0  0  0  0  0  0  0  0  0  0
   10.9156  -17.7542   25.1210 O   0  0  0  0  0  0  0  0  0  0  0  0
   10.7197  -18.9231   25.8374 O   0  0  0  0  0  0  0  0  0  0  0  0
   15.4998  -16.8979   24.2343 O   0  0  0  0  0  0  0  0  0  0  0  0
  2  1  1  0
  2  3  2  0
  4  2  1  0
  5  4  1  0
  5  6  1  0
  6  7  1  6
  8  6  1  0
  8  9  2  0
 10 11  1  0
 11 13  1  0
 11 12  2  0
 13 14  1  0
 15 14  1  0
 16 15  1  0
 17 16  1  6
 17 18  1  0
 18  8  1  0
 19 17  1  0
 20 19  2  0
 21 19  1  0
 22 21  1  0
 22 26  1  0
 23 24  1  0
 22 23  1  1
 24 25  2  0
 26 27  1  0
 28 24  1  0
 29 26  2  0
M  END
$$$$
