VWV.pdb
     RDKit          3D

 29 30  0  0  1  0  0  0  0  0999 V2000
    8.9467  -17.2936   19.4818 C   0  0  0  0  0  0  0  0  0  0  0  0
    8.1200  -16.0560   19.3543 C   0  0  1  0  0  0  0  0  0  0  0  0
    7.0798  -16.3712   18.2512 C   0  0  0  0  0  0  0  0  0  0  0  0
    7.3214  -15.6642   20.5487 C   0  0  2  0  0  0  0  0  0  0  0  0
    6.6161  -14.4224   20.1556 N   0  0  0  0  0  0  0  0  0  0  0  0
    8.0561  -15.3625   21.7732 C   0  0  0  0  0  0  0  0  0  0  0  0
    8.7587  -14.2819   21.8366 O   0  0  0  0  0  0  0  0  0  0  0  0
    8.1108  -16.1223   22.9640 N   0  0  0  0  0  0  0  0  0  0  0  0
    8.9496  -15.9157   24.1017 C   0  0  1  0  0  0  0  0  0  0  0  0
    8.1370  -16.0741   25.3577 C   0  0  0  0  0  0  0  0  0  0  0  0
    7.1219  -15.0436   25.5742 C   0  0  0  0  0  0  0  0  0  0  0  0
    5.7621  -15.2148   25.5316 C   0  0  0  0  0  0  0  0  0  0  0  0
    5.1846  -14.0205   25.8008 N   0  0  0  0  0  0  0  0  0  0  0  0
    6.1416  -13.0863   26.0156 C   0  0  0  0  0  0  0  0  0  0  0  0
    6.1305  -11.7472   26.3206 C   0  0  0  0  0  0  0  0  0  0  0  0
    7.3069  -11.0076   26.4927 C   0  0  0  0  0  0  0  0  0  0  0  0
    8.5172  -11.6355   26.3541 C   0  0  0  0  0  0  0  0  0  0  0  0
    8.5272  -12.9744   26.0494 C   0  0  0  0  0  0  0  0  0  0  0  0
    7.3829  -13.7237   25.8744 C   0  0  0  0  0  0  0  0  0  0  0  0
   10.0835  -16.8905   24.2027 C   0  0  0  0  0  0  0  0  0  0  0  0
    9.7994  -18.1154   24.0011 O   0  0  0  0  0  0  0  0  0  0  0  0
   14.3207  -15.8093   24.5419 C   0  0  0  0  0  0  0  0  0  0  0  0
   13.7173  -16.9800   23.8026 C   0  0  2  0  0  0  0  0  0  0  0  0
   13.4387  -16.6106   22.3603 C   0  0  0  0  0  0  0  0  0  0  0  0
   12.4825  -17.4898   24.4666 C   0  0  2  0  0  0  0  0  0  0  0  0
   11.4073  -16.5482   24.4993 N   0  0  0  0  0  0  0  0  0  0  0  0
   12.8545  -17.9765   25.8311 C   0  0  0  0  0  0  0  0  0  0  0  0
   12.4081  -17.3951   26.8618 O   0  0  0  0  0  0  0  0  0  0  0  0
   13.6933  -19.0716   25.9738 O   0  0  0  0  0  0  0  0  0  0  0  0
  2  1  1  1
  2  4  1  0
  3  2  1  0
  4  5  1  6
  6  4  1  0
  6  7  2  0
  8  6  1  0
  9  8  1  0
  9 10  1  1
 11 10  1  0
 11 19  1  0
 12 13  1  0
 12 11  2  0
 13 14  1  0
 14 15  1  0
 14 19  2  0
 15 16  2  0
 16 17  1  0
 18 17  2  0
 19 18  1  0
 20  9  1  0
 21 20  2  0
 23 22  1  1
 23 25  1  0
 24 23  1  0
 25 27  1  0
 25 26  1  1
 26 20  1  0
 27 29  1  0
 28 27  2  0
M  END
$$$$
