VWV.pdb
     RDKit          3D

 29 30  0  0  1  0  0  0  0  0999 V2000
    6.2639  -21.3506   19.6588 C   0  0  0  0  0  0  0  0  0  0  0  0
    6.9352  -20.3183   20.5043 C   0  0  1  0  0  0  0  0  0  0  0  0
    8.4417  -20.6749   20.4655 C   0  0  0  0  0  0  0  0  0  0  0  0
    6.8511  -18.9104   20.0263 C   0  0  2  0  0  0  0  0  0  0  0  0
    7.4051  -18.9313   18.6527 N   0  0  0  0  0  0  0  0  0  0  0  0
    7.6057  -17.9067   20.7703 C   0  0  0  0  0  0  0  0  0  0  0  0
    8.8597  -17.7430   20.5138 O   0  0  0  0  0  0  0  0  0  0  0  0
    7.1360  -17.0405   21.7839 N   0  0  0  0  0  0  0  0  0  0  0  0
    7.8889  -16.1130   22.5672 C   0  0  1  0  0  0  0  0  0  0  0  0
    6.9530  -15.1284   23.2133 C   0  0  0  0  0  0  0  0  0  0  0  0
    7.6013  -14.0842   24.0062 C   0  0  0  0  0  0  0  0  0  0  0  0
    8.7726  -13.4383   23.7047 C   0  0  0  0  0  0  0  0  0  0  0  0
    9.0142  -12.5371   24.6854 N   0  0  0  0  0  0  0  0  0  0  0  0
    8.0254  -12.5889   25.6096 C   0  0  0  0  0  0  0  0  0  0  0  0
    7.7634  -11.9193   26.7798 C   0  0  0  0  0  0  0  0  0  0  0  0
    6.6300  -12.1846   27.5580 C   0  0  0  0  0  0  0  0  0  0  0  0
    5.7448  -13.1453   27.1435 C   0  0  0  0  0  0  0  0  0  0  0  0
    6.0075  -13.8140   25.9733 C   0  0  0  0  0  0  0  0  0  0  0  0
    7.1164  -13.5713   25.1904 C   0  0  0  0  0  0  0  0  0  0  0  0
    8.6683  -16.7507   23.6772 C   0  0  0  0  0  0  0  0  0  0  0  0
    8.0293  -17.5532   24.4319 O   0  0  0  0  0  0  0  0  0  0  0  0
   12.6581  -17.5934   23.2551 C   0  0  0  0  0  0  0  0  0  0  0  0
   12.2578  -17.2239   24.6638 C   0  0  2  0  0  0  0  0  0  0  0  0
   12.9836  -18.0954   25.6679 C   0  0  0  0  0  0  0  0  0  0  0  0
   10.7819  -17.2977   24.8677 C   0  0  2  0  0  0  0  0  0  0  0  0
   10.0251  -16.5248   23.9330 N   0  0  0  0  0  0  0  0  0  0  0  0
   10.4883  -16.9231   26.2856 C   0  0  0  0  0  0  0  0  0  0  0  0
   10.3057  -15.7125   26.6032 O   0  0  0  0  0  0  0  0  0  0  0  0
   10.4142  -17.9044   27.2629 O   0  0  0  0  0  0  0  0  0  0  0  0
  2  1  1  6
  2  4  1  0
  3  2  1  0
  4  5  1  6
  6  4  1  0
  6  7  2  0
  8  6  1  0
  9  8  1  0
  9 10  1  1
 11 10  1  0
 11 19  1  0
 12 13  1  0
 12 11  2  0
 13 14  1  0
 14 15  1  0
 14 19  2  0
 15 16  2  0
 16 17  1  0
 18 17  2  0
 19 18  1  0
 20  9  1  0
 21 20  2  0
 23 22  1  6
 23 25  1  0
 24 23  1  0
 25 27  1  0
 25 26  1  6
 26 20  1  0
 27 29  1  0
 28 27  2  0
M  END
$$$$
