VWV.pdb
     RDKit          3D

 29 30  0  0  1  0  0  0  0  0999 V2000
   12.4344  -17.3708   18.2866 C   0  0  0  0  0  0  0  0  0  0  0  0
   11.7366  -16.5389   19.3124 C   0  0  1  0  0  0  0  0  0  0  0  0
   10.2311  -16.6378   18.9635 C   0  0  0  0  0  0  0  0  0  0  0  0
   11.8447  -16.9969   20.7253 C   0  0  2  0  0  0  0  0  0  0  0  0
   11.2408  -18.3493   20.7439 N   0  0  0  0  0  0  0  0  0  0  0  0
   11.1475  -16.2096   21.7374 C   0  0  0  0  0  0  0  0  0  0  0  0
   11.6056  -15.0464   22.0569 O   0  0  0  0  0  0  0  0  0  0  0  0
    9.9796  -16.5547   22.4551 N   0  0  0  0  0  0  0  0  0  0  0  0
    9.3482  -15.8275   23.5103 C   0  0  1  0  0  0  0  0  0  0  0  0
    7.8844  -16.1717   23.5491 C   0  0  0  0  0  0  0  0  0  0  0  0
    7.1109  -15.4788   24.5790 C   0  0  0  0  0  0  0  0  0  0  0  0
    6.3371  -16.0611   25.5496 C   0  0  0  0  0  0  0  0  0  0  0  0
    5.8058  -15.0722   26.3060 N   0  0  0  0  0  0  0  0  0  0  0  0
    6.2206  -13.8683   25.8441 C   0  0  0  0  0  0  0  0  0  0  0  0
    6.0010  -12.5648   26.2170 C   0  0  0  0  0  0  0  0  0  0  0  0
    6.5767  -11.4837   25.5387 C   0  0  0  0  0  0  0  0  0  0  0  0
    7.3905  -11.7266   24.4631 C   0  0  0  0  0  0  0  0  0  0  0  0
    7.6096  -13.0301   24.0912 C   0  0  0  0  0  0  0  0  0  0  0  0
    7.0538  -14.1111   24.7424 C   0  0  0  0  0  0  0  0  0  0  0  0
    9.8947  -16.1383   24.8708 C   0  0  0  0  0  0  0  0  0  0  0  0
   10.4293  -17.2844   25.0201 O   0  0  0  0  0  0  0  0  0  0  0  0
   10.2776  -13.1805   27.8905 C   0  0  0  0  0  0  0  0  0  0  0  0
   10.0954  -14.6180   28.3167 C   0  0  2  0  0  0  0  0  0  0  0  0
   10.8978  -14.9065   29.5686 C   0  0  0  0  0  0  0  0  0  0  0  0
   10.4474  -15.5769   27.2295 C   0  0  2  0  0  0  0  0  0  0  0  0
    9.8550  -15.2680   25.9657 N   0  0  0  0  0  0  0  0  0  0  0  0
   10.1060  -16.9562   27.6963 C   0  0  0  0  0  0  0  0  0  0  0  0
   10.9247  -17.6147   28.4004 O   0  0  0  0  0  0  0  0  0  0  0  0
    8.8857  -17.5222   27.3587 O   0  0  0  0  0  0  0  0  0  0  0  0
  2  1  1  6
  2  4  1  0
  3  2  1  0
  4  5  1  6
  6  4  1  0
  6  7  2  0
  8  6  1  0
  9  8  1  0
  9 10  1  1
 11 10  1  0
 11 19  1  0
 12 13  1  0
 12 11  2  0
 13 14  1  0
 14 15  1  0
 14 19  2  0
 15 16  2  0
 16 17  1  0
 18 17  2  0
 19 18  1  0
 20  9  1  0
 21 20  2  0
 23 22  1  6
 23 25  1  0
 24 23  1  0
 25 27  1  0
 25 26  1  6
 26 20  1  0
 27 29  1  0
 28 27  2  0
M  END
$$$$
