VWV.pdb
     RDKit          3D

 29 30  0  0  1  0  0  0  0  0999 V2000
   10.4679  -17.8788   20.2407 C   0  0  0  0  0  0  0  0  0  0  0  0
    9.3776  -16.9020   19.9430 C   0  0  1  0  0  0  0  0  0  0  0  0
    8.6344  -17.4812   18.7141 C   0  0  0  0  0  0  0  0  0  0  0  0
    8.3333  -16.7318   20.9910 C   0  0  2  0  0  0  0  0  0  0  0  0
    7.4098  -15.7038   20.4576 N   0  0  0  0  0  0  0  0  0  0  0  0
    8.7731  -16.2644   22.3019 C   0  0  0  0  0  0  0  0  0  0  0  0
    9.2102  -15.0566   22.4262 O   0  0  0  0  0  0  0  0  0  0  0  0
    8.7886  -16.9809   23.5203 N   0  0  0  0  0  0  0  0  0  0  0  0
    9.3748  -16.5905   24.7632 C   0  0  1  0  0  0  0  0  0  0  0  0
    8.3207  -16.5935   25.8363 C   0  0  0  0  0  0  0  0  0  0  0  0
    7.3064  -15.5469   25.7129 C   0  0  0  0  0  0  0  0  0  0  0  0
    5.9767  -15.7273   25.4310 C   0  0  0  0  0  0  0  0  0  0  0  0
    5.3853  -14.5097   25.4216 N   0  0  0  0  0  0  0  0  0  0  0  0
    6.3040  -13.5516   25.6912 C   0  0  0  0  0  0  0  0  0  0  0  0
    6.2647  -12.1836   25.8071 C   0  0  0  0  0  0  0  0  0  0  0  0
    7.4024  -11.4232   26.1036 C   0  0  0  0  0  0  0  0  0  0  0  0
    8.6023  -12.0596   26.2869 C   0  0  0  0  0  0  0  0  0  0  0  0
    8.6405  -13.4273   26.1711 C   0  0  0  0  0  0  0  0  0  0  0  0
    7.5346  -14.1976   25.8793 C   0  0  0  0  0  0  0  0  0  0  0  0
   10.4633  -17.5071   25.2333 C   0  0  0  0  0  0  0  0  0  0  0  0
   10.1753  -18.7461   25.2957 O   0  0  0  0  0  0  0  0  0  0  0  0
   14.2920  -16.2827   27.0195 C   0  0  0  0  0  0  0  0  0  0  0  0
   14.1311  -17.4429   26.0659 C   0  0  2  0  0  0  0  0  0  0  0  0
   14.5277  -17.0354   24.6620 C   0  0  0  0  0  0  0  0  0  0  0  0
   12.7473  -17.9998   26.0847 C   0  0  2  0  0  0  0  0  0  0  0  0
   11.7494  -17.0973   25.6017 N   0  0  0  0  0  0  0  0  0  0  0  0
   12.4573  -18.4802   27.4711 C   0  0  0  0  0  0  0  0  0  0  0  0
   11.5339  -17.9485   28.1527 O   0  0  0  0  0  0  0  0  0  0  0  0
   13.2014  -19.5147   28.0183 O   0  0  0  0  0  0  0  0  0  0  0  0
  2  1  1  1
  2  4  1  0
  3  2  1  0
  4  5  1  6
  6  4  1  0
  6  7  2  0
  8  6  1  0
  9  8  1  0
  9 10  1  1
 11 10  1  0
 11 19  1  0
 12 13  1  0
 12 11  2  0
 13 14  1  0
 14 15  1  0
 14 19  2  0
 15 16  2  0
 16 17  1  0
 18 17  2  0
 19 18  1  0
 20  9  1  0
 21 20  2  0
 23 22  1  1
 23 25  1  0
 24 23  1  0
 25 27  1  0
 25 26  1  1
 26 20  1  0
 27 29  1  0
 28 27  2  0
M  END
$$$$
