VWV.pdb
     RDKit          3D

 29 30  0  0  1  0  0  0  0  0999 V2000
    9.9851  -16.7064   17.9382 C   0  0  0  0  0  0  0  0  0  0  0  0
    9.7706  -15.9367   19.2002 C   0  0  1  0  0  0  0  0  0  0  0  0
    8.2450  -15.9938   19.4594 C   0  0  0  0  0  0  0  0  0  0  0  0
   10.4005  -16.4897   20.4313 C   0  0  2  0  0  0  0  0  0  0  0  0
    9.9408  -17.8958   20.5064 N   0  0  0  0  0  0  0  0  0  0  0  0
   10.0479  -15.8622   21.7010 C   0  0  0  0  0  0  0  0  0  0  0  0
   10.5595  -14.7162   22.0011 O   0  0  0  0  0  0  0  0  0  0  0  0
    9.1793  -16.3536   22.7021 N   0  0  0  0  0  0  0  0  0  0  0  0
    8.8689  -15.7628   23.9652 C   0  0  1  0  0  0  0  0  0  0  0  0
    7.5580  -16.3069   24.4634 C   0  0  0  0  0  0  0  0  0  0  0  0
    6.6623  -15.3173   25.0614 C   0  0  0  0  0  0  0  0  0  0  0  0
    5.3989  -15.5447   25.5432 C   0  0  0  0  0  0  0  0  0  0  0  0
    4.9201  -14.3729   26.0229 N   0  0  0  0  0  0  0  0  0  0  0  0
    5.8467  -13.3983   25.8607 C   0  0  0  0  0  0  0  0  0  0  0  0
    5.8982  -12.0581   26.1570 C   0  0  0  0  0  0  0  0  0  0  0  0
    7.0187  -11.2692   25.8696 C   0  0  0  0  0  0  0  0  0  0  0  0
    8.1077  -11.8479   25.2717 C   0  0  0  0  0  0  0  0  0  0  0  0
    8.0553  -13.1878   24.9761 C   0  0  0  0  0  0  0  0  0  0  0  0
    6.9637  -13.9851   25.2485 C   0  0  0  0  0  0  0  0  0  0  0  0
    9.8815  -16.0487   25.0324 C   0  0  0  0  0  0  0  0  0  0  0  0
   10.6266  -17.0654   24.8509 O   0  0  0  0  0  0  0  0  0  0  0  0
   10.6068  -13.4463   28.3008 C   0  0  0  0  0  0  0  0  0  0  0  0
   10.6570  -14.9363   28.5429 C   0  0  2  0  0  0  0  0  0  0  0  0
   11.7165  -15.2716   29.5721 C   0  0  0  0  0  0  0  0  0  0  0  0
   10.8800  -15.7044   27.2837 C   0  0  2  0  0  0  0  0  0  0  0  0
   10.0567  -15.2863   26.1924 N   0  0  0  0  0  0  0  0  0  0  0  0
   10.7214  -17.1595   27.5914 C   0  0  0  0  0  0  0  0  0  0  0  0
    9.5697  -17.6603   27.7411 O   0  0  0  0  0  0  0  0  0  0  0  0
   11.8400  -17.9700   27.7144 O   0  0  0  0  0  0  0  0  0  0  0  0
  2  1  1  6
  2  4  1  0
  3  2  1  0
  4  5  1  1
  6  4  1  0
  6  7  2  0
  8  6  1  0
  9  8  1  0
  9 10  1  1
 11 10  1  0
 11 19  1  0
 12 13  1  0
 12 11  2  0
 13 14  1  0
 14 15  1  0
 14 19  2  0
 15 16  2  0
 16 17  1  0
 18 17  2  0
 19 18  1  0
 20  9  1  0
 21 20  2  0
 23 22  1  6
 23 25  1  0
 24 23  1  0
 25 27  1  0
 25 26  1  6
 26 20  1  0
 27 29  1  0
 28 27  2  0
M  END
$$$$
