VWV.pdb
     RDKit          3D

 29 30  0  0  1  0  0  0  0  0999 V2000
    8.3213  -22.6887   21.0541 C   0  0  0  0  0  0  0  0  0  0  0  0
    8.6265  -21.3702   21.6863 C   0  0  1  0  0  0  0  0  0  0  0  0
   10.1435  -21.1522   21.4648 C   0  0  0  0  0  0  0  0  0  0  0  0
    7.9654  -20.1773   21.0880 C   0  0  2  0  0  0  0  0  0  0  0  0
    8.2751  -20.2448   19.6411 N   0  0  0  0  0  0  0  0  0  0  0  0
    8.4067  -18.8662   21.5532 C   0  0  0  0  0  0  0  0  0  0  0  0
    9.4662  -18.3388   21.0390 O   0  0  0  0  0  0  0  0  0  0  0  0
    7.8083  -18.0458   22.5366 N   0  0  0  0  0  0  0  0  0  0  0  0
    8.2822  -16.7999   23.0504 C   0  0  1  0  0  0  0  0  0  0  0  0
    7.1106  -15.9458   23.4510 C   0  0  0  0  0  0  0  0  0  0  0  0
    7.4418  -14.5676   23.8120 C   0  0  0  0  0  0  0  0  0  0  0  0
    8.1254  -13.6631   23.0409 C   0  0  0  0  0  0  0  0  0  0  0  0
    8.2062  -12.5034   23.7344 N   0  0  0  0  0  0  0  0  0  0  0  0
    7.5902  -12.6419   24.9328 C   0  0  0  0  0  0  0  0  0  0  0  0
    7.3728  -11.8134   26.0065 C   0  0  0  0  0  0  0  0  0  0  0  0
    6.6826  -12.2335   27.1500 C   0  0  0  0  0  0  0  0  0  0  0  0
    6.2029  -13.5160   27.2075 C   0  0  0  0  0  0  0  0  0  0  0  0
    6.4206  -14.3434   26.1335 C   0  0  0  0  0  0  0  0  0  0  0  0
    7.0976  -13.9534   24.9972 C   0  0  0  0  0  0  0  0  0  0  0  0
    9.1455  -16.9363   24.2678 C   0  0  0  0  0  0  0  0  0  0  0  0
    8.6643  -17.6142   25.2325 O   0  0  0  0  0  0  0  0  0  0  0  0
   13.2808  -16.7007   24.0323 C   0  0  0  0  0  0  0  0  0  0  0  0
   12.6859  -16.2048   25.3290 C   0  0  2  0  0  0  0  0  0  0  0  0
   13.5483  -16.6214   26.5025 C   0  0  0  0  0  0  0  0  0  0  0  0
   11.2793  -16.6651   25.5159 C   0  0  2  0  0  0  0  0  0  0  0  0
   10.4201  -16.3770   24.4103 N   0  0  0  0  0  0  0  0  0  0  0  0
   10.7678  -16.0909   26.7988 C   0  0  0  0  0  0  0  0  0  0  0  0
   10.2422  -14.9407   26.8207 O   0  0  0  0  0  0  0  0  0  0  0  0
   10.8673  -16.8191   27.9749 O   0  0  0  0  0  0  0  0  0  0  0  0
  2  1  1  6
  2  4  1  0
  3  2  1  0
  4  5  1  6
  6  4  1  0
  6  7  2  0
  8  6  1  0
  9  8  1  0
  9 10  1  1
 11 10  1  0
 11 19  1  0
 12 13  1  0
 12 11  2  0
 13 14  1  0
 14 15  1  0
 14 19  2  0
 15 16  2  0
 16 17  1  0
 18 17  2  0
 19 18  1  0
 20  9  1  0
 21 20  2  0
 23 22  1  6
 23 25  1  0
 24 23  1  0
 25 27  1  0
 25 26  1  6
 26 20  1  0
 27 29  1  0
 28 27  2  0
M  END
$$$$
