VWV.pdb
     RDKit          3D

 29 30  0  0  1  0  0  0  0  0999 V2000
    9.2862  -20.7341   19.2337 C   0  0  0  0  0  0  0  0  0  0  0  0
    9.5530  -19.8587   20.4143 C   0  0  1  0  0  0  0  0  0  0  0  0
   10.9940  -19.3287   20.2127 C   0  0  0  0  0  0  0  0  0  0  0  0
    8.7014  -18.6443   20.5472 C   0  0  2  0  0  0  0  0  0  0  0  0
    8.8512  -17.9207   19.2635 N   0  0  0  0  0  0  0  0  0  0  0  0
    9.0454  -17.7005   21.6061 C   0  0  0  0  0  0  0  0  0  0  0  0
    9.9895  -16.8443   21.4048 O   0  0  0  0  0  0  0  0  0  0  0  0
    8.4614  -17.5810   22.8879 N   0  0  0  0  0  0  0  0  0  0  0  0
    8.8438  -16.7067   23.9509 C   0  0  1  0  0  0  0  0  0  0  0  0
    7.6688  -16.4853   24.8638 C   0  0  0  0  0  0  0  0  0  0  0  0
    7.5479  -15.1309   25.4024 C   0  0  0  0  0  0  0  0  0  0  0  0
    6.6591  -14.1678   24.9993 C   0  0  0  0  0  0  0  0  0  0  0  0
    6.8666  -13.0669   25.7592 N   0  0  0  0  0  0  0  0  0  0  0  0
    7.8678  -13.3005   26.6411 C   0  0  0  0  0  0  0  0  0  0  0  0
    8.4788  -12.5610   27.6240 C   0  0  0  0  0  0  0  0  0  0  0  0
    9.5203  -13.0715   28.4083 C   0  0  0  0  0  0  0  0  0  0  0  0
    9.9510  -14.3548   28.1941 C   0  0  0  0  0  0  0  0  0  0  0  0
    9.3393  -15.0934   27.2113 C   0  0  0  0  0  0  0  0  0  0  0  0
    8.3128  -14.6130   26.4258 C   0  0  0  0  0  0  0  0  0  0  0  0
    9.9521  -17.2421   24.8060 C   0  0  0  0  0  0  0  0  0  0  0  0
    9.7905  -18.4140   25.2774 O   0  0  0  0  0  0  0  0  0  0  0  0
   13.8797  -16.1115   24.2168 C   0  0  0  0  0  0  0  0  0  0  0  0
   13.5139  -16.3903   25.6554 C   0  0  2  0  0  0  0  0  0  0  0  0
   14.6447  -17.1098   26.3611 C   0  0  0  0  0  0  0  0  0  0  0  0
   12.2412  -17.1593   25.7741 C   0  0  2  0  0  0  0  0  0  0  0  0
   11.1287  -16.5506   25.1142 N   0  0  0  0  0  0  0  0  0  0  0  0
   11.9779  -17.4030   27.2261 C   0  0  0  0  0  0  0  0  0  0  0  0
   12.3393  -18.4867   27.7692 O   0  0  0  0  0  0  0  0  0  0  0  0
   11.3342  -16.4389   27.9873 O   0  0  0  0  0  0  0  0  0  0  0  0
  2  1  1  6
  2  4  1  0
  3  2  1  0
  4  5  1  6
  6  4  1  0
  6  7  2  0
  8  6  1  0
  9  8  1  0
  9 10  1  1
 11 10  1  0
 11 19  1  0
 12 13  1  0
 12 11  2  0
 13 14  1  0
 14 15  1  0
 14 19  2  0
 15 16  2  0
 16 17  1  0
 18 17  2  0
 19 18  1  0
 20  9  1  0
 21 20  2  0
 23 22  1  6
 23 25  1  0
 24 23  1  0
 25 27  1  0
 25 26  1  1
 26 20  1  0
 27 29  1  0
 28 27  2  0
M  END
$$$$
