VWV.pdb
     RDKit          3D

 29 30  0  0  1  0  0  0  0  0999 V2000
    6.1908  -18.7946   18.3497 C   0  0  0  0  0  0  0  0  0  0  0  0
    6.8616  -18.2768   19.5798 C   0  0  1  0  0  0  0  0  0  0  0  0
    7.9194  -19.3458   19.9491 C   0  0  0  0  0  0  0  0  0  0  0  0
    7.6210  -17.0037   19.4370 C   0  0  2  0  0  0  0  0  0  0  0  0
    8.6886  -17.2951   18.4524 N   0  0  0  0  0  0  0  0  0  0  0  0
    8.2789  -16.4815   20.6306 C   0  0  0  0  0  0  0  0  0  0  0  0
    9.5233  -16.7550   20.8349 O   0  0  0  0  0  0  0  0  0  0  0  0
    7.7210  -15.6747   21.6484 N   0  0  0  0  0  0  0  0  0  0  0  0
    8.3483  -15.2070   22.8435 C   0  0  1  0  0  0  0  0  0  0  0  0
    7.3897  -14.3299   23.6015 C   0  0  0  0  0  0  0  0  0  0  0  0
    7.8737  -13.8571   24.8983 C   0  0  0  0  0  0  0  0  0  0  0  0
    9.0489  -14.2104   25.5098 C   0  0  0  0  0  0  0  0  0  0  0  0
    9.1236  -13.5412   26.6841 N   0  0  0  0  0  0  0  0  0  0  0  0
    8.0239  -12.7661   26.8409 C   0  0  0  0  0  0  0  0  0  0  0  0
    7.5849  -11.9009   27.8131 C   0  0  0  0  0  0  0  0  0  0  0  0
    6.3704  -11.2118   27.7106 C   0  0  0  0  0  0  0  0  0  0  0  0
    5.5858  -11.4015   26.6031 C   0  0  0  0  0  0  0  0  0  0  0  0
    6.0257  -12.2666   25.6316 C   0  0  0  0  0  0  0  0  0  0  0  0
    7.2169  -12.9569   25.7099 C   0  0  0  0  0  0  0  0  0  0  0  0
    8.7558  -16.3023   23.7818 C   0  0  0  0  0  0  0  0  0  0  0  0
    7.8379  -17.1032   24.1530 O   0  0  0  0  0  0  0  0  0  0  0  0
   12.1540  -18.2274   23.1480 C   0  0  0  0  0  0  0  0  0  0  0  0
   11.8875  -18.0826   24.6276 C   0  0  2  0  0  0  0  0  0  0  0  0
   12.2596  -19.3545   25.3612 C   0  0  0  0  0  0  0  0  0  0  0  0
   10.4730  -17.7025   24.9108 C   0  0  2  0  0  0  0  0  0  0  0  0
   10.0536  -16.4970   24.2672 N   0  0  0  0  0  0  0  0  0  0  0  0
   10.2935  -17.6478   26.3946 C   0  0  0  0  0  0  0  0  0  0  0  0
   10.5206  -16.5767   27.0277 O   0  0  0  0  0  0  0  0  0  0  0  0
    9.8754  -18.7747   27.0863 O   0  0  0  0  0  0  0  0  0  0  0  0
  2  1  1  6
  2  4  1  0
  3  2  1  0
  4  5  1  6
  6  4  1  0
  6  7  2  0
  8  6  1  0
  9  8  1  0
  9 10  1  1
 11 10  1  0
 11 19  1  0
 12 13  1  0
 12 11  2  0
 13 14  1  0
 14 15  1  0
 14 19  2  0
 15 16  2  0
 16 17  1  0
 18 17  2  0
 19 18  1  0
 20  9  1  0
 21 20  2  0
 23 22  1  6
 23 25  1  0
 24 23  1  0
 25 27  1  0
 25 26  1  6
 26 20  1  0
 27 29  1  0
 28 27  2  0
M  END
$$$$
