VWV.pdb
     RDKit          3D

 29 30  0  0  1  0  0  0  0  0999 V2000
   11.9809  -18.8245   19.5139 C   0  0  0  0  0  0  0  0  0  0  0  0
   11.6598  -17.9642   20.6920 C   0  0  1  0  0  0  0  0  0  0  0  0
   12.4460  -16.6497   20.4646 C   0  0  0  0  0  0  0  0  0  0  0  0
   10.2372  -17.5511   20.8453 C   0  0  2  0  0  0  0  0  0  0  0  0
    9.9132  -16.8029   19.6086 N   0  0  0  0  0  0  0  0  0  0  0  0
    9.9139  -16.6739   21.9661 C   0  0  0  0  0  0  0  0  0  0  0  0
   10.1818  -15.4146   21.8783 O   0  0  0  0  0  0  0  0  0  0  0  0
    9.3163  -17.0224   23.1988 N   0  0  0  0  0  0  0  0  0  0  0  0
    9.0678  -16.1799   24.3254 C   0  0  1  0  0  0  0  0  0  0  0  0
    7.8015  -16.6188   25.0086 C   0  0  0  0  0  0  0  0  0  0  0  0
    6.7417  -15.6120   25.0574 C   0  0  0  0  0  0  0  0  0  0  0  0
    5.4090  -15.8160   24.8075 C   0  0  0  0  0  0  0  0  0  0  0  0
    4.7695  -14.6347   24.9742 N   0  0  0  0  0  0  0  0  0  0  0  0
    5.6603  -13.6767   25.3257 C   0  0  0  0  0  0  0  0  0  0  0  0
    5.5715  -12.3367   25.6138 C   0  0  0  0  0  0  0  0  0  0  0  0
    6.6899  -11.5682   25.9586 C   0  0  0  0  0  0  0  0  0  0  0  0
    7.9213  -12.1674   26.0133 C   0  0  0  0  0  0  0  0  0  0  0  0
    8.0090  -13.5071   25.7253 C   0  0  0  0  0  0  0  0  0  0  0  0
    6.9229  -14.2846   25.3828 C   0  0  0  0  0  0  0  0  0  0  0  0
   10.1482  -16.2229   25.3632 C   0  0  0  0  0  0  0  0  0  0  0  0
   10.8638  -17.2758   25.3952 O   0  0  0  0  0  0  0  0  0  0  0  0
   11.8571  -14.6143   29.7286 C   0  0  0  0  0  0  0  0  0  0  0  0
   10.9798  -14.3817   28.5213 C   0  0  2  0  0  0  0  0  0  0  0  0
    9.5196  -14.3549   28.9232 C   0  0  0  0  0  0  0  0  0  0  0  0
   11.2157  -15.3928   27.4502 C   0  0  2  0  0  0  0  0  0  0  0  0
   10.4150  -15.2015   26.2815 N   0  0  0  0  0  0  0  0  0  0  0  0
   11.0372  -16.7530   28.0461 C   0  0  0  0  0  0  0  0  0  0  0  0
   11.9878  -17.3092   28.6679 O   0  0  0  0  0  0  0  0  0  0  0  0
    9.8243  -17.4135   27.9199 O   0  0  0  0  0  0  0  0  0  0  0  0
  2  1  1  6
  2  4  1  0
  3  2  1  0
  4  5  1  6
  6  4  1  0
  6  7  2  0
  8  6  1  0
  9  8  1  0
  9 10  1  1
 11 10  1  0
 11 19  1  0
 12 13  1  0
 12 11  2  0
 13 14  1  0
 14 15  1  0
 14 19  2  0
 15 16  2  0
 16 17  1  0
 18 17  2  0
 19 18  1  0
 20  9  1  0
 21 20  2  0
 23 22  1  1
 23 25  1  0
 24 23  1  0
 25 27  1  0
 25 26  1  6
 26 20  1  0
 27 29  1  0
 28 27  2  0
M  END
$$$$
