VWV.pdb
     RDKit          3D

 29 30  0  0  1  0  0  0  0  0999 V2000
   11.6189  -16.9579   17.9884 C   0  0  0  0  0  0  0  0  0  0  0  0
   11.2072  -16.1080   19.1458 C   0  0  1  0  0  0  0  0  0  0  0  0
    9.6803  -15.9078   18.9830 C   0  0  0  0  0  0  0  0  0  0  0  0
   11.3849  -16.6992   20.5010 C   0  0  2  0  0  0  0  0  0  0  0  0
   10.7038  -18.0134   20.4453 N   0  0  0  0  0  0  0  0  0  0  0  0
   10.8076  -15.9723   21.6273 C   0  0  0  0  0  0  0  0  0  0  0  0
   11.3756  -14.8877   22.0351 O   0  0  0  0  0  0  0  0  0  0  0  0
    9.6536  -16.3009   22.3747 N   0  0  0  0  0  0  0  0  0  0  0  0
    9.1235  -15.6264   23.5169 C   0  0  1  0  0  0  0  0  0  0  0  0
    7.6641  -15.9604   23.6625 C   0  0  0  0  0  0  0  0  0  0  0  0
    6.9668  -15.2436   24.7300 C   0  0  0  0  0  0  0  0  0  0  0  0
    6.1954  -15.7989   25.7182 C   0  0  0  0  0  0  0  0  0  0  0  0
    5.7470  -14.7953   26.5083 N   0  0  0  0  0  0  0  0  0  0  0  0
    6.2127  -13.6085   26.0507 C   0  0  0  0  0  0  0  0  0  0  0  0
    6.0798  -12.3016   26.4515 C   0  0  0  0  0  0  0  0  0  0  0  0
    6.6917  -11.2425   25.7701 C   0  0  0  0  0  0  0  0  0  0  0  0
    7.4530  -11.5114   24.6627 C   0  0  0  0  0  0  0  0  0  0  0  0
    7.5854  -12.8184   24.2630 C   0  0  0  0  0  0  0  0  0  0  0  0
    6.9925  -13.8780   24.9165 C   0  0  0  0  0  0  0  0  0  0  0  0
    9.7797  -16.0142   24.8074 C   0  0  0  0  0  0  0  0  0  0  0  0
   10.4502  -17.0968   24.8009 O   0  0  0  0  0  0  0  0  0  0  0  0
   10.6983  -13.1888   27.7219 C   0  0  0  0  0  0  0  0  0  0  0  0
   10.3897  -14.5736   28.2401 C   0  0  2  0  0  0  0  0  0  0  0  0
   11.3138  -14.9299   29.3861 C   0  0  0  0  0  0  0  0  0  0  0  0
   10.4575  -15.6054   27.1648 C   0  0  2  0  0  0  0  0  0  0  0  0
    9.7035  -15.2786   25.9951 N   0  0  0  0  0  0  0  0  0  0  0  0
   10.0531  -16.9194   27.7540 C   0  0  0  0  0  0  0  0  0  0  0  0
    8.8890  -17.3755   27.5625 O   0  0  0  0  0  0  0  0  0  0  0  0
   10.9552  -17.6470   28.5156 O   0  0  0  0  0  0  0  0  0  0  0  0
  2  1  1  6
  2  4  1  0
  3  2  1  0
  4  5  1  6
  6  4  1  0
  6  7  2  0
  8  6  1  0
  9  8  1  0
  9 10  1  1
 11 10  1  0
 11 19  1  0
 12 13  1  0
 12 11  2  0
 13 14  1  0
 14 15  1  0
 14 19  2  0
 15 16  2  0
 16 17  1  0
 18 17  2  0
 19 18  1  0
 20  9  1  0
 21 20  2  0
 23 22  1  6
 23 25  1  0
 24 23  1  0
 25 27  1  0
 25 26  1  6
 26 20  1  0
 27 29  1  0
 28 27  2  0
M  END
$$$$
