VWV.pdb
     RDKit          3D

 29 30  0  0  1  0  0  0  0  0999 V2000
    7.0765  -19.8074   18.6380 C   0  0  0  0  0  0  0  0  0  0  0  0
    7.6483  -19.1903   19.8723 C   0  0  1  0  0  0  0  0  0  0  0  0
    8.9453  -19.9848   20.1631 C   0  0  0  0  0  0  0  0  0  0  0  0
    8.0730  -17.7667   19.7682 C   0  0  2  0  0  0  0  0  0  0  0  0
    9.1142  -17.7467   18.7148 N   0  0  0  0  0  0  0  0  0  0  0  0
    8.6631  -17.1577   20.9562 C   0  0  0  0  0  0  0  0  0  0  0  0
    9.9083  -17.3693   21.2205 O   0  0  0  0  0  0  0  0  0  0  0  0
    8.0348  -16.3235   21.9088 N   0  0  0  0  0  0  0  0  0  0  0  0
    8.5901  -15.7869   23.1107 C   0  0  1  0  0  0  0  0  0  0  0  0
    7.6400  -14.7766   23.6933 C   0  0  0  0  0  0  0  0  0  0  0  0
    8.0827  -14.1558   24.9414 C   0  0  0  0  0  0  0  0  0  0  0  0
    9.2745  -14.3728   25.5838 C   0  0  0  0  0  0  0  0  0  0  0  0
    9.2968  -13.5951   26.6916 N   0  0  0  0  0  0  0  0  0  0  0  0
    8.1473  -12.8835   26.7755 C   0  0  0  0  0  0  0  0  0  0  0  0
    7.6456  -11.9637   27.6635 C   0  0  0  0  0  0  0  0  0  0  0  0
    6.3890  -11.3689   27.4971 C   0  0  0  0  0  0  0  0  0  0  0  0
    5.6263  -11.7110   26.4110 C   0  0  0  0  0  0  0  0  0  0  0  0
    6.1289  -12.6305   25.5237 C   0  0  0  0  0  0  0  0  0  0  0  0
    7.3624  -13.2303   25.6661 C   0  0  0  0  0  0  0  0  0  0  0  0
    8.8282  -16.8119   24.1778 C   0  0  0  0  0  0  0  0  0  0  0  0
    7.8176  -17.4933   24.5467 O   0  0  0  0  0  0  0  0  0  0  0  0
   12.7689  -18.2559   25.2572 C   0  0  0  0  0  0  0  0  0  0  0  0
   11.4700  -19.0252   25.2080 C   0  0  2  0  0  0  0  0  0  0  0  0
   11.2480  -19.6046   23.8262 C   0  0  0  0  0  0  0  0  0  0  0  0
   10.3055  -18.1918   25.6261 C   0  0  2  0  0  0  0  0  0  0  0  0
   10.0644  -17.0626   24.7832 N   0  0  0  0  0  0  0  0  0  0  0  0
   10.5011  -17.8026   27.0569 C   0  0  0  0  0  0  0  0  0  0  0  0
   10.5021  -18.6827   27.9653 O   0  0  0  0  0  0  0  0  0  0  0  0
   10.6831  -16.4703   27.3963 O   0  0  0  0  0  0  0  0  0  0  0  0
  2  1  1  6
  2  4  1  0
  3  2  1  0
  4  5  1  6
  6  4  1  0
  6  7  2  0
  8  6  1  0
  9  8  1  0
  9 10  1  1
 11 10  1  0
 11 19  1  0
 12 13  1  0
 12 11  2  0
 13 14  1  0
 14 15  1  0
 14 19  2  0
 15 16  2  0
 16 17  1  0
 18 17  2  0
 19 18  1  0
 20  9  1  0
 21 20  2  0
 23 22  1  6
 23 25  1  0
 24 23  1  0
 25 27  1  0
 25 26  1  6
 26 20  1  0
 27 29  1  0
 28 27  2  0
M  END
$$$$
