AEC.pdb
     RDKit          3D

 21 20  0  0  1  0  0  0  0  0999 V2000
   -0.7147  -26.2624   26.0299 C   0  0  0  0  0  0  0  0  0  0  0  0
   -1.6579  -26.5759   27.1678 C   0  0  2  0  0  0  0  0  0  0  0  0
   -2.1395  -27.9322   26.9825 N   0  0  0  0  0  0  0  0  0  0  0  0
   -2.8013  -25.6269   27.1485 C   0  0  0  0  0  0  0  0  0  0  0  0
   -2.6565  -24.4051   27.3162 O   0  0  0  0  0  0  0  0  0  0  0  0
   -4.1100  -26.1170   26.9328 N   0  0  0  0  0  0  0  0  0  0  0  0
   -5.2879  -25.3239   26.8301 C   0  0  1  0  0  0  0  0  0  0  0  0
   -6.3718  -26.1761   26.2054 C   0  0  0  0  0  0  0  0  0  0  0  0
   -7.6094  -25.3300   26.0043 C   0  0  0  0  0  0  0  0  0  0  0  0
   -8.6469  -26.1930   25.4006 C   0  0  0  0  0  0  0  0  0  0  0  0
   -9.5665  -26.6774   26.1123 O   0  0  0  0  0  0  0  0  0  0  0  0
   -5.7918  -24.8330   28.1292 C   0  0  0  0  0  0  0  0  0  0  0  0
   -5.8733  -25.6474   29.0826 O   0  0  0  0  0  0  0  0  0  0  0  0
   -8.5844  -26.4546   24.0441 O   0  0  0  0  0  0  0  0  0  0  0  0
   -6.1915  -23.4992   28.3738 N   0  0  0  0  0  0  0  0  0  0  0  0
   -6.5920  -23.0068   29.6783 C   0  0  1  0  0  0  0  0  0  0  0  0
   -5.4991  -22.1962   30.3373 C   0  0  0  0  0  0  0  0  0  0  0  0
   -4.6263  -21.1161   29.2116 S   0  0  0  0  0  0  0  0  0  0  0  0
   -7.7206  -22.0432   29.4370 C   0  0  0  0  0  0  0  0  0  0  0  0
   -8.1374  -21.7801   28.2806 O   0  0  0  0  0  0  0  0  0  0  0  0
   -8.3548  -21.3979   30.4961 O   0  0  0  0  0  0  0  0  0  0  0  0
  2  1  1  6
  2  3  1  0
  4  6  1  0
  4  2  1  0
  5  4  2  0
  7  6  1  0
  7 12  1  0
  7  8  1  1
  9  8  1  0
 10  9  1  0
 11 10  2  0
 12 15  1  0
 13 12  2  0
 14 10  1  0
 15 16  1  0
 16 19  1  0
 16 17  1  6
 17 18  1  0
 19 21  1  0
 20 19  2  0
M  END
$$$$
