AEC.pdb
     RDKit          3D

 21 20  0  0  1  0  0  0  0  0999 V2000
    7.3070  -13.6561   18.6922 C   0  0  0  0  0  0  0  0  0  0  0  0
    8.4439  -13.9901   19.6295 C   0  0  2  0  0  0  0  0  0  0  0  0
    9.0417  -15.2319   19.1751 N   0  0  0  0  0  0  0  0  0  0  0  0
    7.9236  -14.1560   21.0115 C   0  0  0  0  0  0  0  0  0  0  0  0
    7.3410  -13.2428   21.6186 O   0  0  0  0  0  0  0  0  0  0  0  0
    8.0899  -15.3938   21.6747 N   0  0  0  0  0  0  0  0  0  0  0  0
    7.5528  -15.7324   22.9489 C   0  0  1  0  0  0  0  0  0  0  0  0
    7.9909  -17.1428   23.2806 C   0  0  0  0  0  0  0  0  0  0  0  0
    6.8246  -17.8916   23.8865 C   0  0  0  0  0  0  0  0  0  0  0  0
    7.2774  -19.2704   24.1686 C   0  0  0  0  0  0  0  0  0  0  0  0
    8.4938  -19.5777   24.0553 O   0  0  0  0  0  0  0  0  0  0  0  0
    8.0079  -14.8491   24.0422 C   0  0  0  0  0  0  0  0  0  0  0  0
    9.2250  -14.5406   24.0909 O   0  0  0  0  0  0  0  0  0  0  0  0
    6.3396  -20.2095   24.5574 O   0  0  0  0  0  0  0  0  0  0  0  0
    7.1605  -14.3240   25.0446 N   0  0  0  0  0  0  0  0  0  0  0  0
    7.5753  -13.3132   25.9990 C   0  0  1  0  0  0  0  0  0  0  0  0
    6.4358  -12.3977   26.3848 C   0  0  0  0  0  0  0  0  0  0  0  0
    6.8401  -11.2631   27.7056 S   0  0  0  0  0  0  0  0  0  0  0  0
    7.9471  -14.0482   27.2568 C   0  0  0  0  0  0  0  0  0  0  0  0
    7.4337  -15.1551   27.5591 O   0  0  0  0  0  0  0  0  0  0  0  0
    8.8844  -13.5260   28.1451 O   0  0  0  0  0  0  0  0  0  0  0  0
  2  1  1  6
  2  3  1  0
  4  6  1  0
  4  2  1  0
  5  4  2  0
  7  6  1  0
  7 12  1  0
  7  8  1  1
  9  8  1  0
 10  9  1  0
 11 10  2  0
 12 15  1  0
 13 12  2  0
 14 10  1  0
 15 16  1  0
 16 19  1  0
 16 17  1  1
 17 18  1  0
 19 21  1  0
 20 19  2  0
M  END
$$$$
