AEC.pdb
     RDKit          3D

 21 20  0  0  1  0  0  0  0  0999 V2000
    8.0962  -12.5328   19.6731 C   0  0  0  0  0  0  0  0  0  0  0  0
    8.2665  -13.8660   18.9830 C   0  0  2  0  0  0  0  0  0  0  0  0
    7.0561  -14.1312   18.2277 N   0  0  0  0  0  0  0  0  0  0  0  0
    8.4738  -14.9333   19.9960 C   0  0  0  0  0  0  0  0  0  0  0  0
    7.5311  -15.4786   20.5925 O   0  0  0  0  0  0  0  0  0  0  0  0
    9.7877  -15.3554   20.3044 N   0  0  0  0  0  0  0  0  0  0  0  0
   10.1348  -16.3913   21.2173 C   0  0  1  0  0  0  0  0  0  0  0  0
   11.4519  -16.9874   20.7685 C   0  0  0  0  0  0  0  0  0  0  0  0
   11.2710  -18.4730   20.5484 C   0  0  0  0  0  0  0  0  0  0  0  0
   12.0371  -18.8415   19.3389 C   0  0  0  0  0  0  0  0  0  0  0  0
   13.2745  -18.6141   19.2742 O   0  0  0  0  0  0  0  0  0  0  0  0
   10.3000  -15.9283   22.6104 C   0  0  0  0  0  0  0  0  0  0  0  0
   11.1178  -15.0016   22.8370 O   0  0  0  0  0  0  0  0  0  0  0  0
   11.3674  -19.4381   18.2863 O   0  0  0  0  0  0  0  0  0  0  0  0
    9.5951  -16.4614   23.7139 N   0  0  0  0  0  0  0  0  0  0  0  0
    9.7689  -15.9988   25.0779 C   0  0  1  0  0  0  0  0  0  0  0  0
    8.5308  -15.3087   25.6035 C   0  0  0  0  0  0  0  0  0  0  0  0
    7.0090  -15.9239   24.8958 S   0  0  0  0  0  0  0  0  0  0  0  0
    9.9347  -17.2312   25.9231 C   0  0  0  0  0  0  0  0  0  0  0  0
    9.7552  -18.3863   25.4608 O   0  0  0  0  0  0  0  0  0  0  0  0
   10.2972  -17.1401   27.2649 O   0  0  0  0  0  0  0  0  0  0  0  0
  2  1  1  1
  2  3  1  0
  4  6  1  0
  4  2  1  0
  5  4  2  0
  7  6  1  0
  7 12  1  0
  7  8  1  6
  9  8  1  0
 10  9  1  0
 11 10  2  0
 12 15  1  0
 13 12  2  0
 14 10  1  0
 15 16  1  0
 16 19  1  0
 16 17  1  1
 17 18  1  0
 19 21  1  0
 20 19  2  0
M  END
$$$$
