AEC.pdb
     RDKit          3D

 21 20  0  0  1  0  0  0  0  0999 V2000
    7.2355  -13.3392   18.7884 C   0  0  0  0  0  0  0  0  0  0  0  0
    8.5665  -13.2813   19.5009 C   0  0  2  0  0  0  0  0  0  0  0  0
    9.6103  -13.3632   18.4961 N   0  0  0  0  0  0  0  0  0  0  0  0
    8.6820  -14.4243   20.4435 C   0  0  0  0  0  0  0  0  0  0  0  0
    7.8368  -14.6496   21.3249 O   0  0  0  0  0  0  0  0  0  0  0  0
    9.7898  -15.2977   20.3470 N   0  0  0  0  0  0  0  0  0  0  0  0
   10.0365  -16.4225   21.1842 C   0  0  1  0  0  0  0  0  0  0  0  0
   11.2521  -17.1470   20.6470 C   0  0  0  0  0  0  0  0  0  0  0  0
   11.4450  -18.4298   21.4249 C   0  0  0  0  0  0  0  0  0  0  0  0
   12.5501  -19.1767   20.7872 C   0  0  0  0  0  0  0  0  0  0  0  0
   12.5408  -19.3926   19.5461 O   0  0  0  0  0  0  0  0  0  0  0  0
   10.3069  -16.0697   22.5931 C   0  0  0  0  0  0  0  0  0  0  0  0
   11.3159  -15.3653   22.8475 O   0  0  0  0  0  0  0  0  0  0  0  0
   13.5881  -19.6303   21.5804 O   0  0  0  0  0  0  0  0  0  0  0  0
    9.5015  -16.4743   23.6823 N   0  0  0  0  0  0  0  0  0  0  0  0
    9.7451  -16.0722   25.0547 C   0  0  1  0  0  0  0  0  0  0  0  0
    8.5499  -15.3718   25.6600 C   0  0  0  0  0  0  0  0  0  0  0  0
    7.0053  -16.2349   25.4056 S   0  0  0  0  0  0  0  0  0  0  0  0
    9.9117  -17.3418   25.8428 C   0  0  0  0  0  0  0  0  0  0  0  0
    9.6776  -18.4718   25.3444 O   0  0  0  0  0  0  0  0  0  0  0  0
   10.3361  -17.3150   27.1692 O   0  0  0  0  0  0  0  0  0  0  0  0
  2  1  1  6
  2  3  1  0
  4  6  1  0
  4  2  1  0
  5  4  2  0
  7  6  1  0
  7 12  1  0
  7  8  1  6
  9  8  1  0
 10  9  1  0
 11 10  2  0
 12 15  1  0
 13 12  2  0
 14 10  1  0
 15 16  1  0
 16 19  1  0
 16 17  1  1
 17 18  1  0
 19 21  1  0
 20 19  2  0
M  END
$$$$
