AEC.pdb
     RDKit          3D

 21 20  0  0  1  0  0  0  0  0999 V2000
    7.7389  -12.1833   20.1007 C   0  0  0  0  0  0  0  0  0  0  0  0
    8.1269  -13.5988   19.7423 C   0  0  2  0  0  0  0  0  0  0  0  0
    7.2874  -14.0213   18.6365 N   0  0  0  0  0  0  0  0  0  0  0  0
    7.9096  -14.4906   20.9109 C   0  0  0  0  0  0  0  0  0  0  0  0
    6.8078  -15.0058   21.1606 O   0  0  0  0  0  0  0  0  0  0  0  0
    8.9874  -14.7732   21.7816 N   0  0  0  0  0  0  0  0  0  0  0  0
    8.9127  -15.5531   22.9703 C   0  0  1  0  0  0  0  0  0  0  0  0
   10.0130  -16.5913   22.9177 C   0  0  0  0  0  0  0  0  0  0  0  0
    9.6632  -17.6279   21.8732 C   0  0  0  0  0  0  0  0  0  0  0  0
   10.7309  -18.6504   21.8839 C   0  0  0  0  0  0  0  0  0  0  0  0
   11.1815  -19.1129   20.8023 O   0  0  0  0  0  0  0  0  0  0  0  0
    9.0898  -14.7695   24.2101 C   0  0  0  0  0  0  0  0  0  0  0  0
   10.2019  -14.2213   24.4144 O   0  0  0  0  0  0  0  0  0  0  0  0
   11.2204  -19.0847   23.1022 O   0  0  0  0  0  0  0  0  0  0  0  0
    8.0855  -14.5938   25.1895 N   0  0  0  0  0  0  0  0  0  0  0  0
    8.2582  -13.7849   26.3813 C   0  0  1  0  0  0  0  0  0  0  0  0
    6.9388  -13.2755   26.9156 C   0  0  0  0  0  0  0  0  0  0  0  0
    5.9977  -12.3302   25.7258 S   0  0  0  0  0  0  0  0  0  0  0  0
    8.7955  -14.7056   27.4416 C   0  0  0  0  0  0  0  0  0  0  0  0
    9.1167  -14.2917   28.5843 O   0  0  0  0  0  0  0  0  0  0  0  0
    8.9599  -16.0670   27.1966 O   0  0  0  0  0  0  0  0  0  0  0  0
  2  1  1  1
  2  3  1  0
  4  6  1  0
  4  2  1  0
  5  4  2  0
  7  6  1  0
  7 12  1  0
  7  8  1  6
  9  8  1  0
 10  9  1  0
 11 10  2  0
 12 15  1  0
 13 12  2  0
 14 10  1  0
 15 16  1  0
 16 19  1  0
 16 17  1  1
 17 18  1  0
 19 21  1  0
 20 19  2  0
M  END
$$$$
