AEC.pdb
     RDKit          3D

 21 20  0  0  1  0  0  0  0  0999 V2000
    7.8502  -12.7524   20.0826 C   0  0  0  0  0  0  0  0  0  0  0  0
    8.0935  -14.2209   19.8237 C   0  0  2  0  0  0  0  0  0  0  0  0
    6.9424  -14.7409   19.1092 N   0  0  0  0  0  0  0  0  0  0  0  0
    8.2533  -14.9390   21.1149 C   0  0  0  0  0  0  0  0  0  0  0  0
    7.2888  -15.2226   21.8438 O   0  0  0  0  0  0  0  0  0  0  0  0
    9.5452  -15.3207   21.5445 N   0  0  0  0  0  0  0  0  0  0  0  0
    9.8494  -16.0076   22.7539 C   0  0  1  0  0  0  0  0  0  0  0  0
   11.1565  -16.7450   22.5562 C   0  0  0  0  0  0  0  0  0  0  0  0
   10.9108  -17.9596   21.6887 C   0  0  0  0  0  0  0  0  0  0  0  0
   12.1973  -18.6740   21.5465 C   0  0  0  0  0  0  0  0  0  0  0  0
   12.7694  -19.1641   22.5562 O   0  0  0  0  0  0  0  0  0  0  0  0
   10.0053  -15.1174   23.9226 C   0  0  0  0  0  0  0  0  0  0  0  0
   10.1764  -13.8896   23.7175 O   0  0  0  0  0  0  0  0  0  0  0  0
   12.7547  -18.7910   20.2863 O   0  0  0  0  0  0  0  0  0  0  0  0
    9.9751  -15.5569   25.2660 N   0  0  0  0  0  0  0  0  0  0  0  0
    9.9007  -14.6596   26.4035 C   0  0  1  0  0  0  0  0  0  0  0  0
    8.5990  -13.8914   26.4342 C   0  0  0  0  0  0  0  0  0  0  0  0
    8.4002  -12.8706   27.8880 S   0  0  0  0  0  0  0  0  0  0  0  0
    9.8846  -15.5318   27.6281 C   0  0  0  0  0  0  0  0  0  0  0  0
    9.4535  -16.7123   27.6007 O   0  0  0  0  0  0  0  0  0  0  0  0
   10.3514  -15.0610   28.8531 O   0  0  0  0  0  0  0  0  0  0  0  0
  2  1  1  1
  2  3  1  0
  4  6  1  0
  4  2  1  0
  5  4  2  0
  7  6  1  0
  7 12  1  0
  7  8  1  6
  9  8  1  0
 10  9  1  0
 11 10  2  0
 12 15  1  0
 13 12  2  0
 14 10  1  0
 15 16  1  0
 16 19  1  0
 16 17  1  6
 17 18  1  0
 19 21  1  0
 20 19  2  0
M  END
$$$$
