AEC.pdb
     RDKit          3D

 21 20  0  0  1  0  0  0  0  0999 V2000
    7.8015  -12.4954   19.9961 C   0  0  0  0  0  0  0  0  0  0  0  0
    8.1581  -13.8220   19.3672 C   0  0  2  0  0  0  0  0  0  0  0  0
    7.1260  -14.1447   18.3995 N   0  0  0  0  0  0  0  0  0  0  0  0
    8.2159  -14.8750   20.4142 C   0  0  0  0  0  0  0  0  0  0  0  0
    7.1954  -15.3948   20.8940 O   0  0  0  0  0  0  0  0  0  0  0  0
    9.4721  -15.3128   20.8934 N   0  0  0  0  0  0  0  0  0  0  0  0
    9.6802  -16.2226   21.9685 C   0  0  1  0  0  0  0  0  0  0  0  0
   11.0771  -16.7904   21.8363 C   0  0  0  0  0  0  0  0  0  0  0  0
   11.0922  -17.8063   20.7156 C   0  0  0  0  0  0  0  0  0  0  0  0
   12.4797  -18.2973   20.5770 C   0  0  0  0  0  0  0  0  0  0  0  0
   12.9275  -19.1736   21.3635 O   0  0  0  0  0  0  0  0  0  0  0  0
    9.5693  -15.6025   23.3048 C   0  0  0  0  0  0  0  0  0  0  0  0
   10.3313  -14.6423   23.5809 O   0  0  0  0  0  0  0  0  0  0  0  0
   13.2701  -17.7750   19.5695 O   0  0  0  0  0  0  0  0  0  0  0  0
    8.6573  -16.0196   24.3013 N   0  0  0  0  0  0  0  0  0  0  0  0
    8.6473  -15.4925   25.6528 C   0  0  1  0  0  0  0  0  0  0  0  0
    7.2577  -15.0932   26.0943 C   0  0  0  0  0  0  0  0  0  0  0  0
    6.4685  -13.9139   25.0073 S   0  0  0  0  0  0  0  0  0  0  0  0
    9.0461  -16.6298   26.5518 C   0  0  0  0  0  0  0  0  0  0  0  0
    9.3084  -17.7744   26.1032 O   0  0  0  0  0  0  0  0  0  0  0  0
    9.1415  -16.4576   27.9308 O   0  0  0  0  0  0  0  0  0  0  0  0
  2  1  1  1
  2  3  1  0
  4  6  1  0
  4  2  1  0
  5  4  2  0
  7  6  1  0
  7 12  1  0
  7  8  1  6
  9  8  1  0
 10  9  1  0
 11 10  2  0
 12 15  1  0
 13 12  2  0
 14 10  1  0
 15 16  1  0
 16 19  1  0
 16 17  1  1
 17 18  1  0
 19 21  1  0
 20 19  2  0
M  END
$$$$
