GPV.pdb
     RDKit          3D

 19 19  0  0  1  0  0  0  0  0999 V2000
   23.4390  -21.3289  -14.5946 N   0  0  0  0  0  0  0  0  0  0  0  0
   24.5821  -20.5806  -14.2079 C   0  0  0  0  0  0  0  0  0  0  0  0
   25.1969  -20.9413  -12.9261 C   0  0  0  0  0  0  0  0  0  0  0  0
   24.4641  -21.1771  -11.9003 O   0  0  0  0  0  0  0  0  0  0  0  0
   26.6073  -21.0558  -12.7157 N   0  0  0  0  0  0  0  0  0  0  0  0
   27.5241  -21.0629  -13.8286 C   0  0  0  0  0  0  0  0  0  0  0  0
   28.8835  -21.4085  -13.2502 C   0  0  0  0  0  0  0  0  0  0  0  0
   28.7644  -20.8954  -11.8455 C   0  0  0  0  0  0  0  0  0  0  0  0
   27.3334  -21.1715  -11.4994 C   0  0  1  0  0  0  0  0  0  0  0  0
   26.8733  -20.2843  -10.4013 C   0  0  0  0  0  0  0  0  0  0  0  0
   26.4273  -19.1645  -10.6605 O   0  0  0  0  0  0  0  0  0  0  0  0
   25.7103  -21.7982   -6.5900 C   0  0  0  0  0  0  0  0  0  0  0  0
   25.4442  -20.4360   -7.1735 C   0  0  2  0  0  0  0  0  0  0  0  0
   24.1871  -20.4560   -8.0137 C   0  0  0  0  0  0  0  0  0  0  0  0
   26.6291  -19.9067   -7.9460 C   0  0  2  0  0  0  0  0  0  0  0  0
   26.9524  -20.7348   -9.0715 N   0  0  0  0  0  0  0  0  0  0  0  0
   27.7701  -19.7832   -7.0003 C   0  0  0  0  0  0  0  0  0  0  0  0
   27.7634  -18.7633   -6.0688 O   0  0  0  0  0  0  0  0  0  0  0  0
   28.7557  -20.5656   -6.9998 O   0  0  0  0  0  0  0  0  0  0  0  0
  2  1  1  0
  3  4  2  0
  3  2  1  0
  5  3  1  0
  6  5  1  0
  7  6  1  0
  8  7  1  0
  8  9  1  0
  9  5  1  0
  9 10  1  1
 10 16  1  0
 11 10  2  0
 13 12  1  6
 13 15  1  0
 14 13  1  0
 15 16  1  6
 17 15  1  0
 18 17  1  0
 19 17  2  0
M  END
$$$$
