GPV.pdb
     RDKit          3D

 19 19  0  0  1  0  0  0  0  0999 V2000
   22.1757  -12.8795  -19.0356 N   0  0  0  0  0  0  0  0  0  0  0  0
   23.2517  -12.0519  -18.6191 C   0  0  0  0  0  0  0  0  0  0  0  0
   23.0474  -11.2851  -17.3857 C   0  0  0  0  0  0  0  0  0  0  0  0
   21.8741  -10.8816  -17.0611 O   0  0  0  0  0  0  0  0  0  0  0  0
   24.0938  -10.9336  -16.4757 N   0  0  0  0  0  0  0  0  0  0  0  0
   25.3563  -11.6300  -16.4939 C   0  0  0  0  0  0  0  0  0  0  0  0
   26.1213  -11.1439  -15.2773 C   0  0  0  0  0  0  0  0  0  0  0  0
   25.5553   -9.7683  -15.0821 C   0  0  0  0  0  0  0  0  0  0  0  0
   24.1173   -9.9308  -15.4688 C   0  0  1  0  0  0  0  0  0  0  0  0
   23.5235   -8.6274  -15.8604 C   0  0  0  0  0  0  0  0  0  0  0  0
   23.6544   -8.2131  -17.0141 O   0  0  0  0  0  0  0  0  0  0  0  0
   20.2184   -7.6104  -16.2992 C   0  0  0  0  0  0  0  0  0  0  0  0
   20.7163   -6.6717  -15.2325 C   0  0  2  0  0  0  0  0  0  0  0  0
   20.0937   -5.3037  -15.3981 C   0  0  0  0  0  0  0  0  0  0  0  0
   22.2244   -6.6028  -15.1940 C   0  0  2  0  0  0  0  0  0  0  0  0
   22.8151   -7.8774  -14.9048 N   0  0  0  0  0  0  0  0  0  0  0  0
   22.6073   -5.5722  -14.1926 C   0  0  0  0  0  0  0  0  0  0  0  0
   22.6207   -5.9092  -12.8532 O   0  0  0  0  0  0  0  0  0  0  0  0
   22.9242   -4.3937  -14.4997 O   0  0  0  0  0  0  0  0  0  0  0  0
  2  1  1  0
  3  4  2  0
  3  2  1  0
  5  3  1  0
  6  5  1  0
  7  6  1  0
  8  7  1  0
  8  9  1  0
  9  5  1  0
  9 10  1  6
 10 16  1  0
 11 10  2  0
 13 12  1  6
 13 15  1  0
 14 13  1  0
 15 16  1  1
 17 15  1  0
 18 17  1  0
 19 17  2  0
M  END
$$$$
