GPV.pdb
     RDKit          3D

 19 19  0  0  1  0  0  0  0  0999 V2000
   23.2852  -13.5965  -18.5364 N   0  0  0  0  0  0  0  0  0  0  0  0
   24.0722  -12.4146  -18.5393 C   0  0  0  0  0  0  0  0  0  0  0  0
   23.8204  -11.4588  -17.4558 C   0  0  0  0  0  0  0  0  0  0  0  0
   22.6313  -11.0348  -17.2298 O   0  0  0  0  0  0  0  0  0  0  0  0
   24.8354  -10.9366  -16.5933 N   0  0  0  0  0  0  0  0  0  0  0  0
   26.1556  -11.5159  -16.5675 C   0  0  0  0  0  0  0  0  0  0  0  0
   26.8797  -10.8585  -15.4075 C   0  0  0  0  0  0  0  0  0  0  0  0
   26.1925   -9.5275  -15.3250 C   0  0  0  0  0  0  0  0  0  0  0  0
   24.7732   -9.8515  -15.6775 C   0  0  1  0  0  0  0  0  0  0  0  0
   24.0619   -8.6459  -16.1728 C   0  0  0  0  0  0  0  0  0  0  0  0
   24.1818   -8.3007  -17.3503 O   0  0  0  0  0  0  0  0  0  0  0  0
   20.4208   -7.5201  -14.6486 C   0  0  0  0  0  0  0  0  0  0  0  0
   21.0817   -6.9676  -15.8834 C   0  0  2  0  0  0  0  0  0  0  0  0
   20.8242   -7.8685  -17.0702 C   0  0  0  0  0  0  0  0  0  0  0  0
   22.5566   -6.7178  -15.6758 C   0  0  2  0  0  0  0  0  0  0  0  0
   23.2557   -7.9084  -15.2876 N   0  0  0  0  0  0  0  0  0  0  0  0
   22.6968   -5.6358  -14.6652 C   0  0  0  0  0  0  0  0  0  0  0  0
   23.0361   -5.9679  -13.3681 O   0  0  0  0  0  0  0  0  0  0  0  0
   22.5217   -4.4176  -14.9275 O   0  0  0  0  0  0  0  0  0  0  0  0
  2  1  1  0
  3  4  2  0
  3  2  1  0
  5  3  1  0
  6  5  1  0
  7  6  1  0
  8  7  1  0
  8  9  1  0
  9  5  1  0
  9 10  1  6
 10 16  1  0
 11 10  2  0
 13 12  1  1
 13 15  1  0
 14 13  1  0
 15 16  1  1
 17 15  1  0
 18 17  1  0
 19 17  2  0
M  END
$$$$
