GPV.pdb
     RDKit          3D

 19 19  0  0  1  0  0  0  0  0999 V2000
   22.8562  -20.6845  -12.9775 N   0  0  0  0  0  0  0  0  0  0  0  0
   24.1822  -20.2025  -12.8177 C   0  0  0  0  0  0  0  0  0  0  0  0
   24.9047  -20.6591  -11.6258 C   0  0  0  0  0  0  0  0  0  0  0  0
   24.2790  -20.8484  -10.5224 O   0  0  0  0  0  0  0  0  0  0  0  0
   26.3107  -20.9212  -11.5900 N   0  0  0  0  0  0  0  0  0  0  0  0
   27.0941  -20.9272  -12.8005 C   0  0  0  0  0  0  0  0  0  0  0  0
   28.4665  -21.4425  -12.4095 C   0  0  0  0  0  0  0  0  0  0  0  0
   28.5553  -21.0316  -10.9694 C   0  0  0  0  0  0  0  0  0  0  0  0
   27.1504  -21.1988  -10.4775 C   0  0  1  0  0  0  0  0  0  0  0  0
   26.9065  -20.3608   -9.2762 C   0  0  0  0  0  0  0  0  0  0  0  0
   26.4995  -19.2042   -9.4048 O   0  0  0  0  0  0  0  0  0  0  0  0
   25.6450  -21.5363   -5.5161 C   0  0  0  0  0  0  0  0  0  0  0  0
   27.0129  -20.9089   -5.5603 C   0  0  2  0  0  0  0  0  0  0  0  0
   27.2626  -20.0942   -4.3112 C   0  0  0  0  0  0  0  0  0  0  0  0
   27.2252  -20.0953   -6.8148 C   0  0  2  0  0  0  0  0  0  0  0  0
   27.1442  -20.8999   -7.9994 N   0  0  0  0  0  0  0  0  0  0  0  0
   28.5403  -19.4111   -6.6960 C   0  0  0  0  0  0  0  0  0  0  0  0
   28.6208  -18.2286   -5.9867 O   0  0  0  0  0  0  0  0  0  0  0  0
   29.5992  -19.8539   -7.2119 O   0  0  0  0  0  0  0  0  0  0  0  0
  2  1  1  0
  3  4  2  0
  3  2  1  0
  5  3  1  0
  6  5  1  0
  7  6  1  0
  8  7  1  0
  8  9  1  0
  9  5  1  0
  9 10  1  1
 10 16  1  0
 11 10  2  0
 13 12  1  1
 13 15  1  0
 14 13  1  0
 15 16  1  6
 17 15  1  0
 18 17  1  0
 19 17  2  0
M  END
$$$$
