GPV.pdb
     RDKit          3D

 19 19  0  0  1  0  0  0  0  0999 V2000
   28.1588  -21.7226  -15.1805 N   0  0  0  0  0  0  0  0  0  0  0  0
   27.6953  -20.8854  -14.1314 C   0  0  0  0  0  0  0  0  0  0  0  0
   26.3070  -21.0830  -13.7020 C   0  0  0  0  0  0  0  0  0  0  0  0
   25.3922  -21.3356  -14.5646 O   0  0  0  0  0  0  0  0  0  0  0  0
   25.8692  -21.0134  -12.3417 N   0  0  0  0  0  0  0  0  0  0  0  0
   26.8193  -20.9029  -11.2626 C   0  0  0  0  0  0  0  0  0  0  0  0
   26.0215  -21.0686   -9.9827 C   0  0  0  0  0  0  0  0  0  0  0  0
   24.6663  -20.5734  -10.3936 C   0  0  0  0  0  0  0  0  0  0  0  0
   24.5495  -21.0324  -11.8146 C   0  0  1  0  0  0  0  0  0  0  0  0
   23.5601  -20.2109  -12.5570 C   0  0  0  0  0  0  0  0  0  0  0  0
   23.7979  -19.0243  -12.7922 O   0  0  0  0  0  0  0  0  0  0  0  0
   20.7870  -22.0950  -15.0983 C   0  0  0  0  0  0  0  0  0  0  0  0
   21.1710  -20.6393  -15.1144 C   0  0  2  0  0  0  0  0  0  0  0  0
   22.3960  -20.4240  -15.9744 C   0  0  0  0  0  0  0  0  0  0  0  0
   21.3562  -20.0844  -13.7220 C   0  0  2  0  0  0  0  0  0  0  0  0
   22.3572  -20.8001  -12.9852 N   0  0  0  0  0  0  0  0  0  0  0  0
   20.0348  -20.1159  -13.0404 C   0  0  0  0  0  0  0  0  0  0  0  0
   19.7943  -21.0845  -12.0855 O   0  0  0  0  0  0  0  0  0  0  0  0
   19.1098  -19.2991  -13.2870 O   0  0  0  0  0  0  0  0  0  0  0  0
  2  1  1  0
  3  4  2  0
  3  2  1  0
  5  3  1  0
  6  5  1  0
  7  6  1  0
  8  7  1  0
  8  9  1  0
  9  5  1  0
  9 10  1  6
 10 16  1  0
 11 10  2  0
 13 12  1  1
 13 15  1  0
 14 13  1  0
 15 16  1  1
 17 15  1  0
 18 17  1  0
 19 17  2  0
M  END
$$$$
