GPV.pdb
     RDKit          3D

 19 19  0  0  1  0  0  0  0  0999 V2000
   22.7746  -13.4401  -18.7201 N   0  0  0  0  0  0  0  0  0  0  0  0
   23.5885  -12.2766  -18.7127 C   0  0  0  0  0  0  0  0  0  0  0  0
   23.3185  -11.2966  -17.6554 C   0  0  0  0  0  0  0  0  0  0  0  0
   22.1324  -10.8401  -17.4834 O   0  0  0  0  0  0  0  0  0  0  0  0
   24.3117  -10.7845  -16.7621 N   0  0  0  0  0  0  0  0  0  0  0  0
   25.6380  -11.3492  -16.7267 C   0  0  0  0  0  0  0  0  0  0  0  0
   26.3334  -10.7128  -15.5380 C   0  0  0  0  0  0  0  0  0  0  0  0
   25.6292   -9.3921  -15.4350 C   0  0  0  0  0  0  0  0  0  0  0  0
   24.2204   -9.7234  -15.8211 C   0  0  1  0  0  0  0  0  0  0  0  0
   23.5038   -8.5139  -16.2992 C   0  0  0  0  0  0  0  0  0  0  0  0
   23.5741   -8.1855  -17.4854 O   0  0  0  0  0  0  0  0  0  0  0  0
   19.9444   -7.3134  -14.7123 C   0  0  0  0  0  0  0  0  0  0  0  0
   20.5992   -6.7339  -15.9379 C   0  0  2  0  0  0  0  0  0  0  0  0
   20.2934   -7.5810  -17.1526 C   0  0  0  0  0  0  0  0  0  0  0  0
   22.0845   -6.5356  -15.7495 C   0  0  2  0  0  0  0  0  0  0  0  0
   22.7494   -7.7539  -15.3878 N   0  0  0  0  0  0  0  0  0  0  0  0
   22.2752   -5.4730  -14.7267 C   0  0  0  0  0  0  0  0  0  0  0  0
   22.2516   -4.1493  -15.1207 O   0  0  0  0  0  0  0  0  0  0  0  0
   22.4596   -5.7137  -13.5054 O   0  0  0  0  0  0  0  0  0  0  0  0
  2  1  1  0
  3  4  2  0
  3  2  1  0
  5  3  1  0
  6  5  1  0
  7  6  1  0
  8  7  1  0
  8  9  1  0
  9  5  1  0
  9 10  1  6
 10 16  1  0
 11 10  2  0
 13 12  1  1
 13 15  1  0
 14 13  1  0
 15 16  1  1
 17 15  1  0
 18 17  1  0
 19 17  2  0
M  END
$$$$
