GPV.pdb
     RDKit          3D

 19 19  0  0  1  0  0  0  0  0999 V2000
   28.9313  -22.8184  -17.6678 N   0  0  0  0  0  0  0  0  0  0  0  0
   28.1058  -21.6731  -17.5166 C   0  0  0  0  0  0  0  0  0  0  0  0
   27.9764  -21.1350  -16.1583 C   0  0  0  0  0  0  0  0  0  0  0  0
   28.1946  -21.8852  -15.1413 O   0  0  0  0  0  0  0  0  0  0  0  0
   27.6100  -19.7844  -15.8608 N   0  0  0  0  0  0  0  0  0  0  0  0
   27.6097  -18.7734  -16.8890 C   0  0  0  0  0  0  0  0  0  0  0  0
   27.3836  -17.4522  -16.1781 C   0  0  0  0  0  0  0  0  0  0  0  0
   26.6080  -17.8786  -14.9667 C   0  0  0  0  0  0  0  0  0  0  0  0
   27.2078  -19.2081  -14.6256 C   0  0  1  0  0  0  0  0  0  0  0  0
   26.2623  -20.0258  -13.8242 C   0  0  0  0  0  0  0  0  0  0  0  0
   25.4858  -20.7991  -14.3890 O   0  0  0  0  0  0  0  0  0  0  0  0
   27.1134  -21.0234   -9.8425 C   0  0  0  0  0  0  0  0  0  0  0  0
   25.7254  -20.5092  -10.1179 C   0  0  2  0  0  0  0  0  0  0  0  0
   24.7184  -21.1980   -9.2245 C   0  0  0  0  0  0  0  0  0  0  0  0
   25.3550  -20.6251  -11.5774 C   0  0  2  0  0  0  0  0  0  0  0  0
   26.2643  -19.9073  -12.4230 N   0  0  0  0  0  0  0  0  0  0  0  0
   23.9558  -20.1451  -11.7310 C   0  0  0  0  0  0  0  0  0  0  0  0
   22.9335  -21.0701  -11.8147 O   0  0  0  0  0  0  0  0  0  0  0  0
   23.6452  -18.9271  -11.7900 O   0  0  0  0  0  0  0  0  0  0  0  0
  2  1  1  0
  3  4  2  0
  3  2  1  0
  5  3  1  0
  6  5  1  0
  7  6  1  0
  8  7  1  0
  8  9  1  0
  9  5  1  0
  9 10  1  6
 10 16  1  0
 11 10  2  0
 13 12  1  6
 13 15  1  0
 14 13  1  0
 15 16  1  6
 17 15  1  0
 18 17  1  0
 19 17  2  0
M  END
$$$$
