GPV.pdb
     RDKit          3D

 19 19  0  0  1  0  0  0  0  0999 V2000
   19.8077  -13.0365  -17.9318 N   0  0  0  0  0  0  0  0  0  0  0  0
   20.9303  -12.1672  -17.9461 C   0  0  0  0  0  0  0  0  0  0  0  0
   21.0585  -11.2460  -16.8120 C   0  0  0  0  0  0  0  0  0  0  0  0
   20.0863  -10.4726  -16.4932 O   0  0  0  0  0  0  0  0  0  0  0  0
   22.2290  -11.1327  -15.9974 N   0  0  0  0  0  0  0  0  0  0  0  0
   23.2384  -12.1625  -16.0037 C   0  0  0  0  0  0  0  0  0  0  0  0
   24.2016  -11.8127  -14.8849 C   0  0  0  0  0  0  0  0  0  0  0  0
   24.0635  -10.3207  -14.8095 C   0  0  0  0  0  0  0  0  0  0  0  0
   22.6126  -10.0950  -15.1053 C   0  0  1  0  0  0  0  0  0  0  0  0
   22.3820   -8.7153  -15.6034 C   0  0  0  0  0  0  0  0  0  0  0  0
   22.6357   -8.4340  -16.7767 O   0  0  0  0  0  0  0  0  0  0  0  0
   19.4180   -6.9057  -16.1423 C   0  0  0  0  0  0  0  0  0  0  0  0
   20.1681   -6.0474  -15.1587 C   0  0  2  0  0  0  0  0  0  0  0  0
   19.9306   -4.5819  -15.4456 C   0  0  0  0  0  0  0  0  0  0  0  0
   21.6404   -6.3817  -15.1190 C   0  0  2  0  0  0  0  0  0  0  0  0
   21.8741   -7.7411  -14.7258 N   0  0  0  0  0  0  0  0  0  0  0  0
   22.3015   -5.4158  -14.2017 C   0  0  0  0  0  0  0  0  0  0  0  0
   22.9352   -4.3098  -14.7338 O   0  0  0  0  0  0  0  0  0  0  0  0
   22.3170   -5.5499  -12.9506 O   0  0  0  0  0  0  0  0  0  0  0  0
  2  1  1  0
  3  4  2  0
  3  2  1  0
  5  3  1  0
  6  5  1  0
  7  6  1  0
  8  7  1  0
  8  9  1  0
  9  5  1  0
  9 10  1  6
 10 16  1  0
 11 10  2  0
 13 12  1  6
 13 15  1  0
 14 13  1  0
 15 16  1  1
 17 15  1  0
 18 17  1  0
 19 17  2  0
M  END
$$$$
