GPV.pdb
     RDKit          3D

 19 19  0  0  1  0  0  0  0  0999 V2000
   27.8431  -21.9515  -16.5893 N   0  0  0  0  0  0  0  0  0  0  0  0
   28.9899  -22.6530  -16.1321 C   0  0  0  0  0  0  0  0  0  0  0  0
   29.2032  -23.9921  -16.6909 C   0  0  0  0  0  0  0  0  0  0  0  0
   28.2464  -24.6056  -17.2851 O   0  0  0  0  0  0  0  0  0  0  0  0
   30.4434  -24.7022  -16.6242 N   0  0  0  0  0  0  0  0  0  0  0  0
   31.6419  -24.0567  -16.1485 C   0  0  0  0  0  0  0  0  0  0  0  0
   32.7762  -25.0280  -16.4164 C   0  0  0  0  0  0  0  0  0  0  0  0
   32.0714  -26.3515  -16.3685 C   0  0  0  0  0  0  0  0  0  0  0  0
   30.7334  -26.0498  -16.9704 C   0  0  1  0  0  0  0  0  0  0  0  0
   29.7209  -27.0459  -16.5374 C   0  0  0  0  0  0  0  0  0  0  0  0
   29.1839  -26.9375  -15.4329 O   0  0  0  0  0  0  0  0  0  0  0  0
   27.2911  -28.8250  -19.3090 C   0  0  0  0  0  0  0  0  0  0  0  0
   27.0951  -28.8455  -17.8164 C   0  0  2  0  0  0  0  0  0  0  0  0
   26.4094  -27.5793  -17.3547 C   0  0  0  0  0  0  0  0  0  0  0  0
   28.3890  -29.0870  -17.0759 C   0  0  2  0  0  0  0  0  0  0  0  0
   29.3852  -28.1066  -17.3974 N   0  0  0  0  0  0  0  0  0  0  0  0
   28.8438  -30.4669  -17.3931 C   0  0  0  0  0  0  0  0  0  0  0  0
   28.5625  -31.4877  -16.5060 O   0  0  0  0  0  0  0  0  0  0  0  0
   29.4792  -30.7625  -18.4382 O   0  0  0  0  0  0  0  0  0  0  0  0
  2  1  1  0
  3  4  2  0
  3  2  1  0
  5  3  1  0
  6  5  1  0
  7  6  1  0
  8  7  1  0
  8  9  1  0
  9  5  1  0
  9 10  1  1
 10 16  1  0
 11 10  2  0
 13 12  1  6
 13 15  1  0
 14 13  1  0
 15 16  1  6
 17 15  1  0
 18 17  1  0
 19 17  2  0
M  END
$$$$
