GPV.pdb
     RDKit          3D

 19 19  0  0  1  0  0  0  0  0999 V2000
   26.9766  -18.9772  -17.6997 N   0  0  0  0  0  0  0  0  0  0  0  0
   27.6022  -18.6738  -16.4617 C   0  0  0  0  0  0  0  0  0  0  0  0
   27.2644  -19.5414  -15.3284 C   0  0  0  0  0  0  0  0  0  0  0  0
   26.0506  -19.9056  -15.1312 O   0  0  0  0  0  0  0  0  0  0  0  0
   28.2176  -20.0355  -14.3829 N   0  0  0  0  0  0  0  0  0  0  0  0
   29.6336  -19.9263  -14.6326 C   0  0  0  0  0  0  0  0  0  0  0  0
   30.3152  -20.7313  -13.5420 C   0  0  0  0  0  0  0  0  0  0  0  0
   29.3221  -20.6415  -12.4211 C   0  0  0  0  0  0  0  0  0  0  0  0
   28.0023  -20.6688  -13.1289 C   0  0  1  0  0  0  0  0  0  0  0  0
   26.9382  -20.0631  -12.2889 C   0  0  0  0  0  0  0  0  0  0  0  0
   26.8261  -18.8369  -12.2270 O   0  0  0  0  0  0  0  0  0  0  0  0
   23.4063  -22.2084  -11.2043 C   0  0  0  0  0  0  0  0  0  0  0  0
   23.6629  -20.7252  -11.1716 C   0  0  2  0  0  0  0  0  0  0  0  0
   23.3792  -20.1086  -12.5229 C   0  0  0  0  0  0  0  0  0  0  0  0
   25.0551  -20.3993  -10.6854 C   0  0  2  0  0  0  0  0  0  0  0  0
   26.0663  -20.9004  -11.5704 N   0  0  0  0  0  0  0  0  0  0  0  0
   25.1970  -20.9487   -9.3107 C   0  0  0  0  0  0  0  0  0  0  0  0
   24.5292  -20.3343   -8.2694 O   0  0  0  0  0  0  0  0  0  0  0  0
   25.9005  -21.9557   -9.0377 O   0  0  0  0  0  0  0  0  0  0  0  0
  2  1  1  0
  3  4  2  0
  3  2  1  0
  5  3  1  0
  6  5  1  0
  7  6  1  0
  8  7  1  0
  8  9  1  0
  9  5  1  0
  9 10  1  1
 10 16  1  0
 11 10  2  0
 13 12  1  6
 13 15  1  0
 14 13  1  0
 15 16  1  6
 17 15  1  0
 18 17  1  0
 19 17  2  0
M  END
$$$$
