TEG.pdb
     RDKit          3D

 21 20  0  0  1  0  0  0  0  0999 V2000
    8.9296  -13.4580   16.1030 C   0  0  0  0  0  0  0  0  0  0  0  0
    9.1446  -13.9218   17.5259 C   0  0  1  0  0  0  0  0  0  0  0  0
   10.0714  -13.0938   18.1073 O   0  0  0  0  0  0  0  0  0  0  0  0
    7.8598  -14.0455   18.2920 C   0  0  2  0  0  0  0  0  0  0  0  0
    7.2682  -12.7139   18.3808 N   0  0  0  0  0  0  0  0  0  0  0  0
    8.0304  -14.5978   19.6500 C   0  0  0  0  0  0  0  0  0  0  0  0
    8.0665  -13.8570   20.6890 O   0  0  0  0  0  0  0  0  0  0  0  0
    8.1652  -15.9897   19.8859 N   0  0  0  0  0  0  0  0  0  0  0  0
    8.3557  -16.5524   21.2033 C   0  0  1  0  0  0  0  0  0  0  0  0
    8.1291  -18.0486   21.1507 C   0  0  0  0  0  0  0  0  0  0  0  0
    6.6943  -18.3877   20.8566 C   0  0  0  0  0  0  0  0  0  0  0  0
    6.5944  -19.8536   20.6350 C   0  0  0  0  0  0  0  0  0  0  0  0
    6.1025  -20.3242   19.5737 O   0  0  0  0  0  0  0  0  0  0  0  0
    9.7198  -16.2977   21.7284 C   0  0  0  0  0  0  0  0  0  0  0  0
   10.7188  -16.3530   20.9658 O   0  0  0  0  0  0  0  0  0  0  0  0
    7.0497  -20.7595   21.6112 O   0  0  0  0  0  0  0  0  0  0  0  0
    9.9872  -15.9820   23.0924 N   0  0  0  0  0  0  0  0  0  0  0  0
   11.2845  -15.5429   23.5271 C   0  0  0  0  0  0  0  0  0  0  0  0
   12.1213  -16.6600   24.0275 C   0  0  0  0  0  0  0  0  0  0  0  0
   11.6566  -17.8242   23.9208 O   0  0  0  0  0  0  0  0  0  0  0  0
   13.3656  -16.5032   24.5973 O   0  0  0  0  0  0  0  0  0  0  0  0
  2  1  1  6
  3  2  1  0
  4  5  1  1
  4  2  1  0
  6  4  1  0
  6  7  2  0
  8  6  1  0
  9  8  1  0
  9 14  1  0
  9 10  1  6
 11 10  1  0
 12 11  1  0
 13 12  2  0
 14 17  1  0
 15 14  2  0
 16 12  1  0
 17 18  1  0
 19 21  1  0
 19 18  1  0
 20 19  2  0
M  END
$$$$
