TEG.pdb
     RDKit          3D

 21 20  0  0  1  0  0  0  0  0999 V2000
    8.5470  -12.4341   19.4747 C   0  0  0  0  0  0  0  0  0  0  0  0
    7.9630  -13.4149   18.4833 C   0  0  1  0  0  0  0  0  0  0  0  0
    7.9688  -12.8225   17.2457 O   0  0  0  0  0  0  0  0  0  0  0  0
    8.6396  -14.7539   18.5305 C   0  0  2  0  0  0  0  0  0  0  0  0
    8.0856  -15.5674   17.4524 N   0  0  0  0  0  0  0  0  0  0  0  0
    8.4680  -15.4597   19.8152 C   0  0  0  0  0  0  0  0  0  0  0  0
    7.3917  -16.0762   20.1173 O   0  0  0  0  0  0  0  0  0  0  0  0
    9.4907  -15.4971   20.7969 N   0  0  0  0  0  0  0  0  0  0  0  0
    9.3447  -16.1772   22.0637 C   0  0  1  0  0  0  0  0  0  0  0  0
    9.0762  -17.6472   21.8195 C   0  0  0  0  0  0  0  0  0  0  0  0
    9.9567  -18.2050   20.7360 C   0  0  0  0  0  0  0  0  0  0  0  0
    9.5381  -19.6047   20.4652 C   0  0  0  0  0  0  0  0  0  0  0  0
    9.8016  -20.5359   21.2736 O   0  0  0  0  0  0  0  0  0  0  0  0
   10.5573  -16.0509   22.9092 C   0  0  0  0  0  0  0  0  0  0  0  0
   10.6757  -16.7292   23.9621 O   0  0  0  0  0  0  0  0  0  0  0  0
    8.8322  -19.9282   19.2914 O   0  0  0  0  0  0  0  0  0  0  0  0
   11.6411  -15.1788   22.5982 N   0  0  0  0  0  0  0  0  0  0  0  0
   12.9697  -15.6754   22.3679 C   0  0  0  0  0  0  0  0  0  0  0  0
   13.5681  -16.2754   23.5847 C   0  0  0  0  0  0  0  0  0  0  0  0
   12.7901  -16.8504   24.3891 O   0  0  0  0  0  0  0  0  0  0  0  0
   14.9117  -16.2423   23.8863 O   0  0  0  0  0  0  0  0  0  0  0  0
  2  1  1  1
  3  2  1  0
  4  5  1  6
  4  2  1  0
  6  4  1  0
  6  7  2  0
  8  6  1  0
  9  8  1  0
  9 14  1  0
  9 10  1  6
 11 10  1  0
 12 11  1  0
 13 12  2  0
 14 17  1  0
 15 14  2  0
 16 12  1  0
 17 18  1  0
 19 21  1  0
 19 18  1  0
 20 19  2  0
M  END
$$$$
