TEG.pdb
     RDKit          3D

 21 20  0  0  1  0  0  0  0  0999 V2000
    7.4961  -12.3072   19.2666 C   0  0  0  0  0  0  0  0  0  0  0  0
    8.0582  -13.6852   18.9992 C   0  0  1  0  0  0  0  0  0  0  0  0
    8.5887  -13.6895   17.7339 O   0  0  0  0  0  0  0  0  0  0  0  0
    9.0086  -14.1374   20.0693 C   0  0  2  0  0  0  0  0  0  0  0  0
    9.6043  -15.3952   19.6285 N   0  0  0  0  0  0  0  0  0  0  0  0
    8.3700  -14.3321   21.3855 C   0  0  0  0  0  0  0  0  0  0  0  0
    7.7177  -13.4046   21.9720 O   0  0  0  0  0  0  0  0  0  0  0  0
    8.4413  -15.5649   22.0827 N   0  0  0  0  0  0  0  0  0  0  0  0
    7.9138  -15.7501   23.4153 C   0  0  1  0  0  0  0  0  0  0  0  0
    7.0581  -16.9988   23.4505 C   0  0  0  0  0  0  0  0  0  0  0  0
    6.7602  -17.5127   22.0694 C   0  0  0  0  0  0  0  0  0  0  0  0
    6.0559  -18.8150   22.1950 C   0  0  0  0  0  0  0  0  0  0  0  0
    6.6358  -19.9024   21.9282 O   0  0  0  0  0  0  0  0  0  0  0  0
    8.9890  -15.8836   24.4289 C   0  0  0  0  0  0  0  0  0  0  0  0
    8.7062  -15.9963   25.6496 O   0  0  0  0  0  0  0  0  0  0  0  0
    4.7145  -18.8675   22.6178 O   0  0  0  0  0  0  0  0  0  0  0  0
   10.3763  -15.8932   24.1017 N   0  0  0  0  0  0  0  0  0  0  0  0
   11.3924  -15.9567   25.1158 C   0  0  0  0  0  0  0  0  0  0  0  0
   11.7801  -17.3504   25.4415 C   0  0  0  0  0  0  0  0  0  0  0  0
   11.2134  -18.2734   24.8014 O   0  0  0  0  0  0  0  0  0  0  0  0
   12.7144  -17.6941   26.3936 O   0  0  0  0  0  0  0  0  0  0  0  0
  2  1  1  1
  3  2  1  0
  4  5  1  6
  4  2  1  0
  6  4  1  0
  6  7  2  0
  8  6  1  0
  9  8  1  0
  9 14  1  0
  9 10  1  6
 11 10  1  0
 12 11  1  0
 13 12  2  0
 14 17  1  0
 15 14  2  0
 16 12  1  0
 17 18  1  0
 19 21  1  0
 19 18  1  0
 20 19  2  0
M  END
$$$$
