TEG.pdb
     RDKit          3D

 21 20  0  0  1  0  0  0  0  0999 V2000
    6.8726  -14.7296   17.2528 C   0  0  0  0  0  0  0  0  0  0  0  0
    7.7733  -13.5884   17.6682 C   0  0  1  0  0  0  0  0  0  0  0  0
    7.1035  -12.4132   17.4383 O   0  0  0  0  0  0  0  0  0  0  0  0
    8.2890  -13.7419   19.0694 C   0  0  2  0  0  0  0  0  0  0  0  0
    8.9536  -12.4946   19.4349 N   0  0  0  0  0  0  0  0  0  0  0  0
    9.2309  -14.8660   19.2344 C   0  0  0  0  0  0  0  0  0  0  0  0
    8.9446  -16.0559   18.8714 O   0  0  0  0  0  0  0  0  0  0  0  0
   10.5164  -14.6939   19.8080 N   0  0  0  0  0  0  0  0  0  0  0  0
   11.4089  -15.7949   20.0903 C   0  0  1  0  0  0  0  0  0  0  0  0
   12.8375  -15.3665   19.8289 C   0  0  0  0  0  0  0  0  0  0  0  0
   13.0862  -15.1071   18.3691 C   0  0  0  0  0  0  0  0  0  0  0  0
   14.5240  -14.7784   18.1891 C   0  0  0  0  0  0  0  0  0  0  0  0
   14.8927  -13.6320   17.8153 O   0  0  0  0  0  0  0  0  0  0  0  0
   11.3018  -16.2552   21.4968 C   0  0  0  0  0  0  0  0  0  0  0  0
   11.8202  -17.3443   21.8540 O   0  0  0  0  0  0  0  0  0  0  0  0
   15.5171  -15.7454   18.4332 O   0  0  0  0  0  0  0  0  0  0  0  0
   10.6248  -15.5185   22.5120 N   0  0  0  0  0  0  0  0  0  0  0  0
   10.4761  -16.0303   23.8465 C   0  0  0  0  0  0  0  0  0  0  0  0
   11.7408  -15.9724   24.6185 C   0  0  0  0  0  0  0  0  0  0  0  0
   12.7652  -15.5528   24.0207 O   0  0  0  0  0  0  0  0  0  0  0  0
   11.8623  -16.3464   25.9387 O   0  0  0  0  0  0  0  0  0  0  0  0
  2  1  1  1
  3  2  1  0
  4  5  1  6
  4  2  1  0
  6  4  1  0
  6  7  2  0
  8  6  1  0
  9  8  1  0
  9 14  1  0
  9 10  1  1
 11 10  1  0
 12 11  1  0
 13 12  2  0
 14 17  1  0
 15 14  2  0
 16 12  1  0
 17 18  1  0
 19 21  1  0
 19 18  1  0
 20 19  2  0
M  END
$$$$
