TEG.pdb
     RDKit          3D

 21 20  0  0  1  0  0  0  0  0999 V2000
    7.7328  -11.6340   20.2106 C   0  0  0  0  0  0  0  0  0  0  0  0
    8.5224  -12.9219   20.2738 C   0  0  1  0  0  0  0  0  0  0  0  0
    7.8121  -13.8190   21.0309 O   0  0  0  0  0  0  0  0  0  0  0  0
    8.9078  -13.4289   18.9147 C   0  0  2  0  0  0  0  0  0  0  0  0
    7.6777  -13.6502   18.1604 N   0  0  0  0  0  0  0  0  0  0  0  0
    9.6934  -14.6778   18.9489 C   0  0  0  0  0  0  0  0  0  0  0  0
    9.2107  -15.7988   18.5746 O   0  0  0  0  0  0  0  0  0  0  0  0
   11.0372  -14.7105   19.4008 N   0  0  0  0  0  0  0  0  0  0  0  0
   11.8264  -15.9204   19.4443 C   0  0  1  0  0  0  0  0  0  0  0  0
   13.0960  -15.7240   18.6430 C   0  0  0  0  0  0  0  0  0  0  0  0
   13.7581  -14.4109   18.9557 C   0  0  0  0  0  0  0  0  0  0  0  0
   15.0109  -14.3163   18.1623 C   0  0  0  0  0  0  0  0  0  0  0  0
   15.8543  -15.2536   18.1545 O   0  0  0  0  0  0  0  0  0  0  0  0
   12.1946  -16.2985   20.8309 C   0  0  0  0  0  0  0  0  0  0  0  0
   12.7269  -17.4131   21.0695 O   0  0  0  0  0  0  0  0  0  0  0  0
   15.2892  -13.1700   17.3946 O   0  0  0  0  0  0  0  0  0  0  0  0
   11.9779  -15.4516   21.9568 N   0  0  0  0  0  0  0  0  0  0  0  0
   12.2611  -15.8870   23.2966 C   0  0  0  0  0  0  0  0  0  0  0  0
   13.7141  -16.0518   23.5426 C   0  0  0  0  0  0  0  0  0  0  0  0
   14.0765  -16.3071   24.7199 O   0  0  0  0  0  0  0  0  0  0  0  0
   14.6833  -15.9434   22.5698 O   0  0  0  0  0  0  0  0  0  0  0  0
  2  1  1  6
  3  2  1  0
  4  5  1  6
  4  2  1  0
  6  4  1  0
  6  7  2  0
  8  6  1  0
  9  8  1  0
  9 14  1  0
  9 10  1  6
 11 10  1  0
 12 11  1  0
 13 12  2  0
 14 17  1  0
 15 14  2  0
 16 12  1  0
 17 18  1  0
 19 21  1  0
 19 18  1  0
 20 19  2  0
M  END
$$$$
