TEG.pdb
     RDKit          3D

 21 20  0  0  1  0  0  0  0  0999 V2000
    7.3559  -12.0070   18.9548 C   0  0  0  0  0  0  0  0  0  0  0  0
    8.4578  -12.9500   19.3823 C   0  0  1  0  0  0  0  0  0  0  0  0
    7.9562  -13.7754   20.3568 O   0  0  0  0  0  0  0  0  0  0  0  0
    9.0815  -13.6707   18.2228 C   0  0  2  0  0  0  0  0  0  0  0  0
    8.0298  -14.4369   17.5611 N   0  0  0  0  0  0  0  0  0  0  0  0
   10.1793  -14.5779   18.6101 C   0  0  0  0  0  0  0  0  0  0  0  0
   10.0248  -15.8427   18.6880 O   0  0  0  0  0  0  0  0  0  0  0  0
   11.4778  -14.0998   18.9207 N   0  0  0  0  0  0  0  0  0  0  0  0
   12.5461  -14.9578   19.3802 C   0  0  1  0  0  0  0  0  0  0  0  0
   13.8405  -14.5587   18.7036 C   0  0  0  0  0  0  0  0  0  0  0  0
   14.9637  -15.4979   19.0448 C   0  0  0  0  0  0  0  0  0  0  0  0
   16.1669  -15.0903   18.2741 C   0  0  0  0  0  0  0  0  0  0  0  0
   17.2786  -15.6607   18.4439 O   0  0  0  0  0  0  0  0  0  0  0  0
   12.7350  -14.8778   20.8496 C   0  0  0  0  0  0  0  0  0  0  0  0
   12.9550  -13.7713   21.4063 O   0  0  0  0  0  0  0  0  0  0  0  0
   16.0951  -14.0501   17.3287 O   0  0  0  0  0  0  0  0  0  0  0  0
   12.6821  -16.0140   21.7087 N   0  0  0  0  0  0  0  0  0  0  0  0
   12.7816  -15.8882   23.1366 C   0  0  0  0  0  0  0  0  0  0  0  0
   12.8433  -17.2041   23.8174 C   0  0  0  0  0  0  0  0  0  0  0  0
   12.6955  -18.2312   23.1061 O   0  0  0  0  0  0  0  0  0  0  0  0
   13.0508  -17.3700   25.1690 O   0  0  0  0  0  0  0  0  0  0  0  0
  2  1  1  6
  3  2  1  0
  4  5  1  1
  4  2  1  0
  6  4  1  0
  6  7  2  0
  8  6  1  0
  9  8  1  0
  9 14  1  0
  9 10  1  6
 11 10  1  0
 12 11  1  0
 13 12  2  0
 14 17  1  0
 15 14  2  0
 16 12  1  0
 17 18  1  0
 19 21  1  0
 19 18  1  0
 20 19  2  0
M  END
$$$$
