TEG.pdb
     RDKit          3D

 21 20  0  0  1  0  0  0  0  0999 V2000
   11.6680  -19.4478   18.6336 C   0  0  0  0  0  0  0  0  0  0  0  0
   10.2866  -20.0580   18.7084 C   0  0  1  0  0  0  0  0  0  0  0  0
    9.3759  -19.0915   18.3635 O   0  0  0  0  0  0  0  0  0  0  0  0
   10.1729  -21.3260   17.9134 C   0  0  2  0  0  0  0  0  0  0  0  0
    8.7654  -21.7129   17.8973 N   0  0  0  0  0  0  0  0  0  0  0  0
   10.9809  -22.4376   18.4518 C   0  0  0  0  0  0  0  0  0  0  0  0
   10.4542  -23.4511   19.0219 O   0  0  0  0  0  0  0  0  0  0  0  0
   12.3965  -22.4491   18.3690 N   0  0  0  0  0  0  0  0  0  0  0  0
   13.2145  -23.4755   18.9740 C   0  0  1  0  0  0  0  0  0  0  0  0
   14.0458  -24.1536   17.9055 C   0  0  0  0  0  0  0  0  0  0  0  0
   14.8629  -23.1655   17.1204 C   0  0  0  0  0  0  0  0  0  0  0  0
   15.6545  -23.9108   16.1076 C   0  0  0  0  0  0  0  0  0  0  0  0
   15.1284  -24.3243   15.0388 O   0  0  0  0  0  0  0  0  0  0  0  0
   14.1269  -22.9267   20.0073 C   0  0  0  0  0  0  0  0  0  0  0  0
   15.3151  -23.3316   20.0909 O   0  0  0  0  0  0  0  0  0  0  0  0
   17.0208  -24.1754   16.3175 O   0  0  0  0  0  0  0  0  0  0  0  0
   13.7342  -21.9321   20.9498 N   0  0  0  0  0  0  0  0  0  0  0  0
   14.3663  -21.8161   22.2350 C   0  0  0  0  0  0  0  0  0  0  0  0
   15.5158  -20.8796   22.2174 C   0  0  0  0  0  0  0  0  0  0  0  0
   16.4664  -21.1446   21.4371 O   0  0  0  0  0  0  0  0  0  0  0  0
   15.6064  -19.7469   22.9961 O   0  0  0  0  0  0  0  0  0  0  0  0
  2  1  1  6
  3  2  1  0
  4  5  1  1
  4  2  1  0
  6  4  1  0
  6  7  2  0
  8  6  1  0
  9  8  1  0
  9 14  1  0
  9 10  1  6
 11 10  1  0
 12 11  1  0
 13 12  2  0
 14 17  1  0
 15 14  2  0
 16 12  1  0
 17 18  1  0
 19 21  1  0
 19 18  1  0
 20 19  2  0
M  END
$$$$
