TEG.pdb
     RDKit          3D

 21 20  0  0  1  0  0  0  0  0999 V2000
    8.9665  -12.2374   20.1729 C   0  0  0  0  0  0  0  0  0  0  0  0
    8.1102  -13.0707   19.2463 C   0  0  1  0  0  0  0  0  0  0  0  0
    7.4380  -12.2180   18.4074 O   0  0  0  0  0  0  0  0  0  0  0  0
    8.8944  -14.1395   18.5423 C   0  0  2  0  0  0  0  0  0  0  0  0
    7.9910  -14.8106   17.6125 N   0  0  0  0  0  0  0  0  0  0  0  0
    9.4888  -15.1362   19.4541 C   0  0  0  0  0  0  0  0  0  0  0  0
    8.8751  -16.2028   19.7937 O   0  0  0  0  0  0  0  0  0  0  0  0
   10.7823  -14.9707   20.0114 N   0  0  0  0  0  0  0  0  0  0  0  0
   11.4409  -15.9910   20.7949 C   0  0  1  0  0  0  0  0  0  0  0  0
   12.8767  -16.1322   20.3353 C   0  0  0  0  0  0  0  0  0  0  0  0
   13.6274  -17.1501   21.1479 C   0  0  0  0  0  0  0  0  0  0  0  0
   15.0398  -17.1699   20.6867 C   0  0  0  0  0  0  0  0  0  0  0  0
   15.9571  -16.6267   21.3601 O   0  0  0  0  0  0  0  0  0  0  0  0
   11.4362  -15.6732   22.2442 C   0  0  0  0  0  0  0  0  0  0  0  0
   11.7111  -14.5128   22.6449 O   0  0  0  0  0  0  0  0  0  0  0  0
   15.3912  -17.7998   19.4782 O   0  0  0  0  0  0  0  0  0  0  0  0
   11.1293  -16.6307   23.2544 N   0  0  0  0  0  0  0  0  0  0  0  0
   11.1338  -16.2865   24.6495 C   0  0  0  0  0  0  0  0  0  0  0  0
   10.9263  -17.4661   25.5238 C   0  0  0  0  0  0  0  0  0  0  0  0
   10.6276  -18.5539   24.9669 O   0  0  0  0  0  0  0  0  0  0  0  0
   11.0395  -17.4446   26.8965 O   0  0  0  0  0  0  0  0  0  0  0  0
  2  1  1  6
  3  2  1  0
  4  5  1  6
  4  2  1  0
  6  4  1  0
  6  7  2  0
  8  6  1  0
  9  8  1  0
  9 14  1  0
  9 10  1  6
 11 10  1  0
 12 11  1  0
 13 12  2  0
 14 17  1  0
 15 14  2  0
 16 12  1  0
 17 18  1  0
 19 21  1  0
 19 18  1  0
 20 19  2  0
M  END
$$$$
