TEG.pdb
     RDKit          3D

 21 20  0  0  1  0  0  0  0  0999 V2000
    7.3274  -12.6280   19.8015 C   0  0  0  0  0  0  0  0  0  0  0  0
    8.0211  -13.5055   20.8188 C   0  0  1  0  0  0  0  0  0  0  0  0
    7.3887  -13.3393   22.0250 O   0  0  0  0  0  0  0  0  0  0  0  0
    8.1295  -14.9336   20.3696 C   0  0  2  0  0  0  0  0  0  0  0  0
    6.7796  -15.4110   20.0849 N   0  0  0  0  0  0  0  0  0  0  0  0
    8.7640  -15.8210   21.3636 C   0  0  0  0  0  0  0  0  0  0  0  0
    8.0841  -16.5591   22.1527 O   0  0  0  0  0  0  0  0  0  0  0  0
   10.1723  -15.9094   21.5044 N   0  0  0  0  0  0  0  0  0  0  0  0
   10.8177  -16.7985   22.4434 C   0  0  1  0  0  0  0  0  0  0  0  0
   12.2861  -16.9208   22.0951 C   0  0  0  0  0  0  0  0  0  0  0  0
   13.0237  -17.7900   23.0753 C   0  0  0  0  0  0  0  0  0  0  0  0
   14.4394  -17.8955   22.6364 C   0  0  0  0  0  0  0  0  0  0  0  0
   14.9419  -19.0032   22.3041 O   0  0  0  0  0  0  0  0  0  0  0  0
   10.7007  -16.3159   23.8415 C   0  0  0  0  0  0  0  0  0  0  0  0
   10.6409  -15.0840   24.0895 O   0  0  0  0  0  0  0  0  0  0  0  0
   15.2602  -16.7536   22.5802 O   0  0  0  0  0  0  0  0  0  0  0  0
   10.6493  -17.1871   24.9686 N   0  0  0  0  0  0  0  0  0  0  0  0
   10.4658  -16.6874   26.3033 C   0  0  0  0  0  0  0  0  0  0  0  0
   10.3131  -17.7758   27.2986 C   0  0  0  0  0  0  0  0  0  0  0  0
   10.3306  -18.9586   26.8702 O   0  0  0  0  0  0  0  0  0  0  0  0
   10.1547  -17.5737   28.6520 O   0  0  0  0  0  0  0  0  0  0  0  0
  2  1  1  6
  3  2  1  0
  4  5  1  1
  4  2  1  0
  6  4  1  0
  6  7  2  0
  8  6  1  0
  9  8  1  0
  9 14  1  0
  9 10  1  6
 11 10  1  0
 12 11  1  0
 13 12  2  0
 14 17  1  0
 15 14  2  0
 16 12  1  0
 17 18  1  0
 19 21  1  0
 19 18  1  0
 20 19  2  0
M  END
$$$$
