TEG.pdb
     RDKit          3D

 21 20  0  0  1  0  0  0  0  0999 V2000
   -4.6073  -27.1354   26.9674 C   0  0  0  0  0  0  0  0  0  0  0  0
   -3.7282  -26.4315   25.9585 C   0  0  1  0  0  0  0  0  0  0  0  0
   -3.2430  -27.3737   25.0871 O   0  0  0  0  0  0  0  0  0  0  0  0
   -4.4215  -25.2765   25.2966 C   0  0  2  0  0  0  0  0  0  0  0  0
   -3.5109  -24.7294   24.2953 N   0  0  0  0  0  0  0  0  0  0  0  0
   -4.8192  -24.2080   26.2337 C   0  0  0  0  0  0  0  0  0  0  0  0
   -4.0536  -23.2257   26.5141 O   0  0  0  0  0  0  0  0  0  0  0  0
   -6.0800  -24.2058   26.8828 N   0  0  0  0  0  0  0  0  0  0  0  0
   -6.4560  -23.2238   27.8743 C   0  0  1  0  0  0  0  0  0  0  0  0
   -7.9643  -23.0971   27.9126 C   0  0  0  0  0  0  0  0  0  0  0  0
   -8.4128  -22.0356   28.8782 C   0  0  0  0  0  0  0  0  0  0  0  0
   -9.3087  -22.6638   29.8835 C   0  0  0  0  0  0  0  0  0  0  0  0
  -10.3763  -23.2406   29.5407 O   0  0  0  0  0  0  0  0  0  0  0  0
   -5.9760  -23.5864   29.2306 C   0  0  0  0  0  0  0  0  0  0  0  0
   -5.9263  -22.7219   30.1432 O   0  0  0  0  0  0  0  0  0  0  0  0
   -8.9856  -22.6304   31.2529 O   0  0  0  0  0  0  0  0  0  0  0  0
   -5.5503  -24.8997   29.5851 N   0  0  0  0  0  0  0  0  0  0  0  0
   -5.1521  -25.2299   30.9257 C   0  0  0  0  0  0  0  0  0  0  0  0
   -6.2266  -25.9172   31.6818 C   0  0  0  0  0  0  0  0  0  0  0  0
   -7.3435  -26.0421   31.1161 O   0  0  0  0  0  0  0  0  0  0  0  0
   -6.0789  -26.4232   32.9544 O   0  0  0  0  0  0  0  0  0  0  0  0
  2  1  1  1
  3  2  1  0
  4  5  1  6
  4  2  1  0
  6  4  1  0
  6  7  2  0
  8  6  1  0
  9  8  1  0
  9 14  1  0
  9 10  1  1
 11 10  1  0
 12 11  1  0
 13 12  2  0
 14 17  1  0
 15 14  2  0
 16 12  1  0
 17 18  1  0
 19 21  1  0
 19 18  1  0
 20 19  2  0
M  END
$$$$
