TEG.pdb
     RDKit          3D

 21 20  0  0  1  0  0  0  0  0999 V2000
    8.6805  -12.8333   20.8441 C   0  0  0  0  0  0  0  0  0  0  0  0
    7.7440  -13.3224   19.7625 C   0  0  1  0  0  0  0  0  0  0  0  0
    7.2356  -12.2259   19.1130 O   0  0  0  0  0  0  0  0  0  0  0  0
    8.3862  -14.3336   18.8581 C   0  0  2  0  0  0  0  0  0  0  0  0
    7.3695  -14.7937   17.9171 N   0  0  0  0  0  0  0  0  0  0  0  0
    8.9528  -15.4934   19.5737 C   0  0  0  0  0  0  0  0  0  0  0  0
    8.2645  -16.5355   19.8383 O   0  0  0  0  0  0  0  0  0  0  0  0
   10.3009  -15.5226   20.0130 N   0  0  0  0  0  0  0  0  0  0  0  0
   10.8710  -16.6350   20.7384 C   0  0  1  0  0  0  0  0  0  0  0  0
   12.2585  -16.9262   20.2069 C   0  0  0  0  0  0  0  0  0  0  0  0
   12.8279  -18.1895   20.7900 C   0  0  0  0  0  0  0  0  0  0  0  0
   14.1830  -18.4012   20.2184 C   0  0  0  0  0  0  0  0  0  0  0  0
   15.2039  -18.4603   20.9561 O   0  0  0  0  0  0  0  0  0  0  0  0
   10.9681  -16.3628   22.1936 C   0  0  0  0  0  0  0  0  0  0  0  0
   11.8414  -15.5746   22.6395 O   0  0  0  0  0  0  0  0  0  0  0  0
   14.3619  -18.5419   18.8295 O   0  0  0  0  0  0  0  0  0  0  0  0
   10.1054  -16.9568   23.1604 N   0  0  0  0  0  0  0  0  0  0  0  0
   10.5508  -18.0170   24.0220 C   0  0  0  0  0  0  0  0  0  0  0  0
   11.5779  -17.5645   24.9910 C   0  0  0  0  0  0  0  0  0  0  0  0
   12.5749  -16.9492   24.5327 O   0  0  0  0  0  0  0  0  0  0  0  0
   11.5084  -17.7744   26.3507 O   0  0  0  0  0  0  0  0  0  0  0  0
  2  1  1  1
  3  2  1  0
  4  5  1  6
  4  2  1  0
  6  4  1  0
  6  7  2  0
  8  6  1  0
  9  8  1  0
  9 14  1  0
  9 10  1  6
 11 10  1  0
 12 11  1  0
 13 12  2  0
 14 17  1  0
 15 14  2  0
 16 12  1  0
 17 18  1  0
 19 21  1  0
 19 18  1  0
 20 19  2  0
M  END
$$$$
