TEG.pdb
     RDKit          3D

 21 20  0  0  1  0  0  0  0  0999 V2000
    8.2378  -12.8816   20.6943 C   0  0  0  0  0  0  0  0  0  0  0  0
    7.7358  -13.5997   19.4621 C   0  0  1  0  0  0  0  0  0  0  0  0
    7.4366  -12.6556   18.5125 O   0  0  0  0  0  0  0  0  0  0  0  0
    8.6791  -14.6694   18.9941 C   0  0  2  0  0  0  0  0  0  0  0  0
    8.1099  -15.2640   17.7885 N   0  0  0  0  0  0  0  0  0  0  0  0
    8.9200  -15.7265   19.9955 C   0  0  0  0  0  0  0  0  0  0  0  0
    8.1831  -16.7652   20.0829 O   0  0  0  0  0  0  0  0  0  0  0  0
    9.9882  -15.6541   20.9254 N   0  0  0  0  0  0  0  0  0  0  0  0
   10.2044  -16.6417   21.9581 C   0  0  1  0  0  0  0  0  0  0  0  0
   11.6912  -16.8242   22.1787 C   0  0  0  0  0  0  0  0  0  0  0  0
   12.3375  -17.5743   21.0474 C   0  0  0  0  0  0  0  0  0  0  0  0
   13.7829  -17.7316   21.3536 C   0  0  0  0  0  0  0  0  0  0  0  0
   14.1985  -18.6639   22.0939 O   0  0  0  0  0  0  0  0  0  0  0  0
    9.5785  -16.2511   23.2453 C   0  0  0  0  0  0  0  0  0  0  0  0
    9.7063  -16.9776   24.2644 O   0  0  0  0  0  0  0  0  0  0  0  0
   14.7306  -16.8377   20.8212 O   0  0  0  0  0  0  0  0  0  0  0  0
    8.8115  -15.0615   23.4136 N   0  0  0  0  0  0  0  0  0  0  0  0
    8.2638  -14.6885   24.6886 C   0  0  0  0  0  0  0  0  0  0  0  0
    7.5629  -13.3826   24.6429 C   0  0  0  0  0  0  0  0  0  0  0  0
    7.1494  -12.9091   25.7326 O   0  0  0  0  0  0  0  0  0  0  0  0
    7.3384  -12.6619   23.4906 O   0  0  0  0  0  0  0  0  0  0  0  0
  2  1  1  1
  3  2  1  0
  4  5  1  6
  4  2  1  0
  6  4  1  0
  6  7  2  0
  8  6  1  0
  9  8  1  0
  9 14  1  0
  9 10  1  1
 11 10  1  0
 12 11  1  0
 13 12  2  0
 14 17  1  0
 15 14  2  0
 16 12  1  0
 17 18  1  0
 19 21  1  0
 19 18  1  0
 20 19  2  0
M  END
$$$$
