TEG.pdb
     RDKit          3D

 21 20  0  0  1  0  0  0  0  0999 V2000
    8.2934  -11.9639   26.4271 C   0  0  0  0  0  0  0  0  0  0  0  0
    6.8367  -12.2881   26.6701 C   0  0  1  0  0  0  0  0  0  0  0  0
    6.2075  -11.1385   27.0764 O   0  0  0  0  0  0  0  0  0  0  0  0
    6.1925  -12.9624   25.4940 C   0  0  2  0  0  0  0  0  0  0  0  0
    4.7711  -13.1092   25.7926 N   0  0  0  0  0  0  0  0  0  0  0  0
    6.7670  -14.2855   25.1815 C   0  0  0  0  0  0  0  0  0  0  0  0
    6.3537  -15.3580   25.7369 O   0  0  0  0  0  0  0  0  0  0  0  0
    7.8169  -14.4482   24.2421 N   0  0  0  0  0  0  0  0  0  0  0  0
    8.4987  -15.7046   24.0298 C   0  0  1  0  0  0  0  0  0  0  0  0
    9.3740  -15.6022   22.7986 C   0  0  0  0  0  0  0  0  0  0  0  0
    8.5772  -15.7435   21.5315 C   0  0  0  0  0  0  0  0  0  0  0  0
    9.5157  -16.0337   20.4167 C   0  0  0  0  0  0  0  0  0  0  0  0
    9.9388  -17.2022   20.2033 O   0  0  0  0  0  0  0  0  0  0  0  0
    9.3488  -16.0819   25.1858 C   0  0  0  0  0  0  0  0  0  0  0  0
   10.0715  -15.2235   25.7547 O   0  0  0  0  0  0  0  0  0  0  0  0
    9.9588  -15.0043   19.5654 O   0  0  0  0  0  0  0  0  0  0  0  0
    9.4055  -17.4031   25.7176 N   0  0  0  0  0  0  0  0  0  0  0  0
    9.9921  -17.6779   27.0002 C   0  0  0  0  0  0  0  0  0  0  0  0
   11.3537  -18.2543   26.8875 C   0  0  0  0  0  0  0  0  0  0  0  0
   11.9054  -18.2193   25.7574 O   0  0  0  0  0  0  0  0  0  0  0  0
   12.0460  -18.8210   27.9349 O   0  0  0  0  0  0  0  0  0  0  0  0
  2  1  1  6
  3  2  1  0
  4  5  1  1
  4  2  1  0
  6  4  1  0
  6  7  2  0
  8  6  1  0
  9  8  1  0
  9 14  1  0
  9 10  1  6
 11 10  1  0
 12 11  1  0
 13 12  2  0
 14 17  1  0
 15 14  2  0
 16 12  1  0
 17 18  1  0
 19 21  1  0
 19 18  1  0
 20 19  2  0
M  END
$$$$
