AEF.pdb
     RDKit          3D

 26 26  0  0  1  0  0  0  0  0999 V2000
    6.8006  -13.2592   19.4007 C   0  0  0  0  0  0  0  0  0  0  0  0
    8.1635  -13.3150   20.0490 C   0  0  2  0  0  0  0  0  0  0  0  0
    9.1985  -13.5727   19.0741 N   0  0  0  0  0  0  0  0  0  0  0  0
    8.1796  -14.4237   21.0386 C   0  0  0  0  0  0  0  0  0  0  0  0
    7.2638  -14.5133   21.8961 O   0  0  0  0  0  0  0  0  0  0  0  0
    9.2284  -15.4035   21.0361 N   0  0  0  0  0  0  0  0  0  0  0  0
    9.0993  -16.5243   21.9416 C   0  0  1  0  0  0  0  0  0  0  0  0
    9.9542  -17.7020   21.5385 C   0  0  0  0  0  0  0  0  0  0  0  0
    9.7099  -18.8968   22.4315 C   0  0  0  0  0  0  0  0  0  0  0  0
   10.5788  -20.0250   22.0270 C   0  0  0  0  0  0  0  0  0  0  0  0
   10.2026  -20.9749   21.2870 O   0  0  0  0  0  0  0  0  0  0  0  0
    9.3963  -16.1047   23.3465 C   0  0  0  0  0  0  0  0  0  0  0  0
   10.4993  -15.5396   23.5746 O   0  0  0  0  0  0  0  0  0  0  0  0
   11.8885  -20.0604   22.4768 O   0  0  0  0  0  0  0  0  0  0  0  0
    8.4447  -16.3490   24.3701 N   0  0  0  0  0  0  0  0  0  0  0  0
    8.7145  -15.9593   25.7576 C   0  0  1  0  0  0  0  0  0  0  0  0
    7.4336  -15.4087   26.2990 C   0  0  0  0  0  0  0  0  0  0  0  0
    7.3315  -13.9536   26.3403 C   0  0  0  0  0  0  0  0  0  0  0  0
    8.4525  -13.1500   26.5032 C   0  0  0  0  0  0  0  0  0  0  0  0
    8.2915  -11.7831   26.5366 C   0  0  0  0  0  0  0  0  0  0  0  0
    7.0513  -11.1939   26.4131 C   0  0  0  0  0  0  0  0  0  0  0  0
    5.9250  -12.0070   26.2492 C   0  0  0  0  0  0  0  0  0  0  0  0
    6.0746  -13.3760   26.2143 C   0  0  0  0  0  0  0  0  0  0  0  0
    9.2078  -17.1403   26.4647 C   0  0  0  0  0  0  0  0  0  0  0  0
    9.9254  -16.9780   27.6357 O   0  0  0  0  0  0  0  0  0  0  0  0
    9.0024  -18.2983   26.0449 O   0  0  0  0  0  0  0  0  0  0  0  0
  2  4  1  0
  2  1  1  6
  3  2  1  0
  4  5  2  0
  6  7  1  0
  6  4  1  0
  7  8  1  6
  8  9  1  0
  9 10  1  0
 10 14  1  0
 11 10  2  0
 12 13  2  0
 12  7  1  0
 15 12  1  0
 16 24  1  0
 16 15  1  0
 16 17  1  1
 18 23  2  0
 18 17  1  0
 19 18  1  0
 20 21  1  0
 20 19  2  0
 21 22  2  0
 22 23  1  0
 24 25  1  0
 26 24  2  0
M  END
$$$$
