AEF.pdb
     RDKit          3D

 26 26  0  0  1  0  0  0  0  0999 V2000
    8.0586  -12.2310   20.2313 C   0  0  0  0  0  0  0  0  0  0  0  0
    8.0004  -13.6200   19.6411 C   0  0  2  0  0  0  0  0  0  0  0  0
    6.7258  -13.8681   19.0072 N   0  0  0  0  0  0  0  0  0  0  0  0
    8.1701  -14.6135   20.7334 C   0  0  0  0  0  0  0  0  0  0  0  0
    7.1606  -15.1600   21.2475 O   0  0  0  0  0  0  0  0  0  0  0  0
    9.4743  -14.9654   21.2184 N   0  0  0  0  0  0  0  0  0  0  0  0
    9.5916  -16.1720   22.0080 C   0  0  1  0  0  0  0  0  0  0  0  0
   10.6748  -17.0960   21.5047 C   0  0  0  0  0  0  0  0  0  0  0  0
   10.6883  -18.4018   22.2657 C   0  0  0  0  0  0  0  0  0  0  0  0
   11.7933  -19.2626   21.7868 C   0  0  0  0  0  0  0  0  0  0  0  0
   12.9671  -18.8514   21.5758 O   0  0  0  0  0  0  0  0  0  0  0  0
    9.8008  -15.8399   23.4515 C   0  0  0  0  0  0  0  0  0  0  0  0
   10.8339  -15.1902   23.7654 O   0  0  0  0  0  0  0  0  0  0  0  0
   11.5461  -20.6047   21.5492 O   0  0  0  0  0  0  0  0  0  0  0  0
    8.8469  -16.2573   24.4152 N   0  0  0  0  0  0  0  0  0  0  0  0
    9.0284  -15.9490   25.8371 C   0  0  1  0  0  0  0  0  0  0  0  0
    7.6756  -15.5981   26.3699 C   0  0  0  0  0  0  0  0  0  0  0  0
    7.3054  -14.1888   26.2928 C   0  0  0  0  0  0  0  0  0  0  0  0
    6.0465  -13.7897   25.8624 C   0  0  0  0  0  0  0  0  0  0  0  0
    5.7576  -12.4447   25.8091 C   0  0  0  0  0  0  0  0  0  0  0  0
    6.6817  -11.4876   26.1703 C   0  0  0  0  0  0  0  0  0  0  0  0
    7.9483  -11.8939   26.6032 C   0  0  0  0  0  0  0  0  0  0  0  0
    8.2482  -13.2372   26.6605 C   0  0  0  0  0  0  0  0  0  0  0  0
    9.6407  -17.1153   26.4718 C   0  0  0  0  0  0  0  0  0  0  0  0
   10.3113  -16.9595   27.6713 O   0  0  0  0  0  0  0  0  0  0  0  0
    9.5789  -18.2548   25.9648 O   0  0  0  0  0  0  0  0  0  0  0  0
  2  4  1  0
  2  1  1  1
  3  2  1  0
  4  5  2  0
  6  7  1  0
  6  4  1  0
  7  8  1  6
  8  9  1  0
  9 10  1  0
 10 14  1  0
 11 10  2  0
 12 13  2  0
 12  7  1  0
 15 12  1  0
 16 24  1  0
 16 15  1  0
 16 17  1  1
 18 23  2  0
 18 17  1  0
 19 18  1  0
 20 21  1  0
 20 19  2  0
 21 22  2  0
 22 23  1  0
 24 25  1  0
 26 24  2  0
M  END
$$$$
