AEF.pdb
     RDKit          3D

 26 26  0  0  1  0  0  0  0  0999 V2000
    6.9979  -13.0862   19.2990 C   0  0  0  0  0  0  0  0  0  0  0  0
    8.4001  -13.6193   19.4734 C   0  0  2  0  0  0  0  0  0  0  0  0
    8.7968  -14.4320   18.3464 N   0  0  0  0  0  0  0  0  0  0  0  0
    8.4421  -14.4714   20.6903 C   0  0  0  0  0  0  0  0  0  0  0  0
    8.0827  -13.9999   21.7996 O   0  0  0  0  0  0  0  0  0  0  0  0
    8.8886  -15.8339   20.6253 N   0  0  0  0  0  0  0  0  0  0  0  0
    8.7455  -16.6426   21.8164 C   0  0  1  0  0  0  0  0  0  0  0  0
    9.0381  -18.1032   21.5689 C   0  0  0  0  0  0  0  0  0  0  0  0
    7.8474  -18.8136   20.9672 C   0  0  0  0  0  0  0  0  0  0  0  0
    8.2220  -20.1865   20.5597 C   0  0  0  0  0  0  0  0  0  0  0  0
    8.3358  -20.5599   19.3601 O   0  0  0  0  0  0  0  0  0  0  0  0
    9.5976  -16.1072   22.9232 C   0  0  0  0  0  0  0  0  0  0  0  0
   10.7810  -15.7716   22.6496 O   0  0  0  0  0  0  0  0  0  0  0  0
    8.4672  -21.1356   21.5385 O   0  0  0  0  0  0  0  0  0  0  0  0
    9.0613  -15.9920   24.2316 N   0  0  0  0  0  0  0  0  0  0  0  0
    9.9022  -15.5683   25.3556 C   0  0  1  0  0  0  0  0  0  0  0  0
    9.8467  -14.0739   25.3855 C   0  0  0  0  0  0  0  0  0  0  0  0
    8.5762  -13.4909   25.8043 C   0  0  0  0  0  0  0  0  0  0  0  0
    7.4988  -13.3920   24.9334 C   0  0  0  0  0  0  0  0  0  0  0  0
    6.3268  -12.8298   25.3869 C   0  0  0  0  0  0  0  0  0  0  0  0
    6.1955  -12.3644   26.6779 C   0  0  0  0  0  0  0  0  0  0  0  0
    7.2830  -12.4660   27.5517 C   0  0  0  0  0  0  0  0  0  0  0  0
    8.4606  -13.0268   27.1084 C   0  0  0  0  0  0  0  0  0  0  0  0
    9.3901  -16.2133   26.5638 C   0  0  0  0  0  0  0  0  0  0  0  0
    8.2764  -17.0286   26.4761 O   0  0  0  0  0  0  0  0  0  0  0  0
    9.9270  -16.0522   27.6797 O   0  0  0  0  0  0  0  0  0  0  0  0
  2  4  1  0
  2  1  1  6
  3  2  1  0
  4  5  2  0
  6  7  1  0
  6  4  1  0
  7  8  1  6
  8  9  1  0
  9 10  1  0
 10 14  1  0
 11 10  2  0
 12 13  2  0
 12  7  1  0
 15 12  1  0
 16 24  1  0
 16 15  1  0
 16 17  1  1
 18 23  2  0
 18 17  1  0
 19 18  1  0
 20 21  1  0
 20 19  2  0
 21 22  2  0
 22 23  1  0
 24 25  1  0
 26 24  2  0
M  END
$$$$
