AEF.pdb
     RDKit          3D

 26 26  0  0  1  0  0  0  0  0999 V2000
    7.9665  -12.2717   20.3168 C   0  0  0  0  0  0  0  0  0  0  0  0
    8.0953  -13.5806   19.5745 C   0  0  2  0  0  0  0  0  0  0  0  0
    6.9414  -13.8267   18.7402 N   0  0  0  0  0  0  0  0  0  0  0  0
    8.1902  -14.6862   20.5632 C   0  0  0  0  0  0  0  0  0  0  0  0
    7.1527  -15.3030   20.9168 O   0  0  0  0  0  0  0  0  0  0  0  0
    9.4532  -15.0680   21.1282 N   0  0  0  0  0  0  0  0  0  0  0  0
    9.4788  -16.2359   21.9816 C   0  0  1  0  0  0  0  0  0  0  0  0
   10.5432  -17.2290   21.5802 C   0  0  0  0  0  0  0  0  0  0  0  0
   10.3930  -17.6505   20.1364 C   0  0  0  0  0  0  0  0  0  0  0  0
   11.4758  -18.5874   19.7608 C   0  0  0  0  0  0  0  0  0  0  0  0
   12.5893  -18.2264   19.2905 O   0  0  0  0  0  0  0  0  0  0  0  0
    9.6325  -15.8385   23.4156 C   0  0  0  0  0  0  0  0  0  0  0  0
   10.5767  -15.0599   23.7158 O   0  0  0  0  0  0  0  0  0  0  0  0
   11.2762  -19.9480   19.9276 O   0  0  0  0  0  0  0  0  0  0  0  0
    8.7265  -16.3393   24.3857 N   0  0  0  0  0  0  0  0  0  0  0  0
    8.8572  -15.9712   25.7990 C   0  0  1  0  0  0  0  0  0  0  0  0
    7.4919  -15.5698   26.2594 C   0  0  0  0  0  0  0  0  0  0  0  0
    7.2075  -14.1387   26.2410 C   0  0  0  0  0  0  0  0  0  0  0  0
    8.1683  -13.2013   26.5974 C   0  0  0  0  0  0  0  0  0  0  0  0
    7.8388  -11.8651   26.5622 C   0  0  0  0  0  0  0  0  0  0  0  0
    6.5847  -11.4352   26.1839 C   0  0  0  0  0  0  0  0  0  0  0  0
    5.6200  -12.3826   25.8257 C   0  0  0  0  0  0  0  0  0  0  0  0
    5.9390  -13.7224   25.8574 C   0  0  0  0  0  0  0  0  0  0  0  0
    9.4177  -17.1199   26.5091 C   0  0  0  0  0  0  0  0  0  0  0  0
    9.6159  -18.3068   25.8274 O   0  0  0  0  0  0  0  0  0  0  0  0
    9.7256  -17.0661   27.7182 O   0  0  0  0  0  0  0  0  0  0  0  0
  2  4  1  0
  2  1  1  1
  3  2  1  0
  4  5  2  0
  6  7  1  0
  6  4  1  0
  7  8  1  6
  8  9  1  0
  9 10  1  0
 10 14  1  0
 11 10  2  0
 12 13  2  0
 12  7  1  0
 15 12  1  0
 16 24  1  0
 16 15  1  0
 16 17  1  1
 18 23  2  0
 18 17  1  0
 19 18  1  0
 20 21  1  0
 20 19  2  0
 21 22  2  0
 22 23  1  0
 24 25  1  0
 26 24  2  0
M  END
$$$$
