AEF.pdb
     RDKit          3D

 26 26  0  0  1  0  0  0  0  0999 V2000
    7.2020  -13.4209   18.3589 C   0  0  0  0  0  0  0  0  0  0  0  0
    8.5676  -13.5232   18.9957 C   0  0  2  0  0  0  0  0  0  0  0  0
    9.5709  -13.9044   18.0281 N   0  0  0  0  0  0  0  0  0  0  0  0
    8.5282  -14.5687   20.0513 C   0  0  0  0  0  0  0  0  0  0  0  0
    7.6496  -14.5208   20.9500 O   0  0  0  0  0  0  0  0  0  0  0  0
    9.4810  -15.6420   20.0665 N   0  0  0  0  0  0  0  0  0  0  0  0
    9.3898  -16.6026   21.1444 C   0  0  1  0  0  0  0  0  0  0  0  0
   10.3210  -17.7770   20.9602 C   0  0  0  0  0  0  0  0  0  0  0  0
    9.9119  -18.6303   19.7816 C   0  0  0  0  0  0  0  0  0  0  0  0
   10.8863  -19.7262   19.5796 C   0  0  0  0  0  0  0  0  0  0  0  0
   11.7824  -19.7185   18.6916 O   0  0  0  0  0  0  0  0  0  0  0  0
    9.6224  -15.9383   22.4644 C   0  0  0  0  0  0  0  0  0  0  0  0
   10.7020  -15.3093   22.6282 O   0  0  0  0  0  0  0  0  0  0  0  0
   10.8295  -20.8376   20.4044 O   0  0  0  0  0  0  0  0  0  0  0  0
    8.6383  -16.0311   23.4822 N   0  0  0  0  0  0  0  0  0  0  0  0
    8.6963  -15.1687   24.6666 C   0  0  1  0  0  0  0  0  0  0  0  0
    7.5726  -14.1907   24.5331 C   0  0  0  0  0  0  0  0  0  0  0  0
    7.3546  -13.3095   25.6756 C   0  0  0  0  0  0  0  0  0  0  0  0
    8.3390  -12.4355   26.1186 C   0  0  0  0  0  0  0  0  0  0  0  0
    8.0742  -11.6307   27.2037 C   0  0  0  0  0  0  0  0  0  0  0  0
    6.8621  -11.6698   27.8594 C   0  0  0  0  0  0  0  0  0  0  0  0
    5.8735  -12.5514   27.4100 C   0  0  0  0  0  0  0  0  0  0  0  0
    6.1278  -13.3613   26.3250 C   0  0  0  0  0  0  0  0  0  0  0  0
    8.6098  -16.0265   25.8476 C   0  0  0  0  0  0  0  0  0  0  0  0
    8.1044  -17.3074   25.7187 O   0  0  0  0  0  0  0  0  0  0  0  0
    8.9787  -15.6399   26.9762 O   0  0  0  0  0  0  0  0  0  0  0  0
  2  4  1  0
  2  1  1  6
  3  2  1  0
  4  5  2  0
  6  7  1  0
  6  4  1  0
  7  8  1  6
  8  9  1  0
  9 10  1  0
 10 14  1  0
 11 10  2  0
 12 13  2  0
 12  7  1  0
 15 12  1  0
 16 24  1  0
 16 15  1  0
 16 17  1  6
 18 23  2  0
 18 17  1  0
 19 18  1  0
 20 21  1  0
 20 19  2  0
 21 22  2  0
 22 23  1  0
 24 25  1  0
 26 24  2  0
M  END
$$$$
