AEF.pdb
     RDKit          3D

 26 26  0  0  1  0  0  0  0  0999 V2000
    7.9256  -12.3429   20.5838 C   0  0  0  0  0  0  0  0  0  0  0  0
    7.9795  -13.6518   19.8322 C   0  0  2  0  0  0  0  0  0  0  0  0
    6.7343  -13.9162   19.1483 N   0  0  0  0  0  0  0  0  0  0  0  0
    8.2124  -14.7535   20.8023 C   0  0  0  0  0  0  0  0  0  0  0  0
    7.2352  -15.3182   21.3574 O   0  0  0  0  0  0  0  0  0  0  0  0
    9.5418  -15.1901   21.1218 N   0  0  0  0  0  0  0  0  0  0  0  0
    9.6781  -16.3356   21.9950 C   0  0  1  0  0  0  0  0  0  0  0  0
   10.8866  -17.1794   21.6666 C   0  0  0  0  0  0  0  0  0  0  0  0
   10.8174  -17.7236   20.2581 C   0  0  0  0  0  0  0  0  0  0  0  0
   12.0407  -18.4969   19.9469 C   0  0  0  0  0  0  0  0  0  0  0  0
   12.8810  -18.1637   19.0669 O   0  0  0  0  0  0  0  0  0  0  0  0
    9.6992  -15.9072   23.4282 C   0  0  0  0  0  0  0  0  0  0  0  0
   10.4954  -14.9883   23.7593 O   0  0  0  0  0  0  0  0  0  0  0  0
   12.2988  -19.6605   20.6527 O   0  0  0  0  0  0  0  0  0  0  0  0
    8.8367  -16.5352   24.3633 N   0  0  0  0  0  0  0  0  0  0  0  0
    8.8527  -16.1515   25.7783 C   0  0  1  0  0  0  0  0  0  0  0  0
    7.4540  -15.7499   26.1235 C   0  0  0  0  0  0  0  0  0  0  0  0
    7.2106  -14.3152   26.2327 C   0  0  0  0  0  0  0  0  0  0  0  0
    8.0497  -13.4888   26.9689 C   0  0  0  0  0  0  0  0  0  0  0  0
    7.7660  -12.1434   27.0361 C   0  0  0  0  0  0  0  0  0  0  0  0
    6.6750  -11.5973   26.3942 C   0  0  0  0  0  0  0  0  0  0  0  0
    5.8326  -12.4332   25.6538 C   0  0  0  0  0  0  0  0  0  0  0  0
    6.1070  -13.7811   25.5798 C   0  0  0  0  0  0  0  0  0  0  0  0
    9.3575  -17.2905   26.5437 C   0  0  0  0  0  0  0  0  0  0  0  0
    9.8455  -17.0852   27.8213 O   0  0  0  0  0  0  0  0  0  0  0  0
    9.3636  -18.4502   26.0804 O   0  0  0  0  0  0  0  0  0  0  0  0
  2  4  1  0
  2  1  1  1
  3  2  1  0
  4  5  2  0
  6  7  1  0
  6  4  1  0
  7  8  1  6
  8  9  1  0
  9 10  1  0
 10 14  1  0
 11 10  2  0
 12 13  2  0
 12  7  1  0
 15 12  1  0
 16 24  1  0
 16 15  1  0
 16 17  1  1
 18 23  2  0
 18 17  1  0
 19 18  1  0
 20 21  1  0
 20 19  2  0
 21 22  2  0
 22 23  1  0
 24 25  1  0
 26 24  2  0
M  END
$$$$
