AEF.pdb
     RDKit          3D

 26 26  0  0  1  0  0  0  0  0999 V2000
    7.7751  -12.2842   20.6461 C   0  0  0  0  0  0  0  0  0  0  0  0
    7.9589  -13.6132   19.9526 C   0  0  2  0  0  0  0  0  0  0  0  0
    6.7648  -14.0018   19.2375 N   0  0  0  0  0  0  0  0  0  0  0  0
    8.2397  -14.6541   20.9756 C   0  0  0  0  0  0  0  0  0  0  0  0
    7.2946  -15.3237   21.4658 O   0  0  0  0  0  0  0  0  0  0  0  0
    9.5797  -14.9133   21.4199 N   0  0  0  0  0  0  0  0  0  0  0  0
    9.8114  -16.1249   22.1758 C   0  0  1  0  0  0  0  0  0  0  0  0
   10.9673  -16.9354   21.6396 C   0  0  0  0  0  0  0  0  0  0  0  0
   11.0198  -18.3096   22.2667 C   0  0  0  0  0  0  0  0  0  0  0  0
   12.1492  -19.0855   21.7068 C   0  0  0  0  0  0  0  0  0  0  0  0
   12.9844  -19.7208   22.4071 O   0  0  0  0  0  0  0  0  0  0  0  0
   10.0049  -15.8132   23.6261 C   0  0  0  0  0  0  0  0  0  0  0  0
   10.9261  -15.0135   23.9417 O   0  0  0  0  0  0  0  0  0  0  0  0
   12.3188  -19.1309   20.3327 O   0  0  0  0  0  0  0  0  0  0  0  0
    9.1603  -16.4154   24.5941 N   0  0  0  0  0  0  0  0  0  0  0  0
    9.2222  -16.0123   26.0025 C   0  0  1  0  0  0  0  0  0  0  0  0
    7.8278  -15.6438   26.3985 C   0  0  0  0  0  0  0  0  0  0  0  0
    7.4534  -14.2486   26.1917 C   0  0  0  0  0  0  0  0  0  0  0  0
    8.2015  -13.2076   26.7263 C   0  0  0  0  0  0  0  0  0  0  0  0
    7.7959  -11.9120   26.4983 C   0  0  0  0  0  0  0  0  0  0  0  0
    6.6709  -11.6222   25.7560 C   0  0  0  0  0  0  0  0  0  0  0  0
    5.9204  -12.6736   25.2194 C   0  0  0  0  0  0  0  0  0  0  0  0
    6.3172  -13.9740   25.4414 C   0  0  0  0  0  0  0  0  0  0  0  0
    9.7879  -17.1270   26.7610 C   0  0  0  0  0  0  0  0  0  0  0  0
   10.0371  -18.3261   26.1186 O   0  0  0  0  0  0  0  0  0  0  0  0
   10.0556  -17.0332   27.9772 O   0  0  0  0  0  0  0  0  0  0  0  0
  2  4  1  0
  2  1  1  1
  3  2  1  0
  4  5  2  0
  6  7  1  0
  6  4  1  0
  7  8  1  6
  8  9  1  0
  9 10  1  0
 10 14  1  0
 11 10  2  0
 12 13  2  0
 12  7  1  0
 15 12  1  0
 16 24  1  0
 16 15  1  0
 16 17  1  1
 18 23  2  0
 18 17  1  0
 19 18  1  0
 20 21  1  0
 20 19  2  0
 21 22  2  0
 22 23  1  0
 24 25  1  0
 26 24  2  0
M  END
$$$$
