AEF.pdb
     RDKit          3D

 26 26  0  0  1  0  0  0  0  0999 V2000
    6.9835  -13.4578   19.2507 C   0  0  0  0  0  0  0  0  0  0  0  0
    8.2394  -13.3951   20.0872 C   0  0  2  0  0  0  0  0  0  0  0  0
    9.4211  -13.5680   19.2738 N   0  0  0  0  0  0  0  0  0  0  0  0
    8.2061  -14.4945   21.0867 C   0  0  0  0  0  0  0  0  0  0  0  0
    7.1912  -14.6525   21.8126 O   0  0  0  0  0  0  0  0  0  0  0  0
    9.3187  -15.3878   21.2423 N   0  0  0  0  0  0  0  0  0  0  0  0
    9.1678  -16.4896   22.1677 C   0  0  1  0  0  0  0  0  0  0  0  0
    9.9924  -17.6941   21.7807 C   0  0  0  0  0  0  0  0  0  0  0  0
    9.9895  -17.9113   20.2849 C   0  0  0  0  0  0  0  0  0  0  0  0
   11.2309  -18.5995   19.8647 C   0  0  0  0  0  0  0  0  0  0  0  0
   11.2553  -19.7252   19.2958 O   0  0  0  0  0  0  0  0  0  0  0  0
    9.4822  -16.0532   23.5636 C   0  0  0  0  0  0  0  0  0  0  0  0
   10.5327  -15.3831   23.7516 O   0  0  0  0  0  0  0  0  0  0  0  0
   12.4516  -17.9887   20.1006 O   0  0  0  0  0  0  0  0  0  0  0  0
    8.6044  -16.3983   24.6235 N   0  0  0  0  0  0  0  0  0  0  0  0
    8.9017  -16.0074   26.0050 C   0  0  1  0  0  0  0  0  0  0  0  0
    7.6152  -15.5216   26.5932 C   0  0  0  0  0  0  0  0  0  0  0  0
    7.3527  -14.0922   26.4610 C   0  0  0  0  0  0  0  0  0  0  0  0
    6.1529  -13.6172   25.9474 C   0  0  0  0  0  0  0  0  0  0  0  0
    5.9654  -12.2572   25.8454 C   0  0  0  0  0  0  0  0  0  0  0  0
    6.9340  -11.3582   26.2382 C   0  0  0  0  0  0  0  0  0  0  0  0
    8.1408  -11.8408   26.7549 C   0  0  0  0  0  0  0  0  0  0  0  0
    8.3391  -13.1999   26.8615 C   0  0  0  0  0  0  0  0  0  0  0  0
    9.4725  -17.1695   26.6845 C   0  0  0  0  0  0  0  0  0  0  0  0
   10.0926  -17.0010   27.9092 O   0  0  0  0  0  0  0  0  0  0  0  0
    9.4194  -18.3166   26.1938 O   0  0  0  0  0  0  0  0  0  0  0  0
  2  4  1  0
  2  1  1  6
  3  2  1  0
  4  5  2  0
  6  7  1  0
  6  4  1  0
  7  8  1  6
  8  9  1  0
  9 10  1  0
 10 14  1  0
 11 10  2  0
 12 13  2  0
 12  7  1  0
 15 12  1  0
 16 24  1  0
 16 15  1  0
 16 17  1  1
 18 23  2  0
 18 17  1  0
 19 18  1  0
 20 21  1  0
 20 19  2  0
 21 22  2  0
 22 23  1  0
 24 25  1  0
 26 24  2  0
M  END
$$$$
