AEF.pdb
     RDKit          3D

 26 26  0  0  1  0  0  0  0  0999 V2000
    8.1830  -12.4556   19.6104 C   0  0  0  0  0  0  0  0  0  0  0  0
    8.2926  -13.7995   18.9301 C   0  0  2  0  0  0  0  0  0  0  0  0
    7.1270  -14.0754   18.1219 N   0  0  0  0  0  0  0  0  0  0  0  0
    8.3905  -14.8574   19.9695 C   0  0  0  0  0  0  0  0  0  0  0  0
    7.3463  -15.3101   20.5048 O   0  0  0  0  0  0  0  0  0  0  0  0
    9.6640  -15.3778   20.3788 N   0  0  0  0  0  0  0  0  0  0  0  0
    9.6708  -16.4065   21.3960 C   0  0  1  0  0  0  0  0  0  0  0  0
   10.8160  -17.3777   21.2364 C   0  0  0  0  0  0  0  0  0  0  0  0
   10.7354  -18.1198   19.9221 C   0  0  0  0  0  0  0  0  0  0  0  0
   11.8983  -19.0233   19.7716 C   0  0  0  0  0  0  0  0  0  0  0  0
   12.5252  -19.1918   18.6899 O   0  0  0  0  0  0  0  0  0  0  0  0
    9.6734  -15.7974   22.7624 C   0  0  0  0  0  0  0  0  0  0  0  0
   10.5021  -14.8780   22.9988 O   0  0  0  0  0  0  0  0  0  0  0  0
   12.3426  -19.7371   20.8724 O   0  0  0  0  0  0  0  0  0  0  0  0
    8.7581  -16.2621   23.7418 N   0  0  0  0  0  0  0  0  0  0  0  0
    8.6384  -15.5902   25.0396 C   0  0  1  0  0  0  0  0  0  0  0  0
    7.2533  -15.0289   25.0991 C   0  0  0  0  0  0  0  0  0  0  0  0
    7.0873  -13.8238   25.9050 C   0  0  0  0  0  0  0  0  0  0  0  0
    8.0867  -13.3767   26.7597 C   0  0  0  0  0  0  0  0  0  0  0  0
    7.8697  -12.2339   27.4960 C   0  0  0  0  0  0  0  0  0  0  0  0
    6.6908  -11.5247   27.4073 C   0  0  0  0  0  0  0  0  0  0  0  0
    5.6870  -11.9784   26.5453 C   0  0  0  0  0  0  0  0  0  0  0  0
    5.8935  -13.1209   25.8038 C   0  0  0  0  0  0  0  0  0  0  0  0
    8.9338  -16.5740   26.0801 C   0  0  0  0  0  0  0  0  0  0  0  0
    8.6787  -17.9118   25.8394 O   0  0  0  0  0  0  0  0  0  0  0  0
    9.4113  -16.2459   27.1864 O   0  0  0  0  0  0  0  0  0  0  0  0
  2  4  1  0
  2  1  1  1
  3  2  1  0
  4  5  2  0
  6  7  1  0
  6  4  1  0
  7  8  1  6
  8  9  1  0
  9 10  1  0
 10 14  1  0
 11 10  2  0
 12 13  2  0
 12  7  1  0
 15 12  1  0
 16 24  1  0
 16 15  1  0
 16 17  1  1
 18 23  2  0
 18 17  1  0
 19 18  1  0
 20 21  1  0
 20 19  2  0
 21 22  2  0
 22 23  1  0
 24 25  1  0
 26 24  2  0
M  END
$$$$
