AEF.pdb
     RDKit          3D

 26 26  0  0  1  0  0  0  0  0999 V2000
   14.4520  -18.7868   25.4193 C   0  0  0  0  0  0  0  0  0  0  0  0
   13.4021  -19.3120   24.4692 C   0  0  2  0  0  0  0  0  0  0  0  0
   13.9761  -19.6488   23.1866 N   0  0  0  0  0  0  0  0  0  0  0  0
   12.3802  -18.2551   24.2507 C   0  0  0  0  0  0  0  0  0  0  0  0
   12.4052  -17.2050   24.9426 O   0  0  0  0  0  0  0  0  0  0  0  0
   11.3559  -18.4094   23.2572 N   0  0  0  0  0  0  0  0  0  0  0  0
   10.4496  -17.3005   23.0527 C   0  0  1  0  0  0  0  0  0  0  0  0
    9.8183  -17.3078   21.6809 C   0  0  0  0  0  0  0  0  0  0  0  0
   10.8104  -16.9125   20.6113 C   0  0  0  0  0  0  0  0  0  0  0  0
   10.1603  -16.9201   19.2814 C   0  0  0  0  0  0  0  0  0  0  0  0
    8.9899  -17.3413   19.0709 O   0  0  0  0  0  0  0  0  0  0  0  0
    9.4037  -17.2696   24.1219 C   0  0  0  0  0  0  0  0  0  0  0  0
    9.0554  -18.3639   24.6406 O   0  0  0  0  0  0  0  0  0  0  0  0
   10.8610  -16.4402   18.1871 O   0  0  0  0  0  0  0  0  0  0  0  0
    8.8394  -16.0299   24.5189 N   0  0  0  0  0  0  0  0  0  0  0  0
    7.8714  -15.9607   25.6180 C   0  0  1  0  0  0  0  0  0  0  0  0
    8.0070  -14.5964   26.2158 C   0  0  0  0  0  0  0  0  0  0  0  0
    9.1258  -14.4105   27.1340 C   0  0  0  0  0  0  0  0  0  0  0  0
    9.9897  -15.4516   27.4485 C   0  0  0  0  0  0  0  0  0  0  0  0
   11.0257  -15.2145   28.3236 C   0  0  0  0  0  0  0  0  0  0  0  0
   11.2271  -13.9754   28.8934 C   0  0  0  0  0  0  0  0  0  0  0  0
   10.3549  -12.9297   28.5738 C   0  0  0  0  0  0  0  0  0  0  0  0
    9.3147  -13.1558   27.6993 C   0  0  0  0  0  0  0  0  0  0  0  0
    6.5481  -16.2462   25.0655 C   0  0  0  0  0  0  0  0  0  0  0  0
    5.5020  -16.5289   25.9249 O   0  0  0  0  0  0  0  0  0  0  0  0
    6.3282  -16.2439   23.8362 O   0  0  0  0  0  0  0  0  0  0  0  0
  2  4  1  0
  2  1  1  1
  3  2  1  0
  4  5  2  0
  6  7  1  0
  6  4  1  0
  7  8  1  6
  8  9  1  0
  9 10  1  0
 10 14  1  0
 11 10  2  0
 12 13  2  0
 12  7  1  0
 15 12  1  0
 16 24  1  0
 16 15  1  0
 16 17  1  6
 18 23  2  0
 18 17  1  0
 19 18  1  0
 20 21  1  0
 20 19  2  0
 21 22  2  0
 22 23  1  0
 24 25  1  0
 26 24  2  0
M  END
$$$$
