AEF.pdb
     RDKit          3D

 26 26  0  0  1  0  0  0  0  0999 V2000
    7.2079  -12.8552   19.1077 C   0  0  0  0  0  0  0  0  0  0  0  0
    8.5931  -13.3635   19.4301 C   0  0  2  0  0  0  0  0  0  0  0  0
    9.1810  -14.0400   18.2967 N   0  0  0  0  0  0  0  0  0  0  0  0
    8.4988  -14.3388   20.5476 C   0  0  0  0  0  0  0  0  0  0  0  0
    8.0079  -13.9847   21.6502 O   0  0  0  0  0  0  0  0  0  0  0  0
    8.9608  -15.6889   20.3932 N   0  0  0  0  0  0  0  0  0  0  0  0
    8.7954  -16.5853   21.5167 C   0  0  1  0  0  0  0  0  0  0  0  0
    9.0526  -18.0286   21.1546 C   0  0  0  0  0  0  0  0  0  0  0  0
    8.9091  -18.9360   22.3548 C   0  0  0  0  0  0  0  0  0  0  0  0
    9.0756  -20.3503   21.9507 C   0  0  0  0  0  0  0  0  0  0  0  0
   10.0696  -21.0611   22.2640 O   0  0  0  0  0  0  0  0  0  0  0  0
    9.6580  -16.1602   22.6626 C   0  0  0  0  0  0  0  0  0  0  0  0
   10.8866  -15.9844   22.4449 O   0  0  0  0  0  0  0  0  0  0  0  0
    8.0922  -20.9506   21.1816 O   0  0  0  0  0  0  0  0  0  0  0  0
    9.0810  -15.9682   23.9444 N   0  0  0  0  0  0  0  0  0  0  0  0
    9.8778  -15.4437   25.0580 C   0  0  1  0  0  0  0  0  0  0  0  0
    9.6436  -13.9668   25.0868 C   0  0  0  0  0  0  0  0  0  0  0  0
    8.3189  -13.5393   25.5249 C   0  0  0  0  0  0  0  0  0  0  0  0
    7.2180  -13.6014   24.6803 C   0  0  0  0  0  0  0  0  0  0  0  0
    5.9945  -13.1812   25.1510 C   0  0  0  0  0  0  0  0  0  0  0  0
    5.8344  -12.7021   26.4338 C   0  0  0  0  0  0  0  0  0  0  0  0
    6.9457  -12.6413   27.2810 C   0  0  0  0  0  0  0  0  0  0  0  0
    8.1749  -13.0593   26.8204 C   0  0  0  0  0  0  0  0  0  0  0  0
    9.4608  -16.1424   26.2728 C   0  0  0  0  0  0  0  0  0  0  0  0
   10.1852  -15.9666   27.4377 O   0  0  0  0  0  0  0  0  0  0  0  0
    8.4666  -16.8978   26.2951 O   0  0  0  0  0  0  0  0  0  0  0  0
  2  4  1  0
  2  1  1  6
  3  2  1  0
  4  5  2  0
  6  7  1  0
  6  4  1  0
  7  8  1  6
  8  9  1  0
  9 10  1  0
 10 14  1  0
 11 10  2  0
 12 13  2  0
 12  7  1  0
 15 12  1  0
 16 24  1  0
 16 15  1  0
 16 17  1  1
 18 23  2  0
 18 17  1  0
 19 18  1  0
 20 21  1  0
 20 19  2  0
 21 22  2  0
 22 23  1  0
 24 25  1  0
 26 24  2  0
M  END
$$$$
