LNE.pdb
     RDKit          3D

 26 25  0  0  1  0  0  0  0  0999 V2000
   28.6445  -10.8694  -16.6674 C   0  0  0  0  0  0  0  0  0  0  0  0
   27.2818  -11.4846  -16.6096 C   0  0  1  0  0  0  0  0  0  0  0  0
   27.1996  -12.2653  -15.2903 C   0  0  0  0  0  0  0  0  0  0  0  0
   26.1611  -10.4963  -16.6013 C   0  0  0  0  0  0  0  0  0  0  0  0
   24.8356  -11.2196  -16.5632 C   0  0  2  0  0  0  0  0  0  0  0  0
   24.7944  -12.0904  -17.7213 N   0  0  0  0  0  0  0  0  0  0  0  0
   23.6898  -10.2904  -16.6680 C   0  0  0  0  0  0  0  0  0  0  0  0
   23.4668   -9.6695  -17.7340 O   0  0  0  0  0  0  0  0  0  0  0  0
   20.2021  -11.2133  -16.9842 N   0  0  0  0  0  0  0  0  0  0  0  0
   19.8200  -10.8483  -15.6731 C   0  0  0  0  0  0  0  0  0  0  0  0
   18.8677  -11.4936  -15.1663 O   0  0  0  0  0  0  0  0  0  0  0  0
   20.4843   -9.7769  -14.9238 C   0  0  0  0  0  0  0  0  0  0  0  0
   21.6717   -9.1792  -15.6446 C   0  0  2  0  0  0  0  0  0  0  0  0
   22.7998  -10.0734  -15.5504 N   0  0  0  0  0  0  0  0  0  0  0  0
   21.9625   -7.8301  -15.1496 C   0  0  0  0  0  0  0  0  0  0  0  0
   22.6395   -7.6946  -14.1006 O   0  0  0  0  0  0  0  0  0  0  0  0
   21.5075   -6.6708  -15.8117 N   0  0  0  0  0  0  0  0  0  0  0  0
   21.8240   -5.3098  -15.3759 C   0  0  1  0  0  0  0  0  0  0  0  0
   22.3947   -4.5167  -16.5140 C   0  0  0  0  0  0  0  0  0  0  0  0
   22.6418   -3.0706  -16.1830 C   0  0  0  0  0  0  0  0  0  0  0  0
   23.1901   -2.3585  -17.4049 C   0  0  0  0  0  0  0  0  0  0  0  0
   23.3876   -2.9407  -18.4809 O   0  0  0  0  0  0  0  0  0  0  0  0
   20.5729   -4.7011  -14.9161 C   0  0  0  0  0  0  0  0  0  0  0  0
   19.4650   -5.0304  -15.3841 O   0  0  0  0  0  0  0  0  0  0  0  0
   23.4606   -1.0089  -17.2510 O   0  0  0  0  0  0  0  0  0  0  0  0
   20.5739   -3.7178  -13.9247 O   0  0  0  0  0  0  0  0  0  0  0  0
  2  1  1  1
  3  2  1  0
  4  5  1  0
  4  2  1  0
  5  6  1  6
  7  5  1  0
  7  8  2  0
  9 10  1  0
 10 11  2  0
 12 10  1  0
 13 12  1  1
 13 14  1  0
 14  7  1  0
 15 17  1  0
 15 13  1  0
 16 15  2  0
 18 17  1  0
 18 19  1  6
 19 20  1  0
 20 21  1  0
 21 22  2  0
 23 18  1  0
 24 23  2  0
 25 21  1  0
 26 23  1  0
M  END
$$$$
