LNE.pdb
     RDKit          3D

 26 25  0  0  1  0  0  0  0  0999 V2000
   28.9902  -19.6263  -13.8398 C   0  0  0  0  0  0  0  0  0  0  0  0
   27.9187  -19.6675  -14.8833 C   0  0  1  0  0  0  0  0  0  0  0  0
   27.3775  -21.1039  -14.9116 C   0  0  0  0  0  0  0  0  0  0  0  0
   26.7566  -18.7697  -14.6068 C   0  0  0  0  0  0  0  0  0  0  0  0
   25.7710  -18.8349  -15.7495 C   0  0  2  0  0  0  0  0  0  0  0  0
   26.5062  -19.2739  -16.9191 N   0  0  0  0  0  0  0  0  0  0  0  0
   25.1918  -17.5106  -16.0630 C   0  0  0  0  0  0  0  0  0  0  0  0
   24.4411  -16.9318  -15.2426 O   0  0  0  0  0  0  0  0  0  0  0  0
   25.3008  -12.3249  -18.4568 N   0  0  0  0  0  0  0  0  0  0  0  0
   25.1311  -13.5767  -19.0912 C   0  0  0  0  0  0  0  0  0  0  0  0
   24.4204  -13.5885  -20.1279 O   0  0  0  0  0  0  0  0  0  0  0  0
   25.7420  -14.8103  -18.5853 C   0  0  0  0  0  0  0  0  0  0  0  0
   24.8328  -15.6097  -17.6791 C   0  0  2  0  0  0  0  0  0  0  0  0
   25.4737  -16.8503  -17.3170 N   0  0  0  0  0  0  0  0  0  0  0  0
   23.5145  -15.7992  -18.2920 C   0  0  0  0  0  0  0  0  0  0  0  0
   23.3319  -16.7718  -19.0651 O   0  0  0  0  0  0  0  0  0  0  0  0
   22.4362  -14.9244  -18.0443 N   0  0  0  0  0  0  0  0  0  0  0  0
   21.0970  -15.1068  -18.6062 C   0  0  1  0  0  0  0  0  0  0  0  0
   20.0941  -15.3109  -17.5096 C   0  0  0  0  0  0  0  0  0  0  0  0
   18.6742  -15.4088  -17.9955 C   0  0  0  0  0  0  0  0  0  0  0  0
   17.8112  -16.0305  -16.9140 C   0  0  0  0  0  0  0  0  0  0  0  0
   18.2418  -16.2732  -15.7776 O   0  0  0  0  0  0  0  0  0  0  0  0
   20.7762  -13.8930  -19.3619 C   0  0  0  0  0  0  0  0  0  0  0  0
   21.3881  -12.8212  -19.1841 O   0  0  0  0  0  0  0  0  0  0  0  0
   16.5031  -16.3148  -17.2693 O   0  0  0  0  0  0  0  0  0  0  0  0
   19.7613  -13.8907  -20.3209 O   0  0  0  0  0  0  0  0  0  0  0  0
  2  1  1  1
  3  2  1  0
  4  5  1  0
  4  2  1  0
  5  6  1  6
  7  5  1  0
  7  8  2  0
  9 10  1  0
 10 11  2  0
 12 10  1  0
 13 12  1  6
 13 14  1  0
 14  7  1  0
 15 17  1  0
 15 13  1  0
 16 15  2  0
 18 17  1  0
 18 19  1  1
 19 20  1  0
 20 21  1  0
 21 22  2  0
 23 18  1  0
 24 23  2  0
 25 21  1  0
 26 23  1  0
M  END
$$$$
