LNE.pdb
     RDKit          3D

 26 25  0  0  1  0  0  0  0  0999 V2000
   42.9467  -16.8152   -9.1519 C   0  0  0  0  0  0  0  0  0  0  0  0
   43.3164  -15.3693   -9.2598 C   0  0  1  0  0  0  0  0  0  0  0  0
   44.0345  -15.1908  -10.6048 C   0  0  0  0  0  0  0  0  0  0  0  0
   42.1500  -14.4353   -9.2616 C   0  0  0  0  0  0  0  0  0  0  0  0
   42.6266  -13.0152   -9.4557 C   0  0  2  0  0  0  0  0  0  0  0  0
   43.5007  -12.7054   -8.3417 N   0  0  0  0  0  0  0  0  0  0  0  0
   41.5118  -12.0436   -9.4261 C   0  0  0  0  0  0  0  0  0  0  0  0
   40.5682  -12.1295  -10.2469 O   0  0  0  0  0  0  0  0  0  0  0  0
   38.8382  -11.7031   -6.7779 N   0  0  0  0  0  0  0  0  0  0  0  0
   39.3570  -10.5085   -6.2283 C   0  0  0  0  0  0  0  0  0  0  0  0
   39.0993  -10.2898   -5.0176 O   0  0  0  0  0  0  0  0  0  0  0  0
   40.1563   -9.5590   -7.0096 C   0  0  0  0  0  0  0  0  0  0  0  0
   40.4098  -10.0061   -8.4318 C   0  0  2  0  0  0  0  0  0  0  0  0
   41.4794  -10.9738   -8.4553 N   0  0  0  0  0  0  0  0  0  0  0  0
   40.6529   -8.8566   -9.3087 C   0  0  0  0  0  0  0  0  0  0  0  0
   41.8352   -8.5111   -9.5532 O   0  0  0  0  0  0  0  0  0  0  0  0
   39.6017   -8.1190   -9.8921 N   0  0  0  0  0  0  0  0  0  0  0  0
   39.8082   -6.9635  -10.7666 C   0  0  1  0  0  0  0  0  0  0  0  0
   38.7362   -6.9031  -11.8139 C   0  0  0  0  0  0  0  0  0  0  0  0
   38.8383   -5.7068  -12.7195 C   0  0  0  0  0  0  0  0  0  0  0  0
   37.6772   -5.7106  -13.6955 C   0  0  0  0  0  0  0  0  0  0  0  0
   37.3888   -4.7250  -14.3893 O   0  0  0  0  0  0  0  0  0  0  0  0
   39.7544   -5.7671   -9.9221 C   0  0  0  0  0  0  0  0  0  0  0  0
   39.0993   -5.7340   -8.8616 O   0  0  0  0  0  0  0  0  0  0  0  0
   36.9498   -6.8868  -13.7698 O   0  0  0  0  0  0  0  0  0  0  0  0
   40.4428   -4.6054  -10.2770 O   0  0  0  0  0  0  0  0  0  0  0  0
  2  1  1  6
  3  2  1  0
  4  5  1  0
  4  2  1  0
  5  6  1  1
  7  5  1  0
  7  8  2  0
  9 10  1  0
 10 11  2  0
 12 10  1  0
 13 12  1  1
 13 14  1  0
 14  7  1  0
 15 17  1  0
 15 13  1  0
 16 15  2  0
 18 17  1  0
 18 19  1  6
 19 20  1  0
 20 21  1  0
 21 22  2  0
 23 18  1  0
 24 23  2  0
 25 21  1  0
 26 23  1  0
M  END
$$$$
