LNE.pdb
     RDKit          3D

 26 25  0  0  1  0  0  0  0  0999 V2000
   12.3973  -12.2045  -11.5070 C   0  0  0  0  0  0  0  0  0  0  0  0
   11.9679  -11.6170  -10.1996 C   0  0  1  0  0  0  0  0  0  0  0  0
   12.3177  -12.6428   -9.1124 C   0  0  0  0  0  0  0  0  0  0  0  0
   12.6646  -10.3453   -9.8388 C   0  0  0  0  0  0  0  0  0  0  0  0
   13.9884  -10.2595  -10.5612 C   0  0  2  0  0  0  0  0  0  0  0  0
   14.9514  -11.0006   -9.7710 N   0  0  0  0  0  0  0  0  0  0  0  0
   14.4786   -8.8679  -10.6640 C   0  0  0  0  0  0  0  0  0  0  0  0
   13.8773   -8.0303  -11.3772 O   0  0  0  0  0  0  0  0  0  0  0  0
   14.5172   -6.6161   -6.8934 N   0  0  0  0  0  0  0  0  0  0  0  0
   15.0803   -6.0286   -8.0493 C   0  0  0  0  0  0  0  0  0  0  0  0
   14.4552   -5.0581   -8.5467 O   0  0  0  0  0  0  0  0  0  0  0  0
   16.3270   -6.5086   -8.6544 C   0  0  0  0  0  0  0  0  0  0  0  0
   16.1458   -7.0825  -10.0418 C   0  0  2  0  0  0  0  0  0  0  0  0
   15.6581   -8.4370   -9.9491 N   0  0  0  0  0  0  0  0  0  0  0  0
   17.3805   -6.9666  -10.8238 C   0  0  0  0  0  0  0  0  0  0  0  0
   18.3657   -7.6855  -10.5245 O   0  0  0  0  0  0  0  0  0  0  0  0
   17.5044   -6.0719  -11.9072 N   0  0  0  0  0  0  0  0  0  0  0  0
   18.3197   -6.3404  -13.0929 C   0  0  1  0  0  0  0  0  0  0  0  0
   17.8785   -7.6133  -13.7525 C   0  0  0  0  0  0  0  0  0  0  0  0
   18.6108   -7.9212  -15.0294 C   0  0  0  0  0  0  0  0  0  0  0  0
   18.0602   -9.1992  -15.6329 C   0  0  0  0  0  0  0  0  0  0  0  0
   17.2106   -9.8939  -15.0573 O   0  0  0  0  0  0  0  0  0  0  0  0
   18.1374   -5.2103  -14.0078 C   0  0  0  0  0  0  0  0  0  0  0  0
   17.0268   -4.6704  -14.1803 O   0  0  0  0  0  0  0  0  0  0  0  0
   18.5635   -9.5508  -16.8744 O   0  0  0  0  0  0  0  0  0  0  0  0
   19.2132   -4.6891  -14.7294 O   0  0  0  0  0  0  0  0  0  0  0  0
  2  1  1  6
  3  2  1  0
  4  5  1  0
  4  2  1  0
  5  6  1  1
  7  5  1  0
  7  8  2  0
  9 10  1  0
 10 11  2  0
 12 10  1  0
 13 12  1  1
 13 14  1  0
 14  7  1  0
 15 17  1  0
 15 13  1  0
 16 15  2  0
 18 17  1  0
 18 19  1  6
 19 20  1  0
 20 21  1  0
 21 22  2  0
 23 18  1  0
 24 23  2  0
 25 21  1  0
 26 23  1  0
M  END
$$$$
