LNE.pdb
     RDKit          3D

 26 25  0  0  1  0  0  0  0  0999 V2000
   14.3039  -12.3387  -15.7898 C   0  0  0  0  0  0  0  0  0  0  0  0
   15.7357  -11.9504  -15.5956 C   0  0  1  0  0  0  0  0  0  0  0  0
   16.4478  -12.1841  -16.9354 C   0  0  0  0  0  0  0  0  0  0  0  0
   15.9399  -10.5138  -15.2388 C   0  0  0  0  0  0  0  0  0  0  0  0
   17.3906  -10.2684  -14.8966 C   0  0  2  0  0  0  0  0  0  0  0  0
   17.7794  -11.2878  -13.9422 N   0  0  0  0  0  0  0  0  0  0  0  0
   17.5965   -8.9549  -14.2487 C   0  0  0  0  0  0  0  0  0  0  0  0
   17.3048   -7.8940  -14.8496 O   0  0  0  0  0  0  0  0  0  0  0  0
   18.6115   -5.2547  -10.6582 N   0  0  0  0  0  0  0  0  0  0  0  0
   18.4512   -6.5065  -10.0212 C   0  0  0  0  0  0  0  0  0  0  0  0
   18.4116   -6.4956   -8.7649 O   0  0  0  0  0  0  0  0  0  0  0  0
   18.3352   -7.7648  -10.7656 C   0  0  0  0  0  0  0  0  0  0  0  0
   18.3349   -7.5832  -12.2669 C   0  0  2  0  0  0  0  0  0  0  0  0
   18.1368   -8.8582  -12.9121 N   0  0  0  0  0  0  0  0  0  0  0  0
   19.5494   -6.8938  -12.7132 C   0  0  0  0  0  0  0  0  0  0  0  0
   20.6442   -7.5088  -12.6982 O   0  0  0  0  0  0  0  0  0  0  0  0
   19.5345   -5.5566  -13.1617 N   0  0  0  0  0  0  0  0  0  0  0  0
   20.6413   -4.9311  -13.8871 C   0  0  1  0  0  0  0  0  0  0  0  0
   20.1261   -4.1805  -15.0793 C   0  0  0  0  0  0  0  0  0  0  0  0
   21.1942   -3.4487  -15.8444 C   0  0  0  0  0  0  0  0  0  0  0  0
   20.5719   -2.7474  -17.0368 C   0  0  0  0  0  0  0  0  0  0  0  0
   21.2021   -1.9437  -17.7386 O   0  0  0  0  0  0  0  0  0  0  0  0
   21.3005   -4.0090  -12.9585 C   0  0  0  0  0  0  0  0  0  0  0  0
   20.6781   -3.4309  -12.0457 O   0  0  0  0  0  0  0  0  0  0  0  0
   19.2482   -3.0574  -17.3010 O   0  0  0  0  0  0  0  0  0  0  0  0
   22.6667   -3.7397  -13.0618 O   0  0  0  0  0  0  0  0  0  0  0  0
  2  1  1  6
  3  2  1  0
  4  5  1  0
  4  2  1  0
  5  6  1  1
  7  5  1  0
  7  8  2  0
  9 10  1  0
 10 11  2  0
 12 10  1  0
 13 12  1  1
 13 14  1  0
 14  7  1  0
 15 17  1  0
 15 13  1  0
 16 15  2  0
 18 17  1  0
 18 19  1  6
 19 20  1  0
 20 21  1  0
 21 22  2  0
 23 18  1  0
 24 23  2  0
 25 21  1  0
 26 23  1  0
M  END
$$$$
