LNE.pdb
     RDKit          3D

 26 25  0  0  1  0  0  0  0  0999 V2000
   23.5738  -16.9704  -22.4864 C   0  0  0  0  0  0  0  0  0  0  0  0
   23.9938  -17.0359  -21.0518 C   0  0  1  0  0  0  0  0  0  0  0  0
   23.7092  -15.6573  -20.4394 C   0  0  0  0  0  0  0  0  0  0  0  0
   23.2426  -18.0380  -20.2368 C   0  0  0  0  0  0  0  0  0  0  0  0
   23.5763  -17.8673  -18.7735 C   0  0  2  0  0  0  0  0  0  0  0  0
   24.9180  -18.3813  -18.5818 N   0  0  0  0  0  0  0  0  0  0  0  0
   22.6745  -18.6497  -17.9006 C   0  0  0  0  0  0  0  0  0  0  0  0
   22.0206  -19.6155  -18.3603 O   0  0  0  0  0  0  0  0  0  0  0  0
   21.8174  -21.0932  -12.9348 N   0  0  0  0  0  0  0  0  0  0  0  0
   21.4654  -19.7519  -13.2090 C   0  0  0  0  0  0  0  0  0  0  0  0
   20.4892  -19.2860  -12.5687 O   0  0  0  0  0  0  0  0  0  0  0  0
   22.1862  -18.9275  -14.1846 C   0  0  0  0  0  0  0  0  0  0  0  0
   21.7425  -19.1513  -15.6128 C   0  0  2  0  0  0  0  0  0  0  0  0
   22.5227  -18.3245  -16.5009 N   0  0  0  0  0  0  0  0  0  0  0  0
   20.2978  -18.9444  -15.7529 C   0  0  0  0  0  0  0  0  0  0  0  0
   19.8476  -17.7729  -15.7975 O   0  0  0  0  0  0  0  0  0  0  0  0
   19.3882  -20.0189  -15.8399 N   0  0  0  0  0  0  0  0  0  0  0  0
   17.9489  -19.8497  -16.0460 C   0  0  1  0  0  0  0  0  0  0  0  0
   17.4117  -20.9535  -16.9080 C   0  0  0  0  0  0  0  0  0  0  0  0
   17.3977  -22.2981  -16.2346 C   0  0  0  0  0  0  0  0  0  0  0  0
   16.7668  -23.3209  -17.1601 C   0  0  0  0  0  0  0  0  0  0  0  0
   17.4394  -24.1377  -17.8054 O   0  0  0  0  0  0  0  0  0  0  0  0
   17.3155  -19.8891  -14.7252 C   0  0  0  0  0  0  0  0  0  0  0  0
   16.2347  -19.3128  -14.4917 O   0  0  0  0  0  0  0  0  0  0  0  0
   15.3848  -23.2920  -17.2456 O   0  0  0  0  0  0  0  0  0  0  0  0
   17.9050  -20.5818  -13.6659 O   0  0  0  0  0  0  0  0  0  0  0  0
  2  1  1  6
  3  2  1  0
  4  5  1  0
  4  2  1  0
  5  6  1  6
  7  5  1  0
  7  8  2  0
  9 10  1  0
 10 11  2  0
 12 10  1  0
 13 12  1  1
 13 14  1  0
 14  7  1  0
 15 17  1  0
 15 13  1  0
 16 15  2  0
 18 17  1  0
 18 19  1  6
 19 20  1  0
 20 21  1  0
 21 22  2  0
 23 18  1  0
 24 23  2  0
 25 21  1  0
 26 23  1  0
M  END
$$$$
