LNE.pdb
     RDKit          3D

 26 25  0  0  1  0  0  0  0  0999 V2000
   26.0155  -14.2171  -15.7045 C   0  0  0  0  0  0  0  0  0  0  0  0
   24.5370  -14.1731  -15.9302 C   0  0  1  0  0  0  0  0  0  0  0  0
   23.8761  -14.7669  -14.6783 C   0  0  0  0  0  0  0  0  0  0  0  0
   23.9826  -12.7964  -16.1038 C   0  0  0  0  0  0  0  0  0  0  0  0
   22.4879  -12.8645  -16.3110 C   0  0  2  0  0  0  0  0  0  0  0  0
   22.2645  -13.5669  -17.5592 N   0  0  0  0  0  0  0  0  0  0  0  0
   21.8814  -11.5223  -16.4446 C   0  0  0  0  0  0  0  0  0  0  0  0
   22.0844  -10.8292  -17.4694 O   0  0  0  0  0  0  0  0  0  0  0  0
   18.3258  -11.0167  -17.0330 N   0  0  0  0  0  0  0  0  0  0  0  0
   18.0097  -10.4704  -15.7681 C   0  0  0  0  0  0  0  0  0  0  0  0
   16.8230  -10.6093  -15.3778 O   0  0  0  0  0  0  0  0  0  0  0  0
   18.9972   -9.7740  -14.9370 C   0  0  0  0  0  0  0  0  0  0  0  0
   20.3737   -9.7063  -15.5594 C   0  0  2  0  0  0  0  0  0  0  0  0
   21.0423  -10.9750  -15.4033 N   0  0  0  0  0  0  0  0  0  0  0  0
   21.1405   -8.5801  -15.0179 C   0  0  0  0  0  0  0  0  0  0  0  0
   21.6625   -8.6841  -13.8805 O   0  0  0  0  0  0  0  0  0  0  0  0
   21.3153   -7.3758  -15.7312 N   0  0  0  0  0  0  0  0  0  0  0  0
   22.1353   -6.2612  -15.2542 C   0  0  1  0  0  0  0  0  0  0  0  0
   22.1529   -5.1551  -16.2672 C   0  0  0  0  0  0  0  0  0  0  0  0
   23.0719   -4.0194  -15.9106 C   0  0  0  0  0  0  0  0  0  0  0  0
   23.0224   -2.9667  -17.0016 C   0  0  0  0  0  0  0  0  0  0  0  0
   22.4106   -3.1402  -18.0653 O   0  0  0  0  0  0  0  0  0  0  0  0
   21.5364   -5.7882  -14.0032 C   0  0  0  0  0  0  0  0  0  0  0  0
   22.2258   -5.3294  -13.0710 O   0  0  0  0  0  0  0  0  0  0  0  0
   23.7047   -1.7899  -16.7417 O   0  0  0  0  0  0  0  0  0  0  0  0
   20.1550   -5.8339  -13.8055 O   0  0  0  0  0  0  0  0  0  0  0  0
  2  1  1  1
  3  2  1  0
  4  5  1  0
  4  2  1  0
  5  6  1  6
  7  5  1  0
  7  8  2  0
  9 10  1  0
 10 11  2  0
 12 10  1  0
 13 12  1  1
 13 14  1  0
 14  7  1  0
 15 17  1  0
 15 13  1  0
 16 15  2  0
 18 17  1  0
 18 19  1  6
 19 20  1  0
 20 21  1  0
 21 22  2  0
 23 18  1  0
 24 23  2  0
 25 21  1  0
 26 23  1  0
M  END
$$$$
