LNE.pdb
     RDKit          3D

 26 25  0  0  1  0  0  0  0  0999 V2000
   27.2384  -18.5520  -15.5096 C   0  0  0  0  0  0  0  0  0  0  0  0
   26.1661  -17.6049  -15.9476 C   0  0  1  0  0  0  0  0  0  0  0  0
   24.8219  -18.2925  -15.6701 C   0  0  0  0  0  0  0  0  0  0  0  0
   26.1523  -16.3070  -15.2072 C   0  0  0  0  0  0  0  0  0  0  0  0
   25.0559  -15.4180  -15.7448 C   0  0  2  0  0  0  0  0  0  0  0  0
   25.0421  -15.5854  -17.1846 N   0  0  0  0  0  0  0  0  0  0  0  0
   25.3117  -13.9876  -15.4687 C   0  0  0  0  0  0  0  0  0  0  0  0
   25.4110  -13.5729  -14.2898 O   0  0  0  0  0  0  0  0  0  0  0  0
   27.9700   -9.0183  -16.1955 N   0  0  0  0  0  0  0  0  0  0  0  0
   26.8909   -9.5986  -16.9006 C   0  0  0  0  0  0  0  0  0  0  0  0
   26.0541   -8.8038  -17.3986 O   0  0  0  0  0  0  0  0  0  0  0  0
   26.7346  -11.0485  -17.0561 C   0  0  0  0  0  0  0  0  0  0  0  0
   25.5616  -11.6175  -16.2899 C   0  0  2  0  0  0  0  0  0  0  0  0
   25.4536  -13.0333  -16.5444 N   0  0  0  0  0  0  0  0  0  0  0  0
   24.3299  -10.8818  -16.5920 C   0  0  0  0  0  0  0  0  0  0  0  0
   23.7353  -11.1007  -17.6762 O   0  0  0  0  0  0  0  0  0  0  0  0
   23.7839   -9.9309  -15.7047 N   0  0  0  0  0  0  0  0  0  0  0  0
   22.5343   -9.2109  -15.9545 C   0  0  1  0  0  0  0  0  0  0  0  0
   21.3589  -10.0459  -15.5407 C   0  0  0  0  0  0  0  0  0  0  0  0
   20.0307   -9.3743  -15.7562 C   0  0  0  0  0  0  0  0  0  0  0  0
   18.9153  -10.3127  -15.3366 C   0  0  0  0  0  0  0  0  0  0  0  0
   18.9821  -11.0093  -14.3138 O   0  0  0  0  0  0  0  0  0  0  0  0
   22.5797   -7.9787  -15.1628 C   0  0  0  0  0  0  0  0  0  0  0  0
   21.6789   -7.1186  -15.2240 O   0  0  0  0  0  0  0  0  0  0  0  0
   17.8074  -10.3490  -16.1669 O   0  0  0  0  0  0  0  0  0  0  0  0
   23.6458   -7.7179  -14.2996 O   0  0  0  0  0  0  0  0  0  0  0  0
  2  1  1  1
  3  2  1  0
  4  5  1  0
  4  2  1  0
  5  6  1  6
  7  5  1  0
  7  8  2  0
  9 10  1  0
 10 11  2  0
 12 10  1  0
 13 12  1  6
 13 14  1  0
 14  7  1  0
 15 17  1  0
 15 13  1  0
 16 15  2  0
 18 17  1  0
 18 19  1  1
 19 20  1  0
 20 21  1  0
 21 22  2  0
 23 18  1  0
 24 23  2  0
 25 21  1  0
 26 23  1  0
M  END
$$$$
