LNE.pdb
     RDKit          3D

 26 25  0  0  1  0  0  0  0  0999 V2000
   17.9858  -16.4198  -17.5327 C   0  0  0  0  0  0  0  0  0  0  0  0
   18.6100  -15.3780  -16.6588 C   0  0  1  0  0  0  0  0  0  0  0  0
   20.1242  -15.6305  -16.6743 C   0  0  0  0  0  0  0  0  0  0  0  0
   18.3976  -13.9751  -17.1273 C   0  0  0  0  0  0  0  0  0  0  0  0
   19.0881  -13.0092  -16.1935 C   0  0  2  0  0  0  0  0  0  0  0  0
   18.6048  -13.2932  -14.8567 N   0  0  0  0  0  0  0  0  0  0  0  0
   18.7491  -11.6018  -16.4962 C   0  0  0  0  0  0  0  0  0  0  0  0
   19.1347  -11.0675  -17.5628 O   0  0  0  0  0  0  0  0  0  0  0  0
   14.9054  -10.3446  -16.6190 N   0  0  0  0  0  0  0  0  0  0  0  0
   15.0759   -9.5861  -15.4383 C   0  0  0  0  0  0  0  0  0  0  0  0
   14.0411   -9.3633  -14.7604 O   0  0  0  0  0  0  0  0  0  0  0  0
   16.3811   -9.0753  -15.0067 C   0  0  0  0  0  0  0  0  0  0  0  0
   17.5206   -9.4786  -15.9155 C   0  0  2  0  0  0  0  0  0  0  0  0
   17.9682  -10.8073  -15.5760 N   0  0  0  0  0  0  0  0  0  0  0  0
   18.5959   -8.4824  -15.8838 C   0  0  0  0  0  0  0  0  0  0  0  0
   19.3252   -8.3996  -14.8648 O   0  0  0  0  0  0  0  0  0  0  0  0
   18.8438   -7.6075  -16.9620 N   0  0  0  0  0  0  0  0  0  0  0  0
   19.9596   -6.6609  -16.9996 C   0  0  1  0  0  0  0  0  0  0  0  0
   20.4738   -6.5155  -18.4012 C   0  0  0  0  0  0  0  0  0  0  0  0
   21.6024   -5.5306  -18.5350 C   0  0  0  0  0  0  0  0  0  0  0  0
   22.0294   -5.4448  -19.9881 C   0  0  0  0  0  0  0  0  0  0  0  0
   21.5526   -6.1788  -20.8655 O   0  0  0  0  0  0  0  0  0  0  0  0
   19.4521   -5.3749  -16.5139 C   0  0  0  0  0  0  0  0  0  0  0  0
   18.2391   -5.0876  -16.5441 O   0  0  0  0  0  0  0  0  0  0  0  0
   22.9903   -4.4922  -20.2836 O   0  0  0  0  0  0  0  0  0  0  0  0
   20.3179   -4.4112  -15.9928 O   0  0  0  0  0  0  0  0  0  0  0  0
  2  1  1  6
  3  2  1  0
  4  5  1  0
  4  2  1  0
  5  6  1  1
  7  5  1  0
  7  8  2  0
  9 10  1  0
 10 11  2  0
 12 10  1  0
 13 12  1  1
 13 14  1  0
 14  7  1  0
 15 17  1  0
 15 13  1  0
 16 15  2  0
 18 17  1  0
 18 19  1  6
 19 20  1  0
 20 21  1  0
 21 22  2  0
 23 18  1  0
 24 23  2  0
 25 21  1  0
 26 23  1  0
M  END
$$$$
