LNE.pdb
     RDKit          3D

 26 25  0  0  1  0  0  0  0  0999 V2000
   17.1928  -16.2553  -15.1545 C   0  0  0  0  0  0  0  0  0  0  0  0
   17.1756  -14.9793  -15.9357 C   0  0  1  0  0  0  0  0  0  0  0  0
   15.7298  -14.4636  -15.9174 C   0  0  0  0  0  0  0  0  0  0  0  0
   18.0315  -13.8965  -15.3630 C   0  0  0  0  0  0  0  0  0  0  0  0
   17.9423  -12.6587  -16.2241 C   0  0  2  0  0  0  0  0  0  0  0  0
   18.2463  -13.0642  -17.5822 N   0  0  0  0  0  0  0  0  0  0  0  0
   18.9372  -11.6358  -15.8353 C   0  0  0  0  0  0  0  0  0  0  0  0
   18.8682  -11.0701  -14.7187 O   0  0  0  0  0  0  0  0  0  0  0  0
   22.9527   -8.2386  -16.0164 N   0  0  0  0  0  0  0  0  0  0  0  0
   23.2100   -9.3292  -16.8782 C   0  0  0  0  0  0  0  0  0  0  0  0
   24.3569   -9.3814  -17.3898 O   0  0  0  0  0  0  0  0  0  0  0  0
   22.2076  -10.3579  -17.1748 C   0  0  0  0  0  0  0  0  0  0  0  0
   20.9138  -10.1815  -16.4120 C   0  0  2  0  0  0  0  0  0  0  0  0
   20.0111  -11.2617  -16.7269 N   0  0  0  0  0  0  0  0  0  0  0  0
   20.3355   -8.8568  -16.6573 C   0  0  0  0  0  0  0  0  0  0  0  0
   19.8004   -8.6174  -17.7679 O   0  0  0  0  0  0  0  0  0  0  0  0
   20.3577   -7.8339  -15.6863 N   0  0  0  0  0  0  0  0  0  0  0  0
   19.6794   -6.5469  -15.8471 C   0  0  1  0  0  0  0  0  0  0  0  0
   18.2323   -6.6688  -15.4717 C   0  0  0  0  0  0  0  0  0  0  0  0
   17.4719   -5.3740  -15.5549 C   0  0  0  0  0  0  0  0  0  0  0  0
   15.9975   -5.6368  -15.3147 C   0  0  0  0  0  0  0  0  0  0  0  0
   15.5691   -6.0921  -14.2447 O   0  0  0  0  0  0  0  0  0  0  0  0
   20.3501   -5.5912  -14.9615 C   0  0  0  0  0  0  0  0  0  0  0  0
   20.6732   -4.4489  -15.3432 O   0  0  0  0  0  0  0  0  0  0  0  0
   15.1478   -5.3373  -16.3667 O   0  0  0  0  0  0  0  0  0  0  0  0
   20.6562   -5.9274  -13.6413 O   0  0  0  0  0  0  0  0  0  0  0  0
  2  1  1  1
  3  2  1  0
  4  5  1  0
  4  2  1  0
  5  6  1  6
  7  5  1  0
  7  8  2  0
  9 10  1  0
 10 11  2  0
 12 10  1  0
 13 12  1  6
 13 14  1  0
 14  7  1  0
 15 17  1  0
 15 13  1  0
 16 15  2  0
 18 17  1  0
 18 19  1  1
 19 20  1  0
 20 21  1  0
 21 22  2  0
 23 18  1  0
 24 23  2  0
 25 21  1  0
 26 23  1  0
M  END
$$$$
