LNE.pdb
     RDKit          3D

 26 25  0  0  1  0  0  0  0  0999 V2000
   28.7257  -19.0155   -6.6495 C   0  0  0  0  0  0  0  0  0  0  0  0
   27.5718  -19.8346   -7.1357 C   0  0  1  0  0  0  0  0  0  0  0  0
   26.4370  -19.6567   -6.1172 C   0  0  0  0  0  0  0  0  0  0  0  0
   27.0347  -19.4118   -8.4645 C   0  0  0  0  0  0  0  0  0  0  0  0
   25.9151  -20.3342   -8.8855 C   0  0  2  0  0  0  0  0  0  0  0  0
   26.4490  -21.6818   -8.8738 N   0  0  0  0  0  0  0  0  0  0  0  0
   25.4499  -20.0552  -10.2614 C   0  0  0  0  0  0  0  0  0  0  0  0
   25.0553  -18.9091  -10.5817 O   0  0  0  0  0  0  0  0  0  0  0  0
   26.3607  -20.3810  -15.8631 N   0  0  0  0  0  0  0  0  0  0  0  0
   25.6134  -21.2187  -15.0040 C   0  0  0  0  0  0  0  0  0  0  0  0
   24.6050  -21.7783  -15.5039 O   0  0  0  0  0  0  0  0  0  0  0  0
   25.9759  -21.4387  -13.6000 C   0  0  0  0  0  0  0  0  0  0  0  0
   25.0015  -20.8259  -12.6192 C   0  0  2  0  0  0  0  0  0  0  0  0
   25.4373  -21.0902  -11.2696 N   0  0  0  0  0  0  0  0  0  0  0  0
   23.6334  -21.2821  -12.8830 C   0  0  0  0  0  0  0  0  0  0  0  0
   23.2997  -22.4456  -12.5485 O   0  0  0  0  0  0  0  0  0  0  0  0
   22.6711  -20.4577  -13.5027 N   0  0  0  0  0  0  0  0  0  0  0  0
   21.2442  -20.7784  -13.5617 C   0  0  1  0  0  0  0  0  0  0  0  0
   20.4558  -19.5750  -13.9864 C   0  0  0  0  0  0  0  0  0  0  0  0
   20.4526  -19.3444  -15.4725 C   0  0  0  0  0  0  0  0  0  0  0  0
   20.4022  -17.8546  -15.7531 C   0  0  0  0  0  0  0  0  0  0  0  0
   19.7446  -17.0687  -15.0561 O   0  0  0  0  0  0  0  0  0  0  0  0
   21.0835  -21.8564  -14.5412 C   0  0  0  0  0  0  0  0  0  0  0  0
   20.1545  -22.6848  -14.4678 O   0  0  0  0  0  0  0  0  0  0  0  0
   21.1382  -17.4162  -16.8413 O   0  0  0  0  0  0  0  0  0  0  0  0
   21.9752  -21.9984  -15.6063 O   0  0  0  0  0  0  0  0  0  0  0  0
  2  1  1  1
  3  2  1  0
  4  5  1  0
  4  2  1  0
  5  6  1  6
  7  5  1  0
  7  8  2  0
  9 10  1  0
 10 11  2  0
 12 10  1  0
 13 12  1  6
 13 14  1  0
 14  7  1  0
 15 17  1  0
 15 13  1  0
 16 15  2  0
 18 17  1  0
 18 19  1  6
 19 20  1  0
 20 21  1  0
 21 22  2  0
 23 18  1  0
 24 23  2  0
 25 21  1  0
 26 23  1  0
M  END
$$$$
