LNE.pdb
     RDKit          3D

 26 25  0  0  1  0  0  0  0  0999 V2000
   23.8704  -12.3433  -16.0783 C   0  0  0  0  0  0  0  0  0  0  0  0
   23.2286  -11.2708  -15.2557 C   0  0  1  0  0  0  0  0  0  0  0  0
   24.3628  -10.4199  -14.6673 C   0  0  0  0  0  0  0  0  0  0  0  0
   22.3475  -10.3459  -16.0311 C   0  0  0  0  0  0  0  0  0  0  0  0
   21.7618   -9.3000  -15.1121 C   0  0  2  0  0  0  0  0  0  0  0  0
   21.0507  -10.0062  -14.0648 N   0  0  0  0  0  0  0  0  0  0  0  0
   20.7829   -8.4341  -15.8045 C   0  0  0  0  0  0  0  0  0  0  0  0
   21.1400   -7.7021  -16.7575 O   0  0  0  0  0  0  0  0  0  0  0  0
   14.7902   -8.1314  -17.1749 N   0  0  0  0  0  0  0  0  0  0  0  0
   16.1069   -7.6434  -17.0124 C   0  0  0  0  0  0  0  0  0  0  0  0
   16.3749   -6.5533  -17.5780 O   0  0  0  0  0  0  0  0  0  0  0  0
   17.1238   -8.3536  -16.2299 C   0  0  0  0  0  0  0  0  0  0  0  0
   18.4240   -7.5935  -16.0936 C   0  0  2  0  0  0  0  0  0  0  0  0
   19.3948   -8.4078  -15.4040 N   0  0  0  0  0  0  0  0  0  0  0  0
   18.2071   -6.2911  -15.4563 C   0  0  0  0  0  0  0  0  0  0  0  0
   18.0967   -6.2306  -14.2069 O   0  0  0  0  0  0  0  0  0  0  0  0
   18.1171   -5.0952  -16.1988 N   0  0  0  0  0  0  0  0  0  0  0  0
   17.9802   -3.7706  -15.5912 C   0  0  1  0  0  0  0  0  0  0  0  0
   18.3954   -2.7054  -16.5623 C   0  0  0  0  0  0  0  0  0  0  0  0
   18.2921   -1.3092  -16.0132 C   0  0  0  0  0  0  0  0  0  0  0  0
   18.8192   -0.3224  -17.0376 C   0  0  0  0  0  0  0  0  0  0  0  0
   19.3291   -0.6838  -18.1077 O   0  0  0  0  0  0  0  0  0  0  0  0
   16.5691   -3.6028  -15.2334 C   0  0  0  0  0  0  0  0  0  0  0  0
   15.6543   -4.1700  -15.8629 O   0  0  0  0  0  0  0  0  0  0  0  0
   18.6981    1.0175  -16.7086 O   0  0  0  0  0  0  0  0  0  0  0  0
   16.1911   -2.7920  -14.1613 O   0  0  0  0  0  0  0  0  0  0  0  0
  2  1  1  6
  3  2  1  0
  4  5  1  0
  4  2  1  0
  5  6  1  1
  7  5  1  0
  7  8  2  0
  9 10  1  0
 10 11  2  0
 12 10  1  0
 13 12  1  1
 13 14  1  0
 14  7  1  0
 15 17  1  0
 15 13  1  0
 16 15  2  0
 18 17  1  0
 18 19  1  6
 19 20  1  0
 20 21  1  0
 21 22  2  0
 23 18  1  0
 24 23  2  0
 25 21  1  0
 26 23  1  0
M  END
$$$$
