LNE.pdb
     RDKit          3D

 26 25  0  0  1  0  0  0  0  0999 V2000
   26.3099  -15.0287  -17.7793 C   0  0  0  0  0  0  0  0  0  0  0  0
   25.8114  -14.2290  -16.6171 C   0  0  1  0  0  0  0  0  0  0  0  0
   27.0194  -13.9598  -15.7088 C   0  0  0  0  0  0  0  0  0  0  0  0
   25.2393  -12.8989  -16.9865 C   0  0  0  0  0  0  0  0  0  0  0  0
   24.7058  -12.2067  -15.7545 C   0  0  2  0  0  0  0  0  0  0  0  0
   23.9801  -13.2017  -14.9899 N   0  0  0  0  0  0  0  0  0  0  0  0
   23.7532  -11.1262  -16.0901 C   0  0  0  0  0  0  0  0  0  0  0  0
   24.1057  -10.1673  -16.8167 O   0  0  0  0  0  0  0  0  0  0  0  0
   18.2941   -9.7204  -17.3851 N   0  0  0  0  0  0  0  0  0  0  0  0
   18.9938   -9.6984  -16.1570 C   0  0  0  0  0  0  0  0  0  0  0  0
   18.6777   -8.7903  -15.3474 O   0  0  0  0  0  0  0  0  0  0  0  0
   20.0375  -10.6730  -15.8227 C   0  0  0  0  0  0  0  0  0  0  0  0
   21.4417  -10.1290  -15.9607 C   0  0  2  0  0  0  0  0  0  0  0  0
   22.3968  -11.1455  -15.5925 N   0  0  0  0  0  0  0  0  0  0  0  0
   21.6008   -8.8857  -15.2000 C   0  0  0  0  0  0  0  0  0  0  0  0
   21.8481   -8.9467  -13.9704 O   0  0  0  0  0  0  0  0  0  0  0  0
   21.4857   -7.6151  -15.8014 N   0  0  0  0  0  0  0  0  0  0  0  0
   21.7115   -6.3563  -15.0894 C   0  0  1  0  0  0  0  0  0  0  0  0
   21.8830   -5.2289  -16.0637 C   0  0  0  0  0  0  0  0  0  0  0  0
   22.1530   -3.8999  -15.4136 C   0  0  0  0  0  0  0  0  0  0  0  0
   22.3295   -2.8397  -16.4840 C   0  0  0  0  0  0  0  0  0  0  0  0
   22.3224   -3.1087  -17.6937 O   0  0  0  0  0  0  0  0  0  0  0  0
   20.5360   -6.1191  -14.2472 C   0  0  0  0  0  0  0  0  0  0  0  0
   20.6312   -5.6627  -13.0907 O   0  0  0  0  0  0  0  0  0  0  0  0
   22.5006   -1.5420  -16.0312 O   0  0  0  0  0  0  0  0  0  0  0  0
   19.2498   -6.3984  -14.7134 O   0  0  0  0  0  0  0  0  0  0  0  0
  2  1  1  6
  3  2  1  0
  4  5  1  0
  4  2  1  0
  5  6  1  1
  7  5  1  0
  7  8  2  0
  9 10  1  0
 10 11  2  0
 12 10  1  0
 13 12  1  1
 13 14  1  0
 14  7  1  0
 15 17  1  0
 15 13  1  0
 16 15  2  0
 18 17  1  0
 18 19  1  6
 19 20  1  0
 20 21  1  0
 21 22  2  0
 23 18  1  0
 24 23  2  0
 25 21  1  0
 26 23  1  0
M  END
$$$$
