DPA.pdb
     RDKit          3D

 21 21  0  0  1  0  0  0  0  0999 V2000
   11.5288  -16.3976   20.5208 N   0  0  0  0  0  0  0  0  0  0  0  0
   10.4740  -16.9678   21.3453 C   0  0  1  0  0  0  0  0  0  0  0  0
   10.8516  -18.3475   21.8301 C   0  0  0  0  0  0  0  0  0  0  0  0
   10.8893  -19.3395   20.7456 C   0  0  0  0  0  0  0  0  0  0  0  0
    9.8717  -19.5035   20.0274 O   0  0  0  0  0  0  0  0  0  0  0  0
   10.2368  -16.0567   22.4839 C   0  0  0  0  0  0  0  0  0  0  0  0
   11.2079  -15.5405   23.1053 O   0  0  0  0  0  0  0  0  0  0  0  0
   11.9928  -20.1187   20.4584 O   0  0  0  0  0  0  0  0  0  0  0  0
    8.9255  -15.7263   22.9209 N   0  0  0  0  0  0  0  0  0  0  0  0
    7.6613  -16.2231   22.3459 C   0  0  0  0  0  0  0  0  0  0  0  0
    6.7276  -15.0423   22.6622 C   0  0  0  0  0  0  0  0  0  0  0  0
    7.1503  -14.7874   24.0909 C   0  0  0  0  0  0  0  0  0  0  0  0
    8.6305  -14.8207   24.0031 C   0  0  1  0  0  0  0  0  0  0  0  0
    9.2924  -15.2163   25.2671 C   0  0  0  0  0  0  0  0  0  0  0  0
    9.5750  -16.4315   25.4128 O   0  0  0  0  0  0  0  0  0  0  0  0
   10.5174  -13.7173   28.5088 C   0  0  0  0  0  0  0  0  0  0  0  0
   10.2337  -14.8170   27.5223 C   0  0  2  0  0  0  0  0  0  0  0  0
    9.6197  -14.3284   26.2997 N   0  0  0  0  0  0  0  0  0  0  0  0
    9.3912  -15.8487   28.1785 C   0  0  0  0  0  0  0  0  0  0  0  0
    8.1961  -15.9691   27.8379 O   0  0  0  0  0  0  0  0  0  0  0  0
    9.9349  -16.6616   29.1549 O   0  0  0  0  0  0  0  0  0  0  0  0
  2  1  1  6
  2  3  1  0
  3  4  1  0
  4  8  1  0
  5  4  2  0
  6  2  1  0
  7  6  2  0
  9 13  1  0
  9  6  1  0
 10  9  1  0
 11 12  1  0
 11 10  1  0
 12 13  1  0
 13 14  1  1
 14 18  1  0
 15 14  2  0
 17 16  1  1
 17 19  1  0
 18 17  1  0
 19 20  2  0
 19 21  1  0
M  END
$$$$
