DPA.pdb
     RDKit          3D

 21 21  0  0  1  0  0  0  0  0999 V2000
    8.1605  -14.3299   21.3360 N   0  0  0  0  0  0  0  0  0  0  0  0
    7.2721  -14.4183   22.4850 C   0  0  1  0  0  0  0  0  0  0  0  0
    6.6028  -15.7708   22.5494 C   0  0  0  0  0  0  0  0  0  0  0  0
    7.5310  -16.8769   22.2722 C   0  0  0  0  0  0  0  0  0  0  0  0
    8.1722  -17.3933   23.2213 O   0  0  0  0  0  0  0  0  0  0  0  0
    8.0691  -14.1671   23.7033 C   0  0  0  0  0  0  0  0  0  0  0  0
    9.2881  -14.4946   23.7511 O   0  0  0  0  0  0  0  0  0  0  0  0
    7.7486  -17.3964   21.0113 O   0  0  0  0  0  0  0  0  0  0  0  0
    7.5067  -13.5542   24.8557 N   0  0  0  0  0  0  0  0  0  0  0  0
    6.1239  -13.0608   24.9965 C   0  0  0  0  0  0  0  0  0  0  0  0
    6.3334  -11.9305   26.0186 C   0  0  0  0  0  0  0  0  0  0  0  0
    7.2454  -12.6543   26.9825 C   0  0  0  0  0  0  0  0  0  0  0  0
    8.2273  -13.3006   26.0783 C   0  0  1  0  0  0  0  0  0  0  0  0
    8.8353  -14.5281   26.6405 C   0  0  0  0  0  0  0  0  0  0  0  0
    8.1965  -15.6010   26.5042 O   0  0  0  0  0  0  0  0  0  0  0  0
   12.0488  -15.9859   27.6440 C   0  0  0  0  0  0  0  0  0  0  0  0
   10.5687  -15.8163   27.8519 C   0  0  2  0  0  0  0  0  0  0  0  0
   10.0661  -14.5664   27.3080 N   0  0  0  0  0  0  0  0  0  0  0  0
   10.2676  -15.9383   29.3008 C   0  0  0  0  0  0  0  0  0  0  0  0
    9.7397  -14.9776   29.8984 O   0  0  0  0  0  0  0  0  0  0  0  0
   10.5728  -17.1078   29.9706 O   0  0  0  0  0  0  0  0  0  0  0  0
  2  1  1  6
  2  3  1  0
  3  4  1  0
  4  8  1  0
  5  4  2  0
  6  2  1  0
  7  6  2  0
  9 13  1  0
  9  6  1  0
 10  9  1  0
 11 12  1  0
 11 10  1  0
 12 13  1  0
 13 14  1  1
 14 18  1  0
 15 14  2  0
 17 16  1  1
 17 19  1  0
 18 17  1  0
 19 20  2  0
 19 21  1  0
M  END
$$$$
