DPA.pdb
     RDKit          3D

 21 21  0  0  1  0  0  0  0  0999 V2000
   10.1513  -17.2337   18.1550 N   0  0  0  0  0  0  0  0  0  0  0  0
    9.0697  -17.2912   19.1266 C   0  0  1  0  0  0  0  0  0  0  0  0
    8.6254  -18.7160   19.3588 C   0  0  0  0  0  0  0  0  0  0  0  0
    7.9615  -19.3019   18.1851 C   0  0  0  0  0  0  0  0  0  0  0  0
    8.6292  -20.0118   17.3923 O   0  0  0  0  0  0  0  0  0  0  0  0
    9.5467  -16.6775   20.3829 C   0  0  0  0  0  0  0  0  0  0  0  0
   10.7432  -16.8309   20.7578 O   0  0  0  0  0  0  0  0  0  0  0  0
    6.6246  -19.1194   17.8908 O   0  0  0  0  0  0  0  0  0  0  0  0
    8.6926  -15.8989   21.2101 N   0  0  0  0  0  0  0  0  0  0  0  0
    7.2958  -15.5259   20.9185 C   0  0  0  0  0  0  0  0  0  0  0  0
    7.1971  -14.1943   21.6823 C   0  0  0  0  0  0  0  0  0  0  0  0
    7.8795  -14.6105   22.9652 C   0  0  0  0  0  0  0  0  0  0  0  0
    9.0811  -15.3292   22.4762 C   0  0  1  0  0  0  0  0  0  0  0  0
    9.5903  -16.3486   23.4218 C   0  0  0  0  0  0  0  0  0  0  0  0
    8.9547  -17.4292   23.5000 O   0  0  0  0  0  0  0  0  0  0  0  0
   12.6832  -17.2270   25.2924 C   0  0  0  0  0  0  0  0  0  0  0  0
   11.1973  -17.2737   25.0629 C   0  0  2  0  0  0  0  0  0  0  0  0
   10.7251  -16.1840   24.2260 N   0  0  0  0  0  0  0  0  0  0  0  0
   10.5060  -17.2883   26.3769 C   0  0  0  0  0  0  0  0  0  0  0  0
   10.7679  -18.1941   27.1953 O   0  0  0  0  0  0  0  0  0  0  0  0
    9.5841  -16.3046   26.6800 O   0  0  0  0  0  0  0  0  0  0  0  0
  2  1  1  6
  2  3  1  0
  3  4  1  0
  4  8  1  0
  5  4  2  0
  6  2  1  0
  7  6  2  0
  9 13  1  0
  9  6  1  0
 10  9  1  0
 11 12  1  0
 11 10  1  0
 12 13  1  0
 13 14  1  1
 14 18  1  0
 15 14  2  0
 17 16  1  1
 17 19  1  0
 18 17  1  0
 19 20  2  0
 19 21  1  0
M  END
$$$$
