DPA.pdb
     RDKit          3D

 21 21  0  0  1  0  0  0  0  0999 V2000
    9.5199  -15.3255   21.2185 N   0  0  0  0  0  0  0  0  0  0  0  0
    8.6134  -15.6766   22.3013 C   0  0  1  0  0  0  0  0  0  0  0  0
    8.6793  -17.1547   22.6050 C   0  0  0  0  0  0  0  0  0  0  0  0
    8.2428  -17.9864   21.4740 C   0  0  0  0  0  0  0  0  0  0  0  0
    7.2284  -17.6452   20.8160 O   0  0  0  0  0  0  0  0  0  0  0  0
    8.9836  -14.8786   23.4882 C   0  0  0  0  0  0  0  0  0  0  0  0
   10.1978  -14.6747   23.7708 O   0  0  0  0  0  0  0  0  0  0  0  0
    8.8880  -19.1419   21.0791 O   0  0  0  0  0  0  0  0  0  0  0  0
    8.0038  -14.3137   24.3488 N   0  0  0  0  0  0  0  0  0  0  0  0
    6.5497  -14.2668   24.1061 C   0  0  0  0  0  0  0  0  0  0  0  0
    6.1779  -12.9921   24.8827 C   0  0  0  0  0  0  0  0  0  0  0  0
    6.9797  -13.2429   26.1394 C   0  0  0  0  0  0  0  0  0  0  0  0
    8.2956  -13.6707   25.6057 C   0  0  1  0  0  0  0  0  0  0  0  0
    9.0539  -14.5482   26.5263 C   0  0  0  0  0  0  0  0  0  0  0  0
    8.9158  -15.7885   26.3833 O   0  0  0  0  0  0  0  0  0  0  0  0
   11.5216  -14.3487   29.3755 C   0  0  0  0  0  0  0  0  0  0  0  0
   10.5731  -15.0239   28.4229 C   0  0  2  0  0  0  0  0  0  0  0  0
    9.9069  -14.0855   27.5363 N   0  0  0  0  0  0  0  0  0  0  0  0
    9.5942  -15.8236   29.2021 C   0  0  0  0  0  0  0  0  0  0  0  0
    8.4136  -15.4272   29.2905 O   0  0  0  0  0  0  0  0  0  0  0  0
    9.9969  -16.9928   29.8188 O   0  0  0  0  0  0  0  0  0  0  0  0
  2  1  1  6
  2  3  1  0
  3  4  1  0
  4  8  1  0
  5  4  2  0
  6  2  1  0
  7  6  2  0
  9 13  1  0
  9  6  1  0
 10  9  1  0
 11 12  1  0
 11 10  1  0
 12 13  1  0
 13 14  1  1
 14 18  1  0
 15 14  2  0
 17 16  1  1
 17 19  1  0
 18 17  1  0
 19 20  2  0
 19 21  1  0
M  END
$$$$
