DPA.pdb
     RDKit          3D

 21 21  0  0  1  0  0  0  0  0999 V2000
   10.1813  -15.5716   15.3474 N   0  0  0  0  0  0  0  0  0  0  0  0
    9.0645  -15.6392   16.2777 C   0  0  1  0  0  0  0  0  0  0  0  0
    8.4734  -17.0287   16.3143 C   0  0  0  0  0  0  0  0  0  0  0  0
    7.8200  -17.4008   15.0509 C   0  0  0  0  0  0  0  0  0  0  0  0
    7.8335  -16.5910   14.0905 O   0  0  0  0  0  0  0  0  0  0  0  0
    9.5536  -15.2402   17.6134 C   0  0  0  0  0  0  0  0  0  0  0  0
   10.6780  -15.6376   18.0299 O   0  0  0  0  0  0  0  0  0  0  0  0
    7.1794  -18.6070   14.8463 O   0  0  0  0  0  0  0  0  0  0  0  0
    8.7916  -14.4035   18.4733 N   0  0  0  0  0  0  0  0  0  0  0  0
    7.5314  -13.7167   18.1330 C   0  0  0  0  0  0  0  0  0  0  0  0
    7.6214  -12.4926   19.0603 C   0  0  0  0  0  0  0  0  0  0  0  0
    8.0777  -13.1891   20.3218 C   0  0  0  0  0  0  0  0  0  0  0  0
    9.1569  -14.0795   19.8297 C   0  0  1  0  0  0  0  0  0  0  0  0
    9.3590  -15.2861   20.6638 C   0  0  0  0  0  0  0  0  0  0  0  0
    8.6540  -16.2920   20.4009 O   0  0  0  0  0  0  0  0  0  0  0  0
   11.6425  -17.3743   22.1621 C   0  0  0  0  0  0  0  0  0  0  0  0
   10.3957  -16.5990   22.4895 C   0  0  2  0  0  0  0  0  0  0  0  0
   10.2783  -15.3743   21.7169 N   0  0  0  0  0  0  0  0  0  0  0  0
   10.3663  -16.3256   23.9487 C   0  0  0  0  0  0  0  0  0  0  0  0
   10.3259  -15.1434   24.3483 O   0  0  0  0  0  0  0  0  0  0  0  0
   10.3839  -17.3764   24.8459 O   0  0  0  0  0  0  0  0  0  0  0  0
  2  1  1  6
  2  3  1  0
  3  4  1  0
  4  8  1  0
  5  4  2  0
  6  2  1  0
  7  6  2  0
  9 13  1  0
  9  6  1  0
 10  9  1  0
 11 12  1  0
 11 10  1  0
 12 13  1  0
 13 14  1  1
 14 18  1  0
 15 14  2  0
 17 16  1  1
 17 19  1  0
 18 17  1  0
 19 20  2  0
 19 21  1  0
M  END
$$$$
