DPA.pdb
     RDKit          3D

 21 21  0  0  1  0  0  0  0  0999 V2000
    9.2631  -15.1164   21.2117 N   0  0  0  0  0  0  0  0  0  0  0  0
    8.4018  -15.4928   22.3224 C   0  0  1  0  0  0  0  0  0  0  0  0
    8.4550  -16.9820   22.5686 C   0  0  0  0  0  0  0  0  0  0  0  0
    8.0217  -17.7658   21.4026 C   0  0  0  0  0  0  0  0  0  0  0  0
    8.7666  -18.6774   20.9640 O   0  0  0  0  0  0  0  0  0  0  0  0
    8.8410  -14.7457   23.5189 C   0  0  0  0  0  0  0  0  0  0  0  0
   10.0706  -14.5818   23.7571 O   0  0  0  0  0  0  0  0  0  0  0  0
    6.8248  -17.5616   20.7445 O   0  0  0  0  0  0  0  0  0  0  0  0
    7.9124  -14.1869   24.4383 N   0  0  0  0  0  0  0  0  0  0  0  0
    6.4455  -14.1542   24.2880 C   0  0  0  0  0  0  0  0  0  0  0  0
    6.1116  -12.8804   25.0831 C   0  0  0  0  0  0  0  0  0  0  0  0
    6.9936  -13.1195   26.2871 C   0  0  0  0  0  0  0  0  0  0  0  0
    8.2771  -13.5370   25.6724 C   0  0  1  0  0  0  0  0  0  0  0  0
    9.1004  -14.4043   26.5456 C   0  0  0  0  0  0  0  0  0  0  0  0
    9.1672  -15.6229   26.2480 O   0  0  0  0  0  0  0  0  0  0  0  0
   11.3114  -14.2072   29.5993 C   0  0  0  0  0  0  0  0  0  0  0  0
   10.5837  -14.8832   28.4697 C   0  0  2  0  0  0  0  0  0  0  0  0
    9.8021  -13.9546   27.6713 N   0  0  0  0  0  0  0  0  0  0  0  0
    9.7367  -15.9702   29.0229 C   0  0  0  0  0  0  0  0  0  0  0  0
   10.2811  -16.9961   29.4811 O   0  0  0  0  0  0  0  0  0  0  0  0
    8.3613  -15.8368   29.0254 O   0  0  0  0  0  0  0  0  0  0  0  0
  2  1  1  6
  2  3  1  0
  3  4  1  0
  4  8  1  0
  5  4  2  0
  6  2  1  0
  7  6  2  0
  9 13  1  0
  9  6  1  0
 10  9  1  0
 11 12  1  0
 11 10  1  0
 12 13  1  0
 13 14  1  1
 14 18  1  0
 15 14  2  0
 17 16  1  1
 17 19  1  0
 18 17  1  0
 19 20  2  0
 19 21  1  0
M  END
$$$$
