DPA.pdb
     RDKit          3D

 21 21  0  0  1  0  0  0  0  0999 V2000
    9.9183  -16.5934   15.6917 N   0  0  0  0  0  0  0  0  0  0  0  0
    8.8007  -16.3637   16.5948 C   0  0  1  0  0  0  0  0  0  0  0  0
    8.0362  -17.6418   16.8465 C   0  0  0  0  0  0  0  0  0  0  0  0
    7.3930  -18.1666   15.6330 C   0  0  0  0  0  0  0  0  0  0  0  0
    8.0239  -18.9700   14.9018 O   0  0  0  0  0  0  0  0  0  0  0  0
    9.3351  -15.8131   17.8573 C   0  0  0  0  0  0  0  0  0  0  0  0
   10.4385  -16.2201   18.3184 O   0  0  0  0  0  0  0  0  0  0  0  0
    6.1144  -17.8275   15.2361 O   0  0  0  0  0  0  0  0  0  0  0  0
    8.6414  -14.8158   18.5949 N   0  0  0  0  0  0  0  0  0  0  0  0
    7.3973  -14.1354   18.1891 C   0  0  0  0  0  0  0  0  0  0  0  0
    7.5723  -12.7842   18.9032 C   0  0  0  0  0  0  0  0  0  0  0  0
    8.0495  -13.2902   20.2452 C   0  0  0  0  0  0  0  0  0  0  0  0
    9.0722  -14.2961   19.8687 C   0  0  1  0  0  0  0  0  0  0  0  0
    9.2585  -15.3618   20.8797 C   0  0  0  0  0  0  0  0  0  0  0  0
    8.4567  -16.3283   20.8514 O   0  0  0  0  0  0  0  0  0  0  0  0
   11.7657  -17.0038   22.9025 C   0  0  0  0  0  0  0  0  0  0  0  0
   10.3691  -16.4533   22.8049 C   0  0  2  0  0  0  0  0  0  0  0  0
   10.2633  -15.3588   21.8555 N   0  0  0  0  0  0  0  0  0  0  0  0
    9.9159  -16.0440   24.1584 C   0  0  0  0  0  0  0  0  0  0  0  0
    9.5432  -14.8676   24.3484 O   0  0  0  0  0  0  0  0  0  0  0  0
    9.9109  -16.9639   25.1895 O   0  0  0  0  0  0  0  0  0  0  0  0
  2  1  1  6
  2  3  1  0
  3  4  1  0
  4  8  1  0
  5  4  2  0
  6  2  1  0
  7  6  2  0
  9 13  1  0
  9  6  1  0
 10  9  1  0
 11 12  1  0
 11 10  1  0
 12 13  1  0
 13 14  1  1
 14 18  1  0
 15 14  2  0
 17 16  1  1
 17 19  1  0
 18 17  1  0
 19 20  2  0
 19 21  1  0
M  END
$$$$
