DPA.pdb
     RDKit          3D

 21 21  0  0  1  0  0  0  0  0999 V2000
   10.1305  -15.5315   15.0983 N   0  0  0  0  0  0  0  0  0  0  0  0
    9.0506  -15.7146   16.0562 C   0  0  1  0  0  0  0  0  0  0  0  0
    8.5683  -17.1459   16.0619 C   0  0  0  0  0  0  0  0  0  0  0  0
    7.9206  -17.5315   14.7996 C   0  0  0  0  0  0  0  0  0  0  0  0
    7.4508  -18.6904   14.6791 O   0  0  0  0  0  0  0  0  0  0  0  0
    9.5478  -15.3217   17.3908 C   0  0  0  0  0  0  0  0  0  0  0  0
   10.6716  -15.7267   17.8013 O   0  0  0  0  0  0  0  0  0  0  0  0
    7.7920  -16.6859   13.7153 O   0  0  0  0  0  0  0  0  0  0  0  0
    8.7945  -14.4826   18.2559 N   0  0  0  0  0  0  0  0  0  0  0  0
    7.4890  -13.8651   17.9563 C   0  0  0  0  0  0  0  0  0  0  0  0
    7.5718  -12.6002   18.8277 C   0  0  0  0  0  0  0  0  0  0  0  0
    8.1233  -13.2226   20.0899 C   0  0  0  0  0  0  0  0  0  0  0  0
    9.2144  -14.0862   19.5768 C   0  0  1  0  0  0  0  0  0  0  0  0
    9.5131  -15.2468   20.4465 C   0  0  0  0  0  0  0  0  0  0  0  0
    8.8715  -16.3055   20.2337 O   0  0  0  0  0  0  0  0  0  0  0  0
   12.1284  -16.7482   22.4727 C   0  0  0  0  0  0  0  0  0  0  0  0
   10.6707  -16.4232   22.2925 C   0  0  2  0  0  0  0  0  0  0  0  0
   10.4572  -15.2371   21.4812 N   0  0  0  0  0  0  0  0  0  0  0  0
   10.0373  -16.2885   23.6287 C   0  0  0  0  0  0  0  0  0  0  0  0
    9.4230  -15.2389   23.9109 O   0  0  0  0  0  0  0  0  0  0  0  0
   10.1333  -17.3206   24.5425 O   0  0  0  0  0  0  0  0  0  0  0  0
  2  1  1  6
  2  3  1  0
  3  4  1  0
  4  8  1  0
  5  4  2  0
  6  2  1  0
  7  6  2  0
  9 13  1  0
  9  6  1  0
 10  9  1  0
 11 12  1  0
 11 10  1  0
 12 13  1  0
 13 14  1  1
 14 18  1  0
 15 14  2  0
 17 16  1  1
 17 19  1  0
 18 17  1  0
 19 20  2  0
 19 21  1  0
M  END
$$$$
