DPA.pdb
     RDKit          3D

 21 21  0  0  1  0  0  0  0  0999 V2000
    9.8047  -17.3446   17.6667 N   0  0  0  0  0  0  0  0  0  0  0  0
    8.7461  -17.3177   18.6647 C   0  0  1  0  0  0  0  0  0  0  0  0
    8.2758  -18.7150   18.9932 C   0  0  0  0  0  0  0  0  0  0  0  0
    7.6585  -19.3910   17.8428 C   0  0  0  0  0  0  0  0  0  0  0  0
    6.8851  -18.7446   17.0928 O   0  0  0  0  0  0  0  0  0  0  0  0
    9.2673  -16.6411   19.8701 C   0  0  0  0  0  0  0  0  0  0  0  0
   10.4386  -16.8750   20.2811 O   0  0  0  0  0  0  0  0  0  0  0  0
    7.8776  -20.7172   17.5258 O   0  0  0  0  0  0  0  0  0  0  0  0
    8.4850  -15.7109   20.6067 N   0  0  0  0  0  0  0  0  0  0  0  0
    7.1379  -15.2268   20.2512 C   0  0  0  0  0  0  0  0  0  0  0  0
    7.1643  -13.8299   20.8949 C   0  0  0  0  0  0  0  0  0  0  0  0
    7.7817  -14.1979   22.2247 C   0  0  0  0  0  0  0  0  0  0  0  0
    8.9108  -15.0737   21.8278 C   0  0  1  0  0  0  0  0  0  0  0  0
    9.2994  -16.0517   22.8695 C   0  0  0  0  0  0  0  0  0  0  0  0
    8.5966  -17.0872   22.9773 O   0  0  0  0  0  0  0  0  0  0  0  0
   12.0747  -16.7682   25.3021 C   0  0  0  0  0  0  0  0  0  0  0  0
   10.6905  -16.9083   24.7303 C   0  0  2  0  0  0  0  0  0  0  0  0
   10.3910  -15.8952   23.7331 N   0  0  0  0  0  0  0  0  0  0  0  0
    9.7048  -16.8857   25.8406 C   0  0  0  0  0  0  0  0  0  0  0  0
    9.6772  -17.8336   26.6528 O   0  0  0  0  0  0  0  0  0  0  0  0
    8.8320  -15.8215   25.9639 O   0  0  0  0  0  0  0  0  0  0  0  0
  2  1  1  6
  2  3  1  0
  3  4  1  0
  4  8  1  0
  5  4  2  0
  6  2  1  0
  7  6  2  0
  9 13  1  0
  9  6  1  0
 10  9  1  0
 11 12  1  0
 11 10  1  0
 12 13  1  0
 13 14  1  1
 14 18  1  0
 15 14  2  0
 17 16  1  1
 17 19  1  0
 18 17  1  0
 19 20  2  0
 19 21  1  0
M  END
$$$$
