DPA.pdb
     RDKit          3D

 21 21  0  0  1  0  0  0  0  0999 V2000
    6.4123  -18.8338   18.7063 N   0  0  0  0  0  0  0  0  0  0  0  0
    6.1848  -18.0223   19.8925 C   0  0  1  0  0  0  0  0  0  0  0  0
    5.5652  -18.8424   20.9992 C   0  0  0  0  0  0  0  0  0  0  0  0
    4.1689  -19.2089   20.7203 C   0  0  0  0  0  0  0  0  0  0  0  0
    3.8557  -19.6045   19.5697 O   0  0  0  0  0  0  0  0  0  0  0  0
    7.4815  -17.4575   20.3192 C   0  0  0  0  0  0  0  0  0  0  0  0
    8.5420  -18.1358   20.2148 O   0  0  0  0  0  0  0  0  0  0  0  0
    3.1583  -19.1457   21.6594 O   0  0  0  0  0  0  0  0  0  0  0  0
    7.5894  -16.1459   20.8558 N   0  0  0  0  0  0  0  0  0  0  0  0
    6.4823  -15.1950   21.0694 C   0  0  0  0  0  0  0  0  0  0  0  0
    7.2292  -13.8586   20.9193 C   0  0  0  0  0  0  0  0  0  0  0  0
    8.4516  -14.1807   21.7481 C   0  0  0  0  0  0  0  0  0  0  0  0
    8.8282  -15.5301   21.2616 C   0  0  1  0  0  0  0  0  0  0  0  0
    9.5605  -16.3399   22.2617 C   0  0  0  0  0  0  0  0  0  0  0  0
    8.8828  -16.8865   23.1672 O   0  0  0  0  0  0  0  0  0  0  0  0
   12.7444  -18.1807   22.5983 C   0  0  0  0  0  0  0  0  0  0  0  0
   11.5615  -17.4647   23.1905 C   0  0  2  0  0  0  0  0  0  0  0  0
   10.9479  -16.5323   22.2606 N   0  0  0  0  0  0  0  0  0  0  0  0
   11.9848  -16.7852   24.4411 C   0  0  0  0  0  0  0  0  0  0  0  0
   12.3716  -17.4723   25.4091 O   0  0  0  0  0  0  0  0  0  0  0  0
   11.9469  -15.4062   24.5213 O   0  0  0  0  0  0  0  0  0  0  0  0
  2  1  1  6
  2  3  1  0
  3  4  1  0
  4  8  1  0
  5  4  2  0
  6  2  1  0
  7  6  2  0
  9 13  1  0
  9  6  1  0
 10  9  1  0
 11 12  1  0
 11 10  1  0
 12 13  1  0
 13 14  1  1
 14 18  1  0
 15 14  2  0
 17 16  1  6
 17 19  1  0
 18 17  1  0
 19 20  2  0
 19 21  1  0
M  END
$$$$
