DPA.pdb
     RDKit          3D

 21 21  0  0  1  0  0  0  0  0999 V2000
    9.7741  -17.0316   18.8335 N   0  0  0  0  0  0  0  0  0  0  0  0
    8.7019  -16.7425   19.7738 C   0  0  1  0  0  0  0  0  0  0  0  0
    7.7772  -17.9275   19.9219 C   0  0  0  0  0  0  0  0  0  0  0  0
    7.5333  -18.6197   18.6479 C   0  0  0  0  0  0  0  0  0  0  0  0
    7.4500  -19.8732   18.6359 O   0  0  0  0  0  0  0  0  0  0  0  0
    9.3116  -16.3856   21.0713 C   0  0  0  0  0  0  0  0  0  0  0  0
   10.4518  -16.8278   21.3874 O   0  0  0  0  0  0  0  0  0  0  0  0
    7.3867  -17.9690   17.4386 O   0  0  0  0  0  0  0  0  0  0  0  0
    8.6514  -15.5410   22.0044 N   0  0  0  0  0  0  0  0  0  0  0  0
    7.3540  -14.8674   21.8082 C   0  0  0  0  0  0  0  0  0  0  0  0
    7.5445  -13.6290   22.7005 C   0  0  0  0  0  0  0  0  0  0  0  0
    8.1544  -14.3036   23.9079 C   0  0  0  0  0  0  0  0  0  0  0  0
    9.1740  -15.1944   23.3025 C   0  0  1  0  0  0  0  0  0  0  0  0
    9.4844  -16.3870   24.1233 C   0  0  0  0  0  0  0  0  0  0  0  0
    8.6535  -17.3289   24.1069 O   0  0  0  0  0  0  0  0  0  0  0  0
   12.3174  -18.1646   25.6524 C   0  0  0  0  0  0  0  0  0  0  0  0
   10.8707  -17.7527   25.6545 C   0  0  2  0  0  0  0  0  0  0  0  0
   10.6355  -16.5284   24.9086 N   0  0  0  0  0  0  0  0  0  0  0  0
   10.4055  -17.6307   27.0593 C   0  0  0  0  0  0  0  0  0  0  0  0
    9.9350  -16.5441   27.4552 O   0  0  0  0  0  0  0  0  0  0  0  0
   10.4972  -18.7151   27.9109 O   0  0  0  0  0  0  0  0  0  0  0  0
  2  1  1  6
  2  3  1  0
  3  4  1  0
  4  8  1  0
  5  4  2  0
  6  2  1  0
  7  6  2  0
  9 13  1  0
  9  6  1  0
 10  9  1  0
 11 12  1  0
 11 10  1  0
 12 13  1  0
 13 14  1  1
 14 18  1  0
 15 14  2  0
 17 16  1  1
 17 19  1  0
 18 17  1  0
 19 20  2  0
 19 21  1  0
M  END
$$$$
