DPA.pdb
     RDKit          3D

 21 21  0  0  1  0  0  0  0  0999 V2000
    7.3353  -16.2711   16.4061 N   0  0  0  0  0  0  0  0  0  0  0  0
    8.6937  -16.7706   16.5568 C   0  0  1  0  0  0  0  0  0  0  0  0
    9.4868  -16.5751   15.2863 C   0  0  0  0  0  0  0  0  0  0  0  0
   10.8802  -17.0270   15.4120 C   0  0  0  0  0  0  0  0  0  0  0  0
   11.7885  -16.1766   15.5857 O   0  0  0  0  0  0  0  0  0  0  0  0
    9.3240  -16.0560   17.6857 C   0  0  0  0  0  0  0  0  0  0  0  0
   10.4964  -16.3474   18.0549 O   0  0  0  0  0  0  0  0  0  0  0  0
   11.2640  -18.3522   15.3504 O   0  0  0  0  0  0  0  0  0  0  0  0
    8.6487  -15.0246   18.3929 N   0  0  0  0  0  0  0  0  0  0  0  0
    7.3648  -14.4033   18.0174 C   0  0  0  0  0  0  0  0  0  0  0  0
    7.5454  -13.0010   18.6234 C   0  0  0  0  0  0  0  0  0  0  0  0
    8.1148  -13.3991   19.9658 C   0  0  0  0  0  0  0  0  0  0  0  0
    9.1401  -14.4058   19.5987 C   0  0  1  0  0  0  0  0  0  0  0  0
    9.4147  -15.3922   20.6683 C   0  0  0  0  0  0  0  0  0  0  0  0
    8.6596  -16.3938   20.7351 O   0  0  0  0  0  0  0  0  0  0  0  0
   12.0081  -16.4586   23.1010 C   0  0  0  0  0  0  0  0  0  0  0  0
   10.5799  -16.2411   22.6816 C   0  0  2  0  0  0  0  0  0  0  0  0
   10.4538  -15.2787   21.6006 N   0  0  0  0  0  0  0  0  0  0  0  0
    9.7852  -15.8331   23.8676 C   0  0  0  0  0  0  0  0  0  0  0  0
    9.2935  -14.6863   23.9088 O   0  0  0  0  0  0  0  0  0  0  0  0
    9.5983  -16.7219   24.9092 O   0  0  0  0  0  0  0  0  0  0  0  0
  2  1  1  6
  2  3  1  0
  3  4  1  0
  4  8  1  0
  5  4  2  0
  6  2  1  0
  7  6  2  0
  9 13  1  0
  9  6  1  0
 10  9  1  0
 11 12  1  0
 11 10  1  0
 12 13  1  0
 13 14  1  1
 14 18  1  0
 15 14  2  0
 17 16  1  1
 17 19  1  0
 18 17  1  0
 19 20  2  0
 19 21  1  0
M  END
$$$$
