DPA.pdb
     RDKit          3D

 21 21  0  0  1  0  0  0  0  0999 V2000
    9.5169  -17.4147   17.0013 N   0  0  0  0  0  0  0  0  0  0  0  0
    8.4427  -16.7728   17.7438 C   0  0  1  0  0  0  0  0  0  0  0  0
    7.4018  -17.7806   18.1707 C   0  0  0  0  0  0  0  0  0  0  0  0
    6.7144  -18.4040   17.0304 C   0  0  0  0  0  0  0  0  0  0  0  0
    6.5573  -17.7447   15.9725 O   0  0  0  0  0  0  0  0  0  0  0  0
    9.0340  -16.0979   18.9174 C   0  0  0  0  0  0  0  0  0  0  0  0
   10.0667  -16.5664   19.4739 O   0  0  0  0  0  0  0  0  0  0  0  0
    6.2199  -19.6934   17.0459 O   0  0  0  0  0  0  0  0  0  0  0  0
    8.4751  -14.9098   19.4613 N   0  0  0  0  0  0  0  0  0  0  0  0
    7.3692  -14.1212   18.8862 C   0  0  0  0  0  0  0  0  0  0  0  0
    7.7238  -12.7192   19.4108 C   0  0  0  0  0  0  0  0  0  0  0  0
    8.0624  -13.0835   20.8382 C   0  0  0  0  0  0  0  0  0  0  0  0
    8.9302  -14.2747   20.6729 C   0  0  1  0  0  0  0  0  0  0  0  0
    8.9079  -15.1927   21.8345 C   0  0  0  0  0  0  0  0  0  0  0  0
    7.8931  -15.9198   21.9737 O   0  0  0  0  0  0  0  0  0  0  0  0
    9.9035  -17.6701   23.4387 C   0  0  0  0  0  0  0  0  0  0  0  0
    9.8277  -16.2351   23.8835 C   0  0  2  0  0  0  0  0  0  0  0  0
    9.9377  -15.2992   22.7779 N   0  0  0  0  0  0  0  0  0  0  0  0
   10.8747  -15.9913   24.9078 C   0  0  0  0  0  0  0  0  0  0  0  0
   10.8830  -16.6797   25.9494 O   0  0  0  0  0  0  0  0  0  0  0  0
   11.8251  -15.0099   24.6998 O   0  0  0  0  0  0  0  0  0  0  0  0
  2  1  1  1
  2  3  1  0
  3  4  1  0
  4  8  1  0
  5  4  2  0
  6  2  1  0
  7  6  2  0
  9 13  1  0
  9  6  1  0
 10  9  1  0
 11 12  1  0
 11 10  1  0
 12 13  1  0
 13 14  1  1
 14 18  1  0
 15 14  2  0
 17 16  1  6
 17 19  1  0
 18 17  1  0
 19 20  2  0
 19 21  1  0
M  END
$$$$
