RMH.pdb
     RDKit          3D

 30 30  0  0  1  0  0  0  0  0999 V2000
    7.2511  -13.7141   17.8050 N   0  0  0  0  0  0  0  0  0  0  0  0
    8.4027  -13.1260   18.3806 C   0  0  0  0  0  0  0  0  0  0  0  0
    8.3190  -12.0972   19.1469 N   0  0  0  0  0  0  0  0  0  0  0  0
    9.7051  -13.6611   18.1259 N   0  0  0  0  0  0  0  0  0  0  0  0
   10.2372  -14.7737   18.8824 C   0  0  0  0  0  0  0  0  0  0  0  0
    9.2374  -15.9084   18.8495 C   0  0  0  0  0  0  0  0  0  0  0  0
    9.4342  -16.8662   19.9926 C   0  0  0  0  0  0  0  0  0  0  0  0
    8.2871  -16.7332   20.9446 C   0  0  2  0  0  0  0  0  0  0  0  0
    7.1371  -16.1847   20.2881 N   0  0  0  0  0  0  0  0  0  0  0  0
    8.6527  -15.9890   22.1749 C   0  0  0  0  0  0  0  0  0  0  0  0
    9.0589  -14.8059   22.0516 O   0  0  0  0  0  0  0  0  0  0  0  0
    9.1451  -11.6007   19.4839 C   0  0  0  0  0  0  0  0  0  0  0  0
    7.4155  -11.2913   26.6351 S   0  0  0  0  0  0  0  0  0  0  0  0
    6.5772  -12.8764   26.3559 C   0  0  0  0  0  0  0  0  0  0  0  0
    7.7639  -14.2508   26.3206 C   0  0  0  0  0  0  0  0  0  0  0  0
    7.5872  -14.9743   25.0072 C   0  0  1  0  0  0  0  0  0  0  0  0
    8.7719  -15.8615   24.6831 N   0  0  0  0  0  0  0  0  0  0  0  0
    8.5452  -16.5971   23.4400 C   0  0  0  0  0  0  0  0  0  0  0  0
    8.9187  -16.8111   25.8217 O   0  0  0  0  0  0  0  0  0  0  0  0
    7.8947  -17.3728   26.2683 N   0  0  0  0  0  0  0  0  0  0  0  0
   10.1745  -17.1020   26.4173 C   0  0  1  0  0  0  0  0  0  0  0  0
   10.3646  -18.0870   27.4569 C   0  0  0  0  0  0  0  0  0  0  0  0
   11.7465  -18.6959   27.4317 C   0  0  0  0  0  0  0  0  0  0  0  0
   12.0569  -19.3040   26.1234 C   0  0  0  0  0  0  0  0  0  0  0  0
   11.1825  -20.0128   25.3314 N   0  0  0  0  0  0  0  0  0  0  0  0
   11.8884  -20.3754   24.2431 C   0  0  0  0  0  0  0  0  0  0  0  0
   13.1492  -19.9242   24.3298 N   0  0  0  0  0  0  0  0  0  0  0  0
   13.2455  -19.2695   25.4829 C   0  0  0  0  0  0  0  0  0  0  0  0
   10.2005  -17.4067   28.7683 O   0  0  0  0  0  0  0  0  0  0  0  0
   10.2723  -18.1330   29.9602 O   0  0  0  0  0  0  0  0  0  0  0  0
  2  1  1  0
  2  4  1  0
  3  2  2  0
  4  5  1  0
  5  6  1  0
  7  6  1  0
  7  8  1  0
  8 10  1  0
  8  9  1  6
 10 11  2  0
 13 14  1  0
 13 12  1  0
 14 15  1  0
 16 15  1  6
 17 16  1  0
 17 10  1  0
 18 20  1  0
 18 16  1  0
 19 18  2  0
 21 20  1  0
 21 22  1  1
 23 27  1  0
 23 22  1  0
 24 23  2  0
 25 24  1  0
 25 26  1  0
 26 27  2  0
 28 21  1  0
 29 28  1  0
 30 28  2  0
M  END
$$$$
