RMH.pdb
     RDKit          3D

 30 30  0  0  1  0  0  0  0  0999 V2000
    9.3603  -19.1607   19.4397 N   0  0  0  0  0  0  0  0  0  0  0  0
    9.8187  -18.5117   18.2684 C   0  0  0  0  0  0  0  0  0  0  0  0
   10.9429  -18.8206   17.7265 N   0  0  0  0  0  0  0  0  0  0  0  0
    9.0408  -17.4845   17.6463 N   0  0  0  0  0  0  0  0  0  0  0  0
    7.7690  -17.0545   18.1856 C   0  0  0  0  0  0  0  0  0  0  0  0
    8.0228  -16.1097   19.3393 C   0  0  0  0  0  0  0  0  0  0  0  0
    6.8504  -15.2019   19.5925 C   0  0  0  0  0  0  0  0  0  0  0  0
    7.3548  -13.8645   20.0364 C   0  0  2  0  0  0  0  0  0  0  0  0
    8.1946  -13.2754   19.0355 N   0  0  0  0  0  0  0  0  0  0  0  0
    8.0035  -13.9157   21.3698 C   0  0  0  0  0  0  0  0  0  0  0  0
    9.2514  -14.0593   21.4152 O   0  0  0  0  0  0  0  0  0  0  0  0
   11.2858  -18.3586   16.8830 C   0  0  0  0  0  0  0  0  0  0  0  0
    7.4027  -11.4110   28.7485 S   0  0  0  0  0  0  0  0  0  0  0  0
    6.6497  -11.7376   27.1300 C   0  0  0  0  0  0  0  0  0  0  0  0
    7.5168  -13.0745   26.2587 C   0  0  0  0  0  0  0  0  0  0  0  0
    6.8773  -13.2250   24.8992 C   0  0  2  0  0  0  0  0  0  0  0  0
    7.8434  -13.7858   23.8756 N   0  0  0  0  0  0  0  0  0  0  0  0
    7.2367  -13.8059   22.5454 C   0  0  0  0  0  0  0  0  0  0  0  0
    8.1703  -15.1725   24.3113 O   0  0  0  0  0  0  0  0  0  0  0  0
    7.2610  -16.0308   24.3082 N   0  0  0  0  0  0  0  0  0  0  0  0
    9.4723  -15.5555   24.7289 C   0  0  1  0  0  0  0  0  0  0  0  0
    9.8113  -16.8789   25.1988 C   0  0  0  0  0  0  0  0  0  0  0  0
   11.2229  -17.2772   24.8384 C   0  0  0  0  0  0  0  0  0  0  0  0
   11.3771  -17.5092   23.3892 C   0  0  0  0  0  0  0  0  0  0  0  0
   10.3738  -17.4555   22.4487 N   0  0  0  0  0  0  0  0  0  0  0  0
   10.9641  -17.7305   21.2697 C   0  0  0  0  0  0  0  0  0  0  0  0
   12.2767  -17.9494   21.4420 N   0  0  0  0  0  0  0  0  0  0  0  0
   12.5228  -17.8124   22.7413 C   0  0  0  0  0  0  0  0  0  0  0  0
    9.7127  -16.8778   26.6819 O   0  0  0  0  0  0  0  0  0  0  0  0
    9.8945  -18.0583   27.4076 O   0  0  0  0  0  0  0  0  0  0  0  0
  2  1  1  0
  2  4  1  0
  3  2  2  0
  4  5  1  0
  5  6  1  0
  7  6  1  0
  7  8  1  0
  8 10  1  0
  8  9  1  6
 10 11  2  0
 13 14  1  0
 13 12  1  0
 14 15  1  0
 16 15  1  6
 17 16  1  0
 17 10  1  0
 18 20  1  0
 18 16  1  0
 19 18  2  0
 21 20  1  0
 21 22  1  1
 23 27  1  0
 23 22  1  0
 24 23  2  0
 25 24  1  0
 25 26  1  0
 26 27  2  0
 28 21  1  0
 29 28  1  0
 30 28  2  0
M  END
$$$$
