RMH.pdb
     RDKit          3D

 30 30  0  0  1  0  0  0  0  0999 V2000
    7.7548  -12.4808   15.9635 N   0  0  0  0  0  0  0  0  0  0  0  0
    8.2463  -13.6892   15.4145 C   0  0  0  0  0  0  0  0  0  0  0  0
    8.4053  -13.8346   14.1471 N   0  0  0  0  0  0  0  0  0  0  0  0
    8.5837  -14.7947   16.2580 N   0  0  0  0  0  0  0  0  0  0  0  0
    7.6609  -15.3158   17.2430 C   0  0  0  0  0  0  0  0  0  0  0  0
    7.9403  -14.6511   18.5727 C   0  0  0  0  0  0  0  0  0  0  0  0
    6.9808  -15.1013   19.6402 C   0  0  0  0  0  0  0  0  0  0  0  0
    7.6684  -16.0884   20.5307 C   0  0  2  0  0  0  0  0  0  0  0  0
    6.7926  -17.1717   20.8676 N   0  0  0  0  0  0  0  0  0  0  0  0
    8.2749  -15.4503   21.7250 C   0  0  0  0  0  0  0  0  0  0  0  0
    9.2353  -14.6588   21.5490 O   0  0  0  0  0  0  0  0  0  0  0  0
    8.8384  -14.6671   13.7447 C   0  0  0  0  0  0  0  0  0  0  0  0
    7.4420  -11.3670   28.0583 S   0  0  0  0  0  0  0  0  0  0  0  0
    6.7408  -12.3786   26.7248 C   0  0  0  0  0  0  0  0  0  0  0  0
    7.8968  -13.6814   26.2100 C   0  0  0  0  0  0  0  0  0  0  0  0
    7.3170  -14.3507   24.9871 C   0  0  2  0  0  0  0  0  0  0  0  0
    8.3622  -15.1321   24.2175 N   0  0  0  0  0  0  0  0  0  0  0  0
    7.7834  -15.7286   23.0145 C   0  0  0  0  0  0  0  0  0  0  0  0
    8.8571  -16.1992   25.1319 O   0  0  0  0  0  0  0  0  0  0  0  0
    8.0289  -16.9944   25.6273 N   0  0  0  0  0  0  0  0  0  0  0  0
   10.2304  -16.3472   25.4613 C   0  0  1  0  0  0  0  0  0  0  0  0
   10.7633  -17.4587   26.2148 C   0  0  0  0  0  0  0  0  0  0  0  0
   12.2549  -17.6160   26.0377 C   0  0  0  0  0  0  0  0  0  0  0  0
   12.6099  -17.9808   24.6525 C   0  0  0  0  0  0  0  0  0  0  0  0
   11.7251  -18.2443   23.6318 N   0  0  0  0  0  0  0  0  0  0  0  0
   12.4838  -18.5299   22.5563 C   0  0  0  0  0  0  0  0  0  0  0  0
   13.7869  -18.4544   22.8678 N   0  0  0  0  0  0  0  0  0  0  0  0
   13.8569  -18.1180   24.1521 C   0  0  0  0  0  0  0  0  0  0  0  0
   10.5099  -17.1987   27.6562 O   0  0  0  0  0  0  0  0  0  0  0  0
   10.8576  -18.1473   28.6218 O   0  0  0  0  0  0  0  0  0  0  0  0
  2  1  1  0
  2  4  1  0
  3  2  2  0
  4  5  1  0
  5  6  1  0
  7  6  1  0
  7  8  1  0
  8 10  1  0
  8  9  1  1
 10 11  2  0
 13 14  1  0
 13 12  1  0
 14 15  1  0
 16 15  1  6
 17 16  1  0
 17 10  1  0
 18 20  1  0
 18 16  1  0
 19 18  2  0
 21 20  1  0
 21 22  1  1
 23 27  1  0
 23 22  1  0
 24 23  2  0
 25 24  1  0
 25 26  1  0
 26 27  2  0
 28 21  1  0
 29 28  1  0
 30 28  2  0
M  END
$$$$
