RMH.pdb
     RDKit          3D

 30 30  0  0  1  0  0  0  0  0999 V2000
   10.1333  -14.2786   17.8191 N   0  0  0  0  0  0  0  0  0  0  0  0
    9.0362  -14.4441   16.9404 C   0  0  0  0  0  0  0  0  0  0  0  0
    9.1198  -15.1882   15.8954 N   0  0  0  0  0  0  0  0  0  0  0  0
    7.7912  -13.7840   17.1886 N   0  0  0  0  0  0  0  0  0  0  0  0
    7.5863  -12.9478   18.3513 C   0  0  0  0  0  0  0  0  0  0  0  0
    7.2417  -13.8292   19.5313 C   0  0  0  0  0  0  0  0  0  0  0  0
    8.3047  -13.7881   20.5948 C   0  0  0  0  0  0  0  0  0  0  0  0
    8.3231  -15.0982   21.3183 C   0  0  2  0  0  0  0  0  0  0  0  0
    7.0722  -15.7824   21.1715 N   0  0  0  0  0  0  0  0  0  0  0  0
    8.7359  -14.9586   22.7365 C   0  0  0  0  0  0  0  0  0  0  0  0
    9.8683  -14.4692   22.9773 O   0  0  0  0  0  0  0  0  0  0  0  0
    8.3573  -15.2673   15.2210 C   0  0  0  0  0  0  0  0  0  0  0  0
    6.8189  -10.6668   26.7905 S   0  0  0  0  0  0  0  0  0  0  0  0
    7.2673  -12.3982   27.0977 C   0  0  0  0  0  0  0  0  0  0  0  0
    6.7162  -13.4713   25.7402 C   0  0  0  0  0  0  0  0  0  0  0  0
    7.1494  -14.8805   26.0660 C   0  0  2  0  0  0  0  0  0  0  0  0
    8.2877  -15.3444   25.1802 N   0  0  0  0  0  0  0  0  0  0  0  0
    7.8785  -15.3647   23.7766 C   0  0  0  0  0  0  0  0  0  0  0  0
    8.6463  -16.7188   25.6299 O   0  0  0  0  0  0  0  0  0  0  0  0
    7.7580  -17.5989   25.6312 N   0  0  0  0  0  0  0  0  0  0  0  0
    9.9555  -17.0664   26.0559 C   0  0  1  0  0  0  0  0  0  0  0  0
   10.3153  -18.3648   26.5772 C   0  0  0  0  0  0  0  0  0  0  0  0
   11.6211  -18.8732   26.0138 C   0  0  0  0  0  0  0  0  0  0  0  0
   11.5597  -19.0448   24.5493 C   0  0  0  0  0  0  0  0  0  0  0  0
   10.5149  -19.5930   23.8408 N   0  0  0  0  0  0  0  0  0  0  0  0
   10.8885  -19.5488   22.5475 C   0  0  0  0  0  0  0  0  0  0  0  0
   12.1082  -19.0016   22.4298 N   0  0  0  0  0  0  0  0  0  0  0  0
   12.5131  -18.6955   23.6586 C   0  0  0  0  0  0  0  0  0  0  0  0
   10.4836  -18.2373   28.0485 O   0  0  0  0  0  0  0  0  0  0  0  0
   10.7873  -19.3561   28.8292 O   0  0  0  0  0  0  0  0  0  0  0  0
  2  1  1  0
  2  4  1  0
  3  2  2  0
  4  5  1  0
  5  6  1  0
  7  6  1  0
  7  8  1  0
  8 10  1  0
  8  9  1  1
 10 11  2  0
 13 14  1  0
 13 12  1  0
 14 15  1  0
 16 15  1  6
 17 16  1  0
 17 10  1  0
 18 20  1  0
 18 16  1  0
 19 18  2  0
 21 20  1  0
 21 22  1  1
 23 27  1  0
 23 22  1  0
 24 23  2  0
 25 24  1  0
 25 26  1  0
 26 27  2  0
 28 21  1  0
 29 28  1  0
 30 28  2  0
M  END
$$$$
