RMH.pdb
     RDKit          3D

 30 30  0  0  1  0  0  0  0  0999 V2000
    7.7156  -12.4204   18.8761 N   0  0  0  0  0  0  0  0  0  0  0  0
    8.3885  -13.1758   17.8862 C   0  0  0  0  0  0  0  0  0  0  0  0
    9.1563  -12.6151   17.0208 N   0  0  0  0  0  0  0  0  0  0  0  0
    8.2343  -14.5966   17.8164 N   0  0  0  0  0  0  0  0  0  0  0  0
    7.0249  -15.2581   18.2559 C   0  0  0  0  0  0  0  0  0  0  0  0
    7.3703  -16.2094   19.3801 C   0  0  0  0  0  0  0  0  0  0  0  0
    7.7929  -15.4799   20.6259 C   0  0  0  0  0  0  0  0  0  0  0  0
    8.1708  -16.4798   21.6734 C   0  0  2  0  0  0  0  0  0  0  0  0
    7.2327  -17.5628   21.7104 N   0  0  0  0  0  0  0  0  0  0  0  0
    8.3792  -15.8577   23.0041 C   0  0  0  0  0  0  0  0  0  0  0  0
    8.2751  -14.6084   23.0957 O   0  0  0  0  0  0  0  0  0  0  0  0
    9.5737  -13.1335   16.2465 C   0  0  0  0  0  0  0  0  0  0  0  0
    7.2317  -11.1491   26.1665 S   0  0  0  0  0  0  0  0  0  0  0  0
    7.4128  -12.8684   26.7180 C   0  0  0  0  0  0  0  0  0  0  0  0
    7.3734  -14.0178   25.3123 C   0  0  0  0  0  0  0  0  0  0  0  0
    7.4707  -15.4197   25.8646 C   0  0  2  0  0  0  0  0  0  0  0  0
    8.7706  -16.0945   25.4764 N   0  0  0  0  0  0  0  0  0  0  0  0
    8.6843  -16.6504   24.1268 C   0  0  0  0  0  0  0  0  0  0  0  0
    8.9985  -17.1842   26.4665 O   0  0  0  0  0  0  0  0  0  0  0  0
    8.0517  -17.9550   26.7367 N   0  0  0  0  0  0  0  0  0  0  0  0
   10.2473  -17.3804   27.1132 C   0  0  1  0  0  0  0  0  0  0  0  0
   10.5295  -18.4825   28.0037 C   0  0  0  0  0  0  0  0  0  0  0  0
   11.9441  -18.9926   27.8633 C   0  0  0  0  0  0  0  0  0  0  0  0
   12.2373  -19.4316   26.4852 C   0  0  0  0  0  0  0  0  0  0  0  0
   12.4562  -18.6106   25.4025 N   0  0  0  0  0  0  0  0  0  0  0  0
   12.6825  -19.4337   24.3607 C   0  0  0  0  0  0  0  0  0  0  0  0
   12.6131  -20.7155   24.7517 N   0  0  0  0  0  0  0  0  0  0  0  0
   12.3403  -20.7070   26.0529 C   0  0  0  0  0  0  0  0  0  0  0  0
   10.3665  -17.9972   29.3992 O   0  0  0  0  0  0  0  0  0  0  0  0
   10.5018  -18.8755   30.4780 O   0  0  0  0  0  0  0  0  0  0  0  0
  2  1  1  0
  2  4  1  0
  3  2  2  0
  4  5  1  0
  5  6  1  0
  7  6  1  0
  7  8  1  0
  8 10  1  0
  8  9  1  1
 10 11  2  0
 13 14  1  0
 13 12  1  0
 14 15  1  0
 16 15  1  6
 17 16  1  0
 17 10  1  0
 18 20  1  0
 18 16  1  0
 19 18  2  0
 21 20  1  0
 21 22  1  1
 23 27  1  0
 23 22  1  0
 24 23  2  0
 25 24  1  0
 25 26  1  0
 26 27  2  0
 28 21  1  0
 29 28  1  0
 30 28  2  0
M  END
$$$$
