RMH.pdb
     RDKit          3D

 30 30  0  0  1  0  0  0  0  0999 V2000
   10.2008  -14.0153   18.6608 N   0  0  0  0  0  0  0  0  0  0  0  0
    9.0206  -13.5115   18.0636 C   0  0  0  0  0  0  0  0  0  0  0  0
    8.8633  -12.2544   17.8449 N   0  0  0  0  0  0  0  0  0  0  0  0
    7.9582  -14.3907   17.6821 N   0  0  0  0  0  0  0  0  0  0  0  0
    7.0014  -14.8972   18.6420 C   0  0  0  0  0  0  0  0  0  0  0  0
    7.7523  -15.5544   19.7787 C   0  0  0  0  0  0  0  0  0  0  0  0
    6.8216  -16.1753   20.7843 C   0  0  0  0  0  0  0  0  0  0  0  0
    7.6305  -16.8517   21.8464 C   0  0  2  0  0  0  0  0  0  0  0  0
    6.7912  -17.6171   22.7205 N   0  0  0  0  0  0  0  0  0  0  0  0
    8.5096  -15.9075   22.5792 C   0  0  0  0  0  0  0  0  0  0  0  0
    9.4009  -15.3042   21.9299 O   0  0  0  0  0  0  0  0  0  0  0  0
    7.9915  -11.8708   17.4768 C   0  0  0  0  0  0  0  0  0  0  0  0
    5.3946  -10.8734   26.2011 S   0  0  0  0  0  0  0  0  0  0  0  0
    6.5721  -12.1552   26.7146 C   0  0  0  0  0  0  0  0  0  0  0  0
    7.2353  -13.0517   25.2811 C   0  0  0  0  0  0  0  0  0  0  0  0
    8.2138  -14.0794   25.7968 C   0  0  2  0  0  0  0  0  0  0  0  0
    9.0690  -14.6568   24.6874 N   0  0  0  0  0  0  0  0  0  0  0  0
    8.3440  -15.6988   23.9615 C   0  0  0  0  0  0  0  0  0  0  0  0
   10.2801  -15.2322   25.3368 O   0  0  0  0  0  0  0  0  0  0  0  0
   11.0267  -14.4717   25.9910 N   0  0  0  0  0  0  0  0  0  0  0  0
   10.6179  -16.6081   25.2415 C   0  0  1  0  0  0  0  0  0  0  0  0
   11.1526  -17.3845   26.3362 C   0  0  0  0  0  0  0  0  0  0  0  0
   10.1575  -17.5651   27.4580 C   0  0  0  0  0  0  0  0  0  0  0  0
   10.2517  -16.4836   28.4576 C   0  0  0  0  0  0  0  0  0  0  0  0
   11.0333  -15.3551   28.3593 N   0  0  0  0  0  0  0  0  0  0  0  0
   10.8065  -14.6551   29.4874 C   0  0  0  0  0  0  0  0  0  0  0  0
    9.9262  -15.2983   30.2697 N   0  0  0  0  0  0  0  0  0  0  0  0
    9.5908  -16.4165   29.6336 C   0  0  0  0  0  0  0  0  0  0  0  0
   11.4906  -18.7358   25.8175 O   0  0  0  0  0  0  0  0  0  0  0  0
   11.1446  -19.1045   24.5145 O   0  0  0  0  0  0  0  0  0  0  0  0
  2  1  1  0
  2  4  1  0
  3  2  2  0
  4  5  1  0
  5  6  1  0
  7  6  1  0
  7  8  1  0
  8 10  1  0
  8  9  1  1
 10 11  2  0
 13 14  1  0
 13 12  1  0
 14 15  1  0
 16 15  1  6
 17 16  1  0
 17 10  1  0
 18 20  1  0
 18 16  1  0
 19 18  2  0
 21 20  1  0
 21 22  1  1
 23 27  1  0
 23 22  1  0
 24 23  2  0
 25 24  1  0
 25 26  1  0
 26 27  2  0
 28 21  1  0
 29 28  1  0
 30 28  2  0
M  END
$$$$
