RMH.pdb
     RDKit          3D

 30 30  0  0  1  0  0  0  0  0999 V2000
    8.6135  -19.7746   17.1327 N   0  0  0  0  0  0  0  0  0  0  0  0
    9.0871  -19.4313   18.4216 C   0  0  0  0  0  0  0  0  0  0  0  0
    9.5836  -20.3158   19.2116 N   0  0  0  0  0  0  0  0  0  0  0  0
    9.0276  -18.0805   18.8895 N   0  0  0  0  0  0  0  0  0  0  0  0
    8.4489  -17.0194   18.0942 C   0  0  0  0  0  0  0  0  0  0  0  0
    8.5368  -15.7243   18.8708 C   0  0  0  0  0  0  0  0  0  0  0  0
    7.1957  -15.2899   19.3956 C   0  0  0  0  0  0  0  0  0  0  0  0
    7.3176  -13.9120   19.9671 C   0  0  2  0  0  0  0  0  0  0  0  0
    7.9494  -13.0248   19.0355 N   0  0  0  0  0  0  0  0  0  0  0  0
    7.9723  -13.9047   21.2985 C   0  0  0  0  0  0  0  0  0  0  0  0
    9.2274  -13.9576   21.3405 O   0  0  0  0  0  0  0  0  0  0  0  0
    9.8991  -20.0871   20.1553 C   0  0  0  0  0  0  0  0  0  0  0  0
    6.9602  -12.0879   28.9466 S   0  0  0  0  0  0  0  0  0  0  0  0
    6.2520  -12.3730   27.3003 C   0  0  0  0  0  0  0  0  0  0  0  0
    7.4305  -13.2304   26.2167 C   0  0  0  0  0  0  0  0  0  0  0  0
    6.8341  -13.2671   24.8301 C   0  0  1  0  0  0  0  0  0  0  0  0
    7.8104  -13.8084   23.8057 N   0  0  0  0  0  0  0  0  0  0  0  0
    7.2032  -13.8404   22.4759 C   0  0  0  0  0  0  0  0  0  0  0  0
    8.1651  -15.1884   24.2409 O   0  0  0  0  0  0  0  0  0  0  0  0
    7.2582  -16.0469   24.3068 N   0  0  0  0  0  0  0  0  0  0  0  0
    9.4908  -15.5650   24.5828 C   0  0  1  0  0  0  0  0  0  0  0  0
    9.8584  -16.8790   25.0578 C   0  0  0  0  0  0  0  0  0  0  0  0
   11.2797  -17.2461   24.7029 C   0  0  0  0  0  0  0  0  0  0  0  0
   11.4582  -17.4154   23.2477 C   0  0  0  0  0  0  0  0  0  0  0  0
   10.4609  -17.3828   22.2999 N   0  0  0  0  0  0  0  0  0  0  0  0
   11.0751  -17.5807   21.1176 C   0  0  0  0  0  0  0  0  0  0  0  0
   12.3965  -17.7324   21.2949 N   0  0  0  0  0  0  0  0  0  0  0  0
   12.6241  -17.6301   22.6007 C   0  0  0  0  0  0  0  0  0  0  0  0
    9.7553  -16.8755   26.5407 O   0  0  0  0  0  0  0  0  0  0  0  0
    9.3364  -15.7292   27.2218 O   0  0  0  0  0  0  0  0  0  0  0  0
  2  1  1  0
  2  4  1  0
  3  2  2  0
  4  5  1  0
  5  6  1  0
  7  6  1  0
  7  8  1  0
  8 10  1  0
  8  9  1  6
 10 11  2  0
 13 14  1  0
 13 12  1  0
 14 15  1  0
 16 15  1  6
 17 16  1  0
 17 10  1  0
 18 20  1  0
 18 16  1  0
 19 18  2  0
 21 20  1  0
 21 22  1  1
 23 27  1  0
 23 22  1  0
 24 23  2  0
 25 24  1  0
 25 26  1  0
 26 27  2  0
 28 21  1  0
 29 28  1  0
 30 28  2  0
M  END
$$$$
