RMH.pdb
     RDKit          3D

 30 30  0  0  1  0  0  0  0  0999 V2000
    9.1637  -13.1648   15.1950 N   0  0  0  0  0  0  0  0  0  0  0  0
    8.0087  -13.6074   15.8829 C   0  0  0  0  0  0  0  0  0  0  0  0
    7.1954  -14.4514   15.3548 N   0  0  0  0  0  0  0  0  0  0  0  0
    7.7073  -13.1261   17.1963 N   0  0  0  0  0  0  0  0  0  0  0  0
    7.1029  -13.9726   18.2020 C   0  0  0  0  0  0  0  0  0  0  0  0
    7.9970  -15.1708   18.4324 C   0  0  0  0  0  0  0  0  0  0  0  0
    7.3122  -16.2374   19.2425 C   0  0  0  0  0  0  0  0  0  0  0  0
    8.2368  -16.6975   20.3257 C   0  0  2  0  0  0  0  0  0  0  0  0
    7.8072  -17.9531   20.8673 N   0  0  0  0  0  0  0  0  0  0  0  0
    8.4463  -15.6653   21.3707 C   0  0  0  0  0  0  0  0  0  0  0  0
    8.1251  -14.4798   21.1036 O   0  0  0  0  0  0  0  0  0  0  0  0
    6.3535  -14.7707   15.8363 C   0  0  0  0  0  0  0  0  0  0  0  0
    6.2934  -11.9537   27.2432 S   0  0  0  0  0  0  0  0  0  0  0  0
    6.2721  -12.9826   25.7484 C   0  0  0  0  0  0  0  0  0  0  0  0
    7.9368  -13.5819   25.3385 C   0  0  0  0  0  0  0  0  0  0  0  0
    7.8183  -14.4630   24.1181 C   0  0  1  0  0  0  0  0  0  0  0  0
    9.1566  -15.0364   23.6991 N   0  0  0  0  0  0  0  0  0  0  0  0
    8.9897  -16.0115   22.6224 C   0  0  0  0  0  0  0  0  0  0  0  0
    9.7349  -15.6960   24.9033 O   0  0  0  0  0  0  0  0  0  0  0  0
    8.9694  -16.3227   25.6681 N   0  0  0  0  0  0  0  0  0  0  0  0
   11.1192  -15.6402   25.2148 C   0  0  2  0  0  0  0  0  0  0  0  0
   11.8345  -16.6927   25.8986 C   0  0  0  0  0  0  0  0  0  0  0  0
   11.1997  -17.0611   27.2186 C   0  0  0  0  0  0  0  0  0  0  0  0
   10.9418  -15.8739   28.0564 C   0  0  0  0  0  0  0  0  0  0  0  0
   11.0447  -14.5614   27.6555 N   0  0  0  0  0  0  0  0  0  0  0  0
   10.7212  -13.8240   28.7352 C   0  0  0  0  0  0  0  0  0  0  0  0
   10.4260  -14.6190   29.7751 N   0  0  0  0  0  0  0  0  0  0  0  0
   10.5630  -15.8722   29.3528 C   0  0  0  0  0  0  0  0  0  0  0  0
   11.8045  -17.9027   25.0358 O   0  0  0  0  0  0  0  0  0  0  0  0
   12.4666  -19.0704   25.4250 O   0  0  0  0  0  0  0  0  0  0  0  0
  2  1  1  0
  2  4  1  0
  3  2  2  0
  4  5  1  0
  5  6  1  0
  7  6  1  0
  7  8  1  0
  8 10  1  0
  8  9  1  1
 10 11  2  0
 13 14  1  0
 13 12  1  0
 14 15  1  0
 16 15  1  6
 17 16  1  0
 17 10  1  0
 18 20  1  0
 18 16  1  0
 19 18  2  0
 21 20  1  0
 21 22  1  1
 23 27  1  0
 23 22  1  0
 24 23  2  0
 25 24  1  0
 25 26  1  0
 26 27  2  0
 28 21  1  0
 29 28  1  0
 30 28  2  0
M  END
$$$$
