RMH.pdb
     RDKit          3D

 30 30  0  0  1  0  0  0  0  0999 V2000
    8.6674  -13.1178   16.2803 N   0  0  0  0  0  0  0  0  0  0  0  0
    8.2359  -14.1897   15.4629 C   0  0  0  0  0  0  0  0  0  0  0  0
    7.7600  -13.9866   14.2861 N   0  0  0  0  0  0  0  0  0  0  0  0
    8.3157  -15.5420   15.9235 N   0  0  0  0  0  0  0  0  0  0  0  0
    8.8473  -15.8769   17.2267 C   0  0  0  0  0  0  0  0  0  0  0  0
    8.1870  -14.9959   18.2640 C   0  0  0  0  0  0  0  0  0  0  0  0
    8.0630  -15.6874   19.5941 C   0  0  0  0  0  0  0  0  0  0  0  0
    7.4220  -14.7536   20.5724 C   0  0  2  0  0  0  0  0  0  0  0  0
    7.0494  -13.5234   19.9383 N   0  0  0  0  0  0  0  0  0  0  0  0
    8.2509  -14.5441   21.7850 C   0  0  0  0  0  0  0  0  0  0  0  0
    9.4308  -14.1386   21.6320 O   0  0  0  0  0  0  0  0  0  0  0  0
    7.3828  -14.7430   13.7133 C   0  0  0  0  0  0  0  0  0  0  0  0
    7.0825  -11.8535   27.8428 S   0  0  0  0  0  0  0  0  0  0  0  0
    6.0380  -12.1128   26.3817 C   0  0  0  0  0  0  0  0  0  0  0  0
    7.0137  -12.7178   24.9745 C   0  0  0  0  0  0  0  0  0  0  0  0
    7.6587  -14.0182   25.3901 C   0  0  2  0  0  0  0  0  0  0  0  0
    8.5103  -14.6090   24.2850 N   0  0  0  0  0  0  0  0  0  0  0  0
    7.7240  -14.7945   23.0663 C   0  0  0  0  0  0  0  0  0  0  0  0
    9.0036  -15.9239   24.7823 O   0  0  0  0  0  0  0  0  0  0  0  0
    8.1859  -16.8618   24.9066 N   0  0  0  0  0  0  0  0  0  0  0  0
   10.3640  -16.1520   25.1195 C   0  0  2  0  0  0  0  0  0  0  0  0
   10.7971  -17.0791   26.1393 C   0  0  0  0  0  0  0  0  0  0  0  0
   10.0209  -16.9283   27.4261 C   0  0  0  0  0  0  0  0  0  0  0  0
   10.5096  -15.7946   28.2348 C   0  0  0  0  0  0  0  0  0  0  0  0
   11.3571  -14.7989   27.8055 N   0  0  0  0  0  0  0  0  0  0  0  0
   11.5313  -13.9863   28.8654 C   0  0  0  0  0  0  0  0  0  0  0  0
   10.8335  -14.4349   29.9202 N   0  0  0  0  0  0  0  0  0  0  0  0
   10.2106  -15.5418   29.5274 C   0  0  0  0  0  0  0  0  0  0  0  0
   10.5619  -18.4576   25.6352 O   0  0  0  0  0  0  0  0  0  0  0  0
   11.4757  -19.4796   25.9066 O   0  0  0  0  0  0  0  0  0  0  0  0
  2  1  1  0
  2  4  1  0
  3  2  2  0
  4  5  1  0
  5  6  1  0
  7  6  1  0
  7  8  1  0
  8 10  1  0
  8  9  1  6
 10 11  2  0
 13 14  1  0
 13 12  1  0
 14 15  1  0
 16 15  1  6
 17 16  1  0
 17 10  1  0
 18 20  1  0
 18 16  1  0
 19 18  2  0
 21 20  1  0
 21 22  1  6
 23 27  1  0
 23 22  1  0
 24 23  2  0
 25 24  1  0
 25 26  1  0
 26 27  2  0
 28 21  1  0
 29 28  1  0
 30 28  2  0
M  END
$$$$
