RMH.pdb
     RDKit          3D

 30 30  0  0  1  0  0  0  0  0999 V2000
    9.7300  -14.5260   15.6189 N   0  0  0  0  0  0  0  0  0  0  0  0
    8.3581  -14.2954   15.3576 C   0  0  0  0  0  0  0  0  0  0  0  0
    7.9737  -13.6369   14.3226 N   0  0  0  0  0  0  0  0  0  0  0  0
    7.3491  -14.7907   16.2430 N   0  0  0  0  0  0  0  0  0  0  0  0
    7.6780  -15.4139   17.5066 C   0  0  0  0  0  0  0  0  0  0  0  0
    6.9880  -14.6554   18.6187 C   0  0  0  0  0  0  0  0  0  0  0  0
    7.9537  -14.2178   19.6857 C   0  0  0  0  0  0  0  0  0  0  0  0
    8.1117  -15.3213   20.6843 C   0  0  2  0  0  0  0  0  0  0  0  0
    6.9857  -16.2076   20.6513 N   0  0  0  0  0  0  0  0  0  0  0  0
    8.4023  -14.8160   22.0487 C   0  0  0  0  0  0  0  0  0  0  0  0
    9.2866  -13.9319   22.1759 O   0  0  0  0  0  0  0  0  0  0  0  0
    6.9877  -13.5322   14.0792 C   0  0  0  0  0  0  0  0  0  0  0  0
    7.1700  -11.5779   27.9611 S   0  0  0  0  0  0  0  0  0  0  0  0
    6.9879  -12.4487   26.3795 C   0  0  0  0  0  0  0  0  0  0  0  0
    6.6389  -14.2125   26.6359 C   0  0  0  0  0  0  0  0  0  0  0  0
    6.5480  -14.8634   25.2766 C   0  0  2  0  0  0  0  0  0  0  0  0
    7.8419  -14.7374   24.4984 N   0  0  0  0  0  0  0  0  0  0  0  0
    7.7036  -15.3173   23.1633 C   0  0  0  0  0  0  0  0  0  0  0  0
    8.8797  -15.4744   25.2727 O   0  0  0  0  0  0  0  0  0  0  0  0
    9.3456  -14.9438   26.3048 N   0  0  0  0  0  0  0  0  0  0  0  0
    9.3586  -16.7534   24.8842 C   0  0  2  0  0  0  0  0  0  0  0  0
   10.4699  -17.4247   25.5179 C   0  0  0  0  0  0  0  0  0  0  0  0
   11.7659  -16.6632   25.3713 C   0  0  0  0  0  0  0  0  0  0  0  0
   12.1247  -16.4536   23.9552 C   0  0  0  0  0  0  0  0  0  0  0  0
   11.3710  -16.8241   22.8649 N   0  0  0  0  0  0  0  0  0  0  0  0
   12.0787  -16.4403   21.7851 C   0  0  0  0  0  0  0  0  0  0  0  0
   13.2261  -15.8543   22.1601 N   0  0  0  0  0  0  0  0  0  0  0  0
   13.2480  -15.8658   23.4894 C   0  0  0  0  0  0  0  0  0  0  0  0
   10.1747  -17.5277   26.9711 O   0  0  0  0  0  0  0  0  0  0  0  0
   11.1011  -18.1020   27.8460 O   0  0  0  0  0  0  0  0  0  0  0  0
  2  1  1  0
  2  4  1  0
  3  2  2  0
  4  5  1  0
  5  6  1  0
  7  6  1  0
  7  8  1  0
  8 10  1  0
  8  9  1  1
 10 11  2  0
 13 14  1  0
 13 12  1  0
 14 15  1  0
 16 15  1  6
 17 16  1  0
 17 10  1  0
 18 20  1  0
 18 16  1  0
 19 18  2  0
 21 20  1  0
 21 22  1  6
 23 27  1  0
 23 22  1  0
 24 23  2  0
 25 24  1  0
 25 26  1  0
 26 27  2  0
 28 21  1  0
 29 28  1  0
 30 28  2  0
M  END
$$$$
