RMH.pdb
     RDKit          3D

 30 30  0  0  1  0  0  0  0  0999 V2000
    7.5938  -15.8107   14.4349 N   0  0  0  0  0  0  0  0  0  0  0  0
    8.9096  -16.2441   14.7251 C   0  0  0  0  0  0  0  0  0  0  0  0
    9.8105  -16.3125   13.8106 N   0  0  0  0  0  0  0  0  0  0  0  0
    9.2812  -16.6226   16.0540 N   0  0  0  0  0  0  0  0  0  0  0  0
    8.3270  -16.6356   17.1416 C   0  0  0  0  0  0  0  0  0  0  0  0
    8.4199  -15.3229   17.8875 C   0  0  0  0  0  0  0  0  0  0  0  0
    7.4915  -15.2800   19.0703 C   0  0  0  0  0  0  0  0  0  0  0  0
    7.5247  -13.9084   19.6682 C   0  0  2  0  0  0  0  0  0  0  0  0
    8.0633  -12.9578   18.7405 N   0  0  0  0  0  0  0  0  0  0  0  0
    8.2123  -13.8778   20.9826 C   0  0  0  0  0  0  0  0  0  0  0  0
    9.4666  -13.7979   20.9921 O   0  0  0  0  0  0  0  0  0  0  0  0
   10.7246  -16.7359   13.9774 C   0  0  0  0  0  0  0  0  0  0  0  0
    7.4864  -11.5507   28.4601 S   0  0  0  0  0  0  0  0  0  0  0  0
    6.8026  -11.7973   26.7973 C   0  0  0  0  0  0  0  0  0  0  0  0
    7.8347  -12.9304   25.8230 C   0  0  0  0  0  0  0  0  0  0  0  0
    7.2302  -13.0276   24.4428 C   0  0  1  0  0  0  0  0  0  0  0  0
    8.1050  -13.8213   23.4939 N   0  0  0  0  0  0  0  0  0  0  0  0
    7.4741  -13.9370   22.1799 C   0  0  0  0  0  0  0  0  0  0  0  0
    8.2782  -15.1711   24.1004 O   0  0  0  0  0  0  0  0  0  0  0  0
    7.2660  -15.8856   24.2695 N   0  0  0  0  0  0  0  0  0  0  0  0
    9.5462  -15.6758   24.4925 C   0  0  1  0  0  0  0  0  0  0  0  0
    9.7717  -17.0320   24.9366 C   0  0  0  0  0  0  0  0  0  0  0  0
   11.1858  -17.4970   24.6816 C   0  0  0  0  0  0  0  0  0  0  0  0
   11.5100  -17.5113   23.2420 C   0  0  0  0  0  0  0  0  0  0  0  0
   10.6626  -17.8857   22.2242 N   0  0  0  0  0  0  0  0  0  0  0  0
   11.3722  -17.7437   21.0882 C   0  0  0  0  0  0  0  0  0  0  0  0
   12.6097  -17.3016   21.3601 N   0  0  0  0  0  0  0  0  0  0  0  0
   12.6873  -17.1615   22.6799 C   0  0  0  0  0  0  0  0  0  0  0  0
    9.5449  -17.0770   26.4049 O   0  0  0  0  0  0  0  0  0  0  0  0
    9.6531  -18.2820   27.1046 O   0  0  0  0  0  0  0  0  0  0  0  0
  2  1  1  0
  2  4  1  0
  3  2  2  0
  4  5  1  0
  5  6  1  0
  7  6  1  0
  7  8  1  0
  8 10  1  0
  8  9  1  6
 10 11  2  0
 13 14  1  0
 13 12  1  0
 14 15  1  0
 16 15  1  6
 17 16  1  0
 17 10  1  0
 18 20  1  0
 18 16  1  0
 19 18  2  0
 21 20  1  0
 21 22  1  1
 23 27  1  0
 23 22  1  0
 24 23  2  0
 25 24  1  0
 25 26  1  0
 26 27  2  0
 28 21  1  0
 29 28  1  0
 30 28  2  0
M  END
$$$$
