YTC.pdb
     RDKit          3D

 26 26  0  0  1  0  0  0  0  0999 V2000
   11.3126  -18.8872   30.4517 O   0  0  0  0  0  0  0  0  0  0  0  0
   11.3375  -18.0812   29.3204 C   0  0  0  0  0  0  0  0  0  0  0  0
   11.6370  -16.7381   29.4271 C   0  0  0  0  0  0  0  0  0  0  0  0
   11.6519  -15.9735   28.2867 C   0  0  0  0  0  0  0  0  0  0  0  0
   11.3760  -16.5082   27.0340 C   0  0  0  0  0  0  0  0  0  0  0  0
   11.4072  -15.6338   25.8377 C   0  0  0  0  0  0  0  0  0  0  0  0
   11.3914  -16.4862   24.5755 C   0  0  2  0  0  0  0  0  0  0  0  0
   12.7579  -16.6193   24.1155 N   0  0  0  0  0  0  0  0  0  0  0  0
   10.6152  -15.7911   23.5254 C   0  0  0  0  0  0  0  0  0  0  0  0
   11.1905  -15.1036   22.6497 O   0  0  0  0  0  0  0  0  0  0  0  0
   11.0822  -17.8411   26.9546 C   0  0  0  0  0  0  0  0  0  0  0  0
   11.0620  -18.6281   28.0908 C   0  0  0  0  0  0  0  0  0  0  0  0
    7.8949  -15.4495   20.9052 C   0  0  0  0  0  0  0  0  0  0  0  0
    7.2461  -15.1293   22.2296 C   0  0  1  0  0  0  0  0  0  0  0  0
    6.6415  -16.2904   22.7573 O   0  0  0  0  0  0  0  0  0  0  0  0
    8.3349  -14.7550   23.2263 C   0  0  2  0  0  0  0  0  0  0  0  0
    9.1987  -15.8840   23.4813 N   0  0  0  0  0  0  0  0  0  0  0  0
    7.7373  -14.2336   24.4976 C   0  0  0  0  0  0  0  0  0  0  0  0
    7.7877  -14.9713   25.5122 O   0  0  0  0  0  0  0  0  0  0  0  0
    7.1334  -12.9675   24.5867 N   0  0  0  0  0  0  0  0  0  0  0  0
    6.5606  -12.3592   25.7481 C   0  0  1  0  0  0  0  0  0  0  0  0
    6.4226  -10.8780   25.7008 C   0  0  0  0  0  0  0  0  0  0  0  0
    7.8562  -10.0624   24.9632 S   0  0  0  0  0  0  0  0  0  0  0  0
    5.3007  -13.0470   26.1576 C   0  0  0  0  0  0  0  0  0  0  0  0
    4.7601  -14.0849   25.4008 O   0  0  0  0  0  0  0  0  0  0  0  0
    4.6994  -12.7185   27.1776 O   0  0  0  0  0  0  0  0  0  0  0  0
  2  1  1  0
  2  3  2  0
  4  3  1  0
  5  4  2  0
  6  5  1  0
  7  6  1  0
  7  9  1  0
  7  8  1  6
  9 17  1  0
  9 10  2  0
 11 12  2  0
 11  5  1  0
 12  2  1  0
 14 13  1  6
 14 15  1  0
 16 14  1  0
 16 17  1  1
 18 16  1  0
 18 19  2  0
 20 18  1  0
 21 20  1  0
 21 22  1  6
 23 22  1  0
 24 21  1  0
 25 24  1  0
 26 24  2  0
M  END
$$$$
