YTC.pdb
     RDKit          3D

 26 26  0  0  1  0  0  0  0  0999 V2000
    4.9120  -10.3245   26.0154 O   0  0  0  0  0  0  0  0  0  0  0  0
    5.6953  -11.4627   25.8704 C   0  0  0  0  0  0  0  0  0  0  0  0
    5.5805  -12.5073   26.7652 C   0  0  0  0  0  0  0  0  0  0  0  0
    6.3717  -13.6157   26.5893 C   0  0  0  0  0  0  0  0  0  0  0  0
    7.2802  -13.7174   25.5426 C   0  0  0  0  0  0  0  0  0  0  0  0
    8.1079  -14.9390   25.4030 C   0  0  0  0  0  0  0  0  0  0  0  0
    7.6076  -15.7693   24.2282 C   0  0  2  0  0  0  0  0  0  0  0  0
    6.3544  -16.3795   24.6208 N   0  0  0  0  0  0  0  0  0  0  0  0
    8.5784  -16.8483   23.9431 C   0  0  0  0  0  0  0  0  0  0  0  0
    8.2272  -17.8837   23.3305 O   0  0  0  0  0  0  0  0  0  0  0  0
    7.3752  -12.6695   24.6698 C   0  0  0  0  0  0  0  0  0  0  0  0
    6.5878  -11.5447   24.8293 C   0  0  0  0  0  0  0  0  0  0  0  0
    9.7860  -17.5384   21.6578 C   0  0  0  0  0  0  0  0  0  0  0  0
   11.1285  -17.2949   22.3028 C   0  0  1  0  0  0  0  0  0  0  0  0
   11.4776  -15.9331   22.1772 O   0  0  0  0  0  0  0  0  0  0  0  0
   10.9999  -17.5402   23.8002 C   0  0  2  0  0  0  0  0  0  0  0  0
    9.9332  -16.7402   24.3553 N   0  0  0  0  0  0  0  0  0  0  0  0
   12.2980  -17.2692   24.4980 C   0  0  0  0  0  0  0  0  0  0  0  0
   13.0383  -16.3716   24.0264 O   0  0  0  0  0  0  0  0  0  0  0  0
   12.7040  -17.9765   25.6428 N   0  0  0  0  0  0  0  0  0  0  0  0
   12.5769  -17.5651   27.0073 C   0  0  1  0  0  0  0  0  0  0  0  0
   11.2905  -16.9091   27.3677 C   0  0  0  0  0  0  0  0  0  0  0  0
   11.3519  -16.0759   28.9698 S   0  0  0  0  0  0  0  0  0  0  0  0
   12.9503  -18.6653   27.9445 C   0  0  0  0  0  0  0  0  0  0  0  0
   12.5029  -19.9705   27.7484 O   0  0  0  0  0  0  0  0  0  0  0  0
   13.6658  -18.4536   28.9208 O   0  0  0  0  0  0  0  0  0  0  0  0
  2  1  1  0
  2  3  2  0
  4  3  1  0
  5  4  2  0
  6  5  1  0
  7  6  1  0
  7  9  1  0
  7  8  1  1
  9 17  1  0
  9 10  2  0
 11 12  2  0
 11  5  1  0
 12  2  1  0
 14 13  1  6
 14 15  1  0
 16 14  1  0
 16 17  1  1
 18 16  1  0
 18 19  2  0
 20 18  1  0
 21 20  1  0
 21 22  1  1
 23 22  1  0
 24 21  1  0
 25 24  1  0
 26 24  2  0
M  END
$$$$
