YTC.pdb
     RDKit          3D

 26 26  0  0  1  0  0  0  0  0999 V2000
    5.4006  -10.4523   26.7033 O   0  0  0  0  0  0  0  0  0  0  0  0
    6.0696  -11.6260   26.3795 C   0  0  0  0  0  0  0  0  0  0  0  0
    7.0674  -11.6200   25.4258 C   0  0  0  0  0  0  0  0  0  0  0  0
    7.7059  -12.7997   25.1326 C   0  0  0  0  0  0  0  0  0  0  0  0
    7.3799  -13.9941   25.7639 C   0  0  0  0  0  0  0  0  0  0  0  0
    8.1040  -15.2369   25.4062 C   0  0  0  0  0  0  0  0  0  0  0  0
    7.4035  -15.9247   24.2417 C   0  0  2  0  0  0  0  0  0  0  0  0
    6.1654  -16.4860   24.7406 N   0  0  0  0  0  0  0  0  0  0  0  0
    8.2488  -17.0338   23.7484 C   0  0  0  0  0  0  0  0  0  0  0  0
    7.7431  -18.0065   23.1412 O   0  0  0  0  0  0  0  0  0  0  0  0
    6.3883  -13.9739   26.7048 C   0  0  0  0  0  0  0  0  0  0  0  0
    5.7331  -12.7968   27.0144 C   0  0  0  0  0  0  0  0  0  0  0  0
    8.9340  -17.6614   21.3541 C   0  0  0  0  0  0  0  0  0  0  0  0
   10.4020  -17.5765   21.6937 C   0  0  1  0  0  0  0  0  0  0  0  0
   10.8623  -16.2576   21.4922 O   0  0  0  0  0  0  0  0  0  0  0  0
   10.5720  -17.8381   23.1842 C   0  0  2  0  0  0  0  0  0  0  0  0
    9.6547  -17.0264   23.9493 N   0  0  0  0  0  0  0  0  0  0  0  0
   11.9890  -17.5990   23.6089 C   0  0  0  0  0  0  0  0  0  0  0  0
   12.4300  -16.4258   23.5375 O   0  0  0  0  0  0  0  0  0  0  0  0
   12.8233  -18.6292   24.0761 N   0  0  0  0  0  0  0  0  0  0  0  0
   13.5897  -18.6446   25.2842 C   0  0  1  0  0  0  0  0  0  0  0  0
   12.8659  -18.2234   26.5145 C   0  0  0  0  0  0  0  0  0  0  0  0
   11.5559  -19.3744   26.9873 S   0  0  0  0  0  0  0  0  0  0  0  0
   14.3159  -19.9379   25.4517 C   0  0  0  0  0  0  0  0  0  0  0  0
   15.3934  -20.0585   26.3273 O   0  0  0  0  0  0  0  0  0  0  0  0
   13.9852  -20.9393   24.8209 O   0  0  0  0  0  0  0  0  0  0  0  0
  2  1  1  0
  2  3  2  0
  4  3  1  0
  5  4  2  0
  6  5  1  0
  7  6  1  0
  7  9  1  0
  7  8  1  1
  9 17  1  0
  9 10  2  0
 11 12  2  0
 11  5  1  0
 12  2  1  0
 14 13  1  1
 14 15  1  0
 16 14  1  0
 16 17  1  1
 18 16  1  0
 18 19  2  0
 20 18  1  0
 21 20  1  0
 21 22  1  1
 23 22  1  0
 24 21  1  0
 25 24  1  0
 26 24  2  0
M  END
$$$$
