YTC.pdb
     RDKit          3D

 26 26  0  0  1  0  0  0  0  0999 V2000
    5.9301  -23.5465   28.8481 O   0  0  0  0  0  0  0  0  0  0  0  0
    6.4495  -22.6798   27.8946 C   0  0  0  0  0  0  0  0  0  0  0  0
    7.1387  -23.1729   26.8052 C   0  0  0  0  0  0  0  0  0  0  0  0
    7.6373  -22.2853   25.8838 C   0  0  0  0  0  0  0  0  0  0  0  0
    7.4699  -20.9118   26.0140 C   0  0  0  0  0  0  0  0  0  0  0  0
    8.0305  -20.0017   24.9873 C   0  0  0  0  0  0  0  0  0  0  0  0
    7.2216  -18.7118   24.9448 C   0  0  2  0  0  0  0  0  0  0  0  0
    5.9637  -19.0009   24.2885 N   0  0  0  0  0  0  0  0  0  0  0  0
    7.9454  -17.7069   24.1359 C   0  0  0  0  0  0  0  0  0  0  0  0
    9.1517  -17.8694   23.8377 O   0  0  0  0  0  0  0  0  0  0  0  0
    6.7835  -20.4483   27.1017 C   0  0  0  0  0  0  0  0  0  0  0  0
    6.2736  -21.3252   28.0407 C   0  0  0  0  0  0  0  0  0  0  0  0
    7.0157  -15.9761   20.8186 C   0  0  0  0  0  0  0  0  0  0  0  0
    7.1476  -14.9003   21.8688 C   0  0  1  0  0  0  0  0  0  0  0  0
    5.8815  -14.6207   22.4263 O   0  0  0  0  0  0  0  0  0  0  0  0
    7.9822  -15.4449   23.0203 C   0  0  2  0  0  0  0  0  0  0  0  0
    7.2935  -16.5319   23.6759 N   0  0  0  0  0  0  0  0  0  0  0  0
    8.3235  -14.3567   23.9923 C   0  0  0  0  0  0  0  0  0  0  0  0
    9.0499  -13.4170   23.5856 O   0  0  0  0  0  0  0  0  0  0  0  0
    7.8635  -14.3565   25.3205 N   0  0  0  0  0  0  0  0  0  0  0  0
    8.2445  -13.4625   26.3705 C   0  0  1  0  0  0  0  0  0  0  0  0
    7.1760  -12.5512   26.8634 C   0  0  0  0  0  0  0  0  0  0  0  0
    5.6753  -12.6212   25.8597 S   0  0  0  0  0  0  0  0  0  0  0  0
    8.9458  -14.1847   27.4727 C   0  0  0  0  0  0  0  0  0  0  0  0
    9.1679  -15.5593   27.4151 O   0  0  0  0  0  0  0  0  0  0  0  0
    9.3502  -13.5879   28.4678 O   0  0  0  0  0  0  0  0  0  0  0  0
  2  1  1  0
  2  3  2  0
  4  3  1  0
  5  4  2  0
  6  5  1  0
  7  6  1  0
  7  9  1  0
  7  8  1  6
  9 17  1  0
  9 10  2  0
 11 12  2  0
 11  5  1  0
 12  2  1  0
 14 13  1  6
 14 15  1  0
 16 14  1  0
 16 17  1  1
 18 16  1  0
 18 19  2  0
 20 18  1  0
 21 20  1  0
 21 22  1  1
 23 22  1  0
 24 21  1  0
 25 24  1  0
 26 24  2  0
M  END
$$$$
