YTC.pdb
     RDKit          3D

 26 26  0  0  1  0  0  0  0  0999 V2000
    7.9265  -12.3039   16.6954 O   0  0  0  0  0  0  0  0  0  0  0  0
    7.8800  -12.8122   17.9875 C   0  0  0  0  0  0  0  0  0  0  0  0
    6.6664  -13.0585   18.5970 C   0  0  0  0  0  0  0  0  0  0  0  0
    6.6607  -13.5610   19.8749 C   0  0  0  0  0  0  0  0  0  0  0  0
    7.8340  -13.8279   20.5700 C   0  0  0  0  0  0  0  0  0  0  0  0
    7.7658  -14.3701   21.9478 C   0  0  0  0  0  0  0  0  0  0  0  0
    8.0534  -15.8656   21.9281 C   0  0  2  0  0  0  0  0  0  0  0  0
    6.9121  -16.5269   21.3306 N   0  0  0  0  0  0  0  0  0  0  0  0
    8.1968  -16.3546   23.3168 C   0  0  0  0  0  0  0  0  0  0  0  0
    7.2041  -16.4286   24.0781 O   0  0  0  0  0  0  0  0  0  0  0  0
    9.0232  -13.5754   19.9446 C   0  0  0  0  0  0  0  0  0  0  0  0
    9.0507  -13.0696   18.6585 C   0  0  0  0  0  0  0  0  0  0  0  0
    9.9438  -19.4930   24.4012 C   0  0  0  0  0  0  0  0  0  0  0  0
   10.5738  -18.4038   25.2343 C   0  0  1  0  0  0  0  0  0  0  0  0
   11.7902  -17.9966   24.6456 O   0  0  0  0  0  0  0  0  0  0  0  0
    9.6747  -17.1756   25.1889 C   0  0  2  0  0  0  0  0  0  0  0  0
    9.4620  -16.7531   23.8243 N   0  0  0  0  0  0  0  0  0  0  0  0
   10.2475  -16.0649   26.0156 C   0  0  0  0  0  0  0  0  0  0  0  0
   11.0615  -15.2853   25.4627 O   0  0  0  0  0  0  0  0  0  0  0  0
    9.9072  -15.8732   27.3659 N   0  0  0  0  0  0  0  0  0  0  0  0
   10.4448  -14.9001   28.2665 C   0  0  1  0  0  0  0  0  0  0  0  0
    9.5819  -13.7163   28.5296 C   0  0  0  0  0  0  0  0  0  0  0  0
    8.9888  -12.9292   27.0152 S   0  0  0  0  0  0  0  0  0  0  0  0
   10.9531  -15.5376   29.5168 C   0  0  0  0  0  0  0  0  0  0  0  0
   11.6434  -14.8027   30.4788 O   0  0  0  0  0  0  0  0  0  0  0  0
   10.7779  -16.7337   29.7373 O   0  0  0  0  0  0  0  0  0  0  0  0
  2  1  1  0
  2  3  2  0
  4  3  1  0
  5  4  2  0
  6  5  1  0
  7  6  1  0
  7  9  1  0
  7  8  1  1
  9 17  1  0
  9 10  2  0
 11 12  2  0
 11  5  1  0
 12  2  1  0
 14 13  1  6
 14 15  1  0
 16 14  1  0
 16 17  1  6
 18 16  1  0
 18 19  2  0
 20 18  1  0
 21 20  1  0
 21 22  1  1
 23 22  1  0
 24 21  1  0
 25 24  1  0
 26 24  2  0
M  END
$$$$
