YTC.pdb
     RDKit          3D

 26 26  0  0  1  0  0  0  0  0999 V2000
    5.4013  -10.6876   27.5570 O   0  0  0  0  0  0  0  0  0  0  0  0
    6.1987  -11.6317   26.9224 C   0  0  0  0  0  0  0  0  0  0  0  0
    7.2564  -12.2144   27.5908 C   0  0  0  0  0  0  0  0  0  0  0  0
    8.0220  -13.1434   26.9304 C   0  0  0  0  0  0  0  0  0  0  0  0
    7.7657  -13.5132   25.6156 C   0  0  0  0  0  0  0  0  0  0  0  0
    8.6266  -14.5221   24.9539 C   0  0  0  0  0  0  0  0  0  0  0  0
    7.8320  -15.7988   24.7120 C   0  0  2  0  0  0  0  0  0  0  0  0
    7.3231  -16.2510   25.9901 N   0  0  0  0  0  0  0  0  0  0  0  0
    8.7339  -16.8425   24.1776 C   0  0  0  0  0  0  0  0  0  0  0  0
    9.2479  -17.6978   24.9358 O   0  0  0  0  0  0  0  0  0  0  0  0
    6.7125  -12.9218   24.9753 C   0  0  0  0  0  0  0  0  0  0  0  0
    5.9295  -11.9843   25.6223 C   0  0  0  0  0  0  0  0  0  0  0  0
    7.9048  -18.8737   21.1137 C   0  0  0  0  0  0  0  0  0  0  0  0
    9.3176  -18.3960   20.8832 C   0  0  1  0  0  0  0  0  0  0  0  0
    9.3058  -17.2577   20.0488 O   0  0  0  0  0  0  0  0  0  0  0  0
    9.8908  -17.9156   22.2097 C   0  0  2  0  0  0  0  0  0  0  0  0
    9.0413  -16.9034   22.7924 N   0  0  0  0  0  0  0  0  0  0  0  0
   11.2906  -17.4107   22.0338 C   0  0  0  0  0  0  0  0  0  0  0  0
   11.4397  -16.2409   21.6033 O   0  0  0  0  0  0  0  0  0  0  0  0
   12.4203  -18.1927   22.3306 N   0  0  0  0  0  0  0  0  0  0  0  0
   13.6920  -17.7365   22.8016 C   0  0  1  0  0  0  0  0  0  0  0  0
   13.6526  -16.6730   23.8420 C   0  0  0  0  0  0  0  0  0  0  0  0
   15.0329  -15.5142   23.7142 S   0  0  0  0  0  0  0  0  0  0  0  0
   14.5770  -18.8797   23.1730 C   0  0  0  0  0  0  0  0  0  0  0  0
   15.9025  -18.9411   22.7472 O   0  0  0  0  0  0  0  0  0  0  0  0
   14.1629  -19.8048   23.8678 O   0  0  0  0  0  0  0  0  0  0  0  0
  2  1  1  0
  2  3  2  0
  4  3  1  0
  5  4  2  0
  6  5  1  0
  7  6  1  0
  7  9  1  0
  7  8  1  1
  9 17  1  0
  9 10  2  0
 11 12  2  0
 11  5  1  0
 12  2  1  0
 14 13  1  1
 14 15  1  0
 16 14  1  0
 16 17  1  6
 18 16  1  0
 18 19  2  0
 20 18  1  0
 21 20  1  0
 21 22  1  1
 23 22  1  0
 24 21  1  0
 25 24  1  0
 26 24  2  0
M  END
$$$$
