YTC.pdb
     RDKit          3D

 26 26  0  0  1  0  0  0  0  0999 V2000
    4.9875  -10.2457   27.6627 O   0  0  0  0  0  0  0  0  0  0  0  0
    5.7338  -11.2765   27.1056 C   0  0  0  0  0  0  0  0  0  0  0  0
    6.2667  -12.2649   27.9082 C   0  0  0  0  0  0  0  0  0  0  0  0
    6.9987  -13.2674   27.3211 C   0  0  0  0  0  0  0  0  0  0  0  0
    7.2185  -13.3169   25.9498 C   0  0  0  0  0  0  0  0  0  0  0  0
    8.0172  -14.4239   25.3723 C   0  0  0  0  0  0  0  0  0  0  0  0
    7.0882  -15.4736   24.7766 C   0  0  2  0  0  0  0  0  0  0  0  0
    6.7440  -16.4068   25.8289 N   0  0  0  0  0  0  0  0  0  0  0  0
    7.8044  -16.2156   23.7161 C   0  0  0  0  0  0  0  0  0  0  0  0
    8.3195  -17.3340   23.9497 O   0  0  0  0  0  0  0  0  0  0  0  0
    6.6803  -12.3264   25.1764 C   0  0  0  0  0  0  0  0  0  0  0  0
    5.9403  -11.3083   25.7478 C   0  0  0  0  0  0  0  0  0  0  0  0
    9.2408  -16.3580   18.9613 C   0  0  0  0  0  0  0  0  0  0  0  0
    8.4215  -15.6577   20.0176 C   0  0  1  0  0  0  0  0  0  0  0  0
    7.0487  -15.8935   19.7900 O   0  0  0  0  0  0  0  0  0  0  0  0
    8.7205  -16.2963   21.3673 C   0  0  2  0  0  0  0  0  0  0  0  0
    7.9276  -15.6813   22.4060 N   0  0  0  0  0  0  0  0  0  0  0  0
   10.1829  -16.2142   21.6834 C   0  0  0  0  0  0  0  0  0  0  0  0
   10.6996  -15.0729   21.7649 O   0  0  0  0  0  0  0  0  0  0  0  0
   10.9785  -17.3548   21.8875 N   0  0  0  0  0  0  0  0  0  0  0  0
   12.3510  -17.3949   22.2897 C   0  0  1  0  0  0  0  0  0  0  0  0
   12.6313  -18.1159   23.5612 C   0  0  0  0  0  0  0  0  0  0  0  0
   11.4799  -17.6807   24.8838 S   0  0  0  0  0  0  0  0  0  0  0  0
   13.2345  -17.8304   21.1681 C   0  0  0  0  0  0  0  0  0  0  0  0
   12.7078  -18.3586   19.9910 O   0  0  0  0  0  0  0  0  0  0  0  0
   14.4570  -17.7364   21.2483 O   0  0  0  0  0  0  0  0  0  0  0  0
  2  1  1  0
  2  3  2  0
  4  3  1  0
  5  4  2  0
  6  5  1  0
  7  6  1  0
  7  9  1  0
  7  8  1  1
  9 17  1  0
  9 10  2  0
 11 12  2  0
 11  5  1  0
 12  2  1  0
 14 13  1  6
 14 15  1  0
 16 14  1  0
 16 17  1  1
 18 16  1  0
 18 19  2  0
 20 18  1  0
 21 20  1  0
 21 22  1  1
 23 22  1  0
 24 21  1  0
 25 24  1  0
 26 24  2  0
M  END
$$$$
