YTC.pdb
     RDKit          3D

 26 26  0  0  1  0  0  0  0  0999 V2000
   12.6295  -20.2501   30.9078 O   0  0  0  0  0  0  0  0  0  0  0  0
   12.3431  -19.3371   29.9006 C   0  0  0  0  0  0  0  0  0  0  0  0
   11.1464  -19.4056   29.2164 C   0  0  0  0  0  0  0  0  0  0  0  0
   10.8991  -18.4857   28.2274 C   0  0  0  0  0  0  0  0  0  0  0  0
   11.8127  -17.4925   27.8958 C   0  0  0  0  0  0  0  0  0  0  0  0
   11.4907  -16.5267   26.8186 C   0  0  0  0  0  0  0  0  0  0  0  0
   11.0703  -17.2774   25.5618 C   0  0  2  0  0  0  0  0  0  0  0  0
   12.2721  -17.7506   24.9073 N   0  0  0  0  0  0  0  0  0  0  0  0
   10.3795  -16.3458   24.6435 C   0  0  0  0  0  0  0  0  0  0  0  0
   10.7866  -16.1799   23.4700 O   0  0  0  0  0  0  0  0  0  0  0  0
   12.9907  -17.4457   28.5879 C   0  0  0  0  0  0  0  0  0  0  0  0
   13.2590  -18.3624   29.5871 C   0  0  0  0  0  0  0  0  0  0  0  0
    9.3442  -15.9546   22.2363 C   0  0  0  0  0  0  0  0  0  0  0  0
    8.0915  -15.4622   22.9189 C   0  0  1  0  0  0  0  0  0  0  0  0
    7.3142  -16.5625   23.3397 O   0  0  0  0  0  0  0  0  0  0  0  0
    8.4879  -14.7376   24.1982 C   0  0  2  0  0  0  0  0  0  0  0  0
    9.2375  -15.6151   25.0665 N   0  0  0  0  0  0  0  0  0  0  0  0
    7.2806  -14.1890   24.8959 C   0  0  0  0  0  0  0  0  0  0  0  0
    6.4395  -15.0087   25.3393 O   0  0  0  0  0  0  0  0  0  0  0  0
    7.0655  -12.8103   25.0654 N   0  0  0  0  0  0  0  0  0  0  0  0
    6.1492  -12.1792   25.9650 C   0  0  1  0  0  0  0  0  0  0  0  0
    6.7639  -11.4423   27.1026 C   0  0  0  0  0  0  0  0  0  0  0  0
    8.3736  -12.1081   27.5827 S   0  0  0  0  0  0  0  0  0  0  0  0
    5.1345  -11.3691   25.2288 C   0  0  0  0  0  0  0  0  0  0  0  0
    5.2484  -11.1304   23.8605 O   0  0  0  0  0  0  0  0  0  0  0  0
    4.1643  -10.8861   25.8081 O   0  0  0  0  0  0  0  0  0  0  0  0
  2  1  1  0
  2  3  2  0
  4  3  1  0
  5  4  2  0
  6  5  1  0
  7  6  1  0
  7  9  1  0
  7  8  1  6
  9 17  1  0
  9 10  2  0
 11 12  2  0
 11  5  1  0
 12  2  1  0
 14 13  1  1
 14 15  1  0
 16 14  1  0
 16 17  1  1
 18 16  1  0
 18 19  2  0
 20 18  1  0
 21 20  1  0
 21 22  1  1
 23 22  1  0
 24 21  1  0
 25 24  1  0
 26 24  2  0
M  END
$$$$
