YTC.pdb
     RDKit          3D

 26 26  0  0  1  0  0  0  0  0999 V2000
   17.2233  -14.4326   18.7392 O   0  0  0  0  0  0  0  0  0  0  0  0
   15.8778  -14.3664   19.0786 C   0  0  0  0  0  0  0  0  0  0  0  0
   14.9420  -13.9658   18.1466 C   0  0  0  0  0  0  0  0  0  0  0  0
   13.6214  -13.9129   18.5192 C   0  0  0  0  0  0  0  0  0  0  0  0
   13.2003  -14.2488   19.8002 C   0  0  0  0  0  0  0  0  0  0  0  0
   11.7608  -14.1726   20.1452 C   0  0  0  0  0  0  0  0  0  0  0  0
   11.1267  -15.5516   20.0185 C   0  0  2  0  0  0  0  0  0  0  0  0
   10.6034  -15.6751   18.6740 N   0  0  0  0  0  0  0  0  0  0  0  0
    9.9964  -15.6592   20.9667 C   0  0  0  0  0  0  0  0  0  0  0  0
    8.8271  -15.3877   20.6066 O   0  0  0  0  0  0  0  0  0  0  0  0
   14.1464  -14.6425   20.7052 C   0  0  0  0  0  0  0  0  0  0  0  0
   15.4809  -14.7025   20.3501 C   0  0  0  0  0  0  0  0  0  0  0  0
    8.2177  -17.8380   24.9509 C   0  0  0  0  0  0  0  0  0  0  0  0
    9.3271  -17.6551   23.9443 C   0  0  1  0  0  0  0  0  0  0  0  0
    9.2144  -18.6285   22.9286 O   0  0  0  0  0  0  0  0  0  0  0  0
    9.1311  -16.3178   23.2427 C   0  0  2  0  0  0  0  0  0  0  0  0
   10.2055  -16.0728   22.3092 N   0  0  0  0  0  0  0  0  0  0  0  0
    9.0166  -15.2048   24.2393 C   0  0  0  0  0  0  0  0  0  0  0  0
   10.0797  -14.7251   24.7037 O   0  0  0  0  0  0  0  0  0  0  0  0
    7.7782  -14.6915   24.6619 N   0  0  0  0  0  0  0  0  0  0  0  0
    7.5397  -13.7709   25.7309 C   0  0  1  0  0  0  0  0  0  0  0  0
    6.2169  -13.0890   25.7140 C   0  0  0  0  0  0  0  0  0  0  0  0
    5.9564  -12.0260   27.1516 S   0  0  0  0  0  0  0  0  0  0  0  0
    7.8625  -14.3792   27.0553 C   0  0  0  0  0  0  0  0  0  0  0  0
    8.6379  -13.7038   27.9959 O   0  0  0  0  0  0  0  0  0  0  0  0
    7.4534  -15.4977   27.3581 O   0  0  0  0  0  0  0  0  0  0  0  0
  2  1  1  0
  2  3  2  0
  4  3  1  0
  5  4  2  0
  6  5  1  0
  7  6  1  0
  7  9  1  0
  7  8  1  6
  9 17  1  0
  9 10  2  0
 11 12  2  0
 11  5  1  0
 12  2  1  0
 14 13  1  1
 14 15  1  0
 16 14  1  0
 16 17  1  6
 18 16  1  0
 18 19  2  0
 20 18  1  0
 21 20  1  0
 21 22  1  1
 23 22  1  0
 24 21  1  0
 25 24  1  0
 26 24  2  0
M  END
$$$$
