YTC.pdb
     RDKit          3D

 26 26  0  0  1  0  0  0  0  0999 V2000
    5.4913  -11.5430   28.3743 O   0  0  0  0  0  0  0  0  0  0  0  0
    6.2317  -12.0960   27.3369 C   0  0  0  0  0  0  0  0  0  0  0  0
    5.9660  -11.7489   26.0278 C   0  0  0  0  0  0  0  0  0  0  0  0
    6.7190  -12.3164   25.0296 C   0  0  0  0  0  0  0  0  0  0  0  0
    7.7358  -13.2254   25.2960 C   0  0  0  0  0  0  0  0  0  0  0  0
    8.5157  -13.8056   24.1771 C   0  0  0  0  0  0  0  0  0  0  0  0
    7.6164  -14.6950   23.3285 C   0  0  2  0  0  0  0  0  0  0  0  0
    7.2801  -15.8626   24.1161 N   0  0  0  0  0  0  0  0  0  0  0  0
    8.3608  -15.1431   22.1313 C   0  0  0  0  0  0  0  0  0  0  0  0
    8.8969  -16.2752   22.0941 O   0  0  0  0  0  0  0  0  0  0  0  0
    7.9795  -13.5530   26.6007 C   0  0  0  0  0  0  0  0  0  0  0  0
    7.2329  -12.9930   27.6202 C   0  0  0  0  0  0  0  0  0  0  0  0
    7.1608  -13.5658   18.7645 C   0  0  0  0  0  0  0  0  0  0  0  0
    8.6351  -13.8440   18.6020 C   0  0  1  0  0  0  0  0  0  0  0  0
    9.3650  -12.6443   18.7439 O   0  0  0  0  0  0  0  0  0  0  0  0
    9.0921  -14.7306   19.7527 C   0  0  2  0  0  0  0  0  0  0  0  0
    8.4877  -14.3034   20.9929 N   0  0  0  0  0  0  0  0  0  0  0  0
   10.5870  -14.7418   19.8556 C   0  0  0  0  0  0  0  0  0  0  0  0
   11.1256  -13.9104   20.6268 O   0  0  0  0  0  0  0  0  0  0  0  0
   11.3891  -15.6383   19.1285 N   0  0  0  0  0  0  0  0  0  0  0  0
   12.8163  -15.7381   19.1485 C   0  0  1  0  0  0  0  0  0  0  0  0
   13.3782  -16.7940   20.0341 C   0  0  0  0  0  0  0  0  0  0  0  0
   12.8170  -16.6473   21.7453 S   0  0  0  0  0  0  0  0  0  0  0  0
   13.3784  -15.7795   17.7663 C   0  0  0  0  0  0  0  0  0  0  0  0
   14.7535  -15.7677   17.5402 O   0  0  0  0  0  0  0  0  0  0  0  0
   12.6440  -15.8256   16.7822 O   0  0  0  0  0  0  0  0  0  0  0  0
  2  1  1  0
  2  3  2  0
  4  3  1  0
  5  4  2  0
  6  5  1  0
  7  6  1  0
  7  9  1  0
  7  8  1  1
  9 17  1  0
  9 10  2  0
 11 12  2  0
 11  5  1  0
 12  2  1  0
 14 13  1  1
 14 15  1  0
 16 14  1  0
 16 17  1  1
 18 16  1  0
 18 19  2  0
 20 18  1  0
 21 20  1  0
 21 22  1  1
 23 22  1  0
 24 21  1  0
 25 24  1  0
 26 24  2  0
M  END
$$$$
