YTC.pdb
     RDKit          3D

 26 26  0  0  1  0  0  0  0  0999 V2000
    7.5927  -12.5793   16.6800 O   0  0  0  0  0  0  0  0  0  0  0  0
    7.6754  -13.0956   17.9671 C   0  0  0  0  0  0  0  0  0  0  0  0
    6.5444  -13.5630   18.6054 C   0  0  0  0  0  0  0  0  0  0  0  0
    6.6658  -14.0660   19.8773 C   0  0  0  0  0  0  0  0  0  0  0  0
    7.8870  -14.1187   20.5385 C   0  0  0  0  0  0  0  0  0  0  0  0
    7.9570  -14.6728   21.9114 C   0  0  0  0  0  0  0  0  0  0  0  0
    8.3933  -16.1310   21.8572 C   0  0  2  0  0  0  0  0  0  0  0  0
    7.2624  -16.9137   21.4040 N   0  0  0  0  0  0  0  0  0  0  0  0
    8.7544  -16.5846   23.2181 C   0  0  0  0  0  0  0  0  0  0  0  0
    7.8692  -16.9111   24.0429 O   0  0  0  0  0  0  0  0  0  0  0  0
    8.9924  -13.6496   19.8850 C   0  0  0  0  0  0  0  0  0  0  0  0
    8.8916  -13.1392   18.6044 C   0  0  0  0  0  0  0  0  0  0  0  0
   12.0425  -18.5540   26.2212 C   0  0  0  0  0  0  0  0  0  0  0  0
   11.7209  -18.0360   24.8407 C   0  0  1  0  0  0  0  0  0  0  0  0
   11.2925  -19.1011   24.0198 O   0  0  0  0  0  0  0  0  0  0  0  0
   10.5247  -17.0988   24.9397 C   0  0  2  0  0  0  0  0  0  0  0  0
   10.1125  -16.6623   23.6262 N   0  0  0  0  0  0  0  0  0  0  0  0
   10.8350  -15.9303   25.8250 C   0  0  0  0  0  0  0  0  0  0  0  0
   11.3707  -14.9245   25.2982 O   0  0  0  0  0  0  0  0  0  0  0  0
   10.5498  -15.9265   27.2013 N   0  0  0  0  0  0  0  0  0  0  0  0
   10.7902  -14.8689   28.1344 C   0  0  1  0  0  0  0  0  0  0  0  0
   10.0715  -13.5937   27.8656 C   0  0  0  0  0  0  0  0  0  0  0  0
    8.3242  -13.8408   27.4776 S   0  0  0  0  0  0  0  0  0  0  0  0
   10.6325  -15.3388   29.5424 C   0  0  0  0  0  0  0  0  0  0  0  0
   10.1842  -16.6259   29.8333 O   0  0  0  0  0  0  0  0  0  0  0  0
   10.8938  -14.6032   30.4914 O   0  0  0  0  0  0  0  0  0  0  0  0
  2  1  1  0
  2  3  2  0
  4  3  1  0
  5  4  2  0
  6  5  1  0
  7  6  1  0
  7  9  1  0
  7  8  1  1
  9 17  1  0
  9 10  2  0
 11 12  2  0
 11  5  1  0
 12  2  1  0
 14 13  1  1
 14 15  1  0
 16 14  1  0
 16 17  1  6
 18 16  1  0
 18 19  2  0
 20 18  1  0
 21 20  1  0
 21 22  1  6
 23 22  1  0
 24 21  1  0
 25 24  1  0
 26 24  2  0
M  END
$$$$
