FHF.pdb
     RDKit          3D

 33 35  0  0  1  0  0  0  0  0999 V2000
    5.9802  -16.6356   25.3703 N   0  0  0  0  0  0  0  0  0  0  0  0
    7.0589  -15.8545   24.8518 C   0  0  1  0  0  0  0  0  0  0  0  0
    7.5562  -14.9101   25.9119 C   0  0  0  0  0  0  0  0  0  0  0  0
    6.9483  -13.5808   25.7629 C   0  0  0  0  0  0  0  0  0  0  0  0
    5.8896  -13.2360   26.5636 C   0  0  0  0  0  0  0  0  0  0  0  0
    5.2908  -12.0010   26.4570 C   0  0  0  0  0  0  0  0  0  0  0  0
    5.7860  -11.1001   25.5111 C   0  0  0  0  0  0  0  0  0  0  0  0
    6.8592  -11.4341   24.6911 C   0  0  0  0  0  0  0  0  0  0  0  0
    7.4332  -12.6849   24.8293 C   0  0  0  0  0  0  0  0  0  0  0  0
    8.1550  -16.6871   24.2931 C   0  0  0  0  0  0  0  0  0  0  0  0
    8.3441  -17.8195   24.7757 O   0  0  0  0  0  0  0  0  0  0  0  0
    8.9923  -16.2617   23.2445 N   0  0  0  0  0  0  0  0  0  0  0  0
   10.2339  -16.8776   22.8641 C   0  0  1  0  0  0  0  0  0  0  0  0
   10.6574  -16.5629   21.4629 C   0  0  0  0  0  0  0  0  0  0  0  0
   11.8334  -17.2831   20.9918 C   0  0  0  0  0  0  0  0  0  0  0  0
   13.1472  -16.9381   21.0191 C   0  0  0  0  0  0  0  0  0  0  0  0
   13.8512  -17.9377   20.4644 N   0  0  0  0  0  0  0  0  0  0  0  0
   12.9907  -18.9100   20.0878 C   0  0  0  0  0  0  0  0  0  0  0  0
   11.7519  -18.5129   20.4093 N   0  0  0  0  0  0  0  0  0  0  0  0
   11.2926  -16.6985   23.8842 C   0  0  0  0  0  0  0  0  0  0  0  0
   12.0739  -15.7032   23.8355 O   0  0  0  0  0  0  0  0  0  0  0  0
   11.4902  -17.6117   24.9553 N   0  0  0  0  0  0  0  0  0  0  0  0
   12.7312  -17.5965   25.7076 C   0  0  1  0  0  0  0  0  0  0  0  0
   12.8620  -16.2178   26.3131 C   0  0  0  0  0  0  0  0  0  0  0  0
   11.7301  -15.8246   27.1699 C   0  0  0  0  0  0  0  0  0  0  0  0
   11.3042  -16.6169   28.2304 C   0  0  0  0  0  0  0  0  0  0  0  0
   10.2513  -16.1848   28.9948 C   0  0  0  0  0  0  0  0  0  0  0  0
    9.5740  -15.0041   28.7852 C   0  0  0  0  0  0  0  0  0  0  0  0
    9.9943  -14.2150   27.7333 C   0  0  0  0  0  0  0  0  0  0  0  0
   11.0489  -14.6254   26.9505 C   0  0  0  0  0  0  0  0  0  0  0  0
   12.6555  -18.5929   26.7939 C   0  0  0  0  0  0  0  0  0  0  0  0
   13.7047  -18.8212   27.6797 O   0  0  0  0  0  0  0  0  0  0  0  0
   11.6116  -19.2739   26.9417 O   0  0  0  0  0  0  0  0  0  0  0  0
  2  1  1  1
  2  3  1  0
  3  4  1  0
  4  5  2  0
  5  6  1  0
  7  6  2  0
  8  7  1  0
  9  4  1  0
  9  8  2  0
 10  2  1  0
 11 10  2  0
 12 10  1  0
 13 20  1  0
 13 12  1  0
 13 14  1  6
 15 14  1  0
 16 15  2  0
 17 18  1  0
 17 16  1  0
 18 19  2  0
 19 15  1  0
 20 22  1  0
 21 20  2  0
 22 23  1  0
 23 31  1  0
 23 24  1  1
 25 24  1  0
 26 25  2  0
 27 26  1  0
 28 27  2  0
 28 29  1  0
 29 30  2  0
 30 25  1  0
 31 33  2  0
 31 32  1  0
M  END
$$$$
