FHF.pdb
     RDKit          3D

 33 35  0  0  1  0  0  0  0  0999 V2000
    5.6795  -17.4686   20.5491 N   0  0  0  0  0  0  0  0  0  0  0  0
    6.6787  -16.5460   20.9883 C   0  0  1  0  0  0  0  0  0  0  0  0
    6.0399  -15.2232   21.3126 C   0  0  0  0  0  0  0  0  0  0  0  0
    6.9819  -14.1155   21.1019 C   0  0  0  0  0  0  0  0  0  0  0  0
    7.6361  -13.5794   22.1816 C   0  0  0  0  0  0  0  0  0  0  0  0
    8.5268  -12.5410   22.0288 C   0  0  0  0  0  0  0  0  0  0  0  0
    8.7528  -12.0408   20.7440 C   0  0  0  0  0  0  0  0  0  0  0  0
    8.0974  -12.5733   19.6383 C   0  0  0  0  0  0  0  0  0  0  0  0
    7.2100  -13.6161   19.8339 C   0  0  0  0  0  0  0  0  0  0  0  0
    7.4824  -17.0665   22.1241 C   0  0  0  0  0  0  0  0  0  0  0  0
    6.8835  -17.5800   23.0878 O   0  0  0  0  0  0  0  0  0  0  0  0
    8.8883  -17.0091   22.1676 N   0  0  0  0  0  0  0  0  0  0  0  0
    9.7200  -17.6371   23.1573 C   0  0  1  0  0  0  0  0  0  0  0  0
   10.9321  -18.3066   22.5878 C   0  0  0  0  0  0  0  0  0  0  0  0
   11.7419  -19.0474   23.5464 C   0  0  0  0  0  0  0  0  0  0  0  0
   11.5149  -19.3353   24.8546 C   0  0  0  0  0  0  0  0  0  0  0  0
   12.5583  -20.0463   25.3110 N   0  0  0  0  0  0  0  0  0  0  0  0
   13.4411  -20.2086   24.3000 C   0  0  0  0  0  0  0  0  0  0  0  0
   12.9444  -19.5975   23.2157 N   0  0  0  0  0  0  0  0  0  0  0  0
    9.9892  -16.7545   24.3157 C   0  0  0  0  0  0  0  0  0  0  0  0
   10.7025  -15.7165   24.1843 O   0  0  0  0  0  0  0  0  0  0  0  0
    9.4740  -17.0130   25.6150 N   0  0  0  0  0  0  0  0  0  0  0  0
    9.8238  -16.1456   26.7246 C   0  0  1  0  0  0  0  0  0  0  0  0
    8.5266  -15.6740   27.3407 C   0  0  0  0  0  0  0  0  0  0  0  0
    7.9702  -14.4591   26.7208 C   0  0  0  0  0  0  0  0  0  0  0  0
    6.7021  -14.4425   26.1503 C   0  0  0  0  0  0  0  0  0  0  0  0
    6.2417  -13.2739   25.6009 C   0  0  0  0  0  0  0  0  0  0  0  0
    6.9553  -12.0964   25.5726 C   0  0  0  0  0  0  0  0  0  0  0  0
    8.2145  -12.1091   26.1382 C   0  0  0  0  0  0  0  0  0  0  0  0
    8.7006  -13.2690   26.6966 C   0  0  0  0  0  0  0  0  0  0  0  0
   10.5793  -16.9193   27.7293 C   0  0  0  0  0  0  0  0  0  0  0  0
   11.5670  -16.3513   28.5292 O   0  0  0  0  0  0  0  0  0  0  0  0
   10.3376  -18.1411   27.8841 O   0  0  0  0  0  0  0  0  0  0  0  0
  2  1  1  1
  2  3  1  0
  3  4  1  0
  4  5  2  0
  5  6  1  0
  7  6  2  0
  8  7  1  0
  9  4  1  0
  9  8  2  0
 10  2  1  0
 11 10  2  0
 12 10  1  0
 13 20  1  0
 13 12  1  0
 13 14  1  6
 15 14  1  0
 16 15  2  0
 17 18  1  0
 17 16  1  0
 18 19  2  0
 19 15  1  0
 20 22  1  0
 21 20  2  0
 22 23  1  0
 23 31  1  0
 23 24  1  1
 25 24  1  0
 26 25  2  0
 27 26  1  0
 28 27  2  0
 28 29  1  0
 29 30  2  0
 30 25  1  0
 31 33  2  0
 31 32  1  0
M  END
$$$$
