FHF.pdb
     RDKit          3D

 33 35  0  0  1  0  0  0  0  0999 V2000
    6.1629  -18.7449   23.3538 N   0  0  0  0  0  0  0  0  0  0  0  0
    6.8748  -17.5058   23.3617 C   0  0  1  0  0  0  0  0  0  0  0  0
    6.3113  -16.6042   24.4260 C   0  0  0  0  0  0  0  0  0  0  0  0
    6.7922  -15.2258   24.2600 C   0  0  0  0  0  0  0  0  0  0  0  0
    7.0459  -14.7535   22.9977 C   0  0  0  0  0  0  0  0  0  0  0  0
    7.4975  -13.4686   22.7973 C   0  0  0  0  0  0  0  0  0  0  0  0
    7.6934  -12.6499   23.9122 C   0  0  0  0  0  0  0  0  0  0  0  0
    7.4408  -13.1136   25.1995 C   0  0  0  0  0  0  0  0  0  0  0  0
    6.9881  -14.4108   25.3585 C   0  0  0  0  0  0  0  0  0  0  0  0
    8.3420  -17.6866   23.5085 C   0  0  0  0  0  0  0  0  0  0  0  0
    8.7558  -18.6083   24.2366 O   0  0  0  0  0  0  0  0  0  0  0  0
    9.2905  -16.8686   22.8659 N   0  0  0  0  0  0  0  0  0  0  0  0
   10.7069  -17.1081   22.8209 C   0  0  1  0  0  0  0  0  0  0  0  0
   11.3550  -16.6490   21.5517 C   0  0  0  0  0  0  0  0  0  0  0  0
   10.8462  -17.2674   20.3342 C   0  0  0  0  0  0  0  0  0  0  0  0
   10.4751  -18.5508   20.0869 C   0  0  0  0  0  0  0  0  0  0  0  0
   10.0721  -18.6281   18.8086 N   0  0  0  0  0  0  0  0  0  0  0  0
   10.1865  -17.4030   18.2486 C   0  0  0  0  0  0  0  0  0  0  0  0
   10.6609  -16.5651   19.1807 N   0  0  0  0  0  0  0  0  0  0  0  0
   11.3958  -16.6739   24.0580 C   0  0  0  0  0  0  0  0  0  0  0  0
   12.3503  -15.8434   24.0077 O   0  0  0  0  0  0  0  0  0  0  0  0
   11.0345  -17.1518   25.3470 N   0  0  0  0  0  0  0  0  0  0  0  0
   11.8441  -16.8150   26.5034 C   0  0  1  0  0  0  0  0  0  0  0  0
   11.7794  -15.3134   26.6637 C   0  0  0  0  0  0  0  0  0  0  0  0
   10.4976  -14.8172   27.1934 C   0  0  0  0  0  0  0  0  0  0  0  0
    9.5664  -14.1799   26.3806 C   0  0  0  0  0  0  0  0  0  0  0  0
    8.3882  -13.7534   26.9370 C   0  0  0  0  0  0  0  0  0  0  0  0
    8.0546  -13.9131   28.2636 C   0  0  0  0  0  0  0  0  0  0  0  0
    8.9765  -14.5455   29.0733 C   0  0  0  0  0  0  0  0  0  0  0  0
   10.1670  -14.9834   28.5400 C   0  0  0  0  0  0  0  0  0  0  0  0
   11.2681  -17.4514   27.7042 C   0  0  0  0  0  0  0  0  0  0  0  0
   11.8415  -17.3321   28.9671 O   0  0  0  0  0  0  0  0  0  0  0  0
   10.2194  -18.1335   27.6044 O   0  0  0  0  0  0  0  0  0  0  0  0
  2  1  1  1
  2  3  1  0
  3  4  1  0
  4  5  2  0
  5  6  1  0
  7  6  2  0
  8  7  1  0
  9  4  1  0
  9  8  2  0
 10  2  1  0
 11 10  2  0
 12 10  1  0
 13 20  1  0
 13 12  1  0
 13 14  1  6
 15 14  1  0
 16 15  2  0
 17 18  1  0
 17 16  1  0
 18 19  2  0
 19 15  1  0
 20 22  1  0
 21 20  2  0
 22 23  1  0
 23 31  1  0
 23 24  1  1
 25 24  1  0
 26 25  2  0
 27 26  1  0
 28 27  2  0
 28 29  1  0
 29 30  2  0
 30 25  1  0
 31 33  2  0
 31 32  1  0
M  END
$$$$
