FHF.pdb
     RDKit          3D

 33 35  0  0  1  0  0  0  0  0999 V2000
    6.1475  -17.6655   22.0521 N   0  0  0  0  0  0  0  0  0  0  0  0
    7.1849  -16.6837   22.1027 C   0  0  1  0  0  0  0  0  0  0  0  0
    6.6095  -15.3597   22.5258 C   0  0  0  0  0  0  0  0  0  0  0  0
    7.0979  -14.2724   21.6667 C   0  0  0  0  0  0  0  0  0  0  0  0
    7.9861  -14.5612   20.6623 C   0  0  0  0  0  0  0  0  0  0  0  0
    8.4686  -13.5728   19.8345 C   0  0  0  0  0  0  0  0  0  0  0  0
    8.0328  -12.2613   20.0389 C   0  0  0  0  0  0  0  0  0  0  0  0
    7.1322  -11.9514   21.0530 C   0  0  0  0  0  0  0  0  0  0  0  0
    6.6709  -12.9731   21.8633 C   0  0  0  0  0  0  0  0  0  0  0  0
    8.3233  -17.0940   22.9644 C   0  0  0  0  0  0  0  0  0  0  0  0
    8.0941  -17.8438   23.9320 O   0  0  0  0  0  0  0  0  0  0  0  0
    9.6500  -16.6784   22.7435 N   0  0  0  0  0  0  0  0  0  0  0  0
   10.7831  -17.0354   23.5522 C   0  0  1  0  0  0  0  0  0  0  0  0
   12.0922  -16.9334   22.8326 C   0  0  0  0  0  0  0  0  0  0  0  0
   12.1844  -17.7007   21.5972 C   0  0  0  0  0  0  0  0  0  0  0  0
   11.4881  -18.7917   21.1837 C   0  0  0  0  0  0  0  0  0  0  0  0
   11.9376  -19.1349   19.9661 N   0  0  0  0  0  0  0  0  0  0  0  0
   12.9120  -18.2684   19.6092 C   0  0  0  0  0  0  0  0  0  0  0  0
   13.0668  -17.3869   20.6067 N   0  0  0  0  0  0  0  0  0  0  0  0
   10.7581  -16.3862   24.8832 C   0  0  0  0  0  0  0  0  0  0  0  0
   11.3085  -15.2600   25.0624 O   0  0  0  0  0  0  0  0  0  0  0  0
   10.1281  -16.9744   26.0134 N   0  0  0  0  0  0  0  0  0  0  0  0
   10.2429  -16.3515   27.3192 C   0  0  1  0  0  0  0  0  0  0  0  0
    8.8463  -15.9593   27.7440 C   0  0  0  0  0  0  0  0  0  0  0  0
    8.2831  -14.8241   26.9930 C   0  0  0  0  0  0  0  0  0  0  0  0
    7.2404  -14.9894   26.0879 C   0  0  0  0  0  0  0  0  0  0  0  0
    6.7563  -13.8873   25.4317 C   0  0  0  0  0  0  0  0  0  0  0  0
    7.2353  -12.6080   25.6066 C   0  0  0  0  0  0  0  0  0  0  0  0
    8.2703  -12.4403   26.5045 C   0  0  0  0  0  0  0  0  0  0  0  0
    8.7747  -13.5299   27.1766 C   0  0  0  0  0  0  0  0  0  0  0  0
   10.7801  -17.3327   28.2823 C   0  0  0  0  0  0  0  0  0  0  0  0
   11.1756  -16.9833   29.5704 O   0  0  0  0  0  0  0  0  0  0  0  0
   10.8943  -18.5363   27.9457 O   0  0  0  0  0  0  0  0  0  0  0  0
  2  1  1  1
  2  3  1  0
  3  4  1  0
  4  5  2  0
  5  6  1  0
  7  6  2  0
  8  7  1  0
  9  4  1  0
  9  8  2  0
 10  2  1  0
 11 10  2  0
 12 10  1  0
 13 20  1  0
 13 12  1  0
 13 14  1  6
 15 14  1  0
 16 15  2  0
 17 18  1  0
 17 16  1  0
 18 19  2  0
 19 15  1  0
 20 22  1  0
 21 20  2  0
 22 23  1  0
 23 31  1  0
 23 24  1  1
 25 24  1  0
 26 25  2  0
 27 26  1  0
 28 27  2  0
 28 29  1  0
 29 30  2  0
 30 25  1  0
 31 33  2  0
 31 32  1  0
M  END
$$$$
