FHF.pdb
     RDKit          3D

 33 35  0  0  1  0  0  0  0  0999 V2000
    6.8319  -19.1168   20.6461 N   0  0  0  0  0  0  0  0  0  0  0  0
    6.7272  -18.1928   21.7313 C   0  0  1  0  0  0  0  0  0  0  0  0
    6.2937  -18.9190   22.9755 C   0  0  0  0  0  0  0  0  0  0  0  0
    6.0912  -17.9834   24.0901 C   0  0  0  0  0  0  0  0  0  0  0  0
    6.7537  -18.1974   25.2717 C   0  0  0  0  0  0  0  0  0  0  0  0
    6.5927  -17.3455   26.3410 C   0  0  0  0  0  0  0  0  0  0  0  0
    5.7356  -16.2516   26.1979 C   0  0  0  0  0  0  0  0  0  0  0  0
    5.0561  -16.0201   25.0061 C   0  0  0  0  0  0  0  0  0  0  0  0
    5.2449  -16.8995   23.9552 C   0  0  0  0  0  0  0  0  0  0  0  0
    7.9756  -17.4175   21.9488 C   0  0  0  0  0  0  0  0  0  0  0  0
    9.0646  -18.0189   21.8905 O   0  0  0  0  0  0  0  0  0  0  0  0
    7.9914  -16.0358   22.2179 N   0  0  0  0  0  0  0  0  0  0  0  0
    9.1700  -15.2283   22.3739 C   0  0  1  0  0  0  0  0  0  0  0  0
    9.1009  -13.9172   21.6541 C   0  0  0  0  0  0  0  0  0  0  0  0
    8.5737  -13.9795   20.2970 C   0  0  0  0  0  0  0  0  0  0  0  0
    7.4955  -13.3670   19.7418 C   0  0  0  0  0  0  0  0  0  0  0  0
    7.4222  -13.7406   18.4544 N   0  0  0  0  0  0  0  0  0  0  0  0
    8.4463  -14.5840   18.1942 C   0  0  0  0  0  0  0  0  0  0  0  0
    9.1552  -14.7335   19.3216 N   0  0  0  0  0  0  0  0  0  0  0  0
    9.6124  -15.1357   23.7843 C   0  0  0  0  0  0  0  0  0  0  0  0
    9.3871  -14.0915   24.4642 O   0  0  0  0  0  0  0  0  0  0  0  0
   10.3000  -16.1899   24.4448 N   0  0  0  0  0  0  0  0  0  0  0  0
   10.5359  -16.1236   25.8752 C   0  0  1  0  0  0  0  0  0  0  0  0
    9.1897  -16.2555   26.5499 C   0  0  0  0  0  0  0  0  0  0  0  0
    8.5387  -14.9698   26.8551 C   0  0  0  0  0  0  0  0  0  0  0  0
    9.1938  -13.9660   27.5600 C   0  0  0  0  0  0  0  0  0  0  0  0
    8.5324  -12.7892   27.7992 C   0  0  0  0  0  0  0  0  0  0  0  0
    7.2457  -12.5249   27.3853 C   0  0  0  0  0  0  0  0  0  0  0  0
    6.5925  -13.5191   26.6852 C   0  0  0  0  0  0  0  0  0  0  0  0
    7.2337  -14.7099   26.4314 C   0  0  0  0  0  0  0  0  0  0  0  0
   11.3900  -17.2568   26.2819 C   0  0  0  0  0  0  0  0  0  0  0  0
   11.7831  -18.2576   25.3978 O   0  0  0  0  0  0  0  0  0  0  0  0
   11.7881  -17.3409   27.4691 O   0  0  0  0  0  0  0  0  0  0  0  0
  2  1  1  6
  2  3  1  0
  3  4  1  0
  4  5  2  0
  5  6  1  0
  7  6  2  0
  8  7  1  0
  9  4  1  0
  9  8  2  0
 10  2  1  0
 11 10  2  0
 12 10  1  0
 13 20  1  0
 13 12  1  0
 13 14  1  1
 15 14  1  0
 16 15  2  0
 17 18  1  0
 17 16  1  0
 18 19  2  0
 19 15  1  0
 20 22  1  0
 21 20  2  0
 22 23  1  0
 23 31  1  0
 23 24  1  1
 25 24  1  0
 26 25  2  0
 27 26  1  0
 28 27  2  0
 28 29  1  0
 29 30  2  0
 30 25  1  0
 31 33  2  0
 31 32  1  0
M  END
$$$$
