FHF.pdb
     RDKit          3D

 33 35  0  0  1  0  0  0  0  0999 V2000
    6.3597  -17.4298   20.4762 N   0  0  0  0  0  0  0  0  0  0  0  0
    7.3618  -16.5734   21.0284 C   0  0  1  0  0  0  0  0  0  0  0  0
    6.7483  -15.2525   21.4052 C   0  0  0  0  0  0  0  0  0  0  0  0
    7.3884  -14.1465   20.6803 C   0  0  0  0  0  0  0  0  0  0  0  0
    6.9552  -12.8638   20.8993 C   0  0  0  0  0  0  0  0  0  0  0  0
    7.5273  -11.7985   20.2413 C   0  0  0  0  0  0  0  0  0  0  0  0
    8.5646  -12.0514   19.3403 C   0  0  0  0  0  0  0  0  0  0  0  0
    9.0160  -13.3465   19.1067 C   0  0  0  0  0  0  0  0  0  0  0  0
    8.4149  -14.3896   19.7878 C   0  0  0  0  0  0  0  0  0  0  0  0
    8.0840  -17.1943   22.1685 C   0  0  0  0  0  0  0  0  0  0  0  0
    7.4590  -17.9730   22.9127 O   0  0  0  0  0  0  0  0  0  0  0  0
    9.4407  -16.9475   22.4517 N   0  0  0  0  0  0  0  0  0  0  0  0
   10.1614  -17.4485   23.5897 C   0  0  1  0  0  0  0  0  0  0  0  0
   11.3512  -18.2829   23.2289 C   0  0  0  0  0  0  0  0  0  0  0  0
   11.7630  -18.2086   21.8331 C   0  0  0  0  0  0  0  0  0  0  0  0
   11.2524  -17.4871   20.8012 C   0  0  0  0  0  0  0  0  0  0  0  0
   11.9791  -17.7574   19.7052 N   0  0  0  0  0  0  0  0  0  0  0  0
   12.9438  -18.6439   20.0387 C   0  0  0  0  0  0  0  0  0  0  0  0
   12.8151  -18.9235   21.3430 N   0  0  0  0  0  0  0  0  0  0  0  0
   10.4268  -16.3993   24.6007 C   0  0  0  0  0  0  0  0  0  0  0  0
   10.2106  -15.1797   24.3373 O   0  0  0  0  0  0  0  0  0  0  0  0
   10.9278  -16.6917   25.8983 N   0  0  0  0  0  0  0  0  0  0  0  0
   10.3531  -16.0471   27.0647 C   0  0  1  0  0  0  0  0  0  0  0  0
    8.8536  -16.2067   26.9618 C   0  0  0  0  0  0  0  0  0  0  0  0
    8.1247  -14.9437   26.7535 C   0  0  0  0  0  0  0  0  0  0  0  0
    6.9090  -14.9019   26.0797 C   0  0  0  0  0  0  0  0  0  0  0  0
    6.2785  -13.6935   25.9317 C   0  0  0  0  0  0  0  0  0  0  0  0
    6.7697  -12.4990   26.4095 C   0  0  0  0  0  0  0  0  0  0  0  0
    7.9764  -12.5367   27.0790 C   0  0  0  0  0  0  0  0  0  0  0  0
    8.6299  -13.7367   27.2416 C   0  0  0  0  0  0  0  0  0  0  0  0
   10.8265  -16.7320   28.2835 C   0  0  0  0  0  0  0  0  0  0  0  0
   10.9907  -16.0752   29.4999 O   0  0  0  0  0  0  0  0  0  0  0  0
   11.0989  -17.9564   28.2430 O   0  0  0  0  0  0  0  0  0  0  0  0
  2  1  1  1
  2  3  1  0
  3  4  1  0
  4  5  2  0
  5  6  1  0
  7  6  2  0
  8  7  1  0
  9  4  1  0
  9  8  2  0
 10  2  1  0
 11 10  2  0
 12 10  1  0
 13 20  1  0
 13 12  1  0
 13 14  1  6
 15 14  1  0
 16 15  2  0
 17 18  1  0
 17 16  1  0
 18 19  2  0
 19 15  1  0
 20 22  1  0
 21 20  2  0
 22 23  1  0
 23 31  1  0
 23 24  1  6
 25 24  1  0
 26 25  2  0
 27 26  1  0
 28 27  2  0
 28 29  1  0
 29 30  2  0
 30 25  1  0
 31 33  2  0
 31 32  1  0
M  END
$$$$
