FHF.pdb
     RDKit          3D

 33 35  0  0  1  0  0  0  0  0999 V2000
    6.2341  -17.3226   23.1265 N   0  0  0  0  0  0  0  0  0  0  0  0
    7.3512  -16.7763   22.4221 C   0  0  1  0  0  0  0  0  0  0  0  0
    7.1322  -15.3068   22.1860 C   0  0  0  0  0  0  0  0  0  0  0  0
    7.2214  -14.5506   23.4425 C   0  0  0  0  0  0  0  0  0  0  0  0
    6.5611  -15.0154   24.5511 C   0  0  0  0  0  0  0  0  0  0  0  0
    6.6182  -14.3379   25.7481 C   0  0  0  0  0  0  0  0  0  0  0  0
    7.3667  -13.1600   25.8118 C   0  0  0  0  0  0  0  0  0  0  0  0
    8.0425  -12.6749   24.6966 C   0  0  0  0  0  0  0  0  0  0  0  0
    7.9601  -13.3849   23.5124 C   0  0  0  0  0  0  0  0  0  0  0  0
    8.6451  -17.0415   23.1021 C   0  0  0  0  0  0  0  0  0  0  0  0
    8.6547  -17.8170   24.0765 O   0  0  0  0  0  0  0  0  0  0  0  0
    9.8632  -16.4607   22.7012 N   0  0  0  0  0  0  0  0  0  0  0  0
   11.1721  -16.9270   23.0682 C   0  0  1  0  0  0  0  0  0  0  0  0
   12.2694  -16.3765   22.2108 C   0  0  0  0  0  0  0  0  0  0  0  0
   12.1227  -16.6183   20.7813 C   0  0  0  0  0  0  0  0  0  0  0  0
   11.4938  -17.6234   20.1179 C   0  0  0  0  0  0  0  0  0  0  0  0
   11.6350  -17.4045   18.8009 N   0  0  0  0  0  0  0  0  0  0  0  0
   12.3483  -16.2689   18.6295 C   0  0  0  0  0  0  0  0  0  0  0  0
   12.6496  -15.7832   19.8416 N   0  0  0  0  0  0  0  0  0  0  0  0
   11.4207  -16.8327   24.5251 C   0  0  0  0  0  0  0  0  0  0  0  0
   12.3586  -16.1103   24.9745 O   0  0  0  0  0  0  0  0  0  0  0  0
   10.6386  -17.5310   25.4849 N   0  0  0  0  0  0  0  0  0  0  0  0
   11.1454  -17.7360   26.8293 C   0  0  1  0  0  0  0  0  0  0  0  0
   10.1019  -17.1959   27.7801 C   0  0  0  0  0  0  0  0  0  0  0  0
   10.0495  -15.7253   27.8472 C   0  0  0  0  0  0  0  0  0  0  0  0
    9.3187  -14.9757   26.9318 C   0  0  0  0  0  0  0  0  0  0  0  0
    9.3039  -13.6108   27.0599 C   0  0  0  0  0  0  0  0  0  0  0  0
    9.9709  -12.9172   28.0451 C   0  0  0  0  0  0  0  0  0  0  0  0
   10.6972  -13.6581   28.9557 C   0  0  0  0  0  0  0  0  0  0  0  0
   10.7287  -15.0297   28.8498 C   0  0  0  0  0  0  0  0  0  0  0  0
   11.3137  -19.1822   27.0720 C   0  0  0  0  0  0  0  0  0  0  0  0
   11.8431  -19.6898   28.2552 O   0  0  0  0  0  0  0  0  0  0  0  0
   10.9729  -20.0051   26.1879 O   0  0  0  0  0  0  0  0  0  0  0  0
  2  1  1  1
  2  3  1  0
  3  4  1  0
  4  5  2  0
  5  6  1  0
  7  6  2  0
  8  7  1  0
  9  4  1  0
  9  8  2  0
 10  2  1  0
 11 10  2  0
 12 10  1  0
 13 20  1  0
 13 12  1  0
 13 14  1  6
 15 14  1  0
 16 15  2  0
 17 18  1  0
 17 16  1  0
 18 19  2  0
 19 15  1  0
 20 22  1  0
 21 20  2  0
 22 23  1  0
 23 31  1  0
 23 24  1  1
 25 24  1  0
 26 25  2  0
 27 26  1  0
 28 27  2  0
 28 29  1  0
 29 30  2  0
 30 25  1  0
 31 33  2  0
 31 32  1  0
M  END
$$$$
