FHF.pdb
     RDKit          3D

 33 35  0  0  1  0  0  0  0  0999 V2000
    6.6828  -16.8852   20.8643 N   0  0  0  0  0  0  0  0  0  0  0  0
    7.7870  -16.2434   21.5057 C   0  0  1  0  0  0  0  0  0  0  0  0
    7.4316  -14.8153   21.8179 C   0  0  0  0  0  0  0  0  0  0  0  0
    7.6649  -13.9465   20.6562 C   0  0  0  0  0  0  0  0  0  0  0  0
    6.6189  -13.6550   19.8184 C   0  0  0  0  0  0  0  0  0  0  0  0
    6.7936  -12.8453   18.7189 C   0  0  0  0  0  0  0  0  0  0  0  0
    8.0656  -12.3230   18.4717 C   0  0  0  0  0  0  0  0  0  0  0  0
    9.1372  -12.6089   19.3117 C   0  0  0  0  0  0  0  0  0  0  0  0
    8.9204  -13.4266   20.4060 C   0  0  0  0  0  0  0  0  0  0  0  0
    8.2555  -16.9741   22.7113 C   0  0  0  0  0  0  0  0  0  0  0  0
    7.4281  -17.2364   23.6043 O   0  0  0  0  0  0  0  0  0  0  0  0
    9.5888  -17.3861   22.8968 N   0  0  0  0  0  0  0  0  0  0  0  0
   10.1345  -17.9290   24.1104 C   0  0  1  0  0  0  0  0  0  0  0  0
   11.0836  -19.0654   23.8880 C   0  0  0  0  0  0  0  0  0  0  0  0
   11.5756  -19.7112   25.0982 C   0  0  0  0  0  0  0  0  0  0  0  0
   11.0336  -19.7807   26.3421 C   0  0  0  0  0  0  0  0  0  0  0  0
   11.8670  -20.4901   27.1196 N   0  0  0  0  0  0  0  0  0  0  0  0
   12.9301  -20.8681   26.3749 C   0  0  0  0  0  0  0  0  0  0  0  0
   12.7556  -20.3925   25.1343 N   0  0  0  0  0  0  0  0  0  0  0  0
   10.6327  -16.8791   25.0285 C   0  0  0  0  0  0  0  0  0  0  0  0
   11.4033  -15.9666   24.6079 O   0  0  0  0  0  0  0  0  0  0  0  0
   10.2830  -16.8331   26.4054 N   0  0  0  0  0  0  0  0  0  0  0  0
   10.9576  -15.9099   27.2992 C   0  0  1  0  0  0  0  0  0  0  0  0
   10.5352  -14.5165   26.8933 C   0  0  0  0  0  0  0  0  0  0  0  0
    9.0934  -14.2546   27.0438 C   0  0  0  0  0  0  0  0  0  0  0  0
    8.4290  -14.4810   28.2442 C   0  0  0  0  0  0  0  0  0  0  0  0
    7.0882  -14.2044   28.3179 C   0  0  0  0  0  0  0  0  0  0  0  0
    6.3398  -13.7108   27.2726 C   0  0  0  0  0  0  0  0  0  0  0  0
    6.9961  -13.4848   26.0794 C   0  0  0  0  0  0  0  0  0  0  0  0
    8.3418  -13.7539   25.9786 C   0  0  0  0  0  0  0  0  0  0  0  0
   10.5155  -16.1613   28.6848 C   0  0  0  0  0  0  0  0  0  0  0  0
    9.6432  -17.1929   29.0207 O   0  0  0  0  0  0  0  0  0  0  0  0
   10.9303  -15.4257   29.6133 O   0  0  0  0  0  0  0  0  0  0  0  0
  2  1  1  1
  2  3  1  0
  3  4  1  0
  4  5  2  0
  5  6  1  0
  7  6  2  0
  8  7  1  0
  9  4  1  0
  9  8  2  0
 10  2  1  0
 11 10  2  0
 12 10  1  0
 13 20  1  0
 13 12  1  0
 13 14  1  6
 15 14  1  0
 16 15  2  0
 17 18  1  0
 17 16  1  0
 18 19  2  0
 19 15  1  0
 20 22  1  0
 21 20  2  0
 22 23  1  0
 23 31  1  0
 23 24  1  6
 25 24  1  0
 26 25  2  0
 27 26  1  0
 28 27  2  0
 28 29  1  0
 29 30  2  0
 30 25  1  0
 31 33  2  0
 31 32  1  0
M  END
$$$$
