FHF.pdb
     RDKit          3D

 33 35  0  0  1  0  0  0  0  0999 V2000
    5.9682  -17.5466   21.8504 N   0  0  0  0  0  0  0  0  0  0  0  0
    6.9754  -16.5331   21.8194 C   0  0  1  0  0  0  0  0  0  0  0  0
    6.3432  -15.1838   22.0264 C   0  0  0  0  0  0  0  0  0  0  0  0
    7.0422  -14.1484   21.2530 C   0  0  0  0  0  0  0  0  0  0  0  0
    7.6634  -13.1221   21.9178 C   0  0  0  0  0  0  0  0  0  0  0  0
    8.3295  -12.1316   21.2320 C   0  0  0  0  0  0  0  0  0  0  0  0
    8.3605  -12.1928   19.8367 C   0  0  0  0  0  0  0  0  0  0  0  0
    7.7355  -13.2269   19.1470 C   0  0  0  0  0  0  0  0  0  0  0  0
    7.0766  -14.2029   19.8727 C   0  0  0  0  0  0  0  0  0  0  0  0
    8.0740  -16.7846   22.7872 C   0  0  0  0  0  0  0  0  0  0  0  0
    7.8002  -17.3557   23.8595 O   0  0  0  0  0  0  0  0  0  0  0  0
    9.4110  -16.4102   22.5545 N   0  0  0  0  0  0  0  0  0  0  0  0
   10.5372  -16.7863   23.3643 C   0  0  1  0  0  0  0  0  0  0  0  0
   11.8540  -16.6480   22.6652 C   0  0  0  0  0  0  0  0  0  0  0  0
   11.9895  -17.4180   21.4355 C   0  0  0  0  0  0  0  0  0  0  0  0
   11.2782  -18.4819   20.9795 C   0  0  0  0  0  0  0  0  0  0  0  0
   11.7850  -18.8416   19.7895 N   0  0  0  0  0  0  0  0  0  0  0  0
   12.8104  -18.0123   19.4922 C   0  0  0  0  0  0  0  0  0  0  0  0
   12.9395  -17.1374   20.4991 N   0  0  0  0  0  0  0  0  0  0  0  0
   10.4900  -16.1850   24.7169 C   0  0  0  0  0  0  0  0  0  0  0  0
   10.9867  -15.0402   24.9320 O   0  0  0  0  0  0  0  0  0  0  0  0
    9.8972  -16.8414   25.8295 N   0  0  0  0  0  0  0  0  0  0  0  0
   10.2149  -16.4181   27.1808 C   0  0  1  0  0  0  0  0  0  0  0  0
    8.9005  -16.2147   27.8989 C   0  0  0  0  0  0  0  0  0  0  0  0
    8.1147  -15.0699   27.4073 C   0  0  0  0  0  0  0  0  0  0  0  0
    7.0041  -15.2413   26.5881 C   0  0  0  0  0  0  0  0  0  0  0  0
    6.3112  -14.1323   26.1764 C   0  0  0  0  0  0  0  0  0  0  0  0
    6.6405  -12.8402   26.5208 C   0  0  0  0  0  0  0  0  0  0  0  0
    7.7423  -12.6663   27.3341 C   0  0  0  0  0  0  0  0  0  0  0  0
    8.4554  -13.7628   27.7616 C   0  0  0  0  0  0  0  0  0  0  0  0
   10.9736  -17.4861   27.8610 C   0  0  0  0  0  0  0  0  0  0  0  0
   11.2799  -18.6981   27.2487 O   0  0  0  0  0  0  0  0  0  0  0  0
   11.3669  -17.3152   29.0405 O   0  0  0  0  0  0  0  0  0  0  0  0
  2  1  1  1
  2  3  1  0
  3  4  1  0
  4  5  2  0
  5  6  1  0
  7  6  2  0
  8  7  1  0
  9  4  1  0
  9  8  2  0
 10  2  1  0
 11 10  2  0
 12 10  1  0
 13 20  1  0
 13 12  1  0
 13 14  1  6
 15 14  1  0
 16 15  2  0
 17 18  1  0
 17 16  1  0
 18 19  2  0
 19 15  1  0
 20 22  1  0
 21 20  2  0
 22 23  1  0
 23 31  1  0
 23 24  1  1
 25 24  1  0
 26 25  2  0
 27 26  1  0
 28 27  2  0
 28 29  1  0
 29 30  2  0
 30 25  1  0
 31 33  2  0
 31 32  1  0
M  END
$$$$
