FHF.pdb
     RDKit          3D

 33 35  0  0  1  0  0  0  0  0999 V2000
    8.3869  -16.6083   18.0332 N   0  0  0  0  0  0  0  0  0  0  0  0
    9.6094  -16.3824   18.7381 C   0  0  1  0  0  0  0  0  0  0  0  0
    9.9428  -14.9156   18.7176 C   0  0  0  0  0  0  0  0  0  0  0  0
    8.9024  -14.1276   19.3924 C   0  0  0  0  0  0  0  0  0  0  0  0
    8.9987  -13.9103   20.7432 C   0  0  0  0  0  0  0  0  0  0  0  0
    8.0460  -13.1777   21.4146 C   0  0  0  0  0  0  0  0  0  0  0  0
    6.9723  -12.6567   20.6884 C   0  0  0  0  0  0  0  0  0  0  0  0
    6.8597  -12.8679   19.3178 C   0  0  0  0  0  0  0  0  0  0  0  0
    7.8378  -13.6094   18.6801 C   0  0  0  0  0  0  0  0  0  0  0  0
    9.5849  -16.9258   20.1205 C   0  0  0  0  0  0  0  0  0  0  0  0
    8.4931  -17.2934   20.5935 O   0  0  0  0  0  0  0  0  0  0  0  0
   10.7339  -17.0469   20.9247 N   0  0  0  0  0  0  0  0  0  0  0  0
   10.7899  -17.6849   22.2113 C   0  0  1  0  0  0  0  0  0  0  0  0
   11.9536  -18.6131   22.3726 C   0  0  0  0  0  0  0  0  0  0  0  0
   11.8757  -19.8483   21.6033 C   0  0  0  0  0  0  0  0  0  0  0  0
   10.8447  -20.7167   21.4335 C   0  0  0  0  0  0  0  0  0  0  0  0
   11.2641  -21.7082   20.6314 N   0  0  0  0  0  0  0  0  0  0  0  0
   12.5517  -21.4711   20.2945 C   0  0  0  0  0  0  0  0  0  0  0  0
   12.9310  -20.3312   20.8884 N   0  0  0  0  0  0  0  0  0  0  0  0
   10.6027  -16.7297   23.3275 C   0  0  0  0  0  0  0  0  0  0  0  0
   11.1159  -15.5730   23.2801 O   0  0  0  0  0  0  0  0  0  0  0  0
    9.8519  -17.0462   24.4922 N   0  0  0  0  0  0  0  0  0  0  0  0
    9.4874  -16.0018   25.4316 C   0  0  1  0  0  0  0  0  0  0  0  0
    8.5074  -15.0950   24.7231 C   0  0  0  0  0  0  0  0  0  0  0  0
    7.9884  -13.9975   25.5574 C   0  0  0  0  0  0  0  0  0  0  0  0
    6.6796  -13.9903   26.0274 C   0  0  0  0  0  0  0  0  0  0  0  0
    6.2657  -12.9429   26.8092 C   0  0  0  0  0  0  0  0  0  0  0  0
    7.0648  -11.8804   27.1685 C   0  0  0  0  0  0  0  0  0  0  0  0
    8.3646  -11.8844   26.7038 C   0  0  0  0  0  0  0  0  0  0  0  0
    8.8056  -12.9239   25.9174 C   0  0  0  0  0  0  0  0  0  0  0  0
    8.8217  -16.6081   26.6011 C   0  0  0  0  0  0  0  0  0  0  0  0
    9.0658  -16.1900   27.9063 O   0  0  0  0  0  0  0  0  0  0  0  0
    7.9991  -17.5412   26.4342 O   0  0  0  0  0  0  0  0  0  0  0  0
  2  1  1  1
  2  3  1  0
  3  4  1  0
  4  5  2  0
  5  6  1  0
  7  6  2  0
  8  7  1  0
  9  4  1  0
  9  8  2  0
 10  2  1  0
 11 10  2  0
 12 10  1  0
 13 20  1  0
 13 12  1  0
 13 14  1  1
 15 14  1  0
 16 15  2  0
 17 18  1  0
 17 16  1  0
 18 19  2  0
 19 15  1  0
 20 22  1  0
 21 20  2  0
 22 23  1  0
 23 31  1  0
 23 24  1  6
 25 24  1  0
 26 25  2  0
 27 26  1  0
 28 27  2  0
 28 29  1  0
 29 30  2  0
 30 25  1  0
 31 33  2  0
 31 32  1  0
M  END
$$$$
