FHF.pdb
     RDKit          3D

 33 35  0  0  1  0  0  0  0  0999 V2000
    5.6796  -17.7574   21.7617 N   0  0  0  0  0  0  0  0  0  0  0  0
    6.6639  -16.7355   21.5909 C   0  0  1  0  0  0  0  0  0  0  0  0
    6.0207  -15.3831   21.7342 C   0  0  0  0  0  0  0  0  0  0  0  0
    6.8827  -14.3271   21.1860 C   0  0  0  0  0  0  0  0  0  0  0  0
    7.1345  -14.3020   19.8380 C   0  0  0  0  0  0  0  0  0  0  0  0
    7.9363  -13.3303   19.2830 C   0  0  0  0  0  0  0  0  0  0  0  0
    8.4920  -12.3641   20.1252 C   0  0  0  0  0  0  0  0  0  0  0  0
    8.2466  -12.3754   21.4947 C   0  0  0  0  0  0  0  0  0  0  0  0
    7.4355  -13.3685   22.0134 C   0  0  0  0  0  0  0  0  0  0  0  0
    7.8245  -16.8967   22.5041 C   0  0  0  0  0  0  0  0  0  0  0  0
    7.6104  -17.2584   23.6765 O   0  0  0  0  0  0  0  0  0  0  0  0
    9.1559  -16.6614   22.1123 N   0  0  0  0  0  0  0  0  0  0  0  0
   10.3219  -16.9384   22.9056 C   0  0  1  0  0  0  0  0  0  0  0  0
   11.5683  -17.1278   22.0979 C   0  0  0  0  0  0  0  0  0  0  0  0
   12.7248  -17.6096   22.8421 C   0  0  0  0  0  0  0  0  0  0  0  0
   12.8513  -18.6671   23.6857 C   0  0  0  0  0  0  0  0  0  0  0  0
   14.1197  -18.6995   24.1245 N   0  0  0  0  0  0  0  0  0  0  0  0
   14.7934  -17.6703   23.5636 C   0  0  0  0  0  0  0  0  0  0  0  0
   13.9418  -16.9991   22.7762 N   0  0  0  0  0  0  0  0  0  0  0  0
   10.4633  -16.0099   24.0507 C   0  0  0  0  0  0  0  0  0  0  0  0
   10.8861  -14.8292   23.8758 O   0  0  0  0  0  0  0  0  0  0  0  0
   10.1395  -16.3796   25.3844 N   0  0  0  0  0  0  0  0  0  0  0  0
   10.9218  -15.8670   26.4941 C   0  0  1  0  0  0  0  0  0  0  0  0
   10.3861  -14.4897   26.8113 C   0  0  0  0  0  0  0  0  0  0  0  0
    8.9180  -14.4209   26.9107 C   0  0  0  0  0  0  0  0  0  0  0  0
    8.1163  -15.5374   26.7002 C   0  0  0  0  0  0  0  0  0  0  0  0
    6.7570  -15.4050   26.8203 C   0  0  0  0  0  0  0  0  0  0  0  0
    6.1178  -14.2276   27.1394 C   0  0  0  0  0  0  0  0  0  0  0  0
    6.9107  -13.1172   27.3492 C   0  0  0  0  0  0  0  0  0  0  0  0
    8.2779  -13.2229   27.2350 C   0  0  0  0  0  0  0  0  0  0  0  0
   10.7309  -16.7391   27.6696 C   0  0  0  0  0  0  0  0  0  0  0  0
   11.3095  -16.4710   28.9070 O   0  0  0  0  0  0  0  0  0  0  0  0
   10.0224  -17.7703   27.5706 O   0  0  0  0  0  0  0  0  0  0  0  0
  2  1  1  1
  2  3  1  0
  3  4  1  0
  4  5  2  0
  5  6  1  0
  7  6  2  0
  8  7  1  0
  9  4  1  0
  9  8  2  0
 10  2  1  0
 11 10  2  0
 12 10  1  0
 13 20  1  0
 13 12  1  0
 13 14  1  6
 15 14  1  0
 16 15  2  0
 17 18  1  0
 17 16  1  0
 18 19  2  0
 19 15  1  0
 20 22  1  0
 21 20  2  0
 22 23  1  0
 23 31  1  0
 23 24  1  1
 25 24  1  0
 26 25  2  0
 27 26  1  0
 28 27  2  0
 28 29  1  0
 29 30  2  0
 30 25  1  0
 31 33  2  0
 31 32  1  0
M  END
$$$$
