FHF.pdb
     RDKit          3D

 33 35  0  0  1  0  0  0  0  0999 V2000
    5.5416  -17.6597   23.1908 N   0  0  0  0  0  0  0  0  0  0  0  0
    6.5226  -16.7121   23.6177 C   0  0  1  0  0  0  0  0  0  0  0  0
    6.5033  -16.6034   25.1180 C   0  0  0  0  0  0  0  0  0  0  0  0
    6.9618  -15.2786   25.5578 C   0  0  0  0  0  0  0  0  0  0  0  0
    7.7984  -14.5567   24.7454 C   0  0  0  0  0  0  0  0  0  0  0  0
    8.2514  -13.3115   25.1189 C   0  0  0  0  0  0  0  0  0  0  0  0
    7.8395  -12.7945   26.3497 C   0  0  0  0  0  0  0  0  0  0  0  0
    6.9912  -13.5138   27.1856 C   0  0  0  0  0  0  0  0  0  0  0  0
    6.5582  -14.7613   26.7739 C   0  0  0  0  0  0  0  0  0  0  0  0
    7.8814  -17.0193   23.1018 C   0  0  0  0  0  0  0  0  0  0  0  0
    8.2955  -18.1910   23.1834 O   0  0  0  0  0  0  0  0  0  0  0  0
    8.7267  -16.0529   22.5245 N   0  0  0  0  0  0  0  0  0  0  0  0
   10.0603  -16.2892   22.0439 C   0  0  1  0  0  0  0  0  0  0  0  0
   10.4863  -15.3455   20.9623 C   0  0  0  0  0  0  0  0  0  0  0  0
    9.4039  -14.7855   20.1633 C   0  0  0  0  0  0  0  0  0  0  0  0
    8.5404  -15.3876   19.3045 C   0  0  0  0  0  0  0  0  0  0  0  0
    7.7211  -14.4459   18.8103 N   0  0  0  0  0  0  0  0  0  0  0  0
    8.0619  -13.2548   19.3513 C   0  0  0  0  0  0  0  0  0  0  0  0
    9.0937  -13.4583   20.1819 N   0  0  0  0  0  0  0  0  0  0  0  0
   11.0397  -16.4512   23.1430 C   0  0  0  0  0  0  0  0  0  0  0  0
   12.2530  -16.1275   22.9793 O   0  0  0  0  0  0  0  0  0  0  0  0
   10.6846  -16.9671   24.4189 N   0  0  0  0  0  0  0  0  0  0  0  0
   11.6754  -17.0438   25.4765 C   0  0  1  0  0  0  0  0  0  0  0  0
   11.9728  -15.6250   25.9048 C   0  0  0  0  0  0  0  0  0  0  0  0
   10.9110  -15.0037   26.7150 C   0  0  0  0  0  0  0  0  0  0  0  0
   11.1362  -13.8493   27.4570 C   0  0  0  0  0  0  0  0  0  0  0  0
   10.0997  -13.3175   28.1797 C   0  0  0  0  0  0  0  0  0  0  0  0
    8.8313  -13.8521   28.2248 C   0  0  0  0  0  0  0  0  0  0  0  0
    8.6041  -14.9980   27.4893 C   0  0  0  0  0  0  0  0  0  0  0  0
    9.6274  -15.5523   26.7550 C   0  0  0  0  0  0  0  0  0  0  0  0
   11.1099  -17.7828   26.6223 C   0  0  0  0  0  0  0  0  0  0  0  0
   11.8571  -18.1066   27.7513 O   0  0  0  0  0  0  0  0  0  0  0  0
    9.9084  -18.1445   26.5973 O   0  0  0  0  0  0  0  0  0  0  0  0
  2  1  1  1
  2  3  1  0
  3  4  1  0
  4  5  2  0
  5  6  1  0
  7  6  2  0
  8  7  1  0
  9  4  1  0
  9  8  2  0
 10  2  1  0
 11 10  2  0
 12 10  1  0
 13 20  1  0
 13 12  1  0
 13 14  1  6
 15 14  1  0
 16 15  2  0
 17 18  1  0
 17 16  1  0
 18 19  2  0
 19 15  1  0
 20 22  1  0
 21 20  2  0
 22 23  1  0
 23 31  1  0
 23 24  1  1
 25 24  1  0
 26 25  2  0
 27 26  1  0
 28 27  2  0
 28 29  1  0
 29 30  2  0
 30 25  1  0
 31 33  2  0
 31 32  1  0
M  END
$$$$
