FHF.pdb
     RDKit          3D

 33 35  0  0  1  0  0  0  0  0999 V2000
    6.9729  -17.3364   20.4286 N   0  0  0  0  0  0  0  0  0  0  0  0
    7.6224  -16.5593   21.4370 C   0  0  1  0  0  0  0  0  0  0  0  0
    6.7497  -15.3955   21.8206 C   0  0  0  0  0  0  0  0  0  0  0  0
    7.0877  -14.2003   21.0359 C   0  0  0  0  0  0  0  0  0  0  0  0
    7.8050  -13.1922   21.6280 C   0  0  0  0  0  0  0  0  0  0  0  0
    8.1429  -12.0554   20.9291 C   0  0  0  0  0  0  0  0  0  0  0  0
    7.7383  -11.9480   19.5962 C   0  0  0  0  0  0  0  0  0  0  0  0
    7.0103  -12.9613   18.9806 C   0  0  0  0  0  0  0  0  0  0  0  0
    6.6907  -14.0876   19.7172 C   0  0  0  0  0  0  0  0  0  0  0  0
    8.0195  -17.3673   22.6186 C   0  0  0  0  0  0  0  0  0  0  0  0
    7.7560  -18.5845   22.6201 O   0  0  0  0  0  0  0  0  0  0  0  0
    8.6794  -16.8274   23.7388 N   0  0  0  0  0  0  0  0  0  0  0  0
    9.9922  -17.1956   24.1930 C   0  0  1  0  0  0  0  0  0  0  0  0
   11.0071  -17.2804   23.0954 C   0  0  0  0  0  0  0  0  0  0  0  0
   12.2957  -17.8408   23.4814 C   0  0  0  0  0  0  0  0  0  0  0  0
   13.4772  -17.2275   23.7530 C   0  0  0  0  0  0  0  0  0  0  0  0
   14.3758  -18.1753   24.0638 N   0  0  0  0  0  0  0  0  0  0  0  0
   13.7693  -19.3813   23.9901 C   0  0  0  0  0  0  0  0  0  0  0  0
   12.4932  -19.1810   23.6332 N   0  0  0  0  0  0  0  0  0  0  0  0
   10.4244  -16.4139   25.3744 C   0  0  0  0  0  0  0  0  0  0  0  0
   11.2568  -15.4674   25.2528 O   0  0  0  0  0  0  0  0  0  0  0  0
    9.9410  -16.6725   26.6858 N   0  0  0  0  0  0  0  0  0  0  0  0
   10.4765  -15.9401   27.8185 C   0  0  1  0  0  0  0  0  0  0  0  0
    9.3208  -15.1967   28.4481 C   0  0  0  0  0  0  0  0  0  0  0  0
    8.6361  -14.2625   27.5381 C   0  0  0  0  0  0  0  0  0  0  0  0
    7.5490  -14.6565   26.7655 C   0  0  0  0  0  0  0  0  0  0  0  0
    6.9513  -13.7321   25.9484 C   0  0  0  0  0  0  0  0  0  0  0  0
    7.3560  -12.4206   25.8353 C   0  0  0  0  0  0  0  0  0  0  0  0
    8.4347  -12.0259   26.6008 C   0  0  0  0  0  0  0  0  0  0  0  0
    9.0528  -12.9340   27.4296 C   0  0  0  0  0  0  0  0  0  0  0  0
   11.0259  -16.8947   28.8011 C   0  0  0  0  0  0  0  0  0  0  0  0
   11.7695  -16.4917   29.9068 O   0  0  0  0  0  0  0  0  0  0  0  0
   10.8271  -18.1248   28.6517 O   0  0  0  0  0  0  0  0  0  0  0  0
  2  1  1  6
  2  3  1  0
  3  4  1  0
  4  5  2  0
  5  6  1  0
  7  6  2  0
  8  7  1  0
  9  4  1  0
  9  8  2  0
 10  2  1  0
 11 10  2  0
 12 10  1  0
 13 20  1  0
 13 12  1  0
 13 14  1  6
 15 14  1  0
 16 15  2  0
 17 18  1  0
 17 16  1  0
 18 19  2  0
 19 15  1  0
 20 22  1  0
 21 20  2  0
 22 23  1  0
 23 31  1  0
 23 24  1  1
 25 24  1  0
 26 25  2  0
 27 26  1  0
 28 27  2  0
 28 29  1  0
 29 30  2  0
 30 25  1  0
 31 33  2  0
 31 32  1  0
M  END
$$$$
