GDL.pdb
     RDKit          3D

 21 20  0  0  1  0  0  0  0  0999 V2000
   28.1659  -19.3812  -15.2043 N   0  0  0  0  0  0  0  0  0  0  0  0
   27.2345  -18.8735  -14.2314 C   0  0  0  0  0  0  0  0  0  0  0  0
   26.2021  -19.8707  -13.8641 C   0  0  0  0  0  0  0  0  0  0  0  0
   25.8809  -20.7384  -14.7147 O   0  0  0  0  0  0  0  0  0  0  0  0
   25.5792  -19.8744  -12.6073 N   0  0  0  0  0  0  0  0  0  0  0  0
   24.5580  -20.8017  -12.1985 C   0  0  1  0  0  0  0  0  0  0  0  0
   24.4794  -20.9616  -10.7130 C   0  0  0  0  0  0  0  0  0  0  0  0
   25.7725  -21.2351  -10.0687 C   0  0  0  0  0  0  0  0  0  0  0  0
   26.6317  -22.0371  -10.4904 O   0  0  0  0  0  0  0  0  0  0  0  0
   23.2377  -20.2177  -12.6373 C   0  0  0  0  0  0  0  0  0  0  0  0
   23.0733  -18.9702  -12.6886 O   0  0  0  0  0  0  0  0  0  0  0  0
   26.0592  -20.5453   -8.8974 O   0  0  0  0  0  0  0  0  0  0  0  0
   23.0905  -20.7511  -16.7858 C   0  0  0  0  0  0  0  0  0  0  0  0
   21.7581  -20.8546  -16.1358 C   0  0  2  0  0  0  0  0  0  0  0  0
   20.6470  -20.8471  -17.2150 C   0  0  0  0  0  0  0  0  0  0  0  0
   21.4143  -19.9524  -15.0247 C   0  0  0  0  0  0  0  0  0  0  0  0
   20.9754  -20.5237  -13.7597 C   0  0  2  0  0  0  0  0  0  0  0  0
   22.1501  -21.0368  -13.0023 N   0  0  0  0  0  0  0  0  0  0  0  0
   19.9197  -21.5223  -13.7596 C   0  0  0  0  0  0  0  0  0  0  0  0
   18.5816  -21.0838  -13.9219 O   0  0  0  0  0  0  0  0  0  0  0  0
   20.0455  -22.7438  -13.6322 O   0  0  0  0  0  0  0  0  0  0  0  0
  1  2  1  0
  3  2  1  0
  4  3  2  0
  5  3  1  0
  6  5  1  0
  6  7  1  1
  8  7  1  0
  8 12  1  0
  9  8  2  0
 10  6  1  0
 10 18  1  0
 11 10  2  0
 14 13  1  6
 14 16  1  0
 14 15  1  0
 17 18  1  0
 17 16  1  6
 19 17  1  0
 20 19  1  0
 21 19  2  0
M  END
$$$$
