GDL.pdb
     RDKit          3D

 21 20  0  0  1  0  0  0  0  0999 V2000
   19.5462  -15.2186  -15.8249 N   0  0  0  0  0  0  0  0  0  0  0  0
   20.3076  -15.1414  -17.0441 C   0  0  0  0  0  0  0  0  0  0  0  0
   20.6623  -13.7479  -17.4008 C   0  0  0  0  0  0  0  0  0  0  0  0
   21.7459  -13.5433  -18.0037 O   0  0  0  0  0  0  0  0  0  0  0  0
   19.8321  -12.6612  -17.0882 N   0  0  0  0  0  0  0  0  0  0  0  0
   20.0272  -11.3156  -17.5582 C   0  0  1  0  0  0  0  0  0  0  0  0
   18.7445  -10.6325  -17.9133 C   0  0  0  0  0  0  0  0  0  0  0  0
   18.9187   -9.3055  -18.5222 C   0  0  0  0  0  0  0  0  0  0  0  0
   18.3162   -8.2687  -18.1737 O   0  0  0  0  0  0  0  0  0  0  0  0
   20.6254  -10.5361  -16.4130 C   0  0  0  0  0  0  0  0  0  0  0  0
   20.1063  -10.5802  -15.2665 O   0  0  0  0  0  0  0  0  0  0  0  0
   19.8264   -9.1987  -19.5684 O   0  0  0  0  0  0  0  0  0  0  0  0
   24.3383  -10.8164  -13.6432 C   0  0  0  0  0  0  0  0  0  0  0  0
   24.5086  -10.4101  -15.0625 C   0  0  2  0  0  0  0  0  0  0  0  0
   26.0097  -10.4498  -15.4420 C   0  0  0  0  0  0  0  0  0  0  0  0
   23.8783   -9.1722  -15.5495 C   0  0  0  0  0  0  0  0  0  0  0  0
   22.4332   -9.0277  -15.4496 C   0  0  2  0  0  0  0  0  0  0  0  0
   21.7750   -9.7378  -16.5807 N   0  0  0  0  0  0  0  0  0  0  0  0
   21.8603   -7.7000  -15.3065 C   0  0  0  0  0  0  0  0  0  0  0  0
   21.1774   -7.1410  -16.4158 O   0  0  0  0  0  0  0  0  0  0  0  0
   21.8939   -6.9742  -14.3083 O   0  0  0  0  0  0  0  0  0  0  0  0
  1  2  1  0
  3  2  1  0
  4  3  2  0
  5  3  1  0
  6  5  1  0
  6  7  1  1
  8  7  1  0
  8 12  1  0
  9  8  2  0
 10  6  1  0
 10 18  1  0
 11 10  2  0
 14 13  1  1
 14 16  1  0
 14 15  1  0
 17 18  1  0
 17 16  1  6
 19 17  1  0
 20 19  1  0
 21 19  2  0
M  END
$$$$
