GDL.pdb
     RDKit          3D

 21 20  0  0  1  0  0  0  0  0999 V2000
   14.2727  -12.1912  -14.0195 N   0  0  0  0  0  0  0  0  0  0  0  0
   14.1042  -10.7737  -13.8346 C   0  0  0  0  0  0  0  0  0  0  0  0
   15.0398  -10.2205  -12.8278 C   0  0  0  0  0  0  0  0  0  0  0  0
   14.9988  -10.6799  -11.6587 O   0  0  0  0  0  0  0  0  0  0  0  0
   15.9608   -9.2091  -13.1385 N   0  0  0  0  0  0  0  0  0  0  0  0
   16.8963   -8.6349  -12.2086 C   0  0  1  0  0  0  0  0  0  0  0  0
   18.0207   -7.9161  -12.8847 C   0  0  0  0  0  0  0  0  0  0  0  0
   18.9818   -8.8020  -13.5582 C   0  0  0  0  0  0  0  0  0  0  0  0
   19.1880   -9.9976  -13.2631 O   0  0  0  0  0  0  0  0  0  0  0  0
   16.1408   -7.5981  -11.4142 C   0  0  0  0  0  0  0  0  0  0  0  0
   15.4746   -6.7027  -11.9976 O   0  0  0  0  0  0  0  0  0  0  0  0
   19.7181   -8.2639  -14.6062 O   0  0  0  0  0  0  0  0  0  0  0  0
   12.4468   -7.5279   -9.3234 C   0  0  0  0  0  0  0  0  0  0  0  0
   13.5227   -8.0725   -8.4548 C   0  0  2  0  0  0  0  0  0  0  0  0
   12.9023   -8.6851   -7.1747 C   0  0  0  0  0  0  0  0  0  0  0  0
   14.6881   -7.2368   -8.1232 C   0  0  0  0  0  0  0  0  0  0  0  0
   15.4157   -6.5790   -9.1989 C   0  0  2  0  0  0  0  0  0  0  0  0
   16.1515   -7.5921  -10.0046 N   0  0  0  0  0  0  0  0  0  0  0  0
   16.2997   -5.4695   -8.8838 C   0  0  0  0  0  0  0  0  0  0  0  0
   17.6947   -5.6535   -9.0556 O   0  0  0  0  0  0  0  0  0  0  0  0
   15.9785   -4.3505   -8.4726 O   0  0  0  0  0  0  0  0  0  0  0  0
  1  2  1  0
  3  2  1  0
  4  3  2  0
  5  3  1  0
  6  5  1  0
  6  7  1  6
  8  7  1  0
  8 12  1  0
  9  8  2  0
 10  6  1  0
 10 18  1  0
 11 10  2  0
 14 13  1  1
 14 16  1  0
 14 15  1  0
 17 18  1  0
 17 16  1  1
 19 17  1  0
 20 19  1  0
 21 19  2  0
M  END
$$$$
