GDL.pdb
     RDKit          3D

 21 20  0  0  1  0  0  0  0  0999 V2000
   18.7598  -25.0519   -9.4171 N   0  0  0  0  0  0  0  0  0  0  0  0
   18.6489  -23.6949   -9.8844 C   0  0  0  0  0  0  0  0  0  0  0  0
   19.4420  -23.4543  -11.1125 C   0  0  0  0  0  0  0  0  0  0  0  0
   20.4746  -24.1453  -11.3014 O   0  0  0  0  0  0  0  0  0  0  0  0
   19.0774  -22.4872  -12.0609 N   0  0  0  0  0  0  0  0  0  0  0  0
   19.7744  -22.2424  -13.2954 C   0  0  1  0  0  0  0  0  0  0  0  0
   18.9576  -21.4666  -14.2798 C   0  0  0  0  0  0  0  0  0  0  0  0
   19.6169  -21.2605  -15.5779 C   0  0  0  0  0  0  0  0  0  0  0  0
   20.5431  -21.9626  -16.0344 O   0  0  0  0  0  0  0  0  0  0  0  0
   20.9691  -21.3843  -12.9589 C   0  0  0  0  0  0  0  0  0  0  0  0
   20.8367  -20.3469  -12.2575 O   0  0  0  0  0  0  0  0  0  0  0  0
   19.1724  -20.1997  -16.3569 O   0  0  0  0  0  0  0  0  0  0  0  0
   26.7375  -21.7991  -11.3157 C   0  0  0  0  0  0  0  0  0  0  0  0
   25.5989  -20.9580  -11.7680 C   0  0  2  0  0  0  0  0  0  0  0  0
   25.3201  -19.8486  -10.7237 C   0  0  0  0  0  0  0  0  0  0  0  0
   24.3451  -21.5960  -12.2011 C   0  0  0  0  0  0  0  0  0  0  0  0
   23.4570  -20.8726  -13.0996 C   0  0  2  0  0  0  0  0  0  0  0  0
   22.2643  -21.7075  -13.4116 N   0  0  0  0  0  0  0  0  0  0  0  0
   23.9934  -20.3088  -14.3268 C   0  0  0  0  0  0  0  0  0  0  0  0
   24.5965  -19.0273  -14.2687 O   0  0  0  0  0  0  0  0  0  0  0  0
   23.9905  -20.8220  -15.4497 O   0  0  0  0  0  0  0  0  0  0  0  0
  1  2  1  0
  3  2  1  0
  4  3  2  0
  5  3  1  0
  6  5  1  0
  6  7  1  6
  8  7  1  0
  8 12  1  0
  9  8  2  0
 10  6  1  0
 10 18  1  0
 11 10  2  0
 14 13  1  1
 14 16  1  0
 14 15  1  0
 17 18  1  0
 17 16  1  6
 19 17  1  0
 20 19  1  0
 21 19  2  0
M  END
$$$$
