GDL.pdb
     RDKit          3D

 21 20  0  0  1  0  0  0  0  0999 V2000
   16.2120  -13.8516  -16.1338 N   0  0  0  0  0  0  0  0  0  0  0  0
   15.9997  -12.4291  -16.1919 C   0  0  0  0  0  0  0  0  0  0  0  0
   17.1433  -11.7122  -16.8027 C   0  0  0  0  0  0  0  0  0  0  0  0
   18.1532  -12.3787  -17.1426 O   0  0  0  0  0  0  0  0  0  0  0  0
   17.1319  -10.3249  -17.0105 N   0  0  0  0  0  0  0  0  0  0  0  0
   18.1961   -9.5767  -17.6246 C   0  0  1  0  0  0  0  0  0  0  0  0
   17.7063   -8.6075  -18.6537 C   0  0  0  0  0  0  0  0  0  0  0  0
   18.7767   -7.8831  -19.3547 C   0  0  0  0  0  0  0  0  0  0  0  0
   19.7225   -8.4161  -19.9716 O   0  0  0  0  0  0  0  0  0  0  0  0
   18.8378   -8.7554  -16.5334 C   0  0  0  0  0  0  0  0  0  0  0  0
   18.1375   -8.2387  -15.6233 O   0  0  0  0  0  0  0  0  0  0  0  0
   18.7303   -6.4949  -19.3274 O   0  0  0  0  0  0  0  0  0  0  0  0
   21.7120   -9.5409  -12.9441 C   0  0  0  0  0  0  0  0  0  0  0  0
   22.3130   -9.5214  -14.3031 C   0  0  2  0  0  0  0  0  0  0  0  0
   23.7796  -10.0147  -14.2342 C   0  0  0  0  0  0  0  0  0  0  0  0
   22.2068   -8.3100  -15.1324 C   0  0  0  0  0  0  0  0  0  0  0  0
   20.8895   -7.7558  -15.4096 C   0  0  2  0  0  0  0  0  0  0  0  0
   20.2299   -8.5377  -16.4915 N   0  0  0  0  0  0  0  0  0  0  0  0
   20.7602   -6.3349  -15.6850 C   0  0  0  0  0  0  0  0  0  0  0  0
   20.9533   -5.4242  -14.6161 O   0  0  0  0  0  0  0  0  0  0  0  0
   20.4952   -5.8038  -16.7676 O   0  0  0  0  0  0  0  0  0  0  0  0
  1  2  1  0
  3  2  1  0
  4  3  2  0
  5  3  1  0
  6  5  1  0
  6  7  1  6
  8  7  1  0
  8 12  1  0
  9  8  2  0
 10  6  1  0
 10 18  1  0
 11 10  2  0
 14 13  1  1
 14 16  1  0
 14 15  1  0
 17 18  1  0
 17 16  1  6
 19 17  1  0
 20 19  1  0
 21 19  2  0
M  END
$$$$
