GDL.pdb
     RDKit          3D

 21 20  0  0  1  0  0  0  0  0999 V2000
   18.4154  -14.3066  -19.2041 N   0  0  0  0  0  0  0  0  0  0  0  0
   19.8151  -14.1413  -18.9116 C   0  0  0  0  0  0  0  0  0  0  0  0
   20.2467  -12.7267  -18.9982 C   0  0  0  0  0  0  0  0  0  0  0  0
   21.3685  -12.4747  -19.5059 O   0  0  0  0  0  0  0  0  0  0  0  0
   19.4477  -11.6710  -18.5347 N   0  0  0  0  0  0  0  0  0  0  0  0
   19.8268  -10.2834  -18.5531 C   0  0  1  0  0  0  0  0  0  0  0  0
   18.6536   -9.3593  -18.4648 C   0  0  0  0  0  0  0  0  0  0  0  0
   17.8360   -9.3075  -19.6858 C   0  0  0  0  0  0  0  0  0  0  0  0
   16.6308   -9.6258  -19.7593 O   0  0  0  0  0  0  0  0  0  0  0  0
   20.6569  -10.0417  -17.3164 C   0  0  0  0  0  0  0  0  0  0  0  0
   20.2065  -10.3269  -16.1755 O   0  0  0  0  0  0  0  0  0  0  0  0
   18.4557   -8.8692  -20.8494 O   0  0  0  0  0  0  0  0  0  0  0  0
   26.5996   -9.9868  -15.7312 C   0  0  0  0  0  0  0  0  0  0  0  0
   25.1701   -9.7548  -15.3979 C   0  0  2  0  0  0  0  0  0  0  0  0
   24.7651  -10.6333  -14.1882 C   0  0  0  0  0  0  0  0  0  0  0  0
   24.1515   -9.8230  -16.4583 C   0  0  0  0  0  0  0  0  0  0  0  0
   22.8169   -9.3066  -16.1914 C   0  0  2  0  0  0  0  0  0  0  0  0
   21.9536   -9.4936  -17.3899 N   0  0  0  0  0  0  0  0  0  0  0  0
   22.6671   -7.9517  -15.6879 C   0  0  0  0  0  0  0  0  0  0  0  0
   22.5647   -7.7642  -14.2866 O   0  0  0  0  0  0  0  0  0  0  0  0
   22.6166   -6.9096  -16.3480 O   0  0  0  0  0  0  0  0  0  0  0  0
  1  2  1  0
  3  2  1  0
  4  3  2  0
  5  3  1  0
  6  5  1  0
  6  7  1  1
  8  7  1  0
  8 12  1  0
  9  8  2  0
 10  6  1  0
 10 18  1  0
 11 10  2  0
 14 13  1  6
 14 16  1  0
 14 15  1  0
 17 18  1  0
 17 16  1  6
 19 17  1  0
 20 19  1  0
 21 19  2  0
M  END
$$$$
