GDL.pdb
     RDKit          3D

 21 20  0  0  1  0  0  0  0  0999 V2000
   13.2385  -11.8485  -14.4168 N   0  0  0  0  0  0  0  0  0  0  0  0
   13.8557  -12.2856  -13.1921 C   0  0  0  0  0  0  0  0  0  0  0  0
   14.9281  -11.3680  -12.7416 C   0  0  0  0  0  0  0  0  0  0  0  0
   15.5470  -11.6465  -11.6838 O   0  0  0  0  0  0  0  0  0  0  0  0
   15.2692  -10.2089  -13.4542 N   0  0  0  0  0  0  0  0  0  0  0  0
   16.4117   -9.3796  -13.1772 C   0  0  1  0  0  0  0  0  0  0  0  0
   17.1654   -8.9977  -14.4118 C   0  0  0  0  0  0  0  0  0  0  0  0
   18.3409   -8.1508  -14.1605 C   0  0  0  0  0  0  0  0  0  0  0  0
   19.3053   -8.4566  -13.4288 O   0  0  0  0  0  0  0  0  0  0  0  0
   15.8854   -8.0967  -12.5822 C   0  0  0  0  0  0  0  0  0  0  0  0
   14.9284   -7.4833  -13.1242 O   0  0  0  0  0  0  0  0  0  0  0  0
   18.3795   -6.9121  -14.7882 O   0  0  0  0  0  0  0  0  0  0  0  0
   13.3866   -6.6763   -9.1284 C   0  0  0  0  0  0  0  0  0  0  0  0
   14.7793   -7.0533   -8.7721 C   0  0  2  0  0  0  0  0  0  0  0  0
   14.9315   -7.0990   -7.2314 C   0  0  0  0  0  0  0  0  0  0  0  0
   15.9102   -6.3411   -9.3888 C   0  0  0  0  0  0  0  0  0  0  0  0
   15.9794   -6.2456  -10.8397 C   0  0  2  0  0  0  0  0  0  0  0  0
   16.4383   -7.5422  -11.4101 N   0  0  0  0  0  0  0  0  0  0  0  0
   16.7242   -5.1545  -11.4451 C   0  0  0  0  0  0  0  0  0  0  0  0
   16.1990   -3.8424  -11.3366 O   0  0  0  0  0  0  0  0  0  0  0  0
   17.7914   -5.2286  -12.0615 O   0  0  0  0  0  0  0  0  0  0  0  0
  1  2  1  0
  3  2  1  0
  4  3  2  0
  5  3  1  0
  6  5  1  0
  6  7  1  6
  8  7  1  0
  8 12  1  0
  9  8  2  0
 10  6  1  0
 10 18  1  0
 11 10  2  0
 14 13  1  1
 14 16  1  0
 14 15  1  0
 17 18  1  0
 17 16  1  1
 19 17  1  0
 20 19  1  0
 21 19  2  0
M  END
$$$$
