GDL.pdb
     RDKit          3D

 21 20  0  0  1  0  0  0  0  0999 V2000
   28.7764  -21.8844  -16.6583 N   0  0  0  0  0  0  0  0  0  0  0  0
   27.4855  -21.6449  -17.2485 C   0  0  0  0  0  0  0  0  0  0  0  0
   26.6095  -20.8272  -16.3775 C   0  0  0  0  0  0  0  0  0  0  0  0
   27.0780  -20.3990  -15.2927 O   0  0  0  0  0  0  0  0  0  0  0  0
   25.2856  -20.5201  -16.7249 N   0  0  0  0  0  0  0  0  0  0  0  0
   24.4323  -19.6192  -15.9968 C   0  0  1  0  0  0  0  0  0  0  0  0
   23.3735  -19.0013  -16.8544 C   0  0  0  0  0  0  0  0  0  0  0  0
   23.8300  -17.8371  -17.6278 C   0  0  0  0  0  0  0  0  0  0  0  0
   24.9278  -17.2606  -17.4807 O   0  0  0  0  0  0  0  0  0  0  0  0
   23.7145  -20.4434  -14.9565 C   0  0  0  0  0  0  0  0  0  0  0  0
   23.1170  -21.5041  -15.2785 O   0  0  0  0  0  0  0  0  0  0  0  0
   22.9699  -17.3405  -18.5991 O   0  0  0  0  0  0  0  0  0  0  0  0
   25.7972  -22.0789  -11.5592 C   0  0  0  0  0  0  0  0  0  0  0  0
   25.1576  -20.8002  -11.1537 C   0  0  2  0  0  0  0  0  0  0  0  0
   25.6514  -20.3918   -9.7436 C   0  0  0  0  0  0  0  0  0  0  0  0
   23.6977  -20.6462  -11.2619 C   0  0  0  0  0  0  0  0  0  0  0  0
   23.0529  -20.8979  -12.5425 C   0  0  2  0  0  0  0  0  0  0  0  0
   23.6856  -20.0620  -13.5998 N   0  0  0  0  0  0  0  0  0  0  0  0
   21.6066  -20.7985  -12.6413 C   0  0  0  0  0  0  0  0  0  0  0  0
   20.8256  -21.8804  -12.1627 O   0  0  0  0  0  0  0  0  0  0  0  0
   20.9510  -19.8602  -13.1039 O   0  0  0  0  0  0  0  0  0  0  0  0
  1  2  1  0
  3  2  1  0
  4  3  2  0
  5  3  1  0
  6  5  1  0
  6  7  1  6
  8  7  1  0
  8 12  1  0
  9  8  2  0
 10  6  1  0
 10 18  1  0
 11 10  2  0
 14 13  1  1
 14 16  1  0
 14 15  1  0
 17 18  1  0
 17 16  1  1
 19 17  1  0
 20 19  1  0
 21 19  2  0
M  END
$$$$
