GDL.pdb
     RDKit          3D

 21 20  0  0  1  0  0  0  0  0999 V2000
   11.6087  -12.7064  -11.2935 N   0  0  0  0  0  0  0  0  0  0  0  0
   12.3100  -12.4844  -12.5308 C   0  0  0  0  0  0  0  0  0  0  0  0
   13.6468  -11.8812  -12.3215 C   0  0  0  0  0  0  0  0  0  0  0  0
   14.2866  -12.1922  -11.2855 O   0  0  0  0  0  0  0  0  0  0  0  0
   14.2135  -10.9820  -13.2370 N   0  0  0  0  0  0  0  0  0  0  0  0
   15.5186  -10.3905  -13.1082 C   0  0  1  0  0  0  0  0  0  0  0  0
   16.2491  -10.3054  -14.4110 C   0  0  0  0  0  0  0  0  0  0  0  0
   17.6318   -9.8191  -14.2941 C   0  0  0  0  0  0  0  0  0  0  0  0
   18.0065   -8.6514  -14.5291 O   0  0  0  0  0  0  0  0  0  0  0  0
   15.3098   -8.9712  -12.6402 C   0  0  0  0  0  0  0  0  0  0  0  0
   14.4443   -8.2367  -13.1853 O   0  0  0  0  0  0  0  0  0  0  0  0
   18.5966  -10.7332  -13.8900 O   0  0  0  0  0  0  0  0  0  0  0  0
   13.6450   -6.0934   -9.0829 C   0  0  0  0  0  0  0  0  0  0  0  0
   14.7435   -7.0545   -8.8033 C   0  0  2  0  0  0  0  0  0  0  0  0
   15.0917   -7.0272   -7.2943 C   0  0  0  0  0  0  0  0  0  0  0  0
   15.9658   -7.0268   -9.6230 C   0  0  0  0  0  0  0  0  0  0  0  0
   15.8450   -7.0396  -11.0736 C   0  0  2  0  0  0  0  0  0  0  0  0
   16.0670   -8.4195  -11.5870 N   0  0  0  0  0  0  0  0  0  0  0  0
   16.6209   -6.0952  -11.8595 C   0  0  0  0  0  0  0  0  0  0  0  0
   16.1377   -4.7682  -11.9822 O   0  0  0  0  0  0  0  0  0  0  0  0
   17.6824   -6.3095  -12.4524 O   0  0  0  0  0  0  0  0  0  0  0  0
  1  2  1  0
  3  2  1  0
  4  3  2  0
  5  3  1  0
  6  5  1  0
  6  7  1  6
  8  7  1  0
  8 12  1  0
  9  8  2  0
 10  6  1  0
 10 18  1  0
 11 10  2  0
 14 13  1  6
 14 16  1  0
 14 15  1  0
 17 18  1  0
 17 16  1  1
 19 17  1  0
 20 19  1  0
 21 19  2  0
M  END
$$$$
