GDL.pdb
     RDKit          3D

 21 20  0  0  1  0  0  0  0  0999 V2000
   16.6953  -12.9823  -16.2889 N   0  0  0  0  0  0  0  0  0  0  0  0
   16.5614  -12.3141  -17.5568 C   0  0  0  0  0  0  0  0  0  0  0  0
   17.5234  -11.1980  -17.7111 C   0  0  0  0  0  0  0  0  0  0  0  0
   18.6585  -11.4497  -18.1883 O   0  0  0  0  0  0  0  0  0  0  0  0
   17.2073   -9.8816  -17.3436 N   0  0  0  0  0  0  0  0  0  0  0  0
   18.0891   -8.7539  -17.4858 C   0  0  1  0  0  0  0  0  0  0  0  0
   17.3598   -7.4484  -17.5329 C   0  0  0  0  0  0  0  0  0  0  0  0
   18.2250   -6.2851  -17.7784 C   0  0  0  0  0  0  0  0  0  0  0  0
   17.9315   -5.1008  -17.5130 O   0  0  0  0  0  0  0  0  0  0  0  0
   18.9536   -8.7176  -16.2496 C   0  0  0  0  0  0  0  0  0  0  0  0
   18.4330   -8.6751  -15.1037 O   0  0  0  0  0  0  0  0  0  0  0  0
   19.4676   -6.5249  -18.3513 O   0  0  0  0  0  0  0  0  0  0  0  0
   24.0801  -11.2118  -14.8324 C   0  0  0  0  0  0  0  0  0  0  0  0
   22.7683  -10.5351  -14.6603 C   0  0  2  0  0  0  0  0  0  0  0  0
   21.6212  -11.5484  -14.8976 C   0  0  0  0  0  0  0  0  0  0  0  0
   22.5011   -9.2687  -15.3614 C   0  0  0  0  0  0  0  0  0  0  0  0
   21.2354   -8.5870  -15.1326 C   0  0  2  0  0  0  0  0  0  0  0  0
   20.3609   -8.7300  -16.3291 N   0  0  0  0  0  0  0  0  0  0  0  0
   21.2439   -7.2009  -14.6964 C   0  0  0  0  0  0  0  0  0  0  0  0
   21.2465   -6.9359  -13.3038 O   0  0  0  0  0  0  0  0  0  0  0  0
   21.2498   -6.1924  -15.4086 O   0  0  0  0  0  0  0  0  0  0  0  0
  1  2  1  0
  3  2  1  0
  4  3  2  0
  5  3  1  0
  6  5  1  0
  6  7  1  1
  8  7  1  0
  8 12  1  0
  9  8  2  0
 10  6  1  0
 10 18  1  0
 11 10  2  0
 14 13  1  6
 14 16  1  0
 14 15  1  0
 17 18  1  0
 17 16  1  6
 19 17  1  0
 20 19  1  0
 21 19  2  0
M  END
$$$$
