GDL.pdb
     RDKit          3D

 21 20  0  0  1  0  0  0  0  0999 V2000
   25.7682  -32.7231   -9.6232 N   0  0  0  0  0  0  0  0  0  0  0  0
   26.6641  -32.4802   -8.5230 C   0  0  0  0  0  0  0  0  0  0  0  0
   26.4497  -33.4243   -7.4015 C   0  0  0  0  0  0  0  0  0  0  0  0
   25.4594  -34.1964   -7.4520 O   0  0  0  0  0  0  0  0  0  0  0  0
   27.3114  -33.4807   -6.2960 N   0  0  0  0  0  0  0  0  0  0  0  0
   27.1447  -34.3572   -5.1674 C   0  0  1  0  0  0  0  0  0  0  0  0
   28.4281  -34.6289   -4.4482 C   0  0  0  0  0  0  0  0  0  0  0  0
   28.3188  -35.6375   -3.3839 C   0  0  0  0  0  0  0  0  0  0  0  0
   27.2609  -36.1980   -3.0291 O   0  0  0  0  0  0  0  0  0  0  0  0
   26.2476  -33.6411   -4.1879 C   0  0  0  0  0  0  0  0  0  0  0  0
   26.6499  -32.6123   -3.5833 O   0  0  0  0  0  0  0  0  0  0  0  0
   29.4867  -35.9938   -2.7214 O   0  0  0  0  0  0  0  0  0  0  0  0
   21.2386  -33.8109   -5.5919 C   0  0  0  0  0  0  0  0  0  0  0  0
   22.0406  -34.1195   -4.3795 C   0  0  2  0  0  0  0  0  0  0  0  0
   21.1788  -34.9191   -3.3710 C   0  0  0  0  0  0  0  0  0  0  0  0
   22.7802  -33.0443   -3.6986 C   0  0  0  0  0  0  0  0  0  0  0  0
   24.0151  -33.3683   -2.9992 C   0  0  2  0  0  0  0  0  0  0  0  0
   24.9399  -34.0911   -3.9153 N   0  0  0  0  0  0  0  0  0  0  0  0
   23.9484  -34.0628   -1.7245 C   0  0  0  0  0  0  0  0  0  0  0  0
   24.5854  -35.3242   -1.6137 O   0  0  0  0  0  0  0  0  0  0  0  0
   23.3892  -33.6801   -0.6925 O   0  0  0  0  0  0  0  0  0  0  0  0
  1  2  1  0
  3  2  1  0
  4  3  2  0
  5  3  1  0
  6  5  1  0
  6  7  1  1
  8  7  1  0
  8 12  1  0
  9  8  2  0
 10  6  1  0
 10 18  1  0
 11 10  2  0
 14 13  1  6
 14 16  1  0
 14 15  1  0
 17 18  1  0
 17 16  1  6
 19 17  1  0
 20 19  1  0
 21 19  2  0
M  END
$$$$
