CEG.pdb
     RDKit          3D

 20 19  0  0  1  0  0  0  0  0999 V2000
    7.2553  -20.0161   25.6074 N   0  0  0  0  0  0  0  0  0  0  0  0
    8.2253  -19.3281   26.4601 C   0  0  1  0  0  0  0  0  0  0  0  0
    7.4787  -18.1916   27.1421 C   0  0  0  0  0  0  0  0  0  0  0  0
    7.3566  -16.7808   26.0269 S   0  0  0  0  0  0  0  0  0  0  0  0
    8.7635  -20.2775   27.4401 C   0  0  0  0  0  0  0  0  0  0  0  0
    7.9619  -20.7362   28.3081 O   0  0  0  0  0  0  0  0  0  0  0  0
   10.1074  -20.6911   27.4547 N   0  0  0  0  0  0  0  0  0  0  0  0
   10.6430  -21.6471   28.4343 C   0  0  1  0  0  0  0  0  0  0  0  0
   11.5928  -22.5995   27.7778 C   0  0  0  0  0  0  0  0  0  0  0  0
   10.9760  -23.5832   26.8472 C   0  0  0  0  0  0  0  0  0  0  0  0
   11.9442  -24.5120   26.2100 C   0  0  0  0  0  0  0  0  0  0  0  0
   12.0052  -25.7414   26.4451 O   0  0  0  0  0  0  0  0  0  0  0  0
   11.2293  -20.9020   29.5810 C   0  0  0  0  0  0  0  0  0  0  0  0
   12.1151  -20.0279   29.4363 O   0  0  0  0  0  0  0  0  0  0  0  0
   12.8631  -24.0258   25.2835 O   0  0  0  0  0  0  0  0  0  0  0  0
   10.8086  -21.1458   30.9257 N   0  0  0  0  0  0  0  0  0  0  0  0
   11.4715  -22.1217   31.7531 C   0  0  0  0  0  0  0  0  0  0  0  0
   12.9089  -21.8285   31.9326 C   0  0  0  0  0  0  0  0  0  0  0  0
   13.3883  -21.7451   33.0851 O   0  0  0  0  0  0  0  0  0  0  0  0
   13.7390  -21.6438   30.8462 O   0  0  0  0  0  0  0  0  0  0  0  0
  2  1  1  6
  3  2  1  0
  4  3  1  0
  5  2  1  0
  6  5  2  0
  7  5  1  0
  8  7  1  0
  8  9  1  6
 10  9  1  0
 11 10  1  0
 11 12  2  0
 13 14  2  0
 13  8  1  0
 15 11  1  0
 16 13  1  0
 17 18  1  0
 17 16  1  0
 18 20  1  0
 19 18  2  0
M  END
$$$$
