CEG.pdb
     RDKit          3D

 20 19  0  0  1  0  0  0  0  0999 V2000
    4.8931  -12.7826   26.7965 N   0  0  0  0  0  0  0  0  0  0  0  0
    6.1302  -12.4964   26.0692 C   0  0  1  0  0  0  0  0  0  0  0  0
    7.0837  -11.8537   27.0651 C   0  0  0  0  0  0  0  0  0  0  0  0
    8.6953  -11.6025   26.2978 S   0  0  0  0  0  0  0  0  0  0  0  0
    6.6772  -13.7493   25.5380 C   0  0  0  0  0  0  0  0  0  0  0  0
    6.6710  -14.7590   26.3041 O   0  0  0  0  0  0  0  0  0  0  0  0
    7.1983  -13.8727   24.2378 N   0  0  0  0  0  0  0  0  0  0  0  0
    7.8402  -15.0987   23.7427 C   0  0  1  0  0  0  0  0  0  0  0  0
    8.0756  -15.0126   22.2671 C   0  0  0  0  0  0  0  0  0  0  0  0
    8.6292  -16.2389   21.6319 C   0  0  0  0  0  0  0  0  0  0  0  0
    8.9201  -16.0983   20.1822 C   0  0  0  0  0  0  0  0  0  0  0  0
   10.0546  -15.8561   19.7083 O   0  0  0  0  0  0  0  0  0  0  0  0
    9.0695  -15.3673   24.5369 C   0  0  0  0  0  0  0  0  0  0  0  0
    9.9016  -14.4733   24.8162 O   0  0  0  0  0  0  0  0  0  0  0  0
    7.8923  -16.2375   19.2530 O   0  0  0  0  0  0  0  0  0  0  0  0
    9.3710  -16.6751   25.0302 N   0  0  0  0  0  0  0  0  0  0  0  0
   10.6130  -16.9532   25.7059 C   0  0  0  0  0  0  0  0  0  0  0  0
   10.7176  -18.3619   26.1405 C   0  0  0  0  0  0  0  0  0  0  0  0
   10.4030  -19.2815   25.3531 O   0  0  0  0  0  0  0  0  0  0  0  0
   11.1589  -18.6854   27.4071 O   0  0  0  0  0  0  0  0  0  0  0  0
  2  1  1  1
  3  2  1  0
  4  3  1  0
  5  2  1  0
  6  5  2  0
  7  5  1  0
  8  7  1  0
  8  9  1  6
 10  9  1  0
 11 10  1  0
 11 12  2  0
 13 14  2  0
 13  8  1  0
 15 11  1  0
 16 13  1  0
 17 18  1  0
 17 16  1  0
 18 20  1  0
 19 18  2  0
M  END
$$$$
