CEG.pdb
     RDKit          3D

 20 19  0  0  1  0  0  0  0  0999 V2000
    8.0328  -14.4322   17.9456 N   0  0  0  0  0  0  0  0  0  0  0  0
    9.1391  -13.7898   18.6560 C   0  0  1  0  0  0  0  0  0  0  0  0
    8.5523  -13.1839   19.9219 C   0  0  0  0  0  0  0  0  0  0  0  0
    7.4153  -11.8520   19.4953 S   0  0  0  0  0  0  0  0  0  0  0  0
   10.1595  -14.7959   18.9686 C   0  0  0  0  0  0  0  0  0  0  0  0
    9.7648  -15.9840   19.1667 O   0  0  0  0  0  0  0  0  0  0  0  0
   11.5316  -14.5009   19.0557 N   0  0  0  0  0  0  0  0  0  0  0  0
   12.5426  -15.4912   19.4524 C   0  0  1  0  0  0  0  0  0  0  0  0
   13.7851  -15.3347   18.6326 C   0  0  0  0  0  0  0  0  0  0  0  0
   13.6614  -15.7141   17.1992 C   0  0  0  0  0  0  0  0  0  0  0  0
   14.9285  -15.6191   16.4302 C   0  0  0  0  0  0  0  0  0  0  0  0
   15.7393  -16.5632   16.2827 O   0  0  0  0  0  0  0  0  0  0  0  0
   12.7708  -15.4025   20.9200 C   0  0  0  0  0  0  0  0  0  0  0  0
   13.2221  -14.3723   21.4721 O   0  0  0  0  0  0  0  0  0  0  0  0
   15.2774  -14.4190   15.8160 O   0  0  0  0  0  0  0  0  0  0  0  0
   12.4840  -16.5005   21.7898 N   0  0  0  0  0  0  0  0  0  0  0  0
   12.6129  -16.3775   23.2197 C   0  0  0  0  0  0  0  0  0  0  0  0
   13.6608  -17.2615   23.7716 C   0  0  0  0  0  0  0  0  0  0  0  0
   14.3196  -17.9996   23.0061 O   0  0  0  0  0  0  0  0  0  0  0  0
   13.9292  -17.2889   25.1247 O   0  0  0  0  0  0  0  0  0  0  0  0
  2  1  1  1
  3  2  1  0
  4  3  1  0
  5  2  1  0
  6  5  2  0
  7  5  1  0
  8  7  1  0
  8  9  1  6
 10  9  1  0
 11 10  1  0
 11 12  2  0
 13 14  2  0
 13  8  1  0
 15 11  1  0
 16 13  1  0
 17 18  1  0
 17 16  1  0
 18 20  1  0
 19 18  2  0
M  END
$$$$
