CEG.pdb
     RDKit          3D

 20 19  0  0  1  0  0  0  0  0999 V2000
    6.0454  -14.7952   20.5657 N   0  0  0  0  0  0  0  0  0  0  0  0
    7.3820  -14.6320   21.1384 C   0  0  1  0  0  0  0  0  0  0  0  0
    7.7748  -13.1780   20.9238 C   0  0  0  0  0  0  0  0  0  0  0  0
    8.2463  -12.9168   19.2038 S   0  0  0  0  0  0  0  0  0  0  0  0
    7.3389  -14.9686   22.5653 C   0  0  0  0  0  0  0  0  0  0  0  0
    6.4355  -14.4215   23.2660 O   0  0  0  0  0  0  0  0  0  0  0  0
    8.2423  -15.8569   23.1753 N   0  0  0  0  0  0  0  0  0  0  0  0
    8.0949  -16.3277   24.5598 C   0  0  1  0  0  0  0  0  0  0  0  0
    7.5397  -17.7174   24.5886 C   0  0  0  0  0  0  0  0  0  0  0  0
    7.4134  -18.3312   25.9382 C   0  0  0  0  0  0  0  0  0  0  0  0
    6.9543  -19.7436   25.9267 C   0  0  0  0  0  0  0  0  0  0  0  0
    6.6713  -20.4041   26.9534 O   0  0  0  0  0  0  0  0  0  0  0  0
    9.3929  -16.1798   25.2719 C   0  0  0  0  0  0  0  0  0  0  0  0
   10.4957  -16.2062   24.6781 O   0  0  0  0  0  0  0  0  0  0  0  0
    6.8153  -20.4168   24.7156 O   0  0  0  0  0  0  0  0  0  0  0  0
    9.4526  -15.9971   26.6888 N   0  0  0  0  0  0  0  0  0  0  0  0
   10.7129  -15.9501   27.3859 C   0  0  0  0  0  0  0  0  0  0  0  0
   10.6771  -16.6815   28.6696 C   0  0  0  0  0  0  0  0  0  0  0  0
    9.6430  -17.3002   29.0053 O   0  0  0  0  0  0  0  0  0  0  0  0
   11.7700  -16.6959   29.5116 O   0  0  0  0  0  0  0  0  0  0  0  0
  2  1  1  1
  3  2  1  0
  4  3  1  0
  5  2  1  0
  6  5  2  0
  7  5  1  0
  8  7  1  0
  8  9  1  6
 10  9  1  0
 11 10  1  0
 11 12  2  0
 13 14  2  0
 13  8  1  0
 15 11  1  0
 16 13  1  0
 17 18  1  0
 17 16  1  0
 18 20  1  0
 19 18  2  0
M  END
$$$$
