CEG.pdb
     RDKit          3D

 20 19  0  0  1  0  0  0  0  0999 V2000
    7.4625  -15.5863   20.1190 N   0  0  0  0  0  0  0  0  0  0  0  0
    8.0995  -14.8416   21.2056 C   0  0  1  0  0  0  0  0  0  0  0  0
    7.0154  -13.9856   21.8429 C   0  0  0  0  0  0  0  0  0  0  0  0
    7.7313  -12.9451   23.1289 S   0  0  0  0  0  0  0  0  0  0  0  0
    8.6679  -15.7891   22.1702 C   0  0  0  0  0  0  0  0  0  0  0  0
    7.9205  -16.7307   22.5717 O   0  0  0  0  0  0  0  0  0  0  0  0
    9.9835  -15.6964   22.6580 N   0  0  0  0  0  0  0  0  0  0  0  0
   10.5359  -16.6197   23.6593 C   0  0  1  0  0  0  0  0  0  0  0  0
   11.8970  -17.0894   23.2504 C   0  0  0  0  0  0  0  0  0  0  0  0
   11.9683  -17.7894   21.9394 C   0  0  0  0  0  0  0  0  0  0  0  0
   13.3457  -18.1386   21.5071 C   0  0  0  0  0  0  0  0  0  0  0  0
   14.2168  -18.6397   22.2558 O   0  0  0  0  0  0  0  0  0  0  0  0
   10.4957  -15.9752   24.9998 C   0  0  0  0  0  0  0  0  0  0  0  0
   10.8738  -14.7967   25.1941 O   0  0  0  0  0  0  0  0  0  0  0  0
   13.7369  -17.9104   20.1902 O   0  0  0  0  0  0  0  0  0  0  0  0
   10.0175  -16.6739   26.1521 N   0  0  0  0  0  0  0  0  0  0  0  0
    9.9868  -16.0472   27.4493 C   0  0  0  0  0  0  0  0  0  0  0  0
   10.8462  -16.7394   28.4326 C   0  0  0  0  0  0  0  0  0  0  0  0
   11.5327  -17.7226   28.0765 O   0  0  0  0  0  0  0  0  0  0  0  0
   10.9068  -16.3194   29.7454 O   0  0  0  0  0  0  0  0  0  0  0  0
  2  1  1  6
  3  2  1  0
  4  3  1  0
  5  2  1  0
  6  5  2  0
  7  5  1  0
  8  7  1  0
  8  9  1  6
 10  9  1  0
 11 10  1  0
 11 12  2  0
 13 14  2  0
 13  8  1  0
 15 11  1  0
 16 13  1  0
 17 18  1  0
 17 16  1  0
 18 20  1  0
 19 18  2  0
M  END
$$$$
