CEG.pdb
     RDKit          3D

 20 19  0  0  1  0  0  0  0  0999 V2000
    5.5996  -13.6863   26.4650 N   0  0  0  0  0  0  0  0  0  0  0  0
    6.3630  -13.2522   25.2945 C   0  0  1  0  0  0  0  0  0  0  0  0
    7.1223  -12.0005   25.7077 C   0  0  0  0  0  0  0  0  0  0  0  0
    7.9750  -12.2870   27.2696 S   0  0  0  0  0  0  0  0  0  0  0  0
    7.2794  -14.3246   24.8926 C   0  0  0  0  0  0  0  0  0  0  0  0
    7.5840  -15.1893   25.7677 O   0  0  0  0  0  0  0  0  0  0  0  0
    7.8232  -14.4296   23.6000 N   0  0  0  0  0  0  0  0  0  0  0  0
    8.6144  -15.5846   23.1528 C   0  0  1  0  0  0  0  0  0  0  0  0
    8.7591  -15.5806   21.6631 C   0  0  0  0  0  0  0  0  0  0  0  0
    7.6683  -16.2561   20.9096 C   0  0  0  0  0  0  0  0  0  0  0  0
    8.1343  -17.3122   19.9749 C   0  0  0  0  0  0  0  0  0  0  0  0
    8.6058  -18.4166   20.3333 O   0  0  0  0  0  0  0  0  0  0  0  0
    9.9087  -15.6096   23.8864 C   0  0  0  0  0  0  0  0  0  0  0  0
   10.6252  -14.5915   24.0266 O   0  0  0  0  0  0  0  0  0  0  0  0
    8.0602  -17.1022   18.6003 O   0  0  0  0  0  0  0  0  0  0  0  0
   10.4106  -16.8107   24.4780 N   0  0  0  0  0  0  0  0  0  0  0  0
   11.6247  -16.8133   25.2542 C   0  0  0  0  0  0  0  0  0  0  0  0
   11.8703  -18.1116   25.9163 C   0  0  0  0  0  0  0  0  0  0  0  0
   11.0542  -19.0485   25.7719 O   0  0  0  0  0  0  0  0  0  0  0  0
   12.9905  -18.3124   26.6962 O   0  0  0  0  0  0  0  0  0  0  0  0
  2  1  1  1
  3  2  1  0
  4  3  1  0
  5  2  1  0
  6  5  2  0
  7  5  1  0
  8  7  1  0
  8  9  1  6
 10  9  1  0
 11 10  1  0
 11 12  2  0
 13 14  2  0
 13  8  1  0
 15 11  1  0
 16 13  1  0
 17 18  1  0
 17 16  1  0
 18 20  1  0
 19 18  2  0
M  END
$$$$
