CEG.pdb
     RDKit          3D

 20 19  0  0  1  0  0  0  0  0999 V2000
    3.1075  -22.4511   23.2048 N   0  0  0  0  0  0  0  0  0  0  0  0
    2.7485  -23.5525   24.0989 C   0  0  1  0  0  0  0  0  0  0  0  0
    3.8536  -23.6481   25.1399 C   0  0  0  0  0  0  0  0  0  0  0  0
    5.4539  -23.7993   24.3244 S   0  0  0  0  0  0  0  0  0  0  0  0
    1.4520  -23.2644   24.7212 C   0  0  0  0  0  0  0  0  0  0  0  0
    1.2755  -22.0990   25.1872 O   0  0  0  0  0  0  0  0  0  0  0  0
    0.4170  -24.2111   24.8197 N   0  0  0  0  0  0  0  0  0  0  0  0
   -0.8636  -23.9350   25.4861 C   0  0  1  0  0  0  0  0  0  0  0  0
   -2.0100  -24.3732   24.6294 C   0  0  0  0  0  0  0  0  0  0  0  0
   -2.7820  -23.2795   23.9801 C   0  0  0  0  0  0  0  0  0  0  0  0
   -3.8744  -23.7478   23.0894 C   0  0  0  0  0  0  0  0  0  0  0  0
   -5.0733  -23.8575   23.4372 O   0  0  0  0  0  0  0  0  0  0  0  0
   -0.8548  -24.5446   26.8434 C   0  0  0  0  0  0  0  0  0  0  0  0
    0.0968  -25.2424   27.2641 O   0  0  0  0  0  0  0  0  0  0  0  0
   -3.5911  -24.0988   21.7719 O   0  0  0  0  0  0  0  0  0  0  0  0
   -1.9445  -24.3648   27.7516 N   0  0  0  0  0  0  0  0  0  0  0  0
   -1.9094  -24.9157   29.0827 C   0  0  0  0  0  0  0  0  0  0  0  0
   -3.1727  -24.6990   29.8184 C   0  0  0  0  0  0  0  0  0  0  0  0
   -4.0938  -24.0358   29.2924 O   0  0  0  0  0  0  0  0  0  0  0  0
   -3.3581  -25.2177   31.0833 O   0  0  0  0  0  0  0  0  0  0  0  0
  2  1  1  6
  3  2  1  0
  4  3  1  0
  5  2  1  0
  6  5  2  0
  7  5  1  0
  8  7  1  0
  8  9  1  6
 10  9  1  0
 11 10  1  0
 11 12  2  0
 13 14  2  0
 13  8  1  0
 15 11  1  0
 16 13  1  0
 17 18  1  0
 17 16  1  0
 18 20  1  0
 19 18  2  0
M  END
$$$$
