CEG.pdb
     RDKit          3D

 20 19  0  0  1  0  0  0  0  0999 V2000
    8.3306  -16.0150   20.6928 N   0  0  0  0  0  0  0  0  0  0  0  0
    8.9685  -15.2398   21.7574 C   0  0  1  0  0  0  0  0  0  0  0  0
    7.8520  -14.5390   22.5166 C   0  0  0  0  0  0  0  0  0  0  0  0
    7.2455  -13.1365   21.5606 S   0  0  0  0  0  0  0  0  0  0  0  0
    9.7199  -16.1479   22.6303 C   0  0  0  0  0  0  0  0  0  0  0  0
    9.2361  -17.3034   22.8236 O   0  0  0  0  0  0  0  0  0  0  0  0
   10.9320  -15.7947   23.2493 N   0  0  0  0  0  0  0  0  0  0  0  0
   11.7147  -16.7268   24.0733 C   0  0  1  0  0  0  0  0  0  0  0  0
   13.1445  -16.2909   24.1502 C   0  0  0  0  0  0  0  0  0  0  0  0
   14.0018  -16.6937   23.0028 C   0  0  0  0  0  0  0  0  0  0  0  0
   15.4178  -16.2600   23.1160 C   0  0  0  0  0  0  0  0  0  0  0  0
   16.3778  -17.0315   23.3476 O   0  0  0  0  0  0  0  0  0  0  0  0
   11.0578  -16.8841   25.3991 C   0  0  0  0  0  0  0  0  0  0  0  0
   10.4600  -15.9440   25.9722 O   0  0  0  0  0  0  0  0  0  0  0  0
   15.7447  -14.9152   22.9612 O   0  0  0  0  0  0  0  0  0  0  0  0
   11.0734  -18.1309   26.0989 N   0  0  0  0  0  0  0  0  0  0  0  0
   10.4392  -18.2767   27.3846 C   0  0  0  0  0  0  0  0  0  0  0  0
   11.2095  -19.1439   28.3005 C   0  0  0  0  0  0  0  0  0  0  0  0
   12.2880  -19.6500   27.9191 O   0  0  0  0  0  0  0  0  0  0  0  0
   10.7594  -19.4083   29.5776 O   0  0  0  0  0  0  0  0  0  0  0  0
  2  1  1  6
  3  2  1  0
  4  3  1  0
  5  2  1  0
  6  5  2  0
  7  5  1  0
  8  7  1  0
  8  9  1  1
 10  9  1  0
 11 10  1  0
 11 12  2  0
 13 14  2  0
 13  8  1  0
 15 11  1  0
 16 13  1  0
 17 18  1  0
 17 16  1  0
 18 20  1  0
 19 18  2  0
M  END
$$$$
