CEG.pdb
     RDKit          3D

 20 19  0  0  1  0  0  0  0  0999 V2000
    6.7245  -13.9660   19.2987 N   0  0  0  0  0  0  0  0  0  0  0  0
    8.0282  -13.9508   19.9630 C   0  0  1  0  0  0  0  0  0  0  0  0
    7.9166  -12.9719   21.1220 C   0  0  0  0  0  0  0  0  0  0  0  0
    7.9964  -11.2797   20.5064 S   0  0  0  0  0  0  0  0  0  0  0  0
    8.3440  -15.3033   20.4347 C   0  0  0  0  0  0  0  0  0  0  0  0
    7.3927  -15.9904   20.9134 O   0  0  0  0  0  0  0  0  0  0  0  0
    9.6352  -15.8573   20.3780 N   0  0  0  0  0  0  0  0  0  0  0  0
    9.9495  -17.2122   20.8532 C   0  0  1  0  0  0  0  0  0  0  0  0
   10.6979  -17.9781   19.8075 C   0  0  0  0  0  0  0  0  0  0  0  0
   11.1310  -19.3465   20.1998 C   0  0  0  0  0  0  0  0  0  0  0  0
   11.9614  -20.0400   19.1822 C   0  0  0  0  0  0  0  0  0  0  0  0
   13.0798  -19.6360   18.7866 O   0  0  0  0  0  0  0  0  0  0  0  0
   10.6550  -17.1251   22.1604 C   0  0  0  0  0  0  0  0  0  0  0  0
   10.7459  -18.0979   22.9447 O   0  0  0  0  0  0  0  0  0  0  0  0
   11.5043  -21.2213   18.6035 O   0  0  0  0  0  0  0  0  0  0  0  0
   11.2746  -15.9128   22.5972 N   0  0  0  0  0  0  0  0  0  0  0  0
   12.0090  -15.8504   23.8354 C   0  0  0  0  0  0  0  0  0  0  0  0
   13.3939  -16.3476   23.6976 C   0  0  0  0  0  0  0  0  0  0  0  0
   13.7709  -16.8486   22.6152 O   0  0  0  0  0  0  0  0  0  0  0  0
   14.2862  -16.2693   24.7470 O   0  0  0  0  0  0  0  0  0  0  0  0
  2  1  1  1
  3  2  1  0
  4  3  1  0
  5  2  1  0
  6  5  2  0
  7  5  1  0
  8  7  1  0
  8  9  1  6
 10  9  1  0
 11 10  1  0
 11 12  2  0
 13 14  2  0
 13  8  1  0
 15 11  1  0
 16 13  1  0
 17 18  1  0
 17 16  1  0
 18 20  1  0
 19 18  2  0
M  END
$$$$
