CEG.pdb
     RDKit          3D

 20 19  0  0  1  0  0  0  0  0999 V2000
    5.8404  -14.1790   26.5885 N   0  0  0  0  0  0  0  0  0  0  0  0
    6.6220  -13.6347   25.4777 C   0  0  1  0  0  0  0  0  0  0  0  0
    7.3905  -12.4423   26.0272 C   0  0  0  0  0  0  0  0  0  0  0  0
    6.2611  -11.0707   26.3303 S   0  0  0  0  0  0  0  0  0  0  0  0
    7.5309  -14.6704   24.9753 C   0  0  0  0  0  0  0  0  0  0  0  0
    8.1889  -15.3335   25.8319 O   0  0  0  0  0  0  0  0  0  0  0  0
    7.6981  -14.9518   23.6078 N   0  0  0  0  0  0  0  0  0  0  0  0
    8.6806  -15.9204   23.1012 C   0  0  1  0  0  0  0  0  0  0  0  0
    8.3763  -16.2884   21.6827 C   0  0  0  0  0  0  0  0  0  0  0  0
    9.3047  -17.2705   21.0602 C   0  0  0  0  0  0  0  0  0  0  0  0
    8.6305  -18.3373   20.2770 C   0  0  0  0  0  0  0  0  0  0  0  0
    7.9604  -18.1359   19.2373 O   0  0  0  0  0  0  0  0  0  0  0  0
   10.0532  -15.3837   23.3060 C   0  0  0  0  0  0  0  0  0  0  0  0
   10.3393  -14.1766   23.1310 O   0  0  0  0  0  0  0  0  0  0  0  0
    8.7237  -19.6639   20.6904 O   0  0  0  0  0  0  0  0  0  0  0  0
   11.1325  -16.2261   23.7185 N   0  0  0  0  0  0  0  0  0  0  0  0
   12.4851  -15.7335   23.7835 C   0  0  0  0  0  0  0  0  0  0  0  0
   13.4193  -16.7202   24.3647 C   0  0  0  0  0  0  0  0  0  0  0  0
   12.9915  -17.8302   24.7515 O   0  0  0  0  0  0  0  0  0  0  0  0
   14.7643  -16.4394   24.4899 O   0  0  0  0  0  0  0  0  0  0  0  0
  2  1  1  1
  3  2  1  0
  4  3  1  0
  5  2  1  0
  6  5  2  0
  7  5  1  0
  8  7  1  0
  8  9  1  6
 10  9  1  0
 11 10  1  0
 11 12  2  0
 13 14  2  0
 13  8  1  0
 15 11  1  0
 16 13  1  0
 17 18  1  0
 17 16  1  0
 18 20  1  0
 19 18  2  0
M  END
$$$$
