CEG.pdb
     RDKit          3D

 20 19  0  0  1  0  0  0  0  0999 V2000
   10.1265  -19.8868   18.7861 N   0  0  0  0  0  0  0  0  0  0  0  0
   10.9485  -18.7090   19.0662 C   0  0  1  0  0  0  0  0  0  0  0  0
    9.9955  -17.6020   19.4909 C   0  0  0  0  0  0  0  0  0  0  0  0
    9.1235  -18.0850   20.9927 S   0  0  0  0  0  0  0  0  0  0  0  0
   11.9029  -19.0305   20.1326 C   0  0  0  0  0  0  0  0  0  0  0  0
   11.6016  -19.9787   20.9178 O   0  0  0  0  0  0  0  0  0  0  0  0
   13.1154  -18.3422   20.3150 N   0  0  0  0  0  0  0  0  0  0  0  0
   14.0427  -18.6272   21.4192 C   0  0  1  0  0  0  0  0  0  0  0  0
   15.4164  -18.1277   21.0973 C   0  0  0  0  0  0  0  0  0  0  0  0
   16.0654  -18.7506   19.9121 C   0  0  0  0  0  0  0  0  0  0  0  0
   17.4332  -18.2459   19.6285 C   0  0  0  0  0  0  0  0  0  0  0  0
   18.3796  -18.2667   20.4497 O   0  0  0  0  0  0  0  0  0  0  0  0
   13.4827  -18.0839   22.6862 C   0  0  0  0  0  0  0  0  0  0  0  0
   12.9011  -16.9760   22.7471 O   0  0  0  0  0  0  0  0  0  0  0  0
   17.7267  -17.7053   18.3792 O   0  0  0  0  0  0  0  0  0  0  0  0
   13.5790  -18.8053   23.9170 N   0  0  0  0  0  0  0  0  0  0  0  0
   12.8644  -18.3790   25.0934 C   0  0  0  0  0  0  0  0  0  0  0  0
   12.9866  -19.3405   26.2092 C   0  0  0  0  0  0  0  0  0  0  0  0
   13.6784  -20.3732   26.0684 O   0  0  0  0  0  0  0  0  0  0  0  0
   12.3483  -19.1199   27.4123 O   0  0  0  0  0  0  0  0  0  0  0  0
  2  1  1  1
  3  2  1  0
  4  3  1  0
  5  2  1  0
  6  5  2  0
  7  5  1  0
  8  7  1  0
  8  9  1  6
 10  9  1  0
 11 10  1  0
 11 12  2  0
 13 14  2  0
 13  8  1  0
 15 11  1  0
 16 13  1  0
 17 18  1  0
 17 16  1  0
 18 20  1  0
 19 18  2  0
M  END
$$$$
