CEG.pdb
     RDKit          3D

 20 19  0  0  1  0  0  0  0  0999 V2000
    8.2601  -12.7941   18.3612 N   0  0  0  0  0  0  0  0  0  0  0  0
    8.9378  -14.0878   18.4521 C   0  0  1  0  0  0  0  0  0  0  0  0
    9.2217  -14.5335   17.0256 C   0  0  0  0  0  0  0  0  0  0  0  0
    7.7445  -15.2778   16.3094 S   0  0  0  0  0  0  0  0  0  0  0  0
   10.1780  -13.9288   19.2188 C   0  0  0  0  0  0  0  0  0  0  0  0
   10.8454  -12.8673   19.0338 O   0  0  0  0  0  0  0  0  0  0  0  0
   10.6472  -14.8885   20.1333 N   0  0  0  0  0  0  0  0  0  0  0  0
   11.9362  -14.7717   20.8298 C   0  0  1  0  0  0  0  0  0  0  0  0
   11.9526  -15.6281   22.0572 C   0  0  0  0  0  0  0  0  0  0  0  0
   13.2613  -15.7202   22.7591 C   0  0  0  0  0  0  0  0  0  0  0  0
   13.2712  -16.6544   23.9137 C   0  0  0  0  0  0  0  0  0  0  0  0
   12.4781  -17.6145   24.0541 O   0  0  0  0  0  0  0  0  0  0  0  0
   13.0405  -15.0608   19.8754 C   0  0  0  0  0  0  0  0  0  0  0  0
   12.9007  -15.8251   18.8926 O   0  0  0  0  0  0  0  0  0  0  0  0
   14.2078  -16.4884   24.9308 O   0  0  0  0  0  0  0  0  0  0  0  0
   14.3357  -14.4752   20.0298 N   0  0  0  0  0  0  0  0  0  0  0  0
   15.3574  -14.6407   19.0272 C   0  0  0  0  0  0  0  0  0  0  0  0
   16.5593  -13.8265   19.3043 C   0  0  0  0  0  0  0  0  0  0  0  0
   16.6375  -13.1736   20.3685 O   0  0  0  0  0  0  0  0  0  0  0  0
   17.6050  -13.7719   18.4059 O   0  0  0  0  0  0  0  0  0  0  0  0
  2  1  1  6
  3  2  1  0
  4  3  1  0
  5  2  1  0
  6  5  2  0
  7  5  1  0
  8  7  1  0
  8  9  1  1
 10  9  1  0
 11 10  1  0
 11 12  2  0
 13 14  2  0
 13  8  1  0
 15 11  1  0
 16 13  1  0
 17 18  1  0
 17 16  1  0
 18 20  1  0
 19 18  2  0
M  END
$$$$
