CEG.pdb
     RDKit          3D

 20 19  0  0  1  0  0  0  0  0999 V2000
    7.1463  -12.8101   18.8986 N   0  0  0  0  0  0  0  0  0  0  0  0
    7.9852  -13.9667   18.5824 C   0  0  1  0  0  0  0  0  0  0  0  0
    8.1375  -13.9953   17.0691 C   0  0  0  0  0  0  0  0  0  0  0  0
    7.2234  -15.3906   16.3862 S   0  0  0  0  0  0  0  0  0  0  0  0
    9.2839  -13.8156   19.2472 C   0  0  0  0  0  0  0  0  0  0  0  0
    9.8256  -12.6703   19.2142 O   0  0  0  0  0  0  0  0  0  0  0  0
    9.9393  -14.8704   19.9069 N   0  0  0  0  0  0  0  0  0  0  0  0
   11.2880  -14.7462   20.4778 C   0  0  1  0  0  0  0  0  0  0  0  0
   11.4223  -15.5938   21.7041 C   0  0  0  0  0  0  0  0  0  0  0  0
   12.7815  -15.6400   22.3077 C   0  0  0  0  0  0  0  0  0  0  0  0
   12.8682  -16.4366   23.5582 C   0  0  0  0  0  0  0  0  0  0  0  0
   11.8980  -17.0229   24.0925 O   0  0  0  0  0  0  0  0  0  0  0  0
   12.2980  -15.0401   19.4255 C   0  0  0  0  0  0  0  0  0  0  0  0
   12.0425  -15.7464   18.4227 O   0  0  0  0  0  0  0  0  0  0  0  0
   14.0903  -16.5666   24.2132 O   0  0  0  0  0  0  0  0  0  0  0  0
   13.6302  -14.5263   19.5024 N   0  0  0  0  0  0  0  0  0  0  0  0
   14.5997  -14.8002   18.4721 C   0  0  0  0  0  0  0  0  0  0  0  0
   15.8647  -14.0635   18.6752 C   0  0  0  0  0  0  0  0  0  0  0  0
   15.9818  -13.2827   19.6455 O   0  0  0  0  0  0  0  0  0  0  0  0
   16.9273  -14.2211   17.8095 O   0  0  0  0  0  0  0  0  0  0  0  0
  2  1  1  6
  3  2  1  0
  4  3  1  0
  5  2  1  0
  6  5  2  0
  7  5  1  0
  8  7  1  0
  8  9  1  1
 10  9  1  0
 11 10  1  0
 11 12  2  0
 13 14  2  0
 13  8  1  0
 15 11  1  0
 16 13  1  0
 17 18  1  0
 17 16  1  0
 18 20  1  0
 19 18  2  0
M  END
$$$$
