PPI.pdb
     RDKit          3D

 23 24  0  0  1  0  0  0  0  0999 V2000
    8.7021  -15.1398   20.5838 N   0  0  0  0  0  0  0  0  0  0  0  0
    7.7535  -15.2898   19.4451 C   0  0  0  0  0  0  0  0  0  0  0  0
    6.7709  -16.2685   20.1057 C   0  0  0  0  0  0  0  0  0  0  0  0
    6.7377  -15.7287   21.5451 C   0  0  0  0  0  0  0  0  0  0  0  0
    7.7698  -14.6183   21.5554 C   0  0  1  0  0  0  0  0  0  0  0  0
    8.2796  -14.3514   22.8853 C   0  0  0  0  0  0  0  0  0  0  0  0
    9.5737  -14.3586   22.9400 O   0  0  0  0  0  0  0  0  0  0  0  0
    7.5792  -14.0954   24.0813 N   0  0  0  0  0  0  0  0  0  0  0  0
    6.1745  -14.0126   24.3757 C   0  0  0  0  0  0  0  0  0  0  0  0
    6.1265  -12.6522   25.0586 C   0  0  0  0  0  0  0  0  0  0  0  0
    7.3714  -12.7652   25.9533 C   0  0  0  0  0  0  0  0  0  0  0  0
    8.2179  -13.8630   25.3602 C   0  0  1  0  0  0  0  0  0  0  0  0
    8.1762  -15.0251   26.2698 C   0  0  0  0  0  0  0  0  0  0  0  0
    7.6877  -16.0812   25.7685 O   0  0  0  0  0  0  0  0  0  0  0  0
   12.0051  -15.0095   31.0842 C   0  0  0  0  0  0  0  0  0  0  0  0
   11.6875  -15.5661   29.7237 C   0  0  0  0  0  0  0  0  0  0  0  0
   10.6138  -14.8530   28.9956 C   0  0  2  0  0  0  0  0  0  0  0  0
    9.5891  -14.2329   29.9577 C   0  0  0  0  0  0  0  0  0  0  0  0
    9.8848  -15.6383   27.9458 C   0  0  2  0  0  0  0  0  0  0  0  0
    8.6146  -15.0553   27.5924 N   0  0  0  0  0  0  0  0  0  0  0  0
    9.8412  -17.0798   28.2228 C   0  0  0  0  0  0  0  0  0  0  0  0
    8.5997  -17.7079   28.3296 O   0  0  0  0  0  0  0  0  0  0  0  0
   10.8768  -17.7721   28.3695 O   0  0  0  0  0  0  0  0  0  0  0  0
  1  5  1  0
  1  2  1  0
  2  3  1  0
  4  3  1  0
  5  4  1  0
  6  8  1  0
  5  6  1  1
  7  6  2  0
  8 12  1  0
  9 10  1  0
  9  8  1  0
 10 11  1  0
 11 12  1  0
 12 13  1  1
 13 14  2  0
 16 15  1  0
 17 16  1  0
 17 18  1  1
 19 17  1  0
 19 20  1  1
 20 13  1  0
 21 19  1  0
 22 21  1  0
 23 21  2  0
M  END
$$$$
