PPI.pdb
     RDKit          3D

 23 24  0  0  1  0  0  0  0  0999 V2000
    6.5997  -19.2848   20.9168 N   0  0  0  0  0  0  0  0  0  0  0  0
    5.1961  -19.7825   20.8784 C   0  0  0  0  0  0  0  0  0  0  0  0
    4.7707  -19.3482   22.2891 C   0  0  0  0  0  0  0  0  0  0  0  0
    5.4905  -17.9950   22.4121 C   0  0  0  0  0  0  0  0  0  0  0  0
    6.3119  -17.8879   21.1424 C   0  0  1  0  0  0  0  0  0  0  0  0
    7.4430  -16.9944   21.2909 C   0  0  0  0  0  0  0  0  0  0  0  0
    8.5821  -17.5981   21.1654 O   0  0  0  0  0  0  0  0  0  0  0  0
    7.4658  -15.6083   21.5449 N   0  0  0  0  0  0  0  0  0  0  0  0
    6.4142  -14.6409   21.7026 C   0  0  0  0  0  0  0  0  0  0  0  0
    6.8593  -13.5973   20.6867 C   0  0  0  0  0  0  0  0  0  0  0  0
    8.3644  -13.5567   20.9967 C   0  0  0  0  0  0  0  0  0  0  0  0
    8.6786  -14.8379   21.7270 C   0  0  1  0  0  0  0  0  0  0  0  0
    8.9731  -14.5096   23.1359 C   0  0  0  0  0  0  0  0  0  0  0  0
   10.1249  -14.0241   23.3439 O   0  0  0  0  0  0  0  0  0  0  0  0
    6.1131  -11.4749   26.1011 C   0  0  0  0  0  0  0  0  0  0  0  0
    7.2511  -12.2513   25.4981 C   0  0  0  0  0  0  0  0  0  0  0  0
    7.6834  -13.4303   26.2819 C   0  0  2  0  0  0  0  0  0  0  0  0
    8.3634  -13.0208   27.5971 C   0  0  0  0  0  0  0  0  0  0  0  0
    8.5554  -14.4214   25.5694 C   0  0  2  0  0  0  0  0  0  0  0  0
    8.1170  -14.6848   24.2216 N   0  0  0  0  0  0  0  0  0  0  0  0
    8.8430  -15.6215   26.3655 C   0  0  0  0  0  0  0  0  0  0  0  0
    9.9659  -15.6270   27.1939 O   0  0  0  0  0  0  0  0  0  0  0  0
    8.1199  -16.6457   26.3306 O   0  0  0  0  0  0  0  0  0  0  0  0
  1  5  1  0
  1  2  1  0
  2  3  1  0
  4  3  1  0
  5  4  1  0
  6  8  1  0
  5  6  1  1
  7  6  2  0
  8 12  1  0
  9 10  1  0
  9  8  1  0
 10 11  1  0
 11 12  1  0
 12 13  1  1
 13 14  2  0
 16 15  1  0
 17 16  1  0
 17 18  1  1
 19 17  1  0
 19 20  1  6
 20 13  1  0
 21 19  1  0
 22 21  1  0
 23 21  2  0
M  END
$$$$
