PPI.pdb
     RDKit          3D

 23 24  0  0  1  0  0  0  0  0999 V2000
    7.2082  -19.8703   21.5745 N   0  0  0  0  0  0  0  0  0  0  0  0
    5.8874  -20.5563   21.6366 C   0  0  0  0  0  0  0  0  0  0  0  0
    5.4556  -20.0751   23.0301 C   0  0  0  0  0  0  0  0  0  0  0  0
    5.9835  -18.6309   23.0215 C   0  0  0  0  0  0  0  0  0  0  0  0
    6.7366  -18.5123   21.7111 C   0  0  1  0  0  0  0  0  0  0  0  0
    7.7366  -17.4641   21.7424 C   0  0  0  0  0  0  0  0  0  0  0  0
    8.9384  -17.9082   21.5526 O   0  0  0  0  0  0  0  0  0  0  0  0
    7.5794  -16.0783   21.9452 N   0  0  0  0  0  0  0  0  0  0  0  0
    6.4175  -15.2653   22.1816 C   0  0  0  0  0  0  0  0  0  0  0  0
    6.5985  -14.2200   21.0889 C   0  0  0  0  0  0  0  0  0  0  0  0
    8.1045  -13.9484   21.2345 C   0  0  0  0  0  0  0  0  0  0  0  0
    8.6769  -15.1336   21.9701 C   0  0  1  0  0  0  0  0  0  0  0  0
    9.0602  -14.6973   23.3275 C   0  0  0  0  0  0  0  0  0  0  0  0
    9.7573  -13.6402   23.3740 O   0  0  0  0  0  0  0  0  0  0  0  0
    7.3582  -11.3083   27.0864 C   0  0  0  0  0  0  0  0  0  0  0  0
    8.2296  -12.5331   27.0380 C   0  0  0  0  0  0  0  0  0  0  0  0
    8.0513  -13.3755   25.8338 C   0  0  2  0  0  0  0  0  0  0  0  0
    6.5710  -13.6971   25.5788 C   0  0  0  0  0  0  0  0  0  0  0  0
    8.8425  -14.6491   25.7880 C   0  0  2  0  0  0  0  0  0  0  0  0
    8.7303  -15.3321   24.5235 N   0  0  0  0  0  0  0  0  0  0  0  0
    8.6395  -15.5030   26.9655 C   0  0  0  0  0  0  0  0  0  0  0  0
    8.0555  -16.7588   26.7941 O   0  0  0  0  0  0  0  0  0  0  0  0
    8.9687  -15.1489   28.1228 O   0  0  0  0  0  0  0  0  0  0  0  0
  1  5  1  0
  1  2  1  0
  2  3  1  0
  4  3  1  0
  5  4  1  0
  6  8  1  0
  5  6  1  1
  7  6  2  0
  8 12  1  0
  9 10  1  0
  9  8  1  0
 10 11  1  0
 11 12  1  0
 12 13  1  1
 13 14  2  0
 16 15  1  0
 17 16  1  0
 17 18  1  1
 19 17  1  0
 19 20  1  6
 20 13  1  0
 21 19  1  0
 22 21  1  0
 23 21  2  0
M  END
$$$$
