PPI.pdb
     RDKit          3D

 23 24  0  0  1  0  0  0  0  0999 V2000
    6.2722  -19.1310   20.7184 N   0  0  0  0  0  0  0  0  0  0  0  0
    4.8375  -19.4996   20.5608 C   0  0  0  0  0  0  0  0  0  0  0  0
    4.3428  -19.0523   21.9447 C   0  0  0  0  0  0  0  0  0  0  0  0
    5.1677  -17.7716   22.1544 C   0  0  0  0  0  0  0  0  0  0  0  0
    6.0924  -17.7178   20.9542 C   0  0  1  0  0  0  0  0  0  0  0  0
    7.2829  -16.9324   21.2100 C   0  0  0  0  0  0  0  0  0  0  0  0
    8.3643  -17.6454   21.2217 O   0  0  0  0  0  0  0  0  0  0  0  0
    7.4139  -15.5480   21.4394 N   0  0  0  0  0  0  0  0  0  0  0  0
    6.4455  -14.4879   21.5107 C   0  0  0  0  0  0  0  0  0  0  0  0
    7.0457  -13.5125   20.5068 C   0  0  0  0  0  0  0  0  0  0  0  0
    8.5258  -13.5976   20.9133 C   0  0  0  0  0  0  0  0  0  0  0  0
    8.6770  -14.8836   21.6859 C   0  0  1  0  0  0  0  0  0  0  0  0
    8.9102  -14.5488   23.1047 C   0  0  0  0  0  0  0  0  0  0  0  0
   10.0252  -13.9989   23.3496 O   0  0  0  0  0  0  0  0  0  0  0  0
    5.6087  -11.9591   26.0592 C   0  0  0  0  0  0  0  0  0  0  0  0
    6.8932  -12.5133   25.5073 C   0  0  0  0  0  0  0  0  0  0  0  0
    7.4514  -13.6578   26.2623 C   0  0  2  0  0  0  0  0  0  0  0  0
    8.0825  -13.2101   27.5894 C   0  0  0  0  0  0  0  0  0  0  0  0
    8.4265  -14.5293   25.5275 C   0  0  2  0  0  0  0  0  0  0  0  0
    8.0340  -14.7810   24.1634 N   0  0  0  0  0  0  0  0  0  0  0  0
    8.8209  -15.7259   26.2820 C   0  0  0  0  0  0  0  0  0  0  0  0
    9.7157  -15.5879   27.3440 O   0  0  0  0  0  0  0  0  0  0  0  0
    8.3868  -16.8707   26.0100 O   0  0  0  0  0  0  0  0  0  0  0  0
  1  5  1  0
  1  2  1  0
  2  3  1  0
  4  3  1  0
  5  4  1  0
  6  8  1  0
  5  6  1  1
  7  6  2  0
  8 12  1  0
  9 10  1  0
  9  8  1  0
 10 11  1  0
 11 12  1  0
 12 13  1  1
 13 14  2  0
 16 15  1  0
 17 16  1  0
 17 18  1  1
 19 17  1  0
 19 20  1  6
 20 13  1  0
 21 19  1  0
 22 21  1  0
 23 21  2  0
M  END
$$$$
