PPI.pdb
     RDKit          3D

 23 24  0  0  1  0  0  0  0  0999 V2000
    6.4764  -18.6600   19.9593 N   0  0  0  0  0  0  0  0  0  0  0  0
    5.0761  -19.0232   19.6038 C   0  0  0  0  0  0  0  0  0  0  0  0
    4.4124  -18.6770   20.9452 C   0  0  0  0  0  0  0  0  0  0  0  0
    5.1890  -17.4105   21.3419 C   0  0  0  0  0  0  0  0  0  0  0  0
    6.2509  -17.2678   20.2693 C   0  0  1  0  0  0  0  0  0  0  0  0
    7.3915  -16.4969   20.7214 C   0  0  0  0  0  0  0  0  0  0  0  0
    8.4920  -17.1801   20.7257 O   0  0  0  0  0  0  0  0  0  0  0  0
    7.4583  -15.1533   21.1417 N   0  0  0  0  0  0  0  0  0  0  0  0
    6.4436  -14.1534   21.3354 C   0  0  0  0  0  0  0  0  0  0  0  0
    7.0182  -13.0252   20.4890 C   0  0  0  0  0  0  0  0  0  0  0  0
    8.4933  -13.1054   20.9140 C   0  0  0  0  0  0  0  0  0  0  0  0
    8.6869  -14.4785   21.5060 C   0  0  1  0  0  0  0  0  0  0  0  0
    8.8808  -14.3336   22.9624 C   0  0  0  0  0  0  0  0  0  0  0  0
   10.0444  -13.9775   23.3156 O   0  0  0  0  0  0  0  0  0  0  0  0
    5.6493  -12.0736   26.7612 C   0  0  0  0  0  0  0  0  0  0  0  0
    6.2626  -13.0838   25.8312 C   0  0  0  0  0  0  0  0  0  0  0  0
    7.6888  -13.3832   26.0920 C   0  0  2  0  0  0  0  0  0  0  0  0
    8.5784  -12.1506   25.8700 C   0  0  0  0  0  0  0  0  0  0  0  0
    8.2726  -14.5472   25.3475 C   0  0  2  0  0  0  0  0  0  0  0  0
    7.9210  -14.5502   23.9495 N   0  0  0  0  0  0  0  0  0  0  0  0
    8.0772  -15.8323   26.0309 C   0  0  0  0  0  0  0  0  0  0  0  0
    7.5209  -16.8959   25.3192 O   0  0  0  0  0  0  0  0  0  0  0  0
    8.3891  -16.0139   27.2321 O   0  0  0  0  0  0  0  0  0  0  0  0
  1  5  1  0
  1  2  1  0
  2  3  1  0
  4  3  1  0
  5  4  1  0
  6  8  1  0
  5  6  1  1
  7  6  2  0
  8 12  1  0
  9 10  1  0
  9  8  1  0
 10 11  1  0
 11 12  1  0
 12 13  1  1
 13 14  2  0
 16 15  1  0
 17 16  1  0
 17 18  1  6
 19 17  1  0
 19 20  1  6
 20 13  1  0
 21 19  1  0
 22 21  1  0
 23 21  2  0
M  END
$$$$
