PPI.pdb
     RDKit          3D

 23 24  0  0  1  0  0  0  0  0999 V2000
    8.4309  -15.2385   18.3868 N   0  0  0  0  0  0  0  0  0  0  0  0
    8.8267  -14.4904   17.1609 C   0  0  0  0  0  0  0  0  0  0  0  0
    7.7161  -13.4294   17.1833 C   0  0  0  0  0  0  0  0  0  0  0  0
    7.6002  -13.1536   18.6916 C   0  0  0  0  0  0  0  0  0  0  0  0
    8.5446  -14.1522   19.3313 C   0  0  1  0  0  0  0  0  0  0  0  0
    8.1981  -14.4342   20.7098 C   0  0  0  0  0  0  0  0  0  0  0  0
    7.8640  -13.3729   21.3728 O   0  0  0  0  0  0  0  0  0  0  0  0
    8.1783  -15.6642   21.3976 N   0  0  0  0  0  0  0  0  0  0  0  0
    8.9257  -16.8793   21.2194 C   0  0  0  0  0  0  0  0  0  0  0  0
    7.7836  -17.8831   21.1340 C   0  0  0  0  0  0  0  0  0  0  0  0
    6.8963  -17.3666   22.2781 C   0  0  0  0  0  0  0  0  0  0  0  0
    7.3243  -15.9435   22.5334 C   0  0  1  0  0  0  0  0  0  0  0  0
    8.0223  -15.8942   23.8334 C   0  0  0  0  0  0  0  0  0  0  0  0
    9.2545  -16.1869   23.7918 O   0  0  0  0  0  0  0  0  0  0  0  0
    6.7076  -11.1189   27.1429 C   0  0  0  0  0  0  0  0  0  0  0  0
    7.6429  -12.2838   26.9702 C   0  0  0  0  0  0  0  0  0  0  0  0
    7.1239  -13.3763   26.1166 C   0  0  2  0  0  0  0  0  0  0  0  0
    5.7620  -13.8865   26.6113 C   0  0  0  0  0  0  0  0  0  0  0  0
    8.0366  -14.5478   25.9049 C   0  0  2  0  0  0  0  0  0  0  0  0
    7.4561  -15.5642   25.0634 N   0  0  0  0  0  0  0  0  0  0  0  0
    8.6361  -15.0506   27.1477 C   0  0  0  0  0  0  0  0  0  0  0  0
    8.4551  -16.3917   27.4884 O   0  0  0  0  0  0  0  0  0  0  0  0
    9.3048  -14.3220   27.9191 O   0  0  0  0  0  0  0  0  0  0  0  0
  1  5  1  0
  1  2  1  0
  2  3  1  0
  4  3  1  0
  5  4  1  0
  6  8  1  0
  5  6  1  1
  7  6  2  0
  8 12  1  0
  9 10  1  0
  9  8  1  0
 10 11  1  0
 11 12  1  0
 12 13  1  1
 13 14  2  0
 16 15  1  0
 17 16  1  0
 17 18  1  1
 19 17  1  0
 19 20  1  1
 20 13  1  0
 21 19  1  0
 22 21  1  0
 23 21  2  0
M  END
$$$$
