PPI.pdb
     RDKit          3D

 23 24  0  0  1  0  0  0  0  0999 V2000
    7.0807  -14.0905   18.4777 N   0  0  0  0  0  0  0  0  0  0  0  0
    8.0338  -13.5483   17.4694 C   0  0  0  0  0  0  0  0  0  0  0  0
    8.6888  -12.4691   18.3447 C   0  0  0  0  0  0  0  0  0  0  0  0
    8.7622  -13.1914   19.7001 C   0  0  0  0  0  0  0  0  0  0  0  0
    8.0481  -14.5080   19.4652 C   0  0  1  0  0  0  0  0  0  0  0  0
    7.5356  -15.0841   20.6920 C   0  0  0  0  0  0  0  0  0  0  0  0
    6.3714  -14.6199   21.0190 O   0  0  0  0  0  0  0  0  0  0  0  0
    8.1153  -16.0458   21.5437 N   0  0  0  0  0  0  0  0  0  0  0  0
    9.3305  -16.8081   21.4493 C   0  0  0  0  0  0  0  0  0  0  0  0
    8.7779  -18.2135   21.6458 C   0  0  0  0  0  0  0  0  0  0  0  0
    7.8028  -17.9508   22.8048 C   0  0  0  0  0  0  0  0  0  0  0  0
    7.5366  -16.4667   22.8029 C   0  0  1  0  0  0  0  0  0  0  0  0
    8.1887  -15.8759   23.9884 C   0  0  0  0  0  0  0  0  0  0  0  0
    9.4514  -15.7947   23.9211 O   0  0  0  0  0  0  0  0  0  0  0  0
    5.6466  -12.0874   27.3735 C   0  0  0  0  0  0  0  0  0  0  0  0
    6.1843  -13.3712   26.8039 C   0  0  0  0  0  0  0  0  0  0  0  0
    7.6161  -13.3337   26.4298 C   0  0  2  0  0  0  0  0  0  0  0  0
    7.8720  -12.3780   25.2546 C   0  0  0  0  0  0  0  0  0  0  0  0
    8.2630  -14.6545   26.1347 C   0  0  2  0  0  0  0  0  0  0  0  0
    7.5509  -15.4160   25.1391 N   0  0  0  0  0  0  0  0  0  0  0  0
    8.6218  -15.4095   27.3422 C   0  0  0  0  0  0  0  0  0  0  0  0
    8.1308  -16.7066   27.4963 O   0  0  0  0  0  0  0  0  0  0  0  0
    9.3524  -14.9349   28.2445 O   0  0  0  0  0  0  0  0  0  0  0  0
  1  5  1  0
  1  2  1  0
  2  3  1  0
  4  3  1  0
  5  4  1  0
  6  8  1  0
  5  6  1  1
  7  6  2  0
  8 12  1  0
  9 10  1  0
  9  8  1  0
 10 11  1  0
 11 12  1  0
 12 13  1  1
 13 14  2  0
 16 15  1  0
 17 16  1  0
 17 18  1  6
 19 17  1  0
 19 20  1  6
 20 13  1  0
 21 19  1  0
 22 21  1  0
 23 21  2  0
M  END
$$$$
