PPI.pdb
     RDKit          3D

 23 24  0  0  1  0  0  0  0  0999 V2000
    7.1409  -14.6861   18.5953 N   0  0  0  0  0  0  0  0  0  0  0  0
    7.8165  -13.8726   17.5461 C   0  0  0  0  0  0  0  0  0  0  0  0
    7.9668  -12.5680   18.3430 C   0  0  0  0  0  0  0  0  0  0  0  0
    8.2966  -13.1121   19.7428 C   0  0  0  0  0  0  0  0  0  0  0  0
    8.1747  -14.6166   19.6010 C   0  0  1  0  0  0  0  0  0  0  0  0
    7.9118  -15.2705   20.8671 C   0  0  0  0  0  0  0  0  0  0  0  0
    6.6592  -15.2474   21.1959 O   0  0  0  0  0  0  0  0  0  0  0  0
    8.8057  -15.9034   21.7541 N   0  0  0  0  0  0  0  0  0  0  0  0
   10.2175  -16.1633   21.6760 C   0  0  0  0  0  0  0  0  0  0  0  0
   10.2268  -17.6616   21.9489 C   0  0  0  0  0  0  0  0  0  0  0  0
    9.2214  -17.7215   23.1102 C   0  0  0  0  0  0  0  0  0  0  0  0
    8.4222  -16.4447   23.0416 C   0  0  1  0  0  0  0  0  0  0  0  0
    8.8052  -15.5946   24.1863 C   0  0  0  0  0  0  0  0  0  0  0  0
   10.0106  -15.2039   24.1844 O   0  0  0  0  0  0  0  0  0  0  0  0
    5.5720  -11.7258   26.7120 C   0  0  0  0  0  0  0  0  0  0  0  0
    6.2301  -13.0344   26.3715 C   0  0  0  0  0  0  0  0  0  0  0  0
    7.6997  -12.9667   26.2066 C   0  0  2  0  0  0  0  0  0  0  0  0
    8.0945  -12.2042   24.9328 C   0  0  0  0  0  0  0  0  0  0  0  0
    8.4354  -14.2735   26.2410 C   0  0  2  0  0  0  0  0  0  0  0  0
    7.9776  -15.1998   25.2358 N   0  0  0  0  0  0  0  0  0  0  0  0
    8.5499  -14.8415   27.5905 C   0  0  0  0  0  0  0  0  0  0  0  0
    8.0835  -16.1369   27.8179 O   0  0  0  0  0  0  0  0  0  0  0  0
    9.0497  -14.2081   28.5508 O   0  0  0  0  0  0  0  0  0  0  0  0
  1  5  1  0
  1  2  1  0
  2  3  1  0
  4  3  1  0
  5  4  1  0
  6  8  1  0
  5  6  1  1
  7  6  2  0
  8 12  1  0
  9 10  1  0
  9  8  1  0
 10 11  1  0
 11 12  1  0
 12 13  1  1
 13 14  2  0
 16 15  1  0
 17 16  1  0
 17 18  1  6
 19 17  1  0
 19 20  1  6
 20 13  1  0
 21 19  1  0
 22 21  1  0
 23 21  2  0
M  END
$$$$
