PPI.pdb
     RDKit          3D

 23 24  0  0  1  0  0  0  0  0999 V2000
    6.9728  -19.8121   21.6601 N   0  0  0  0  0  0  0  0  0  0  0  0
    5.6004  -20.3915   21.6502 C   0  0  0  0  0  0  0  0  0  0  0  0
    5.1418  -19.8927   23.0288 C   0  0  0  0  0  0  0  0  0  0  0  0
    5.7819  -18.4951   23.0662 C   0  0  0  0  0  0  0  0  0  0  0  0
    6.6038  -18.4225   21.7943 C   0  0  1  0  0  0  0  0  0  0  0  0
    7.6808  -17.4576   21.8879 C   0  0  0  0  0  0  0  0  0  0  0  0
    8.8521  -18.0101   21.9102 O   0  0  0  0  0  0  0  0  0  0  0  0
    7.6234  -16.0510   21.9559 N   0  0  0  0  0  0  0  0  0  0  0  0
    6.5196  -15.1302   21.9352 C   0  0  0  0  0  0  0  0  0  0  0  0
    6.9668  -14.2054   20.8108 C   0  0  0  0  0  0  0  0  0  0  0  0
    8.4498  -14.0425   21.1812 C   0  0  0  0  0  0  0  0  0  0  0  0
    8.7865  -15.1983   22.0891 C   0  0  1  0  0  0  0  0  0  0  0  0
    8.9904  -14.6733   23.4538 C   0  0  0  0  0  0  0  0  0  0  0  0
   10.0947  -14.0807   23.6409 O   0  0  0  0  0  0  0  0  0  0  0  0
    5.6276  -12.1670   27.1369 C   0  0  0  0  0  0  0  0  0  0  0  0
    6.3031  -13.3154   26.4393 C   0  0  0  0  0  0  0  0  0  0  0  0
    7.7810  -13.2385   26.4040 C   0  0  2  0  0  0  0  0  0  0  0  0
    8.2678  -11.9877   25.6566 C   0  0  0  0  0  0  0  0  0  0  0  0
    8.4985  -14.4401   25.8637 C   0  0  2  0  0  0  0  0  0  0  0  0
    8.0979  -14.7732   24.5196 N   0  0  0  0  0  0  0  0  0  0  0  0
    8.5173  -15.5745   26.7961 C   0  0  0  0  0  0  0  0  0  0  0  0
    9.1511  -15.4218   28.0300 O   0  0  0  0  0  0  0  0  0  0  0  0
    7.9871  -16.6792   26.5283 O   0  0  0  0  0  0  0  0  0  0  0  0
  1  5  1  0
  1  2  1  0
  2  3  1  0
  4  3  1  0
  5  4  1  0
  6  8  1  0
  5  6  1  1
  7  6  2  0
  8 12  1  0
  9 10  1  0
  9  8  1  0
 10 11  1  0
 11 12  1  0
 12 13  1  1
 13 14  2  0
 16 15  1  0
 17 16  1  0
 17 18  1  6
 19 17  1  0
 19 20  1  6
 20 13  1  0
 21 19  1  0
 22 21  1  0
 23 21  2  0
M  END
$$$$
