PPI.pdb
     RDKit          3D

 23 24  0  0  1  0  0  0  0  0999 V2000
    6.9183  -19.4000   20.8831 N   0  0  0  0  0  0  0  0  0  0  0  0
    5.5375  -19.9517   20.7932 C   0  0  0  0  0  0  0  0  0  0  0  0
    5.0056  -19.4317   22.1372 C   0  0  0  0  0  0  0  0  0  0  0  0
    5.6709  -18.0470   22.2033 C   0  0  0  0  0  0  0  0  0  0  0  0
    6.5706  -18.0021   20.9839 C   0  0  1  0  0  0  0  0  0  0  0  0
    7.6595  -17.0583   21.1362 C   0  0  0  0  0  0  0  0  0  0  0  0
    8.8247  -17.6228   21.0996 O   0  0  0  0  0  0  0  0  0  0  0  0
    7.6189  -15.6606   21.3128 N   0  0  0  0  0  0  0  0  0  0  0  0
    6.5289  -14.7233   21.3291 C   0  0  0  0  0  0  0  0  0  0  0  0
    7.0258  -13.7209   20.2959 C   0  0  0  0  0  0  0  0  0  0  0  0
    8.4977  -13.6113   20.7254 C   0  0  0  0  0  0  0  0  0  0  0  0
    8.7883  -14.8398   21.5500 C   0  0  1  0  0  0  0  0  0  0  0  0
    8.9536  -14.4263   22.9576 C   0  0  0  0  0  0  0  0  0  0  0  0
   10.0933  -13.9545   23.2475 O   0  0  0  0  0  0  0  0  0  0  0  0
    6.6590  -11.2362   27.4335 C   0  0  0  0  0  0  0  0  0  0  0  0
    7.5627  -12.3845   27.0780 C   0  0  0  0  0  0  0  0  0  0  0  0
    7.2790  -13.0167   25.7699 C   0  0  2  0  0  0  0  0  0  0  0  0
    5.8663  -13.6183   25.7233 C   0  0  0  0  0  0  0  0  0  0  0  0
    8.2637  -14.0459   25.2993 C   0  0  2  0  0  0  0  0  0  0  0  0
    7.9912  -14.5104   23.9621 N   0  0  0  0  0  0  0  0  0  0  0  0
    8.5054  -15.1115   26.2805 C   0  0  0  0  0  0  0  0  0  0  0  0
    9.2595  -14.8210   27.4182 O   0  0  0  0  0  0  0  0  0  0  0  0
    8.0622  -16.2760   26.1374 O   0  0  0  0  0  0  0  0  0  0  0  0
  1  5  1  0
  1  2  1  0
  2  3  1  0
  4  3  1  0
  5  4  1  0
  6  8  1  0
  5  6  1  1
  7  6  2  0
  8 12  1  0
  9 10  1  0
  9  8  1  0
 10 11  1  0
 11 12  1  0
 12 13  1  1
 13 14  2  0
 16 15  1  0
 17 16  1  0
 17 18  1  1
 19 17  1  0
 19 20  1  6
 20 13  1  0
 21 19  1  0
 22 21  1  0
 23 21  2  0
M  END
$$$$
