PPI.pdb
     RDKit          3D

 23 24  0  0  1  0  0  0  0  0999 V2000
    7.1705  -14.1344   18.4027 N   0  0  0  0  0  0  0  0  0  0  0  0
    8.0816  -13.4705   17.4289 C   0  0  0  0  0  0  0  0  0  0  0  0
    8.7015  -12.4350   18.3793 C   0  0  0  0  0  0  0  0  0  0  0  0
    8.8294  -13.2583   19.6717 C   0  0  0  0  0  0  0  0  0  0  0  0
    8.1717  -14.5837   19.3413 C   0  0  1  0  0  0  0  0  0  0  0  0
    7.7057  -15.2783   20.5245 C   0  0  0  0  0  0  0  0  0  0  0  0
    6.4699  -15.0152   20.8096 O   0  0  0  0  0  0  0  0  0  0  0  0
    8.3941  -16.1679   21.3736 N   0  0  0  0  0  0  0  0  0  0  0  0
    9.7191  -16.7228   21.3163 C   0  0  0  0  0  0  0  0  0  0  0  0
    9.3915  -18.2049   21.4408 C   0  0  0  0  0  0  0  0  0  0  0  0
    8.3364  -18.1460   22.5572 C   0  0  0  0  0  0  0  0  0  0  0  0
    7.8353  -16.7243   22.5884 C   0  0  1  0  0  0  0  0  0  0  0  0
    8.3306  -16.0839   23.8230 C   0  0  0  0  0  0  0  0  0  0  0  0
    9.5659  -15.8018   23.8223 O   0  0  0  0  0  0  0  0  0  0  0  0
    7.0044  -11.3048   27.0313 C   0  0  0  0  0  0  0  0  0  0  0  0
    7.7632  -12.6031   27.0354 C   0  0  0  0  0  0  0  0  0  0  0  0
    7.2887  -13.6035   26.0529 C   0  0  2  0  0  0  0  0  0  0  0  0
    5.8061  -13.9473   26.2621 C   0  0  0  0  0  0  0  0  0  0  0  0
    8.0771  -14.8765   25.9636 C   0  0  2  0  0  0  0  0  0  0  0  0
    7.5764  -15.7749   24.9536 N   0  0  0  0  0  0  0  0  0  0  0  0
    8.3249  -15.5004   27.2698 C   0  0  0  0  0  0  0  0  0  0  0  0
    9.2780  -14.9335   28.1170 O   0  0  0  0  0  0  0  0  0  0  0  0
    7.7146  -16.5257   27.6564 O   0  0  0  0  0  0  0  0  0  0  0  0
  1  5  1  0
  1  2  1  0
  2  3  1  0
  4  3  1  0
  5  4  1  0
  6  8  1  0
  5  6  1  1
  7  6  2  0
  8 12  1  0
  9 10  1  0
  9  8  1  0
 10 11  1  0
 11 12  1  0
 12 13  1  1
 13 14  2  0
 16 15  1  0
 17 16  1  0
 17 18  1  1
 19 17  1  0
 19 20  1  6
 20 13  1  0
 21 19  1  0
 22 21  1  0
 23 21  2  0
M  END
$$$$
