DKK.pdb
     RDKit          3D

 27 26  0  0  1  0  0  0  0  0999 V2000
   23.1621  -21.5322  -14.5233 N   0  0  0  0  0  0  0  0  0  0  0  0
   22.2130  -20.4098  -14.4083 C   0  0  1  0  0  0  0  0  0  0  0  0
   22.5380  -19.4884  -15.5315 C   0  0  0  0  0  0  0  0  0  0  0  0
   23.8797  -18.9135  -15.5398 C   0  0  0  0  0  0  0  0  0  0  0  0
   24.7916  -19.1557  -14.7335 O   0  0  0  0  0  0  0  0  0  0  0  0
   20.8520  -20.9950  -14.5504 C   0  0  0  0  0  0  0  0  0  0  0  0
   20.0888  -20.5533  -15.4741 O   0  0  0  0  0  0  0  0  0  0  0  0
   24.1505  -17.9935  -16.5731 O   0  0  0  0  0  0  0  0  0  0  0  0
   20.3778  -22.0232  -13.6963 N   0  0  0  0  0  0  0  0  0  0  0  0
   19.1711  -22.7409  -14.0885 C   0  0  1  0  0  0  0  0  0  0  0  0
   19.4410  -23.3978  -15.4182 C   0  0  0  0  0  0  0  0  0  0  0  0
   18.2725  -24.0984  -16.0163 C   0  0  0  0  0  0  0  0  0  0  0  0
   18.5844  -24.6873  -17.3830 C   0  0  0  0  0  0  0  0  0  0  0  0
   17.4024  -25.3522  -18.0184 C   0  0  0  0  0  0  0  0  0  0  0  0
   17.7347  -25.7096  -19.4026 N   0  0  0  0  0  0  0  0  0  0  0  0
   18.8165  -23.7662  -13.0859 C   0  0  0  0  0  0  0  0  0  0  0  0
   19.6324  -24.5493  -12.5497 O   0  0  0  0  0  0  0  0  0  0  0  0
   17.4539  -23.9423  -12.6383 N   0  0  0  0  0  0  0  0  0  0  0  0
   17.0720  -24.8585  -11.5996 C   0  0  1  0  0  0  0  0  0  0  0  0
   17.0471  -24.2133  -10.2339 C   0  0  0  0  0  0  0  0  0  0  0  0
   18.1696  -24.7039   -9.3463 C   0  0  0  0  0  0  0  0  0  0  0  0
   17.8335  -24.4533   -7.9173 C   0  0  0  0  0  0  0  0  0  0  0  0
   18.9390  -24.8201   -6.9627 C   0  0  0  0  0  0  0  0  0  0  0  0
   18.5926  -24.6533   -5.5911 N   0  0  0  0  0  0  0  0  0  0  0  0
   15.7387  -25.4130  -11.9449 C   0  0  0  0  0  0  0  0  0  0  0  0
   15.4525  -26.6362  -11.7398 O   0  0  0  0  0  0  0  0  0  0  0  0
   14.7475  -24.6296  -12.5039 O   0  0  0  0  0  0  0  0  0  0  0  0
  2  1  1  6
  3  2  1  0
  4  8  1  0
  4  3  1  0
  5  4  2  0
  6  2  1  0
  7  6  2  0
  9  6  1  0
 10 11  1  6
 10  9  1  0
 11 12  1  0
 13 12  1  0
 13 14  1  0
 14 15  1  0
 16 10  1  0
 17 16  2  0
 18 16  1  0
 19 25  1  0
 19 18  1  0
 19 20  1  1
 21 20  1  0
 22 21  1  0
 23 24  1  0
 23 22  1  0
 25 27  1  0
 26 25  2  0
M  END
$$$$
