DKK.pdb
     RDKit          3D

 27 26  0  0  1  0  0  0  0  0999 V2000
   17.9186  -22.3238  -13.7999 N   0  0  0  0  0  0  0  0  0  0  0  0
   18.8661  -21.2495  -14.1495 C   0  0  1  0  0  0  0  0  0  0  0  0
   18.6134  -20.1537  -13.1742 C   0  0  0  0  0  0  0  0  0  0  0  0
   17.6188  -19.1551  -13.5540 C   0  0  0  0  0  0  0  0  0  0  0  0
   17.5973  -17.9645  -13.2039 O   0  0  0  0  0  0  0  0  0  0  0  0
   20.2295  -21.8251  -13.9924 C   0  0  0  0  0  0  0  0  0  0  0  0
   20.5976  -22.2207  -12.8353 O   0  0  0  0  0  0  0  0  0  0  0  0
   16.5869  -19.6036  -14.4032 O   0  0  0  0  0  0  0  0  0  0  0  0
   21.1290  -21.9478  -15.0821 N   0  0  0  0  0  0  0  0  0  0  0  0
   22.4155  -22.5904  -14.8427 C   0  0  1  0  0  0  0  0  0  0  0  0
   22.9529  -23.0488  -16.1745 C   0  0  0  0  0  0  0  0  0  0  0  0
   24.3144  -23.6470  -16.1250 C   0  0  0  0  0  0  0  0  0  0  0  0
   24.8512  -23.9862  -17.5066 C   0  0  0  0  0  0  0  0  0  0  0  0
   26.2417  -24.5416  -17.4750 C   0  0  0  0  0  0  0  0  0  0  0  0
   27.1402  -23.5608  -16.8544 N   0  0  0  0  0  0  0  0  0  0  0  0
   23.3669  -21.6508  -14.2149 C   0  0  0  0  0  0  0  0  0  0  0  0
   23.5172  -20.4561  -14.5563 O   0  0  0  0  0  0  0  0  0  0  0  0
   24.2208  -22.0606  -13.1236 N   0  0  0  0  0  0  0  0  0  0  0  0
   25.0990  -21.1646  -12.4236 C   0  0  1  0  0  0  0  0  0  0  0  0
   25.2825  -21.5439  -10.9729 C   0  0  0  0  0  0  0  0  0  0  0  0
   26.1565  -20.5592  -10.2279 C   0  0  0  0  0  0  0  0  0  0  0  0
   26.2352  -20.9372   -8.7895 C   0  0  0  0  0  0  0  0  0  0  0  0
   27.0275  -19.9682   -7.9522 C   0  0  0  0  0  0  0  0  0  0  0  0
   27.0979  -20.3234   -6.5744 N   0  0  0  0  0  0  0  0  0  0  0  0
   26.4027  -21.1523  -13.1340 C   0  0  0  0  0  0  0  0  0  0  0  0
   26.8446  -22.1847  -13.7331 O   0  0  0  0  0  0  0  0  0  0  0  0
   27.1963  -20.0223  -13.1785 O   0  0  0  0  0  0  0  0  0  0  0  0
  2  1  1  1
  3  2  1  0
  4  8  1  0
  4  3  1  0
  5  4  2  0
  6  2  1  0
  7  6  2  0
  9  6  1  0
 10 11  1  6
 10  9  1  0
 11 12  1  0
 13 12  1  0
 13 14  1  0
 14 15  1  0
 16 10  1  0
 17 16  2  0
 18 16  1  0
 19 25  1  0
 19 18  1  0
 19 20  1  1
 21 20  1  0
 22 21  1  0
 23 24  1  0
 23 22  1  0
 25 27  1  0
 26 25  2  0
M  END
$$$$
