DKK.pdb
     RDKit          3D

 27 26  0  0  1  0  0  0  0  0999 V2000
   18.0943   -9.5849  -15.4336 N   0  0  0  0  0  0  0  0  0  0  0  0
   18.4862   -9.3665  -14.0291 C   0  0  1  0  0  0  0  0  0  0  0  0
   19.6610   -8.4534  -14.0740 C   0  0  0  0  0  0  0  0  0  0  0  0
   20.9373   -9.0466  -14.4612 C   0  0  0  0  0  0  0  0  0  0  0  0
   21.1472  -10.2420  -14.7208 O   0  0  0  0  0  0  0  0  0  0  0  0
   17.3178   -8.7306  -13.3616 C   0  0  0  0  0  0  0  0  0  0  0  0
   16.6458   -7.8562  -14.0056 O   0  0  0  0  0  0  0  0  0  0  0  0
   22.0302   -8.1600  -14.5439 O   0  0  0  0  0  0  0  0  0  0  0  0
   16.9287   -9.0634  -12.0390 N   0  0  0  0  0  0  0  0  0  0  0  0
   15.7580   -8.3993  -11.4789 C   0  0  1  0  0  0  0  0  0  0  0  0
   14.9526   -9.4375  -10.7402 C   0  0  0  0  0  0  0  0  0  0  0  0
   13.6938   -8.9314  -10.1290 C   0  0  0  0  0  0  0  0  0  0  0  0
   12.8820  -10.0357   -9.4706 C   0  0  0  0  0  0  0  0  0  0  0  0
   11.6075   -9.5411   -8.8591 C   0  0  0  0  0  0  0  0  0  0  0  0
   10.8719  -10.6765   -8.2896 N   0  0  0  0  0  0  0  0  0  0  0  0
   16.1557   -7.3203  -10.5517 C   0  0  0  0  0  0  0  0  0  0  0  0
   16.9308   -7.4667   -9.5800 O   0  0  0  0  0  0  0  0  0  0  0  0
   15.6594   -5.9721  -10.7079 N   0  0  0  0  0  0  0  0  0  0  0  0
   16.0899   -4.8689   -9.8945 C   0  0  1  0  0  0  0  0  0  0  0  0
   16.0073   -3.5450  -10.6175 C   0  0  0  0  0  0  0  0  0  0  0  0
   16.3479   -2.3773   -9.7183 C   0  0  0  0  0  0  0  0  0  0  0  0
   16.2378   -1.1017  -10.4790 C   0  0  0  0  0  0  0  0  0  0  0  0
   16.5010    0.1243   -9.6449 C   0  0  0  0  0  0  0  0  0  0  0  0
   16.4453    1.3427  -10.3810 N   0  0  0  0  0  0  0  0  0  0  0  0
   15.2555   -4.8517   -8.6666 C   0  0  0  0  0  0  0  0  0  0  0  0
   14.0406   -5.2311   -8.6814 O   0  0  0  0  0  0  0  0  0  0  0  0
   15.7567   -4.4239   -7.4523 O   0  0  0  0  0  0  0  0  0  0  0  0
  2  1  1  6
  3  2  1  0
  4  8  1  0
  4  3  1  0
  5  4  2  0
  6  2  1  0
  7  6  2  0
  9  6  1  0
 10 11  1  1
 10  9  1  0
 11 12  1  0
 13 12  1  0
 13 14  1  0
 14 15  1  0
 16 10  1  0
 17 16  2  0
 18 16  1  0
 19 25  1  0
 19 18  1  0
 19 20  1  6
 21 20  1  0
 22 21  1  0
 23 24  1  0
 23 22  1  0
 25 27  1  0
 26 25  2  0
M  END
$$$$
