DKK.pdb
     RDKit          3D

 27 26  0  0  1  0  0  0  0  0999 V2000
   18.6911  -15.4388  -15.2015 N   0  0  0  0  0  0  0  0  0  0  0  0
   18.5363  -14.2723  -16.0899 C   0  0  1  0  0  0  0  0  0  0  0  0
   17.1383  -13.7989  -15.8963 C   0  0  0  0  0  0  0  0  0  0  0  0
   16.0764  -14.6799  -16.3727 C   0  0  0  0  0  0  0  0  0  0  0  0
   16.1934  -15.5946  -17.2035 O   0  0  0  0  0  0  0  0  0  0  0  0
   19.5295  -13.2624  -15.6332 C   0  0  0  0  0  0  0  0  0  0  0  0
   19.1998  -12.4592  -14.6967 O   0  0  0  0  0  0  0  0  0  0  0  0
   14.7969  -14.4563  -15.8250 O   0  0  0  0  0  0  0  0  0  0  0  0
   20.8249  -13.1642  -16.2024 N   0  0  0  0  0  0  0  0  0  0  0  0
   21.7526  -12.1924  -15.6367 C   0  0  1  0  0  0  0  0  0  0  0  0
   23.1264  -12.5053  -16.1726 C   0  0  0  0  0  0  0  0  0  0  0  0
   23.7429  -13.7432  -15.6234 C   0  0  0  0  0  0  0  0  0  0  0  0
   25.1695  -13.9470  -16.1084 C   0  0  0  0  0  0  0  0  0  0  0  0
   25.7911  -15.2065  -15.5884 C   0  0  0  0  0  0  0  0  0  0  0  0
   27.1830  -15.2843  -16.0477 N   0  0  0  0  0  0  0  0  0  0  0  0
   21.3699  -10.8158  -16.0119 C   0  0  0  0  0  0  0  0  0  0  0  0
   21.0418  -10.4578  -17.1654 O   0  0  0  0  0  0  0  0  0  0  0  0
   21.3468   -9.7486  -15.0379 N   0  0  0  0  0  0  0  0  0  0  0  0
   20.9328   -8.4067  -15.3409 C   0  0  1  0  0  0  0  0  0  0  0  0
   19.4332   -8.2739  -15.4665 C   0  0  0  0  0  0  0  0  0  0  0  0
   19.0034   -6.8490  -15.7369 C   0  0  0  0  0  0  0  0  0  0  0  0
   17.5210   -6.7810  -15.8629 C   0  0  0  0  0  0  0  0  0  0  0  0
   17.0118   -5.4298  -16.2905 C   0  0  0  0  0  0  0  0  0  0  0  0
   15.5957   -5.3682  -16.4328 N   0  0  0  0  0  0  0  0  0  0  0  0
   21.4533   -7.5145  -14.2744 C   0  0  0  0  0  0  0  0  0  0  0  0
   21.8355   -7.9729  -13.1501 O   0  0  0  0  0  0  0  0  0  0  0  0
   21.5475   -6.1475  -14.4509 O   0  0  0  0  0  0  0  0  0  0  0  0
  2  1  1  1
  3  2  1  0
  4  8  1  0
  4  3  1  0
  5  4  2  0
  6  2  1  0
  7  6  2  0
  9  6  1  0
 10 11  1  6
 10  9  1  0
 11 12  1  0
 13 12  1  0
 13 14  1  0
 14 15  1  0
 16 10  1  0
 17 16  2  0
 18 16  1  0
 19 25  1  0
 19 18  1  0
 19 20  1  1
 21 20  1  0
 22 21  1  0
 23 24  1  0
 23 22  1  0
 25 27  1  0
 26 25  2  0
M  END
$$$$
