DKK.pdb
     RDKit          3D

 27 26  0  0  1  0  0  0  0  0999 V2000
   20.5889  -14.5089  -19.9187 N   0  0  0  0  0  0  0  0  0  0  0  0
   21.4133  -13.6566  -19.0425 C   0  0  1  0  0  0  0  0  0  0  0  0
   22.5488  -13.1895  -19.8842 C   0  0  0  0  0  0  0  0  0  0  0  0
   23.6903  -14.0914  -20.0034 C   0  0  0  0  0  0  0  0  0  0  0  0
   23.9090  -15.1003  -19.3144 O   0  0  0  0  0  0  0  0  0  0  0  0
   20.5423  -12.5282  -18.6147 C   0  0  0  0  0  0  0  0  0  0  0  0
   19.7586  -11.9999  -19.4736 O   0  0  0  0  0  0  0  0  0  0  0  0
   24.6283  -13.7706  -21.0057 O   0  0  0  0  0  0  0  0  0  0  0  0
   20.5549  -12.0232  -17.2895 N   0  0  0  0  0  0  0  0  0  0  0  0
   19.6529  -10.9253  -16.9634 C   0  0  1  0  0  0  0  0  0  0  0  0
   18.8365  -11.3435  -15.7672 C   0  0  0  0  0  0  0  0  0  0  0  0
   17.7451  -12.3103  -16.0643 C   0  0  0  0  0  0  0  0  0  0  0  0
   16.9933  -12.7408  -14.8147 C   0  0  0  0  0  0  0  0  0  0  0  0
   15.9306  -13.7592  -15.0917 C   0  0  0  0  0  0  0  0  0  0  0  0
   15.2487  -14.1000  -13.8374 N   0  0  0  0  0  0  0  0  0  0  0  0
   20.4090   -9.6958  -16.6490 C   0  0  0  0  0  0  0  0  0  0  0  0
   21.4216   -9.6513  -15.9148 O   0  0  0  0  0  0  0  0  0  0  0  0
   20.0180   -8.4129  -17.1870 N   0  0  0  0  0  0  0  0  0  0  0  0
   20.6719   -7.1787  -16.8505 C   0  0  1  0  0  0  0  0  0  0  0  0
   20.2009   -6.0201  -17.6978 C   0  0  0  0  0  0  0  0  0  0  0  0
   20.8685   -4.7183  -17.3128 C   0  0  0  0  0  0  0  0  0  0  0  0
   20.3382   -3.6082  -18.1521 C   0  0  0  0  0  0  0  0  0  0  0  0
   21.0006   -2.2816  -17.8888 C   0  0  0  0  0  0  0  0  0  0  0  0
   20.8142   -1.7997  -16.5613 N   0  0  0  0  0  0  0  0  0  0  0  0
   20.4313   -6.9103  -15.4102 C   0  0  0  0  0  0  0  0  0  0  0  0
   19.3328   -7.2237  -14.8487 O   0  0  0  0  0  0  0  0  0  0  0  0
   21.3859   -6.3090  -14.6128 O   0  0  0  0  0  0  0  0  0  0  0  0
  2  1  1  6
  3  2  1  0
  4  8  1  0
  4  3  1  0
  5  4  2  0
  6  2  1  0
  7  6  2  0
  9  6  1  0
 10 11  1  1
 10  9  1  0
 11 12  1  0
 13 12  1  0
 13 14  1  0
 14 15  1  0
 16 10  1  0
 17 16  2  0
 18 16  1  0
 19 25  1  0
 19 18  1  0
 19 20  1  6
 21 20  1  0
 22 21  1  0
 23 24  1  0
 23 22  1  0
 25 27  1  0
 26 25  2  0
M  END
$$$$
