DKK.pdb
     RDKit          3D

 27 26  0  0  1  0  0  0  0  0999 V2000
   25.1400  -22.0351  -14.0938 N   0  0  0  0  0  0  0  0  0  0  0  0
   24.7646  -21.4714  -15.4034 C   0  0  1  0  0  0  0  0  0  0  0  0
   25.0287  -22.5472  -16.3979 C   0  0  0  0  0  0  0  0  0  0  0  0
   26.4068  -23.0165  -16.5047 C   0  0  0  0  0  0  0  0  0  0  0  0
   26.8074  -24.1771  -16.3234 O   0  0  0  0  0  0  0  0  0  0  0  0
   23.3158  -21.1416  -15.3184 C   0  0  0  0  0  0  0  0  0  0  0  0
   22.6891  -20.8540  -16.3933 O   0  0  0  0  0  0  0  0  0  0  0  0
   27.3656  -22.0422  -16.8489 O   0  0  0  0  0  0  0  0  0  0  0  0
   22.6122  -21.1366  -14.0870 N   0  0  0  0  0  0  0  0  0  0  0  0
   21.1915  -20.8105  -14.1082 C   0  0  1  0  0  0  0  0  0  0  0  0
   20.5581  -21.4451  -12.8963 C   0  0  0  0  0  0  0  0  0  0  0  0
   20.0393  -22.8227  -13.1131 C   0  0  0  0  0  0  0  0  0  0  0  0
   19.5644  -23.4749  -11.8243 C   0  0  0  0  0  0  0  0  0  0  0  0
   18.9682  -24.8319  -12.0392 C   0  0  0  0  0  0  0  0  0  0  0  0
   18.5073  -25.3669  -10.7524 N   0  0  0  0  0  0  0  0  0  0  0  0
   20.9843  -19.3483  -14.0742 C   0  0  0  0  0  0  0  0  0  0  0  0
   21.4938  -18.5768  -13.2306 O   0  0  0  0  0  0  0  0  0  0  0  0
   20.1490  -18.6832  -15.0478 N   0  0  0  0  0  0  0  0  0  0  0  0
   19.9208  -17.2648  -15.0608 C   0  0  1  0  0  0  0  0  0  0  0  0
   20.7267  -16.5549  -16.1232 C   0  0  0  0  0  0  0  0  0  0  0  0
   20.5497  -15.0534  -16.0708 C   0  0  0  0  0  0  0  0  0  0  0  0
   21.4070  -14.4048  -17.1015 C   0  0  0  0  0  0  0  0  0  0  0  0
   21.4001  -12.9004  -17.0343 C   0  0  0  0  0  0  0  0  0  0  0  0
   22.4065  -12.2850  -17.8328 N   0  0  0  0  0  0  0  0  0  0  0  0
   18.4676  -17.0361  -15.2611 C   0  0  0  0  0  0  0  0  0  0  0  0
   17.7610  -17.8223  -15.9703 O   0  0  0  0  0  0  0  0  0  0  0  0
   17.8145  -15.9616  -14.6888 O   0  0  0  0  0  0  0  0  0  0  0  0
  2  1  1  1
  3  2  1  0
  4  8  1  0
  4  3  1  0
  5  4  2  0
  6  2  1  0
  7  6  2  0
  9  6  1  0
 10 11  1  1
 10  9  1  0
 11 12  1  0
 13 12  1  0
 13 14  1  0
 14 15  1  0
 16 10  1  0
 17 16  2  0
 18 16  1  0
 19 25  1  0
 19 18  1  0
 19 20  1  6
 21 20  1  0
 22 21  1  0
 23 24  1  0
 23 22  1  0
 25 27  1  0
 26 25  2  0
M  END
$$$$
