DKK.pdb
     RDKit          3D

 27 26  0  0  1  0  0  0  0  0999 V2000
   26.1560  -22.2112  -17.0115 N   0  0  0  0  0  0  0  0  0  0  0  0
   26.7398  -21.3424  -15.9732 C   0  0  1  0  0  0  0  0  0  0  0  0
   27.7352  -20.4861  -16.6746 C   0  0  0  0  0  0  0  0  0  0  0  0
   28.9379  -21.1499  -17.1683 C   0  0  0  0  0  0  0  0  0  0  0  0
   29.2330  -22.3466  -17.0229 O   0  0  0  0  0  0  0  0  0  0  0  0
   25.6162  -20.5404  -15.4169 C   0  0  0  0  0  0  0  0  0  0  0  0
   25.7412  -20.0388  -14.2491 O   0  0  0  0  0  0  0  0  0  0  0  0
   29.8440  -20.3367  -17.8789 O   0  0  0  0  0  0  0  0  0  0  0  0
   24.4164  -20.3165  -16.1392 N   0  0  0  0  0  0  0  0  0  0  0  0
   23.3572  -19.5513  -15.4928 C   0  0  1  0  0  0  0  0  0  0  0  0
   22.9688  -18.4309  -16.4235 C   0  0  0  0  0  0  0  0  0  0  0  0
   21.8981  -17.5352  -15.9083 C   0  0  0  0  0  0  0  0  0  0  0  0
   21.5671  -16.4088  -16.8746 C   0  0  0  0  0  0  0  0  0  0  0  0
   20.4516  -15.5328  -16.3936 C   0  0  0  0  0  0  0  0  0  0  0  0
   20.2337  -14.4517  -17.3623 N   0  0  0  0  0  0  0  0  0  0  0  0
   22.1826  -20.4035  -15.2167 C   0  0  0  0  0  0  0  0  0  0  0  0
   21.6767  -21.2045  -16.0345 O   0  0  0  0  0  0  0  0  0  0  0  0
   21.5122  -20.3702  -13.9371 N   0  0  0  0  0  0  0  0  0  0  0  0
   20.3997  -21.2153  -13.6020 C   0  0  1  0  0  0  0  0  0  0  0  0
   20.4179  -21.6568  -12.1574 C   0  0  0  0  0  0  0  0  0  0  0  0
   19.2310  -22.5272  -11.8078 C   0  0  0  0  0  0  0  0  0  0  0  0
   19.2407  -22.8377  -10.3513 C   0  0  0  0  0  0  0  0  0  0  0  0
   18.0390  -23.6207   -9.8920 C   0  0  0  0  0  0  0  0  0  0  0  0
   17.9913  -23.8261   -8.4832 N   0  0  0  0  0  0  0  0  0  0  0  0
   19.1512  -20.4733  -13.9104 C   0  0  0  0  0  0  0  0  0  0  0  0
   19.0326  -19.2325  -13.6521 O   0  0  0  0  0  0  0  0  0  0  0  0
   18.0613  -21.0926  -14.4912 O   0  0  0  0  0  0  0  0  0  0  0  0
  2  1  1  6
  3  2  1  0
  4  8  1  0
  4  3  1  0
  5  4  2  0
  6  2  1  0
  7  6  2  0
  9  6  1  0
 10 11  1  6
 10  9  1  0
 11 12  1  0
 13 12  1  0
 13 14  1  0
 14 15  1  0
 16 10  1  0
 17 16  2  0
 18 16  1  0
 19 25  1  0
 19 18  1  0
 19 20  1  1
 21 20  1  0
 22 21  1  0
 23 24  1  0
 23 22  1  0
 25 27  1  0
 26 25  2  0
M  END
$$$$
