DKK.pdb
     RDKit          3D

 27 26  0  0  1  0  0  0  0  0999 V2000
   27.1576  -21.3485  -17.8677 N   0  0  0  0  0  0  0  0  0  0  0  0
   27.1441  -22.0116  -16.5509 C   0  0  1  0  0  0  0  0  0  0  0  0
   28.5535  -21.9892  -16.0722 C   0  0  0  0  0  0  0  0  0  0  0  0
   29.5306  -22.7156  -16.8774 C   0  0  0  0  0  0  0  0  0  0  0  0
   30.4889  -22.2251  -17.4950 O   0  0  0  0  0  0  0  0  0  0  0  0
   26.2523  -21.1979  -15.6806 C   0  0  0  0  0  0  0  0  0  0  0  0
   26.1497  -21.5101  -14.4466 O   0  0  0  0  0  0  0  0  0  0  0  0
   29.3539  -24.1122  -16.9506 O   0  0  0  0  0  0  0  0  0  0  0  0
   25.5160  -20.0916  -16.1760 N   0  0  0  0  0  0  0  0  0  0  0  0
   24.6908  -19.3395  -15.2386 C   0  0  1  0  0  0  0  0  0  0  0  0
   24.6566  -17.9069  -15.7063 C   0  0  0  0  0  0  0  0  0  0  0  0
   25.9560  -17.1883  -15.6100 C   0  0  0  0  0  0  0  0  0  0  0  0
   25.8512  -15.7358  -16.0474 C   0  0  0  0  0  0  0  0  0  0  0  0
   27.1148  -14.9637  -15.8235 C   0  0  0  0  0  0  0  0  0  0  0  0
   26.8619  -13.5395  -16.0728 N   0  0  0  0  0  0  0  0  0  0  0  0
   23.3182  -19.8833  -15.1887 C   0  0  0  0  0  0  0  0  0  0  0  0
   22.5932  -20.0783  -16.1901 O   0  0  0  0  0  0  0  0  0  0  0  0
   22.6949  -20.2409  -13.9350 N   0  0  0  0  0  0  0  0  0  0  0  0
   21.4078  -20.8720  -13.8404 C   0  0  1  0  0  0  0  0  0  0  0  0
   21.2904  -21.7781  -12.6372 C   0  0  0  0  0  0  0  0  0  0  0  0
   19.9795  -22.5327  -12.6123 C   0  0  0  0  0  0  0  0  0  0  0  0
   19.9487  -23.4583  -11.4460 C   0  0  0  0  0  0  0  0  0  0  0  0
   18.6844  -24.2712  -11.3525 C   0  0  0  0  0  0  0  0  0  0  0  0
   18.5935  -25.0580  -10.1684 N   0  0  0  0  0  0  0  0  0  0  0  0
   20.3760  -19.8052  -13.7993 C   0  0  0  0  0  0  0  0  0  0  0  0
   20.5912  -18.6923  -13.2201 O   0  0  0  0  0  0  0  0  0  0  0  0
   19.1362  -19.9692  -14.3863 O   0  0  0  0  0  0  0  0  0  0  0  0
  2  1  1  6
  3  2  1  0
  4  8  1  0
  4  3  1  0
  5  4  2  0
  6  2  1  0
  7  6  2  0
  9  6  1  0
 10 11  1  6
 10  9  1  0
 11 12  1  0
 13 12  1  0
 13 14  1  0
 14 15  1  0
 16 10  1  0
 17 16  2  0
 18 16  1  0
 19 25  1  0
 19 18  1  0
 19 20  1  1
 21 20  1  0
 22 21  1  0
 23 24  1  0
 23 22  1  0
 25 27  1  0
 26 25  2  0
M  END
$$$$
