DKK.pdb
     RDKit          3D

 27 26  0  0  1  0  0  0  0  0999 V2000
   18.8235  -14.4786  -16.4424 N   0  0  0  0  0  0  0  0  0  0  0  0
   18.2595  -13.1522  -16.7529 C   0  0  1  0  0  0  0  0  0  0  0  0
   16.9113  -13.1280  -16.1221 C   0  0  0  0  0  0  0  0  0  0  0  0
   15.8258  -13.7523  -16.8721 C   0  0  0  0  0  0  0  0  0  0  0  0
   15.9032  -14.2501  -18.0064 O   0  0  0  0  0  0  0  0  0  0  0  0
   19.1749  -12.1528  -16.1380 C   0  0  0  0  0  0  0  0  0  0  0  0
   19.3873  -12.2093  -14.8801 O   0  0  0  0  0  0  0  0  0  0  0  0
   14.5712  -13.7850  -16.2301 O   0  0  0  0  0  0  0  0  0  0  0  0
   19.8159  -11.1439  -16.9015 N   0  0  0  0  0  0  0  0  0  0  0  0
   20.6967  -10.2121  -16.2078 C   0  0  1  0  0  0  0  0  0  0  0  0
   21.7628   -9.7789  -17.1816 C   0  0  0  0  0  0  0  0  0  0  0  0
   22.7128  -10.8512  -17.5838 C   0  0  0  0  0  0  0  0  0  0  0  0
   23.5901  -10.4413  -18.7562 C   0  0  0  0  0  0  0  0  0  0  0  0
   24.4375  -11.5622  -19.2742 C   0  0  0  0  0  0  0  0  0  0  0  0
   25.1233  -11.1252  -20.4961 N   0  0  0  0  0  0  0  0  0  0  0  0
   19.9467   -9.0331  -15.7286 C   0  0  0  0  0  0  0  0  0  0  0  0
   19.1162   -8.3923  -16.4113 O   0  0  0  0  0  0  0  0  0  0  0  0
   20.1264   -8.5193  -14.3900 N   0  0  0  0  0  0  0  0  0  0  0  0
   19.4485   -7.3560  -13.8890 C   0  0  1  0  0  0  0  0  0  0  0  0
   18.9259   -7.5461  -12.4843 C   0  0  0  0  0  0  0  0  0  0  0  0
   17.6324   -8.3299  -12.4538 C   0  0  0  0  0  0  0  0  0  0  0  0
   17.1738   -8.4982  -11.0470 C   0  0  0  0  0  0  0  0  0  0  0  0
   15.8683   -9.2384  -10.9211 C   0  0  0  0  0  0  0  0  0  0  0  0
   15.9463  -10.6094  -11.3001 N   0  0  0  0  0  0  0  0  0  0  0  0
   20.3940   -6.2129  -13.9492 C   0  0  0  0  0  0  0  0  0  0  0  0
   21.6214   -6.3785  -14.2429 O   0  0  0  0  0  0  0  0  0  0  0  0
   19.9877   -4.9181  -13.6900 O   0  0  0  0  0  0  0  0  0  0  0  0
  2  1  1  1
  3  2  1  0
  4  8  1  0
  4  3  1  0
  5  4  2  0
  6  2  1  0
  7  6  2  0
  9  6  1  0
 10 11  1  6
 10  9  1  0
 11 12  1  0
 13 12  1  0
 13 14  1  0
 14 15  1  0
 16 10  1  0
 17 16  2  0
 18 16  1  0
 19 25  1  0
 19 18  1  0
 19 20  1  1
 21 20  1  0
 22 21  1  0
 23 24  1  0
 23 22  1  0
 25 27  1  0
 26 25  2  0
M  END
$$$$
