DKK.pdb
     RDKit          3D

 27 26  0  0  1  0  0  0  0  0999 V2000
   20.2365  -21.3934  -17.3368 N   0  0  0  0  0  0  0  0  0  0  0  0
   21.0343  -20.2950  -16.7616 C   0  0  1  0  0  0  0  0  0  0  0  0
   20.1252  -19.5839  -15.8214 C   0  0  0  0  0  0  0  0  0  0  0  0
   19.1577  -18.6656  -16.4142 C   0  0  0  0  0  0  0  0  0  0  0  0
   19.3568  -17.8996  -17.3702 O   0  0  0  0  0  0  0  0  0  0  0  0
   22.1751  -20.9331  -16.0501 C   0  0  0  0  0  0  0  0  0  0  0  0
   21.9376  -21.9149  -15.2687 O   0  0  0  0  0  0  0  0  0  0  0  0
   17.8742  -18.6605  -15.8311 O   0  0  0  0  0  0  0  0  0  0  0  0
   23.5119  -20.4875  -16.2116 N   0  0  0  0  0  0  0  0  0  0  0  0
   24.5662  -21.2060  -15.5063 C   0  0  1  0  0  0  0  0  0  0  0  0
   25.7850  -21.2169  -16.3933 C   0  0  0  0  0  0  0  0  0  0  0  0
   25.7758  -22.2617  -17.4527 C   0  0  0  0  0  0  0  0  0  0  0  0
   26.9909  -22.1776  -18.3630 C   0  0  0  0  0  0  0  0  0  0  0  0
   26.9643  -23.1854  -19.4706 C   0  0  0  0  0  0  0  0  0  0  0  0
   28.1376  -22.9899  -20.3305 N   0  0  0  0  0  0  0  0  0  0  0  0
   24.8863  -20.5485  -14.2228 C   0  0  0  0  0  0  0  0  0  0  0  0
   24.9600  -19.3102  -14.0565 O   0  0  0  0  0  0  0  0  0  0  0  0
   25.1458  -21.3172  -13.0270 N   0  0  0  0  0  0  0  0  0  0  0  0
   25.4472  -20.7253  -11.7531 C   0  0  1  0  0  0  0  0  0  0  0  0
   25.1479  -21.6494  -10.5960 C   0  0  0  0  0  0  0  0  0  0  0  0
   25.5038  -21.0325   -9.2614 C   0  0  0  0  0  0  0  0  0  0  0  0
   24.5576  -21.5074   -8.2141 C   0  0  0  0  0  0  0  0  0  0  0  0
   24.8175  -20.9188   -6.8525 C   0  0  0  0  0  0  0  0  0  0  0  0
   23.8502  -21.2863   -5.8734 N   0  0  0  0  0  0  0  0  0  0  0  0
   26.8791  -20.3328  -11.7572 C   0  0  0  0  0  0  0  0  0  0  0  0
   27.7488  -20.9930  -12.4114 O   0  0  0  0  0  0  0  0  0  0  0  0
   27.3346  -19.2350  -11.0529 O   0  0  0  0  0  0  0  0  0  0  0  0
  2  1  1  1
  3  2  1  0
  4  8  1  0
  4  3  1  0
  5  4  2  0
  6  2  1  0
  7  6  2  0
  9  6  1  0
 10 11  1  6
 10  9  1  0
 11 12  1  0
 13 12  1  0
 13 14  1  0
 14 15  1  0
 16 10  1  0
 17 16  2  0
 18 16  1  0
 19 25  1  0
 19 18  1  0
 19 20  1  1
 21 20  1  0
 22 21  1  0
 23 24  1  0
 23 22  1  0
 25 27  1  0
 26 25  2  0
M  END
$$$$
