DKK.pdb
     RDKit          3D

 27 26  0  0  1  0  0  0  0  0999 V2000
   14.6001  -12.8410  -11.4345 N   0  0  0  0  0  0  0  0  0  0  0  0
   14.4061  -11.5820  -12.1769 C   0  0  1  0  0  0  0  0  0  0  0  0
   12.9658  -11.2391  -12.0226 C   0  0  0  0  0  0  0  0  0  0  0  0
   12.0149  -12.0489  -12.7781 C   0  0  0  0  0  0  0  0  0  0  0  0
   12.2896  -12.9766  -13.5556 O   0  0  0  0  0  0  0  0  0  0  0  0
   15.2866  -10.5726  -11.5282 C   0  0  0  0  0  0  0  0  0  0  0  0
   15.3114  -10.5108  -10.2529 O   0  0  0  0  0  0  0  0  0  0  0  0
   10.6533  -11.7331  -12.5953 O   0  0  0  0  0  0  0  0  0  0  0  0
   16.0955   -9.6811  -12.2781 N   0  0  0  0  0  0  0  0  0  0  0  0
   16.8732   -8.6834  -11.5535 C   0  0  1  0  0  0  0  0  0  0  0  0
   18.0260   -8.2736  -12.4343 C   0  0  0  0  0  0  0  0  0  0  0  0
   18.9168   -7.2337  -11.8518 C   0  0  0  0  0  0  0  0  0  0  0  0
   20.0493   -6.8464  -12.7896 C   0  0  0  0  0  0  0  0  0  0  0  0
   21.0626   -5.9507  -12.1462 C   0  0  0  0  0  0  0  0  0  0  0  0
   22.1446   -5.6806  -13.1005 N   0  0  0  0  0  0  0  0  0  0  0  0
   16.0467   -7.5031  -11.2283 C   0  0  0  0  0  0  0  0  0  0  0  0
   15.3110   -6.9030  -12.0438 O   0  0  0  0  0  0  0  0  0  0  0  0
   16.0296   -6.9391   -9.8980 N   0  0  0  0  0  0  0  0  0  0  0  0
   15.2181   -5.8143   -9.5233 C   0  0  1  0  0  0  0  0  0  0  0  0
   14.6556   -5.9411   -8.1270 C   0  0  0  0  0  0  0  0  0  0  0  0
   13.8154   -4.7456   -7.7355 C   0  0  0  0  0  0  0  0  0  0  0  0
   13.3318   -4.9015   -6.3356 C   0  0  0  0  0  0  0  0  0  0  0  0
   12.4625   -3.7650   -5.8661 C   0  0  0  0  0  0  0  0  0  0  0  0
   12.0543   -3.8778   -4.5059 N   0  0  0  0  0  0  0  0  0  0  0  0
   16.0474   -4.5890   -9.6480 C   0  0  0  0  0  0  0  0  0  0  0  0
   17.3177   -4.6348   -9.5811 O   0  0  0  0  0  0  0  0  0  0  0  0
   15.4811   -3.3439   -9.8421 O   0  0  0  0  0  0  0  0  0  0  0  0
  2  1  1  1
  3  2  1  0
  4  8  1  0
  4  3  1  0
  5  4  2  0
  6  2  1  0
  7  6  2  0
  9  6  1  0
 10 11  1  6
 10  9  1  0
 11 12  1  0
 13 12  1  0
 13 14  1  0
 14 15  1  0
 16 10  1  0
 17 16  2  0
 18 16  1  0
 19 25  1  0
 19 18  1  0
 19 20  1  1
 21 20  1  0
 22 21  1  0
 23 24  1  0
 23 22  1  0
 25 27  1  0
 26 25  2  0
M  END
$$$$
