DKK.pdb
     RDKit          3D

 27 26  0  0  1  0  0  0  0  0999 V2000
   22.8142  -11.9862  -17.4352 N   0  0  0  0  0  0  0  0  0  0  0  0
   22.2361  -11.2116  -18.5486 C   0  0  1  0  0  0  0  0  0  0  0  0
   21.4160  -12.1772  -19.3304 C   0  0  0  0  0  0  0  0  0  0  0  0
   22.1394  -13.2323  -20.0334 C   0  0  0  0  0  0  0  0  0  0  0  0
   22.9108  -14.0621  -19.5268 O   0  0  0  0  0  0  0  0  0  0  0  0
   21.3975  -10.1493  -17.9296 C   0  0  0  0  0  0  0  0  0  0  0  0
   20.7435   -9.3624  -18.6938 O   0  0  0  0  0  0  0  0  0  0  0  0
   21.9299  -13.3021  -21.4257 O   0  0  0  0  0  0  0  0  0  0  0  0
   21.3021   -9.9837  -16.5243 N   0  0  0  0  0  0  0  0  0  0  0  0
   20.5105   -8.8704  -16.0153 C   0  0  1  0  0  0  0  0  0  0  0  0
   19.5626   -9.4188  -14.9792 C   0  0  0  0  0  0  0  0  0  0  0  0
   18.3541  -10.0882  -15.5319 C   0  0  0  0  0  0  0  0  0  0  0  0
   17.4243  -10.6009  -14.4434 C   0  0  0  0  0  0  0  0  0  0  0  0
   16.1766  -11.2272  -14.9856 C   0  0  0  0  0  0  0  0  0  0  0  0
   15.3211  -11.6460  -13.8688 N   0  0  0  0  0  0  0  0  0  0  0  0
   21.3771   -7.8405  -15.4066 C   0  0  0  0  0  0  0  0  0  0  0  0
   22.2219   -8.0607  -14.5099 O   0  0  0  0  0  0  0  0  0  0  0  0
   21.3070   -6.4575  -15.8193 N   0  0  0  0  0  0  0  0  0  0  0  0
   22.0682   -5.4061  -15.2035 C   0  0  1  0  0  0  0  0  0  0  0  0
   22.0571   -4.1292  -16.0107 C   0  0  0  0  0  0  0  0  0  0  0  0
   22.9162   -3.0498  -15.3899 C   0  0  0  0  0  0  0  0  0  0  0  0
   22.9554   -1.8571  -16.2809 C   0  0  0  0  0  0  0  0  0  0  0  0
   23.8175   -0.7390  -15.7570 C   0  0  0  0  0  0  0  0  0  0  0  0
   23.8280    0.4169  -16.5895 N   0  0  0  0  0  0  0  0  0  0  0  0
   21.5156   -5.1754  -13.8448 C   0  0  0  0  0  0  0  0  0  0  0  0
   20.2748   -5.3150  -13.5979 O   0  0  0  0  0  0  0  0  0  0  0  0
   22.3200   -4.7992  -12.7865 O   0  0  0  0  0  0  0  0  0  0  0  0
  2  1  1  1
  3  2  1  0
  4  8  1  0
  4  3  1  0
  5  4  2  0
  6  2  1  0
  7  6  2  0
  9  6  1  0
 10 11  1  1
 10  9  1  0
 11 12  1  0
 13 12  1  0
 13 14  1  0
 14 15  1  0
 16 10  1  0
 17 16  2  0
 18 16  1  0
 19 25  1  0
 19 18  1  0
 19 20  1  6
 21 20  1  0
 22 21  1  0
 23 24  1  0
 23 22  1  0
 25 27  1  0
 26 25  2  0
M  END
$$$$
