HAA.pdb
     RDKit          3D

 21 21  0  0  1  0  0  0  0  0999 V2000
   23.4788  -19.7220  -16.4042 N   0  0  0  0  0  0  0  0  0  0  0  0
   22.6220  -18.5766  -16.3660 C   0  0  1  0  0  0  0  0  0  0  0  0
   22.2240  -18.1961  -17.7856 C   0  0  0  0  0  0  0  0  0  0  0  0
   23.4580  -17.7614  -18.4917 C   0  0  0  0  0  0  0  0  0  0  0  0
   23.9928  -18.3947  -19.5845 C   0  0  0  0  0  0  0  0  0  0  0  0
   25.0967  -17.7081  -19.9311 N   0  0  0  0  0  0  0  0  0  0  0  0
   25.2242  -16.6875  -19.0698 C   0  0  0  0  0  0  0  0  0  0  0  0
   24.2269  -16.7062  -18.1807 N   0  0  0  0  0  0  0  0  0  0  0  0
   21.4400  -18.7642  -15.4916 C   0  0  0  0  0  0  0  0  0  0  0  0
   20.8907  -19.8959  -15.4825 O   0  0  0  0  0  0  0  0  0  0  0  0
   19.6476  -16.9465  -12.7173 C   0  0  0  0  0  0  0  0  0  0  0  0
   19.7437  -17.9878  -13.8103 C   0  0  2  0  0  0  0  0  0  0  0  0
   20.8884  -17.7628  -14.6698 N   0  0  0  0  0  0  0  0  0  0  0  0
   18.4959  -18.0465  -14.6197 C   0  0  0  0  0  0  0  0  0  0  0  0
   18.3735  -17.3136  -15.6484 O   0  0  0  0  0  0  0  0  0  0  0  0
   15.4461  -20.2012  -14.6165 C   0  0  0  0  0  0  0  0  0  0  0  0
   16.1854  -18.9278  -14.9668 C   0  0  2  0  0  0  0  0  0  0  0  0
   17.4402  -18.9016  -14.2693 N   0  0  0  0  0  0  0  0  0  0  0  0
   15.3227  -17.7965  -14.5180 C   0  0  0  0  0  0  0  0  0  0  0  0
   14.1777  -17.4176  -15.1852 O   0  0  0  0  0  0  0  0  0  0  0  0
   15.6410  -17.1500  -13.4868 O   0  0  0  0  0  0  0  0  0  0  0  0
  2  1  1  6
  2  3  1  0
  3  4  1  0
  4  8  1  0
  5  4  2  0
  5  6  1  0
  6  7  1  0
  8  7  2  0
  9 13  1  0
  9  2  1  0
 10  9  2  0
 12 13  1  0
 12 11  1  1
 14 12  1  0
 14 18  1  0
 15 14  2  0
 17 18  1  0
 17 16  1  1
 19 17  1  0
 20 19  1  0
 21 19  2  0
M  END
$$$$
