HAA.pdb
     RDKit          3D

 21 21  0  0  1  0  0  0  0  0999 V2000
   19.0858  -12.2907  -17.8097 N   0  0  0  0  0  0  0  0  0  0  0  0
   20.0586  -11.2503  -17.9463 C   0  0  1  0  0  0  0  0  0  0  0  0
   19.6538  -10.3269  -19.0875 C   0  0  0  0  0  0  0  0  0  0  0  0
   19.7537  -11.1085  -20.3482 C   0  0  0  0  0  0  0  0  0  0  0  0
   20.7042  -10.9054  -21.3160 C   0  0  0  0  0  0  0  0  0  0  0  0
   20.4648  -11.8009  -22.2912 N   0  0  0  0  0  0  0  0  0  0  0  0
   19.3978  -12.5250  -21.9211 C   0  0  0  0  0  0  0  0  0  0  0  0
   18.9499  -12.1127  -20.7316 N   0  0  0  0  0  0  0  0  0  0  0  0
   20.2918  -10.5040  -16.6872 C   0  0  0  0  0  0  0  0  0  0  0  0
   19.2887  -10.0419  -16.0848 O   0  0  0  0  0  0  0  0  0  0  0  0
   23.0589   -9.8410  -14.2258 C   0  0  0  0  0  0  0  0  0  0  0  0
   21.7547   -9.4979  -14.9111 C   0  0  2  0  0  0  0  0  0  0  0  0
   21.5592  -10.2759  -16.1178 N   0  0  0  0  0  0  0  0  0  0  0  0
   21.6642   -8.0437  -15.2158 C   0  0  0  0  0  0  0  0  0  0  0  0
   22.2328   -7.5770  -16.2497 O   0  0  0  0  0  0  0  0  0  0  0  0
   19.5339   -5.2579  -14.0408 C   0  0  0  0  0  0  0  0  0  0  0  0
   20.8280   -5.7616  -14.6429 C   0  0  2  0  0  0  0  0  0  0  0  0
   20.9578   -7.1670  -14.3787 N   0  0  0  0  0  0  0  0  0  0  0  0
   21.9300   -5.0082  -13.9769 C   0  0  0  0  0  0  0  0  0  0  0  0
   22.3987   -3.7989  -14.4433 O   0  0  0  0  0  0  0  0  0  0  0  0
   22.4652   -5.4846  -12.9429 O   0  0  0  0  0  0  0  0  0  0  0  0
  2  1  1  1
  2  3  1  0
  3  4  1  0
  4  8  1  0
  5  4  2  0
  5  6  1  0
  6  7  1  0
  8  7  2  0
  9 13  1  0
  9  2  1  0
 10  9  2  0
 12 13  1  0
 12 11  1  6
 14 12  1  0
 14 18  1  0
 15 14  2  0
 17 18  1  0
 17 16  1  1
 19 17  1  0
 20 19  1  0
 21 19  2  0
M  END
$$$$
