HAA.pdb
     RDKit          3D

 21 21  0  0  1  0  0  0  0  0999 V2000
   19.2512  -11.6009  -17.4777 N   0  0  0  0  0  0  0  0  0  0  0  0
   18.7285  -10.6107  -16.5867 C   0  0  1  0  0  0  0  0  0  0  0  0
   18.7410  -11.1541  -15.1643 C   0  0  0  0  0  0  0  0  0  0  0  0
   17.7957  -12.3007  -15.1182 C   0  0  0  0  0  0  0  0  0  0  0  0
   16.4339  -12.1912  -15.2394 C   0  0  0  0  0  0  0  0  0  0  0  0
   15.9332  -13.4366  -15.1472 N   0  0  0  0  0  0  0  0  0  0  0  0
   16.9662  -14.2751  -14.9748 C   0  0  0  0  0  0  0  0  0  0  0  0
   18.1155  -13.5939  -14.9549 N   0  0  0  0  0  0  0  0  0  0  0  0
   19.4308   -9.3094  -16.6877 C   0  0  0  0  0  0  0  0  0  0  0  0
   20.6361   -9.2640  -16.3305 O   0  0  0  0  0  0  0  0  0  0  0  0
   18.8534   -5.9068  -18.2158 C   0  0  0  0  0  0  0  0  0  0  0  0
   19.5805   -6.8830  -17.3178 C   0  0  2  0  0  0  0  0  0  0  0  0
   18.8421   -8.1192  -17.1562 N   0  0  0  0  0  0  0  0  0  0  0  0
   19.8784   -6.2838  -15.9881 C   0  0  0  0  0  0  0  0  0  0  0  0
   19.0610   -6.4328  -15.0292 O   0  0  0  0  0  0  0  0  0  0  0  0
   22.7799   -4.4037  -14.5454 C   0  0  0  0  0  0  0  0  0  0  0  0
   21.3471   -4.8913  -14.5255 C   0  0  2  0  0  0  0  0  0  0  0  0
   21.0539   -5.5504  -15.7670 N   0  0  0  0  0  0  0  0  0  0  0  0
   20.4873   -3.6824  -14.3682 C   0  0  0  0  0  0  0  0  0  0  0  0
   20.2456   -3.0890  -13.1479 O   0  0  0  0  0  0  0  0  0  0  0  0
   19.9521   -3.1701  -15.3850 O   0  0  0  0  0  0  0  0  0  0  0  0
  2  1  1  6
  2  3  1  0
  3  4  1  0
  4  8  1  0
  5  4  2  0
  5  6  1  0
  6  7  1  0
  8  7  2  0
  9 13  1  0
  9  2  1  0
 10  9  2  0
 12 13  1  0
 12 11  1  6
 14 12  1  0
 14 18  1  0
 15 14  2  0
 17 18  1  0
 17 16  1  6
 19 17  1  0
 20 19  1  0
 21 19  2  0
M  END
$$$$
