HAA.pdb
     RDKit          3D

 21 21  0  0  1  0  0  0  0  0999 V2000
   18.3223  -12.9891  -15.9795 N   0  0  0  0  0  0  0  0  0  0  0  0
   17.8062  -11.6546  -15.9970 C   0  0  1  0  0  0  0  0  0  0  0  0
   16.8665  -11.4609  -14.8147 C   0  0  0  0  0  0  0  0  0  0  0  0
   15.6625  -12.2972  -15.0624 C   0  0  0  0  0  0  0  0  0  0  0  0
   14.5384  -11.8666  -15.7198 C   0  0  0  0  0  0  0  0  0  0  0  0
   13.6795  -12.9021  -15.7421 N   0  0  0  0  0  0  0  0  0  0  0  0
   14.2704  -13.9301  -15.1145 C   0  0  0  0  0  0  0  0  0  0  0  0
   15.4872  -13.5751  -14.6916 N   0  0  0  0  0  0  0  0  0  0  0  0
   18.8683  -10.6214  -16.0343 C   0  0  0  0  0  0  0  0  0  0  0  0
   19.7444  -10.6479  -15.1319 O   0  0  0  0  0  0  0  0  0  0  0  0
   20.1447   -7.9709  -18.4016 C   0  0  0  0  0  0  0  0  0  0  0  0
   20.0578   -8.6610  -17.0584 C   0  0  2  0  0  0  0  0  0  0  0  0
   18.9650   -9.6114  -17.0106 N   0  0  0  0  0  0  0  0  0  0  0  0
   19.9346   -7.6786  -15.9469 C   0  0  0  0  0  0  0  0  0  0  0  0
   18.7873   -7.3562  -15.5112 O   0  0  0  0  0  0  0  0  0  0  0  0
   22.3984   -5.9438  -13.7214 C   0  0  0  0  0  0  0  0  0  0  0  0
   21.0013   -6.1908  -14.2487 C   0  0  2  0  0  0  0  0  0  0  0  0
   21.0684   -7.0939  -15.3629 N   0  0  0  0  0  0  0  0  0  0  0  0
   20.4715   -4.8675  -14.6891 C   0  0  0  0  0  0  0  0  0  0  0  0
   19.9214   -3.9532  -13.8167 O   0  0  0  0  0  0  0  0  0  0  0  0
   20.5220   -4.5579  -15.9075 O   0  0  0  0  0  0  0  0  0  0  0  0
  2  1  1  1
  2  3  1  0
  3  4  1  0
  4  8  1  0
  5  4  2  0
  5  6  1  0
  6  7  1  0
  8  7  2  0
  9 13  1  0
  9  2  1  0
 10  9  2  0
 12 13  1  0
 12 11  1  6
 14 12  1  0
 14 18  1  0
 15 14  2  0
 17 18  1  0
 17 16  1  6
 19 17  1  0
 20 19  1  0
 21 19  2  0
M  END
$$$$
