HAA.pdb
     RDKit          3D

 21 21  0  0  1  0  0  0  0  0999 V2000
   17.6548  -14.9464  -16.8861 N   0  0  0  0  0  0  0  0  0  0  0  0
   17.4374  -13.5387  -17.0232 C   0  0  1  0  0  0  0  0  0  0  0  0
   16.3437  -13.1003  -16.0588 C   0  0  0  0  0  0  0  0  0  0  0  0
   15.0453  -13.5535  -16.6237 C   0  0  0  0  0  0  0  0  0  0  0  0
   14.8970  -14.1539  -17.8479 C   0  0  0  0  0  0  0  0  0  0  0  0
   13.5853  -14.4130  -17.9984 N   0  0  0  0  0  0  0  0  0  0  0  0
   12.9591  -13.9801  -16.8937 C   0  0  0  0  0  0  0  0  0  0  0  0
   13.8408  -13.4503  -16.0408 N   0  0  0  0  0  0  0  0  0  0  0  0
   18.6751  -12.7407  -16.8555 C   0  0  0  0  0  0  0  0  0  0  0  0
   19.3948  -12.9783  -15.8514 O   0  0  0  0  0  0  0  0  0  0  0  0
   20.7261  -10.2265  -18.7947 C   0  0  0  0  0  0  0  0  0  0  0  0
   20.3126  -10.9642  -17.5405 C   0  0  2  0  0  0  0  0  0  0  0  0
   19.1019  -11.7341  -17.7427 N   0  0  0  0  0  0  0  0  0  0  0  0
   20.1453  -10.0343  -16.3903 C   0  0  0  0  0  0  0  0  0  0  0  0
   18.9957   -9.5776  -16.1075 O   0  0  0  0  0  0  0  0  0  0  0  0
   22.4178   -8.8353  -13.6686 C   0  0  0  0  0  0  0  0  0  0  0  0
   21.1144   -8.8161  -14.4378 C   0  0  2  0  0  0  0  0  0  0  0  0
   21.2396   -9.6462  -15.6026 N   0  0  0  0  0  0  0  0  0  0  0  0
   20.8764   -7.3988  -14.8383 C   0  0  0  0  0  0  0  0  0  0  0  0
   20.3983   -6.4444  -13.9663 O   0  0  0  0  0  0  0  0  0  0  0  0
   21.1178   -7.0436  -16.0207 O   0  0  0  0  0  0  0  0  0  0  0  0
  2  1  1  1
  2  3  1  0
  3  4  1  0
  4  8  1  0
  5  4  2  0
  5  6  1  0
  6  7  1  0
  8  7  2  0
  9 13  1  0
  9  2  1  0
 10  9  2  0
 12 13  1  0
 12 11  1  6
 14 12  1  0
 14 18  1  0
 15 14  2  0
 17 18  1  0
 17 16  1  6
 19 17  1  0
 20 19  1  0
 21 19  2  0
M  END
$$$$
