HAA.pdb
     RDKit          3D

 21 21  0  0  1  0  0  0  0  0999 V2000
   18.9809  -11.6680  -17.9628 N   0  0  0  0  0  0  0  0  0  0  0  0
   18.7548  -10.7237  -16.9117 C   0  0  1  0  0  0  0  0  0  0  0  0
   19.0799  -11.3711  -15.5724 C   0  0  0  0  0  0  0  0  0  0  0  0
   18.0815  -12.4493  -15.3460 C   0  0  0  0  0  0  0  0  0  0  0  0
   16.7464  -12.2368  -15.1147 C   0  0  0  0  0  0  0  0  0  0  0  0
   16.1803  -13.4476  -14.9605 N   0  0  0  0  0  0  0  0  0  0  0  0
   17.1488  -14.3661  -15.0954 C   0  0  0  0  0  0  0  0  0  0  0  0
   18.3209  -13.7698  -15.3322 N   0  0  0  0  0  0  0  0  0  0  0  0
   19.4915   -9.4521  -17.1046 C   0  0  0  0  0  0  0  0  0  0  0  0
   20.7430   -9.5106  -17.2178 O   0  0  0  0  0  0  0  0  0  0  0  0
   18.7391   -5.8103  -17.7795 C   0  0  0  0  0  0  0  0  0  0  0  0
   19.6376   -6.9604  -17.3814 C   0  0  2  0  0  0  0  0  0  0  0  0
   18.8874   -8.1820  -17.1701 N   0  0  0  0  0  0  0  0  0  0  0  0
   20.4395   -6.6329  -16.1709 C   0  0  0  0  0  0  0  0  0  0  0  0
   19.9730   -6.8789  -15.0168 O   0  0  0  0  0  0  0  0  0  0  0  0
   23.8842   -5.2557  -15.6164 C   0  0  0  0  0  0  0  0  0  0  0  0
   22.5396   -5.7609  -15.1391 C   0  0  2  0  0  0  0  0  0  0  0  0
   21.7125   -6.0524  -16.2760 N   0  0  0  0  0  0  0  0  0  0  0  0
   21.9346   -4.6636  -14.3295 C   0  0  0  0  0  0  0  0  0  0  0  0
   20.9185   -3.8594  -14.7990 O   0  0  0  0  0  0  0  0  0  0  0  0
   22.3599   -4.4505  -13.1648 O   0  0  0  0  0  0  0  0  0  0  0  0
  2  1  1  6
  2  3  1  0
  3  4  1  0
  4  8  1  0
  5  4  2  0
  5  6  1  0
  6  7  1  0
  8  7  2  0
  9 13  1  0
  9  2  1  0
 10  9  2  0
 12 13  1  0
 12 11  1  1
 14 12  1  0
 14 18  1  0
 15 14  2  0
 17 18  1  0
 17 16  1  6
 19 17  1  0
 20 19  1  0
 21 19  2  0
M  END
$$$$
