HAA.pdb
     RDKit          3D

 21 21  0  0  1  0  0  0  0  0999 V2000
   18.8874  -11.5550  -18.2485 N   0  0  0  0  0  0  0  0  0  0  0  0
   19.5524  -11.2049  -17.0309 C   0  0  1  0  0  0  0  0  0  0  0  0
   20.9123  -11.8883  -16.9835 C   0  0  0  0  0  0  0  0  0  0  0  0
   20.6710  -13.3536  -16.9115 C   0  0  0  0  0  0  0  0  0  0  0  0
   20.9426  -14.2372  -17.9248 C   0  0  0  0  0  0  0  0  0  0  0  0
   20.5905  -15.4579  -17.4819 N   0  0  0  0  0  0  0  0  0  0  0  0
   20.1189  -15.3140  -16.2342 C   0  0  0  0  0  0  0  0  0  0  0  0
   20.1617  -14.0292  -15.8697 N   0  0  0  0  0  0  0  0  0  0  0  0
   19.6621   -9.7406  -16.8290 C   0  0  0  0  0  0  0  0  0  0  0  0
   20.3780   -9.0896  -17.6329 O   0  0  0  0  0  0  0  0  0  0  0  0
   17.8350   -7.0442  -14.9728 C   0  0  0  0  0  0  0  0  0  0  0  0
   19.0443   -7.5810  -15.7059 C   0  0  2  0  0  0  0  0  0  0  0  0
   19.0200   -9.0269  -15.7991 N   0  0  0  0  0  0  0  0  0  0  0  0
   20.3126   -7.1272  -15.0726 C   0  0  0  0  0  0  0  0  0  0  0  0
   20.8053   -7.7810  -14.1031 O   0  0  0  0  0  0  0  0  0  0  0  0
   22.7322   -4.3482  -15.7730 C   0  0  0  0  0  0  0  0  0  0  0  0
   22.2260   -5.5261  -14.9685 C   0  0  2  0  0  0  0  0  0  0  0  0
   20.9839   -5.9818  -15.5263 N   0  0  0  0  0  0  0  0  0  0  0  0
   22.0155   -5.0330  -13.5763 C   0  0  0  0  0  0  0  0  0  0  0  0
   23.0145   -5.0218  -12.6268 O   0  0  0  0  0  0  0  0  0  0  0  0
   20.8816   -4.6052  -13.2388 O   0  0  0  0  0  0  0  0  0  0  0  0
  2  1  1  6
  2  3  1  0
  3  4  1  0
  4  8  1  0
  5  4  2  0
  5  6  1  0
  6  7  1  0
  8  7  2  0
  9 13  1  0
  9  2  1  0
 10  9  2  0
 12 13  1  0
 12 11  1  1
 14 12  1  0
 14 18  1  0
 15 14  2  0
 17 18  1  0
 17 16  1  6
 19 17  1  0
 20 19  1  0
 21 19  2  0
M  END
$$$$
