HAA.pdb
     RDKit          3D

 21 21  0  0  1  0  0  0  0  0999 V2000
   18.7508  -10.1394  -15.3441 N   0  0  0  0  0  0  0  0  0  0  0  0
   18.8136   -8.9256  -16.0992 C   0  0  1  0  0  0  0  0  0  0  0  0
   17.5339   -8.7679  -16.9092 C   0  0  0  0  0  0  0  0  0  0  0  0
   17.4840   -9.8893  -17.8840 C   0  0  0  0  0  0  0  0  0  0  0  0
   18.4313  -10.1249  -18.8475 C   0  0  0  0  0  0  0  0  0  0  0  0
   18.0355  -11.2189  -19.5235 N   0  0  0  0  0  0  0  0  0  0  0  0
   16.8799  -11.6320  -18.9817 C   0  0  0  0  0  0  0  0  0  0  0  0
   16.5281  -10.8270  -17.9749 N   0  0  0  0  0  0  0  0  0  0  0  0
   19.0884   -7.7340  -15.2617 C   0  0  0  0  0  0  0  0  0  0  0  0
   18.2206   -7.3995  -14.4146 O   0  0  0  0  0  0  0  0  0  0  0  0
   21.8942   -5.6120  -14.1074 C   0  0  0  0  0  0  0  0  0  0  0  0
   20.4585   -5.7483  -14.5640 C   0  0  2  0  0  0  0  0  0  0  0  0
   20.2544   -6.9494  -15.3484 N   0  0  0  0  0  0  0  0  0  0  0  0
   20.0131   -4.5518  -15.3292 C   0  0  0  0  0  0  0  0  0  0  0  0
   20.2394   -4.4771  -16.5755 O   0  0  0  0  0  0  0  0  0  0  0  0
   17.8546   -1.6139  -14.4905 C   0  0  0  0  0  0  0  0  0  0  0  0
   18.7679   -2.3891  -15.4158 C   0  0  2  0  0  0  0  0  0  0  0  0
   19.3419   -3.4930  -14.6992 N   0  0  0  0  0  0  0  0  0  0  0  0
   19.8377   -1.4440  -15.8493 C   0  0  0  0  0  0  0  0  0  0  0  0
   19.6197   -0.4332  -16.7606 O   0  0  0  0  0  0  0  0  0  0  0  0
   20.9953   -1.5620  -15.3710 O   0  0  0  0  0  0  0  0  0  0  0  0
  2  1  1  1
  2  3  1  0
  3  4  1  0
  4  8  1  0
  5  4  2  0
  5  6  1  0
  6  7  1  0
  8  7  2  0
  9 13  1  0
  9  2  1  0
 10  9  2  0
 12 13  1  0
 12 11  1  6
 14 12  1  0
 14 18  1  0
 15 14  2  0
 17 18  1  0
 17 16  1  1
 19 17  1  0
 20 19  1  0
 21 19  2  0
M  END
$$$$
