HAA.pdb
     RDKit          3D

 21 21  0  0  1  0  0  0  0  0999 V2000
   22.1675  -12.6006  -17.6734 N   0  0  0  0  0  0  0  0  0  0  0  0
   22.7272  -11.7786  -16.6446 C   0  0  1  0  0  0  0  0  0  0  0  0
   24.1787  -11.4653  -16.9820 C   0  0  0  0  0  0  0  0  0  0  0  0
   24.9359  -12.7431  -16.9160 C   0  0  0  0  0  0  0  0  0  0  0  0
   25.3460  -13.3449  -15.7537 C   0  0  0  0  0  0  0  0  0  0  0  0
   25.9937  -14.4706  -16.1055 N   0  0  0  0  0  0  0  0  0  0  0  0
   25.9746  -14.5454  -17.4448 C   0  0  0  0  0  0  0  0  0  0  0  0
   25.3294  -13.4933  -17.9570 N   0  0  0  0  0  0  0  0  0  0  0  0
   21.9404  -10.5482  -16.3915 C   0  0  0  0  0  0  0  0  0  0  0  0
   21.7113   -9.7874  -17.3668 O   0  0  0  0  0  0  0  0  0  0  0  0
   19.8395   -9.0661  -13.6296 C   0  0  0  0  0  0  0  0  0  0  0  0
   20.5967   -9.0031  -14.9376 C   0  0  2  0  0  0  0  0  0  0  0  0
   21.4310  -10.1714  -15.1341 N   0  0  0  0  0  0  0  0  0  0  0  0
   21.4152   -7.7636  -15.0353 C   0  0  0  0  0  0  0  0  0  0  0  0
   22.6398   -7.7860  -14.7038 O   0  0  0  0  0  0  0  0  0  0  0  0
   20.7604   -4.2803  -16.2567 C   0  0  0  0  0  0  0  0  0  0  0  0
   21.5969   -5.3277  -15.5536 C   0  0  2  0  0  0  0  0  0  0  0  0
   20.8597   -6.5582  -15.4901 N   0  0  0  0  0  0  0  0  0  0  0  0
   21.8582   -4.8120  -14.1783 C   0  0  0  0  0  0  0  0  0  0  0  0
   22.7966   -3.8390  -13.9092 O   0  0  0  0  0  0  0  0  0  0  0  0
   21.2012   -5.2759  -13.2109 O   0  0  0  0  0  0  0  0  0  0  0  0
  2  1  1  6
  2  3  1  0
  3  4  1  0
  4  8  1  0
  5  4  2  0
  5  6  1  0
  6  7  1  0
  8  7  2  0
  9 13  1  0
  9  2  1  0
 10  9  2  0
 12 13  1  0
 12 11  1  1
 14 12  1  0
 14 18  1  0
 15 14  2  0
 17 18  1  0
 17 16  1  6
 19 17  1  0
 20 19  1  0
 21 19  2  0
M  END
$$$$
