HAA.pdb
     RDKit          3D

 21 21  0  0  1  0  0  0  0  0999 V2000
   30.7970  -28.2453  -17.6616 N   0  0  0  0  0  0  0  0  0  0  0  0
   30.9525  -26.9334  -18.2114 C   0  0  1  0  0  0  0  0  0  0  0  0
   31.1704  -27.0383  -19.7148 C   0  0  0  0  0  0  0  0  0  0  0  0
   32.4943  -27.6802  -19.9281 C   0  0  0  0  0  0  0  0  0  0  0  0
   33.6402  -27.3420  -19.2543 C   0  0  0  0  0  0  0  0  0  0  0  0
   34.6173  -28.1395  -19.7229 N   0  0  0  0  0  0  0  0  0  0  0  0
   34.0748  -28.9376  -20.6548 C   0  0  0  0  0  0  0  0  0  0  0  0
   32.7732  -28.6683  -20.7925 N   0  0  0  0  0  0  0  0  0  0  0  0
   29.8286  -26.0266  -17.8774 C   0  0  0  0  0  0  0  0  0  0  0  0
   28.6615  -26.4197  -18.1338 O   0  0  0  0  0  0  0  0  0  0  0  0
   29.2905  -22.6594  -16.2163 C   0  0  0  0  0  0  0  0  0  0  0  0
   28.8528  -23.9034  -16.9573 C   0  0  2  0  0  0  0  0  0  0  0  0
   29.9767  -24.7543  -17.2926 N   0  0  0  0  0  0  0  0  0  0  0  0
   28.0796  -23.5648  -18.1834 C   0  0  0  0  0  0  0  0  0  0  0  0
   28.6623  -23.5308  -19.3100 O   0  0  0  0  0  0  0  0  0  0  0  0
   24.7378  -23.8053  -19.4001 C   0  0  0  0  0  0  0  0  0  0  0  0
   25.9348  -22.8883  -19.2685 C   0  0  2  0  0  0  0  0  0  0  0  0
   26.7073  -23.2793  -18.1231 N   0  0  0  0  0  0  0  0  0  0  0  0
   25.3971  -21.5093  -19.0811 C   0  0  0  0  0  0  0  0  0  0  0  0
   24.7608  -20.8110  -20.0847 O   0  0  0  0  0  0  0  0  0  0  0  0
   25.5223  -20.9455  -17.9635 O   0  0  0  0  0  0  0  0  0  0  0  0
  2  1  1  6
  2  3  1  0
  3  4  1  0
  4  8  1  0
  5  4  2  0
  5  6  1  0
  6  7  1  0
  8  7  2  0
  9 13  1  0
  9  2  1  0
 10  9  2  0
 12 13  1  0
 12 11  1  6
 14 12  1  0
 14 18  1  0
 15 14  2  0
 17 18  1  0
 17 16  1  1
 19 17  1  0
 20 19  1  0
 21 19  2  0
M  END
$$$$
