HAA.pdb
     RDKit          3D

 21 21  0  0  1  0  0  0  0  0999 V2000
   15.4265  -17.4552    4.3585 N   0  0  0  0  0  0  0  0  0  0  0  0
   16.4134  -18.2294    5.0470 C   0  0  1  0  0  0  0  0  0  0  0  0
   17.3393  -18.8856    4.0317 C   0  0  0  0  0  0  0  0  0  0  0  0
   16.5695  -19.9673    3.3624 C   0  0  0  0  0  0  0  0  0  0  0  0
   16.3432  -21.2083    3.9008 C   0  0  0  0  0  0  0  0  0  0  0  0
   15.6157  -21.8960    3.0019 N   0  0  0  0  0  0  0  0  0  0  0  0
   15.4088  -21.0908    1.9491 C   0  0  0  0  0  0  0  0  0  0  0  0
   15.9876  -19.9040    2.1547 N   0  0  0  0  0  0  0  0  0  0  0  0
   17.1655  -17.4469    6.0564 C   0  0  0  0  0  0  0  0  0  0  0  0
   17.7244  -16.3852    5.6783 O   0  0  0  0  0  0  0  0  0  0  0  0
   17.6038  -17.2899    9.7883 C   0  0  0  0  0  0  0  0  0  0  0  0
   18.0522  -17.0260    8.3680 C   0  0  2  0  0  0  0  0  0  0  0  0
   17.2980  -17.8096    7.4105 N   0  0  0  0  0  0  0  0  0  0  0  0
   19.5104  -17.2734    8.2010 C   0  0  0  0  0  0  0  0  0  0  0  0
   19.9150  -18.3809    7.7321 O   0  0  0  0  0  0  0  0  0  0  0  0
   22.6006  -15.2562    8.8799 C   0  0  0  0  0  0  0  0  0  0  0  0
   21.8756  -16.5251    8.4860 C   0  0  2  0  0  0  0  0  0  0  0  0
   20.4589  -16.3014    8.5532 N   0  0  0  0  0  0  0  0  0  0  0  0
   22.2796  -17.5703    9.4708 C   0  0  0  0  0  0  0  0  0  0  0  0
   23.3831  -18.3774    9.2960 O   0  0  0  0  0  0  0  0  0  0  0  0
   21.5928  -17.7345   10.5120 O   0  0  0  0  0  0  0  0  0  0  0  0
  2  1  1  6
  2  3  1  0
  3  4  1  0
  4  8  1  0
  5  4  2  0
  5  6  1  0
  6  7  1  0
  8  7  2  0
  9 13  1  0
  9  2  1  0
 10  9  2  0
 12 13  1  0
 12 11  1  1
 14 12  1  0
 14 18  1  0
 15 14  2  0
 17 18  1  0
 17 16  1  1
 19 17  1  0
 20 19  1  0
 21 19  2  0
M  END
$$$$
