HAA.pdb
     RDKit          3D

 21 21  0  0  1  0  0  0  0  0999 V2000
   30.2175  -33.0930  -17.7122 N   0  0  0  0  0  0  0  0  0  0  0  0
   29.8388  -31.7296  -17.9250 C   0  0  1  0  0  0  0  0  0  0  0  0
   29.6809  -31.0334  -16.5800 C   0  0  0  0  0  0  0  0  0  0  0  0
   28.4713  -31.5989  -15.9262 C   0  0  0  0  0  0  0  0  0  0  0  0
   27.2362  -31.6839  -16.5165 C   0  0  0  0  0  0  0  0  0  0  0  0
   26.4116  -32.2478  -15.6151 N   0  0  0  0  0  0  0  0  0  0  0  0
   27.1309  -32.4963  -14.5103 C   0  0  0  0  0  0  0  0  0  0  0  0
   28.3962  -32.1040  -14.6850 N   0  0  0  0  0  0  0  0  0  0  0  0
   30.7696  -31.0008  -18.8190 C   0  0  0  0  0  0  0  0  0  0  0  0
   31.9544  -30.8406  -18.4274 O   0  0  0  0  0  0  0  0  0  0  0  0
   30.8771  -29.7060  -22.3616 C   0  0  0  0  0  0  0  0  0  0  0  0
   31.3590  -29.7736  -20.9293 C   0  0  2  0  0  0  0  0  0  0  0  0
   30.4198  -30.4748  -20.0774 N   0  0  0  0  0  0  0  0  0  0  0  0
   31.6370  -28.4174  -20.3823 C   0  0  0  0  0  0  0  0  0  0  0  0
   30.7627  -27.8283  -19.6761 O   0  0  0  0  0  0  0  0  0  0  0  0
   34.6597  -26.2163  -20.2797 C   0  0  0  0  0  0  0  0  0  0  0  0
   33.1794  -26.4743  -20.0981 C   0  0  2  0  0  0  0  0  0  0  0  0
   32.8553  -27.7676  -20.6311 N   0  0  0  0  0  0  0  0  0  0  0  0
   32.4642  -25.4092  -20.8595 C   0  0  0  0  0  0  0  0  0  0  0  0
   32.3178  -24.1221  -20.3886 O   0  0  0  0  0  0  0  0  0  0  0  0
   31.9673  -25.6823  -21.9826 O   0  0  0  0  0  0  0  0  0  0  0  0
  2  1  1  1
  2  3  1  0
  3  4  1  0
  4  8  1  0
  5  4  2  0
  5  6  1  0
  6  7  1  0
  8  7  2  0
  9 13  1  0
  9  2  1  0
 10  9  2  0
 12 13  1  0
 12 11  1  6
 14 12  1  0
 14 18  1  0
 15 14  2  0
 17 18  1  0
 17 16  1  6
 19 17  1  0
 20 19  1  0
 21 19  2  0
M  END
$$$$
