HAA.pdb
     RDKit          3D

 21 21  0  0  1  0  0  0  0  0999 V2000
   17.6952  -16.6149  -16.8773 N   0  0  0  0  0  0  0  0  0  0  0  0
   18.1654  -15.4798  -17.6106 C   0  0  1  0  0  0  0  0  0  0  0  0
   18.0993  -15.7793  -19.1021 C   0  0  0  0  0  0  0  0  0  0  0  0
   19.0831  -16.8580  -19.3827 C   0  0  0  0  0  0  0  0  0  0  0  0
   20.4263  -16.6554  -19.5728 C   0  0  0  0  0  0  0  0  0  0  0  0
   20.9742  -17.8632  -19.7990 N   0  0  0  0  0  0  0  0  0  0  0  0
   19.9873  -18.7703  -19.7468 C   0  0  0  0  0  0  0  0  0  0  0  0
   18.8211  -18.1697  -19.4923 N   0  0  0  0  0  0  0  0  0  0  0  0
   17.4501  -14.2283  -17.2656 C   0  0  0  0  0  0  0  0  0  0  0  0
   16.1953  -14.2258  -17.3557 O   0  0  0  0  0  0  0  0  0  0  0  0
   18.1221  -11.0451  -15.4177 C   0  0  0  0  0  0  0  0  0  0  0  0
   17.3429  -11.8654  -16.4218 C   0  0  2  0  0  0  0  0  0  0  0  0
   18.0779  -13.0407  -16.8437 N   0  0  0  0  0  0  0  0  0  0  0  0
   16.9505  -11.0515  -17.6046 C   0  0  0  0  0  0  0  0  0  0  0  0
   17.6928  -11.0312  -18.6335 O   0  0  0  0  0  0  0  0  0  0  0  0
   13.9401   -8.9982  -18.4812 C   0  0  0  0  0  0  0  0  0  0  0  0
   15.3432   -9.5079  -18.7313 C   0  0  2  0  0  0  0  0  0  0  0  0
   15.7670  -10.2979  -17.6098 N   0  0  0  0  0  0  0  0  0  0  0  0
   16.2148   -8.3056  -18.8735 C   0  0  0  0  0  0  0  0  0  0  0  0
   16.3802   -7.6376  -20.0677 O   0  0  0  0  0  0  0  0  0  0  0  0
   16.8328   -7.8699  -17.8680 O   0  0  0  0  0  0  0  0  0  0  0  0
  2  1  1  1
  2  3  1  0
  3  4  1  0
  4  8  1  0
  5  4  2  0
  5  6  1  0
  6  7  1  0
  8  7  2  0
  9 13  1  0
  9  2  1  0
 10  9  2  0
 12 13  1  0
 12 11  1  1
 14 12  1  0
 14 18  1  0
 15 14  2  0
 17 18  1  0
 17 16  1  1
 19 17  1  0
 20 19  1  0
 21 19  2  0
M  END
$$$$
