HAA.pdb
     RDKit          3D

 21 21  0  0  1  0  0  0  0  0999 V2000
   19.0769  -12.4320  -17.5894 N   0  0  0  0  0  0  0  0  0  0  0  0
   19.0348  -11.0864  -18.0744 C   0  0  1  0  0  0  0  0  0  0  0  0
   17.8198  -10.9120  -18.9754 C   0  0  0  0  0  0  0  0  0  0  0  0
   18.0477  -11.7343  -20.1929 C   0  0  0  0  0  0  0  0  0  0  0  0
   18.4602  -11.2356  -21.4022 C   0  0  0  0  0  0  0  0  0  0  0  0
   18.5505  -12.2811  -22.2443 N   0  0  0  0  0  0  0  0  0  0  0  0
   18.2015  -13.3813  -21.5606 C   0  0  0  0  0  0  0  0  0  0  0  0
   17.8903  -13.0628  -20.3008 N   0  0  0  0  0  0  0  0  0  0  0  0
   19.0686  -10.0766  -16.9899 C   0  0  0  0  0  0  0  0  0  0  0  0
   18.0407   -9.9476  -16.2763 O   0  0  0  0  0  0  0  0  0  0  0  0
   21.5293   -7.9853  -15.0980 C   0  0  0  0  0  0  0  0  0  0  0  0
   20.1512   -8.2351  -15.6694 C   0  0  2  0  0  0  0  0  0  0  0  0
   20.1723   -9.2509  -16.7026 N   0  0  0  0  0  0  0  0  0  0  0  0
   19.5415   -6.9818  -16.1921 C   0  0  0  0  0  0  0  0  0  0  0  0
   19.7495   -6.6297  -17.3933 O   0  0  0  0  0  0  0  0  0  0  0  0
   17.0343   -4.5548  -14.8465 C   0  0  0  0  0  0  0  0  0  0  0  0
   18.0707   -4.9914  -15.8595 C   0  0  2  0  0  0  0  0  0  0  0  0
   18.7338   -6.1714  -15.3802 N   0  0  0  0  0  0  0  0  0  0  0  0
   19.0444   -3.8681  -15.9848 C   0  0  0  0  0  0  0  0  0  0  0  0
   18.7382   -2.6777  -16.6084 O   0  0  0  0  0  0  0  0  0  0  0  0
   20.2001   -3.9978  -15.5050 O   0  0  0  0  0  0  0  0  0  0  0  0
  2  1  1  1
  2  3  1  0
  3  4  1  0
  4  8  1  0
  5  4  2  0
  5  6  1  0
  6  7  1  0
  8  7  2  0
  9 13  1  0
  9  2  1  0
 10  9  2  0
 12 13  1  0
 12 11  1  6
 14 12  1  0
 14 18  1  0
 15 14  2  0
 17 18  1  0
 17 16  1  1
 19 17  1  0
 20 19  1  0
 21 19  2  0
M  END
$$$$
