HAA.pdb
     RDKit          3D

 21 21  0  0  1  0  0  0  0  0999 V2000
   23.5869  -20.0102  -16.3772 N   0  0  0  0  0  0  0  0  0  0  0  0
   22.7147  -19.2511  -15.5343 C   0  0  1  0  0  0  0  0  0  0  0  0
   21.8542  -18.3341  -16.3929 C   0  0  0  0  0  0  0  0  0  0  0  0
   22.7652  -17.3692  -17.0634 C   0  0  0  0  0  0  0  0  0  0  0  0
   23.8947  -16.8406  -16.4924 C   0  0  0  0  0  0  0  0  0  0  0  0
   24.4435  -16.0175  -17.4044 N   0  0  0  0  0  0  0  0  0  0  0  0
   23.6651  -16.0491  -18.4966 C   0  0  0  0  0  0  0  0  0  0  0  0
   22.6315  -16.8736  -18.3034 N   0  0  0  0  0  0  0  0  0  0  0  0
   21.8945  -20.0971  -14.6350 C   0  0  0  0  0  0  0  0  0  0  0  0
   21.4695  -21.1920  -15.0858 O   0  0  0  0  0  0  0  0  0  0  0  0
   20.7889  -20.1292  -11.0099 C   0  0  0  0  0  0  0  0  0  0  0  0
   20.8294  -20.6509  -12.4292 C   0  0  2  0  0  0  0  0  0  0  0  0
   21.5575  -19.7601  -13.3101 N   0  0  0  0  0  0  0  0  0  0  0  0
   19.4605  -20.8947  -12.9605 C   0  0  0  0  0  0  0  0  0  0  0  0
   18.8554  -19.9780  -13.5957 O   0  0  0  0  0  0  0  0  0  0  0  0
   17.1843  -23.8686  -13.0744 C   0  0  0  0  0  0  0  0  0  0  0  0
   17.4812  -22.3928  -13.2317 C   0  0  2  0  0  0  0  0  0  0  0  0
   18.8159  -22.1269  -12.7740 N   0  0  0  0  0  0  0  0  0  0  0  0
   16.4915  -21.6660  -12.3844 C   0  0  0  0  0  0  0  0  0  0  0  0
   15.2472  -21.2896  -12.8423 O   0  0  0  0  0  0  0  0  0  0  0  0
   16.7912  -21.3766  -11.1973 O   0  0  0  0  0  0  0  0  0  0  0  0
  2  1  1  6
  2  3  1  0
  3  4  1  0
  4  8  1  0
  5  4  2  0
  5  6  1  0
  6  7  1  0
  8  7  2  0
  9 13  1  0
  9  2  1  0
 10  9  2  0
 12 13  1  0
 12 11  1  1
 14 12  1  0
 14 18  1  0
 15 14  2  0
 17 18  1  0
 17 16  1  1
 19 17  1  0
 20 19  1  0
 21 19  2  0
M  END
$$$$
