AKD.pdb
     RDKit          3D

 23 22  0  0  1  0  0  0  0  0999 V2000
    8.4461  -18.1890   19.6382 C   0  0  0  0  0  0  0  0  0  0  0  0
    8.3387  -16.6835   19.4911 C   0  0  2  0  0  0  0  0  0  0  0  0
    9.2358  -16.2676   18.4332 N   0  0  0  0  0  0  0  0  0  0  0  0
    8.7988  -16.0970   20.7897 C   0  0  0  0  0  0  0  0  0  0  0  0
   10.0047  -16.0604   21.1151 O   0  0  0  0  0  0  0  0  0  0  0  0
    7.8495  -15.5540   21.7062 N   0  0  0  0  0  0  0  0  0  0  0  0
    8.2739  -14.9570   22.9427 C   0  0  1  0  0  0  0  0  0  0  0  0
    7.0964  -14.2825   23.6433 C   0  0  0  0  0  0  0  0  0  0  0  0
    7.5602  -13.5090   24.8533 C   0  0  0  0  0  0  0  0  0  0  0  0
    6.4556  -12.8241   25.5766 C   0  0  0  0  0  0  0  0  0  0  0  0
    6.9161  -12.0057   26.7547 C   0  0  0  0  0  0  0  0  0  0  0  0
    5.8025  -11.3693   27.4209 N   0  0  0  0  0  0  0  0  0  0  0  0
    8.8791  -15.9919   23.8562 C   0  0  0  0  0  0  0  0  0  0  0  0
    8.3109  -17.0610   24.1174 O   0  0  0  0  0  0  0  0  0  0  0  0
   10.1319  -15.7215   24.4242 N   0  0  0  0  0  0  0  0  0  0  0  0
   10.8631  -16.7316   25.2462 C   0  0  1  0  0  0  0  0  0  0  0  0
   12.3180  -16.3710   25.2461 C   0  0  0  0  0  0  0  0  0  0  0  0
   13.0351  -16.5087   23.9966 C   0  0  0  0  0  0  0  0  0  0  0  0
   12.6186  -17.1135   23.0109 O   0  0  0  0  0  0  0  0  0  0  0  0
   10.3097  -16.6933   26.6239 C   0  0  0  0  0  0  0  0  0  0  0  0
   10.6572  -17.6088   27.4482 O   0  0  0  0  0  0  0  0  0  0  0  0
   14.3050  -15.8936   23.9308 O   0  0  0  0  0  0  0  0  0  0  0  0
    9.4488  -15.7217   27.0423 O   0  0  0  0  0  0  0  0  0  0  0  0
  2  1  1  1
  2  4  1  0
  3  2  1  0
  4  6  1  0
  5  4  2  0
  6  7  1  0
  7  8  1  1
  7 13  1  0
  8  9  1  0
  9 10  1  0
 10 11  1  0
 11 12  1  0
 13 14  2  0
 15 13  1  0
 15 16  1  0
 16 17  1  1
 18 17  1  0
 19 18  2  0
 20 16  1  0
 20 23  1  0
 21 20  2  0
 22 18  1  0
M  END
$$$$
