AKD.pdb
     RDKit          3D

 23 22  0  0  1  0  0  0  0  0999 V2000
   12.1130  -17.7390   17.9470 C   0  0  0  0  0  0  0  0  0  0  0  0
   11.4369  -18.4064   19.1289 C   0  0  2  0  0  0  0  0  0  0  0  0
   10.1306  -18.8639   18.7033 N   0  0  0  0  0  0  0  0  0  0  0  0
   11.2742  -17.3491   20.1766 C   0  0  0  0  0  0  0  0  0  0  0  0
   12.2487  -16.7386   20.6653 O   0  0  0  0  0  0  0  0  0  0  0  0
    9.9731  -17.0067   20.6519 N   0  0  0  0  0  0  0  0  0  0  0  0
    9.8020  -16.0619   21.7214 C   0  0  1  0  0  0  0  0  0  0  0  0
    8.5719  -15.1911   21.4745 C   0  0  0  0  0  0  0  0  0  0  0  0
    8.7144  -14.4082   20.1921 C   0  0  0  0  0  0  0  0  0  0  0  0
    7.4810  -13.6700   19.8096 C   0  0  0  0  0  0  0  0  0  0  0  0
    7.5752  -12.9800   18.4737 C   0  0  0  0  0  0  0  0  0  0  0  0
    6.3576  -12.2659   18.1632 N   0  0  0  0  0  0  0  0  0  0  0  0
    9.6610  -16.7711   23.0438 C   0  0  0  0  0  0  0  0  0  0  0  0
    8.7311  -17.5538   23.2820 O   0  0  0  0  0  0  0  0  0  0  0  0
   10.6250  -16.5266   24.0318 N   0  0  0  0  0  0  0  0  0  0  0  0
   10.9857  -17.5513   25.0567 C   0  0  1  0  0  0  0  0  0  0  0  0
   11.9950  -18.4814   24.4541 C   0  0  0  0  0  0  0  0  0  0  0  0
   12.5317  -19.5202   25.3070 C   0  0  0  0  0  0  0  0  0  0  0  0
   13.6672  -19.5254   25.7775 O   0  0  0  0  0  0  0  0  0  0  0  0
   11.5540  -16.8464   26.2339 C   0  0  0  0  0  0  0  0  0  0  0  0
   11.3397  -17.3309   27.3992 O   0  0  0  0  0  0  0  0  0  0  0  0
   11.6667  -20.5962   25.6056 O   0  0  0  0  0  0  0  0  0  0  0  0
   12.2942  -15.7064   26.1200 O   0  0  0  0  0  0  0  0  0  0  0  0
  2  1  1  6
  2  4  1  0
  3  2  1  0
  4  6  1  0
  5  4  2  0
  6  7  1  0
  7  8  1  6
  7 13  1  0
  8  9  1  0
  9 10  1  0
 10 11  1  0
 11 12  1  0
 13 14  2  0
 15 13  1  0
 15 16  1  0
 16 17  1  6
 18 17  1  0
 19 18  2  0
 20 16  1  0
 20 23  1  0
 21 20  2  0
 22 18  1  0
M  END
$$$$
