AKD.pdb
     RDKit          3D

 23 22  0  0  1  0  0  0  0  0999 V2000
    9.0891  -17.8309   19.9962 C   0  0  0  0  0  0  0  0  0  0  0  0
    8.3291  -16.5232   20.1061 C   0  0  2  0  0  0  0  0  0  0  0  0
    8.7135  -15.6821   18.9918 N   0  0  0  0  0  0  0  0  0  0  0  0
    8.7707  -15.8827   21.3854 C   0  0  0  0  0  0  0  0  0  0  0  0
    9.9766  -15.7628   21.6900 O   0  0  0  0  0  0  0  0  0  0  0  0
    7.8028  -15.3831   22.3072 N   0  0  0  0  0  0  0  0  0  0  0  0
    8.2072  -14.7323   23.5231 C   0  0  1  0  0  0  0  0  0  0  0  0
    7.0340  -13.9735   24.1397 C   0  0  0  0  0  0  0  0  0  0  0  0
    7.4673  -13.2224   25.3749 C   0  0  0  0  0  0  0  0  0  0  0  0
    6.3820  -12.4064   25.9821 C   0  0  0  0  0  0  0  0  0  0  0  0
    6.7890  -11.6997   27.2488 C   0  0  0  0  0  0  0  0  0  0  0  0
    5.7206  -10.8677   27.7540 N   0  0  0  0  0  0  0  0  0  0  0  0
    8.7373  -15.7351   24.5156 C   0  0  0  0  0  0  0  0  0  0  0  0
    8.0594  -16.6882   24.9233 O   0  0  0  0  0  0  0  0  0  0  0  0
   10.0474  -15.5710   24.9865 N   0  0  0  0  0  0  0  0  0  0  0  0
   10.6758  -16.5406   25.9329 C   0  0  1  0  0  0  0  0  0  0  0  0
   12.1576  -16.3149   25.9193 C   0  0  0  0  0  0  0  0  0  0  0  0
   12.8894  -16.7851   24.7626 C   0  0  0  0  0  0  0  0  0  0  0  0
   12.4533  -17.5777   23.9305 O   0  0  0  0  0  0  0  0  0  0  0  0
   10.1163  -16.2930   27.2862 C   0  0  0  0  0  0  0  0  0  0  0  0
   10.3606  -17.1409   28.2135 O   0  0  0  0  0  0  0  0  0  0  0  0
   14.1989  -16.2810   24.6010 O   0  0  0  0  0  0  0  0  0  0  0  0
    9.3554  -15.1990   27.5770 O   0  0  0  0  0  0  0  0  0  0  0  0
  2  1  1  6
  2  4  1  0
  3  2  1  0
  4  6  1  0
  5  4  2  0
  6  7  1  0
  7  8  1  1
  7 13  1  0
  8  9  1  0
  9 10  1  0
 10 11  1  0
 11 12  1  0
 13 14  2  0
 15 13  1  0
 15 16  1  0
 16 17  1  1
 18 17  1  0
 19 18  2  0
 20 16  1  0
 20 23  1  0
 21 20  2  0
 22 18  1  0
M  END
$$$$
