AKD.pdb
     RDKit          3D

 23 22  0  0  1  0  0  0  0  0999 V2000
    7.8257  -15.2401   18.3638 C   0  0  0  0  0  0  0  0  0  0  0  0
    7.6262  -13.8247   18.8702 C   0  0  2  0  0  0  0  0  0  0  0  0
    8.3692  -12.9279   18.0096 N   0  0  0  0  0  0  0  0  0  0  0  0
    8.2075  -13.7822   20.2494 C   0  0  0  0  0  0  0  0  0  0  0  0
    9.4396  -13.7416   20.4532 O   0  0  0  0  0  0  0  0  0  0  0  0
    7.3484  -13.7872   21.3887 N   0  0  0  0  0  0  0  0  0  0  0  0
    7.8850  -13.7032   22.7193 C   0  0  1  0  0  0  0  0  0  0  0  0
    6.8394  -13.1478   23.6840 C   0  0  0  0  0  0  0  0  0  0  0  0
    7.4309  -12.9353   25.0561 C   0  0  0  0  0  0  0  0  0  0  0  0
    6.4566  -12.3984   26.0435 C   0  0  0  0  0  0  0  0  0  0  0  0
    7.0445  -12.1614   27.4102 C   0  0  0  0  0  0  0  0  0  0  0  0
    6.0415  -11.6962   28.3411 N   0  0  0  0  0  0  0  0  0  0  0  0
    8.3440  -15.0570   23.1973 C   0  0  0  0  0  0  0  0  0  0  0  0
    7.6429  -16.0723   23.0891 O   0  0  0  0  0  0  0  0  0  0  0  0
    9.6133  -15.1562   23.7839 N   0  0  0  0  0  0  0  0  0  0  0  0
   10.1929  -16.4684   24.1997 C   0  0  1  0  0  0  0  0  0  0  0  0
   11.6609  -16.4487   23.8975 C   0  0  0  0  0  0  0  0  0  0  0  0
   12.4311  -17.6148   24.2740 C   0  0  0  0  0  0  0  0  0  0  0  0
   11.9617  -18.6346   24.7744 O   0  0  0  0  0  0  0  0  0  0  0  0
    9.9559  -16.6369   25.6561 C   0  0  0  0  0  0  0  0  0  0  0  0
    9.6900  -15.5990   26.3566 O   0  0  0  0  0  0  0  0  0  0  0  0
   13.8224  -17.5507   24.0387 O   0  0  0  0  0  0  0  0  0  0  0  0
   10.0098  -17.8523   26.2727 O   0  0  0  0  0  0  0  0  0  0  0  0
  2  1  1  6
  2  4  1  0
  3  2  1  0
  4  6  1  0
  5  4  2  0
  6  7  1  0
  7  8  1  1
  7 13  1  0
  8  9  1  0
  9 10  1  0
 10 11  1  0
 11 12  1  0
 13 14  2  0
 15 13  1  0
 15 16  1  0
 16 17  1  1
 18 17  1  0
 19 18  2  0
 20 16  1  0
 20 23  1  0
 21 20  2  0
 22 18  1  0
M  END
$$$$
