AKD.pdb
     RDKit          3D

 23 22  0  0  1  0  0  0  0  0999 V2000
    8.3341  -28.3922   20.0884 C   0  0  0  0  0  0  0  0  0  0  0  0
    8.4390  -27.6201   18.7874 C   0  0  2  0  0  0  0  0  0  0  0  0
    8.6674  -28.5678   17.7166 N   0  0  0  0  0  0  0  0  0  0  0  0
    9.6328  -26.7261   18.9204 C   0  0  0  0  0  0  0  0  0  0  0  0
   10.7905  -27.1155   18.6571 O   0  0  0  0  0  0  0  0  0  0  0  0
    9.4722  -25.3783   19.3607 N   0  0  0  0  0  0  0  0  0  0  0  0
   10.5850  -24.4690   19.3779 C   0  0  1  0  0  0  0  0  0  0  0  0
   10.1264  -23.0553   19.0263 C   0  0  0  0  0  0  0  0  0  0  0  0
    9.9500  -22.9010   17.5354 C   0  0  0  0  0  0  0  0  0  0  0  0
    9.3672  -21.5905   17.1413 C   0  0  0  0  0  0  0  0  0  0  0  0
    9.1759  -21.4327   15.6553 C   0  0  0  0  0  0  0  0  0  0  0  0
    8.5012  -20.1939   15.3402 N   0  0  0  0  0  0  0  0  0  0  0  0
   11.2492  -24.4622   20.7309 C   0  0  0  0  0  0  0  0  0  0  0  0
   10.6278  -24.6940   21.7770 O   0  0  0  0  0  0  0  0  0  0  0  0
   12.6213  -24.1819   20.7930 N   0  0  0  0  0  0  0  0  0  0  0  0
   13.3505  -24.0802   22.0924 C   0  0  1  0  0  0  0  0  0  0  0  0
   14.6280  -23.3328   21.8552 C   0  0  0  0  0  0  0  0  0  0  0  0
   15.8478  -24.1087   21.7897 C   0  0  0  0  0  0  0  0  0  0  0  0
   15.8999  -25.3187   21.5797 O   0  0  0  0  0  0  0  0  0  0  0  0
   12.4829  -23.3516   23.0526 C   0  0  0  0  0  0  0  0  0  0  0  0
   12.2498  -22.1101   22.8460 O   0  0  0  0  0  0  0  0  0  0  0  0
   17.0538  -23.3997   21.9847 O   0  0  0  0  0  0  0  0  0  0  0  0
   11.9264  -23.9544   24.1423 O   0  0  0  0  0  0  0  0  0  0  0  0
  2  1  1  1
  2  4  1  0
  3  2  1  0
  4  6  1  0
  5  4  2  0
  6  7  1  0
  7  8  1  1
  7 13  1  0
  8  9  1  0
  9 10  1  0
 10 11  1  0
 11 12  1  0
 13 14  2  0
 15 13  1  0
 15 16  1  0
 16 17  1  6
 18 17  1  0
 19 18  2  0
 20 16  1  0
 20 23  1  0
 21 20  2  0
 22 18  1  0
M  END
$$$$
