AKD.pdb
     RDKit          3D

 23 22  0  0  1  0  0  0  0  0999 V2000
    8.4596  -14.6930   18.2910 C   0  0  0  0  0  0  0  0  0  0  0  0
    7.6090  -13.9154   19.2766 C   0  0  2  0  0  0  0  0  0  0  0  0
    7.6819  -12.5119   18.9276 N   0  0  0  0  0  0  0  0  0  0  0  0
    8.2261  -14.1230   20.6250 C   0  0  0  0  0  0  0  0  0  0  0  0
    9.1748  -13.4233   21.0393 O   0  0  0  0  0  0  0  0  0  0  0  0
    7.7339  -15.1478   21.4873 N   0  0  0  0  0  0  0  0  0  0  0  0
    8.4248  -15.4873   22.7010 C   0  0  1  0  0  0  0  0  0  0  0  0
    7.5274  -16.3222   23.6120 C   0  0  0  0  0  0  0  0  0  0  0  0
    8.2646  -16.7366   24.8620 C   0  0  0  0  0  0  0  0  0  0  0  0
    7.4538  -17.5899   25.7714 C   0  0  0  0  0  0  0  0  0  0  0  0
    8.1788  -18.0003   27.0267 C   0  0  0  0  0  0  0  0  0  0  0  0
    7.4048  -18.9486   27.7952 N   0  0  0  0  0  0  0  0  0  0  0  0
    9.6892  -16.2508   22.4008 C   0  0  0  0  0  0  0  0  0  0  0  0
    9.7330  -17.1589   21.5596 O   0  0  0  0  0  0  0  0  0  0  0  0
   10.8513  -15.9102   23.1071 N   0  0  0  0  0  0  0  0  0  0  0  0
   12.1229  -16.6789   22.9569 C   0  0  1  0  0  0  0  0  0  0  0  0
   13.2345  -15.7028   22.7152 C   0  0  0  0  0  0  0  0  0  0  0  0
   14.2982  -16.1161   21.8251 C   0  0  0  0  0  0  0  0  0  0  0  0
   14.3572  -17.2063   21.2603 O   0  0  0  0  0  0  0  0  0  0  0  0
   12.3525  -17.4407   24.2109 C   0  0  0  0  0  0  0  0  0  0  0  0
   11.7416  -17.0694   25.2727 O   0  0  0  0  0  0  0  0  0  0  0  0
   15.3326  -15.1796   21.6061 O   0  0  0  0  0  0  0  0  0  0  0  0
   13.1865  -18.5182   24.2729 O   0  0  0  0  0  0  0  0  0  0  0  0
  2  1  1  6
  2  4  1  0
  3  2  1  0
  4  6  1  0
  5  4  2  0
  6  7  1  0
  7  8  1  1
  7 13  1  0
  8  9  1  0
  9 10  1  0
 10 11  1  0
 11 12  1  0
 13 14  2  0
 15 13  1  0
 15 16  1  0
 16 17  1  1
 18 17  1  0
 19 18  2  0
 20 16  1  0
 20 23  1  0
 21 20  2  0
 22 18  1  0
M  END
$$$$
