AKD.pdb
     RDKit          3D

 23 22  0  0  1  0  0  0  0  0999 V2000
    9.1167  -20.9495   18.9860 C   0  0  0  0  0  0  0  0  0  0  0  0
    8.5101  -19.6340   18.5376 C   0  0  2  0  0  0  0  0  0  0  0  0
    8.7107  -19.5075   17.1090 N   0  0  0  0  0  0  0  0  0  0  0  0
    9.2715  -18.5542   19.2420 C   0  0  0  0  0  0  0  0  0  0  0  0
   10.5202  -18.5070   19.2380 O   0  0  0  0  0  0  0  0  0  0  0  0
    8.5731  -17.5312   19.9503 N   0  0  0  0  0  0  0  0  0  0  0  0
    9.2861  -16.4935   20.6434 C   0  0  1  0  0  0  0  0  0  0  0  0
    8.3850  -15.2804   20.8640 C   0  0  0  0  0  0  0  0  0  0  0  0
    8.1032  -14.5741   19.5604 C   0  0  0  0  0  0  0  0  0  0  0  0
    7.1578  -13.4341   19.6977 C   0  0  0  0  0  0  0  0  0  0  0  0
    6.8424  -12.7458   18.3952 C   0  0  0  0  0  0  0  0  0  0  0  0
    5.8236  -11.7352   18.5672 N   0  0  0  0  0  0  0  0  0  0  0  0
    9.7969  -16.9909   21.9714 C   0  0  0  0  0  0  0  0  0  0  0  0
    9.1862  -17.8319   22.6451 O   0  0  0  0  0  0  0  0  0  0  0  0
   11.0092  -16.4743   22.4495 N   0  0  0  0  0  0  0  0  0  0  0  0
   11.6367  -16.9673   23.7120 C   0  0  1  0  0  0  0  0  0  0  0  0
   13.0016  -16.3581   23.8254 C   0  0  0  0  0  0  0  0  0  0  0  0
   13.9466  -16.6469   22.7680 C   0  0  0  0  0  0  0  0  0  0  0  0
   13.9464  -17.6696   22.0862 O   0  0  0  0  0  0  0  0  0  0  0  0
   10.7763  -16.5503   24.8484 C   0  0  0  0  0  0  0  0  0  0  0  0
    9.8843  -15.6553   24.6440 O   0  0  0  0  0  0  0  0  0  0  0  0
   14.9317  -15.6651   22.5214 O   0  0  0  0  0  0  0  0  0  0  0  0
   10.9002  -17.0844   26.0973 O   0  0  0  0  0  0  0  0  0  0  0  0
  2  1  1  1
  2  4  1  0
  3  2  1  0
  4  6  1  0
  5  4  2  0
  6  7  1  0
  7  8  1  1
  7 13  1  0
  8  9  1  0
  9 10  1  0
 10 11  1  0
 11 12  1  0
 13 14  2  0
 15 13  1  0
 15 16  1  0
 16 17  1  1
 18 17  1  0
 19 18  2  0
 20 16  1  0
 20 23  1  0
 21 20  2  0
 22 18  1  0
M  END
$$$$
