AKD.pdb
     RDKit          3D

 23 22  0  0  1  0  0  0  0  0999 V2000
    8.1166  -15.4189   18.7201 C   0  0  0  0  0  0  0  0  0  0  0  0
    7.7850  -14.0312   19.2339 C   0  0  2  0  0  0  0  0  0  0  0  0
    8.4713  -13.0651   18.4017 N   0  0  0  0  0  0  0  0  0  0  0  0
    8.3247  -13.9555   20.6285 C   0  0  0  0  0  0  0  0  0  0  0  0
    9.5203  -13.6816   20.8672 O   0  0  0  0  0  0  0  0  0  0  0  0
    7.4669  -14.1999   21.7423 N   0  0  0  0  0  0  0  0  0  0  0  0
    7.9283  -13.9989   23.0885 C   0  0  1  0  0  0  0  0  0  0  0  0
    6.8236  -13.3869   23.9471 C   0  0  0  0  0  0  0  0  0  0  0  0
    7.3023  -13.1603   25.3603 C   0  0  0  0  0  0  0  0  0  0  0  0
    6.2710  -12.5538   26.2441 C   0  0  0  0  0  0  0  0  0  0  0  0
    6.7202  -12.3793   27.6715 C   0  0  0  0  0  0  0  0  0  0  0  0
    5.6636  -11.8334   28.4928 N   0  0  0  0  0  0  0  0  0  0  0  0
    8.3793  -15.3010   23.6992 C   0  0  0  0  0  0  0  0  0  0  0  0
    7.6801  -16.3231   23.6756 O   0  0  0  0  0  0  0  0  0  0  0  0
    9.6388  -15.3427   24.3133 N   0  0  0  0  0  0  0  0  0  0  0  0
   10.1665  -16.5843   24.9540 C   0  0  1  0  0  0  0  0  0  0  0  0
   11.6560  -16.6007   24.7870 C   0  0  0  0  0  0  0  0  0  0  0  0
   12.1712  -16.8058   23.4501 C   0  0  0  0  0  0  0  0  0  0  0  0
   11.6255  -17.4863   22.5841 O   0  0  0  0  0  0  0  0  0  0  0  0
    9.7967  -16.5545   26.3921 C   0  0  0  0  0  0  0  0  0  0  0  0
   10.0622  -17.5782   27.1132 O   0  0  0  0  0  0  0  0  0  0  0  0
   13.3925  -16.1659   23.1432 O   0  0  0  0  0  0  0  0  0  0  0  0
    9.1877  -15.4802   26.9712 O   0  0  0  0  0  0  0  0  0  0  0  0
  2  1  1  6
  2  4  1  0
  3  2  1  0
  4  6  1  0
  5  4  2  0
  6  7  1  0
  7  8  1  1
  7 13  1  0
  8  9  1  0
  9 10  1  0
 10 11  1  0
 11 12  1  0
 13 14  2  0
 15 13  1  0
 15 16  1  0
 16 17  1  1
 18 17  1  0
 19 18  2  0
 20 16  1  0
 20 23  1  0
 21 20  2  0
 22 18  1  0
M  END
$$$$
