AKD.pdb
     RDKit          3D

 23 22  0  0  1  0  0  0  0  0999 V2000
    7.7932  -15.3382   18.0429 C   0  0  0  0  0  0  0  0  0  0  0  0
    7.3971  -14.0520   18.7417 C   0  0  2  0  0  0  0  0  0  0  0  0
    7.8774  -12.9400   17.9481 N   0  0  0  0  0  0  0  0  0  0  0  0
    8.0980  -14.0554   20.0648 C   0  0  0  0  0  0  0  0  0  0  0  0
    9.3284  -13.8635   20.1684 O   0  0  0  0  0  0  0  0  0  0  0  0
    7.3605  -14.2830   21.2650 N   0  0  0  0  0  0  0  0  0  0  0  0
    7.9811  -14.1356   22.5529 C   0  0  1  0  0  0  0  0  0  0  0  0
    6.9537  -13.6994   23.5952 C   0  0  0  0  0  0  0  0  0  0  0  0
    7.6001  -13.5205   24.9472 C   0  0  0  0  0  0  0  0  0  0  0  0
    6.6493  -13.0827   26.0040 C   0  0  0  0  0  0  0  0  0  0  0  0
    7.3111  -12.7430   27.3141 C   0  0  0  0  0  0  0  0  0  0  0  0
    6.3372  -12.3688   28.3143 N   0  0  0  0  0  0  0  0  0  0  0  0
    8.6240  -15.4276   22.9877 C   0  0  0  0  0  0  0  0  0  0  0  0
    8.1156  -16.5332   22.7565 O   0  0  0  0  0  0  0  0  0  0  0  0
    9.8421  -15.3609   23.6784 N   0  0  0  0  0  0  0  0  0  0  0  0
   10.4909  -16.5748   24.2581 C   0  0  1  0  0  0  0  0  0  0  0  0
   11.9768  -16.3898   24.1890 C   0  0  0  0  0  0  0  0  0  0  0  0
   12.5875  -16.4135   22.8771 C   0  0  0  0  0  0  0  0  0  0  0  0
   12.1621  -17.0507   21.9160 O   0  0  0  0  0  0  0  0  0  0  0  0
   10.0407  -16.7104   25.6669 C   0  0  0  0  0  0  0  0  0  0  0  0
    9.3369  -15.7710   26.1772 O   0  0  0  0  0  0  0  0  0  0  0  0
   13.7577  -15.6390   22.7156 O   0  0  0  0  0  0  0  0  0  0  0  0
   10.3475  -17.7956   26.4342 O   0  0  0  0  0  0  0  0  0  0  0  0
  2  1  1  6
  2  4  1  0
  3  2  1  0
  4  6  1  0
  5  4  2  0
  6  7  1  0
  7  8  1  1
  7 13  1  0
  8  9  1  0
  9 10  1  0
 10 11  1  0
 11 12  1  0
 13 14  2  0
 15 13  1  0
 15 16  1  0
 16 17  1  1
 18 17  1  0
 19 18  2  0
 20 16  1  0
 20 23  1  0
 21 20  2  0
 22 18  1  0
M  END
$$$$
