AKD.pdb
     RDKit          3D

 23 22  0  0  1  0  0  0  0  0999 V2000
    9.4081  -12.9286   18.9066 C   0  0  0  0  0  0  0  0  0  0  0  0
    8.0491  -13.5791   19.0786 C   0  0  2  0  0  0  0  0  0  0  0  0
    7.0499  -12.5322   19.1276 N   0  0  0  0  0  0  0  0  0  0  0  0
    8.0842  -14.2921   20.3948 C   0  0  0  0  0  0  0  0  0  0  0  0
    8.2324  -13.6866   21.4778 O   0  0  0  0  0  0  0  0  0  0  0  0
    7.9460  -15.7114   20.4439 N   0  0  0  0  0  0  0  0  0  0  0  0
    8.0220  -16.4185   21.6928 C   0  0  1  0  0  0  0  0  0  0  0  0
    7.1090  -17.6425   21.6713 C   0  0  0  0  0  0  0  0  0  0  0  0
    7.2166  -18.4181   22.9615 C   0  0  0  0  0  0  0  0  0  0  0  0
    6.3228  -19.6059   23.0139 C   0  0  0  0  0  0  0  0  0  0  0  0
    6.4362  -20.3959   24.2917 C   0  0  0  0  0  0  0  0  0  0  0  0
    5.5222  -21.5155   24.3011 N   0  0  0  0  0  0  0  0  0  0  0  0
    9.4378  -16.8500   21.9777 C   0  0  0  0  0  0  0  0  0  0  0  0
   10.2202  -17.1947   21.0815 O   0  0  0  0  0  0  0  0  0  0  0  0
    9.8720  -16.8566   23.3106 N   0  0  0  0  0  0  0  0  0  0  0  0
   11.2683  -17.2301   23.6865 C   0  0  1  0  0  0  0  0  0  0  0  0
   12.1639  -16.0695   23.3740 C   0  0  0  0  0  0  0  0  0  0  0  0
   13.4943  -16.3700   22.8900 C   0  0  0  0  0  0  0  0  0  0  0  0
   13.9687  -17.5000   22.7961 O   0  0  0  0  0  0  0  0  0  0  0  0
   11.2888  -17.5366   25.1395 C   0  0  0  0  0  0  0  0  0  0  0  0
   10.5736  -16.8228   25.9253 O   0  0  0  0  0  0  0  0  0  0  0  0
   14.2857  -15.2657   22.5033 O   0  0  0  0  0  0  0  0  0  0  0  0
   12.0381  -18.5475   25.6660 O   0  0  0  0  0  0  0  0  0  0  0  0
  2  1  1  1
  2  4  1  0
  3  2  1  0
  4  6  1  0
  5  4  2  0
  6  7  1  0
  7  8  1  6
  7 13  1  0
  8  9  1  0
  9 10  1  0
 10 11  1  0
 11 12  1  0
 13 14  2  0
 15 13  1  0
 15 16  1  0
 16 17  1  1
 18 17  1  0
 19 18  2  0
 20 16  1  0
 20 23  1  0
 21 20  2  0
 22 18  1  0
M  END
$$$$
