AKD.pdb
     RDKit          3D

 23 22  0  0  1  0  0  0  0  0999 V2000
    7.8711  -15.4871   18.7959 C   0  0  0  0  0  0  0  0  0  0  0  0
    7.6107  -14.0581   19.2315 C   0  0  2  0  0  0  0  0  0  0  0  0
    8.3400  -13.1754   18.3450 N   0  0  0  0  0  0  0  0  0  0  0  0
    8.1601  -13.9312   20.6186 C   0  0  0  0  0  0  0  0  0  0  0  0
    9.3841  -13.8189   20.8437 O   0  0  0  0  0  0  0  0  0  0  0  0
    7.2788  -13.9356   21.7408 N   0  0  0  0  0  0  0  0  0  0  0  0
    7.7884  -13.8385   23.0811 C   0  0  1  0  0  0  0  0  0  0  0  0
    6.7288  -13.2590   24.0159 C   0  0  0  0  0  0  0  0  0  0  0  0
    7.2738  -13.0969   25.4138 C   0  0  0  0  0  0  0  0  0  0  0  0
    6.3010  -12.4898   26.3612 C   0  0  0  0  0  0  0  0  0  0  0  0
    6.8270  -12.3501   27.7660 C   0  0  0  0  0  0  0  0  0  0  0  0
    5.8326  -11.7793   28.6460 N   0  0  0  0  0  0  0  0  0  0  0  0
    8.2232  -15.1900   23.5872 C   0  0  0  0  0  0  0  0  0  0  0  0
    7.5342  -16.2083   23.4376 O   0  0  0  0  0  0  0  0  0  0  0  0
    9.4551  -15.2835   24.2497 N   0  0  0  0  0  0  0  0  0  0  0  0
    9.9880  -16.5859   24.7499 C   0  0  1  0  0  0  0  0  0  0  0  0
   11.4485  -16.6524   24.4189 C   0  0  0  0  0  0  0  0  0  0  0  0
   11.8133  -17.2266   23.1415 C   0  0  0  0  0  0  0  0  0  0  0  0
   11.1474  -17.1310   22.1128 O   0  0  0  0  0  0  0  0  0  0  0  0
    9.7768  -16.6374   26.2190 C   0  0  0  0  0  0  0  0  0  0  0  0
    9.5429  -15.5439   26.8420 O   0  0  0  0  0  0  0  0  0  0  0  0
   13.0289  -17.9449   23.1006 O   0  0  0  0  0  0  0  0  0  0  0  0
    9.8215  -17.8026   26.9266 O   0  0  0  0  0  0  0  0  0  0  0  0
  2  1  1  6
  2  4  1  0
  3  2  1  0
  4  6  1  0
  5  4  2  0
  6  7  1  0
  7  8  1  1
  7 13  1  0
  8  9  1  0
  9 10  1  0
 10 11  1  0
 11 12  1  0
 13 14  2  0
 15 13  1  0
 15 16  1  0
 16 17  1  1
 18 17  1  0
 19 18  2  0
 20 16  1  0
 20 23  1  0
 21 20  2  0
 22 18  1  0
M  END
$$$$
