AKD.pdb
     RDKit          3D

 23 22  0  0  1  0  0  0  0  0999 V2000
    9.6925  -17.2982   17.3339 C   0  0  0  0  0  0  0  0  0  0  0  0
   10.6702  -18.2066   18.0539 C   0  0  2  0  0  0  0  0  0  0  0  0
    9.9582  -19.3963   18.4718 N   0  0  0  0  0  0  0  0  0  0  0  0
   11.1335  -17.4562   19.2640 C   0  0  0  0  0  0  0  0  0  0  0  0
   11.9249  -16.4922   19.1887 O   0  0  0  0  0  0  0  0  0  0  0  0
   10.6715  -17.8331   20.5604 N   0  0  0  0  0  0  0  0  0  0  0  0
   11.0669  -17.0960   21.7291 C   0  0  1  0  0  0  0  0  0  0  0  0
   10.1494  -17.4246   22.9049 C   0  0  0  0  0  0  0  0  0  0  0  0
   10.5774  -16.6814   24.1467 C   0  0  0  0  0  0  0  0  0  0  0  0
    9.7923  -17.0482   25.3556 C   0  0  0  0  0  0  0  0  0  0  0  0
   10.1398  -16.2355   26.5757 C   0  0  0  0  0  0  0  0  0  0  0  0
    9.4316  -16.7096   27.7430 N   0  0  0  0  0  0  0  0  0  0  0  0
   12.4941  -17.4074   22.1002 C   0  0  0  0  0  0  0  0  0  0  0  0
   12.9398  -18.5630   22.1140 O   0  0  0  0  0  0  0  0  0  0  0  0
   13.3373  -16.3404   22.4402 N   0  0  0  0  0  0  0  0  0  0  0  0
   14.7838  -16.5427   22.7520 C   0  0  1  0  0  0  0  0  0  0  0  0
   15.5737  -15.5173   21.9960 C   0  0  0  0  0  0  0  0  0  0  0  0
   16.7404  -15.9786   21.2746 C   0  0  0  0  0  0  0  0  0  0  0  0
   17.1643  -17.1323   21.2892 O   0  0  0  0  0  0  0  0  0  0  0  0
   14.9679  -16.3768   24.2163 C   0  0  0  0  0  0  0  0  0  0  0  0
   16.1191  -16.6214   24.7196 O   0  0  0  0  0  0  0  0  0  0  0  0
   17.4248  -15.0122   20.5045 O   0  0  0  0  0  0  0  0  0  0  0  0
   13.9597  -15.9738   25.0418 O   0  0  0  0  0  0  0  0  0  0  0  0
  2  1  1  1
  2  4  1  0
  3  2  1  0
  4  6  1  0
  5  4  2  0
  6  7  1  0
  7  8  1  1
  7 13  1  0
  8  9  1  0
  9 10  1  0
 10 11  1  0
 11 12  1  0
 13 14  2  0
 15 13  1  0
 15 16  1  0
 16 17  1  6
 18 17  1  0
 19 18  2  0
 20 16  1  0
 20 23  1  0
 21 20  2  0
 22 18  1  0
M  END
$$$$
