AKD.pdb
     RDKit          3D

 23 22  0  0  1  0  0  0  0  0999 V2000
    9.6312  -22.2084   18.1581 C   0  0  0  0  0  0  0  0  0  0  0  0
    8.1916  -21.9626   18.5662 C   0  0  2  0  0  0  0  0  0  0  0  0
    7.6361  -20.9593   17.6821 N   0  0  0  0  0  0  0  0  0  0  0  0
    8.2331  -21.4238   19.9626 C   0  0  0  0  0  0  0  0  0  0  0  0
    9.0166  -20.5118   20.3028 O   0  0  0  0  0  0  0  0  0  0  0  0
    7.3592  -21.9512   20.9597 N   0  0  0  0  0  0  0  0  0  0  0  0
    7.3553  -21.4197   22.2950 C   0  0  1  0  0  0  0  0  0  0  0  0
    6.0614  -21.7926   23.0156 C   0  0  0  0  0  0  0  0  0  0  0  0
    4.8930  -21.7918   22.0604 C   0  0  0  0  0  0  0  0  0  0  0  0
    3.6160  -22.2259   22.6876 C   0  0  0  0  0  0  0  0  0  0  0  0
    2.4349  -22.1842   21.7532 C   0  0  0  0  0  0  0  0  0  0  0  0
    1.2652  -22.7812   22.3567 N   0  0  0  0  0  0  0  0  0  0  0  0
    8.5356  -21.9340   23.0787 C   0  0  0  0  0  0  0  0  0  0  0  0
    8.8889  -23.1206   23.0453 O   0  0  0  0  0  0  0  0  0  0  0  0
    9.2510  -21.0248   23.8703 N   0  0  0  0  0  0  0  0  0  0  0  0
   10.4146  -21.4473   24.7059 C   0  0  1  0  0  0  0  0  0  0  0  0
   11.5288  -20.4690   24.4859 C   0  0  0  0  0  0  0  0  0  0  0  0
   12.7310  -20.6455   25.2722 C   0  0  0  0  0  0  0  0  0  0  0  0
   13.2244  -19.7887   26.0025 O   0  0  0  0  0  0  0  0  0  0  0  0
    9.9856  -21.4479   26.1277 C   0  0  0  0  0  0  0  0  0  0  0  0
   10.7346  -22.0224   26.9923 O   0  0  0  0  0  0  0  0  0  0  0  0
   13.3649  -21.9041   25.1755 O   0  0  0  0  0  0  0  0  0  0  0  0
    8.8277  -20.8604   26.5454 O   0  0  0  0  0  0  0  0  0  0  0  0
  2  1  1  6
  2  4  1  0
  3  2  1  0
  4  6  1  0
  5  4  2  0
  6  7  1  0
  7  8  1  1
  7 13  1  0
  8  9  1  0
  9 10  1  0
 10 11  1  0
 11 12  1  0
 13 14  2  0
 15 13  1  0
 15 16  1  0
 16 17  1  1
 18 17  1  0
 19 18  2  0
 20 16  1  0
 20 23  1  0
 21 20  2  0
 22 18  1  0
M  END
$$$$
