LQF.pdb
     RDKit          3D

 29 29  0  0  1  0  0  0  0  0999 V2000
    9.6093  -13.3223   18.4886 C   0  0  0  0  0  0  0  0  0  0  0  0
    8.1155  -13.4606   18.8587 C   0  0  2  0  0  0  0  0  0  0  0  0
    7.6641  -12.0162   19.0677 C   0  0  0  0  0  0  0  0  0  0  0  0
    8.0852  -14.2522   20.1099 C   0  0  0  0  0  0  0  0  0  0  0  0
    8.5100  -15.6747   20.0412 C   0  0  2  0  0  0  0  0  0  0  0  0
    7.4573  -16.3395   19.2394 N   0  0  0  0  0  0  0  0  0  0  0  0
    8.5598  -16.3905   21.3309 C   0  0  0  0  0  0  0  0  0  0  0  0
    7.4712  -16.6067   21.9677 O   0  0  0  0  0  0  0  0  0  0  0  0
   11.8547  -21.2699   22.3524 N   0  0  0  0  0  0  0  0  0  0  0  0
   11.2960  -20.5793   21.2483 C   0  0  0  0  0  0  0  0  0  0  0  0
   11.4557  -21.0384   20.0919 O   0  0  0  0  0  0  0  0  0  0  0  0
   10.5103  -19.2999   21.4277 C   0  0  0  0  0  0  0  0  0  0  0  0
   10.4217  -18.9224   22.8571 C   0  0  0  0  0  0  0  0  0  0  0  0
    9.6851  -17.6707   23.1928 C   0  0  2  0  0  0  0  0  0  0  0  0
    9.7228  -16.8720   21.9421 N   0  0  0  0  0  0  0  0  0  0  0  0
   10.2464  -16.8509   24.2590 C   0  0  0  0  0  0  0  0  0  0  0  0
   11.3036  -16.1812   24.0194 O   0  0  0  0  0  0  0  0  0  0  0  0
    9.6856  -16.7458   25.5582 N   0  0  0  0  0  0  0  0  0  0  0  0
   10.3675  -15.9706   26.5466 C   0  0  1  0  0  0  0  0  0  0  0  0
   10.2358  -14.4778   26.3039 C   0  0  0  0  0  0  0  0  0  0  0  0
    8.8843  -13.9765   26.5517 C   0  0  0  0  0  0  0  0  0  0  0  0
    7.8446  -14.1672   25.6678 C   0  0  0  0  0  0  0  0  0  0  0  0
    6.5687  -13.6870   25.9147 C   0  0  0  0  0  0  0  0  0  0  0  0
    6.3356  -12.9932   27.0900 C   0  0  0  0  0  0  0  0  0  0  0  0
    7.3474  -12.7875   27.9878 C   0  0  0  0  0  0  0  0  0  0  0  0
    8.6263  -13.2828   27.7140 C   0  0  0  0  0  0  0  0  0  0  0  0
    9.8898  -16.3435   27.8906 C   0  0  0  0  0  0  0  0  0  0  0  0
   10.5002  -15.8337   29.0216 O   0  0  0  0  0  0  0  0  0  0  0  0
    8.9206  -17.1304   28.0194 O   0  0  0  0  0  0  0  0  0  0  0  0
  2  3  1  1
  2  1  1  0
  4  2  1  0
  4  5  1  0
  5  7  1  0
  5  6  1  6
  7 15  1  0
  8  7  2  0
  9 10  1  0
 10 12  1  0
 11 10  2  0
 12 13  1  0
 14 16  1  0
 14 13  1  6
 15 14  1  0
 16 18  1  0
 17 16  2  0
 18 19  1  0
 19 27  1  0
 19 20  1  6
 21 20  1  0
 22 21  2  0
 23 22  1  0
 24 25  1  0
 24 23  2  0
 25 26  2  0
 26 21  1  0
 27 29  2  0
 27 28  1  0
M  END
$$$$
