LQF.pdb
     RDKit          3D

 29 29  0  0  1  0  0  0  0  0999 V2000
    6.7251  -12.9704   20.3331 C   0  0  0  0  0  0  0  0  0  0  0  0
    7.9917  -13.6341   19.7474 C   0  0  2  0  0  0  0  0  0  0  0  0
    8.1066  -13.0174   18.3545 C   0  0  0  0  0  0  0  0  0  0  0  0
    7.6990  -15.0852   19.7041 C   0  0  0  0  0  0  0  0  0  0  0  0
    7.8156  -15.8544   20.9703 C   0  0  2  0  0  0  0  0  0  0  0  0
    7.2171  -14.9726   21.9984 N   0  0  0  0  0  0  0  0  0  0  0  0
    9.1917  -16.1389   21.4215 C   0  0  0  0  0  0  0  0  0  0  0  0
    9.8113  -17.1487   20.9381 O   0  0  0  0  0  0  0  0  0  0  0  0
   14.7044  -14.9849   21.2875 N   0  0  0  0  0  0  0  0  0  0  0  0
   13.6514  -14.6019   20.4199 C   0  0  0  0  0  0  0  0  0  0  0  0
   13.8956  -14.4106   19.2045 O   0  0  0  0  0  0  0  0  0  0  0  0
   12.2372  -14.4172   20.9221 C   0  0  0  0  0  0  0  0  0  0  0  0
   12.1485  -14.6736   22.3781 C   0  0  0  0  0  0  0  0  0  0  0  0
   11.2571  -15.7806   22.8277 C   0  0  2  0  0  0  0  0  0  0  0  0
    9.9066  -15.3830   22.3573 N   0  0  0  0  0  0  0  0  0  0  0  0
   11.1763  -16.0085   24.2649 C   0  0  0  0  0  0  0  0  0  0  0  0
   12.2461  -16.2890   24.8977 O   0  0  0  0  0  0  0  0  0  0  0  0
    9.9733  -15.9345   25.0138 N   0  0  0  0  0  0  0  0  0  0  0  0
   10.0125  -16.2065   26.4164 C   0  0  1  0  0  0  0  0  0  0  0  0
    9.6003  -15.0069   27.2506 C   0  0  0  0  0  0  0  0  0  0  0  0
    8.4605  -14.2844   26.6866 C   0  0  0  0  0  0  0  0  0  0  0  0
    7.1870  -14.8096   26.6538 C   0  0  0  0  0  0  0  0  0  0  0  0
    6.1158  -14.1143   26.1165 C   0  0  0  0  0  0  0  0  0  0  0  0
    6.3373  -12.8504   25.5966 C   0  0  0  0  0  0  0  0  0  0  0  0
    7.5905  -12.3014   25.6145 C   0  0  0  0  0  0  0  0  0  0  0  0
    8.6545  -13.0247   26.1628 C   0  0  0  0  0  0  0  0  0  0  0  0
    9.1820  -17.3863   26.7196 C   0  0  0  0  0  0  0  0  0  0  0  0
    9.1723  -17.9334   27.9894 O   0  0  0  0  0  0  0  0  0  0  0  0
    8.4737  -17.9059   25.8232 O   0  0  0  0  0  0  0  0  0  0  0  0
  2  3  1  6
  2  1  1  0
  4  2  1  0
  4  5  1  0
  5  7  1  0
  5  6  1  1
  7 15  1  0
  8  7  2  0
  9 10  1  0
 10 12  1  0
 11 10  2  0
 12 13  1  0
 14 16  1  0
 14 13  1  1
 15 14  1  0
 16 18  1  0
 17 16  2  0
 18 19  1  0
 19 27  1  0
 19 20  1  1
 21 20  1  0
 22 21  2  0
 23 22  1  0
 24 25  1  0
 24 23  2  0
 25 26  2  0
 26 21  1  0
 27 29  2  0
 27 28  1  0
M  END
$$$$
