LQF.pdb
     RDKit          3D

 29 29  0  0  1  0  0  0  0  0999 V2000
    8.8489  -12.2589   18.7812 C   0  0  0  0  0  0  0  0  0  0  0  0
    7.8235  -13.3806   18.5022 C   0  0  2  0  0  0  0  0  0  0  0  0
    6.5259  -12.6201   18.2352 C   0  0  0  0  0  0  0  0  0  0  0  0
    7.7649  -14.1865   19.7433 C   0  0  0  0  0  0  0  0  0  0  0  0
    9.0201  -14.8283   20.2135 C   0  0  2  0  0  0  0  0  0  0  0  0
    9.5653  -15.5036   19.0138 N   0  0  0  0  0  0  0  0  0  0  0  0
    8.8570  -15.8772   21.2388 C   0  0  0  0  0  0  0  0  0  0  0  0
    7.8310  -15.8497   22.0029 O   0  0  0  0  0  0  0  0  0  0  0  0
   10.0696  -19.5675   18.5853 N   0  0  0  0  0  0  0  0  0  0  0  0
   10.6688  -19.9028   19.8249 C   0  0  0  0  0  0  0  0  0  0  0  0
   11.9030  -20.1221   19.8712 O   0  0  0  0  0  0  0  0  0  0  0  0
    9.8575  -20.0034   21.0968 C   0  0  0  0  0  0  0  0  0  0  0  0
   10.3835  -19.0935   22.1404 C   0  0  0  0  0  0  0  0  0  0  0  0
    9.5318  -17.9355   22.5351 C   0  0  2  0  0  0  0  0  0  0  0  0
    9.7467  -16.9344   21.4603 N   0  0  0  0  0  0  0  0  0  0  0  0
    9.8498  -17.2966   23.8057 C   0  0  0  0  0  0  0  0  0  0  0  0
   10.8466  -16.5044   23.8559 O   0  0  0  0  0  0  0  0  0  0  0  0
    9.1131  -17.4980   25.0017 N   0  0  0  0  0  0  0  0  0  0  0  0
    8.7589  -16.3642   25.7965 C   0  0  1  0  0  0  0  0  0  0  0  0
    8.0816  -15.2758   24.9833 C   0  0  0  0  0  0  0  0  0  0  0  0
    7.5773  -14.1779   25.8077 C   0  0  0  0  0  0  0  0  0  0  0  0
    6.2418  -14.0260   26.1113 C   0  0  0  0  0  0  0  0  0  0  0  0
    5.7772  -12.9811   26.8936 C   0  0  0  0  0  0  0  0  0  0  0  0
    6.6888  -12.0617   27.3841 C   0  0  0  0  0  0  0  0  0  0  0  0
    8.0215  -12.1853   27.1002 C   0  0  0  0  0  0  0  0  0  0  0  0
    8.4641  -13.2495   26.3081 C   0  0  0  0  0  0  0  0  0  0  0  0
    7.9199  -16.7921   26.9308 C   0  0  0  0  0  0  0  0  0  0  0  0
    8.2067  -16.3729   28.2167 O   0  0  0  0  0  0  0  0  0  0  0  0
    6.9339  -17.5441   26.7372 O   0  0  0  0  0  0  0  0  0  0  0  0
  2  3  1  1
  2  1  1  0
  4  2  1  0
  4  5  1  0
  5  7  1  0
  5  6  1  6
  7 15  1  0
  8  7  2  0
  9 10  1  0
 10 12  1  0
 11 10  2  0
 12 13  1  0
 14 16  1  0
 14 13  1  6
 15 14  1  0
 16 18  1  0
 17 16  2  0
 18 19  1  0
 19 27  1  0
 19 20  1  6
 21 20  1  0
 22 21  2  0
 23 22  1  0
 24 25  1  0
 24 23  2  0
 25 26  2  0
 26 21  1  0
 27 29  2  0
 27 28  1  0
M  END
$$$$
