LQF.pdb
     RDKit          3D

 29 29  0  0  1  0  0  0  0  0999 V2000
    8.6071  -12.2149   19.7594 C   0  0  0  0  0  0  0  0  0  0  0  0
    8.1933  -13.4800   18.9748 C   0  0  2  0  0  0  0  0  0  0  0  0
    6.7526  -13.1874   18.5594 C   0  0  0  0  0  0  0  0  0  0  0  0
    8.2902  -14.5988   19.9403 C   0  0  0  0  0  0  0  0  0  0  0  0
    9.5764  -14.7828   20.6618 C   0  0  2  0  0  0  0  0  0  0  0  0
   10.6038  -14.7919   19.5954 N   0  0  0  0  0  0  0  0  0  0  0  0
    9.7252  -16.0586   21.3887 C   0  0  0  0  0  0  0  0  0  0  0  0
    8.7245  -16.5324   22.0301 O   0  0  0  0  0  0  0  0  0  0  0  0
   12.3279  -19.6208   18.8169 N   0  0  0  0  0  0  0  0  0  0  0  0
   13.0928  -18.5186   19.2730 C   0  0  0  0  0  0  0  0  0  0  0  0
   13.8290  -17.9048   18.4638 O   0  0  0  0  0  0  0  0  0  0  0  0
   13.0449  -18.0615   20.7135 C   0  0  0  0  0  0  0  0  0  0  0  0
   12.0729  -18.8592   21.4960 C   0  0  0  0  0  0  0  0  0  0  0  0
   10.9544  -18.1260   22.1545 C   0  0  2  0  0  0  0  0  0  0  0  0
   10.8949  -16.8246   21.4430 N   0  0  0  0  0  0  0  0  0  0  0  0
   11.1070  -17.8469   23.5767 C   0  0  0  0  0  0  0  0  0  0  0  0
   11.4867  -18.7900   24.3447 O   0  0  0  0  0  0  0  0  0  0  0  0
   10.8612  -16.5804   24.1678 N   0  0  0  0  0  0  0  0  0  0  0  0
   10.8139  -16.4783   25.5926 C   0  0  1  0  0  0  0  0  0  0  0  0
   10.6631  -15.0437   26.0656 C   0  0  0  0  0  0  0  0  0  0  0  0
   10.4808  -14.9363   27.5129 C   0  0  0  0  0  0  0  0  0  0  0  0
   11.1747  -15.7167   28.4118 C   0  0  0  0  0  0  0  0  0  0  0  0
   10.9925  -15.6049   29.7807 C   0  0  0  0  0  0  0  0  0  0  0  0
   10.0817  -14.6768   30.2563 C   0  0  0  0  0  0  0  0  0  0  0  0
    9.3772  -13.8871   29.3890 C   0  0  0  0  0  0  0  0  0  0  0  0
    9.5803  -14.0203   28.0117 C   0  0  0  0  0  0  0  0  0  0  0  0
    9.7370  -17.3366   26.1192 C   0  0  0  0  0  0  0  0  0  0  0  0
    8.6199  -17.6147   25.3534 O   0  0  0  0  0  0  0  0  0  0  0  0
    9.8261  -17.8240   27.2723 O   0  0  0  0  0  0  0  0  0  0  0  0
  2  3  1  1
  2  1  1  0
  4  2  1  0
  4  5  1  0
  5  7  1  0
  5  6  1  6
  7 15  1  0
  8  7  2  0
  9 10  1  0
 10 12  1  0
 11 10  2  0
 12 13  1  0
 14 16  1  0
 14 13  1  6
 15 14  1  0
 16 18  1  0
 17 16  2  0
 18 19  1  0
 19 27  1  0
 19 20  1  6
 21 20  1  0
 22 21  2  0
 23 22  1  0
 24 25  1  0
 24 23  2  0
 25 26  2  0
 26 21  1  0
 27 29  2  0
 27 28  1  0
M  END
$$$$
