LQF.pdb
     RDKit          3D

 29 29  0  0  1  0  0  0  0  0999 V2000
    8.8263  -12.1223   19.1020 C   0  0  0  0  0  0  0  0  0  0  0  0
    8.0059  -13.4098   18.8630 C   0  0  2  0  0  0  0  0  0  0  0  0
    6.6503  -12.8871   18.3911 C   0  0  0  0  0  0  0  0  0  0  0  0
    7.9281  -14.0843   20.1791 C   0  0  0  0  0  0  0  0  0  0  0  0
    9.2020  -14.4990   20.8224 C   0  0  2  0  0  0  0  0  0  0  0  0
    9.9159  -15.2651   19.7754 N   0  0  0  0  0  0  0  0  0  0  0  0
    9.0690  -15.4062   21.9788 C   0  0  0  0  0  0  0  0  0  0  0  0
    8.1226  -15.2136   22.8183 O   0  0  0  0  0  0  0  0  0  0  0  0
    8.8094  -21.7400   22.4388 N   0  0  0  0  0  0  0  0  0  0  0  0
    9.8204  -20.8689   21.9623 C   0  0  0  0  0  0  0  0  0  0  0  0
   10.9188  -21.3475   21.5907 O   0  0  0  0  0  0  0  0  0  0  0  0
    9.6096  -19.3734   21.8896 C   0  0  0  0  0  0  0  0  0  0  0  0
   10.2624  -18.6850   23.0269 C   0  0  0  0  0  0  0  0  0  0  0  0
    9.7099  -17.3632   23.4388 C   0  0  2  0  0  0  0  0  0  0  0  0
    9.9063  -16.4936   22.2519 N   0  0  0  0  0  0  0  0  0  0  0  0
   10.3524  -16.7143   24.5746 C   0  0  0  0  0  0  0  0  0  0  0  0
   11.4310  -16.0659   24.3750 O   0  0  0  0  0  0  0  0  0  0  0  0
    9.8489  -16.7546   25.9007 N   0  0  0  0  0  0  0  0  0  0  0  0
   10.5377  -16.0345   26.9254 C   0  0  1  0  0  0  0  0  0  0  0  0
   10.5197  -14.5347   26.6912 C   0  0  0  0  0  0  0  0  0  0  0  0
    9.1724  -13.9669   26.7322 C   0  0  0  0  0  0  0  0  0  0  0  0
    8.7263  -13.1797   27.7714 C   0  0  0  0  0  0  0  0  0  0  0  0
    7.4472  -12.6480   27.7980 C   0  0  0  0  0  0  0  0  0  0  0  0
    6.5926  -12.9195   26.7430 C   0  0  0  0  0  0  0  0  0  0  0  0
    7.0060  -13.6978   25.6965 C   0  0  0  0  0  0  0  0  0  0  0  0
    8.3025  -14.2222   25.6945 C   0  0  0  0  0  0  0  0  0  0  0  0
    9.9760  -16.3821   28.2435 C   0  0  0  0  0  0  0  0  0  0  0  0
    8.9597  -17.3132   28.3527 O   0  0  0  0  0  0  0  0  0  0  0  0
   10.4180  -15.8329   29.2818 O   0  0  0  0  0  0  0  0  0  0  0  0
  2  3  1  1
  2  1  1  0
  4  2  1  0
  4  5  1  0
  5  7  1  0
  5  6  1  6
  7 15  1  0
  8  7  2  0
  9 10  1  0
 10 12  1  0
 11 10  2  0
 12 13  1  0
 14 16  1  0
 14 13  1  6
 15 14  1  0
 16 18  1  0
 17 16  2  0
 18 19  1  0
 19 27  1  0
 19 20  1  6
 21 20  1  0
 22 21  2  0
 23 22  1  0
 24 25  1  0
 24 23  2  0
 25 26  2  0
 26 21  1  0
 27 29  2  0
 27 28  1  0
M  END
$$$$
