LQF.pdb
     RDKit          3D

 29 29  0  0  1  0  0  0  0  0999 V2000
    9.0613  -12.9479   18.8217 C   0  0  0  0  0  0  0  0  0  0  0  0
    7.9079  -13.3873   19.7513 C   0  0  2  0  0  0  0  0  0  0  0  0
    7.4733  -12.0852   20.4215 C   0  0  0  0  0  0  0  0  0  0  0  0
    8.5081  -14.3459   20.7074 C   0  0  0  0  0  0  0  0  0  0  0  0
    8.8338  -15.7084   20.2114 C   0  0  2  0  0  0  0  0  0  0  0  0
    7.5234  -16.2969   19.8515 N   0  0  0  0  0  0  0  0  0  0  0  0
    9.4383  -16.6218   21.2006 C   0  0  0  0  0  0  0  0  0  0  0  0
    8.6847  -17.2053   22.0543 O   0  0  0  0  0  0  0  0  0  0  0  0
   14.4311  -20.5548   20.2024 N   0  0  0  0  0  0  0  0  0  0  0  0
   14.4889  -19.9774   21.4952 C   0  0  0  0  0  0  0  0  0  0  0  0
   15.6064  -19.7704   22.0261 O   0  0  0  0  0  0  0  0  0  0  0  0
   13.2356  -19.6034   22.2538 C   0  0  0  0  0  0  0  0  0  0  0  0
   12.4544  -18.5782   21.5243 C   0  0  0  0  0  0  0  0  0  0  0  0
   11.3251  -17.9298   22.2498 C   0  0  2  0  0  0  0  0  0  0  0  0
   10.8020  -16.9208   21.2949 N   0  0  0  0  0  0  0  0  0  0  0  0
   11.6588  -17.2370   23.4878 C   0  0  0  0  0  0  0  0  0  0  0  0
   12.1997  -16.0856   23.4141 O   0  0  0  0  0  0  0  0  0  0  0  0
   11.4156  -17.7641   24.7826 N   0  0  0  0  0  0  0  0  0  0  0  0
   11.1817  -16.8610   25.8655 C   0  0  1  0  0  0  0  0  0  0  0  0
   10.1580  -15.7947   25.5195 C   0  0  0  0  0  0  0  0  0  0  0  0
    9.8458  -14.9165   26.6466 C   0  0  0  0  0  0  0  0  0  0  0  0
   10.7461  -14.6483   27.6547 C   0  0  0  0  0  0  0  0  0  0  0  0
   10.4375  -13.8142   28.7171 C   0  0  0  0  0  0  0  0  0  0  0  0
    9.1816  -13.2333   28.7629 C   0  0  0  0  0  0  0  0  0  0  0  0
    8.2655  -13.4800   27.7770 C   0  0  0  0  0  0  0  0  0  0  0  0
    8.6026  -14.3259   26.7156 C   0  0  0  0  0  0  0  0  0  0  0  0
   10.7891  -17.6162   27.0693 C   0  0  0  0  0  0  0  0  0  0  0  0
    9.7250  -18.4983   27.0316 O   0  0  0  0  0  0  0  0  0  0  0  0
   11.4206  -17.4636   28.1432 O   0  0  0  0  0  0  0  0  0  0  0  0
  2  3  1  1
  2  1  1  0
  4  2  1  0
  4  5  1  0
  5  7  1  0
  5  6  1  1
  7 15  1  0
  8  7  2  0
  9 10  1  0
 10 12  1  0
 11 10  2  0
 12 13  1  0
 14 16  1  0
 14 13  1  6
 15 14  1  0
 16 18  1  0
 17 16  2  0
 18 19  1  0
 19 27  1  0
 19 20  1  6
 21 20  1  0
 22 21  2  0
 23 22  1  0
 24 25  1  0
 24 23  2  0
 25 26  2  0
 26 21  1  0
 27 29  2  0
 27 28  1  0
M  END
$$$$
