LQF.pdb
     RDKit          3D

 29 29  0  0  1  0  0  0  0  0999 V2000
    8.9188  -12.1355   19.4233 C   0  0  0  0  0  0  0  0  0  0  0  0
    7.8740  -13.2506   19.1939 C   0  0  2  0  0  0  0  0  0  0  0  0
    6.5762  -12.4807   18.9561 C   0  0  0  0  0  0  0  0  0  0  0  0
    7.8466  -14.0369   20.4485 C   0  0  0  0  0  0  0  0  0  0  0  0
    9.0839  -14.7607   20.8408 C   0  0  2  0  0  0  0  0  0  0  0  0
    9.4086  -15.6056   19.6688 N   0  0  0  0  0  0  0  0  0  0  0  0
    8.9510  -15.6799   21.9877 C   0  0  0  0  0  0  0  0  0  0  0  0
    8.1416  -15.3851   22.9339 O   0  0  0  0  0  0  0  0  0  0  0  0
   12.0716  -21.7586   23.6200 N   0  0  0  0  0  0  0  0  0  0  0  0
   10.7169  -21.3747   23.4608 C   0  0  0  0  0  0  0  0  0  0  0  0
    9.9335  -22.1299   22.8367 O   0  0  0  0  0  0  0  0  0  0  0  0
   10.1891  -20.0749   24.0251 C   0  0  0  0  0  0  0  0  0  0  0  0
   10.0513  -19.0486   22.9662 C   0  0  0  0  0  0  0  0  0  0  0  0
    9.5339  -17.7101   23.3698 C   0  0  2  0  0  0  0  0  0  0  0  0
    9.6480  -16.8834   22.1423 N   0  0  0  0  0  0  0  0  0  0  0  0
   10.2579  -17.0260   24.4336 C   0  0  0  0  0  0  0  0  0  0  0  0
   11.3207  -16.3898   24.1349 O   0  0  0  0  0  0  0  0  0  0  0  0
    9.8512  -17.0189   25.7931 N   0  0  0  0  0  0  0  0  0  0  0  0
   10.5897  -16.2355   26.7331 C   0  0  1  0  0  0  0  0  0  0  0  0
   10.7762  -14.8012   26.2717 C   0  0  0  0  0  0  0  0  0  0  0  0
    9.5256  -14.0432   26.2455 C   0  0  0  0  0  0  0  0  0  0  0  0
    9.1376  -13.2090   27.2713 C   0  0  0  0  0  0  0  0  0  0  0  0
    7.9500  -12.4964   27.2338 C   0  0  0  0  0  0  0  0  0  0  0  0
    7.1292  -12.6303   26.1269 C   0  0  0  0  0  0  0  0  0  0  0  0
    7.4866  -13.4509   25.0920 C   0  0  0  0  0  0  0  0  0  0  0  0
    8.6910  -14.1590   25.1551 C   0  0  0  0  0  0  0  0  0  0  0  0
    9.9393  -16.2974   28.0548 C   0  0  0  0  0  0  0  0  0  0  0  0
   10.5229  -15.6984   29.1558 O   0  0  0  0  0  0  0  0  0  0  0  0
    8.8454  -16.8973   28.1916 O   0  0  0  0  0  0  0  0  0  0  0  0
  2  3  1  1
  2  1  1  0
  4  2  1  0
  4  5  1  0
  5  7  1  0
  5  6  1  6
  7 15  1  0
  8  7  2  0
  9 10  1  0
 10 12  1  0
 11 10  2  0
 12 13  1  0
 14 16  1  0
 14 13  1  6
 15 14  1  0
 16 18  1  0
 17 16  2  0
 18 19  1  0
 19 27  1  0
 19 20  1  6
 21 20  1  0
 22 21  2  0
 23 22  1  0
 24 25  1  0
 24 23  2  0
 25 26  2  0
 26 21  1  0
 27 29  2  0
 27 28  1  0
M  END
$$$$
