LQF.pdb
     RDKit          3D

 29 29  0  0  1  0  0  0  0  0999 V2000
    9.6936  -13.1475   18.1254 C   0  0  0  0  0  0  0  0  0  0  0  0
    8.2208  -13.5819   18.2980 C   0  0  2  0  0  0  0  0  0  0  0  0
    7.4991  -12.2759   18.6250 C   0  0  0  0  0  0  0  0  0  0  0  0
    8.2152  -14.5338   19.4326 C   0  0  0  0  0  0  0  0  0  0  0  0
    8.8397  -15.8661   19.2234 C   0  0  2  0  0  0  0  0  0  0  0  0
    7.8936  -16.5865   18.3409 N   0  0  0  0  0  0  0  0  0  0  0  0
    8.9912  -16.6985   20.4326 C   0  0  0  0  0  0  0  0  0  0  0  0
    7.9490  -17.1984   20.9813 O   0  0  0  0  0  0  0  0  0  0  0  0
   13.9907  -19.7952   22.1618 N   0  0  0  0  0  0  0  0  0  0  0  0
   13.2824  -19.8554   23.3877 C   0  0  0  0  0  0  0  0  0  0  0  0
   13.7553  -20.5234   24.3383 O   0  0  0  0  0  0  0  0  0  0  0  0
   11.9679  -19.1335   23.5807 C   0  0  0  0  0  0  0  0  0  0  0  0
   11.5387  -18.4606   22.3331 C   0  0  0  0  0  0  0  0  0  0  0  0
   10.2703  -17.6786   22.3755 C   0  0  2  0  0  0  0  0  0  0  0  0
   10.2067  -17.0040   21.0548 N   0  0  0  0  0  0  0  0  0  0  0  0
   10.1736  -16.6502   23.4035 C   0  0  0  0  0  0  0  0  0  0  0  0
   10.5835  -15.4753   23.1294 O   0  0  0  0  0  0  0  0  0  0  0  0
    9.6447  -16.8726   24.7014 N   0  0  0  0  0  0  0  0  0  0  0  0
    9.2969  -15.7466   25.5100 C   0  0  1  0  0  0  0  0  0  0  0  0
    8.0408  -15.0482   25.0209 C   0  0  0  0  0  0  0  0  0  0  0  0
    7.6211  -13.9518   25.8932 C   0  0  0  0  0  0  0  0  0  0  0  0
    6.4592  -13.2397   25.6894 C   0  0  0  0  0  0  0  0  0  0  0  0
    6.0732  -12.2030   26.5235 C   0  0  0  0  0  0  0  0  0  0  0  0
    6.8851  -11.8754   27.5961 C   0  0  0  0  0  0  0  0  0  0  0  0
    8.0452  -12.5638   27.8251 C   0  0  0  0  0  0  0  0  0  0  0  0
    8.4117  -13.6061   26.9677 C   0  0  0  0  0  0  0  0  0  0  0  0
    9.1692  -16.1638   26.9184 C   0  0  0  0  0  0  0  0  0  0  0  0
    8.5276  -17.3433   27.2482 O   0  0  0  0  0  0  0  0  0  0  0  0
    9.6442  -15.4481   27.8335 O   0  0  0  0  0  0  0  0  0  0  0  0
  2  3  1  1
  2  1  1  0
  4  2  1  0
  4  5  1  0
  5  7  1  0
  5  6  1  6
  7 15  1  0
  8  7  2  0
  9 10  1  0
 10 12  1  0
 11 10  2  0
 12 13  1  0
 14 16  1  0
 14 13  1  6
 15 14  1  0
 16 18  1  0
 17 16  2  0
 18 19  1  0
 19 27  1  0
 19 20  1  6
 21 20  1  0
 22 21  2  0
 23 22  1  0
 24 25  1  0
 24 23  2  0
 25 26  2  0
 26 21  1  0
 27 29  2  0
 27 28  1  0
M  END
$$$$
