LQF.pdb
     RDKit          3D

 29 29  0  0  1  0  0  0  0  0999 V2000
    9.0219  -13.1689   19.0311 C   0  0  0  0  0  0  0  0  0  0  0  0
    7.5685  -13.6929   19.0519 C   0  0  2  0  0  0  0  0  0  0  0  0
    6.7428  -12.4719   18.6505 C   0  0  0  0  0  0  0  0  0  0  0  0
    7.3158  -14.1156   20.4486 C   0  0  0  0  0  0  0  0  0  0  0  0
    8.0762  -15.2818   20.9686 C   0  0  2  0  0  0  0  0  0  0  0  0
    7.7431  -16.3872   20.0413 N   0  0  0  0  0  0  0  0  0  0  0  0
    7.6939  -15.7451   22.3167 C   0  0  0  0  0  0  0  0  0  0  0  0
    7.4693  -14.8814   23.2336 O   0  0  0  0  0  0  0  0  0  0  0  0
    6.2875  -21.6359   23.7038 N   0  0  0  0  0  0  0  0  0  0  0  0
    6.3289  -21.1039   25.0165 C   0  0  0  0  0  0  0  0  0  0  0  0
    6.0928  -21.8563   25.9921 O   0  0  0  0  0  0  0  0  0  0  0  0
    6.6511  -19.6491   25.2732 C   0  0  0  0  0  0  0  0  0  0  0  0
    6.8646  -18.9163   24.0039 C   0  0  0  0  0  0  0  0  0  0  0  0
    7.2395  -17.4765   24.0965 C   0  0  2  0  0  0  0  0  0  0  0  0
    7.5475  -17.0833   22.6987 N   0  0  0  0  0  0  0  0  0  0  0  0
    8.4038  -17.1580   24.9131 C   0  0  0  0  0  0  0  0  0  0  0  0
    9.5630  -17.3767   24.4316 O   0  0  0  0  0  0  0  0  0  0  0  0
    8.3306  -16.6118   26.2207 N   0  0  0  0  0  0  0  0  0  0  0  0
    9.5429  -16.2854   26.9040 C   0  0  1  0  0  0  0  0  0  0  0  0
    9.9591  -14.8417   26.6872 C   0  0  0  0  0  0  0  0  0  0  0  0
    8.8538  -13.8982   26.8528 C   0  0  0  0  0  0  0  0  0  0  0  0
    8.6446  -13.1918   28.0172 C   0  0  0  0  0  0  0  0  0  0  0  0
    7.5933  -12.3008   28.1611 C   0  0  0  0  0  0  0  0  0  0  0  0
    6.7270  -12.1177   27.0967 C   0  0  0  0  0  0  0  0  0  0  0  0
    6.9081  -12.8045   25.9272 C   0  0  0  0  0  0  0  0  0  0  0  0
    7.9774  -13.6980   25.8084 C   0  0  0  0  0  0  0  0  0  0  0  0
    9.4074  -16.5989   28.3383 C   0  0  0  0  0  0  0  0  0  0  0  0
   10.4455  -16.3458   29.2157 O   0  0  0  0  0  0  0  0  0  0  0  0
    8.3435  -17.1004   28.7763 O   0  0  0  0  0  0  0  0  0  0  0  0
  2  3  1  1
  2  1  1  0
  4  2  1  0
  4  5  1  0
  5  7  1  0
  5  6  1  6
  7 15  1  0
  8  7  2  0
  9 10  1  0
 10 12  1  0
 11 10  2  0
 12 13  1  0
 14 16  1  0
 14 13  1  6
 15 14  1  0
 16 18  1  0
 17 16  2  0
 18 19  1  0
 19 27  1  0
 19 20  1  1
 21 20  1  0
 22 21  2  0
 23 22  1  0
 24 25  1  0
 24 23  2  0
 25 26  2  0
 26 21  1  0
 27 29  2  0
 27 28  1  0
M  END
$$$$
