LQF.pdb
     RDKit          3D

 29 29  0  0  1  0  0  0  0  0999 V2000
    9.1570  -12.5363   19.5050 C   0  0  0  0  0  0  0  0  0  0  0  0
    7.7774  -13.2262   19.5959 C   0  0  2  0  0  0  0  0  0  0  0  0
    6.8156  -12.0685   19.8572 C   0  0  0  0  0  0  0  0  0  0  0  0
    7.8710  -14.1574   20.7437 C   0  0  0  0  0  0  0  0  0  0  0  0
    8.7440  -15.3514   20.5988 C   0  0  2  0  0  0  0  0  0  0  0  0
    8.0408  -16.2102   19.6186 N   0  0  0  0  0  0  0  0  0  0  0  0
    8.9160  -16.1694   21.8151 C   0  0  0  0  0  0  0  0  0  0  0  0
    7.9079  -16.7940   22.2955 O   0  0  0  0  0  0  0  0  0  0  0  0
   10.8257  -20.6411   24.4432 N   0  0  0  0  0  0  0  0  0  0  0  0
   10.7744  -20.5009   23.0340 C   0  0  0  0  0  0  0  0  0  0  0  0
   10.3984  -21.4711   22.3333 O   0  0  0  0  0  0  0  0  0  0  0  0
   11.1622  -19.2090   22.3506 C   0  0  0  0  0  0  0  0  0  0  0  0
   11.3917  -18.1293   23.3381 C   0  0  0  0  0  0  0  0  0  0  0  0
   10.2363  -17.2499   23.6755 C   0  0  2  0  0  0  0  0  0  0  0  0
   10.1170  -16.3330   22.5143 N   0  0  0  0  0  0  0  0  0  0  0  0
   10.3692  -16.4317   24.8742 C   0  0  0  0  0  0  0  0  0  0  0  0
   11.2785  -15.5396   24.9044 O   0  0  0  0  0  0  0  0  0  0  0  0
    9.5421  -16.5621   26.0199 N   0  0  0  0  0  0  0  0  0  0  0  0
    9.9214  -15.8981   27.2274 C   0  0  1  0  0  0  0  0  0  0  0  0
    8.7676  -15.1395   27.8581 C   0  0  0  0  0  0  0  0  0  0  0  0
    8.2776  -14.0459   27.0194 C   0  0  0  0  0  0  0  0  0  0  0  0
    8.8723  -12.8032   26.9920 C   0  0  0  0  0  0  0  0  0  0  0  0
    8.3979  -11.7757   26.1928 C   0  0  0  0  0  0  0  0  0  0  0  0
    7.2893  -12.0101   25.3972 C   0  0  0  0  0  0  0  0  0  0  0  0
    6.6765  -13.2335   25.4023 C   0  0  0  0  0  0  0  0  0  0  0  0
    7.1757  -14.2536   26.2184 C   0  0  0  0  0  0  0  0  0  0  0  0
   10.5075  -16.8699   28.1686 C   0  0  0  0  0  0  0  0  0  0  0  0
   11.0661  -16.4472   29.3606 O   0  0  0  0  0  0  0  0  0  0  0  0
   10.5040  -18.0946   27.8939 O   0  0  0  0  0  0  0  0  0  0  0  0
  2  3  1  1
  2  1  1  0
  4  2  1  0
  4  5  1  0
  5  7  1  0
  5  6  1  6
  7 15  1  0
  8  7  2  0
  9 10  1  0
 10 12  1  0
 11 10  2  0
 12 13  1  0
 14 16  1  0
 14 13  1  6
 15 14  1  0
 16 18  1  0
 17 16  2  0
 18 19  1  0
 19 27  1  0
 19 20  1  1
 21 20  1  0
 22 21  2  0
 23 22  1  0
 24 25  1  0
 24 23  2  0
 25 26  2  0
 26 21  1  0
 27 29  2  0
 27 28  1  0
M  END
$$$$
