LQF.pdb
     RDKit          3D

 29 29  0  0  1  0  0  0  0  0999 V2000
    9.3624  -12.3756   19.2804 C   0  0  0  0  0  0  0  0  0  0  0  0
    8.0837  -13.2090   19.0396 C   0  0  2  0  0  0  0  0  0  0  0  0
    6.9590  -12.1837   19.1712 C   0  0  0  0  0  0  0  0  0  0  0  0
    8.0579  -14.2226   20.1190 C   0  0  0  0  0  0  0  0  0  0  0  0
    9.1085  -15.2737   20.1087 C   0  0  2  0  0  0  0  0  0  0  0  0
    8.8482  -16.0485   18.8739 N   0  0  0  0  0  0  0  0  0  0  0  0
    9.0559  -16.2416   21.2216 C   0  0  0  0  0  0  0  0  0  0  0  0
    8.0002  -16.9452   21.3881 O   0  0  0  0  0  0  0  0  0  0  0  0
   13.4481  -19.9842   23.1387 N   0  0  0  0  0  0  0  0  0  0  0  0
   13.2693  -19.0336   22.1031 C   0  0  0  0  0  0  0  0  0  0  0  0
   14.0218  -19.0688   21.1001 O   0  0  0  0  0  0  0  0  0  0  0  0
   12.1923  -17.9747   22.1755 C   0  0  0  0  0  0  0  0  0  0  0  0
   11.0659  -18.4146   23.0306 C   0  0  0  0  0  0  0  0  0  0  0  0
    9.9515  -17.4491   23.2493 C   0  0  2  0  0  0  0  0  0  0  0  0
   10.0857  -16.4711   22.1408 N   0  0  0  0  0  0  0  0  0  0  0  0
    9.9716  -16.7045   24.5020 C   0  0  0  0  0  0  0  0  0  0  0  0
   10.8467  -15.7907   24.6528 O   0  0  0  0  0  0  0  0  0  0  0  0
    9.0696  -16.9301   25.5739 N   0  0  0  0  0  0  0  0  0  0  0  0
    9.3272  -16.3136   26.8375 C   0  0  1  0  0  0  0  0  0  0  0  0
    8.1047  -15.6092   27.3979 C   0  0  0  0  0  0  0  0  0  0  0  0
    7.6857  -14.4641   26.5902 C   0  0  0  0  0  0  0  0  0  0  0  0
    6.7674  -14.5687   25.5682 C   0  0  0  0  0  0  0  0  0  0  0  0
    6.3790  -13.4757   24.8104 C   0  0  0  0  0  0  0  0  0  0  0  0
    6.9349  -12.2396   25.0933 C   0  0  0  0  0  0  0  0  0  0  0  0
    7.8494  -12.1033   26.1019 C   0  0  0  0  0  0  0  0  0  0  0  0
    8.2241  -13.2229   26.8516 C   0  0  0  0  0  0  0  0  0  0  0  0
    9.8547  -17.3144   27.7829 C   0  0  0  0  0  0  0  0  0  0  0  0
   10.3521  -16.9273   29.0135 O   0  0  0  0  0  0  0  0  0  0  0  0
    9.8565  -18.5316   27.4767 O   0  0  0  0  0  0  0  0  0  0  0  0
  2  3  1  1
  2  1  1  0
  4  2  1  0
  4  5  1  0
  5  7  1  0
  5  6  1  6
  7 15  1  0
  8  7  2  0
  9 10  1  0
 10 12  1  0
 11 10  2  0
 12 13  1  0
 14 16  1  0
 14 13  1  1
 15 14  1  0
 16 18  1  0
 17 16  2  0
 18 19  1  0
 19 27  1  0
 19 20  1  1
 21 20  1  0
 22 21  2  0
 23 22  1  0
 24 25  1  0
 24 23  2  0
 25 26  2  0
 26 21  1  0
 27 29  2  0
 27 28  1  0
M  END
$$$$
