LQF.pdb
     RDKit          3D

 29 29  0  0  1  0  0  0  0  0999 V2000
    9.0632  -12.1575   19.4843 C   0  0  0  0  0  0  0  0  0  0  0  0
    7.7934  -13.0297   19.3634 C   0  0  2  0  0  0  0  0  0  0  0  0
    6.6572  -12.0086   19.3635 C   0  0  0  0  0  0  0  0  0  0  0  0
    7.7837  -13.8908   20.5683 C   0  0  0  0  0  0  0  0  0  0  0  0
    8.9288  -14.8168   20.7683 C   0  0  2  0  0  0  0  0  0  0  0  0
    8.8651  -15.7427   19.6144 N   0  0  0  0  0  0  0  0  0  0  0  0
    8.8657  -15.6602   21.9778 C   0  0  0  0  0  0  0  0  0  0  0  0
    7.7921  -15.6746   22.6739 O   0  0  0  0  0  0  0  0  0  0  0  0
   12.4714  -20.5584   22.6668 N   0  0  0  0  0  0  0  0  0  0  0  0
   11.7018  -20.6987   23.8483 C   0  0  0  0  0  0  0  0  0  0  0  0
   11.8668  -21.7097   24.5725 O   0  0  0  0  0  0  0  0  0  0  0  0
   10.6841  -19.6592   24.2604 C   0  0  0  0  0  0  0  0  0  0  0  0
   10.6137  -18.5581   23.2724 C   0  0  0  0  0  0  0  0  0  0  0  0
    9.7166  -17.4097   23.5862 C   0  0  2  0  0  0  0  0  0  0  0  0
    9.9022  -16.4733   22.4495 N   0  0  0  0  0  0  0  0  0  0  0  0
   10.0009  -16.6780   24.8140 C   0  0  0  0  0  0  0  0  0  0  0  0
   10.9655  -15.8453   24.8168 O   0  0  0  0  0  0  0  0  0  0  0  0
    9.2649  -16.8308   26.0176 N   0  0  0  0  0  0  0  0  0  0  0  0
    9.6290  -16.0477   27.1565 C   0  0  1  0  0  0  0  0  0  0  0  0
    8.4341  -15.3601   27.7923 C   0  0  0  0  0  0  0  0  0  0  0  0
    7.9037  -14.2679   26.9768 C   0  0  0  0  0  0  0  0  0  0  0  0
    6.7920  -14.4081   26.1749 C   0  0  0  0  0  0  0  0  0  0  0  0
    6.2997  -13.3652   25.4071 C   0  0  0  0  0  0  0  0  0  0  0  0
    6.9498  -12.1435   25.4505 C   0  0  0  0  0  0  0  0  0  0  0  0
    8.0564  -11.9728   26.2369 C   0  0  0  0  0  0  0  0  0  0  0  0
    8.5326  -13.0421   27.0022 C   0  0  0  0  0  0  0  0  0  0  0  0
   10.3499  -16.8878   28.1302 C   0  0  0  0  0  0  0  0  0  0  0  0
   10.9465  -16.3230   29.2423 O   0  0  0  0  0  0  0  0  0  0  0  0
   10.4283  -18.1283   27.9564 O   0  0  0  0  0  0  0  0  0  0  0  0
  2  3  1  1
  2  1  1  0
  4  2  1  0
  4  5  1  0
  5  7  1  0
  5  6  1  6
  7 15  1  0
  8  7  2  0
  9 10  1  0
 10 12  1  0
 11 10  2  0
 12 13  1  0
 14 16  1  0
 14 13  1  6
 15 14  1  0
 16 18  1  0
 17 16  2  0
 18 19  1  0
 19 27  1  0
 19 20  1  1
 21 20  1  0
 22 21  2  0
 23 22  1  0
 24 25  1  0
 24 23  2  0
 25 26  2  0
 26 21  1  0
 27 29  2  0
 27 28  1  0
M  END
$$$$
