LQF.pdb
     RDKit          3D

 29 29  0  0  1  0  0  0  0  0999 V2000
    9.5008  -13.2298   18.6486 C   0  0  0  0  0  0  0  0  0  0  0  0
    8.0391  -13.5283   19.0510 C   0  0  2  0  0  0  0  0  0  0  0  0
    7.4821  -12.1543   19.4191 C   0  0  0  0  0  0  0  0  0  0  0  0
    8.1232  -14.4382   20.2164 C   0  0  0  0  0  0  0  0  0  0  0  0
    8.6967  -15.7920   19.9995 C   0  0  2  0  0  0  0  0  0  0  0  0
    7.7775  -16.4355   19.0331 N   0  0  0  0  0  0  0  0  0  0  0  0
    8.7295  -16.6703   21.1851 C   0  0  0  0  0  0  0  0  0  0  0  0
    7.8794  -17.6218   21.2813 O   0  0  0  0  0  0  0  0  0  0  0  0
   10.4045  -21.9405   22.0981 N   0  0  0  0  0  0  0  0  0  0  0  0
   11.3884  -21.0218   22.5406 C   0  0  0  0  0  0  0  0  0  0  0  0
   12.5861  -21.1988   22.2123 O   0  0  0  0  0  0  0  0  0  0  0  0
   11.0318  -19.8303   23.4005 C   0  0  0  0  0  0  0  0  0  0  0  0
   10.5359  -18.7045   22.5757 C   0  0  0  0  0  0  0  0  0  0  0  0
    9.7839  -17.6219   23.2719 C   0  0  2  0  0  0  0  0  0  0  0  0
    9.6330  -16.5581   22.2477 N   0  0  0  0  0  0  0  0  0  0  0  0
   10.4272  -17.0275   24.4367 C   0  0  0  0  0  0  0  0  0  0  0  0
   10.7156  -17.7806   25.4232 O   0  0  0  0  0  0  0  0  0  0  0  0
   10.7599  -15.6522   24.5441 N   0  0  0  0  0  0  0  0  0  0  0  0
    9.9991  -14.8221   25.4243 C   0  0  1  0  0  0  0  0  0  0  0  0
    8.7503  -14.2679   24.7625 C   0  0  0  0  0  0  0  0  0  0  0  0
    7.9209  -13.4827   25.6763 C   0  0  0  0  0  0  0  0  0  0  0  0
    7.5541  -12.1800   25.4175 C   0  0  0  0  0  0  0  0  0  0  0  0
    6.7678  -11.4472   26.2918 C   0  0  0  0  0  0  0  0  0  0  0  0
    6.3389  -12.0483   27.4630 C   0  0  0  0  0  0  0  0  0  0  0  0
    6.6863  -13.3405   27.7485 C   0  0  0  0  0  0  0  0  0  0  0  0
    7.4810  -14.0579   26.8487 C   0  0  0  0  0  0  0  0  0  0  0  0
    9.6734  -15.5659   26.6549 C   0  0  0  0  0  0  0  0  0  0  0  0
    9.9167  -16.9242   26.7421 O   0  0  0  0  0  0  0  0  0  0  0  0
    9.1702  -14.9693   27.6377 O   0  0  0  0  0  0  0  0  0  0  0  0
  2  3  1  1
  2  1  1  0
  4  2  1  0
  4  5  1  0
  5  7  1  0
  5  6  1  6
  7 15  1  0
  8  7  2  0
  9 10  1  0
 10 12  1  0
 11 10  2  0
 12 13  1  0
 14 16  1  0
 14 13  1  6
 15 14  1  0
 16 18  1  0
 17 16  2  0
 18 19  1  0
 19 27  1  0
 19 20  1  6
 21 20  1  0
 22 21  2  0
 23 22  1  0
 24 25  1  0
 24 23  2  0
 25 26  2  0
 26 21  1  0
 27 29  2  0
 27 28  1  0
M  END
$$$$
