FPW.pdb
     RDKit          3D

 33 36  0  0  1  0  0  0  0  0999 V2000
    5.6487  -19.0275   20.4239 N   0  0  0  0  0  0  0  0  0  0  0  0
    6.2390  -18.5363   21.6566 C   0  0  1  0  0  0  0  0  0  0  0  0
    6.4707  -19.7748   22.5157 C   0  0  0  0  0  0  0  0  0  0  0  0
    7.1316  -19.3872   23.7758 C   0  0  0  0  0  0  0  0  0  0  0  0
    6.4790  -18.5850   24.6836 C   0  0  0  0  0  0  0  0  0  0  0  0
    7.1094  -18.2219   25.8685 C   0  0  0  0  0  0  0  0  0  0  0  0
    8.3763  -18.6406   26.1692 C   0  0  0  0  0  0  0  0  0  0  0  0
    9.0438  -19.4455   25.2691 C   0  0  0  0  0  0  0  0  0  0  0  0
    8.3938  -19.8004   24.0827 C   0  0  0  0  0  0  0  0  0  0  0  0
    7.4841  -17.7896   21.3813 C   0  0  0  0  0  0  0  0  0  0  0  0
    8.4916  -18.5051   21.0731 O   0  0  0  0  0  0  0  0  0  0  0  0
    7.5678  -16.3792   21.4507 N   0  0  0  0  0  0  0  0  0  0  0  0
    6.5497  -15.4706   21.9045 C   0  0  0  0  0  0  0  0  0  0  0  0
    7.0603  -14.0602   21.6495 C   0  0  0  0  0  0  0  0  0  0  0  0
    8.1955  -14.2242   20.6591 C   0  0  0  0  0  0  0  0  0  0  0  0
    8.7093  -15.6150   21.0616 C   0  0  1  0  0  0  0  0  0  0  0  0
    9.6192  -15.3409   22.2276 C   0  0  0  0  0  0  0  0  0  0  0  0
   10.3195  -14.2983   22.2035 O   0  0  0  0  0  0  0  0  0  0  0  0
    9.7193  -16.1958   23.3356 N   0  0  0  0  0  0  0  0  0  0  0  0
   10.5746  -15.9715   24.4843 C   0  0  1  0  0  0  0  0  0  0  0  0
   10.2380  -14.6950   25.2000 C   0  0  0  0  0  0  0  0  0  0  0  0
    8.7860  -14.6914   25.5021 C   0  0  0  0  0  0  0  0  0  0  0  0
    7.9058  -15.7791   25.5590 C   0  0  0  0  0  0  0  0  0  0  0  0
    6.6748  -15.3411   25.8563 N   0  0  0  0  0  0  0  0  0  0  0  0
    6.6724  -14.0044   26.0055 C   0  0  0  0  0  0  0  0  0  0  0  0
    5.7006  -13.0707   26.3053 C   0  0  0  0  0  0  0  0  0  0  0  0
    5.9768  -11.7143   26.3999 C   0  0  0  0  0  0  0  0  0  0  0  0
    7.2775  -11.3098   26.1821 C   0  0  0  0  0  0  0  0  0  0  0  0
    8.2535  -12.2467   25.8811 C   0  0  0  0  0  0  0  0  0  0  0  0
    7.9733  -13.5998   25.7876 C   0  0  0  0  0  0  0  0  0  0  0  0
   10.4542  -17.1027   25.4383 C   0  0  0  0  0  0  0  0  0  0  0  0
   11.1305  -17.1804   26.4893 O   0  0  0  0  0  0  0  0  0  0  0  0
    9.5442  -18.1437   25.1657 O   0  0  0  0  0  0  0  0  0  0  0  0
  2  1  1  6
  2  3  1  0
  3  4  1  0
  4  5  2  0
  4  9  1  0
  5  6  1  0
  6  7  2  0
  8  7  1  0
  9  8  2  0
 10 12  1  0
 10  2  1  0
 11 10  2  0
 12 16  1  0
 13 12  1  0
 13 14  1  0
 14 15  1  0
 16 15  1  0
 17 19  1  0
 16 17  1  1
 18 17  2  0
 20 21  1  1
 20 19  1  0
 22 21  1  0
 22 30  1  0
 23 24  1  0
 23 22  2  0
 24 25  1  0
 25 30  2  0
 25 26  1  0
 26 27  2  0
 27 28  1  0
 29 28  2  0
 30 29  1  0
 31 20  1  0
 31 33  1  0
 32 31  2  0
M  END
$$$$
