FPW.pdb
     RDKit          3D

 33 36  0  0  1  0  0  0  0  0999 V2000
    8.0565  -18.2749   17.8955 N   0  0  0  0  0  0  0  0  0  0  0  0
    7.3897  -17.6485   19.0234 C   0  0  1  0  0  0  0  0  0  0  0  0
    6.8070  -18.7983   19.8383 C   0  0  0  0  0  0  0  0  0  0  0  0
    5.9528  -18.2606   20.9135 C   0  0  0  0  0  0  0  0  0  0  0  0
    4.7421  -17.6797   20.6133 C   0  0  0  0  0  0  0  0  0  0  0  0
    3.9434  -17.1729   21.6322 C   0  0  0  0  0  0  0  0  0  0  0  0
    4.3242  -17.2321   22.9445 C   0  0  0  0  0  0  0  0  0  0  0  0
    5.5355  -17.8117   23.2618 C   0  0  0  0  0  0  0  0  0  0  0  0
    6.3254  -18.3159   22.2236 C   0  0  0  0  0  0  0  0  0  0  0  0
    8.3361  -16.8197   19.7986 C   0  0  0  0  0  0  0  0  0  0  0  0
    9.4340  -17.3882   20.1045 O   0  0  0  0  0  0  0  0  0  0  0  0
    8.0577  -15.4867   20.1818 N   0  0  0  0  0  0  0  0  0  0  0  0
    6.8264  -14.7683   19.9923 C   0  0  0  0  0  0  0  0  0  0  0  0
    7.0711  -13.3332   20.4347 C   0  0  0  0  0  0  0  0  0  0  0  0
    8.5784  -13.1822   20.4697 C   0  0  0  0  0  0  0  0  0  0  0  0
    8.9879  -14.6186   20.8296 C   0  0  1  0  0  0  0  0  0  0  0  0
    8.8477  -14.6703   22.3263 C   0  0  0  0  0  0  0  0  0  0  0  0
    8.4511  -13.6384   22.9227 O   0  0  0  0  0  0  0  0  0  0  0  0
    9.1399  -15.8160   23.0817 N   0  0  0  0  0  0  0  0  0  0  0  0
    9.8032  -15.8155   24.3706 C   0  0  1  0  0  0  0  0  0  0  0  0
    8.9132  -16.3295   25.4654 C   0  0  0  0  0  0  0  0  0  0  0  0
    7.6630  -15.5318   25.4716 C   0  0  0  0  0  0  0  0  0  0  0  0
    6.3952  -15.8963   25.0014 C   0  0  0  0  0  0  0  0  0  0  0  0
    5.5419  -14.8801   25.1874 N   0  0  0  0  0  0  0  0  0  0  0  0
    6.1671  -13.8376   25.7630 C   0  0  0  0  0  0  0  0  0  0  0  0
    5.7694  -12.5774   26.1628 C   0  0  0  0  0  0  0  0  0  0  0  0
    6.6438  -11.6723   26.7471 C   0  0  0  0  0  0  0  0  0  0  0  0
    7.9526  -12.0706   26.9239 C   0  0  0  0  0  0  0  0  0  0  0  0
    8.3525  -13.3355   26.5229 C   0  0  0  0  0  0  0  0  0  0  0  0
    7.4761  -14.2359   25.9399 C   0  0  0  0  0  0  0  0  0  0  0  0
   11.0276  -16.6533   24.3143 C   0  0  0  0  0  0  0  0  0  0  0  0
   11.9013  -16.6412   25.2112 O   0  0  0  0  0  0  0  0  0  0  0  0
   11.2325  -17.5058   23.2109 O   0  0  0  0  0  0  0  0  0  0  0  0
  2  1  1  6
  2  3  1  0
  3  4  1  0
  4  5  2  0
  4  9  1  0
  5  6  1  0
  6  7  2  0
  8  7  1  0
  9  8  2  0
 10 12  1  0
 10  2  1  0
 11 10  2  0
 12 16  1  0
 13 12  1  0
 13 14  1  0
 14 15  1  0
 16 15  1  0
 17 19  1  0
 16 17  1  1
 18 17  2  0
 20 21  1  1
 20 19  1  0
 22 21  1  0
 22 30  1  0
 23 24  1  0
 23 22  2  0
 24 25  1  0
 25 30  2  0
 25 26  1  0
 26 27  2  0
 27 28  1  0
 29 28  2  0
 30 29  1  0
 31 20  1  0
 31 33  1  0
 32 31  2  0
M  END
$$$$
