FPW.pdb
     RDKit          3D

 33 36  0  0  1  0  0  0  0  0999 V2000
    5.2282  -17.9898   24.6141 N   0  0  0  0  0  0  0  0  0  0  0  0
    6.0757  -16.8175   24.4846 C   0  0  1  0  0  0  0  0  0  0  0  0
    6.6861  -16.6052   25.8659 C   0  0  0  0  0  0  0  0  0  0  0  0
    7.1094  -15.1999   26.0099 C   0  0  0  0  0  0  0  0  0  0  0  0
    8.2050  -14.7310   25.3218 C   0  0  0  0  0  0  0  0  0  0  0  0
    8.5994  -13.4054   25.4644 C   0  0  0  0  0  0  0  0  0  0  0  0
    7.9262  -12.5360   26.2778 C   0  0  0  0  0  0  0  0  0  0  0  0
    6.8255  -12.9910   26.9744 C   0  0  0  0  0  0  0  0  0  0  0  0
    6.4437  -14.3274   26.8184 C   0  0  0  0  0  0  0  0  0  0  0  0
    7.0945  -17.0198   23.4336 C   0  0  0  0  0  0  0  0  0  0  0  0
    7.5021  -18.2182   23.2934 O   0  0  0  0  0  0  0  0  0  0  0  0
    7.5925  -15.9669   22.6307 N   0  0  0  0  0  0  0  0  0  0  0  0
    7.3879  -14.5567   22.8239 C   0  0  0  0  0  0  0  0  0  0  0  0
    7.9941  -13.8462   21.6228 C   0  0  0  0  0  0  0  0  0  0  0  0
    8.1561  -14.9219   20.5679 C   0  0  0  0  0  0  0  0  0  0  0  0
    8.3941  -16.1476   21.4631 C   0  0  1  0  0  0  0  0  0  0  0  0
    9.8628  -16.0833   21.7813 C   0  0  0  0  0  0  0  0  0  0  0  0
   10.6792  -16.0892   20.8266 O   0  0  0  0  0  0  0  0  0  0  0  0
   10.3582  -16.0178   23.0924 N   0  0  0  0  0  0  0  0  0  0  0  0
   11.7524  -15.8395   23.4467 C   0  0  1  0  0  0  0  0  0  0  0  0
   11.9215  -14.9739   24.6620 C   0  0  0  0  0  0  0  0  0  0  0  0
   11.1540  -15.5742   25.7800 C   0  0  0  0  0  0  0  0  0  0  0  0
   10.6963  -16.8909   25.9139 C   0  0  0  0  0  0  0  0  0  0  0  0
   10.0360  -17.0175   27.0730 N   0  0  0  0  0  0  0  0  0  0  0  0
   10.0209  -15.8485   27.7381 C   0  0  0  0  0  0  0  0  0  0  0  0
    9.4934  -15.4337   28.9446 C   0  0  0  0  0  0  0  0  0  0  0  0
    9.6262  -14.1319   29.4059 C   0  0  0  0  0  0  0  0  0  0  0  0
   10.3149  -13.2390   28.6114 C   0  0  0  0  0  0  0  0  0  0  0  0
   10.8448  -13.6548   27.4001 C   0  0  0  0  0  0  0  0  0  0  0  0
   10.7097  -14.9554   26.9434 C   0  0  0  0  0  0  0  0  0  0  0  0
   12.3857  -17.1574   23.7042 C   0  0  0  0  0  0  0  0  0  0  0  0
   11.7282  -18.2170   23.8169 O   0  0  0  0  0  0  0  0  0  0  0  0
   13.7870  -17.2387   23.8303 O   0  0  0  0  0  0  0  0  0  0  0  0
  2  1  1  1
  2  3  1  0
  3  4  1  0
  4  5  2  0
  4  9  1  0
  5  6  1  0
  6  7  2  0
  8  7  1  0
  9  8  2  0
 10 12  1  0
 10  2  1  0
 11 10  2  0
 12 16  1  0
 13 12  1  0
 13 14  1  0
 14 15  1  0
 16 15  1  0
 17 19  1  0
 16 17  1  1
 18 17  2  0
 20 21  1  1
 20 19  1  0
 22 21  1  0
 22 30  1  0
 23 24  1  0
 23 22  2  0
 24 25  1  0
 25 30  2  0
 25 26  1  0
 26 27  2  0
 27 28  1  0
 29 28  2  0
 30 29  1  0
 31 20  1  0
 31 33  1  0
 32 31  2  0
M  END
$$$$
