FPW.pdb
     RDKit          3D

 33 36  0  0  1  0  0  0  0  0999 V2000
    6.4880  -19.6504   20.2700 N   0  0  0  0  0  0  0  0  0  0  0  0
    6.1303  -18.2769   20.5777 C   0  0  1  0  0  0  0  0  0  0  0  0
    5.1004  -18.3685   21.6985 C   0  0  0  0  0  0  0  0  0  0  0  0
    5.7291  -18.9408   22.9036 C   0  0  0  0  0  0  0  0  0  0  0  0
    5.8580  -18.1836   24.0454 C   0  0  0  0  0  0  0  0  0  0  0  0
    6.4539  -18.7294   25.1768 C   0  0  0  0  0  0  0  0  0  0  0  0
    6.9245  -20.0134   25.1961 C   0  0  0  0  0  0  0  0  0  0  0  0
    6.8026  -20.7854   24.0590 C   0  0  0  0  0  0  0  0  0  0  0  0
    6.2005  -20.2195   22.9307 C   0  0  0  0  0  0  0  0  0  0  0  0
    7.3252  -17.4965   20.9607 C   0  0  0  0  0  0  0  0  0  0  0  0
    8.3961  -18.1721   21.0982 O   0  0  0  0  0  0  0  0  0  0  0  0
    7.2985  -16.0968   21.1642 N   0  0  0  0  0  0  0  0  0  0  0  0
    6.1396  -15.2458   21.1920 C   0  0  0  0  0  0  0  0  0  0  0  0
    6.6379  -13.8116   21.2918 C   0  0  0  0  0  0  0  0  0  0  0  0
    8.0976  -13.8718   20.8898 C   0  0  0  0  0  0  0  0  0  0  0  0
    8.4551  -15.2859   21.3723 C   0  0  1  0  0  0  0  0  0  0  0  0
    8.7513  -15.1046   22.8358 C   0  0  0  0  0  0  0  0  0  0  0  0
    7.9289  -14.4611   23.5341 O   0  0  0  0  0  0  0  0  0  0  0  0
    9.9014  -15.6205   23.4520 N   0  0  0  0  0  0  0  0  0  0  0  0
   10.2720  -15.4026   24.8363 C   0  0  1  0  0  0  0  0  0  0  0  0
    9.3444  -16.1023   25.7875 C   0  0  0  0  0  0  0  0  0  0  0  0
    8.1004  -15.3040   25.9075 C   0  0  0  0  0  0  0  0  0  0  0  0
    6.7884  -15.6845   25.5994 C   0  0  0  0  0  0  0  0  0  0  0  0
    5.9584  -14.6614   25.8444 N   0  0  0  0  0  0  0  0  0  0  0  0
    6.6420  -13.5989   26.3058 C   0  0  0  0  0  0  0  0  0  0  0  0
    6.2884  -12.3244   26.7018 C   0  0  0  0  0  0  0  0  0  0  0  0
    7.2209  -11.3990   27.1483 C   0  0  0  0  0  0  0  0  0  0  0  0
    8.5427  -11.7916   27.1885 C   0  0  0  0  0  0  0  0  0  0  0  0
    8.8983  -13.0708   26.7912 C   0  0  0  0  0  0  0  0  0  0  0  0
    7.9640  -13.9914   26.3461 C   0  0  0  0  0  0  0  0  0  0  0  0
   11.6564  -15.8830   25.0753 C   0  0  0  0  0  0  0  0  0  0  0  0
   12.2050  -15.8431   26.2002 O   0  0  0  0  0  0  0  0  0  0  0  0
   12.4008  -16.4102   24.0011 O   0  0  0  0  0  0  0  0  0  0  0  0
  2  1  1  1
  2  3  1  0
  3  4  1  0
  4  5  2  0
  4  9  1  0
  5  6  1  0
  6  7  2  0
  8  7  1  0
  9  8  2  0
 10 12  1  0
 10  2  1  0
 11 10  2  0
 12 16  1  0
 13 12  1  0
 13 14  1  0
 14 15  1  0
 16 15  1  0
 17 19  1  0
 16 17  1  1
 18 17  2  0
 20 21  1  1
 20 19  1  0
 22 21  1  0
 22 30  1  0
 23 24  1  0
 23 22  2  0
 24 25  1  0
 25 30  2  0
 25 26  1  0
 26 27  2  0
 27 28  1  0
 29 28  2  0
 30 29  1  0
 31 20  1  0
 31 33  1  0
 32 31  2  0
M  END
$$$$
