FPW.pdb
     RDKit          3D

 33 36  0  0  1  0  0  0  0  0999 V2000
   12.3319  -15.8594   19.0383 N   0  0  0  0  0  0  0  0  0  0  0  0
   11.0945  -15.2539   19.4981 C   0  0  1  0  0  0  0  0  0  0  0  0
   10.0130  -15.7833   18.5624 C   0  0  0  0  0  0  0  0  0  0  0  0
    8.8888  -14.8300   18.5148 C   0  0  0  0  0  0  0  0  0  0  0  0
    7.6103  -15.2495   18.8028 C   0  0  0  0  0  0  0  0  0  0  0  0
    6.5552  -14.3454   18.7537 C   0  0  0  0  0  0  0  0  0  0  0  0
    6.7456  -13.0318   18.4237 C   0  0  0  0  0  0  0  0  0  0  0  0
    8.0218  -12.5957   18.1323 C   0  0  0  0  0  0  0  0  0  0  0  0
    9.0705  -13.5194   18.1869 C   0  0  0  0  0  0  0  0  0  0  0  0
   10.8404  -15.5897   20.9145 C   0  0  0  0  0  0  0  0  0  0  0  0
   11.7871  -16.2013   21.5077 O   0  0  0  0  0  0  0  0  0  0  0  0
    9.6358  -15.2620   21.5798 N   0  0  0  0  0  0  0  0  0  0  0  0
    8.3870  -14.8815   20.9766 C   0  0  0  0  0  0  0  0  0  0  0  0
    7.4450  -14.4875   22.1047 C   0  0  0  0  0  0  0  0  0  0  0  0
    8.3410  -14.2552   23.3044 C   0  0  0  0  0  0  0  0  0  0  0  0
    9.4704  -15.2505   22.9979 C   0  0  1  0  0  0  0  0  0  0  0  0
    8.9429  -16.5640   23.5071 C   0  0  0  0  0  0  0  0  0  0  0  0
    8.7256  -17.4803   22.6757 O   0  0  0  0  0  0  0  0  0  0  0  0
    8.6841  -16.8087   24.8641 N   0  0  0  0  0  0  0  0  0  0  0  0
    9.6856  -16.8257   25.9119 C   0  0  1  0  0  0  0  0  0  0  0  0
    9.3677  -15.8575   27.0148 C   0  0  0  0  0  0  0  0  0  0  0  0
    8.0603  -15.2213   26.7226 C   0  0  0  0  0  0  0  0  0  0  0  0
    6.8693  -15.8297   26.3071 C   0  0  0  0  0  0  0  0  0  0  0  0
    5.9236  -14.8942   26.1463 N   0  0  0  0  0  0  0  0  0  0  0  0
    6.4124  -13.6743   26.4325 C   0  0  0  0  0  0  0  0  0  0  0  0
    5.8818  -12.3997   26.4314 C   0  0  0  0  0  0  0  0  0  0  0  0
    6.6286  -11.2832   26.7791 C   0  0  0  0  0  0  0  0  0  0  0  0
    7.9466  -11.4809   27.1350 C   0  0  0  0  0  0  0  0  0  0  0  0
    8.4798  -12.7602   27.1364 C   0  0  0  0  0  0  0  0  0  0  0  0
    7.7306  -13.8720   26.7885 C   0  0  0  0  0  0  0  0  0  0  0  0
    9.7978  -18.1895   26.4880 C   0  0  0  0  0  0  0  0  0  0  0  0
   10.6529  -18.4949   27.3502 O   0  0  0  0  0  0  0  0  0  0  0  0
    8.9114  -19.1972   26.0578 O   0  0  0  0  0  0  0  0  0  0  0  0
  2  1  1  6
  2  3  1  0
  3  4  1  0
  4  5  2  0
  4  9  1  0
  5  6  1  0
  6  7  2  0
  8  7  1  0
  9  8  2  0
 10 12  1  0
 10  2  1  0
 11 10  2  0
 12 16  1  0
 13 12  1  0
 13 14  1  0
 14 15  1  0
 16 15  1  0
 17 19  1  0
 16 17  1  6
 18 17  2  0
 20 21  1  1
 20 19  1  0
 22 21  1  0
 22 30  1  0
 23 24  1  0
 23 22  2  0
 24 25  1  0
 25 30  2  0
 25 26  1  0
 26 27  2  0
 27 28  1  0
 29 28  2  0
 30 29  1  0
 31 20  1  0
 31 33  1  0
 32 31  2  0
M  END
$$$$
