FPW.pdb
     RDKit          3D

 33 36  0  0  1  0  0  0  0  0999 V2000
    6.2664  -18.8842   19.3595 N   0  0  0  0  0  0  0  0  0  0  0  0
    6.4718  -18.3923   20.7104 C   0  0  1  0  0  0  0  0  0  0  0  0
    6.5555  -19.6380   21.5861 C   0  0  0  0  0  0  0  0  0  0  0  0
    6.6770  -19.2415   23.0014 C   0  0  0  0  0  0  0  0  0  0  0  0
    5.8255  -18.3010   23.5343 C   0  0  0  0  0  0  0  0  0  0  0  0
    5.9477  -17.9306   24.8688 C   0  0  0  0  0  0  0  0  0  0  0  0
    6.8999  -18.4768   25.6848 C   0  0  0  0  0  0  0  0  0  0  0  0
    7.7611  -19.4212   25.1653 C   0  0  0  0  0  0  0  0  0  0  0  0
    7.6232  -19.7812   23.8209 C   0  0  0  0  0  0  0  0  0  0  0  0
    7.6884  -17.5570   20.7856 C   0  0  0  0  0  0  0  0  0  0  0  0
    8.7857  -18.1742   20.5928 O   0  0  0  0  0  0  0  0  0  0  0  0
    7.6540  -16.1681   21.0521 N   0  0  0  0  0  0  0  0  0  0  0  0
    6.5450  -15.4100   21.5651 C   0  0  0  0  0  0  0  0  0  0  0  0
    6.9512  -13.9440   21.5359 C   0  0  0  0  0  0  0  0  0  0  0  0
    8.1421  -13.8828   20.6009 C   0  0  0  0  0  0  0  0  0  0  0  0
    8.7472  -15.2748   20.8389 C   0  0  1  0  0  0  0  0  0  0  0  0
    9.5748  -15.1015   22.0829 C   0  0  0  0  0  0  0  0  0  0  0  0
   10.3162  -14.0911   22.1683 O   0  0  0  0  0  0  0  0  0  0  0  0
    9.5548  -16.0157   23.1470 N   0  0  0  0  0  0  0  0  0  0  0  0
   10.4320  -15.9690   24.3001 C   0  0  1  0  0  0  0  0  0  0  0  0
   10.3508  -14.6538   25.0202 C   0  0  0  0  0  0  0  0  0  0  0  0
    8.9529  -14.4469   25.4700 C   0  0  0  0  0  0  0  0  0  0  0  0
    7.9145  -15.3836   25.5447 C   0  0  0  0  0  0  0  0  0  0  0  0
    6.8046  -14.7836   25.9960 N   0  0  0  0  0  0  0  0  0  0  0  0
    7.0357  -13.4800   26.2334 C   0  0  0  0  0  0  0  0  0  0  0  0
    6.2622  -12.4332   26.6935 C   0  0  0  0  0  0  0  0  0  0  0  0
    6.7652  -11.1495   26.8494 C   0  0  0  0  0  0  0  0  0  0  0  0
    8.0894  -10.9379   26.5260 C   0  0  0  0  0  0  0  0  0  0  0  0
    8.8665  -11.9885   26.0641 C   0  0  0  0  0  0  0  0  0  0  0  0
    8.3601  -13.2684   25.9100 C   0  0  0  0  0  0  0  0  0  0  0  0
   10.0860  -17.0576   25.2486 C   0  0  0  0  0  0  0  0  0  0  0  0
    9.3646  -18.0309   24.9322 O   0  0  0  0  0  0  0  0  0  0  0  0
   10.5823  -17.0103   26.5668 O   0  0  0  0  0  0  0  0  0  0  0  0
  2  1  1  6
  2  3  1  0
  3  4  1  0
  4  5  2  0
  4  9  1  0
  5  6  1  0
  6  7  2  0
  8  7  1  0
  9  8  2  0
 10 12  1  0
 10  2  1  0
 11 10  2  0
 12 16  1  0
 13 12  1  0
 13 14  1  0
 14 15  1  0
 16 15  1  0
 17 19  1  0
 16 17  1  1
 18 17  2  0
 20 21  1  1
 20 19  1  0
 22 21  1  0
 22 30  1  0
 23 24  1  0
 23 22  2  0
 24 25  1  0
 25 30  2  0
 25 26  1  0
 26 27  2  0
 27 28  1  0
 29 28  2  0
 30 29  1  0
 31 20  1  0
 31 33  1  0
 32 31  2  0
M  END
$$$$
