FPW.pdb
     RDKit          3D

 33 36  0  0  1  0  0  0  0  0999 V2000
    6.5001  -18.8036   21.9349 N   0  0  0  0  0  0  0  0  0  0  0  0
    7.3278  -17.6316   22.1598 C   0  0  1  0  0  0  0  0  0  0  0  0
    6.5115  -16.7306   23.0804 C   0  0  0  0  0  0  0  0  0  0  0  0
    6.9933  -15.3412   22.9686 C   0  0  0  0  0  0  0  0  0  0  0  0
    8.3006  -15.0855   22.6238 C   0  0  0  0  0  0  0  0  0  0  0  0
    8.7481  -13.7730   22.5226 C   0  0  0  0  0  0  0  0  0  0  0  0
    7.9214  -12.7089   22.7574 C   0  0  0  0  0  0  0  0  0  0  0  0
    6.6077  -12.9490   23.1042 C   0  0  0  0  0  0  0  0  0  0  0  0
    6.1757  -14.2756   23.2010 C   0  0  0  0  0  0  0  0  0  0  0  0
    8.6315  -18.0134   22.7412 C   0  0  0  0  0  0  0  0  0  0  0  0
    8.6204  -19.0644   23.4606 O   0  0  0  0  0  0  0  0  0  0  0  0
    9.8180  -17.2744   22.5238 N   0  0  0  0  0  0  0  0  0  0  0  0
    9.9481  -16.0310   21.8131 C   0  0  0  0  0  0  0  0  0  0  0  0
   11.4344  -15.7173   21.7253 C   0  0  0  0  0  0  0  0  0  0  0  0
   12.1331  -17.0268   22.0304 C   0  0  0  0  0  0  0  0  0  0  0  0
   11.1118  -17.6648   22.9844 C   0  0  1  0  0  0  0  0  0  0  0  0
   11.4344  -17.0540   24.3206 C   0  0  0  0  0  0  0  0  0  0  0  0
   12.4064  -16.2616   24.3935 O   0  0  0  0  0  0  0  0  0  0  0  0
   10.7001  -17.3301   25.4839 N   0  0  0  0  0  0  0  0  0  0  0  0
   10.8818  -16.6656   26.7593 C   0  0  1  0  0  0  0  0  0  0  0  0
   10.4350  -15.2325   26.7197 C   0  0  0  0  0  0  0  0  0  0  0  0
    9.0050  -15.1941   26.3287 C   0  0  0  0  0  0  0  0  0  0  0  0
    8.1317  -16.2678   26.1142 C   0  0  0  0  0  0  0  0  0  0  0  0
    6.9259  -15.7987   25.7657 N   0  0  0  0  0  0  0  0  0  0  0  0
    6.9339  -14.4541   25.7319 C   0  0  0  0  0  0  0  0  0  0  0  0
    5.9867  -13.4925   25.4419 C   0  0  0  0  0  0  0  0  0  0  0  0
    6.2688  -12.1346   25.4836 C   0  0  0  0  0  0  0  0  0  0  0  0
    7.5497  -11.7580   25.8303 C   0  0  0  0  0  0  0  0  0  0  0  0
    8.5011  -12.7228   26.1216 C   0  0  0  0  0  0  0  0  0  0  0  0
    8.2150  -14.0774   26.0786 C   0  0  0  0  0  0  0  0  0  0  0  0
   10.1211  -17.3765   27.8177 C   0  0  0  0  0  0  0  0  0  0  0  0
   10.1553  -17.0384   29.0228 O   0  0  0  0  0  0  0  0  0  0  0  0
    9.3199  -18.4824   27.4694 O   0  0  0  0  0  0  0  0  0  0  0  0
  2  1  1  1
  2  3  1  0
  3  4  1  0
  4  5  2  0
  4  9  1  0
  5  6  1  0
  6  7  2  0
  8  7  1  0
  9  8  2  0
 10 12  1  0
 10  2  1  0
 11 10  2  0
 12 16  1  0
 13 12  1  0
 13 14  1  0
 14 15  1  0
 16 15  1  0
 17 19  1  0
 16 17  1  1
 18 17  2  0
 20 21  1  6
 20 19  1  0
 22 21  1  0
 22 30  1  0
 23 24  1  0
 23 22  2  0
 24 25  1  0
 25 30  2  0
 25 26  1  0
 26 27  2  0
 27 28  1  0
 29 28  2  0
 30 29  1  0
 31 20  1  0
 31 33  1  0
 32 31  2  0
M  END
$$$$
