FPW.pdb
     RDKit          3D

 33 36  0  0  1  0  0  0  0  0999 V2000
    6.4742  -19.4284   20.5324 N   0  0  0  0  0  0  0  0  0  0  0  0
    6.6133  -18.6355   21.7412 C   0  0  1  0  0  0  0  0  0  0  0  0
    6.6536  -19.6442   22.8841 C   0  0  0  0  0  0  0  0  0  0  0  0
    6.6482  -18.9309   24.1749 C   0  0  0  0  0  0  0  0  0  0  0  0
    5.5454  -18.2045   24.5619 C   0  0  0  0  0  0  0  0  0  0  0  0
    5.5486  -17.5329   25.7793 C   0  0  0  0  0  0  0  0  0  0  0  0
    6.6268  -17.5688   26.6202 C   0  0  0  0  0  0  0  0  0  0  0  0
    7.7401  -18.2929   26.2463 C   0  0  0  0  0  0  0  0  0  0  0  0
    7.7186  -18.9620   25.0183 C   0  0  0  0  0  0  0  0  0  0  0  0
    7.8250  -17.7921   21.6792 C   0  0  0  0  0  0  0  0  0  0  0  0
    8.9293  -18.4262   21.6529 O   0  0  0  0  0  0  0  0  0  0  0  0
    7.7791  -16.3785   21.6502 N   0  0  0  0  0  0  0  0  0  0  0  0
    6.6494  -15.5406   21.9494 C   0  0  0  0  0  0  0  0  0  0  0  0
    7.0559  -14.1088   21.6334 C   0  0  0  0  0  0  0  0  0  0  0  0
    8.2849  -14.2319   20.7554 C   0  0  0  0  0  0  0  0  0  0  0  0
    8.8799  -15.5389   21.3012 C   0  0  1  0  0  0  0  0  0  0  0  0
    9.6548  -15.1043   22.5150 C   0  0  0  0  0  0  0  0  0  0  0  0
   10.0004  -13.8996   22.6003 O   0  0  0  0  0  0  0  0  0  0  0  0
   10.0070  -15.9824   23.5511 N   0  0  0  0  0  0  0  0  0  0  0  0
   10.9197  -15.6688   24.6327 C   0  0  1  0  0  0  0  0  0  0  0  0
   10.4943  -14.4478   25.3963 C   0  0  0  0  0  0  0  0  0  0  0  0
    9.0736  -14.6080   25.7901 C   0  0  0  0  0  0  0  0  0  0  0  0
    8.3356  -15.7904   25.9262 C   0  0  0  0  0  0  0  0  0  0  0  0
    7.0812  -15.4933   26.2919 N   0  0  0  0  0  0  0  0  0  0  0  0
    6.9270  -14.1626   26.4123 C   0  0  0  0  0  0  0  0  0  0  0  0
    5.8700  -13.3426   26.7534 C   0  0  0  0  0  0  0  0  0  0  0  0
    5.9862  -11.9608   26.8012 C   0  0  0  0  0  0  0  0  0  0  0  0
    7.2132  -11.4112   26.4923 C   0  0  0  0  0  0  0  0  0  0  0  0
    8.2747  -12.2338   26.1498 C   0  0  0  0  0  0  0  0  0  0  0  0
    8.1542  -13.6128   26.1034 C   0  0  0  0  0  0  0  0  0  0  0  0
   11.0102  -16.8150   25.5721 C   0  0  0  0  0  0  0  0  0  0  0  0
   10.1881  -17.7594   25.5732 O   0  0  0  0  0  0  0  0  0  0  0  0
   12.0607  -16.8590   26.5105 O   0  0  0  0  0  0  0  0  0  0  0  0
  2  1  1  6
  2  3  1  0
  3  4  1  0
  4  5  2  0
  4  9  1  0
  5  6  1  0
  6  7  2  0
  8  7  1  0
  9  8  2  0
 10 12  1  0
 10  2  1  0
 11 10  2  0
 12 16  1  0
 13 12  1  0
 13 14  1  0
 14 15  1  0
 16 15  1  0
 17 19  1  0
 16 17  1  1
 18 17  2  0
 20 21  1  1
 20 19  1  0
 22 21  1  0
 22 30  1  0
 23 24  1  0
 23 22  2  0
 24 25  1  0
 25 30  2  0
 25 26  1  0
 26 27  2  0
 27 28  1  0
 29 28  2  0
 30 29  1  0
 31 20  1  0
 31 33  1  0
 32 31  2  0
M  END
$$$$
