FPW.pdb
     RDKit          3D

 33 36  0  0  1  0  0  0  0  0999 V2000
    6.3750  -19.2578   20.1933 N   0  0  0  0  0  0  0  0  0  0  0  0
    6.2624  -17.9179   20.7423 C   0  0  1  0  0  0  0  0  0  0  0  0
    5.5947  -18.0928   22.1021 C   0  0  0  0  0  0  0  0  0  0  0  0
    4.2382  -18.6426   21.9211 C   0  0  0  0  0  0  0  0  0  0  0  0
    3.2402  -17.8642   21.3810 C   0  0  0  0  0  0  0  0  0  0  0  0
    1.9633  -18.3888   21.2154 C   0  0  0  0  0  0  0  0  0  0  0  0
    1.6584  -19.6723   21.5763 C   0  0  0  0  0  0  0  0  0  0  0  0
    2.6483  -20.4654   22.1192 C   0  0  0  0  0  0  0  0  0  0  0  0
    3.9265  -19.9206   22.2781 C   0  0  0  0  0  0  0  0  0  0  0  0
    7.5898  -17.2753   20.8349 C   0  0  0  0  0  0  0  0  0  0  0  0
    8.5836  -18.0470   20.6375 O   0  0  0  0  0  0  0  0  0  0  0  0
    7.7619  -15.9008   21.1218 N   0  0  0  0  0  0  0  0  0  0  0  0
    6.7481  -14.9655   21.5285 C   0  0  0  0  0  0  0  0  0  0  0  0
    7.3968  -13.5897   21.5694 C   0  0  0  0  0  0  0  0  0  0  0  0
    8.6744  -13.7314   20.7671 C   0  0  0  0  0  0  0  0  0  0  0  0
    9.0066  -15.2060   21.0420 C   0  0  1  0  0  0  0  0  0  0  0  0
    9.7131  -15.1760   22.3696 C   0  0  0  0  0  0  0  0  0  0  0  0
   10.5100  -14.2322   22.5984 O   0  0  0  0  0  0  0  0  0  0  0  0
    9.5218  -16.1524   23.3589 N   0  0  0  0  0  0  0  0  0  0  0  0
   10.2282  -16.2045   24.6236 C   0  0  1  0  0  0  0  0  0  0  0  0
    9.9442  -15.0046   25.4805 C   0  0  0  0  0  0  0  0  0  0  0  0
    8.4802  -14.9175   25.7012 C   0  0  0  0  0  0  0  0  0  0  0  0
    7.5167  -15.9236   25.5580 C   0  0  0  0  0  0  0  0  0  0  0  0
    6.3065  -15.4260   25.8467 N   0  0  0  0  0  0  0  0  0  0  0  0
    6.3977  -14.1263   26.1808 C   0  0  0  0  0  0  0  0  0  0  0  0
    5.4835  -13.1619   26.5553 C   0  0  0  0  0  0  0  0  0  0  0  0
    5.8570  -11.8592   26.8532 C   0  0  0  0  0  0  0  0  0  0  0  0
    7.1965  -11.5419   26.7646 C   0  0  0  0  0  0  0  0  0  0  0  0
    8.1148  -12.5096   26.3888 C   0  0  0  0  0  0  0  0  0  0  0  0
    7.7374  -13.8089   26.0922 C   0  0  0  0  0  0  0  0  0  0  0  0
    9.8464  -17.4293   25.3709 C   0  0  0  0  0  0  0  0  0  0  0  0
   10.3685  -17.7495   26.4630 O   0  0  0  0  0  0  0  0  0  0  0  0
    8.8549  -18.2806   24.8435 O   0  0  0  0  0  0  0  0  0  0  0  0
  2  1  1  1
  2  3  1  0
  3  4  1  0
  4  5  2  0
  4  9  1  0
  5  6  1  0
  6  7  2  0
  8  7  1  0
  9  8  2  0
 10 12  1  0
 10  2  1  0
 11 10  2  0
 12 16  1  0
 13 12  1  0
 13 14  1  0
 14 15  1  0
 16 15  1  0
 17 19  1  0
 16 17  1  1
 18 17  2  0
 20 21  1  1
 20 19  1  0
 22 21  1  0
 22 30  1  0
 23 24  1  0
 23 22  2  0
 24 25  1  0
 25 30  2  0
 25 26  1  0
 26 27  2  0
 27 28  1  0
 29 28  2  0
 30 29  1  0
 31 20  1  0
 31 33  1  0
 32 31  2  0
M  END
$$$$
