FPW.pdb
     RDKit          3D

 33 36  0  0  1  0  0  0  0  0999 V2000
    6.5301  -17.2080   25.5486 N   0  0  0  0  0  0  0  0  0  0  0  0
    6.0639  -16.8529   24.2198 C   0  0  1  0  0  0  0  0  0  0  0  0
    5.5793  -15.4114   24.3330 C   0  0  0  0  0  0  0  0  0  0  0  0
    6.3583  -14.7066   25.3681 C   0  0  0  0  0  0  0  0  0  0  0  0
    6.2299  -15.0573   26.6924 C   0  0  0  0  0  0  0  0  0  0  0  0
    6.9660  -14.3867   27.6628 C   0  0  0  0  0  0  0  0  0  0  0  0
    7.8275  -13.3738   27.3429 C   0  0  0  0  0  0  0  0  0  0  0  0
    7.9673  -13.0104   26.0192 C   0  0  0  0  0  0  0  0  0  0  0  0
    7.2189  -13.6962   25.0572 C   0  0  0  0  0  0  0  0  0  0  0  0
    7.1428  -17.0174   23.2235 C   0  0  0  0  0  0  0  0  0  0  0  0
    7.5902  -18.2030   23.0959 O   0  0  0  0  0  0  0  0  0  0  0  0
    7.6539  -15.9439   22.4571 N   0  0  0  0  0  0  0  0  0  0  0  0
    7.3002  -14.5543   22.5658 C   0  0  0  0  0  0  0  0  0  0  0  0
    8.0044  -13.8217   21.4333 C   0  0  0  0  0  0  0  0  0  0  0  0
    8.4081  -14.9046   20.4532 C   0  0  0  0  0  0  0  0  0  0  0  0
    8.6250  -16.0793   21.4193 C   0  0  1  0  0  0  0  0  0  0  0  0
   10.0227  -15.8705   21.9345 C   0  0  0  0  0  0  0  0  0  0  0  0
   10.8623  -15.3280   21.1739 O   0  0  0  0  0  0  0  0  0  0  0  0
   10.4274  -16.2542   23.2220 N   0  0  0  0  0  0  0  0  0  0  0  0
   11.8037  -16.4126   23.6484 C   0  0  1  0  0  0  0  0  0  0  0  0
   12.1367  -15.5381   24.8228 C   0  0  0  0  0  0  0  0  0  0  0  0
   11.1155  -15.7529   25.8765 C   0  0  0  0  0  0  0  0  0  0  0  0
   10.2868  -16.8647   26.0722 C   0  0  0  0  0  0  0  0  0  0  0  0
    9.4995  -16.6521   27.1355 N   0  0  0  0  0  0  0  0  0  0  0  0
    9.7514  -15.4465   27.6760 C   0  0  0  0  0  0  0  0  0  0  0  0
    9.2412  -14.7481   28.7522 C   0  0  0  0  0  0  0  0  0  0  0  0
    9.6936  -13.4832   29.0996 C   0  0  0  0  0  0  0  0  0  0  0  0
   10.6899  -12.9255   28.3256 C   0  0  0  0  0  0  0  0  0  0  0  0
   11.2025  -13.6260   27.2451 C   0  0  0  0  0  0  0  0  0  0  0  0
   10.7479  -14.8886   26.9019 C   0  0  0  0  0  0  0  0  0  0  0  0
   12.0645  -17.8276   24.0145 C   0  0  0  0  0  0  0  0  0  0  0  0
   11.1507  -18.6705   24.1643 O   0  0  0  0  0  0  0  0  0  0  0  0
   13.3924  -18.2592   24.2059 O   0  0  0  0  0  0  0  0  0  0  0  0
  2  1  1  1
  2  3  1  0
  3  4  1  0
  4  5  2  0
  4  9  1  0
  5  6  1  0
  6  7  2  0
  8  7  1  0
  9  8  2  0
 10 12  1  0
 10  2  1  0
 11 10  2  0
 12 16  1  0
 13 12  1  0
 13 14  1  0
 14 15  1  0
 16 15  1  0
 17 19  1  0
 16 17  1  1
 18 17  2  0
 20 21  1  1
 20 19  1  0
 22 21  1  0
 22 30  1  0
 23 24  1  0
 23 22  2  0
 24 25  1  0
 25 30  2  0
 25 26  1  0
 26 27  2  0
 27 28  1  0
 29 28  2  0
 30 29  1  0
 31 20  1  0
 31 33  1  0
 32 31  2  0
M  END
$$$$
