FPW.pdb
     RDKit          3D

 33 36  0  0  1  0  0  0  0  0999 V2000
    5.9220  -19.3459   22.8615 N   0  0  0  0  0  0  0  0  0  0  0  0
    5.8975  -17.9296   22.5409 C   0  0  1  0  0  0  0  0  0  0  0  0
    5.4446  -17.2332   23.8198 C   0  0  0  0  0  0  0  0  0  0  0  0
    6.2921  -17.6661   24.9465 C   0  0  0  0  0  0  0  0  0  0  0  0
    7.1235  -18.7542   24.8115 C   0  0  0  0  0  0  0  0  0  0  0  0
    7.9178  -19.1578   25.8790 C   0  0  0  0  0  0  0  0  0  0  0  0
    7.9022  -18.5010   27.0786 C   0  0  0  0  0  0  0  0  0  0  0  0
    7.0737  -17.4080   27.2295 C   0  0  0  0  0  0  0  0  0  0  0  0
    6.2821  -17.0168   26.1450 C   0  0  0  0  0  0  0  0  0  0  0  0
    7.2249  -17.4727   22.0797 C   0  0  0  0  0  0  0  0  0  0  0  0
    8.0972  -18.3896   21.9366 O   0  0  0  0  0  0  0  0  0  0  0  0
    7.5222  -16.1159   21.8113 N   0  0  0  0  0  0  0  0  0  0  0  0
    6.7332  -14.9677   22.1676 C   0  0  0  0  0  0  0  0  0  0  0  0
    7.3950  -13.7535   21.5326 C   0  0  0  0  0  0  0  0  0  0  0  0
    8.3195  -14.3170   20.4724 C   0  0  0  0  0  0  0  0  0  0  0  0
    8.6845  -15.6631   21.1166 C   0  0  1  0  0  0  0  0  0  0  0  0
    9.8006  -15.3195   22.0647 C   0  0  0  0  0  0  0  0  0  0  0  0
   10.4106  -14.2342   21.8971 O   0  0  0  0  0  0  0  0  0  0  0  0
   10.1883  -16.1551   23.1230 N   0  0  0  0  0  0  0  0  0  0  0  0
   11.2591  -15.8707   24.0577 C   0  0  1  0  0  0  0  0  0  0  0  0
   11.1192  -14.5125   24.6828 C   0  0  0  0  0  0  0  0  0  0  0  0
    9.9268  -14.5188   25.5646 C   0  0  0  0  0  0  0  0  0  0  0  0
    9.4958  -15.5242   26.4390 C   0  0  0  0  0  0  0  0  0  0  0  0
    8.3653  -15.1344   27.0437 N   0  0  0  0  0  0  0  0  0  0  0  0
    8.0033  -13.9090   26.6235 C   0  0  0  0  0  0  0  0  0  0  0  0
    6.9525  -13.0624   26.9153 C   0  0  0  0  0  0  0  0  0  0  0  0
    6.8142  -11.8166   26.3203 C   0  0  0  0  0  0  0  0  0  0  0  0
    7.7751  -11.4336   25.4077 C   0  0  0  0  0  0  0  0  0  0  0  0
    8.8303  -12.2830   25.1144 C   0  0  0  0  0  0  0  0  0  0  0  0
    8.9643  -13.5259   25.7108 C   0  0  0  0  0  0  0  0  0  0  0  0
   11.2823  -16.8939   25.1333 C   0  0  0  0  0  0  0  0  0  0  0  0
   12.1952  -16.9614   25.9877 O   0  0  0  0  0  0  0  0  0  0  0  0
   10.2396  -17.8388   25.2118 O   0  0  0  0  0  0  0  0  0  0  0  0
  2  1  1  1
  2  3  1  0
  3  4  1  0
  4  5  2  0
  4  9  1  0
  5  6  1  0
  6  7  2  0
  8  7  1  0
  9  8  2  0
 10 12  1  0
 10  2  1  0
 11 10  2  0
 12 16  1  0
 13 12  1  0
 13 14  1  0
 14 15  1  0
 16 15  1  0
 17 19  1  0
 16 17  1  1
 18 17  2  0
 20 21  1  1
 20 19  1  0
 22 21  1  0
 22 30  1  0
 23 24  1  0
 23 22  2  0
 24 25  1  0
 25 30  2  0
 25 26  1  0
 26 27  2  0
 27 28  1  0
 29 28  2  0
 30 29  1  0
 31 20  1  0
 31 33  1  0
 32 31  2  0
M  END
$$$$
