SLV.pdb
     RDKit          3D

 22 21  0  0  1  0  0  0  0  0999 V2000
    7.5072  -16.6188   20.8256 O   0  0  0  0  0  0  0  0  0  0  0  0
    6.3983  -15.7888   20.8933 C   0  0  0  0  0  0  0  0  0  0  0  0
    6.8925  -14.3624   21.0311 C   0  0  2  0  0  0  0  0  0  0  0  0
    7.5941  -13.9584   19.8504 N   0  0  0  0  0  0  0  0  0  0  0  0
    7.7691  -14.2109   22.2296 C   0  0  0  0  0  0  0  0  0  0  0  0
    9.0131  -14.1193   22.1268 O   0  0  0  0  0  0  0  0  0  0  0  0
    8.0001  -11.5601   26.2169 C   0  0  0  0  0  0  0  0  0  0  0  0
    6.6931  -12.3051   25.8560 C   0  0  2  0  0  0  0  0  0  0  0  0
    5.7088  -11.9184   26.9042 C   0  0  0  0  0  0  0  0  0  0  0  0
    7.0575  -13.7373   25.8106 C   0  0  0  0  0  0  0  0  0  0  0  0
    8.0037  -14.1919   24.7580 C   0  0  2  0  0  0  0  0  0  0  0  0
    7.1977  -14.1686   23.5093 N   0  0  0  0  0  0  0  0  0  0  0  0
    8.4457  -15.5635   24.9898 C   0  0  0  0  0  0  0  0  0  0  0  0
    7.5709  -16.5056   25.0377 O   0  0  0  0  0  0  0  0  0  0  0  0
   10.7172  -17.8962   22.9883 C   0  0  0  0  0  0  0  0  0  0  0  0
   11.2388  -17.8280   24.3864 C   0  0  1  0  0  0  0  0  0  0  0  0
   12.4634  -17.0000   24.5569 C   0  0  0  0  0  0  0  0  0  0  0  0
   10.1093  -17.4225   25.3076 C   0  0  2  0  0  0  0  0  0  0  0  0
    9.7782  -16.0208   25.1743 N   0  0  0  0  0  0  0  0  0  0  0  0
   10.3955  -17.7240   26.7112 C   0  0  0  0  0  0  0  0  0  0  0  0
   10.6306  -18.9360   27.0245 O   0  0  0  0  0  0  0  0  0  0  0  0
   10.4221  -16.7630   27.7008 O   0  0  0  0  0  0  0  0  0  0  0  0
  2  3  1  0
  2  1  1  0
  3  4  1  6
  5  3  1  0
  6  5  2  0
  8  7  1  1
  8 10  1  0
  9  8  1  0
 11 10  1  1
 11 13  1  0
 11 12  1  0
 12  5  1  0
 13 19  1  0
 14 13  2  0
 16 17  1  6
 16 15  1  0
 18 16  1  0
 18 20  1  0
 18 19  1  1
 20 21  2  0
 20 22  1  0
M  END
$$$$
