SLV.pdb
     RDKit          3D

 22 21  0  0  1  0  0  0  0  0999 V2000
    7.3475  -17.0888   20.7938 O   0  0  0  0  0  0  0  0  0  0  0  0
    6.3512  -16.1567   20.5455 C   0  0  0  0  0  0  0  0  0  0  0  0
    6.9952  -14.7848   20.5129 C   0  0  2  0  0  0  0  0  0  0  0  0
    7.8324  -14.6509   19.3594 N   0  0  0  0  0  0  0  0  0  0  0  0
    7.7835  -14.5317   21.7549 C   0  0  0  0  0  0  0  0  0  0  0  0
    9.0308  -14.6337   21.7739 O   0  0  0  0  0  0  0  0  0  0  0  0
    5.9177  -12.2545   27.0713 C   0  0  0  0  0  0  0  0  0  0  0  0
    7.1794  -12.9136   26.4653 C   0  0  2  0  0  0  0  0  0  0  0  0
    8.2751  -11.9215   26.6444 C   0  0  0  0  0  0  0  0  0  0  0  0
    6.8216  -13.2338   25.0669 C   0  0  0  0  0  0  0  0  0  0  0  0
    7.8336  -13.9156   24.2178 C   0  0  2  0  0  0  0  0  0  0  0  0
    7.1227  -14.1697   22.9374 N   0  0  0  0  0  0  0  0  0  0  0  0
    8.2291  -15.2020   24.7827 C   0  0  0  0  0  0  0  0  0  0  0  0
    7.3370  -16.1124   24.9569 O   0  0  0  0  0  0  0  0  0  0  0  0
   10.4903  -17.7066   23.3442 C   0  0  0  0  0  0  0  0  0  0  0  0
   10.9615  -17.5525   24.7534 C   0  0  1  0  0  0  0  0  0  0  0  0
   12.2510  -16.8255   24.9053 C   0  0  0  0  0  0  0  0  0  0  0  0
    9.8403  -16.9610   25.5791 C   0  0  2  0  0  0  0  0  0  0  0  0
    9.5319  -15.6049   25.1815 N   0  0  0  0  0  0  0  0  0  0  0  0
   10.1240  -16.9949   27.0149 C   0  0  0  0  0  0  0  0  0  0  0  0
   10.2241  -15.8836   27.6291 O   0  0  0  0  0  0  0  0  0  0  0  0
   10.2860  -18.1660   27.7261 O   0  0  0  0  0  0  0  0  0  0  0  0
  2  3  1  0
  2  1  1  0
  3  4  1  6
  5  3  1  0
  6  5  2  0
  8  7  1  1
  8 10  1  0
  9  8  1  0
 11 10  1  1
 11 13  1  0
 11 12  1  0
 12  5  1  0
 13 19  1  0
 14 13  2  0
 16 17  1  6
 16 15  1  0
 18 16  1  0
 18 20  1  0
 18 19  1  6
 20 21  2  0
 20 22  1  0
M  END
$$$$
