SLV.pdb
     RDKit          3D

 22 21  0  0  1  0  0  0  0  0999 V2000
    6.1675  -16.8901   19.9817 O   0  0  0  0  0  0  0  0  0  0  0  0
    7.1060  -16.6713   20.9790 C   0  0  0  0  0  0  0  0  0  0  0  0
    7.2698  -15.1734   21.1433 C   0  0  2  0  0  0  0  0  0  0  0  0
    7.9074  -14.6093   19.9924 N   0  0  0  0  0  0  0  0  0  0  0  0
    8.0483  -14.8499   22.3750 C   0  0  0  0  0  0  0  0  0  0  0  0
    9.2932  -14.7221   22.3512 O   0  0  0  0  0  0  0  0  0  0  0  0
    8.1505  -11.7443   26.0125 C   0  0  0  0  0  0  0  0  0  0  0  0
    6.8253  -12.4441   25.6282 C   0  0  2  0  0  0  0  0  0  0  0  0
    5.7914  -11.8687   26.5321 C   0  0  0  0  0  0  0  0  0  0  0  0
    7.0858  -13.8910   25.7850 C   0  0  0  0  0  0  0  0  0  0  0  0
    8.0906  -14.5279   24.8936 C   0  0  2  0  0  0  0  0  0  0  0  0
    7.3808  -14.6823   23.5967 N   0  0  0  0  0  0  0  0  0  0  0  0
    8.4646  -15.8562   25.3693 C   0  0  0  0  0  0  0  0  0  0  0  0
    7.5555  -16.7580   25.4931 O   0  0  0  0  0  0  0  0  0  0  0  0
   10.6035  -18.3254   23.8111 C   0  0  0  0  0  0  0  0  0  0  0  0
   11.0951  -18.3072   25.2215 C   0  0  1  0  0  0  0  0  0  0  0  0
   12.4421  -17.7021   25.4062 C   0  0  0  0  0  0  0  0  0  0  0  0
   10.0329  -17.6818   26.0987 C   0  0  2  0  0  0  0  0  0  0  0  0
    9.7624  -16.3102   25.7276 N   0  0  0  0  0  0  0  0  0  0  0  0
   10.3735  -17.7434   27.5212 C   0  0  0  0  0  0  0  0  0  0  0  0
   10.5568  -16.6443   28.1382 O   0  0  0  0  0  0  0  0  0  0  0  0
   10.5032  -18.9277   28.2170 O   0  0  0  0  0  0  0  0  0  0  0  0
  2  3  1  0
  2  1  1  0
  3  4  1  6
  5  3  1  0
  6  5  2  0
  8  7  1  1
  8 10  1  0
  9  8  1  0
 11 10  1  1
 11 13  1  0
 11 12  1  0
 12  5  1  0
 13 19  1  0
 14 13  2  0
 16 17  1  6
 16 15  1  0
 18 16  1  0
 18 20  1  0
 18 19  1  6
 20 21  2  0
 20 22  1  0
M  END
$$$$
