SLV.pdb
     RDKit          3D

 22 21  0  0  1  0  0  0  0  0999 V2000
    8.2643  -17.5995   21.4253 O   0  0  0  0  0  0  0  0  0  0  0  0
    7.0770  -16.8864   21.3549 C   0  0  0  0  0  0  0  0  0  0  0  0
    7.4240  -15.4165   21.2247 C   0  0  2  0  0  0  0  0  0  0  0  0
    8.2663  -15.1989   20.0877 N   0  0  0  0  0  0  0  0  0  0  0  0
    8.0865  -14.9091   22.4623 C   0  0  0  0  0  0  0  0  0  0  0  0
    9.3059  -14.6286   22.4873 O   0  0  0  0  0  0  0  0  0  0  0  0
    7.3284  -11.4403   25.8095 C   0  0  0  0  0  0  0  0  0  0  0  0
    6.1561  -12.3976   25.4890 C   0  0  2  0  0  0  0  0  0  0  0  0
    5.0572  -12.0100   26.4160 C   0  0  0  0  0  0  0  0  0  0  0  0
    6.7014  -13.7600   25.6694 C   0  0  0  0  0  0  0  0  0  0  0  0
    7.8977  -14.1518   24.8787 C   0  0  2  0  0  0  0  0  0  0  0  0
    7.3353  -14.7377   23.6338 N   0  0  0  0  0  0  0  0  0  0  0  0
    8.6752  -15.1839   25.5575 C   0  0  0  0  0  0  0  0  0  0  0  0
    8.2488  -16.3977   25.5505 O   0  0  0  0  0  0  0  0  0  0  0  0
   12.0089  -14.5642   28.0736 C   0  0  0  0  0  0  0  0  0  0  0  0
   12.0614  -15.7486   27.1648 C   0  0  1  0  0  0  0  0  0  0  0  0
   12.8717  -16.8895   27.6711 C   0  0  0  0  0  0  0  0  0  0  0  0
   10.6480  -16.1380   26.7912 C   0  0  2  0  0  0  0  0  0  0  0  0
    9.9019  -15.0207   26.2554 N   0  0  0  0  0  0  0  0  0  0  0  0
    9.9122  -16.7213   27.9144 C   0  0  0  0  0  0  0  0  0  0  0  0
    9.1100  -15.9686   28.5566 O   0  0  0  0  0  0  0  0  0  0  0  0
   10.0471  -18.0377   28.3046 O   0  0  0  0  0  0  0  0  0  0  0  0
  2  3  1  0
  2  1  1  0
  3  4  1  6
  5  3  1  0
  6  5  2  0
  8  7  1  1
  8 10  1  0
  9  8  1  0
 11 10  1  1
 11 13  1  0
 11 12  1  0
 12  5  1  0
 13 19  1  0
 14 13  2  0
 16 17  1  1
 16 15  1  0
 18 16  1  0
 18 20  1  0
 18 19  1  1
 20 21  2  0
 20 22  1  0
M  END
$$$$
