SLV.pdb
     RDKit          3D

 22 21  0  0  1  0  0  0  0  0999 V2000
    7.5449  -17.2426   21.1554 O   0  0  0  0  0  0  0  0  0  0  0  0
    6.5214  -16.3172   21.0174 C   0  0  0  0  0  0  0  0  0  0  0  0
    7.1352  -14.9324   21.0763 C   0  0  2  0  0  0  0  0  0  0  0  0
    7.9346  -14.6883   19.9141 N   0  0  0  0  0  0  0  0  0  0  0  0
    7.9547  -14.7600   22.3118 C   0  0  0  0  0  0  0  0  0  0  0  0
    9.2046  -14.8179   22.2850 O   0  0  0  0  0  0  0  0  0  0  0  0
    7.8313  -11.4553   25.6974 C   0  0  0  0  0  0  0  0  0  0  0  0
    6.5928  -12.3555   25.4756 C   0  0  2  0  0  0  0  0  0  0  0  0
    5.5502  -11.8385   26.4044 C   0  0  0  0  0  0  0  0  0  0  0  0
    7.0590  -13.7347   25.7329 C   0  0  0  0  0  0  0  0  0  0  0  0
    8.0658  -14.3231   24.8109 C   0  0  2  0  0  0  0  0  0  0  0  0
    7.3210  -14.5266   23.5407 N   0  0  0  0  0  0  0  0  0  0  0  0
    8.5284  -15.6250   25.2815 C   0  0  0  0  0  0  0  0  0  0  0  0
    7.6962  -16.6044   25.3379 O   0  0  0  0  0  0  0  0  0  0  0  0
   11.3505  -17.6668   23.8943 C   0  0  0  0  0  0  0  0  0  0  0  0
   11.5192  -17.7328   25.3771 C   0  0  1  0  0  0  0  0  0  0  0  0
   12.6974  -16.9931   25.9056 C   0  0  0  0  0  0  0  0  0  0  0  0
   10.2167  -17.3305   26.0331 C   0  0  2  0  0  0  0  0  0  0  0  0
    9.8398  -15.9738   25.7023 N   0  0  0  0  0  0  0  0  0  0  0  0
   10.2513  -17.4853   27.4885 C   0  0  0  0  0  0  0  0  0  0  0  0
   10.0448  -16.4512   28.2029 O   0  0  0  0  0  0  0  0  0  0  0  0
   10.4949  -18.6901   28.1151 O   0  0  0  0  0  0  0  0  0  0  0  0
  2  3  1  0
  2  1  1  0
  3  4  1  6
  5  3  1  0
  6  5  2  0
  8  7  1  1
  8 10  1  0
  9  8  1  0
 11 10  1  1
 11 13  1  0
 11 12  1  0
 12  5  1  0
 13 19  1  0
 14 13  2  0
 16 17  1  1
 16 15  1  0
 18 16  1  0
 18 20  1  0
 18 19  1  1
 20 21  2  0
 20 22  1  0
M  END
$$$$
