SLV.pdb
     RDKit          3D

 22 21  0  0  1  0  0  0  0  0999 V2000
    7.1463  -17.3926   20.2625 O   0  0  0  0  0  0  0  0  0  0  0  0
    7.5197  -17.0205   21.5451 C   0  0  0  0  0  0  0  0  0  0  0  0
    7.8089  -15.5325   21.5324 C   0  0  2  0  0  0  0  0  0  0  0  0
    8.6113  -15.1873   20.3982 N   0  0  0  0  0  0  0  0  0  0  0  0
    8.4857  -15.1059   22.7925 C   0  0  0  0  0  0  0  0  0  0  0  0
    9.7323  -15.0331   22.8769 O   0  0  0  0  0  0  0  0  0  0  0  0
    7.9540  -11.6272   25.9913 C   0  0  0  0  0  0  0  0  0  0  0  0
    6.7469  -12.5459   25.6874 C   0  0  2  0  0  0  0  0  0  0  0  0
    5.6194  -12.0071   26.4970 C   0  0  0  0  0  0  0  0  0  0  0  0
    7.1956  -13.9112   26.0351 C   0  0  0  0  0  0  0  0  0  0  0  0
    8.3110  -14.5079   25.2542 C   0  0  2  0  0  0  0  0  0  0  0  0
    7.7175  -14.7754   23.9179 N   0  0  0  0  0  0  0  0  0  0  0  0
    8.7441  -15.7802   25.8235 C   0  0  0  0  0  0  0  0  0  0  0  0
    7.9201  -16.7677   25.8535 O   0  0  0  0  0  0  0  0  0  0  0  0
   12.6794  -16.9245   26.0657 C   0  0  0  0  0  0  0  0  0  0  0  0
   11.5847  -17.9370   25.9781 C   0  0  1  0  0  0  0  0  0  0  0  0
   11.9846  -19.3231   26.3435 C   0  0  0  0  0  0  0  0  0  0  0  0
   10.3920  -17.4327   26.7604 C   0  0  2  0  0  0  0  0  0  0  0  0
   10.0174  -16.0907   26.3720 N   0  0  0  0  0  0  0  0  0  0  0  0
   10.6113  -17.4777   28.2071 C   0  0  0  0  0  0  0  0  0  0  0  0
   10.7802  -18.6180   28.7491 O   0  0  0  0  0  0  0  0  0  0  0  0
   10.6433  -16.3508   29.0025 O   0  0  0  0  0  0  0  0  0  0  0  0
  2  3  1  0
  2  1  1  0
  3  4  1  6
  5  3  1  0
  6  5  2  0
  8  7  1  1
  8 10  1  0
  9  8  1  0
 11 10  1  1
 11 13  1  0
 11 12  1  0
 12  5  1  0
 13 19  1  0
 14 13  2  0
 16 17  1  1
 16 15  1  0
 18 16  1  0
 18 20  1  0
 18 19  1  6
 20 21  2  0
 20 22  1  0
M  END
$$$$
