SLV.pdb
     RDKit          3D

 22 21  0  0  1  0  0  0  0  0999 V2000
    6.4929  -16.9661   19.9555 O   0  0  0  0  0  0  0  0  0  0  0  0
    7.2855  -16.7897   21.0797 C   0  0  0  0  0  0  0  0  0  0  0  0
    7.5235  -15.3026   21.2525 C   0  0  2  0  0  0  0  0  0  0  0  0
    8.2037  -14.7676   20.1121 N   0  0  0  0  0  0  0  0  0  0  0  0
    8.3018  -15.0239   22.4952 C   0  0  0  0  0  0  0  0  0  0  0  0
    9.5521  -14.9670   22.4889 O   0  0  0  0  0  0  0  0  0  0  0  0
    8.2851  -11.7779   25.9604 C   0  0  0  0  0  0  0  0  0  0  0  0
    6.9828  -12.5524   25.6479 C   0  0  2  0  0  0  0  0  0  0  0  0
    5.9467  -11.9736   26.5471 C   0  0  0  0  0  0  0  0  0  0  0  0
    7.3095  -13.9766   25.8735 C   0  0  0  0  0  0  0  0  0  0  0  0
    8.3310  -14.6132   25.0010 C   0  0  2  0  0  0  0  0  0  0  0  0
    7.6279  -14.8186   23.7076 N   0  0  0  0  0  0  0  0  0  0  0  0
    8.7350  -15.9192   25.5126 C   0  0  0  0  0  0  0  0  0  0  0  0
    7.8439  -16.8326   25.6765 O   0  0  0  0  0  0  0  0  0  0  0  0
   11.2542  -18.2777   24.0274 C   0  0  0  0  0  0  0  0  0  0  0  0
   11.5680  -18.2249   25.4869 C   0  0  1  0  0  0  0  0  0  0  0  0
   12.8218  -17.5008   25.8308 C   0  0  0  0  0  0  0  0  0  0  0  0
   10.3549  -17.7053   26.2267 C   0  0  2  0  0  0  0  0  0  0  0  0
   10.0453  -16.3389   25.8671 N   0  0  0  0  0  0  0  0  0  0  0  0
   10.4996  -17.8057   27.6800 C   0  0  0  0  0  0  0  0  0  0  0  0
   10.4520  -16.7294   28.3594 O   0  0  0  0  0  0  0  0  0  0  0  0
   10.6831  -19.0029   28.3406 O   0  0  0  0  0  0  0  0  0  0  0  0
  2  3  1  0
  2  1  1  0
  3  4  1  6
  5  3  1  0
  6  5  2  0
  8  7  1  1
  8 10  1  0
  9  8  1  0
 11 10  1  1
 11 13  1  0
 11 12  1  0
 12  5  1  0
 13 19  1  0
 14 13  2  0
 16 17  1  6
 16 15  1  0
 18 16  1  0
 18 20  1  0
 18 19  1  1
 20 21  2  0
 20 22  1  0
M  END
$$$$
