SLV.pdb
     RDKit          3D

 22 21  0  0  1  0  0  0  0  0999 V2000
   10.1170  -18.4028   21.9013 O   0  0  0  0  0  0  0  0  0  0  0  0
    8.8588  -17.9285   21.5623 C   0  0  0  0  0  0  0  0  0  0  0  0
    9.0010  -16.4714   21.1693 C   0  0  2  0  0  0  0  0  0  0  0  0
   10.0125  -16.3186   20.1677 N   0  0  0  0  0  0  0  0  0  0  0  0
    9.3176  -15.6232   22.3560 C   0  0  0  0  0  0  0  0  0  0  0  0
   10.4585  -15.1400   22.5331 O   0  0  0  0  0  0  0  0  0  0  0  0
    5.5086  -12.8619   26.1513 C   0  0  0  0  0  0  0  0  0  0  0  0
    7.0320  -13.0665   25.9753 C   0  0  2  0  0  0  0  0  0  0  0  0
    7.5893  -11.7129   25.7030 C   0  0  0  0  0  0  0  0  0  0  0  0
    7.1718  -14.0531   24.8830 C   0  0  0  0  0  0  0  0  0  0  0  0
    8.5403  -14.4738   24.4827 C   0  0  2  0  0  0  0  0  0  0  0  0
    8.3209  -15.3529   23.3044 N   0  0  0  0  0  0  0  0  0  0  0  0
    9.1858  -15.2636   25.5268 C   0  0  0  0  0  0  0  0  0  0  0  0
    9.2119  -16.5454   25.4189 O   0  0  0  0  0  0  0  0  0  0  0  0
   10.2553  -14.0202   29.3300 C   0  0  0  0  0  0  0  0  0  0  0  0
   11.3064  -14.8401   28.6560 C   0  0  1  0  0  0  0  0  0  0  0  0
   12.1194  -15.6878   29.5698 C   0  0  0  0  0  0  0  0  0  0  0  0
   10.6665  -15.6193   27.5281 C   0  0  2  0  0  0  0  0  0  0  0  0
    9.8241  -14.7830   26.7016 N   0  0  0  0  0  0  0  0  0  0  0  0
    9.8935  -16.7663   28.0077 C   0  0  0  0  0  0  0  0  0  0  0  0
    8.6261  -16.6509   28.0601 O   0  0  0  0  0  0  0  0  0  0  0  0
   10.4709  -17.9558   28.4015 O   0  0  0  0  0  0  0  0  0  0  0  0
  2  3  1  0
  2  1  1  0
  3  4  1  6
  5  3  1  0
  6  5  2  0
  8  7  1  6
  8 10  1  0
  9  8  1  0
 11 10  1  1
 11 13  1  0
 11 12  1  0
 12  5  1  0
 13 19  1  0
 14 13  2  0
 16 17  1  1
 16 15  1  0
 18 16  1  0
 18 20  1  0
 18 19  1  1
 20 21  2  0
 20 22  1  0
M  END
$$$$
