SLV.pdb
     RDKit          3D

 22 21  0  0  1  0  0  0  0  0999 V2000
    8.1165  -17.5375   21.8791 O   0  0  0  0  0  0  0  0  0  0  0  0
    6.9006  -16.8726   21.8274 C   0  0  0  0  0  0  0  0  0  0  0  0
    7.1864  -15.3890   21.7055 C   0  0  2  0  0  0  0  0  0  0  0  0
    7.8291  -15.1028   20.4587 N   0  0  0  0  0  0  0  0  0  0  0  0
    8.0269  -14.9085   22.8416 C   0  0  0  0  0  0  0  0  0  0  0  0
    9.2623  -14.7467   22.7228 O   0  0  0  0  0  0  0  0  0  0  0  0
    7.7532  -11.2586   25.6918 C   0  0  0  0  0  0  0  0  0  0  0  0
    6.5842  -12.2717   25.7193 C   0  0  2  0  0  0  0  0  0  0  0  0
    5.5702  -11.6885   26.6405 C   0  0  0  0  0  0  0  0  0  0  0  0
    7.1850  -13.5524   26.1491 C   0  0  0  0  0  0  0  0  0  0  0  0
    8.2026  -14.1851   25.2694 C   0  0  2  0  0  0  0  0  0  0  0  0
    7.4302  -14.6276   24.0789 N   0  0  0  0  0  0  0  0  0  0  0  0
    8.7929  -15.3649   25.8939 C   0  0  0  0  0  0  0  0  0  0  0  0
    8.0564  -16.3983   26.1058 O   0  0  0  0  0  0  0  0  0  0  0  0
   11.9338  -17.3752   24.8740 C   0  0  0  0  0  0  0  0  0  0  0  0
   12.0175  -17.1131   26.3422 C   0  0  1  0  0  0  0  0  0  0  0  0
   13.0480  -16.1165   26.7415 C   0  0  0  0  0  0  0  0  0  0  0  0
   10.6339  -16.7820   26.8568 C   0  0  2  0  0  0  0  0  0  0  0  0
   10.1388  -15.5351   26.3161 N   0  0  0  0  0  0  0  0  0  0  0  0
   10.5762  -16.7358   28.3189 C   0  0  0  0  0  0  0  0  0  0  0  0
   10.8616  -17.7986   28.9604 O   0  0  0  0  0  0  0  0  0  0  0  0
   10.2300  -15.6032   29.0266 O   0  0  0  0  0  0  0  0  0  0  0  0
  2  3  1  0
  2  1  1  0
  3  4  1  6
  5  3  1  0
  6  5  2  0
  8  7  1  1
  8 10  1  0
  9  8  1  0
 11 10  1  1
 11 13  1  0
 11 12  1  0
 12  5  1  0
 13 19  1  0
 14 13  2  0
 16 17  1  6
 16 15  1  0
 18 16  1  0
 18 20  1  0
 18 19  1  6
 20 21  2  0
 20 22  1  0
M  END
$$$$
