SLV.pdb
     RDKit          3D

 22 21  0  0  1  0  0  0  0  0999 V2000
   10.7166  -18.7171   21.4283 O   0  0  0  0  0  0  0  0  0  0  0  0
    9.4896  -18.2055   21.8231 C   0  0  0  0  0  0  0  0  0  0  0  0
    9.3837  -16.7892   21.2931 C   0  0  2  0  0  0  0  0  0  0  0  0
   10.3633  -16.5603   20.2745 N   0  0  0  0  0  0  0  0  0  0  0  0
    9.5393  -15.7913   22.3921 C   0  0  0  0  0  0  0  0  0  0  0  0
   10.6019  -15.1496   22.5518 O   0  0  0  0  0  0  0  0  0  0  0  0
    5.3824  -13.1455   25.8889 C   0  0  0  0  0  0  0  0  0  0  0  0
    6.9220  -13.2481   25.7767 C   0  0  2  0  0  0  0  0  0  0  0  0
    7.3909  -11.8775   25.4321 C   0  0  0  0  0  0  0  0  0  0  0  0
    7.1726  -14.2903   24.7584 C   0  0  0  0  0  0  0  0  0  0  0  0
    8.5813  -14.6499   24.4484 C   0  0  2  0  0  0  0  0  0  0  0  0
    8.4758  -15.5568   23.2754 N   0  0  0  0  0  0  0  0  0  0  0  0
    9.1994  -15.3911   25.5434 C   0  0  0  0  0  0  0  0  0  0  0  0
    9.3561  -16.6631   25.4311 O   0  0  0  0  0  0  0  0  0  0  0  0
   11.7300  -13.6213   28.3015 C   0  0  0  0  0  0  0  0  0  0  0  0
   11.0026  -14.8097   28.8401 C   0  0  1  0  0  0  0  0  0  0  0  0
    9.9437  -14.4952   29.8373 C   0  0  0  0  0  0  0  0  0  0  0  0
   10.5032  -15.6414   27.6792 C   0  0  2  0  0  0  0  0  0  0  0  0
    9.6787  -14.8700   26.7752 N   0  0  0  0  0  0  0  0  0  0  0  0
    9.7672  -16.8288   28.1166 C   0  0  0  0  0  0  0  0  0  0  0  0
    8.4966  -16.8085   28.0285 O   0  0  0  0  0  0  0  0  0  0  0  0
   10.3823  -17.9587   28.6151 O   0  0  0  0  0  0  0  0  0  0  0  0
  2  3  1  0
  2  1  1  0
  3  4  1  6
  5  3  1  0
  6  5  2  0
  8  7  1  6
  8 10  1  0
  9  8  1  0
 11 10  1  1
 11 13  1  0
 11 12  1  0
 12  5  1  0
 13 19  1  0
 14 13  2  0
 16 17  1  6
 16 15  1  0
 18 16  1  0
 18 20  1  0
 18 19  1  6
 20 21  2  0
 20 22  1  0
M  END
$$$$
