SLV.pdb
     RDKit          3D

 22 21  0  0  1  0  0  0  0  0999 V2000
    7.5791  -17.1539   21.1754 O   0  0  0  0  0  0  0  0  0  0  0  0
    6.5460  -16.2317   21.1030 C   0  0  0  0  0  0  0  0  0  0  0  0
    7.1577  -14.8449   21.1262 C   0  0  2  0  0  0  0  0  0  0  0  0
    7.9646  -14.6331   19.9627 N   0  0  0  0  0  0  0  0  0  0  0  0
    7.9688  -14.6361   22.3616 C   0  0  0  0  0  0  0  0  0  0  0  0
    9.2201  -14.6416   22.3352 O   0  0  0  0  0  0  0  0  0  0  0  0
    8.0357  -11.5999   26.1450 C   0  0  0  0  0  0  0  0  0  0  0  0
    6.7371  -12.3338   25.7345 C   0  0  2  0  0  0  0  0  0  0  0  0
    5.6860  -11.8398   26.6662 C   0  0  0  0  0  0  0  0  0  0  0  0
    7.0549  -13.7748   25.8266 C   0  0  0  0  0  0  0  0  0  0  0  0
    8.0548  -14.3389   24.8821 C   0  0  2  0  0  0  0  0  0  0  0  0
    7.3255  -14.4272   23.5899 N   0  0  0  0  0  0  0  0  0  0  0  0
    8.4591  -15.6865   25.2703 C   0  0  0  0  0  0  0  0  0  0  0  0
    7.5829  -16.6286   25.2739 O   0  0  0  0  0  0  0  0  0  0  0  0
   12.3543  -17.1020   25.0932 C   0  0  0  0  0  0  0  0  0  0  0  0
   11.1666  -17.9965   24.9490 C   0  0  1  0  0  0  0  0  0  0  0  0
   11.4576  -19.4492   25.0886 C   0  0  0  0  0  0  0  0  0  0  0  0
   10.0772  -17.5124   25.8805 C   0  0  2  0  0  0  0  0  0  0  0  0
    9.7550  -16.1197   25.6598 N   0  0  0  0  0  0  0  0  0  0  0  0
   10.4140  -17.7168   27.2904 C   0  0  0  0  0  0  0  0  0  0  0  0
   10.5863  -16.6854   28.0177 O   0  0  0  0  0  0  0  0  0  0  0  0
   10.5515  -18.9651   27.8617 O   0  0  0  0  0  0  0  0  0  0  0  0
  2  3  1  0
  2  1  1  0
  3  4  1  6
  5  3  1  0
  6  5  2  0
  8  7  1  1
  8 10  1  0
  9  8  1  0
 11 10  1  1
 11 13  1  0
 11 12  1  0
 12  5  1  0
 13 19  1  0
 14 13  2  0
 16 17  1  1
 16 15  1  0
 18 16  1  0
 18 20  1  0
 18 19  1  1
 20 21  2  0
 20 22  1  0
M  END
$$$$
