SLV.pdb
     RDKit          3D

 22 21  0  0  1  0  0  0  0  0999 V2000
    5.5171  -16.5569   20.6572 O   0  0  0  0  0  0  0  0  0  0  0  0
    6.8621  -16.2296   20.7406 C   0  0  0  0  0  0  0  0  0  0  0  0
    6.9621  -14.7614   21.1039 C   0  0  2  0  0  0  0  0  0  0  0  0
    7.4412  -14.0005   19.9900 N   0  0  0  0  0  0  0  0  0  0  0  0
    7.8501  -14.5599   22.2867 C   0  0  0  0  0  0  0  0  0  0  0  0
    9.0872  -14.4163   22.1630 O   0  0  0  0  0  0  0  0  0  0  0  0
    8.0084  -11.6880   26.0203 C   0  0  0  0  0  0  0  0  0  0  0  0
    6.7255  -12.5227   25.7948 C   0  0  2  0  0  0  0  0  0  0  0  0
    5.7799  -12.1012   26.8651 C   0  0  0  0  0  0  0  0  0  0  0  0
    7.1628  -13.9344   25.8400 C   0  0  0  0  0  0  0  0  0  0  0  0
    8.1203  -14.4101   24.8072 C   0  0  2  0  0  0  0  0  0  0  0  0
    7.2974  -14.5284   23.5749 N   0  0  0  0  0  0  0  0  0  0  0  0
    8.6472  -15.7319   25.1321 C   0  0  0  0  0  0  0  0  0  0  0  0
    7.8268  -16.6963   25.3604 O   0  0  0  0  0  0  0  0  0  0  0  0
   11.0765  -17.8263   23.0901 C   0  0  0  0  0  0  0  0  0  0  0  0
   11.5613  -17.8734   24.5023 C   0  0  1  0  0  0  0  0  0  0  0  0
   12.8093  -17.1051   24.7606 C   0  0  0  0  0  0  0  0  0  0  0  0
   10.4218  -17.4902   25.4207 C   0  0  2  0  0  0  0  0  0  0  0  0
   10.0114  -16.1163   25.2306 N   0  0  0  0  0  0  0  0  0  0  0  0
   10.7410  -17.7123   26.8321 C   0  0  0  0  0  0  0  0  0  0  0  0
   11.0381  -18.8960   27.1967 O   0  0  0  0  0  0  0  0  0  0  0  0
   10.7347  -16.7063   27.7761 O   0  0  0  0  0  0  0  0  0  0  0  0
  2  3  1  0
  2  1  1  0
  3  4  1  6
  5  3  1  0
  6  5  2  0
  8  7  1  1
  8 10  1  0
  9  8  1  0
 11 10  1  1
 11 13  1  0
 11 12  1  0
 12  5  1  0
 13 19  1  0
 14 13  2  0
 16 17  1  6
 16 15  1  0
 18 16  1  0
 18 20  1  0
 18 19  1  1
 20 21  2  0
 20 22  1  0
M  END
$$$$
