SLV.pdb
     RDKit          3D

 22 21  0  0  1  0  0  0  0  0999 V2000
    8.1058  -17.4523   21.2702 O   0  0  0  0  0  0  0  0  0  0  0  0
    7.0080  -16.6056   21.3047 C   0  0  0  0  0  0  0  0  0  0  0  0
    7.5207  -15.1792   21.3151 C   0  0  2  0  0  0  0  0  0  0  0  0
    8.3435  -14.9336   20.1695 N   0  0  0  0  0  0  0  0  0  0  0  0
    8.2800  -14.8902   22.5672 C   0  0  0  0  0  0  0  0  0  0  0  0
    9.5273  -14.7864   22.5705 O   0  0  0  0  0  0  0  0  0  0  0  0
    8.1942  -11.8494   26.3128 C   0  0  0  0  0  0  0  0  0  0  0  0
    6.9168  -12.5991   25.8659 C   0  0  2  0  0  0  0  0  0  0  0  0
    5.8287  -12.0994   26.7509 C   0  0  0  0  0  0  0  0  0  0  0  0
    7.2411  -14.0362   25.9912 C   0  0  0  0  0  0  0  0  0  0  0  0
    8.2770  -14.6071   25.0908 C   0  0  2  0  0  0  0  0  0  0  0  0
    7.5911  -14.7285   23.7777 N   0  0  0  0  0  0  0  0  0  0  0  0
    8.6827  -15.9424   25.5182 C   0  0  0  0  0  0  0  0  0  0  0  0
    7.8139  -16.8912   25.5233 O   0  0  0  0  0  0  0  0  0  0  0  0
   11.0220  -18.3214   23.9978 C   0  0  0  0  0  0  0  0  0  0  0  0
   11.4458  -18.2488   25.4284 C   0  0  1  0  0  0  0  0  0  0  0  0
   12.7136  -17.5072   25.6679 C   0  0  0  0  0  0  0  0  0  0  0  0
   10.2868  -17.7343   26.2535 C   0  0  2  0  0  0  0  0  0  0  0  0
    9.9727  -16.3562   25.9464 N   0  0  0  0  0  0  0  0  0  0  0  0
   10.5187  -17.8720   27.6924 C   0  0  0  0  0  0  0  0  0  0  0  0
   10.5141  -16.8135   28.4008 O   0  0  0  0  0  0  0  0  0  0  0  0
   10.7396  -19.0858   28.3098 O   0  0  0  0  0  0  0  0  0  0  0  0
  2  3  1  0
  2  1  1  0
  3  4  1  6
  5  3  1  0
  6  5  2  0
  8  7  1  1
  8 10  1  0
  9  8  1  0
 11 10  1  1
 11 13  1  0
 11 12  1  0
 12  5  1  0
 13 19  1  0
 14 13  2  0
 16 17  1  6
 16 15  1  0
 18 16  1  0
 18 20  1  0
 18 19  1  1
 20 21  2  0
 20 22  1  0
M  END
$$$$
