SLV.pdb
     RDKit          3D

 22 21  0  0  1  0  0  0  0  0999 V2000
    7.9029  -18.2868   22.6472 O   0  0  0  0  0  0  0  0  0  0  0  0
    8.4891  -17.8404   21.4724 C   0  0  0  0  0  0  0  0  0  0  0  0
    8.2307  -16.3510   21.3602 C   0  0  2  0  0  0  0  0  0  0  0  0
    8.8377  -15.8245   20.1754 N   0  0  0  0  0  0  0  0  0  0  0  0
    8.7345  -15.6261   22.5639 C   0  0  0  0  0  0  0  0  0  0  0  0
    9.9536  -15.3973   22.7311 O   0  0  0  0  0  0  0  0  0  0  0  0
    5.5709  -12.5558   26.7330 C   0  0  0  0  0  0  0  0  0  0  0  0
    7.0381  -12.9505   26.4413 C   0  0  2  0  0  0  0  0  0  0  0  0
    7.7814  -11.6663   26.3172 C   0  0  0  0  0  0  0  0  0  0  0  0
    6.9849  -13.7852   25.2221 C   0  0  0  0  0  0  0  0  0  0  0  0
    8.2449  -14.4075   24.7373 C   0  0  2  0  0  0  0  0  0  0  0  0
    7.8300  -15.1846   23.5400 N   0  0  0  0  0  0  0  0  0  0  0  0
    8.7950  -15.3391   25.7171 C   0  0  0  0  0  0  0  0  0  0  0  0
    8.1931  -16.4563   25.9283 O   0  0  0  0  0  0  0  0  0  0  0  0
   12.2433  -16.9073   25.5834 C   0  0  0  0  0  0  0  0  0  0  0  0
   12.0533  -16.3750   26.9662 C   0  0  1  0  0  0  0  0  0  0  0  0
   12.8078  -15.1276   27.2650 C   0  0  0  0  0  0  0  0  0  0  0  0
   10.5705  -16.2580   27.2427 C   0  0  2  0  0  0  0  0  0  0  0  0
    9.9658  -15.1712   26.5043 N   0  0  0  0  0  0  0  0  0  0  0  0
   10.2772  -16.1009   28.6683 C   0  0  0  0  0  0  0  0  0  0  0  0
    9.7137  -15.0226   29.0455 O   0  0  0  0  0  0  0  0  0  0  0  0
   10.5806  -17.0597   29.6129 O   0  0  0  0  0  0  0  0  0  0  0  0
  2  3  1  0
  2  1  1  0
  3  4  1  6
  5  3  1  0
  6  5  2  0
  8  7  1  6
  8 10  1  0
  9  8  1  0
 11 10  1  1
 11 13  1  0
 11 12  1  0
 12  5  1  0
 13 19  1  0
 14 13  2  0
 16 17  1  6
 16 15  1  0
 18 16  1  0
 18 20  1  0
 18 19  1  6
 20 21  2  0
 20 22  1  0
M  END
$$$$
