FSV.pdb
     RDKit          3D

 25 25  0  0  1  0  0  0  0  0999 V2000
   13.1775   -9.5355  -10.4636 N   0  0  0  0  0  0  0  0  0  0  0  0
   14.1458   -8.4753  -10.4696 C   0  0  1  0  0  0  0  0  0  0  0  0
   14.9059   -8.5156   -9.1622 C   0  0  0  0  0  0  0  0  0  0  0  0
   14.2331   -7.6010   -8.2198 C   0  0  0  0  0  0  0  0  0  0  0  0
   13.0288   -7.9610   -7.6776 C   0  0  0  0  0  0  0  0  0  0  0  0
   12.3703   -7.1278   -6.7908 C   0  0  0  0  0  0  0  0  0  0  0  0
   12.9589   -5.9125   -6.4601 C   0  0  0  0  0  0  0  0  0  0  0  0
   14.1660   -5.5493   -7.0022 C   0  0  0  0  0  0  0  0  0  0  0  0
   14.7952   -6.4061   -7.8843 C   0  0  0  0  0  0  0  0  0  0  0  0
   15.1384   -8.6382  -11.5570 C   0  0  0  0  0  0  0  0  0  0  0  0
   15.3792   -9.7644  -12.0436 O   0  0  0  0  0  0  0  0  0  0  0  0
   15.8938   -5.6054  -14.1768 O   0  0  0  0  0  0  0  0  0  0  0  0
   16.1583   -6.9358  -14.4672 C   0  0  0  0  0  0  0  0  0  0  0  0
   16.6314   -7.6976  -13.2714 C   0  0  2  0  0  0  0  0  0  0  0  0
   15.8582   -7.5505  -12.0982 N   0  0  0  0  0  0  0  0  0  0  0  0
   18.0281   -7.2521  -12.9561 C   0  0  0  0  0  0  0  0  0  0  0  0
   18.2672   -6.4503  -12.0166 O   0  0  0  0  0  0  0  0  0  0  0  0
   21.2554   -9.5678  -13.3561 C   0  0  0  0  0  0  0  0  0  0  0  0
   21.4524   -8.2377  -13.9945 C   0  0  2  0  0  0  0  0  0  0  0  0
   22.8635   -7.7190  -13.8859 C   0  0  0  0  0  0  0  0  0  0  0  0
   20.4847   -7.1844  -13.4618 C   0  0  2  0  0  0  0  0  0  0  0  0
   19.1523   -7.7112  -13.7005 N   0  0  0  0  0  0  0  0  0  0  0  0
   20.6875   -5.8728  -14.1033 C   0  0  0  0  0  0  0  0  0  0  0  0
   21.4338   -4.9255  -13.4437 O   0  0  0  0  0  0  0  0  0  0  0  0
   20.1991   -5.6159  -15.2178 O   0  0  0  0  0  0  0  0  0  0  0  0
  2  1  1  1
  2 10  1  0
  3  2  1  0
  4  3  1  0
  5  4  2  0
  6  5  1  0
  7  6  2  0
  7  8  1  0
  8  9  2  0
  9  4  1  0
 10 11  2  0
 12 13  1  0
 14 13  1  6
 15 10  1  0
 15 14  1  0
 16 14  1  0
 16 17  2  0
 19 18  1  1
 19 21  1  0
 20 19  1  0
 21 22  1  6
 22 16  1  0
 23 21  1  0
 23 24  1  0
 25 23  2  0
M  END
$$$$
