FSV.pdb
     RDKit          3D

 25 25  0  0  1  0  0  0  0  0999 V2000
   23.5104  -13.1918  -17.1154 N   0  0  0  0  0  0  0  0  0  0  0  0
   23.9062  -11.9502  -16.5128 C   0  0  1  0  0  0  0  0  0  0  0  0
   25.1300  -11.4359  -17.2386 C   0  0  0  0  0  0  0  0  0  0  0  0
   26.2705  -12.2950  -16.8664 C   0  0  0  0  0  0  0  0  0  0  0  0
   26.6681  -13.2906  -17.7176 C   0  0  0  0  0  0  0  0  0  0  0  0
   27.7334  -14.1146  -17.4005 C   0  0  0  0  0  0  0  0  0  0  0  0
   28.3946  -13.9100  -16.1948 C   0  0  0  0  0  0  0  0  0  0  0  0
   27.9981  -12.9127  -15.3398 C   0  0  0  0  0  0  0  0  0  0  0  0
   26.9302  -12.1089  -15.6890 C   0  0  0  0  0  0  0  0  0  0  0  0
   22.8557  -10.9136  -16.6394 C   0  0  0  0  0  0  0  0  0  0  0  0
   22.0651  -10.9151  -17.6079 O   0  0  0  0  0  0  0  0  0  0  0  0
   20.6192   -9.5753  -13.7074 O   0  0  0  0  0  0  0  0  0  0  0  0
   20.3769   -9.3124  -15.0476 C   0  0  0  0  0  0  0  0  0  0  0  0
   21.6228   -8.9595  -15.7941 C   0  0  2  0  0  0  0  0  0  0  0  0
   22.6885   -9.8812  -15.6905 N   0  0  0  0  0  0  0  0  0  0  0  0
   22.1130   -7.6365  -15.2861 C   0  0  0  0  0  0  0  0  0  0  0  0
   23.0456   -7.5585  -14.4453 O   0  0  0  0  0  0  0  0  0  0  0  0
   22.4957   -4.4325  -17.5532 C   0  0  0  0  0  0  0  0  0  0  0  0
   21.7623   -4.1061  -16.2997 C   0  0  2  0  0  0  0  0  0  0  0  0
   22.0549   -2.7250  -15.7715 C   0  0  0  0  0  0  0  0  0  0  0  0
   22.0063   -5.1314  -15.1956 C   0  0  2  0  0  0  0  0  0  0  0  0
   21.5508   -6.4041  -15.7269 N   0  0  0  0  0  0  0  0  0  0  0  0
   21.3150   -4.7713  -13.9446 C   0  0  0  0  0  0  0  0  0  0  0  0
   22.0001   -4.0465  -12.9986 O   0  0  0  0  0  0  0  0  0  0  0  0
   20.1365   -5.1100  -13.7366 O   0  0  0  0  0  0  0  0  0  0  0  0
  2  1  1  6
  2 10  1  0
  3  2  1  0
  4  3  1  0
  5  4  2  0
  6  5  1  0
  7  6  2  0
  7  8  1  0
  8  9  2  0
  9  4  1  0
 10 11  2  0
 12 13  1  0
 14 13  1  1
 15 10  1  0
 15 14  1  0
 16 14  1  0
 16 17  2  0
 19 18  1  6
 19 21  1  0
 20 19  1  0
 21 22  1  6
 22 16  1  0
 23 21  1  0
 23 24  1  0
 25 23  2  0
M  END
$$$$
