FSV.pdb
     RDKit          3D

 25 25  0  0  1  0  0  0  0  0999 V2000
   27.4447  -22.1700  -12.8014 N   0  0  0  0  0  0  0  0  0  0  0  0
   26.5801  -21.6484  -11.7807 C   0  0  1  0  0  0  0  0  0  0  0  0
   27.0901  -20.2831  -11.3747 C   0  0  0  0  0  0  0  0  0  0  0  0
   27.6899  -20.4056  -10.0321 C   0  0  0  0  0  0  0  0  0  0  0  0
   28.9647  -20.8884   -9.9067 C   0  0  0  0  0  0  0  0  0  0  0  0
   29.5579  -21.0165   -8.6633 C   0  0  0  0  0  0  0  0  0  0  0  0
   28.8301  -20.6432   -7.5392 C   0  0  0  0  0  0  0  0  0  0  0  0
   27.5522  -20.1589   -7.6621 C   0  0  0  0  0  0  0  0  0  0  0  0
   26.9915  -20.0446   -8.9194 C   0  0  0  0  0  0  0  0  0  0  0  0
   25.1930  -21.4689  -12.2684 C   0  0  0  0  0  0  0  0  0  0  0  0
   24.9015  -21.6754  -13.4666 O   0  0  0  0  0  0  0  0  0  0  0  0
   21.7407  -19.9168  -10.1192 O   0  0  0  0  0  0  0  0  0  0  0  0
   21.7949  -21.1912  -10.6640 C   0  0  0  0  0  0  0  0  0  0  0  0
   22.7889  -21.2947  -11.7755 C   0  0  2  0  0  0  0  0  0  0  0  0
   24.1371  -21.0614  -11.4239 N   0  0  0  0  0  0  0  0  0  0  0  0
   22.4140  -20.2985  -12.8318 C   0  0  0  0  0  0  0  0  0  0  0  0
   22.7926  -19.1003  -12.7710 O   0  0  0  0  0  0  0  0  0  0  0  0
   20.3700  -21.5411  -16.3828 C   0  0  0  0  0  0  0  0  0  0  0  0
   21.2952  -20.3783  -16.2946 C   0  0  2  0  0  0  0  0  0  0  0  0
   22.7313  -20.7257  -16.5927 C   0  0  0  0  0  0  0  0  0  0  0  0
   21.2165  -19.6696  -14.9451 C   0  0  2  0  0  0  0  0  0  0  0  0
   21.6131  -20.6551  -13.9545 N   0  0  0  0  0  0  0  0  0  0  0  0
   19.8711  -19.1276  -14.6831 C   0  0  0  0  0  0  0  0  0  0  0  0
   19.0432  -19.8077  -13.8219 O   0  0  0  0  0  0  0  0  0  0  0  0
   19.4806  -18.0776  -15.2235 O   0  0  0  0  0  0  0  0  0  0  0  0
  2  1  1  6
  2 10  1  0
  3  2  1  0
  4  3  1  0
  5  4  2  0
  6  5  1  0
  7  6  2  0
  7  8  1  0
  8  9  2  0
  9  4  1  0
 10 11  2  0
 12 13  1  0
 14 13  1  1
 15 10  1  0
 15 14  1  0
 16 14  1  0
 16 17  2  0
 19 18  1  1
 19 21  1  0
 20 19  1  0
 21 22  1  1
 22 16  1  0
 23 21  1  0
 23 24  1  0
 25 23  2  0
M  END
$$$$
