FSV.pdb
     RDKit          3D

 25 25  0  0  1  0  0  0  0  0999 V2000
   18.7810  -11.1963  -18.9367 N   0  0  0  0  0  0  0  0  0  0  0  0
   19.7687  -10.1642  -19.0801 C   0  0  1  0  0  0  0  0  0  0  0  0
   19.3138   -9.2159  -20.1677 C   0  0  0  0  0  0  0  0  0  0  0  0
   19.4535   -9.9116  -21.4615 C   0  0  0  0  0  0  0  0  0  0  0  0
   20.6533   -9.8729  -22.1194 C   0  0  0  0  0  0  0  0  0  0  0  0
   20.8195  -10.5139  -23.3343 C   0  0  0  0  0  0  0  0  0  0  0  0
   19.7389  -11.2011  -23.8753 C   0  0  0  0  0  0  0  0  0  0  0  0
   18.5352  -11.2415  -23.2178 C   0  0  0  0  0  0  0  0  0  0  0  0
   18.4053  -10.5899  -22.0067 C   0  0  0  0  0  0  0  0  0  0  0  0
   19.9204   -9.3669  -17.8410 C   0  0  0  0  0  0  0  0  0  0  0  0
   18.9264   -9.0665  -17.1447 O   0  0  0  0  0  0  0  0  0  0  0  0
   23.5379   -8.9509  -15.7933 O   0  0  0  0  0  0  0  0  0  0  0  0
   22.3052   -8.7277  -15.1978 C   0  0  0  0  0  0  0  0  0  0  0  0
   21.2920   -8.2023  -16.1631 C   0  0  2  0  0  0  0  0  0  0  0  0
   21.1742   -8.9074  -17.3816 N   0  0  0  0  0  0  0  0  0  0  0  0
   21.6500   -6.7833  -16.4900 C   0  0  0  0  0  0  0  0  0  0  0  0
   22.2068   -6.4781  -17.5761 O   0  0  0  0  0  0  0  0  0  0  0  0
   21.2316   -2.6630  -17.7348 C   0  0  0  0  0  0  0  0  0  0  0  0
   20.9880   -4.0473  -17.2447 C   0  0  2  0  0  0  0  0  0  0  0  0
   19.5269   -4.3871  -17.0973 C   0  0  0  0  0  0  0  0  0  0  0  0
   21.7093   -4.3379  -15.9313 C   0  0  2  0  0  0  0  0  0  0  0  0
   21.3797   -5.7112  -15.5919 N   0  0  0  0  0  0  0  0  0  0  0  0
   21.3224   -3.3937  -14.8677 C   0  0  0  0  0  0  0  0  0  0  0  0
   21.9880   -2.1944  -14.7774 O   0  0  0  0  0  0  0  0  0  0  0  0
   20.4142   -3.6642  -14.0621 O   0  0  0  0  0  0  0  0  0  0  0  0
  2  1  1  1
  2 10  1  0
  3  2  1  0
  4  3  1  0
  5  4  2  0
  6  5  1  0
  7  6  2  0
  7  8  1  0
  8  9  2  0
  9  4  1  0
 10 11  2  0
 12 13  1  0
 14 13  1  1
 15 10  1  0
 15 14  1  0
 16 14  1  0
 16 17  2  0
 19 18  1  1
 19 21  1  0
 20 19  1  0
 21 22  1  1
 22 16  1  0
 23 21  1  0
 23 24  1  0
 25 23  2  0
M  END
$$$$
