FSV.pdb
     RDKit          3D

 25 25  0  0  1  0  0  0  0  0999 V2000
   19.8800  -13.3546  -18.4216 N   0  0  0  0  0  0  0  0  0  0  0  0
   19.9133  -13.1265  -17.0045 C   0  0  1  0  0  0  0  0  0  0  0  0
   20.6491  -14.2767  -16.3530 C   0  0  0  0  0  0  0  0  0  0  0  0
   19.8763  -15.5083  -16.6048 C   0  0  0  0  0  0  0  0  0  0  0  0
   18.7425  -15.7511  -15.8771 C   0  0  0  0  0  0  0  0  0  0  0  0
   17.9939  -16.8955  -16.0869 C   0  0  0  0  0  0  0  0  0  0  0  0
   18.4181  -17.7976  -17.0559 C   0  0  0  0  0  0  0  0  0  0  0  0
   19.5542  -17.5566  -17.7867 C   0  0  0  0  0  0  0  0  0  0  0  0
   20.2771  -16.4035  -17.5503 C   0  0  0  0  0  0  0  0  0  0  0  0
   20.6481  -11.8872  -16.6603 C   0  0  0  0  0  0  0  0  0  0  0  0
   20.8617  -11.5771  -15.4681 O   0  0  0  0  0  0  0  0  0  0  0  0
   22.0766   -8.9628  -19.5118 O   0  0  0  0  0  0  0  0  0  0  0  0
   22.6650   -9.1657  -18.2721 C   0  0  0  0  0  0  0  0  0  0  0  0
   21.7169   -9.7599  -17.2811 C   0  0  2  0  0  0  0  0  0  0  0  0
   21.1416  -10.9990  -17.6410 N   0  0  0  0  0  0  0  0  0  0  0  0
   20.5991   -8.7848  -17.0609 C   0  0  0  0  0  0  0  0  0  0  0  0
   19.4439   -8.9943  -17.5130 O   0  0  0  0  0  0  0  0  0  0  0  0
   18.9497   -7.8338  -14.1167 C   0  0  0  0  0  0  0  0  0  0  0  0
   18.5757   -7.3671  -15.4798 C   0  0  2  0  0  0  0  0  0  0  0  0
   18.0861   -8.4706  -16.3824 C   0  0  0  0  0  0  0  0  0  0  0  0
   19.7090   -6.6142  -16.1715 C   0  0  2  0  0  0  0  0  0  0  0  0
   20.7859   -7.5756  -16.3316 N   0  0  0  0  0  0  0  0  0  0  0  0
   20.1318   -5.4275  -15.4062 C   0  0  0  0  0  0  0  0  0  0  0  0
   19.2935   -4.3391  -15.3621 O   0  0  0  0  0  0  0  0  0  0  0  0
   21.2221   -5.3986  -14.8083 O   0  0  0  0  0  0  0  0  0  0  0  0
  2  1  1  6
  2 10  1  0
  3  2  1  0
  4  3  1  0
  5  4  2  0
  6  5  1  0
  7  6  2  0
  7  8  1  0
  8  9  2  0
  9  4  1  0
 10 11  2  0
 12 13  1  0
 14 13  1  6
 15 10  1  0
 15 14  1  0
 16 14  1  0
 16 17  2  0
 19 18  1  1
 19 21  1  0
 20 19  1  0
 21 22  1  1
 22 16  1  0
 23 21  1  0
 23 24  1  0
 25 23  2  0
M  END
$$$$
