FSV.pdb
     RDKit          3D

 25 25  0  0  1  0  0  0  0  0999 V2000
   26.7489  -22.4879   -9.5737 N   0  0  0  0  0  0  0  0  0  0  0  0
   26.0011  -21.2914   -9.8396 C   0  0  1  0  0  0  0  0  0  0  0  0
   26.9760  -20.1470  -10.0099 C   0  0  0  0  0  0  0  0  0  0  0  0
   27.4832  -19.7826   -8.6730 C   0  0  0  0  0  0  0  0  0  0  0  0
   28.6060  -20.3982   -8.1891 C   0  0  0  0  0  0  0  0  0  0  0  0
   29.1091  -20.0808   -6.9399 C   0  0  0  0  0  0  0  0  0  0  0  0
   28.4484  -19.1200   -6.1830 C   0  0  0  0  0  0  0  0  0  0  0  0
   27.3226  -18.5015   -6.6657 C   0  0  0  0  0  0  0  0  0  0  0  0
   26.8485  -18.8433   -7.9173 C   0  0  0  0  0  0  0  0  0  0  0  0
   25.2228  -21.3925  -11.0959 C   0  0  0  0  0  0  0  0  0  0  0  0
   25.6645  -22.0315  -12.0755 O   0  0  0  0  0  0  0  0  0  0  0  0
   21.7495  -19.2215  -11.6798 O   0  0  0  0  0  0  0  0  0  0  0  0
   21.8321  -20.3798  -12.4385 C   0  0  0  0  0  0  0  0  0  0  0  0
   23.2084  -20.9629  -12.4414 C   0  0  2  0  0  0  0  0  0  0  0  0
   23.9589  -20.7839  -11.2580 N   0  0  0  0  0  0  0  0  0  0  0  0
   23.9775  -20.3399  -13.5679 C   0  0  0  0  0  0  0  0  0  0  0  0
   24.5476  -19.2258  -13.4391 O   0  0  0  0  0  0  0  0  0  0  0  0
   26.6990  -21.8860  -15.4820 C   0  0  0  0  0  0  0  0  0  0  0  0
   25.7486  -21.3725  -16.5061 C   0  0  2  0  0  0  0  0  0  0  0  0
   26.4254  -20.8172  -17.7332 C   0  0  0  0  0  0  0  0  0  0  0  0
   24.7893  -20.3278  -15.9419 C   0  0  2  0  0  0  0  0  0  0  0  0
   24.1023  -20.9739  -14.8373 N   0  0  0  0  0  0  0  0  0  0  0  0
   23.8523  -19.8287  -16.9644 C   0  0  0  0  0  0  0  0  0  0  0  0
   24.1873  -18.6964  -17.6682 O   0  0  0  0  0  0  0  0  0  0  0  0
   22.7776  -20.4105  -17.1954 O   0  0  0  0  0  0  0  0  0  0  0  0
  2  1  1  6
  2 10  1  0
  3  2  1  0
  4  3  1  0
  5  4  2  0
  6  5  1  0
  7  6  2  0
  7  8  1  0
  8  9  2  0
  9  4  1  0
 10 11  2  0
 12 13  1  0
 14 13  1  1
 15 10  1  0
 15 14  1  0
 16 14  1  0
 16 17  2  0
 19 18  1  1
 19 21  1  0
 20 19  1  0
 21 22  1  1
 22 16  1  0
 23 21  1  0
 23 24  1  0
 25 23  2  0
M  END
$$$$
