FSV.pdb
     RDKit          3D

 25 25  0  0  1  0  0  0  0  0999 V2000
   27.9669  -21.7197  -13.3358 N   0  0  0  0  0  0  0  0  0  0  0  0
   26.7144  -21.5535  -12.6539 C   0  0  1  0  0  0  0  0  0  0  0  0
   26.7583  -20.2511  -11.8853 C   0  0  0  0  0  0  0  0  0  0  0  0
   27.3390  -20.5291  -10.5576 C   0  0  0  0  0  0  0  0  0  0  0  0
   26.5300  -20.5136   -9.4534 C   0  0  0  0  0  0  0  0  0  0  0  0
   27.0410  -20.7699   -8.1934 C   0  0  0  0  0  0  0  0  0  0  0  0
   28.3983  -21.0445   -8.0710 C   0  0  0  0  0  0  0  0  0  0  0  0
   29.2113  -21.0607   -9.1762 C   0  0  0  0  0  0  0  0  0  0  0  0
   28.6669  -20.8003  -10.4187 C   0  0  0  0  0  0  0  0  0  0  0  0
   25.5771  -21.4647  -13.5987 C   0  0  0  0  0  0  0  0  0  0  0  0
   25.6047  -20.6713  -14.5646 O   0  0  0  0  0  0  0  0  0  0  0  0
   22.3959  -24.2803  -13.7077 O   0  0  0  0  0  0  0  0  0  0  0  0
   22.8177  -23.5621  -14.8169 C   0  0  0  0  0  0  0  0  0  0  0  0
   23.4012  -22.2359  -14.4497 C   0  0  2  0  0  0  0  0  0  0  0  0
   24.4155  -22.2568  -13.4665 N   0  0  0  0  0  0  0  0  0  0  0  0
   22.2930  -21.3618  -13.9433 C   0  0  0  0  0  0  0  0  0  0  0  0
   22.1893  -21.0701  -12.7239 O   0  0  0  0  0  0  0  0  0  0  0  0
   19.6998  -19.3209  -16.6567 C   0  0  0  0  0  0  0  0  0  0  0  0
   20.0400  -18.8601  -15.2827 C   0  0  2  0  0  0  0  0  0  0  0  0
   21.2629  -17.9806  -15.2266 C   0  0  0  0  0  0  0  0  0  0  0  0
   20.2048  -20.0178  -14.3018 C   0  0  2  0  0  0  0  0  0  0  0  0
   21.3039  -20.8184  -14.8124 N   0  0  0  0  0  0  0  0  0  0  0  0
   18.9649  -20.8017  -14.1588 C   0  0  0  0  0  0  0  0  0  0  0  0
   18.0113  -20.3694  -13.2681 O   0  0  0  0  0  0  0  0  0  0  0  0
   18.7728  -21.8348  -14.8242 O   0  0  0  0  0  0  0  0  0  0  0  0
  2  1  1  6
  2 10  1  0
  3  2  1  0
  4  3  1  0
  5  4  2  0
  6  5  1  0
  7  6  2  0
  7  8  1  0
  8  9  2  0
  9  4  1  0
 10 11  2  0
 12 13  1  0
 14 13  1  1
 15 10  1  0
 15 14  1  0
 16 14  1  0
 16 17  2  0
 19 18  1  6
 19 21  1  0
 20 19  1  0
 21 22  1  6
 22 16  1  0
 23 21  1  0
 23 24  1  0
 25 23  2  0
M  END
$$$$
