FSV.pdb
     RDKit          3D

 25 25  0  0  1  0  0  0  0  0999 V2000
   26.1074  -21.0150  -19.6042 N   0  0  0  0  0  0  0  0  0  0  0  0
   25.1883  -20.3249  -18.7437 C   0  0  1  0  0  0  0  0  0  0  0  0
   23.9556  -21.1854  -18.5737 C   0  0  0  0  0  0  0  0  0  0  0  0
   23.0499  -20.9059  -19.7047 C   0  0  0  0  0  0  0  0  0  0  0  0
   22.9376  -21.8197  -20.7177 C   0  0  0  0  0  0  0  0  0  0  0  0
   22.0980  -21.5900  -21.7932 C   0  0  0  0  0  0  0  0  0  0  0  0
   21.3677  -20.4075  -21.8243 C   0  0  0  0  0  0  0  0  0  0  0  0
   21.4785  -19.4899  -20.8101 C   0  0  0  0  0  0  0  0  0  0  0  0
   22.3266  -19.7523  -19.7518 C   0  0  0  0  0  0  0  0  0  0  0  0
   25.7549  -20.1023  -17.3932 C   0  0  0  0  0  0  0  0  0  0  0  0
   26.7565  -20.7410  -17.0035 O   0  0  0  0  0  0  0  0  0  0  0  0
   24.3862  -17.0818  -14.7018 O   0  0  0  0  0  0  0  0  0  0  0  0
   25.6950  -17.5410  -14.6994 C   0  0  0  0  0  0  0  0  0  0  0  0
   25.8119  -18.9339  -15.2288 C   0  0  2  0  0  0  0  0  0  0  0  0
   25.2068  -19.1721  -16.4830 N   0  0  0  0  0  0  0  0  0  0  0  0
   25.1845  -19.8656  -14.2353 C   0  0  0  0  0  0  0  0  0  0  0  0
   24.0850  -20.4317  -14.4666 O   0  0  0  0  0  0  0  0  0  0  0  0
   27.3374  -21.3832  -11.0058 C   0  0  0  0  0  0  0  0  0  0  0  0
   25.9932  -20.8176  -10.7073 C   0  0  2  0  0  0  0  0  0  0  0  0
   25.3011  -21.4863   -9.5471 C   0  0  0  0  0  0  0  0  0  0  0  0
   25.0699  -20.8319  -11.9226 C   0  0  2  0  0  0  0  0  0  0  0  0
   25.7978  -20.1573  -12.9832 N   0  0  0  0  0  0  0  0  0  0  0  0
   23.7745  -20.1879  -11.6400 C   0  0  0  0  0  0  0  0  0  0  0  0
   23.7226  -18.8162  -11.5684 O   0  0  0  0  0  0  0  0  0  0  0  0
   22.7423  -20.8601  -11.4680 O   0  0  0  0  0  0  0  0  0  0  0  0
  2  1  1  6
  2 10  1  0
  3  2  1  0
  4  3  1  0
  5  4  2  0
  6  5  1  0
  7  6  2  0
  7  8  1  0
  8  9  2  0
  9  4  1  0
 10 11  2  0
 12 13  1  0
 14 13  1  1
 15 10  1  0
 15 14  1  0
 16 14  1  0
 16 17  2  0
 19 18  1  6
 19 21  1  0
 20 19  1  0
 21 22  1  6
 22 16  1  0
 23 21  1  0
 23 24  1  0
 25 23  2  0
M  END
$$$$
