FSV.pdb
     RDKit          3D

 25 25  0  0  1  0  0  0  0  0999 V2000
   23.6910  -20.3446  -16.4186 N   0  0  0  0  0  0  0  0  0  0  0  0
   22.9054  -19.5713  -15.4987 C   0  0  1  0  0  0  0  0  0  0  0  0
   21.8385  -18.8378  -16.2813 C   0  0  0  0  0  0  0  0  0  0  0  0
   22.5140  -17.8825  -17.1805 C   0  0  0  0  0  0  0  0  0  0  0  0
   23.0786  -16.7507  -16.6571 C   0  0  0  0  0  0  0  0  0  0  0  0
   23.7198  -15.8337  -17.4710 C   0  0  0  0  0  0  0  0  0  0  0  0
   23.7793  -16.0862  -18.8368 C   0  0  0  0  0  0  0  0  0  0  0  0
   23.2141  -17.2200  -19.3640 C   0  0  0  0  0  0  0  0  0  0  0  0
   22.5819  -18.1137  -18.5215 C   0  0  0  0  0  0  0  0  0  0  0  0
   22.2103  -20.4268  -14.5091 C   0  0  0  0  0  0  0  0  0  0  0  0
   21.7702  -21.5523  -14.8295 O   0  0  0  0  0  0  0  0  0  0  0  0
   21.0688  -19.0882  -10.6810 O   0  0  0  0  0  0  0  0  0  0  0  0
   21.3859  -20.4317  -10.8177 C   0  0  0  0  0  0  0  0  0  0  0  0
   21.3657  -20.8805  -12.2433 C   0  0  2  0  0  0  0  0  0  0  0  0
   22.0076  -20.0284  -13.1695 N   0  0  0  0  0  0  0  0  0  0  0  0
   19.9346  -21.0212  -12.6687 C   0  0  0  0  0  0  0  0  0  0  0  0
   19.4931  -20.4439  -13.6955 O   0  0  0  0  0  0  0  0  0  0  0  0
   18.6837  -22.2451  -14.7747 C   0  0  0  0  0  0  0  0  0  0  0  0
   17.9483  -22.9862  -13.7137 C   0  0  2  0  0  0  0  0  0  0  0  0
   16.6464  -23.5818  -14.1852 C   0  0  0  0  0  0  0  0  0  0  0  0
   17.6938  -22.1330  -12.4739 C   0  0  2  0  0  0  0  0  0  0  0  0
   19.0043  -21.8125  -11.9357 N   0  0  0  0  0  0  0  0  0  0  0  0
   16.8431  -22.8272  -11.4905 C   0  0  0  0  0  0  0  0  0  0  0  0
   17.4165  -23.7739  -10.6754 O   0  0  0  0  0  0  0  0  0  0  0  0
   15.6301  -22.5710  -11.3901 O   0  0  0  0  0  0  0  0  0  0  0  0
  2  1  1  6
  2 10  1  0
  3  2  1  0
  4  3  1  0
  5  4  2  0
  6  5  1  0
  7  6  2  0
  7  8  1  0
  8  9  2  0
  9  4  1  0
 10 11  2  0
 12 13  1  0
 14 13  1  1
 15 10  1  0
 15 14  1  0
 16 14  1  0
 16 17  2  0
 19 18  1  6
 19 21  1  0
 20 19  1  0
 21 22  1  1
 22 16  1  0
 23 21  1  0
 23 24  1  0
 25 23  2  0
M  END
$$$$
