FSV.pdb
     RDKit          3D

 25 25  0  0  1  0  0  0  0  0999 V2000
   25.0805  -17.5702  -16.9160 N   0  0  0  0  0  0  0  0  0  0  0  0
   25.9094  -18.2383  -15.9527 C   0  0  1  0  0  0  0  0  0  0  0  0
   26.8400  -17.2182  -15.3344 C   0  0  0  0  0  0  0  0  0  0  0  0
   27.9219  -16.9489  -16.3010 C   0  0  0  0  0  0  0  0  0  0  0  0
   28.8641  -17.9125  -16.5411 C   0  0  0  0  0  0  0  0  0  0  0  0
   29.8921  -17.6938  -17.4409 C   0  0  0  0  0  0  0  0  0  0  0  0
   29.9491  -16.4705  -18.0989 C   0  0  0  0  0  0  0  0  0  0  0  0
   29.0059  -15.5030  -17.8600 C   0  0  0  0  0  0  0  0  0  0  0  0
   27.9934  -15.7559  -16.9550 C   0  0  0  0  0  0  0  0  0  0  0  0
   25.1135  -18.8275  -14.8511 C   0  0  0  0  0  0  0  0  0  0  0  0
   24.3489  -18.1191  -14.1608 O   0  0  0  0  0  0  0  0  0  0  0  0
   24.5691  -23.0130  -14.2522 O   0  0  0  0  0  0  0  0  0  0  0  0
   23.6696  -22.0368  -13.8497 C   0  0  0  0  0  0  0  0  0  0  0  0
   24.3419  -20.7443  -13.5156 C   0  0  2  0  0  0  0  0  0  0  0  0
   25.1706  -20.1996  -14.5218 N   0  0  0  0  0  0  0  0  0  0  0  0
   25.1868  -20.9588  -12.2954 C   0  0  0  0  0  0  0  0  0  0  0  0
   26.3138  -21.5138  -12.3641 O   0  0  0  0  0  0  0  0  0  0  0  0
   25.0849  -18.9518   -8.5888 C   0  0  0  0  0  0  0  0  0  0  0  0
   26.0280  -20.0004   -9.0649 C   0  0  2  0  0  0  0  0  0  0  0  0
   27.1378  -19.4649   -9.9331 C   0  0  0  0  0  0  0  0  0  0  0  0
   25.3182  -21.1368   -9.7961 C   0  0  2  0  0  0  0  0  0  0  0  0
   24.7596  -20.5473  -11.0004 N   0  0  0  0  0  0  0  0  0  0  0  0
   24.2863  -21.7737   -8.9582 C   0  0  0  0  0  0  0  0  0  0  0  0
   22.9641  -21.5760   -9.2775 O   0  0  0  0  0  0  0  0  0  0  0  0
   24.5922  -22.4778   -7.9796 O   0  0  0  0  0  0  0  0  0  0  0  0
  2  1  1  6
  2 10  1  0
  3  2  1  0
  4  3  1  0
  5  4  2  0
  6  5  1  0
  7  6  2  0
  7  8  1  0
  8  9  2  0
  9  4  1  0
 10 11  2  0
 12 13  1  0
 14 13  1  6
 15 10  1  0
 15 14  1  0
 16 14  1  0
 16 17  2  0
 19 18  1  6
 19 21  1  0
 20 19  1  0
 21 22  1  6
 22 16  1  0
 23 21  1  0
 23 24  1  0
 25 23  2  0
M  END
$$$$
