FSV.pdb
     RDKit          3D

 25 25  0  0  1  0  0  0  0  0999 V2000
   21.9677  -20.4612  -16.5711 N   0  0  0  0  0  0  0  0  0  0  0  0
   22.9955  -19.5596  -16.1327 C   0  0  1  0  0  0  0  0  0  0  0  0
   22.3511  -18.4631  -15.3134 C   0  0  0  0  0  0  0  0  0  0  0  0
   21.7446  -17.4967  -16.2492 C   0  0  0  0  0  0  0  0  0  0  0  0
   22.5528  -16.7621  -17.0745 C   0  0  0  0  0  0  0  0  0  0  0  0
   22.0179  -15.8472  -17.9640 C   0  0  0  0  0  0  0  0  0  0  0  0
   20.6374  -15.6885  -18.0028 C   0  0  0  0  0  0  0  0  0  0  0  0
   19.8251  -16.4236  -17.1767 C   0  0  0  0  0  0  0  0  0  0  0  0
   20.3936  -17.3280  -16.3009 C   0  0  0  0  0  0  0  0  0  0  0  0
   23.9863  -20.2315  -15.2603 C   0  0  0  0  0  0  0  0  0  0  0  0
   23.6384  -21.1377  -14.4724 O   0  0  0  0  0  0  0  0  0  0  0  0
   28.5448  -21.2211  -14.0111 O   0  0  0  0  0  0  0  0  0  0  0  0
   27.7097  -20.5144  -14.8638 C   0  0  0  0  0  0  0  0  0  0  0  0
   26.2792  -20.5656  -14.4333 C   0  0  2  0  0  0  0  0  0  0  0  0
   25.3575  -19.8941  -15.2672 N   0  0  0  0  0  0  0  0  0  0  0  0
   26.1812  -19.9604  -13.0648 C   0  0  0  0  0  0  0  0  0  0  0  0
   26.2384  -18.7159  -12.8895 O   0  0  0  0  0  0  0  0  0  0  0  0
   24.7426  -22.0785   -9.6031 C   0  0  0  0  0  0  0  0  0  0  0  0
   24.7690  -20.6160   -9.8790 C   0  0  2  0  0  0  0  0  0  0  0  0
   23.5853  -20.1306  -10.6761 C   0  0  0  0  0  0  0  0  0  0  0  0
   26.0574  -20.1741  -10.5680 C   0  0  2  0  0  0  0  0  0  0  0  0
   26.0188  -20.7593  -11.8968 N   0  0  0  0  0  0  0  0  0  0  0  0
   27.2558  -20.5838   -9.8141 C   0  0  0  0  0  0  0  0  0  0  0  0
   27.5364  -19.9494   -8.6274 O   0  0  0  0  0  0  0  0  0  0  0  0
   28.0060  -21.4836  -10.2318 O   0  0  0  0  0  0  0  0  0  0  0  0
  2  1  1  1
  2 10  1  0
  3  2  1  0
  4  3  1  0
  5  4  2  0
  6  5  1  0
  7  6  2  0
  7  8  1  0
  8  9  2  0
  9  4  1  0
 10 11  2  0
 12 13  1  0
 14 13  1  6
 15 10  1  0
 15 14  1  0
 16 14  1  0
 16 17  2  0
 19 18  1  6
 19 21  1  0
 20 19  1  0
 21 22  1  6
 22 16  1  0
 23 21  1  0
 23 24  1  0
 25 23  2  0
M  END
$$$$
