FSV.pdb
     RDKit          3D

 25 25  0  0  1  0  0  0  0  0999 V2000
   24.1155  -12.2199  -15.5368 N   0  0  0  0  0  0  0  0  0  0  0  0
   23.6136  -11.1103  -14.7763 C   0  0  1  0  0  0  0  0  0  0  0  0
   24.7901  -10.3667  -14.1833 C   0  0  0  0  0  0  0  0  0  0  0  0
   25.7235  -10.0486  -15.2810 C   0  0  0  0  0  0  0  0  0  0  0  0
   26.8457  -10.8137  -15.4523 C   0  0  0  0  0  0  0  0  0  0  0  0
   27.7422  -10.5438  -16.4710 C   0  0  0  0  0  0  0  0  0  0  0  0
   27.4792   -9.4754  -17.3207 C   0  0  0  0  0  0  0  0  0  0  0  0
   26.3551   -8.7069  -17.1512 C   0  0  0  0  0  0  0  0  0  0  0  0
   25.4819   -9.0054  -16.1233 C   0  0  0  0  0  0  0  0  0  0  0  0
   22.8716  -10.1485  -15.6240 C   0  0  0  0  0  0  0  0  0  0  0  0
   22.8249  -10.2893  -16.8654 O   0  0  0  0  0  0  0  0  0  0  0  0
   19.3280   -8.8689  -15.0058 O   0  0  0  0  0  0  0  0  0  0  0  0
   20.0180   -8.5858  -16.1753 C   0  0  0  0  0  0  0  0  0  0  0  0
   21.4320   -8.1751  -15.9182 C   0  0  2  0  0  0  0  0  0  0  0  0
   22.1856   -9.0360  -15.0893 N   0  0  0  0  0  0  0  0  0  0  0  0
   21.4156   -6.8210  -15.2742 C   0  0  0  0  0  0  0  0  0  0  0  0
   21.5361   -6.6821  -14.0297 O   0  0  0  0  0  0  0  0  0  0  0  0
   22.2345   -3.3684  -17.4715 C   0  0  0  0  0  0  0  0  0  0  0  0
   22.3499   -3.5115  -15.9943 C   0  0  2  0  0  0  0  0  0  0  0  0
   23.6650   -4.0957  -15.5454 C   0  0  0  0  0  0  0  0  0  0  0  0
   21.2053   -4.3236  -15.3943 C   0  0  2  0  0  0  0  0  0  0  0  0
   21.2633   -5.6261  -16.0345 N   0  0  0  0  0  0  0  0  0  0  0  0
   19.9004   -3.6661  -15.5879 C   0  0  0  0  0  0  0  0  0  0  0  0
   19.5574   -2.6258  -14.7574 O   0  0  0  0  0  0  0  0  0  0  0  0
   19.1166   -4.0352  -16.4803 O   0  0  0  0  0  0  0  0  0  0  0  0
  2  1  1  6
  2 10  1  0
  3  2  1  0
  4  3  1  0
  5  4  2  0
  6  5  1  0
  7  6  2  0
  7  8  1  0
  8  9  2  0
  9  4  1  0
 10 11  2  0
 12 13  1  0
 14 13  1  1
 15 10  1  0
 15 14  1  0
 16 14  1  0
 16 17  2  0
 19 18  1  6
 19 21  1  0
 20 19  1  0
 21 22  1  6
 22 16  1  0
 23 21  1  0
 23 24  1  0
 25 23  2  0
M  END
$$$$
