FSV.pdb
     RDKit          3D

 25 25  0  0  1  0  0  0  0  0999 V2000
   25.3029  -21.3565   -7.0652 N   0  0  0  0  0  0  0  0  0  0  0  0
   25.9427  -20.5235   -8.0440 C   0  0  1  0  0  0  0  0  0  0  0  0
   27.4385  -20.5975   -7.8296 C   0  0  0  0  0  0  0  0  0  0  0  0
   27.7275  -20.0810   -6.4778 C   0  0  0  0  0  0  0  0  0  0  0  0
   28.2448  -20.9248   -5.5322 C   0  0  0  0  0  0  0  0  0  0  0  0
   28.5276  -20.4743   -4.2550 C   0  0  0  0  0  0  0  0  0  0  0  0
   28.2747  -19.1417   -3.9502 C   0  0  0  0  0  0  0  0  0  0  0  0
   27.7562  -18.2938   -4.8963 C   0  0  0  0  0  0  0  0  0  0  0  0
   27.4860  -18.7781   -6.1614 C   0  0  0  0  0  0  0  0  0  0  0  0
   25.6762  -20.9874   -9.4253 C   0  0  0  0  0  0  0  0  0  0  0  0
   25.4118  -22.1865   -9.6604 O   0  0  0  0  0  0  0  0  0  0  0  0
   22.9684  -19.9825  -11.4804 O   0  0  0  0  0  0  0  0  0  0  0  0
   23.8422  -20.9699  -11.9112 C   0  0  0  0  0  0  0  0  0  0  0  0
   25.2728  -20.5484  -11.8123 C   0  0  2  0  0  0  0  0  0  0  0  0
   25.7045  -20.1180  -10.5378 N   0  0  0  0  0  0  0  0  0  0  0  0
   25.4951  -19.4197  -12.7743 C   0  0  0  0  0  0  0  0  0  0  0  0
   25.1918  -18.2346  -12.4804 O   0  0  0  0  0  0  0  0  0  0  0  0
   28.0317  -19.9800  -16.1140 C   0  0  0  0  0  0  0  0  0  0  0  0
   27.8153  -18.7058  -15.3754 C   0  0  2  0  0  0  0  0  0  0  0  0
   28.7126  -18.5442  -14.1750 C   0  0  0  0  0  0  0  0  0  0  0  0
   26.3620  -18.5168  -14.9488 C   0  0  2  0  0  0  0  0  0  0  0  0
   26.0588  -19.6293  -14.0655 N   0  0  0  0  0  0  0  0  0  0  0  0
   25.4496  -18.4597  -16.1050 C   0  0  0  0  0  0  0  0  0  0  0  0
   25.4329  -17.3212  -16.8752 O   0  0  0  0  0  0  0  0  0  0  0  0
   24.7052  -19.4147  -16.3888 O   0  0  0  0  0  0  0  0  0  0  0  0
  2  1  1  1
  2 10  1  0
  3  2  1  0
  4  3  1  0
  5  4  2  0
  6  5  1  0
  7  6  2  0
  7  8  1  0
  8  9  2  0
  9  4  1  0
 10 11  2  0
 12 13  1  0
 14 13  1  1
 15 10  1  0
 15 14  1  0
 16 14  1  0
 16 17  2  0
 19 18  1  1
 19 21  1  0
 20 19  1  0
 21 22  1  1
 22 16  1  0
 23 21  1  0
 23 24  1  0
 25 23  2  0
M  END
$$$$
