QEI.pdb
     RDKit          3D

 27 26  0  0  1  0  0  0  0  0999 V2000
   26.7150  -20.0531  -18.1047 N   0  0  0  0  0  0  0  0  0  0  0  0
   27.4473  -19.0850  -17.3682 C   0  0  0  0  0  0  0  0  0  0  0  0
   28.5045  -18.6413  -17.8814 O   0  0  0  0  0  0  0  0  0  0  0  0
   26.9415  -18.6321  -16.0236 C   0  0  0  0  0  0  0  0  0  0  0  0
   28.0489  -18.6719  -15.0016 C   0  0  0  0  0  0  0  0  0  0  0  0
   27.9430  -19.7405  -13.9894 C   0  0  2  0  0  0  0  0  0  0  0  0
   27.6406  -21.0174  -14.6736 N   0  0  0  0  0  0  0  0  0  0  0  0
   26.9951  -19.5312  -12.8847 C   0  0  0  0  0  0  0  0  0  0  0  0
   27.0865  -18.4691  -12.1718 O   0  0  0  0  0  0  0  0  0  0  0  0
   25.9491  -20.4064  -12.4958 N   0  0  0  0  0  0  0  0  0  0  0  0
   25.0191  -20.0545  -11.4160 C   0  0  1  0  0  0  0  0  0  0  0  0
   23.6523  -20.6044  -11.5881 C   0  0  0  0  0  0  0  0  0  0  0  0
   22.9416  -20.2029  -12.8481 C   0  0  0  0  0  0  0  0  0  0  0  0
   21.5146  -20.5561  -12.8431 C   0  0  0  0  0  0  0  0  0  0  0  0
   20.6919  -19.9656  -12.1106 O   0  0  0  0  0  0  0  0  0  0  0  0
   25.6063  -20.6402  -10.1719 C   0  0  0  0  0  0  0  0  0  0  0  0
   26.2299  -21.7210  -10.2769 O   0  0  0  0  0  0  0  0  0  0  0  0
   20.9886  -21.5720  -13.6550 O   0  0  0  0  0  0  0  0  0  0  0  0
   28.7179  -18.3413   -6.5696 C   0  0  0  0  0  0  0  0  0  0  0  0
   27.9992  -19.3554   -7.4190 C   0  0  0  0  0  0  0  0  0  0  0  0
   26.7476  -19.8708   -6.7885 C   0  0  2  0  0  0  0  0  0  0  0  0
   27.1042  -20.6733   -5.5682 C   0  0  0  0  0  0  0  0  0  0  0  0
   25.9522  -20.7619   -7.7190 C   0  0  2  0  0  0  0  0  0  0  0  0
   25.4994  -20.0488   -8.8910 N   0  0  0  0  0  0  0  0  0  0  0  0
   24.7686  -21.3019   -7.0159 C   0  0  0  0  0  0  0  0  0  0  0  0
   24.9094  -22.1377   -6.0888 O   0  0  0  0  0  0  0  0  0  0  0  0
   23.4681  -20.9235   -7.3348 O   0  0  0  0  0  0  0  0  0  0  0  0
  2  1  1  0
  2  4  1  0
  3  2  2  0
  4  5  1  0
  5  6  1  0
  6  7  1  6
  6  8  1  0
  8  9  2  0
 10  8  1  0
 10 11  1  0
 11 12  1  6
 12 13  1  0
 13 14  1  0
 14 18  1  0
 14 15  2  0
 16 11  1  0
 16 17  2  0
 19 20  1  0
 20 21  1  0
 21 23  1  0
 21 22  1  1
 23 24  1  6
 24 16  1  0
 25 27  1  0
 25 23  1  0
 26 25  2  0
M  END
$$$$
