QEI.pdb
     RDKit          3D

 27 26  0  0  1  0  0  0  0  0999 V2000
   25.1118  -21.2267   -8.7819 N   0  0  0  0  0  0  0  0  0  0  0  0
   25.7272  -20.1179   -9.4202 C   0  0  0  0  0  0  0  0  0  0  0  0
   25.5282  -18.9793   -8.9282 O   0  0  0  0  0  0  0  0  0  0  0  0
   26.5808  -20.3403  -10.6413 C   0  0  0  0  0  0  0  0  0  0  0  0
   26.5607  -21.7932  -11.0427 C   0  0  0  0  0  0  0  0  0  0  0  0
   25.3465  -22.2409  -11.7520 C   0  0  2  0  0  0  0  0  0  0  0  0
   25.4692  -23.6869  -12.0419 N   0  0  0  0  0  0  0  0  0  0  0  0
   24.9763  -21.5173  -12.9776 C   0  0  0  0  0  0  0  0  0  0  0  0
   25.5183  -21.8501  -14.0912 O   0  0  0  0  0  0  0  0  0  0  0  0
   24.0534  -20.4449  -13.0757 N   0  0  0  0  0  0  0  0  0  0  0  0
   23.4641  -20.0584  -14.3633 C   0  0  1  0  0  0  0  0  0  0  0  0
   21.9828  -19.9818  -14.3549 C   0  0  0  0  0  0  0  0  0  0  0  0
   21.3422  -19.5956  -15.6567 C   0  0  0  0  0  0  0  0  0  0  0  0
   19.8734  -19.6393  -15.6121 C   0  0  0  0  0  0  0  0  0  0  0  0
   19.2182  -18.9578  -14.7945 O   0  0  0  0  0  0  0  0  0  0  0  0
   24.0019  -18.6951  -14.6594 C   0  0  0  0  0  0  0  0  0  0  0  0
   23.7831  -17.7899  -13.8223 O   0  0  0  0  0  0  0  0  0  0  0  0
   19.1184  -20.4435  -16.4788 O   0  0  0  0  0  0  0  0  0  0  0  0
   28.9659  -17.7121  -16.3576 C   0  0  0  0  0  0  0  0  0  0  0  0
   27.5873  -17.6654  -15.7547 C   0  0  0  0  0  0  0  0  0  0  0  0
   26.5883  -16.9729  -16.6219 C   0  0  2  0  0  0  0  0  0  0  0  0
   26.9845  -15.5308  -16.7760 C   0  0  0  0  0  0  0  0  0  0  0  0
   25.1891  -17.0150  -16.0447 C   0  0  2  0  0  0  0  0  0  0  0  0
   24.7388  -18.3697  -15.8226 N   0  0  0  0  0  0  0  0  0  0  0  0
   24.2400  -16.3537  -16.9660 C   0  0  0  0  0  0  0  0  0  0  0  0
   23.7072  -17.0032  -17.8998 O   0  0  0  0  0  0  0  0  0  0  0  0
   23.8944  -15.0106  -16.8515 O   0  0  0  0  0  0  0  0  0  0  0  0
  2  1  1  0
  2  4  1  0
  3  2  2  0
  4  5  1  0
  5  6  1  0
  6  7  1  6
  6  8  1  0
  8  9  2  0
 10  8  1  0
 10 11  1  0
 11 12  1  1
 12 13  1  0
 13 14  1  0
 14 18  1  0
 14 15  2  0
 16 11  1  0
 16 17  2  0
 19 20  1  0
 20 21  1  0
 21 23  1  0
 21 22  1  1
 23 24  1  6
 24 16  1  0
 25 27  1  0
 25 23  1  0
 26 25  2  0
M  END
$$$$
