QEI.pdb
     RDKit          3D

 27 26  0  0  1  0  0  0  0  0999 V2000
   16.5762  -13.3489  -14.4924 N   0  0  0  0  0  0  0  0  0  0  0  0
   15.3932  -13.2135  -15.2656 C   0  0  0  0  0  0  0  0  0  0  0  0
   14.3307  -13.6866  -14.7908 O   0  0  0  0  0  0  0  0  0  0  0  0
   15.4513  -12.5211  -16.6021 C   0  0  0  0  0  0  0  0  0  0  0  0
   16.8343  -11.9774  -16.8558 C   0  0  0  0  0  0  0  0  0  0  0  0
   16.9995  -11.2181  -18.1104 C   0  0  2  0  0  0  0  0  0  0  0  0
   17.2994  -12.1666  -19.2061 N   0  0  0  0  0  0  0  0  0  0  0  0
   17.9853  -10.1268  -18.1131 C   0  0  0  0  0  0  0  0  0  0  0  0
   19.1185  -10.3058  -18.6858 O   0  0  0  0  0  0  0  0  0  0  0  0
   17.8239   -8.8454  -17.5271 N   0  0  0  0  0  0  0  0  0  0  0  0
   18.8440   -7.8009  -17.6791 C   0  0  1  0  0  0  0  0  0  0  0  0
   18.3029   -6.4748  -18.0649 C   0  0  0  0  0  0  0  0  0  0  0  0
   17.1847   -5.9528  -17.2099 C   0  0  0  0  0  0  0  0  0  0  0  0
   17.3844   -4.5592  -16.7865 C   0  0  0  0  0  0  0  0  0  0  0  0
   17.2846   -4.2131  -15.5896 O   0  0  0  0  0  0  0  0  0  0  0  0
   19.4904   -7.6707  -16.3372 C   0  0  0  0  0  0  0  0  0  0  0  0
   18.7829   -7.8913  -15.3278 O   0  0  0  0  0  0  0  0  0  0  0  0
   17.6978   -3.5356  -17.6930 O   0  0  0  0  0  0  0  0  0  0  0  0
   23.5557  -10.5211  -15.1206 C   0  0  0  0  0  0  0  0  0  0  0  0
   22.3426   -9.6299  -15.1430 C   0  0  0  0  0  0  0  0  0  0  0  0
   22.6373   -8.2236  -14.7365 C   0  0  2  0  0  0  0  0  0  0  0  0
   23.1298   -8.2138  -13.3160 C   0  0  0  0  0  0  0  0  0  0  0  0
   21.4189   -7.3281  -14.8159 C   0  0  2  0  0  0  0  0  0  0  0  0
   20.8458   -7.3150  -16.1420 N   0  0  0  0  0  0  0  0  0  0  0  0
   21.7835   -5.9419  -14.4521 C   0  0  0  0  0  0  0  0  0  0  0  0
   21.8684   -5.0560  -15.3386 O   0  0  0  0  0  0  0  0  0  0  0  0
   22.0455   -5.5533  -13.1419 O   0  0  0  0  0  0  0  0  0  0  0  0
  2  1  1  0
  2  4  1  0
  3  2  2  0
  4  5  1  0
  5  6  1  0
  6  7  1  6
  6  8  1  0
  8  9  2  0
 10  8  1  0
 10 11  1  0
 11 12  1  1
 12 13  1  0
 13 14  1  0
 14 18  1  0
 14 15  2  0
 16 11  1  0
 16 17  2  0
 19 20  1  0
 20 21  1  0
 21 23  1  0
 21 22  1  1
 23 24  1  6
 24 16  1  0
 25 27  1  0
 25 23  1  0
 26 25  2  0
M  END
$$$$
