QEI.pdb
     RDKit          3D

 27 26  0  0  1  0  0  0  0  0999 V2000
   15.0227  -14.0323  -18.2647 N   0  0  0  0  0  0  0  0  0  0  0  0
   15.8426  -15.1386  -17.9186 C   0  0  0  0  0  0  0  0  0  0  0  0
   15.2889  -16.2606  -17.8070 O   0  0  0  0  0  0  0  0  0  0  0  0
   17.3190  -14.9330  -17.7013 C   0  0  0  0  0  0  0  0  0  0  0  0
   17.6725  -13.4725  -17.8215 C   0  0  0  0  0  0  0  0  0  0  0  0
   18.0469  -12.8023  -16.5612 C   0  0  2  0  0  0  0  0  0  0  0  0
   16.9750  -13.0255  -15.5655 N   0  0  0  0  0  0  0  0  0  0  0  0
   18.3718  -11.3697  -16.6301 C   0  0  0  0  0  0  0  0  0  0  0  0
   19.4401  -10.9966  -17.2332 O   0  0  0  0  0  0  0  0  0  0  0  0
   17.6110  -10.3067  -16.0799 N   0  0  0  0  0  0  0  0  0  0  0  0
   18.0084   -8.9059  -16.2654 C   0  0  1  0  0  0  0  0  0  0  0  0
   16.9133   -7.9297  -16.0463 C   0  0  0  0  0  0  0  0  0  0  0  0
   17.3073   -6.4824  -16.1097 C   0  0  0  0  0  0  0  0  0  0  0  0
   16.1913   -5.5679  -15.8279 C   0  0  0  0  0  0  0  0  0  0  0  0
   16.3338   -4.3264  -15.8537 O   0  0  0  0  0  0  0  0  0  0  0  0
   19.0736   -8.6511  -15.2475 C   0  0  0  0  0  0  0  0  0  0  0  0
   18.8955   -9.1053  -14.0943 O   0  0  0  0  0  0  0  0  0  0  0  0
   14.9036   -6.0273  -15.5140 O   0  0  0  0  0  0  0  0  0  0  0  0
   24.4098  -10.1740  -13.9812 C   0  0  0  0  0  0  0  0  0  0  0  0
   23.4531   -9.0257  -13.8013 C   0  0  0  0  0  0  0  0  0  0  0  0
   22.3096   -9.0559  -14.7611 C   0  0  2  0  0  0  0  0  0  0  0  0
   22.8400   -8.9480  -16.1637 C   0  0  0  0  0  0  0  0  0  0  0  0
   21.3350   -7.9184  -14.5402 C   0  0  2  0  0  0  0  0  0  0  0  0
   20.2634   -7.9316  -15.5091 N   0  0  0  0  0  0  0  0  0  0  0  0
   22.0379   -6.6212  -14.6406 C   0  0  0  0  0  0  0  0  0  0  0  0
   22.0700   -6.0011  -15.7326 O   0  0  0  0  0  0  0  0  0  0  0  0
   22.6854   -6.0320  -13.5589 O   0  0  0  0  0  0  0  0  0  0  0  0
  2  1  1  0
  2  4  1  0
  3  2  2  0
  4  5  1  0
  5  6  1  0
  6  7  1  1
  6  8  1  0
  8  9  2  0
 10  8  1  0
 10 11  1  0
 11 12  1  1
 12 13  1  0
 13 14  1  0
 14 18  1  0
 14 15  2  0
 16 11  1  0
 16 17  2  0
 19 20  1  0
 20 21  1  0
 21 23  1  0
 21 22  1  6
 23 24  1  6
 24 16  1  0
 25 27  1  0
 25 23  1  0
 26 25  2  0
M  END
$$$$
