QEI.pdb
     RDKit          3D

 27 26  0  0  1  0  0  0  0  0999 V2000
   28.4916  -16.5336  -20.0067 N   0  0  0  0  0  0  0  0  0  0  0  0
   29.7591  -16.6992  -19.3888 C   0  0  0  0  0  0  0  0  0  0  0  0
   30.7746  -16.6709  -20.1276 O   0  0  0  0  0  0  0  0  0  0  0  0
   29.8411  -16.8992  -17.8980 C   0  0  0  0  0  0  0  0  0  0  0  0
   28.4616  -16.9139  -17.2902 C   0  0  0  0  0  0  0  0  0  0  0  0
   27.9531  -18.2425  -16.8975 C   0  0  2  0  0  0  0  0  0  0  0  0
   27.8472  -19.0891  -18.1067 N   0  0  0  0  0  0  0  0  0  0  0  0
   26.6889  -18.2857  -16.1474 C   0  0  0  0  0  0  0  0  0  0  0  0
   26.6108  -17.6909  -15.0140 O   0  0  0  0  0  0  0  0  0  0  0  0
   25.4957  -18.9404  -16.5459 N   0  0  0  0  0  0  0  0  0  0  0  0
   24.2744  -18.8650  -15.7350 C   0  0  1  0  0  0  0  0  0  0  0  0
   23.0220  -19.0711  -16.5025 C   0  0  0  0  0  0  0  0  0  0  0  0
   21.7597  -19.1166  -15.6910 C   0  0  0  0  0  0  0  0  0  0  0  0
   20.5530  -19.2973  -16.5110 C   0  0  0  0  0  0  0  0  0  0  0  0
   20.0849  -18.3715  -17.2080 O   0  0  0  0  0  0  0  0  0  0  0  0
   24.3919  -19.9627  -14.7267 C   0  0  0  0  0  0  0  0  0  0  0  0
   24.7030  -21.1022  -15.1422 O   0  0  0  0  0  0  0  0  0  0  0  0
   19.8543  -20.5127  -16.5631 O   0  0  0  0  0  0  0  0  0  0  0  0
   26.5543  -21.5985   -9.3874 C   0  0  0  0  0  0  0  0  0  0  0  0
   25.4787  -21.8060  -10.4201 C   0  0  0  0  0  0  0  0  0  0  0  0
   25.3738  -20.6804  -11.3957 C   0  0  2  0  0  0  0  0  0  0  0  0
   25.0384  -19.4157  -10.6552 C   0  0  0  0  0  0  0  0  0  0  0  0
   24.2997  -20.9121  -12.4373 C   0  0  2  0  0  0  0  0  0  0  0  0
   24.1736  -19.7907  -13.3394 N   0  0  0  0  0  0  0  0  0  0  0  0
   22.9933  -21.1300  -11.7794 C   0  0  0  0  0  0  0  0  0  0  0  0
   22.1515  -20.1996  -11.7193 O   0  0  0  0  0  0  0  0  0  0  0  0
   22.6347  -22.3461  -11.2060 O   0  0  0  0  0  0  0  0  0  0  0  0
  2  1  1  0
  2  4  1  0
  3  2  2  0
  4  5  1  0
  5  6  1  0
  6  7  1  6
  6  8  1  0
  8  9  2  0
 10  8  1  0
 10 11  1  0
 11 12  1  6
 12 13  1  0
 13 14  1  0
 14 18  1  0
 14 15  2  0
 16 11  1  0
 16 17  2  0
 19 20  1  0
 20 21  1  0
 21 23  1  0
 21 22  1  1
 23 24  1  6
 24 16  1  0
 25 27  1  0
 25 23  1  0
 26 25  2  0
M  END
$$$$
