QEI.pdb
     RDKit          3D

 27 26  0  0  1  0  0  0  0  0999 V2000
   30.1518  -19.0453  -19.4719 N   0  0  0  0  0  0  0  0  0  0  0  0
   29.4043  -17.9248  -19.9209 C   0  0  0  0  0  0  0  0  0  0  0  0
   29.6151  -17.5154  -21.0896 O   0  0  0  0  0  0  0  0  0  0  0  0
   28.4039  -17.2783  -18.9988 C   0  0  0  0  0  0  0  0  0  0  0  0
   28.5799  -17.7843  -17.5897 C   0  0  0  0  0  0  0  0  0  0  0  0
   27.7735  -18.9677  -17.2329 C   0  0  2  0  0  0  0  0  0  0  0  0
   27.5273  -19.7636  -18.4561 N   0  0  0  0  0  0  0  0  0  0  0  0
   26.5042  -18.7312  -16.5291 C   0  0  0  0  0  0  0  0  0  0  0  0
   26.5092  -18.0691  -15.4309 O   0  0  0  0  0  0  0  0  0  0  0  0
   25.2200  -19.1726  -16.9381 N   0  0  0  0  0  0  0  0  0  0  0  0
   24.0270  -18.9148  -16.1227 C   0  0  1  0  0  0  0  0  0  0  0  0
   22.7558  -18.9208  -16.8871 C   0  0  0  0  0  0  0  0  0  0  0  0
   21.5124  -18.6603  -16.0871 C   0  0  0  0  0  0  0  0  0  0  0  0
   20.2805  -18.7796  -16.8805 C   0  0  0  0  0  0  0  0  0  0  0  0
   19.9100  -19.8717  -17.3625 O   0  0  0  0  0  0  0  0  0  0  0  0
   23.9763  -20.0236  -15.1209 C   0  0  0  0  0  0  0  0  0  0  0  0
   24.4238  -21.1405  -15.4676 O   0  0  0  0  0  0  0  0  0  0  0  0
   19.4475  -17.6824  -17.1454 O   0  0  0  0  0  0  0  0  0  0  0  0
   26.0343  -21.7048   -9.9918 C   0  0  0  0  0  0  0  0  0  0  0  0
   24.8625  -21.8741  -10.9216 C   0  0  0  0  0  0  0  0  0  0  0  0
   24.7446  -20.7760  -11.9266 C   0  0  2  0  0  0  0  0  0  0  0  0
   24.5551  -19.4687  -11.2087 C   0  0  0  0  0  0  0  0  0  0  0  0
   23.5717  -20.9696  -12.8643 C   0  0  2  0  0  0  0  0  0  0  0  0
   23.4557  -19.8858  -13.8125 N   0  0  0  0  0  0  0  0  0  0  0  0
   22.3128  -21.0501  -12.0925 C   0  0  0  0  0  0  0  0  0  0  0  0
   21.5807  -20.0370  -11.9676 O   0  0  0  0  0  0  0  0  0  0  0  0
   21.8819  -22.2220  -11.4784 O   0  0  0  0  0  0  0  0  0  0  0  0
  2  1  1  0
  2  4  1  0
  3  2  2  0
  4  5  1  0
  5  6  1  0
  6  7  1  6
  6  8  1  0
  8  9  2  0
 10  8  1  0
 10 11  1  0
 11 12  1  6
 12 13  1  0
 13 14  1  0
 14 18  1  0
 14 15  2  0
 16 11  1  0
 16 17  2  0
 19 20  1  0
 20 21  1  0
 21 23  1  0
 21 22  1  1
 23 24  1  6
 24 16  1  0
 25 27  1  0
 25 23  1  0
 26 25  2  0
M  END
$$$$
