QEI.pdb
     RDKit          3D

 27 26  0  0  1  0  0  0  0  0999 V2000
   30.7142  -23.7771  -15.4290 N   0  0  0  0  0  0  0  0  0  0  0  0
   30.8012  -23.5324  -16.8248 C   0  0  0  0  0  0  0  0  0  0  0  0
   31.4965  -24.3217  -17.5115 O   0  0  0  0  0  0  0  0  0  0  0  0
   30.0712  -22.3582  -17.4226 C   0  0  0  0  0  0  0  0  0  0  0  0
   29.3784  -21.5627  -16.3457 C   0  0  0  0  0  0  0  0  0  0  0  0
   28.1992  -22.2080  -15.7366 C   0  0  2  0  0  0  0  0  0  0  0  0
   27.3105  -22.6935  -16.8157 N   0  0  0  0  0  0  0  0  0  0  0  0
   27.4224  -21.4177  -14.7698 C   0  0  0  0  0  0  0  0  0  0  0  0
   28.0114  -20.5060  -14.0869 O   0  0  0  0  0  0  0  0  0  0  0  0
   26.0391  -21.5547  -14.4889 N   0  0  0  0  0  0  0  0  0  0  0  0
   25.3295  -20.5833  -13.6478 C   0  0  1  0  0  0  0  0  0  0  0  0
   23.9156  -20.3610  -14.0372 C   0  0  0  0  0  0  0  0  0  0  0  0
   23.7002  -19.7524  -15.3926 C   0  0  0  0  0  0  0  0  0  0  0  0
   22.7292  -18.6486  -15.3817 C   0  0  0  0  0  0  0  0  0  0  0  0
   21.5043  -18.8497  -15.2356 O   0  0  0  0  0  0  0  0  0  0  0  0
   25.3505  -21.1552  -12.2665 C   0  0  0  0  0  0  0  0  0  0  0  0
   25.1331  -22.3821  -12.1424 O   0  0  0  0  0  0  0  0  0  0  0  0
   23.1131  -17.3080  -15.5335 O   0  0  0  0  0  0  0  0  0  0  0  0
   28.3501  -19.3343   -7.9609 C   0  0  0  0  0  0  0  0  0  0  0  0
   27.6111  -20.2293   -8.9196 C   0  0  0  0  0  0  0  0  0  0  0  0
   26.1324  -20.2214   -8.7120 C   0  0  2  0  0  0  0  0  0  0  0  0
   25.8162  -20.8671   -7.3916 C   0  0  0  0  0  0  0  0  0  0  0  0
   25.3895  -20.9778   -9.7930 C   0  0  2  0  0  0  0  0  0  0  0  0
   25.6000  -20.3963  -11.0987 N   0  0  0  0  0  0  0  0  0  0  0  0
   23.9382  -20.9734   -9.5095 C   0  0  0  0  0  0  0  0  0  0  0  0
   23.2009  -20.0791   -9.9938 O   0  0  0  0  0  0  0  0  0  0  0  0
   23.3258  -21.9349   -8.7114 O   0  0  0  0  0  0  0  0  0  0  0  0
  2  1  1  0
  2  4  1  0
  3  2  2  0
  4  5  1  0
  5  6  1  0
  6  7  1  6
  6  8  1  0
  8  9  2  0
 10  8  1  0
 10 11  1  0
 11 12  1  6
 12 13  1  0
 13 14  1  0
 14 18  1  0
 14 15  2  0
 16 11  1  0
 16 17  2  0
 19 20  1  0
 20 21  1  0
 21 23  1  0
 21 22  1  1
 23 24  1  6
 24 16  1  0
 25 27  1  0
 25 23  1  0
 26 25  2  0
M  END
$$$$
