QEI.pdb
     RDKit          3D

 27 26  0  0  1  0  0  0  0  0999 V2000
   21.5117  -16.5866  -21.4276 N   0  0  0  0  0  0  0  0  0  0  0  0
   20.4937  -17.1723  -20.6300 C   0  0  0  0  0  0  0  0  0  0  0  0
   19.8458  -18.1285  -21.1236 O   0  0  0  0  0  0  0  0  0  0  0  0
   20.2306  -16.6375  -19.2465 C   0  0  0  0  0  0  0  0  0  0  0  0
   21.2057  -15.5380  -18.9107 C   0  0  0  0  0  0  0  0  0  0  0  0
   21.0726  -14.9599  -17.5594 C   0  0  2  0  0  0  0  0  0  0  0  0
   19.9294  -15.6043  -16.8753 N   0  0  0  0  0  0  0  0  0  0  0  0
   20.9518  -13.4976  -17.4606 C   0  0  0  0  0  0  0  0  0  0  0  0
   21.8594  -12.7561  -17.9810 O   0  0  0  0  0  0  0  0  0  0  0  0
   19.9058  -12.7804  -16.8258 N   0  0  0  0  0  0  0  0  0  0  0  0
   19.8549  -11.3138  -16.8578 C   0  0  1  0  0  0  0  0  0  0  0  0
   18.5357  -10.7436  -16.4909 C   0  0  0  0  0  0  0  0  0  0  0  0
   18.4340   -9.2467  -16.5459 C   0  0  0  0  0  0  0  0  0  0  0  0
   17.0960   -8.7463  -16.1987 C   0  0  0  0  0  0  0  0  0  0  0  0
   16.8015   -7.5350  -16.2884 O   0  0  0  0  0  0  0  0  0  0  0  0
   20.8604  -10.8537  -15.8514 C   0  0  0  0  0  0  0  0  0  0  0  0
   21.0448  -11.5736  -14.8436 O   0  0  0  0  0  0  0  0  0  0  0  0
   16.0710   -9.5911  -15.7475 O   0  0  0  0  0  0  0  0  0  0  0  0
   26.3823  -10.6498  -15.0773 C   0  0  0  0  0  0  0  0  0  0  0  0
   25.1189   -9.9810  -14.6052 C   0  0  0  0  0  0  0  0  0  0  0  0
   23.9876  -10.1103  -15.5713 C   0  0  2  0  0  0  0  0  0  0  0  0
   24.3876   -9.4965  -16.8842 C   0  0  0  0  0  0  0  0  0  0  0  0
   22.7315   -9.4137  -15.0922 C   0  0  2  0  0  0  0  0  0  0  0  0
   21.6109   -9.6602  -15.9701 N   0  0  0  0  0  0  0  0  0  0  0  0
   22.9561   -7.9538  -15.0220 C   0  0  0  0  0  0  0  0  0  0  0  0
   22.6759   -7.2220  -16.0037 O   0  0  0  0  0  0  0  0  0  0  0  0
   23.4767   -7.3273  -13.8938 O   0  0  0  0  0  0  0  0  0  0  0  0
  2  1  1  0
  2  4  1  0
  3  2  2  0
  4  5  1  0
  5  6  1  0
  6  7  1  6
  6  8  1  0
  8  9  2  0
 10  8  1  0
 10 11  1  0
 11 12  1  1
 12 13  1  0
 13 14  1  0
 14 18  1  0
 14 15  2  0
 16 11  1  0
 16 17  2  0
 19 20  1  0
 20 21  1  0
 21 23  1  0
 21 22  1  6
 23 24  1  6
 24 16  1  0
 25 27  1  0
 25 23  1  0
 26 25  2  0
M  END
$$$$
