QEI.pdb
     RDKit          3D

 27 26  0  0  1  0  0  0  0  0999 V2000
   28.4453  -20.6232  -19.6153 N   0  0  0  0  0  0  0  0  0  0  0  0
   27.4077  -21.5256  -19.9688 C   0  0  0  0  0  0  0  0  0  0  0  0
   27.1183  -21.6310  -21.1866 O   0  0  0  0  0  0  0  0  0  0  0  0
   26.7034  -22.3100  -18.8928 C   0  0  0  0  0  0  0  0  0  0  0  0
   27.3357  -22.0496  -17.5493 C   0  0  0  0  0  0  0  0  0  0  0  0
   27.5393  -20.6287  -17.2063 C   0  0  2  0  0  0  0  0  0  0  0  0
   28.8595  -20.4798  -16.5543 N   0  0  0  0  0  0  0  0  0  0  0  0
   26.5044  -19.9775  -16.3892 C   0  0  0  0  0  0  0  0  0  0  0  0
   26.7386  -19.7416  -15.1507 O   0  0  0  0  0  0  0  0  0  0  0  0
   25.2204  -19.5659  -16.8287 N   0  0  0  0  0  0  0  0  0  0  0  0
   24.3240  -18.7964  -15.9574 C   0  0  1  0  0  0  0  0  0  0  0  0
   23.2058  -18.1324  -16.6708 C   0  0  0  0  0  0  0  0  0  0  0  0
   22.2371  -17.3783  -15.8067 C   0  0  0  0  0  0  0  0  0  0  0  0
   21.1655  -16.7270  -16.5741 C   0  0  0  0  0  0  0  0  0  0  0  0
   20.3275  -17.3863  -17.2262 O   0  0  0  0  0  0  0  0  0  0  0  0
   23.7453  -19.7873  -14.9989 C   0  0  0  0  0  0  0  0  0  0  0  0
   23.3959  -20.9002  -15.4543 O   0  0  0  0  0  0  0  0  0  0  0  0
   21.0163  -15.3330  -16.6231 O   0  0  0  0  0  0  0  0  0  0  0  0
   25.6135  -20.5243   -9.8776 C   0  0  0  0  0  0  0  0  0  0  0  0
   25.0520  -20.7171  -11.2610 C   0  0  0  0  0  0  0  0  0  0  0  0
   23.5835  -20.4583  -11.3420 C   0  0  2  0  0  0  0  0  0  0  0  0
   22.8585  -21.4576  -10.4841 C   0  0  0  0  0  0  0  0  0  0  0  0
   23.0492  -20.5780  -12.7537 C   0  0  2  0  0  0  0  0  0  0  0  0
   23.5704  -19.5430  -13.6163 N   0  0  0  0  0  0  0  0  0  0  0  0
   21.5736  -20.4803  -12.7477 C   0  0  0  0  0  0  0  0  0  0  0  0
   20.8699  -21.5195  -12.8016 O   0  0  0  0  0  0  0  0  0  0  0  0
   20.9017  -19.2635  -12.6836 O   0  0  0  0  0  0  0  0  0  0  0  0
  2  1  1  0
  2  4  1  0
  3  2  2  0
  4  5  1  0
  5  6  1  0
  6  7  1  1
  6  8  1  0
  8  9  2  0
 10  8  1  0
 10 11  1  0
 11 12  1  6
 12 13  1  0
 13 14  1  0
 14 18  1  0
 14 15  2  0
 16 11  1  0
 16 17  2  0
 19 20  1  0
 20 21  1  0
 21 23  1  0
 21 22  1  1
 23 24  1  6
 24 16  1  0
 25 27  1  0
 25 23  1  0
 26 25  2  0
M  END
$$$$
