QEI.pdb
     RDKit          3D

 27 26  0  0  1  0  0  0  0  0999 V2000
   29.3397  -17.8873  -18.4836 N   0  0  0  0  0  0  0  0  0  0  0  0
   28.7093  -16.7615  -19.0761 C   0  0  0  0  0  0  0  0  0  0  0  0
   29.0556  -16.4476  -20.2420 O   0  0  0  0  0  0  0  0  0  0  0  0
   27.6674  -15.9973  -18.3017 C   0  0  0  0  0  0  0  0  0  0  0  0
   27.6679  -16.4210  -16.8550 C   0  0  0  0  0  0  0  0  0  0  0  0
   27.0965  -17.7540  -16.5818 C   0  0  2  0  0  0  0  0  0  0  0  0
   26.7080  -18.3787  -17.8659 N   0  0  0  0  0  0  0  0  0  0  0  0
   25.9743  -17.8251  -15.6340 C   0  0  0  0  0  0  0  0  0  0  0  0
   26.0905  -17.2755  -14.4812 O   0  0  0  0  0  0  0  0  0  0  0  0
   24.7262  -18.4617  -15.8535 N   0  0  0  0  0  0  0  0  0  0  0  0
   23.7047  -18.5256  -14.8014 C   0  0  1  0  0  0  0  0  0  0  0  0
   22.3239  -18.7224  -15.3064 C   0  0  0  0  0  0  0  0  0  0  0  0
   21.7828  -17.6215  -16.1718 C   0  0  0  0  0  0  0  0  0  0  0  0
   20.4190  -17.8841  -16.6538 C   0  0  0  0  0  0  0  0  0  0  0  0
   19.8170  -18.9453  -16.3828 O   0  0  0  0  0  0  0  0  0  0  0  0
   24.0678  -19.7061  -13.9586 C   0  0  0  0  0  0  0  0  0  0  0  0
   24.4785  -20.7337  -14.5444 O   0  0  0  0  0  0  0  0  0  0  0  0
   19.7109  -16.9662  -17.4437 O   0  0  0  0  0  0  0  0  0  0  0  0
   26.3421  -18.8483   -9.2693 C   0  0  0  0  0  0  0  0  0  0  0  0
   26.1264  -19.6596  -10.5189 C   0  0  0  0  0  0  0  0  0  0  0  0
   24.9305  -20.5506  -10.4435 C   0  0  2  0  0  0  0  0  0  0  0  0
   25.3110  -21.8293   -9.7503 C   0  0  0  0  0  0  0  0  0  0  0  0
   24.3818  -20.9041  -11.8098 C   0  0  2  0  0  0  0  0  0  0  0  0
   23.9752  -19.7300  -12.5469 N   0  0  0  0  0  0  0  0  0  0  0  0
   23.2105  -21.7960  -11.6711 C   0  0  0  0  0  0  0  0  0  0  0  0
   22.0580  -21.3127  -11.5442 O   0  0  0  0  0  0  0  0  0  0  0  0
   23.3183  -23.1833  -11.6735 O   0  0  0  0  0  0  0  0  0  0  0  0
  2  1  1  0
  2  4  1  0
  3  2  2  0
  4  5  1  0
  5  6  1  0
  6  7  1  6
  6  8  1  0
  8  9  2  0
 10  8  1  0
 10 11  1  0
 11 12  1  6
 12 13  1  0
 13 14  1  0
 14 18  1  0
 14 15  2  0
 16 11  1  0
 16 17  2  0
 19 20  1  0
 20 21  1  0
 21 23  1  0
 21 22  1  6
 23 24  1  1
 24 16  1  0
 25 27  1  0
 25 23  1  0
 26 25  2  0
M  END
$$$$
