QEI.pdb
     RDKit          3D

 27 26  0  0  1  0  0  0  0  0999 V2000
   13.6095  -14.4414  -15.2013 N   0  0  0  0  0  0  0  0  0  0  0  0
   12.7111  -13.3606  -15.4020 C   0  0  0  0  0  0  0  0  0  0  0  0
   11.8158  -13.5023  -16.2717 O   0  0  0  0  0  0  0  0  0  0  0  0
   12.8591  -12.1060  -14.5815 C   0  0  0  0  0  0  0  0  0  0  0  0
   14.0059  -12.2408  -13.6123 C   0  0  0  0  0  0  0  0  0  0  0  0
   15.3162  -11.7766  -14.1079 C   0  0  2  0  0  0  0  0  0  0  0  0
   16.1231  -12.9543  -14.4979 N   0  0  0  0  0  0  0  0  0  0  0  0
   16.1025  -10.9060  -13.2211 C   0  0  0  0  0  0  0  0  0  0  0  0
   16.1686  -11.1797  -11.9700 O   0  0  0  0  0  0  0  0  0  0  0  0
   16.8240   -9.7465  -13.6034 N   0  0  0  0  0  0  0  0  0  0  0  0
   17.6898   -9.0367  -12.6540 C   0  0  1  0  0  0  0  0  0  0  0  0
   18.8733   -8.3934  -13.2750 C   0  0  0  0  0  0  0  0  0  0  0  0
   19.7467   -7.6001  -12.3467 C   0  0  0  0  0  0  0  0  0  0  0  0
   20.8397   -6.9019  -13.0388 C   0  0  0  0  0  0  0  0  0  0  0  0
   21.6834   -7.5163  -13.7264 O   0  0  0  0  0  0  0  0  0  0  0  0
   16.8362   -7.9663  -12.0530 C   0  0  0  0  0  0  0  0  0  0  0  0
   16.1426   -7.2716  -12.8303 O   0  0  0  0  0  0  0  0  0  0  0  0
   21.0044   -5.5104  -12.9721 O   0  0  0  0  0  0  0  0  0  0  0  0
   12.6712   -6.5009   -8.1447 C   0  0  0  0  0  0  0  0  0  0  0  0
   13.9290   -6.0187   -8.8168 C   0  0  0  0  0  0  0  0  0  0  0  0
   14.7355   -7.1221   -9.4183 C   0  0  2  0  0  0  0  0  0  0  0  0
   15.2229   -8.0301   -8.3236 C   0  0  0  0  0  0  0  0  0  0  0  0
   15.9431   -6.6127  -10.1766 C   0  0  2  0  0  0  0  0  0  0  0  0
   16.7667   -7.6939  -10.6664 N   0  0  0  0  0  0  0  0  0  0  0  0
   16.7704   -5.7579   -9.2981 C   0  0  0  0  0  0  0  0  0  0  0  0
   17.8607   -6.1848   -8.8433 O   0  0  0  0  0  0  0  0  0  0  0  0
   16.3959   -4.4673   -8.9368 O   0  0  0  0  0  0  0  0  0  0  0  0
  2  1  1  0
  2  4  1  0
  3  2  2  0
  4  5  1  0
  5  6  1  0
  6  7  1  1
  6  8  1  0
  8  9  2  0
 10  8  1  0
 10 11  1  0
 11 12  1  6
 12 13  1  0
 13 14  1  0
 14 18  1  0
 14 15  2  0
 16 11  1  0
 16 17  2  0
 19 20  1  0
 20 21  1  0
 21 23  1  0
 21 22  1  1
 23 24  1  1
 24 16  1  0
 25 27  1  0
 25 23  1  0
 26 25  2  0
M  END
$$$$
