SYK.pdb
     RDKit          3D

 28 28  0  0  1  0  0  0  0  0999 V2000
   11.9924  -16.6759    4.0063 O   0  0  0  0  0  0  0  0  0  0  0  0
   13.1544  -16.1408    3.4632 C   0  0  0  0  0  0  0  0  0  0  0  0
   13.8515  -17.1706    2.5710 C   0  0  2  0  0  0  0  0  0  0  0  0
   12.9120  -18.2342    2.3207 N   0  0  0  0  0  0  0  0  0  0  0  0
   15.1030  -17.6522    3.2226 C   0  0  0  0  0  0  0  0  0  0  0  0
   15.7746  -18.5049    2.6350 O   0  0  0  0  0  0  0  0  0  0  0  0
   19.0692  -11.5562    3.8297 O   0  0  0  0  0  0  0  0  0  0  0  0
   18.6751  -12.8004    4.3117 C   0  0  0  0  0  0  0  0  0  0  0  0
   18.7950  -13.9532    3.5696 C   0  0  0  0  0  0  0  0  0  0  0  0
   18.3995  -15.2069    4.0514 C   0  0  0  0  0  0  0  0  0  0  0  0
   17.8744  -15.3204    5.2948 C   0  0  0  0  0  0  0  0  0  0  0  0
   17.4158  -16.5315    5.9817 C   0  0  0  0  0  0  0  0  0  0  0  0
   16.7262  -17.5563    5.1273 C   0  0  2  0  0  0  0  0  0  0  0  0
   15.5397  -17.1700    4.4758 N   0  0  0  0  0  0  0  0  0  0  0  0
   16.6153  -18.8048    5.8924 C   0  0  0  0  0  0  0  0  0  0  0  0
   15.5273  -19.0094    6.5236 O   0  0  0  0  0  0  0  0  0  0  0  0
   17.7587  -14.1321    6.0401 C   0  0  0  0  0  0  0  0  0  0  0  0
   18.1482  -12.9081    5.5612 C   0  0  0  0  0  0  0  0  0  0  0  0
   17.6094  -19.7636    5.9684 N   0  0  0  0  0  0  0  0  0  0  0  0
   17.4286  -21.0288    6.8100 C   0  0  1  0  0  0  0  0  0  0  0  0
   17.3123  -22.1251    5.8336 C   0  0  0  0  0  0  0  0  0  0  0  0
   17.1988  -23.5069    6.2626 C   0  0  0  0  0  0  0  0  0  0  0  0
   17.2314  -24.6376    5.3035 C   0  0  0  0  0  0  0  0  0  0  0  0
   17.0751  -25.9970    5.9285 C   0  0  0  0  0  0  0  0  0  0  0  0
   17.2329  -26.9806    4.8768 N   0  0  0  0  0  0  0  0  0  0  0  0
   18.6945  -21.0392    7.5682 C   0  0  0  0  0  0  0  0  0  0  0  0
   18.8400  -21.8662    8.5463 O   0  0  0  0  0  0  0  0  0  0  0  0
   19.7933  -20.2449    7.3501 O   0  0  0  0  0  0  0  0  0  0  0  0
  2  1  1  0
  3  2  1  0
  3  4  1  1
  5 14  1  0
  5  3  1  0
  6  5  2  0
  8  7  1  0
  8 18  2  0
  9  8  1  0
 10  9  2  0
 10 11  1  0
 11 17  2  0
 12 11  1  0
 13 12  1  1
 13 14  1  0
 15 16  2  0
 15 13  1  0
 17 18  1  0
 19 15  1  0
 20 26  1  0
 20 19  1  0
 20 21  1  6
 22 23  1  0
 22 21  1  0
 24 25  1  0
 24 23  1  0
 26 28  1  0
 27 26  2  0
M  END
$$$$
