SYK.pdb
     RDKit          3D

 28 28  0  0  1  0  0  0  0  0999 V2000
   19.8407  -11.6785    4.9065 O   0  0  0  0  0  0  0  0  0  0  0  0
   19.1151  -12.8562    5.0405 C   0  0  0  0  0  0  0  0  0  0  0  0
   17.9846  -12.9083    4.0100 C   0  0  2  0  0  0  0  0  0  0  0  0
   17.0479  -11.8645    4.3408 N   0  0  0  0  0  0  0  0  0  0  0  0
   17.3574  -14.2609    4.0028 C   0  0  0  0  0  0  0  0  0  0  0  0
   16.3467  -14.4378    4.6889 O   0  0  0  0  0  0  0  0  0  0  0  0
   15.4007  -22.7195    2.3672 O   0  0  0  0  0  0  0  0  0  0  0  0
   16.0283  -21.4782    2.3389 C   0  0  0  0  0  0  0  0  0  0  0  0
   17.3502  -21.3095    2.6832 C   0  0  0  0  0  0  0  0  0  0  0  0
   17.9850  -20.0619    2.6559 C   0  0  0  0  0  0  0  0  0  0  0  0
   17.2956  -18.9585    2.2793 C   0  0  0  0  0  0  0  0  0  0  0  0
   17.7760  -17.5777    2.1733 C   0  0  0  0  0  0  0  0  0  0  0  0
   17.4380  -16.6692    3.3205 C   0  0  2  0  0  0  0  0  0  0  0  0
   17.8762  -15.3335    3.2451 N   0  0  0  0  0  0  0  0  0  0  0  0
   17.7881  -17.3490    4.5742 C   0  0  0  0  0  0  0  0  0  0  0  0
   18.9927  -17.2486    4.9775 O   0  0  0  0  0  0  0  0  0  0  0  0
   15.9452  -19.1486    1.9307 C   0  0  0  0  0  0  0  0  0  0  0  0
   15.3306  -20.3736    1.9601 C   0  0  0  0  0  0  0  0  0  0  0  0
   16.8987  -18.0839    5.3372 N   0  0  0  0  0  0  0  0  0  0  0  0
   17.3446  -18.7790    6.6255 C   0  0  1  0  0  0  0  0  0  0  0  0
   16.4175  -18.2953    7.6625 C   0  0  0  0  0  0  0  0  0  0  0  0
   16.6440  -18.5802    9.0675 C   0  0  0  0  0  0  0  0  0  0  0  0
   15.7819  -18.0202   10.1365 C   0  0  0  0  0  0  0  0  0  0  0  0
   16.2355  -18.3304   11.5369 C   0  0  0  0  0  0  0  0  0  0  0  0
   15.2794  -17.7331   12.4466 N   0  0  0  0  0  0  0  0  0  0  0  0
   17.1423  -20.1942    6.2598 C   0  0  0  0  0  0  0  0  0  0  0  0
   16.3603  -20.4890    5.2782 O   0  0  0  0  0  0  0  0  0  0  0  0
   17.7135  -21.2906    6.8577 O   0  0  0  0  0  0  0  0  0  0  0  0
  2  1  1  0
  3  2  1  0
  3  4  1  1
  5 14  1  0
  5  3  1  0
  6  5  2  0
  8  7  1  0
  8 18  2  0
  9  8  1  0
 10  9  2  0
 10 11  1  0
 11 17  2  0
 12 11  1  0
 13 12  1  6
 13 14  1  0
 15 16  2  0
 15 13  1  0
 17 18  1  0
 19 15  1  0
 20 26  1  0
 20 19  1  0
 20 21  1  1
 22 23  1  0
 22 21  1  0
 24 25  1  0
 24 23  1  0
 26 28  1  0
 27 26  2  0
M  END
$$$$
