SYK.pdb
     RDKit          3D

 28 28  0  0  1  0  0  0  0  0999 V2000
   17.3018  -13.0440  -15.7815 O   0  0  0  0  0  0  0  0  0  0  0  0
   18.6361  -12.8309  -15.4561 C   0  0  0  0  0  0  0  0  0  0  0  0
   19.2506  -11.7775  -16.3810 C   0  0  2  0  0  0  0  0  0  0  0  0
   19.0170  -12.2025  -17.7379 N   0  0  0  0  0  0  0  0  0  0  0  0
   20.6998  -11.6069  -16.0747 C   0  0  0  0  0  0  0  0  0  0  0  0
   21.2904  -12.5361  -15.5167 O   0  0  0  0  0  0  0  0  0  0  0  0
   29.2927  -10.6730  -16.7897 O   0  0  0  0  0  0  0  0  0  0  0  0
   27.9119  -10.8429  -16.7758 C   0  0  0  0  0  0  0  0  0  0  0  0
   27.2042  -11.0542  -15.6145 C   0  0  0  0  0  0  0  0  0  0  0  0
   25.8147  -11.2256  -15.5967 C   0  0  0  0  0  0  0  0  0  0  0  0
   25.1120  -11.1866  -16.7539 C   0  0  0  0  0  0  0  0  0  0  0  0
   23.6657  -11.3296  -16.9454 C   0  0  0  0  0  0  0  0  0  0  0  0
   22.8063  -10.2734  -16.3115 C   0  0  2  0  0  0  0  0  0  0  0  0
   21.4101  -10.4304  -16.3986 N   0  0  0  0  0  0  0  0  0  0  0  0
   23.2930   -8.9556  -16.7392 C   0  0  0  0  0  0  0  0  0  0  0  0
   22.9052   -8.5294  -17.8759 O   0  0  0  0  0  0  0  0  0  0  0  0
   25.8510  -10.9697  -17.9321 C   0  0  0  0  0  0  0  0  0  0  0  0
   27.2116  -10.8029  -17.9413 C   0  0  0  0  0  0  0  0  0  0  0  0
   24.1378   -8.1559  -15.9909 N   0  0  0  0  0  0  0  0  0  0  0  0
   24.5732   -6.7765  -16.4902 C   0  0  1  0  0  0  0  0  0  0  0  0
   25.7459   -7.0305  -17.3438 C   0  0  0  0  0  0  0  0  0  0  0  0
   26.4122   -5.9511  -18.0491 C   0  0  0  0  0  0  0  0  0  0  0  0
   27.5063   -6.1977  -19.0196 C   0  0  0  0  0  0  0  0  0  0  0  0
   27.9886   -4.9729  -19.7478 C   0  0  0  0  0  0  0  0  0  0  0  0
   29.0670   -5.3834  -20.6235 N   0  0  0  0  0  0  0  0  0  0  0  0
   23.3710   -6.3618  -17.2387 C   0  0  0  0  0  0  0  0  0  0  0  0
   22.5529   -5.5197  -16.7064 O   0  0  0  0  0  0  0  0  0  0  0  0
   22.9976   -6.7746  -18.4940 O   0  0  0  0  0  0  0  0  0  0  0  0
  2  1  1  0
  3  2  1  0
  3  4  1  6
  5 14  1  0
  5  3  1  0
  6  5  2  0
  8  7  1  0
  8 18  2  0
  9  8  1  0
 10  9  2  0
 10 11  1  0
 11 17  2  0
 12 11  1  0
 13 12  1  6
 13 14  1  0
 15 16  2  0
 15 13  1  0
 17 18  1  0
 19 15  1  0
 20 26  1  0
 20 19  1  0
 20 21  1  6
 22 23  1  0
 22 21  1  0
 24 25  1  0
 24 23  1  0
 26 28  1  0
 27 26  2  0
M  END
$$$$
