SYK.pdb
     RDKit          3D

 28 28  0  0  1  0  0  0  0  0999 V2000
   27.8186  -23.4645  -19.0668 O   0  0  0  0  0  0  0  0  0  0  0  0
   28.8526  -22.6575  -18.6071 C   0  0  0  0  0  0  0  0  0  0  0  0
   29.3939  -23.1874  -17.2771 C   0  0  2  0  0  0  0  0  0  0  0  0
   29.9333  -24.5011  -17.5210 N   0  0  0  0  0  0  0  0  0  0  0  0
   28.3150  -23.1922  -16.2482 C   0  0  0  0  0  0  0  0  0  0  0  0
   27.9159  -24.2819  -15.8278 O   0  0  0  0  0  0  0  0  0  0  0  0
   23.1100  -20.7580   -9.5174 O   0  0  0  0  0  0  0  0  0  0  0  0
   23.9469  -20.7248  -10.6283 C   0  0  0  0  0  0  0  0  0  0  0  0
   23.5214  -20.2887  -11.8624 C   0  0  0  0  0  0  0  0  0  0  0  0
   24.3608  -20.2539  -12.9825 C   0  0  0  0  0  0  0  0  0  0  0  0
   25.6488  -20.6596  -12.8772 C   0  0  0  0  0  0  0  0  0  0  0  0
   26.6815  -20.6884  -13.9171 C   0  0  0  0  0  0  0  0  0  0  0  0
   26.7511  -21.9385  -14.7467 C   0  0  2  0  0  0  0  0  0  0  0  0
   27.7415  -22.0041  -15.7449 N   0  0  0  0  0  0  0  0  0  0  0  0
   25.3984  -22.2636  -15.2167 C   0  0  0  0  0  0  0  0  0  0  0  0
   24.9912  -21.6818  -16.2748 O   0  0  0  0  0  0  0  0  0  0  0  0
   26.0676  -21.1025  -11.6085 C   0  0  0  0  0  0  0  0  0  0  0  0
   25.2395  -21.1337  -10.5165 C   0  0  0  0  0  0  0  0  0  0  0  0
   24.5477  -23.1548  -14.5879 N   0  0  0  0  0  0  0  0  0  0  0  0
   23.1491  -23.4401  -15.1394 C   0  0  1  0  0  0  0  0  0  0  0  0
   22.8618  -24.8321  -14.7540 C   0  0  0  0  0  0  0  0  0  0  0  0
   21.8462  -25.6093  -15.4402 C   0  0  0  0  0  0  0  0  0  0  0  0
   21.4718  -26.9777  -15.0079 C   0  0  0  0  0  0  0  0  0  0  0  0
   20.3770  -27.6157  -15.8188 C   0  0  0  0  0  0  0  0  0  0  0  0
   20.2548  -28.9907  -15.3797 N   0  0  0  0  0  0  0  0  0  0  0  0
   22.3522  -22.4417  -14.4008 C   0  0  0  0  0  0  0  0  0  0  0  0
   22.2167  -22.5584  -13.1241 O   0  0  0  0  0  0  0  0  0  0  0  0
   21.7098  -21.3471  -14.9253 O   0  0  0  0  0  0  0  0  0  0  0  0
  2  1  1  0
  3  2  1  0
  3  4  1  6
  5 14  1  0
  5  3  1  0
  6  5  2  0
  8  7  1  0
  8 18  2  0
  9  8  1  0
 10  9  2  0
 10 11  1  0
 11 17  2  0
 12 11  1  0
 13 12  1  6
 13 14  1  0
 15 16  2  0
 15 13  1  0
 17 18  1  0
 19 15  1  0
 20 26  1  0
 20 19  1  0
 20 21  1  1
 22 23  1  0
 22 21  1  0
 24 25  1  0
 24 23  1  0
 26 28  1  0
 27 26  2  0
M  END
$$$$
