SYK.pdb
     RDKit          3D

 28 28  0  0  1  0  0  0  0  0999 V2000
   22.8643  -10.9402  -18.4947 O   0  0  0  0  0  0  0  0  0  0  0  0
   22.1161   -9.9365  -17.8912 C   0  0  0  0  0  0  0  0  0  0  0  0
   21.5214  -10.4328  -16.5710 C   0  0  2  0  0  0  0  0  0  0  0  0
   20.6090  -11.5038  -16.8819 N   0  0  0  0  0  0  0  0  0  0  0  0
   20.8610   -9.3077  -15.8494 C   0  0  0  0  0  0  0  0  0  0  0  0
   19.7183   -8.9885  -16.1897 O   0  0  0  0  0  0  0  0  0  0  0  0
   18.1584   -3.8551   -9.4913 O   0  0  0  0  0  0  0  0  0  0  0  0
   18.9500   -4.6685  -10.2957 C   0  0  0  0  0  0  0  0  0  0  0  0
   19.8342   -4.1597  -11.2196 C   0  0  0  0  0  0  0  0  0  0  0  0
   20.6325   -4.9752  -12.0308 C   0  0  0  0  0  0  0  0  0  0  0  0
   20.5530   -6.3231  -11.9240 C   0  0  0  0  0  0  0  0  0  0  0  0
   21.3044   -7.3404  -12.6650 C   0  0  0  0  0  0  0  0  0  0  0  0
   20.9456   -7.5038  -14.1143 C   0  0  2  0  0  0  0  0  0  0  0  0
   21.4931   -8.6037  -14.8013 N   0  0  0  0  0  0  0  0  0  0  0  0
   21.1352   -6.2145  -14.7912 C   0  0  0  0  0  0  0  0  0  0  0  0
   22.3241   -5.8970  -15.1225 O   0  0  0  0  0  0  0  0  0  0  0  0
   19.6439   -6.8268  -10.9747 C   0  0  0  0  0  0  0  0  0  0  0  0
   18.8656   -6.0216  -10.1841 C   0  0  0  0  0  0  0  0  0  0  0  0
   20.1122   -5.3325  -15.0892 N   0  0  0  0  0  0  0  0  0  0  0  0
   20.3685   -4.0705  -15.9160 C   0  0  1  0  0  0  0  0  0  0  0  0
   19.4198   -4.1493  -17.0396 C   0  0  0  0  0  0  0  0  0  0  0  0
   19.2397   -3.0357  -17.9528 C   0  0  0  0  0  0  0  0  0  0  0  0
   18.3981   -3.1394  -19.1695 C   0  0  0  0  0  0  0  0  0  0  0  0
   18.3640   -1.8977  -20.0180 C   0  0  0  0  0  0  0  0  0  0  0  0
   17.6564   -2.2241  -21.2392 N   0  0  0  0  0  0  0  0  0  0  0  0
   20.0379   -3.0231  -14.9305 C   0  0  0  0  0  0  0  0  0  0  0  0
   20.7044   -1.9197  -14.9315 O   0  0  0  0  0  0  0  0  0  0  0  0
   19.0587   -3.0745  -13.9690 O   0  0  0  0  0  0  0  0  0  0  0  0
  2  1  1  0
  3  2  1  0
  3  4  1  6
  5 14  1  0
  5  3  1  0
  6  5  2  0
  8  7  1  0
  8 18  2  0
  9  8  1  0
 10  9  2  0
 10 11  1  0
 11 17  2  0
 12 11  1  0
 13 12  1  1
 13 14  1  0
 15 16  2  0
 15 13  1  0
 17 18  1  0
 19 15  1  0
 20 26  1  0
 20 19  1  0
 20 21  1  6
 22 23  1  0
 22 21  1  0
 24 25  1  0
 24 23  1  0
 26 28  1  0
 27 26  2  0
M  END
$$$$
