SYK.pdb
     RDKit          3D

 28 28  0  0  1  0  0  0  0  0999 V2000
   21.0834  -14.3230  -16.7870 O   0  0  0  0  0  0  0  0  0  0  0  0
   21.0952  -15.7125  -16.8111 C   0  0  0  0  0  0  0  0  0  0  0  0
   22.3998  -16.2258  -17.4255 C   0  0  2  0  0  0  0  0  0  0  0  0
   22.4169  -15.8204  -18.8081 N   0  0  0  0  0  0  0  0  0  0  0  0
   22.4995  -17.7041  -17.2598 C   0  0  0  0  0  0  0  0  0  0  0  0
   21.8485  -18.4211  -18.0251 O   0  0  0  0  0  0  0  0  0  0  0  0
   24.7662  -25.8380  -14.5204 O   0  0  0  0  0  0  0  0  0  0  0  0
   24.7463  -24.4795  -14.8197 C   0  0  0  0  0  0  0  0  0  0  0  0
   24.8431  -24.0041  -16.1076 C   0  0  0  0  0  0  0  0  0  0  0  0
   24.8233  -22.6378  -16.4125 C   0  0  0  0  0  0  0  0  0  0  0  0
   24.7048  -21.7234  -15.4202 C   0  0  0  0  0  0  0  0  0  0  0  0
   24.6521  -20.2627  -15.5305 C   0  0  0  0  0  0  0  0  0  0  0  0
   23.3395  -19.6788  -15.9688 C   0  0  2  0  0  0  0  0  0  0  0  0
   23.3051  -18.3035  -16.2672 N   0  0  0  0  0  0  0  0  0  0  0  0
   22.2963  -20.1196  -15.0340 C   0  0  0  0  0  0  0  0  0  0  0  0
   22.2391  -19.5348  -13.9032 O   0  0  0  0  0  0  0  0  0  0  0  0
   24.6071  -22.2264  -14.1092 C   0  0  0  0  0  0  0  0  0  0  0  0
   24.6273  -23.5660  -13.8188 C   0  0  0  0  0  0  0  0  0  0  0  0
   21.3801  -21.1202  -15.3035 N   0  0  0  0  0  0  0  0  0  0  0  0
   20.3475  -21.5523  -14.2602 C   0  0  1  0  0  0  0  0  0  0  0  0
   19.0396  -21.2967  -14.8868 C   0  0  0  0  0  0  0  0  0  0  0  0
   17.8010  -21.6315  -14.2083 C   0  0  0  0  0  0  0  0  0  0  0  0
   16.4785  -21.4991  -14.8663 C   0  0  0  0  0  0  0  0  0  0  0  0
   15.3012  -21.7862  -13.9749 C   0  0  0  0  0  0  0  0  0  0  0  0
   14.1088  -21.3577  -14.6769 N   0  0  0  0  0  0  0  0  0  0  0  0
   20.6732  -22.9853  -14.1264 C   0  0  0  0  0  0  0  0  0  0  0  0
   21.1227  -23.6305  -15.1479 O   0  0  0  0  0  0  0  0  0  0  0  0
   20.5584  -23.7553  -12.9952 O   0  0  0  0  0  0  0  0  0  0  0  0
  2  1  1  0
  3  2  1  0
  3  4  1  6
  5 14  1  0
  5  3  1  0
  6  5  2  0
  8  7  1  0
  8 18  2  0
  9  8  1  0
 10  9  2  0
 10 11  1  0
 11 17  2  0
 12 11  1  0
 13 12  1  1
 13 14  1  0
 15 16  2  0
 15 13  1  0
 17 18  1  0
 19 15  1  0
 20 26  1  0
 20 19  1  0
 20 21  1  6
 22 23  1  0
 22 21  1  0
 24 25  1  0
 24 23  1  0
 26 28  1  0
 27 26  2  0
M  END
$$$$
