SYK.pdb
     RDKit          3D

 28 28  0  0  1  0  0  0  0  0999 V2000
   24.7934  -22.1043  -17.7813 O   0  0  0  0  0  0  0  0  0  0  0  0
   25.0138  -23.3991  -17.3270 C   0  0  0  0  0  0  0  0  0  0  0  0
   25.3166  -23.3954  -15.8267 C   0  0  2  0  0  0  0  0  0  0  0  0
   25.5736  -24.7574  -15.4327 N   0  0  0  0  0  0  0  0  0  0  0  0
   24.1830  -22.7849  -15.0749 C   0  0  0  0  0  0  0  0  0  0  0  0
   23.3289  -23.5370  -14.5970 O   0  0  0  0  0  0  0  0  0  0  0  0
   26.2846  -21.1976   -8.6370 O   0  0  0  0  0  0  0  0  0  0  0  0
   25.5292  -20.8175   -9.7417 C   0  0  0  0  0  0  0  0  0  0  0  0
   24.1728  -20.5958   -9.6697 C   0  0  0  0  0  0  0  0  0  0  0  0
   23.4095  -20.2132  -10.7793 C   0  0  0  0  0  0  0  0  0  0  0  0
   24.0028  -20.0466  -11.9854 C   0  0  0  0  0  0  0  0  0  0  0  0
   23.3888  -19.6415  -13.2533 C   0  0  0  0  0  0  0  0  0  0  0  0
   23.0157  -20.7523  -14.1929 C   0  0  2  0  0  0  0  0  0  0  0  0
   24.0564  -21.3903  -14.8939 N   0  0  0  0  0  0  0  0  0  0  0  0
   21.9085  -20.2944  -15.0420 C   0  0  0  0  0  0  0  0  0  0  0  0
   22.1966  -19.5187  -16.0111 O   0  0  0  0  0  0  0  0  0  0  0  0
   25.3902  -20.2774  -12.0416 C   0  0  0  0  0  0  0  0  0  0  0  0
   26.1307  -20.6520  -10.9505 C   0  0  0  0  0  0  0  0  0  0  0  0
   20.5849  -20.6508  -14.8567 N   0  0  0  0  0  0  0  0  0  0  0  0
   19.4962  -20.1923  -15.8294 C   0  0  1  0  0  0  0  0  0  0  0  0
   19.3431  -21.3028  -16.7843 C   0  0  0  0  0  0  0  0  0  0  0  0
   18.4193  -21.2147  -17.9003 C   0  0  0  0  0  0  0  0  0  0  0  0
   18.2603  -22.3136  -18.8835 C   0  0  0  0  0  0  0  0  0  0  0  0
   17.2393  -22.0535  -19.9573 C   0  0  0  0  0  0  0  0  0  0  0  0
   15.9313  -22.1097  -19.3373 N   0  0  0  0  0  0  0  0  0  0  0  0
   18.3526  -20.0362  -14.9101 C   0  0  0  0  0  0  0  0  0  0  0  0
   18.4400  -20.4923  -13.7075 O   0  0  0  0  0  0  0  0  0  0  0  0
   17.1502  -19.4321  -15.1842 O   0  0  0  0  0  0  0  0  0  0  0  0
  2  1  1  0
  3  2  1  0
  3  4  1  1
  5 14  1  0
  5  3  1  0
  6  5  2  0
  8  7  1  0
  8 18  2  0
  9  8  1  0
 10  9  2  0
 10 11  1  0
 11 17  2  0
 12 11  1  0
 13 12  1  6
 13 14  1  0
 15 16  2  0
 15 13  1  0
 17 18  1  0
 19 15  1  0
 20 26  1  0
 20 19  1  0
 20 21  1  6
 22 23  1  0
 22 21  1  0
 24 25  1  0
 24 23  1  0
 26 28  1  0
 27 26  2  0
M  END
$$$$
