SYK.pdb
     RDKit          3D

 28 28  0  0  1  0  0  0  0  0999 V2000
   27.4738  -10.3490  -14.9174 O   0  0  0  0  0  0  0  0  0  0  0  0
   26.4692   -9.6736  -15.6002 C   0  0  0  0  0  0  0  0  0  0  0  0
   25.5236  -10.6666  -16.2801 C   0  0  2  0  0  0  0  0  0  0  0  0
   26.2875  -11.3867  -17.2671 N   0  0  0  0  0  0  0  0  0  0  0  0
   24.3588   -9.9464  -16.8695 C   0  0  0  0  0  0  0  0  0  0  0  0
   24.4351   -9.5801  -18.0458 O   0  0  0  0  0  0  0  0  0  0  0  0
   20.9184  -14.4056  -20.2096 O   0  0  0  0  0  0  0  0  0  0  0  0
   20.8868  -13.2700  -19.4065 C   0  0  0  0  0  0  0  0  0  0  0  0
   20.8081  -11.9981  -19.9264 C   0  0  0  0  0  0  0  0  0  0  0  0
   20.7761  -10.8531  -19.1212 C   0  0  0  0  0  0  0  0  0  0  0  0
   20.8229  -10.9711  -17.7727 C   0  0  0  0  0  0  0  0  0  0  0  0
   20.7884   -9.9075  -16.7646 C   0  0  0  0  0  0  0  0  0  0  0  0
   22.0255   -9.0635  -16.6501 C   0  0  2  0  0  0  0  0  0  0  0  0
   23.1849   -9.6729  -16.1342 N   0  0  0  0  0  0  0  0  0  0  0  0
   21.6687   -7.7968  -15.9984 C   0  0  0  0  0  0  0  0  0  0  0  0
   21.8441   -7.7175  -14.7387 O   0  0  0  0  0  0  0  0  0  0  0  0
   20.9034  -12.2786  -17.2577 C   0  0  0  0  0  0  0  0  0  0  0  0
   20.9344  -13.3949  -18.0527 C   0  0  0  0  0  0  0  0  0  0  0  0
   21.1597   -6.6950  -16.6617 N   0  0  0  0  0  0  0  0  0  0  0  0
   20.8901   -5.3807  -15.9259 C   0  0  1  0  0  0  0  0  0  0  0  0
   20.8624   -4.3510  -16.9783 C   0  0  0  0  0  0  0  0  0  0  0  0
   20.5175   -2.9740  -16.6759 C   0  0  0  0  0  0  0  0  0  0  0  0
   20.5997   -1.8970  -17.6922 C   0  0  0  0  0  0  0  0  0  0  0  0
   20.1231   -0.5502  -17.2211 C   0  0  0  0  0  0  0  0  0  0  0  0
   20.2017    0.3578  -18.3470 N   0  0  0  0  0  0  0  0  0  0  0  0
   19.5681   -5.6620  -15.3338 C   0  0  0  0  0  0  0  0  0  0  0  0
   18.7734   -6.4886  -15.9230 O   0  0  0  0  0  0  0  0  0  0  0  0
   19.0537   -5.1339  -14.1752 O   0  0  0  0  0  0  0  0  0  0  0  0
  2  1  1  0
  3  2  1  0
  3  4  1  6
  5 14  1  0
  5  3  1  0
  6  5  2  0
  8  7  1  0
  8 18  2  0
  9  8  1  0
 10  9  2  0
 10 11  1  0
 11 17  2  0
 12 11  1  0
 13 12  1  1
 13 14  1  0
 15 16  2  0
 15 13  1  0
 17 18  1  0
 19 15  1  0
 20 26  1  0
 20 19  1  0
 20 21  1  6
 22 23  1  0
 22 21  1  0
 24 25  1  0
 24 23  1  0
 26 28  1  0
 27 26  2  0
M  END
$$$$
