SYK.pdb
     RDKit          3D

 28 28  0  0  1  0  0  0  0  0999 V2000
   19.5416  -21.7663  -12.6392 O   0  0  0  0  0  0  0  0  0  0  0  0
   20.8350  -21.3001  -12.8426 C   0  0  0  0  0  0  0  0  0  0  0  0
   21.5243  -21.0329  -11.5025 C   0  0  2  0  0  0  0  0  0  0  0  0
   20.6894  -20.1238  -10.7590 N   0  0  0  0  0  0  0  0  0  0  0  0
   22.8971  -20.4969  -11.7282 C   0  0  0  0  0  0  0  0  0  0  0  0
   23.0461  -19.2720  -11.7604 O   0  0  0  0  0  0  0  0  0  0  0  0
   27.4793  -19.1695   -6.0929 O   0  0  0  0  0  0  0  0  0  0  0  0
   27.1590  -19.7671   -7.3077 C   0  0  0  0  0  0  0  0  0  0  0  0
   25.9169  -20.3016   -7.5646 C   0  0  0  0  0  0  0  0  0  0  0  0
   25.5911  -20.9037   -8.7859 C   0  0  0  0  0  0  0  0  0  0  0  0
   26.5153  -20.9775   -9.7733 C   0  0  0  0  0  0  0  0  0  0  0  0
   26.3700  -21.5507  -11.1146 C   0  0  0  0  0  0  0  0  0  0  0  0
   25.3534  -20.8979  -12.0069 C   0  0  2  0  0  0  0  0  0  0  0  0
   24.0194  -21.3355  -11.9044 N   0  0  0  0  0  0  0  0  0  0  0  0
   25.8784  -20.8792  -13.3783 C   0  0  0  0  0  0  0  0  0  0  0  0
   25.5735  -21.8583  -14.1348 O   0  0  0  0  0  0  0  0  0  0  0  0
   27.7801  -20.4265   -9.4941 C   0  0  0  0  0  0  0  0  0  0  0  0
   28.0915  -19.8385   -8.2955 C   0  0  0  0  0  0  0  0  0  0  0  0
   26.6751  -19.8731  -13.8945 N   0  0  0  0  0  0  0  0  0  0  0  0
   27.0482  -19.8391  -15.3781 C   0  0  1  0  0  0  0  0  0  0  0  0
   27.7491  -18.5579  -15.5677 C   0  0  0  0  0  0  0  0  0  0  0  0
   28.1976  -18.1318  -16.8806 C   0  0  0  0  0  0  0  0  0  0  0  0
   28.9132  -16.8505  -17.0941 C   0  0  0  0  0  0  0  0  0  0  0  0
   29.3267  -16.5908  -18.5170 C   0  0  0  0  0  0  0  0  0  0  0  0
   30.0917  -15.3608  -18.5306 N   0  0  0  0  0  0  0  0  0  0  0  0
   27.9301  -21.0188  -15.4680 C   0  0  0  0  0  0  0  0  0  0  0  0
   27.9830  -21.6873  -16.5690 O   0  0  0  0  0  0  0  0  0  0  0  0
   28.7459  -21.5160  -14.4816 O   0  0  0  0  0  0  0  0  0  0  0  0
  2  1  1  0
  3  2  1  0
  3  4  1  1
  5 14  1  0
  5  3  1  0
  6  5  2  0
  8  7  1  0
  8 18  2  0
  9  8  1  0
 10  9  2  0
 10 11  1  0
 11 17  2  0
 12 11  1  0
 13 12  1  1
 13 14  1  0
 15 16  2  0
 15 13  1  0
 17 18  1  0
 19 15  1  0
 20 26  1  0
 20 19  1  0
 20 21  1  1
 22 23  1  0
 22 21  1  0
 24 25  1  0
 24 23  1  0
 26 28  1  0
 27 26  2  0
M  END
$$$$
