SYK.pdb
     RDKit          3D

 28 28  0  0  1  0  0  0  0  0999 V2000
   21.6079  -11.4107  -18.6371 O   0  0  0  0  0  0  0  0  0  0  0  0
   21.1491  -11.3182  -17.3285 C   0  0  0  0  0  0  0  0  0  0  0  0
   22.2487  -10.7739  -16.4134 C   0  0  2  0  0  0  0  0  0  0  0  0
   22.5740  -11.8079  -15.4640 N   0  0  0  0  0  0  0  0  0  0  0  0
   21.7947   -9.5146  -15.7570 C   0  0  0  0  0  0  0  0  0  0  0  0
   20.7191   -9.5283  -15.1517 O   0  0  0  0  0  0  0  0  0  0  0  0
   21.6311   -0.7130  -14.0062 O   0  0  0  0  0  0  0  0  0  0  0  0
   21.9601   -2.0573  -14.1479 C   0  0  0  0  0  0  0  0  0  0  0  0
   21.3846   -3.0447  -13.3811 C   0  0  0  0  0  0  0  0  0  0  0  0
   21.7132   -4.3985  -13.5209 C   0  0  0  0  0  0  0  0  0  0  0  0
   22.6313   -4.7818  -14.4401 C   0  0  0  0  0  0  0  0  0  0  0  0
   23.1001   -6.1361  -14.7478 C   0  0  0  0  0  0  0  0  0  0  0  0
   22.0953   -7.0573  -15.3782 C   0  0  2  0  0  0  0  0  0  0  0  0
   22.5468   -8.3205  -15.8049 N   0  0  0  0  0  0  0  0  0  0  0  0
   21.3482   -6.3080  -16.3965 C   0  0  0  0  0  0  0  0  0  0  0  0
   21.8978   -6.1640  -17.5372 O   0  0  0  0  0  0  0  0  0  0  0  0
   23.2101   -3.7597  -15.2156 C   0  0  0  0  0  0  0  0  0  0  0  0
   22.8830   -2.4361  -15.0726 C   0  0  0  0  0  0  0  0  0  0  0  0
   20.0964   -5.7551  -16.1957 N   0  0  0  0  0  0  0  0  0  0  0  0
   19.3475   -5.0538  -17.3310 C   0  0  1  0  0  0  0  0  0  0  0  0
   18.1355   -5.8619  -17.5473 C   0  0  0  0  0  0  0  0  0  0  0  0
   17.0717   -5.4047  -18.4224 C   0  0  0  0  0  0  0  0  0  0  0  0
   15.8277   -6.1854  -18.6288 C   0  0  0  0  0  0  0  0  0  0  0  0
   14.8357   -5.5514  -19.5654 C   0  0  0  0  0  0  0  0  0  0  0  0
   13.6525   -6.3870  -19.5772 N   0  0  0  0  0  0  0  0  0  0  0  0
   19.0837   -3.7384  -16.7165 C   0  0  0  0  0  0  0  0  0  0  0  0
   18.9498   -3.6526  -15.4372 O   0  0  0  0  0  0  0  0  0  0  0  0
   18.9625   -2.5341  -17.3652 O   0  0  0  0  0  0  0  0  0  0  0  0
  2  1  1  0
  3  2  1  0
  3  4  1  1
  5 14  1  0
  5  3  1  0
  6  5  2  0
  8  7  1  0
  8 18  2  0
  9  8  1  0
 10  9  2  0
 10 11  1  0
 11 17  2  0
 12 11  1  0
 13 12  1  6
 13 14  1  0
 15 16  2  0
 15 13  1  0
 17 18  1  0
 19 15  1  0
 20 26  1  0
 20 19  1  0
 20 21  1  1
 22 23  1  0
 22 21  1  0
 24 25  1  0
 24 23  1  0
 26 28  1  0
 27 26  2  0
M  END
$$$$
