SYK.pdb
     RDKit          3D

 28 28  0  0  1  0  0  0  0  0999 V2000
   29.6545    6.1935   -1.1553 O   0  0  0  0  0  0  0  0  0  0  0  0
   29.0702    5.8579   -2.3708 C   0  0  0  0  0  0  0  0  0  0  0  0
   29.4529    4.4314   -2.7726 C   0  0  2  0  0  0  0  0  0  0  0  0
   30.8816    4.4017   -2.9578 N   0  0  0  0  0  0  0  0  0  0  0  0
   28.7070    4.0247   -3.9978 C   0  0  0  0  0  0  0  0  0  0  0  0
   29.3578    3.6728   -4.9858 O   0  0  0  0  0  0  0  0  0  0  0  0
   23.8747    0.7381  -10.3385 O   0  0  0  0  0  0  0  0  0  0  0  0
   24.5266    1.0876   -9.1601 C   0  0  0  0  0  0  0  0  0  0  0  0
   23.9397    0.9540   -7.9223 C   0  0  0  0  0  0  0  0  0  0  0  0
   24.5927    1.3046   -6.7345 C   0  0  0  0  0  0  0  0  0  0  0  0
   25.8536    1.7977   -6.7741 C   0  0  0  0  0  0  0  0  0  0  0  0
   26.7058    2.2078   -5.6541 C   0  0  0  0  0  0  0  0  0  0  0  0
   26.5330    3.6201   -5.1733 C   0  0  2  0  0  0  0  0  0  0  0  0
   27.2966    4.0289   -4.0636 N   0  0  0  0  0  0  0  0  0  0  0  0
   25.0966    3.9009   -5.0535 C   0  0  0  0  0  0  0  0  0  0  0  0
   24.5032    3.4788   -4.0077 O   0  0  0  0  0  0  0  0  0  0  0  0
   26.4388    1.9279   -8.0476 C   0  0  0  0  0  0  0  0  0  0  0  0
   25.7928    1.5825   -9.2063 C   0  0  0  0  0  0  0  0  0  0  0  0
   24.3554    4.5896   -5.9968 N   0  0  0  0  0  0  0  0  0  0  0  0
   22.8642    4.8628   -5.7889 C   0  0  1  0  0  0  0  0  0  0  0  0
   22.7552    6.3269   -5.6741 C   0  0  0  0  0  0  0  0  0  0  0  0
   21.4624    6.9857   -5.6407 C   0  0  0  0  0  0  0  0  0  0  0  0
   21.3286    8.4599   -5.5495 C   0  0  0  0  0  0  0  0  0  0  0  0
   19.9110    8.9598   -5.4879 C   0  0  0  0  0  0  0  0  0  0  0  0
   19.9628   10.4036   -5.3826 N   0  0  0  0  0  0  0  0  0  0  0  0
   22.3070    4.3213   -7.0434 C   0  0  0  0  0  0  0  0  0  0  0  0
   23.0591    4.2401   -8.0872 O   0  0  0  0  0  0  0  0  0  0  0  0
   21.0281    3.8652   -7.2489 O   0  0  0  0  0  0  0  0  0  0  0  0
  2  1  1  0
  3  2  1  0
  3  4  1  6
  5 14  1  0
  5  3  1  0
  6  5  2  0
  8  7  1  0
  8 18  2  0
  9  8  1  0
 10  9  2  0
 10 11  1  0
 11 17  2  0
 12 11  1  0
 13 12  1  1
 13 14  1  0
 15 16  2  0
 15 13  1  0
 17 18  1  0
 19 15  1  0
 20 26  1  0
 20 19  1  0
 20 21  1  6
 22 23  1  0
 22 21  1  0
 24 25  1  0
 24 23  1  0
 26 28  1  0
 27 26  2  0
M  END
$$$$
