SYK.pdb
     RDKit          3D

 28 28  0  0  1  0  0  0  0  0999 V2000
   30.8660  -31.0971  -19.8493 O   0  0  0  0  0  0  0  0  0  0  0  0
   31.8302  -30.2859  -19.2629 C   0  0  0  0  0  0  0  0  0  0  0  0
   31.2494  -28.9046  -18.9509 C   0  0  2  0  0  0  0  0  0  0  0  0
   32.2991  -28.1172  -18.3554 N   0  0  0  0  0  0  0  0  0  0  0  0
   30.0577  -29.0360  -18.0647 C   0  0  0  0  0  0  0  0  0  0  0  0
   30.2331  -28.9991  -16.8435 O   0  0  0  0  0  0  0  0  0  0  0  0
   27.3857  -22.8960  -16.9479 O   0  0  0  0  0  0  0  0  0  0  0  0
   27.1377  -24.2452  -17.1796 C   0  0  0  0  0  0  0  0  0  0  0  0
   26.5254  -25.0552  -16.2504 C   0  0  0  0  0  0  0  0  0  0  0  0
   26.2742  -26.4133  -16.4801 C   0  0  0  0  0  0  0  0  0  0  0  0
   26.6372  -26.9805  -17.6553 C   0  0  0  0  0  0  0  0  0  0  0  0
   26.4536  -28.3680  -18.0910 C   0  0  0  0  0  0  0  0  0  0  0  0
   27.5835  -29.3110  -17.7913 C   0  0  2  0  0  0  0  0  0  0  0  0
   28.7499  -29.1994  -18.5715 N   0  0  0  0  0  0  0  0  0  0  0  0
   27.0443  -30.6742  -17.7040 C   0  0  0  0  0  0  0  0  0  0  0  0
   27.1568  -31.4149  -18.7349 O   0  0  0  0  0  0  0  0  0  0  0  0
   27.2621  -26.1384  -18.5942 C   0  0  0  0  0  0  0  0  0  0  0  0
   27.5048  -24.8093  -18.3617 C   0  0  0  0  0  0  0  0  0  0  0  0
   26.4284  -31.1987  -16.5820 N   0  0  0  0  0  0  0  0  0  0  0  0
   25.8533  -32.6167  -16.5826 C   0  0  1  0  0  0  0  0  0  0  0  0
   26.1544  -33.1529  -15.2445 C   0  0  0  0  0  0  0  0  0  0  0  0
   25.9998  -34.5649  -14.9466 C   0  0  0  0  0  0  0  0  0  0  0  0
   25.0264  -35.4224  -15.6654 C   0  0  0  0  0  0  0  0  0  0  0  0
   24.9362  -36.8348  -15.1554 C   0  0  0  0  0  0  0  0  0  0  0  0
   23.9152  -37.5124  -15.9280 N   0  0  0  0  0  0  0  0  0  0  0  0
   24.4217  -32.3338  -16.8018 C   0  0  0  0  0  0  0  0  0  0  0  0
   23.9282  -31.2140  -16.3963 O   0  0  0  0  0  0  0  0  0  0  0  0
   23.5046  -33.1491  -17.4182 O   0  0  0  0  0  0  0  0  0  0  0  0
  2  1  1  0
  3  2  1  0
  3  4  1  1
  5 14  1  0
  5  3  1  0
  6  5  2  0
  8  7  1  0
  8 18  2  0
  9  8  1  0
 10  9  2  0
 10 11  1  0
 11 17  2  0
 12 11  1  0
 13 12  1  6
 13 14  1  0
 15 16  2  0
 15 13  1  0
 17 18  1  0
 19 15  1  0
 20 26  1  0
 20 19  1  0
 20 21  1  1
 22 23  1  0
 22 21  1  0
 24 25  1  0
 24 23  1  0
 26 28  1  0
 27 26  2  0
M  END
$$$$
