WMW.pdb
     RDKit          3D

 37 40  0  0  1  0  0  0  0  0999 V2000
   26.8611  -23.3950  -16.3293 N   0  0  0  0  0  0  0  0  0  0  0  0
   27.1003  -22.1444  -15.5764 C   0  0  1  0  0  0  0  0  0  0  0  0
   26.8818  -21.0394  -16.5924 C   0  0  0  0  0  0  0  0  0  0  0  0
   27.0010  -19.6808  -16.0089 C   0  0  0  0  0  0  0  0  0  0  0  0
   27.9892  -19.2820  -15.1066 C   0  0  0  0  0  0  0  0  0  0  0  0
   27.8167  -17.9850  -14.8156 N   0  0  0  0  0  0  0  0  0  0  0  0
   26.7522  -17.5127  -15.4907 C   0  0  0  0  0  0  0  0  0  0  0  0
   26.1890  -16.2412  -15.5041 C   0  0  0  0  0  0  0  0  0  0  0  0
   25.0770  -16.0011  -16.2820 C   0  0  0  0  0  0  0  0  0  0  0  0
   24.5582  -17.0423  -17.0264 C   0  0  0  0  0  0  0  0  0  0  0  0
   25.1321  -18.3024  -17.0008 C   0  0  0  0  0  0  0  0  0  0  0  0
   26.2405  -18.5584  -16.2326 C   0  0  0  0  0  0  0  0  0  0  0  0
   26.1665  -22.1277  -14.4471 C   0  0  0  0  0  0  0  0  0  0  0  0
   25.0419  -22.7050  -14.5264 O   0  0  0  0  0  0  0  0  0  0  0  0
   25.4302  -20.0407   -6.8201 C   0  0  0  0  0  0  0  0  0  0  0  0
   26.4464  -20.1360   -8.3327 S   0  0  0  0  0  0  0  0  0  0  0  0
   25.3825  -20.7613   -9.6911 C   0  0  0  0  0  0  0  0  0  0  0  0
   26.2673  -20.9167  -10.8865 C   0  0  0  0  0  0  0  0  0  0  0  0
   25.5012  -21.4551  -12.0976 C   0  0  2  0  0  0  0  0  0  0  0  0
   26.4368  -21.4862  -13.2035 N   0  0  0  0  0  0  0  0  0  0  0  0
   24.3220  -20.6052  -12.3812 C   0  0  0  0  0  0  0  0  0  0  0  0
   24.5178  -19.3908  -12.6551 O   0  0  0  0  0  0  0  0  0  0  0  0
   22.9962  -21.0720  -12.3633 N   0  0  0  0  0  0  0  0  0  0  0  0
   21.9391  -20.2346  -12.9704 C   0  0  1  0  0  0  0  0  0  0  0  0
   22.2985  -19.9402  -14.3866 C   0  0  0  0  0  0  0  0  0  0  0  0
   21.2935  -19.2862  -15.2187 C   0  0  0  0  0  0  0  0  0  0  0  0
   20.7534  -18.0187  -14.9491 C   0  0  0  0  0  0  0  0  0  0  0  0
   19.8335  -17.7101  -15.8784 N   0  0  0  0  0  0  0  0  0  0  0  0
   19.7314  -18.7032  -16.7543 C   0  0  0  0  0  0  0  0  0  0  0  0
   18.9490  -18.8461  -17.8758 C   0  0  0  0  0  0  0  0  0  0  0  0
   19.0704  -20.0093  -18.6270 C   0  0  0  0  0  0  0  0  0  0  0  0
   19.9632  -21.0142  -18.2589 C   0  0  0  0  0  0  0  0  0  0  0  0
   20.7133  -20.8127  -17.1317 C   0  0  0  0  0  0  0  0  0  0  0  0
   20.6263  -19.6765  -16.3560 C   0  0  0  0  0  0  0  0  0  0  0  0
   20.6810  -20.9725  -12.8236 C   0  0  0  0  0  0  0  0  0  0  0  0
   20.7164  -22.3381  -12.5955 O   0  0  0  0  0  0  0  0  0  0  0  0
   19.5301  -20.4578  -12.8897 O   0  0  0  0  0  0  0  0  0  0  0  0
  2  1  1  6
  3  2  1  0
  4  5  2  0
  4  3  1  0
  6  5  1  0
  7 12  2  0
  7  6  1  0
  8  7  1  0
  9 10  1  0
  9  8  2  0
 10 11  2  0
 11 12  1  0
 12  4  1  0
 13  2  1  0
 14 13  2  0
 16 17  1  0
 16 15  1  0
 17 18  1  0
 19 18  1  1
 19 21  1  0
 19 20  1  0
 20 13  1  0
 21 22  2  0
 23 24  1  0
 23 21  1  0
 25 26  1  0
 24 25  1  6
 26 27  2  0
 27 28  1  0
 29 28  1  0
 30 29  2  0
 31 30  1  0
 32 33  1  0
 32 31  2  0
 33 34  2  0
 34 26  1  0
 34 29  1  0
 35 36  1  0
 35 24  1  0
 37 35  2  0
M  END
$$$$
