WMW.pdb
     RDKit          3D

 37 40  0  0  1  0  0  0  0  0999 V2000
   28.6599  -20.8287  -14.8287 N   0  0  0  0  0  0  0  0  0  0  0  0
   27.6627  -20.0192  -14.0949 C   0  0  1  0  0  0  0  0  0  0  0  0
   26.6645  -19.5914  -15.1538 C   0  0  0  0  0  0  0  0  0  0  0  0
   27.2243  -18.6151  -16.1203 C   0  0  0  0  0  0  0  0  0  0  0  0
   27.6443  -18.9235  -17.4157 C   0  0  0  0  0  0  0  0  0  0  0  0
   28.0600  -17.8009  -18.0186 N   0  0  0  0  0  0  0  0  0  0  0  0
   27.9310  -16.7634  -17.1706 C   0  0  0  0  0  0  0  0  0  0  0  0
   28.2360  -15.4178  -17.3445 C   0  0  0  0  0  0  0  0  0  0  0  0
   28.0200  -14.5349  -16.3086 C   0  0  0  0  0  0  0  0  0  0  0  0
   27.5039  -15.0242  -15.1247 C   0  0  0  0  0  0  0  0  0  0  0  0
   27.2062  -16.3677  -14.9690 C   0  0  0  0  0  0  0  0  0  0  0  0
   27.4139  -17.2603  -15.9909 C   0  0  0  0  0  0  0  0  0  0  0  0
   27.1043  -20.8658  -13.0370 C   0  0  0  0  0  0  0  0  0  0  0  0
   26.7539  -22.0589  -13.2779 O   0  0  0  0  0  0  0  0  0  0  0  0
   29.1291  -19.9811   -6.6455 C   0  0  0  0  0  0  0  0  0  0  0  0
   27.4184  -19.8077   -7.2564 S   0  0  0  0  0  0  0  0  0  0  0  0
   27.3305  -20.5782   -8.9198 C   0  0  0  0  0  0  0  0  0  0  0  0
   26.0030  -20.1986   -9.4941 C   0  0  0  0  0  0  0  0  0  0  0  0
   25.7819  -20.8160  -10.8774 C   0  0  2  0  0  0  0  0  0  0  0  0
   26.9184  -20.4349  -11.6913 N   0  0  0  0  0  0  0  0  0  0  0  0
   24.4978  -20.3509  -11.4503 C   0  0  0  0  0  0  0  0  0  0  0  0
   24.4821  -19.2425  -12.0496 O   0  0  0  0  0  0  0  0  0  0  0  0
   23.2943  -21.0723  -11.3657 N   0  0  0  0  0  0  0  0  0  0  0  0
   22.1225  -20.5927  -12.1299 C   0  0  1  0  0  0  0  0  0  0  0  0
   22.2508  -21.0271  -13.5499 C   0  0  0  0  0  0  0  0  0  0  0  0
   22.3070  -22.4608  -13.8173 C   0  0  0  0  0  0  0  0  0  0  0  0
   21.2031  -23.3226  -13.7197 C   0  0  0  0  0  0  0  0  0  0  0  0
   21.5836  -24.5811  -13.9961 N   0  0  0  0  0  0  0  0  0  0  0  0
   22.8821  -24.6053  -14.2740 C   0  0  0  0  0  0  0  0  0  0  0  0
   23.7147  -25.6411  -14.6264 C   0  0  0  0  0  0  0  0  0  0  0  0
   25.0519  -25.3612  -14.8824 C   0  0  0  0  0  0  0  0  0  0  0  0
   25.5467  -24.0618  -14.7862 C   0  0  0  0  0  0  0  0  0  0  0  0
   24.6679  -23.0746  -14.4301 C   0  0  0  0  0  0  0  0  0  0  0  0
   23.3346  -23.3051  -14.1666 C   0  0  0  0  0  0  0  0  0  0  0  0
   20.9340  -21.1248  -11.4567 C   0  0  0  0  0  0  0  0  0  0  0  0
   21.0844  -22.0841  -10.4691 O   0  0  0  0  0  0  0  0  0  0  0  0
   19.7464  -20.7761  -11.7054 O   0  0  0  0  0  0  0  0  0  0  0  0
  2  1  1  6
  3  2  1  0
  4  5  2  0
  4  3  1  0
  6  5  1  0
  7 12  2  0
  7  6  1  0
  8  7  1  0
  9 10  1  0
  9  8  2  0
 10 11  2  0
 11 12  1  0
 12  4  1  0
 13  2  1  0
 14 13  2  0
 16 17  1  0
 16 15  1  0
 17 18  1  0
 19 18  1  1
 19 21  1  0
 19 20  1  0
 20 13  1  0
 21 22  2  0
 23 24  1  0
 23 21  1  0
 25 26  1  0
 24 25  1  6
 26 27  2  0
 27 28  1  0
 29 28  1  0
 30 29  2  0
 31 30  1  0
 32 33  1  0
 32 31  2  0
 33 34  2  0
 34 26  1  0
 34 29  1  0
 35 36  1  0
 35 24  1  0
 37 35  2  0
M  END
$$$$
