WMW.pdb
     RDKit          3D

 37 40  0  0  1  0  0  0  0  0999 V2000
   27.6926  -21.2660  -15.2275 N   0  0  0  0  0  0  0  0  0  0  0  0
   26.9859  -20.4734  -14.1976 C   0  0  1  0  0  0  0  0  0  0  0  0
   25.6470  -20.1377  -14.8266 C   0  0  0  0  0  0  0  0  0  0  0  0
   25.7556  -19.1656  -15.9419 C   0  0  0  0  0  0  0  0  0  0  0  0
   25.3004  -19.3876  -17.2430 C   0  0  0  0  0  0  0  0  0  0  0  0
   25.5282  -18.2902  -17.9782 N   0  0  0  0  0  0  0  0  0  0  0  0
   26.1170  -17.3528  -17.2123 C   0  0  0  0  0  0  0  0  0  0  0  0
   26.5435  -16.0686  -17.5333 C   0  0  0  0  0  0  0  0  0  0  0  0
   27.1360  -15.2894  -16.5632 C   0  0  0  0  0  0  0  0  0  0  0  0
   27.2858  -15.8181  -15.2961 C   0  0  0  0  0  0  0  0  0  0  0  0
   26.8552  -17.0993  -14.9943 C   0  0  0  0  0  0  0  0  0  0  0  0
   26.2620  -17.8883  -15.9482 C   0  0  0  0  0  0  0  0  0  0  0  0
   26.9024  -21.2995  -12.9901 C   0  0  0  0  0  0  0  0  0  0  0  0
   26.5200  -22.5054  -13.0540 O   0  0  0  0  0  0  0  0  0  0  0  0
   26.5825  -20.1177   -5.1340 C   0  0  0  0  0  0  0  0  0  0  0  0
   27.4297  -19.8588   -6.7293 S   0  0  0  0  0  0  0  0  0  0  0  0
   26.4647  -20.7228   -8.0295 C   0  0  0  0  0  0  0  0  0  0  0  0
   27.1774  -20.4775   -9.3211 C   0  0  0  0  0  0  0  0  0  0  0  0
   26.5020  -21.1971  -10.4913 C   0  0  2  0  0  0  0  0  0  0  0  0
   27.2376  -20.8339  -11.6855 N   0  0  0  0  0  0  0  0  0  0  0  0
   25.0725  -20.8187  -10.5735 C   0  0  0  0  0  0  0  0  0  0  0  0
   24.7441  -19.6578  -10.2095 O   0  0  0  0  0  0  0  0  0  0  0  0
   24.0591  -21.6773  -11.0335 N   0  0  0  0  0  0  0  0  0  0  0  0
   22.8466  -21.0859  -11.6395 C   0  0  1  0  0  0  0  0  0  0  0  0
   23.2491  -20.0485  -12.6311 C   0  0  0  0  0  0  0  0  0  0  0  0
   22.1941  -19.4178  -13.4179 C   0  0  0  0  0  0  0  0  0  0  0  0
   21.2142  -18.5678  -12.8811 C   0  0  0  0  0  0  0  0  0  0  0  0
   20.3716  -18.1762  -13.8514 N   0  0  0  0  0  0  0  0  0  0  0  0
   20.7370  -18.7185  -15.0074 C   0  0  0  0  0  0  0  0  0  0  0  0
   20.2048  -18.6061  -16.2701 C   0  0  0  0  0  0  0  0  0  0  0  0
   20.8213  -19.2858  -17.3141 C   0  0  0  0  0  0  0  0  0  0  0  0
   21.9547  -20.0667  -17.0948 C   0  0  0  0  0  0  0  0  0  0  0  0
   22.4357  -20.1392  -15.8154 C   0  0  0  0  0  0  0  0  0  0  0  0
   21.8574  -19.4834  -14.7496 C   0  0  0  0  0  0  0  0  0  0  0  0
   22.0841  -22.1936  -12.2231 C   0  0  0  0  0  0  0  0  0  0  0  0
   20.7086  -22.0842  -12.3415 O   0  0  0  0  0  0  0  0  0  0  0  0
   22.5857  -23.2745  -12.6404 O   0  0  0  0  0  0  0  0  0  0  0  0
  2  1  1  6
  3  2  1  0
  4  5  2  0
  4  3  1  0
  6  5  1  0
  7 12  2  0
  7  6  1  0
  8  7  1  0
  9 10  1  0
  9  8  2  0
 10 11  2  0
 11 12  1  0
 12  4  1  0
 13  2  1  0
 14 13  2  0
 16 17  1  0
 16 15  1  0
 17 18  1  0
 19 18  1  1
 19 21  1  0
 19 20  1  0
 20 13  1  0
 21 22  2  0
 23 24  1  0
 23 21  1  0
 25 26  1  0
 24 25  1  6
 26 27  2  0
 27 28  1  0
 29 28  1  0
 30 29  2  0
 31 30  1  0
 32 33  1  0
 32 31  2  0
 33 34  2  0
 34 26  1  0
 34 29  1  0
 35 36  1  0
 35 24  1  0
 37 35  2  0
M  END
$$$$
