WMW.pdb
     RDKit          3D

 37 40  0  0  1  0  0  0  0  0999 V2000
   28.5017  -24.1607  -17.8096 N   0  0  0  0  0  0  0  0  0  0  0  0
   27.3689  -23.2349  -17.5901 C   0  0  1  0  0  0  0  0  0  0  0  0
   26.1500  -24.1346  -17.5138 C   0  0  0  0  0  0  0  0  0  0  0  0
   25.0030  -23.6285  -18.3067 C   0  0  0  0  0  0  0  0  0  0  0  0
   24.9338  -23.6269  -19.7013 C   0  0  0  0  0  0  0  0  0  0  0  0
   23.7465  -23.1324  -20.0787 N   0  0  0  0  0  0  0  0  0  0  0  0
   23.0297  -22.8071  -18.9868 C   0  0  0  0  0  0  0  0  0  0  0  0
   21.7560  -22.2592  -18.8788 C   0  0  0  0  0  0  0  0  0  0  0  0
   21.2323  -22.0037  -17.6299 C   0  0  0  0  0  0  0  0  0  0  0  0
   21.9992  -22.3041  -16.5213 C   0  0  0  0  0  0  0  0  0  0  0  0
   23.2660  -22.8493  -16.6477 C   0  0  0  0  0  0  0  0  0  0  0  0
   23.8023  -23.1112  -17.8839 C   0  0  0  0  0  0  0  0  0  0  0  0
   27.6494  -22.4827  -16.3641 C   0  0  0  0  0  0  0  0  0  0  0  0
   28.2738  -23.0198  -15.4017 O   0  0  0  0  0  0  0  0  0  0  0  0
   28.1681  -16.1621  -16.0002 C   0  0  0  0  0  0  0  0  0  0  0  0
   27.1665  -16.3570  -14.4874 S   0  0  0  0  0  0  0  0  0  0  0  0
   27.2822  -18.1092  -13.9536 C   0  0  0  0  0  0  0  0  0  0  0  0
   27.2252  -18.9369  -15.1976 C   0  0  0  0  0  0  0  0  0  0  0  0
   27.4360  -20.4244  -14.9037 C   0  0  2  0  0  0  0  0  0  0  0  0
   27.2608  -21.1270  -16.1586 N   0  0  0  0  0  0  0  0  0  0  0  0
   26.4869  -20.8839  -13.8637 C   0  0  0  0  0  0  0  0  0  0  0  0
   25.2869  -21.0747  -14.1980 O   0  0  0  0  0  0  0  0  0  0  0  0
   26.8444  -21.1203  -12.5250 N   0  0  0  0  0  0  0  0  0  0  0  0
   25.8208  -21.6507  -11.5986 C   0  0  1  0  0  0  0  0  0  0  0  0
   26.4747  -22.0480  -10.3195 C   0  0  0  0  0  0  0  0  0  0  0  0
   26.6735  -21.0127   -9.3101 C   0  0  0  0  0  0  0  0  0  0  0  0
   25.7700  -19.9655   -9.0693 C   0  0  0  0  0  0  0  0  0  0  0  0
   26.2508  -19.1638   -8.1045 N   0  0  0  0  0  0  0  0  0  0  0  0
   27.4263  -19.6202   -7.6877 C   0  0  0  0  0  0  0  0  0  0  0  0
   28.2873  -19.1577   -6.7207 C   0  0  0  0  0  0  0  0  0  0  0  0
   29.4604  -19.8642   -6.4824 C   0  0  0  0  0  0  0  0  0  0  0  0
   29.7653  -21.0174   -7.2032 C   0  0  0  0  0  0  0  0  0  0  0  0
   28.8682  -21.4261   -8.1529 C   0  0  0  0  0  0  0  0  0  0  0  0
   27.6935  -20.7574   -8.4239 C   0  0  0  0  0  0  0  0  0  0  0  0
   24.8101  -20.6005  -11.4416 C   0  0  0  0  0  0  0  0  0  0  0  0
   25.1313  -19.2936  -11.7685 O   0  0  0  0  0  0  0  0  0  0  0  0
   23.6347  -20.7869  -11.0203 O   0  0  0  0  0  0  0  0  0  0  0  0
  2  1  1  1
  3  2  1  0
  4  5  2  0
  4  3  1  0
  6  5  1  0
  7 12  2  0
  7  6  1  0
  8  7  1  0
  9 10  1  0
  9  8  2  0
 10 11  2  0
 11 12  1  0
 12  4  1  0
 13  2  1  0
 14 13  2  0
 16 17  1  0
 16 15  1  0
 17 18  1  0
 19 18  1  6
 19 21  1  0
 19 20  1  0
 20 13  1  0
 21 22  2  0
 23 24  1  0
 23 21  1  0
 25 26  1  0
 24 25  1  1
 26 27  2  0
 27 28  1  0
 29 28  1  0
 30 29  2  0
 31 30  1  0
 32 33  1  0
 32 31  2  0
 33 34  2  0
 34 26  1  0
 34 29  1  0
 35 36  1  0
 35 24  1  0
 37 35  2  0
M  END
$$$$
