WMW.pdb
     RDKit          3D

 37 40  0  0  1  0  0  0  0  0999 V2000
   17.8352  -17.1045    3.5347 N   0  0  0  0  0  0  0  0  0  0  0  0
   18.2702  -17.1094    4.9485 C   0  0  1  0  0  0  0  0  0  0  0  0
   17.3229  -16.1493    5.6427 C   0  0  0  0  0  0  0  0  0  0  0  0
   17.6568  -14.7247    5.3990 C   0  0  0  0  0  0  0  0  0  0  0  0
   16.9531  -13.8733    4.5449 C   0  0  0  0  0  0  0  0  0  0  0  0
   17.5059  -12.6532    4.5921 N   0  0  0  0  0  0  0  0  0  0  0  0
   18.5480  -12.6668    5.4442 C   0  0  0  0  0  0  0  0  0  0  0  0
   19.4220  -11.6489    5.8107 C   0  0  0  0  0  0  0  0  0  0  0  0
   20.4323  -11.9147    6.7095 C   0  0  0  0  0  0  0  0  0  0  0  0
   20.5404  -13.1943    7.2176 C   0  0  0  0  0  0  0  0  0  0  0  0
   19.6610  -14.1958    6.8413 C   0  0  0  0  0  0  0  0  0  0  0  0
   18.6484  -13.9480    5.9482 C   0  0  0  0  0  0  0  0  0  0  0  0
   18.1938  -18.4930    5.4254 C   0  0  0  0  0  0  0  0  0  0  0  0
   18.0907  -19.4560    4.6090 O   0  0  0  0  0  0  0  0  0  0  0  0
   22.7135  -21.4753   10.3464 C   0  0  0  0  0  0  0  0  0  0  0  0
   21.7010  -20.1265    9.6496 S   0  0  0  0  0  0  0  0  0  0  0  0
   19.9674  -20.7188    9.5396 C   0  0  0  0  0  0  0  0  0  0  0  0
   19.1937  -19.6422    8.8479 C   0  0  0  0  0  0  0  0  0  0  0  0
   19.1214  -19.8726    7.3362 C   0  0  2  0  0  0  0  0  0  0  0  0
   18.2324  -18.8611    6.8017 N   0  0  0  0  0  0  0  0  0  0  0  0
   18.6506  -21.2465    7.0461 C   0  0  0  0  0  0  0  0  0  0  0  0
   17.4126  -21.4744    7.1050 O   0  0  0  0  0  0  0  0  0  0  0  0
   19.5024  -22.3125    6.7085 N   0  0  0  0  0  0  0  0  0  0  0  0
   19.0247  -23.3263    5.7435 C   0  0  1  0  0  0  0  0  0  0  0  0
   19.0723  -22.7556    4.3675 C   0  0  0  0  0  0  0  0  0  0  0  0
   18.7604  -23.6456    3.2537 C   0  0  0  0  0  0  0  0  0  0  0  0
   17.4946  -24.2096    3.0285 C   0  0  0  0  0  0  0  0  0  0  0  0
   17.5377  -25.0046    1.9464 N   0  0  0  0  0  0  0  0  0  0  0  0
   18.7641  -25.0008    1.4366 C   0  0  0  0  0  0  0  0  0  0  0  0
   19.2911  -25.6374    0.3378 C   0  0  0  0  0  0  0  0  0  0  0  0
   20.6297  -25.4281    0.0272 C   0  0  0  0  0  0  0  0  0  0  0  0
   21.4277  -24.5928    0.8069 C   0  0  0  0  0  0  0  0  0  0  0  0
   20.8446  -23.9887    1.8880 C   0  0  0  0  0  0  0  0  0  0  0  0
   19.5223  -24.1671    2.2346 C   0  0  0  0  0  0  0  0  0  0  0  0
   19.8733  -24.5086    5.9200 C   0  0  0  0  0  0  0  0  0  0  0  0
   19.3608  -25.7625    5.6315 O   0  0  0  0  0  0  0  0  0  0  0  0
   21.0686  -24.4853    6.3258 O   0  0  0  0  0  0  0  0  0  0  0  0
  2  1  1  6
  3  2  1  0
  4  5  2  0
  4  3  1  0
  6  5  1  0
  7 12  2  0
  7  6  1  0
  8  7  1  0
  9 10  1  0
  9  8  2  0
 10 11  2  0
 11 12  1  0
 12  4  1  0
 13  2  1  0
 14 13  2  0
 16 17  1  0
 16 15  1  0
 17 18  1  0
 19 18  1  1
 19 21  1  0
 19 20  1  0
 20 13  1  0
 21 22  2  0
 23 24  1  0
 23 21  1  0
 25 26  1  0
 24 25  1  6
 26 27  2  0
 27 28  1  0
 29 28  1  0
 30 29  2  0
 31 30  1  0
 32 33  1  0
 32 31  2  0
 33 34  2  0
 34 26  1  0
 34 29  1  0
 35 36  1  0
 35 24  1  0
 37 35  2  0
M  END
$$$$
