WMW.pdb
     RDKit          3D

 37 40  0  0  1  0  0  0  0  0999 V2000
   20.6580  -13.5037  -15.2812 N   0  0  0  0  0  0  0  0  0  0  0  0
   20.2993  -12.2952  -16.0553 C   0  0  1  0  0  0  0  0  0  0  0  0
   18.7845  -12.2406  -15.9975 C   0  0  0  0  0  0  0  0  0  0  0  0
   18.1436  -13.5441  -16.2986 C   0  0  0  0  0  0  0  0  0  0  0  0
   18.7656  -14.6084  -16.9543 C   0  0  0  0  0  0  0  0  0  0  0  0
   17.9093  -15.6371  -17.0262 N   0  0  0  0  0  0  0  0  0  0  0  0
   16.7458  -15.2923  -16.4437 C   0  0  0  0  0  0  0  0  0  0  0  0
   15.5714  -16.0198  -16.2831 C   0  0  0  0  0  0  0  0  0  0  0  0
   14.4948  -15.4370  -15.6503 C   0  0  0  0  0  0  0  0  0  0  0  0
   14.6234  -14.1395  -15.1948 C   0  0  0  0  0  0  0  0  0  0  0  0
   15.8006  -13.4299  -15.3636 C   0  0  0  0  0  0  0  0  0  0  0  0
   16.8829  -13.9956  -15.9905 C   0  0  0  0  0  0  0  0  0  0  0  0
   20.9749  -11.1564  -15.4273 C   0  0  0  0  0  0  0  0  0  0  0  0
   20.9643  -11.0088  -14.1693 O   0  0  0  0  0  0  0  0  0  0  0  0
   26.5859  -10.9059  -14.6864 C   0  0  0  0  0  0  0  0  0  0  0  0
   25.2100   -9.7081  -14.7299 S   0  0  0  0  0  0  0  0  0  0  0  0
   24.5960   -9.6135  -16.4568 C   0  0  0  0  0  0  0  0  0  0  0  0
   23.4849   -8.6127  -16.4585 C   0  0  0  0  0  0  0  0  0  0  0  0
   22.3424   -9.0269  -15.5276 C   0  0  2  0  0  0  0  0  0  0  0  0
   21.6816  -10.1542  -16.1535 N   0  0  0  0  0  0  0  0  0  0  0  0
   21.4221   -7.8885  -15.3030 C   0  0  0  0  0  0  0  0  0  0  0  0
   20.4970   -7.6995  -16.1375 O   0  0  0  0  0  0  0  0  0  0  0  0
   21.5185   -7.0052  -14.2137 N   0  0  0  0  0  0  0  0  0  0  0  0
   20.4852   -5.9594  -14.0524 C   0  0  1  0  0  0  0  0  0  0  0  0
   20.2204   -5.7503  -12.6007 C   0  0  0  0  0  0  0  0  0  0  0  0
   19.4826   -6.7898  -11.8900 C   0  0  0  0  0  0  0  0  0  0  0  0
   19.7333   -8.1645  -12.0258 C   0  0  0  0  0  0  0  0  0  0  0  0
   18.8694   -8.8606  -11.2682 N   0  0  0  0  0  0  0  0  0  0  0  0
   18.0561   -8.0243  -10.6333 C   0  0  0  0  0  0  0  0  0  0  0  0
   17.0311   -8.2547   -9.7464 C   0  0  0  0  0  0  0  0  0  0  0  0
   16.3532   -7.1632   -9.2161 C   0  0  0  0  0  0  0  0  0  0  0  0
   16.6984   -5.8601   -9.5701 C   0  0  0  0  0  0  0  0  0  0  0  0
   17.7271   -5.6967  -10.4583 C   0  0  0  0  0  0  0  0  0  0  0  0
   18.4268   -6.7486  -11.0099 C   0  0  0  0  0  0  0  0  0  0  0  0
   20.9854   -4.7639  -14.7378 C   0  0  0  0  0  0  0  0  0  0  0  0
   20.1732   -3.6465  -14.8353 O   0  0  0  0  0  0  0  0  0  0  0  0
   22.1276   -4.6589  -15.2653 O   0  0  0  0  0  0  0  0  0  0  0  0
  2  1  1  1
  3  2  1  0
  4  5  2  0
  4  3  1  0
  6  5  1  0
  7 12  2  0
  7  6  1  0
  8  7  1  0
  9 10  1  0
  9  8  2  0
 10 11  2  0
 11 12  1  0
 12  4  1  0
 13  2  1  0
 14 13  2  0
 16 17  1  0
 16 15  1  0
 17 18  1  0
 19 18  1  6
 19 21  1  0
 19 20  1  0
 20 13  1  0
 21 22  2  0
 23 24  1  0
 23 21  1  0
 25 26  1  0
 24 25  1  1
 26 27  2  0
 27 28  1  0
 29 28  1  0
 30 29  2  0
 31 30  1  0
 32 33  1  0
 32 31  2  0
 33 34  2  0
 34 26  1  0
 34 29  1  0
 35 36  1  0
 35 24  1  0
 37 35  2  0
M  END
$$$$
