WMW.pdb
     RDKit          3D

 37 40  0  0  1  0  0  0  0  0999 V2000
   22.2012  -21.5038  -13.1735 N   0  0  0  0  0  0  0  0  0  0  0  0
   22.4860  -20.0648  -12.9823 C   0  0  1  0  0  0  0  0  0  0  0  0
   21.2686  -19.3566  -13.5455 C   0  0  0  0  0  0  0  0  0  0  0  0
   21.1588  -19.4722  -15.0203 C   0  0  0  0  0  0  0  0  0  0  0  0
   20.2259  -20.2640  -15.6929 C   0  0  0  0  0  0  0  0  0  0  0  0
   20.3884  -20.1030  -17.0136 N   0  0  0  0  0  0  0  0  0  0  0  0
   21.3932  -19.2360  -17.2385 C   0  0  0  0  0  0  0  0  0  0  0  0
   21.9251  -18.7682  -18.4353 C   0  0  0  0  0  0  0  0  0  0  0  0
   22.9755  -17.8766  -18.4070 C   0  0  0  0  0  0  0  0  0  0  0  0
   23.4657  -17.4769  -17.1792 C   0  0  0  0  0  0  0  0  0  0  0  0
   22.9237  -17.9532  -15.9972 C   0  0  0  0  0  0  0  0  0  0  0  0
   21.8765  -18.8407  -16.0073 C   0  0  0  0  0  0  0  0  0  0  0  0
   22.7088  -19.8491  -11.5501 C   0  0  0  0  0  0  0  0  0  0  0  0
   22.0308  -18.9919  -10.9097 O   0  0  0  0  0  0  0  0  0  0  0  0
   20.8995  -22.6447   -6.2684 C   0  0  0  0  0  0  0  0  0  0  0  0
   22.6184  -22.5310   -6.8700 S   0  0  0  0  0  0  0  0  0  0  0  0
   22.7125  -21.1319   -8.0541 C   0  0  0  0  0  0  0  0  0  0  0  0
   24.1418  -21.0333   -8.4824 C   0  0  0  0  0  0  0  0  0  0  0  0
   24.3304  -20.0171   -9.6117 C   0  0  2  0  0  0  0  0  0  0  0  0
   23.6717  -20.5644  -10.7803 N   0  0  0  0  0  0  0  0  0  0  0  0
   25.7714  -19.7656   -9.8436 C   0  0  0  0  0  0  0  0  0  0  0  0
   26.1246  -18.6031  -10.1780 O   0  0  0  0  0  0  0  0  0  0  0  0
   26.7697  -20.7465   -9.7129 N   0  0  0  0  0  0  0  0  0  0  0  0
   28.1238  -20.4568  -10.2322 C   0  0  1  0  0  0  0  0  0  0  0  0
   28.8346  -19.5600   -9.2772 C   0  0  0  0  0  0  0  0  0  0  0  0
   29.1721  -20.1001   -7.9640 C   0  0  0  0  0  0  0  0  0  0  0  0
   29.9465  -21.2538   -7.7637 C   0  0  0  0  0  0  0  0  0  0  0  0
   30.0519  -21.5073   -6.4486 N   0  0  0  0  0  0  0  0  0  0  0  0
   29.3901  -20.5842   -5.7603 C   0  0  0  0  0  0  0  0  0  0  0  0
   29.2210  -20.4100   -4.4070 C   0  0  0  0  0  0  0  0  0  0  0  0
   28.4792  -19.3209   -3.9647 C   0  0  0  0  0  0  0  0  0  0  0  0
   27.9154  -18.4199   -4.8663 C   0  0  0  0  0  0  0  0  0  0  0  0
   28.1189  -18.6484   -6.2005 C   0  0  0  0  0  0  0  0  0  0  0  0
   28.8463  -19.7146   -6.6849 C   0  0  0  0  0  0  0  0  0  0  0  0
   28.7852  -21.7502  -10.4287 C   0  0  0  0  0  0  0  0  0  0  0  0
   28.0813  -22.9177  -10.1850 O   0  0  0  0  0  0  0  0  0  0  0  0
   29.9788  -21.8999  -10.8119 O   0  0  0  0  0  0  0  0  0  0  0  0
  2  1  1  1
  3  2  1  0
  4  5  2  0
  4  3  1  0
  6  5  1  0
  7 12  2  0
  7  6  1  0
  8  7  1  0
  9 10  1  0
  9  8  2  0
 10 11  2  0
 11 12  1  0
 12  4  1  0
 13  2  1  0
 14 13  2  0
 16 17  1  0
 16 15  1  0
 17 18  1  0
 19 18  1  1
 19 21  1  0
 19 20  1  0
 20 13  1  0
 21 22  2  0
 23 24  1  0
 23 21  1  0
 25 26  1  0
 24 25  1  1
 26 27  2  0
 27 28  1  0
 29 28  1  0
 30 29  2  0
 31 30  1  0
 32 33  1  0
 32 31  2  0
 33 34  2  0
 34 26  1  0
 34 29  1  0
 35 36  1  0
 35 24  1  0
 37 35  2  0
M  END
$$$$
