WMW.pdb
     RDKit          3D

 37 40  0  0  1  0  0  0  0  0999 V2000
   28.3950  -21.9816  -18.8843 N   0  0  0  0  0  0  0  0  0  0  0  0
   27.1234  -22.0428  -18.1309 C   0  0  1  0  0  0  0  0  0  0  0  0
   26.7576  -23.5148  -18.1183 C   0  0  0  0  0  0  0  0  0  0  0  0
   26.0444  -23.9475  -19.3450 C   0  0  0  0  0  0  0  0  0  0  0  0
   26.3072  -25.1238  -20.0497 C   0  0  0  0  0  0  0  0  0  0  0  0
   25.4561  -25.2139  -21.0813 N   0  0  0  0  0  0  0  0  0  0  0  0
   24.6422  -24.1418  -21.0849 C   0  0  0  0  0  0  0  0  0  0  0  0
   23.6148  -23.7968  -21.9564 C   0  0  0  0  0  0  0  0  0  0  0  0
   22.9202  -22.6238  -21.7542 C   0  0  0  0  0  0  0  0  0  0  0  0
   23.2738  -21.8267  -20.6831 C   0  0  0  0  0  0  0  0  0  0  0  0
   24.2999  -22.1860  -19.8253 C   0  0  0  0  0  0  0  0  0  0  0  0
   25.0010  -23.3513  -20.0115 C   0  0  0  0  0  0  0  0  0  0  0  0
   27.3704  -21.4644  -16.8073 C   0  0  0  0  0  0  0  0  0  0  0  0
   28.2736  -21.9327  -16.0528 O   0  0  0  0  0  0  0  0  0  0  0  0
   24.8088  -15.4282  -13.8541 C   0  0  0  0  0  0  0  0  0  0  0  0
   26.5793  -15.8050  -14.0850 S   0  0  0  0  0  0  0  0  0  0  0  0
   26.8234  -17.5957  -13.7653 C   0  0  0  0  0  0  0  0  0  0  0  0
   26.6594  -18.2883  -15.0804 C   0  0  0  0  0  0  0  0  0  0  0  0
   26.8860  -19.7977  -14.9627 C   0  0  2  0  0  0  0  0  0  0  0  0
   26.6431  -20.3600  -16.2757 N   0  0  0  0  0  0  0  0  0  0  0  0
   25.9948  -20.3738  -13.9297 C   0  0  0  0  0  0  0  0  0  0  0  0
   24.7747  -20.5163  -14.2108 O   0  0  0  0  0  0  0  0  0  0  0  0
   26.4285  -20.7718  -12.6532 N   0  0  0  0  0  0  0  0  0  0  0  0
   25.4548  -21.4023  -11.7358 C   0  0  1  0  0  0  0  0  0  0  0  0
   26.1683  -21.8888  -10.5210 C   0  0  0  0  0  0  0  0  0  0  0  0
   26.5150  -20.9055   -9.4997 C   0  0  0  0  0  0  0  0  0  0  0  0
   25.7104  -19.8060   -9.1615 C   0  0  0  0  0  0  0  0  0  0  0  0
   26.3173  -19.0739   -8.2125 N   0  0  0  0  0  0  0  0  0  0  0  0
   27.4835  -19.6264   -7.8983 C   0  0  0  0  0  0  0  0  0  0  0  0
   28.4439  -19.2596   -6.9855 C   0  0  0  0  0  0  0  0  0  0  0  0
   29.5763  -20.0551   -6.8564 C   0  0  0  0  0  0  0  0  0  0  0  0
   29.7430  -21.2015   -7.6313 C   0  0  0  0  0  0  0  0  0  0  0  0
   28.7518  -21.5127   -8.5226 C   0  0  0  0  0  0  0  0  0  0  0  0
   27.6126  -20.7537   -8.6853 C   0  0  0  0  0  0  0  0  0  0  0  0
   24.4295  -20.3937  -11.4519 C   0  0  0  0  0  0  0  0  0  0  0  0
   23.2473  -20.7791  -10.8420 O   0  0  0  0  0  0  0  0  0  0  0  0
   24.5307  -19.1649  -11.7235 O   0  0  0  0  0  0  0  0  0  0  0  0
  2  1  1  6
  3  2  1  0
  4  5  2  0
  4  3  1  0
  6  5  1  0
  7 12  2  0
  7  6  1  0
  8  7  1  0
  9 10  1  0
  9  8  2  0
 10 11  2  0
 11 12  1  0
 12  4  1  0
 13  2  1  0
 14 13  2  0
 16 17  1  0
 16 15  1  0
 17 18  1  0
 19 18  1  6
 19 21  1  0
 19 20  1  0
 20 13  1  0
 21 22  2  0
 23 24  1  0
 23 21  1  0
 25 26  1  0
 24 25  1  1
 26 27  2  0
 27 28  1  0
 29 28  1  0
 30 29  2  0
 31 30  1  0
 32 33  1  0
 32 31  2  0
 33 34  2  0
 34 26  1  0
 34 29  1  0
 35 36  1  0
 35 24  1  0
 37 35  2  0
M  END
$$$$
