WMW.pdb
     RDKit          3D

 37 40  0  0  1  0  0  0  0  0999 V2000
   24.4821  -19.4526  -16.2849 N   0  0  0  0  0  0  0  0  0  0  0  0
   24.5248  -19.2777  -14.8166 C   0  0  1  0  0  0  0  0  0  0  0  0
   23.0784  -19.3981  -14.3757 C   0  0  0  0  0  0  0  0  0  0  0  0
   22.1844  -18.4180  -15.0396 C   0  0  0  0  0  0  0  0  0  0  0  0
   20.9676  -18.7306  -15.6489 C   0  0  0  0  0  0  0  0  0  0  0  0
   20.4104  -17.6039  -16.1142 N   0  0  0  0  0  0  0  0  0  0  0  0
   21.2130  -16.5597  -15.8359 C   0  0  0  0  0  0  0  0  0  0  0  0
   21.0606  -15.2077  -16.1241 C   0  0  0  0  0  0  0  0  0  0  0  0
   22.0396  -14.3182  -15.7375 C   0  0  0  0  0  0  0  0  0  0  0  0
   23.1465  -14.8072  -15.0718 C   0  0  0  0  0  0  0  0  0  0  0  0
   23.2818  -16.1571  -14.7933 C   0  0  0  0  0  0  0  0  0  0  0  0
   22.3156  -17.0564  -15.1701 C   0  0  0  0  0  0  0  0  0  0  0  0
   25.4143  -20.3104  -14.2784 C   0  0  0  0  0  0  0  0  0  0  0  0
   25.3229  -21.5125  -14.6669 O   0  0  0  0  0  0  0  0  0  0  0  0
   30.6678  -18.3631  -16.4796 C   0  0  0  0  0  0  0  0  0  0  0  0
   30.4891  -18.9517  -14.7617 S   0  0  0  0  0  0  0  0  0  0  0  0
   28.8909  -19.8448  -14.6325 C   0  0  0  0  0  0  0  0  0  0  0  0
   28.7997  -20.3515  -13.2286 C   0  0  0  0  0  0  0  0  0  0  0  0
   27.4506  -21.0188  -12.9491 C   0  0  2  0  0  0  0  0  0  0  0  0
   26.4272  -20.0581  -13.3080 N   0  0  0  0  0  0  0  0  0  0  0  0
   27.3634  -21.4306  -11.5292 C   0  0  0  0  0  0  0  0  0  0  0  0
   28.3535  -21.2033  -10.7835 O   0  0  0  0  0  0  0  0  0  0  0  0
   26.2416  -22.0603  -10.9627 N   0  0  0  0  0  0  0  0  0  0  0  0
   25.6685  -21.5062   -9.7170 C   0  0  1  0  0  0  0  0  0  0  0  0
   26.6078  -20.4970   -9.1506 C   0  0  0  0  0  0  0  0  0  0  0  0
   26.7296  -20.4250   -7.6980 C   0  0  0  0  0  0  0  0  0  0  0  0
   25.6892  -20.7290   -6.8057 C   0  0  0  0  0  0  0  0  0  0  0  0
   26.1037  -20.5364   -5.5424 N   0  0  0  0  0  0  0  0  0  0  0  0
   27.3652  -20.1211   -5.5435 C   0  0  0  0  0  0  0  0  0  0  0  0
   28.2181  -19.8099   -4.5111 C   0  0  0  0  0  0  0  0  0  0  0  0
   29.5150  -19.4141   -4.8168 C   0  0  0  0  0  0  0  0  0  0  0  0
   29.9498  -19.3316   -6.1384 C   0  0  0  0  0  0  0  0  0  0  0  0
   29.0531  -19.6535   -7.1212 C   0  0  0  0  0  0  0  0  0  0  0  0
   27.7578  -20.0503   -6.8654 C   0  0  0  0  0  0  0  0  0  0  0  0
   24.3547  -20.9571  -10.0655 C   0  0  0  0  0  0  0  0  0  0  0  0
   24.0586  -20.6928  -11.3924 O   0  0  0  0  0  0  0  0  0  0  0  0
   23.4392  -20.6940   -9.2369 O   0  0  0  0  0  0  0  0  0  0  0  0
  2  1  1  6
  3  2  1  0
  4  5  2  0
  4  3  1  0
  6  5  1  0
  7 12  2  0
  7  6  1  0
  8  7  1  0
  9 10  1  0
  9  8  2  0
 10 11  2  0
 11 12  1  0
 12  4  1  0
 13  2  1  0
 14 13  2  0
 16 17  1  0
 16 15  1  0
 17 18  1  0
 19 18  1  1
 19 21  1  0
 19 20  1  0
 20 13  1  0
 21 22  2  0
 23 24  1  0
 23 21  1  0
 25 26  1  0
 24 25  1  6
 26 27  2  0
 27 28  1  0
 29 28  1  0
 30 29  2  0
 31 30  1  0
 32 33  1  0
 32 31  2  0
 33 34  2  0
 34 26  1  0
 34 29  1  0
 35 36  1  0
 35 24  1  0
 37 35  2  0
M  END
$$$$
