WMW.pdb
     RDKit          3D

 37 40  0  0  1  0  0  0  0  0999 V2000
   27.4875  -19.4034  -17.1124 N   0  0  0  0  0  0  0  0  0  0  0  0
   26.7874  -18.6716  -16.0342 C   0  0  1  0  0  0  0  0  0  0  0  0
   25.8601  -17.7162  -16.7610 C   0  0  0  0  0  0  0  0  0  0  0  0
   26.5633  -16.5365  -17.3216 C   0  0  0  0  0  0  0  0  0  0  0  0
   26.6552  -16.2319  -18.6811 C   0  0  0  0  0  0  0  0  0  0  0  0
   27.3285  -15.0820  -18.8262 N   0  0  0  0  0  0  0  0  0  0  0  0
   27.6850  -14.6163  -17.6146 C   0  0  0  0  0  0  0  0  0  0  0  0
   28.3948  -13.4725  -17.2651 C   0  0  0  0  0  0  0  0  0  0  0  0
   28.6468  -13.2116  -15.9355 C   0  0  0  0  0  0  0  0  0  0  0  0
   28.1806  -14.1044  -14.9905 C   0  0  0  0  0  0  0  0  0  0  0  0
   27.4754  -15.2386  -15.3568 C   0  0  0  0  0  0  0  0  0  0  0  0
   27.2146  -15.5130  -16.6762 C   0  0  0  0  0  0  0  0  0  0  0  0
   26.1068  -19.6661  -15.2004 C   0  0  0  0  0  0  0  0  0  0  0  0
   25.5072  -20.6512  -15.7243 O   0  0  0  0  0  0  0  0  0  0  0  0
   24.0460  -21.1688   -7.6766 C   0  0  0  0  0  0  0  0  0  0  0  0
   25.2634  -20.5145   -8.8680 S   0  0  0  0  0  0  0  0  0  0  0  0
   24.6489  -20.8728  -10.5599 C   0  0  0  0  0  0  0  0  0  0  0  0
   25.5810  -20.1844  -11.5051 C   0  0  0  0  0  0  0  0  0  0  0  0
   25.2309  -20.4767  -12.9664 C   0  0  2  0  0  0  0  0  0  0  0  0
   26.0667  -19.6141  -13.7767 N   0  0  0  0  0  0  0  0  0  0  0  0
   23.7873  -20.2491  -13.2061 C   0  0  0  0  0  0  0  0  0  0  0  0
   23.3146  -19.1105  -12.9447 O   0  0  0  0  0  0  0  0  0  0  0  0
   22.9118  -21.2275  -13.7081 N   0  0  0  0  0  0  0  0  0  0  0  0
   21.4718  -20.9070  -13.8129 C   0  0  1  0  0  0  0  0  0  0  0  0
   20.9944  -21.2343  -15.1863 C   0  0  0  0  0  0  0  0  0  0  0  0
   19.5725  -21.0640  -15.4679 C   0  0  0  0  0  0  0  0  0  0  0  0
   18.9036  -19.8307  -15.4197 C   0  0  0  0  0  0  0  0  0  0  0  0
   17.6012  -20.0093  -15.6967 N   0  0  0  0  0  0  0  0  0  0  0  0
   17.3650  -21.2956  -15.9281 C   0  0  0  0  0  0  0  0  0  0  0  0
   16.2082  -21.9592  -16.2623 C   0  0  0  0  0  0  0  0  0  0  0  0
   16.2655  -23.3328  -16.4669 C   0  0  0  0  0  0  0  0  0  0  0  0
   17.4652  -24.0304  -16.3383 C   0  0  0  0  0  0  0  0  0  0  0  0
   18.5817  -23.3132  -16.0027 C   0  0  0  0  0  0  0  0  0  0  0  0
   18.5724  -21.9512  -15.7897 C   0  0  0  0  0  0  0  0  0  0  0  0
   20.7936  -21.6656  -12.7576 C   0  0  0  0  0  0  0  0  0  0  0  0
   21.3290  -22.8711  -12.3357 O   0  0  0  0  0  0  0  0  0  0  0  0
   19.7294  -21.3069  -12.1807 O   0  0  0  0  0  0  0  0  0  0  0  0
  2  1  1  6
  3  2  1  0
  4  5  2  0
  4  3  1  0
  6  5  1  0
  7 12  2  0
  7  6  1  0
  8  7  1  0
  9 10  1  0
  9  8  2  0
 10 11  2  0
 11 12  1  0
 12  4  1  0
 13  2  1  0
 14 13  2  0
 16 17  1  0
 16 15  1  0
 17 18  1  0
 19 18  1  1
 19 21  1  0
 19 20  1  0
 20 13  1  0
 21 22  2  0
 23 24  1  0
 23 21  1  0
 25 26  1  0
 24 25  1  6
 26 27  2  0
 27 28  1  0
 29 28  1  0
 30 29  2  0
 31 30  1  0
 32 33  1  0
 32 31  2  0
 33 34  2  0
 34 26  1  0
 34 29  1  0
 35 36  1  0
 35 24  1  0
 37 35  2  0
M  END
$$$$
