WMW.pdb
     RDKit          3D

 37 40  0  0  1  0  0  0  0  0999 V2000
   20.2141  -19.1307  -14.7309 N   0  0  0  0  0  0  0  0  0  0  0  0
   21.6358  -18.7222  -14.7431 C   0  0  1  0  0  0  0  0  0  0  0  0
   21.6284  -17.2984  -14.2202 C   0  0  0  0  0  0  0  0  0  0  0  0
   21.3405  -16.2936  -15.2728 C   0  0  0  0  0  0  0  0  0  0  0  0
   20.1399  -15.5926  -15.4019 C   0  0  0  0  0  0  0  0  0  0  0  0
   20.2382  -14.7455  -16.4360 N   0  0  0  0  0  0  0  0  0  0  0  0
   21.4574  -14.8610  -16.9947 C   0  0  0  0  0  0  0  0  0  0  0  0
   22.0124  -14.1992  -18.0847 C   0  0  0  0  0  0  0  0  0  0  0  0
   23.2981  -14.5018  -18.4781 C   0  0  0  0  0  0  0  0  0  0  0  0
   23.9943  -15.4605  -17.7683 C   0  0  0  0  0  0  0  0  0  0  0  0
   23.4256  -16.1097  -16.6852 C   0  0  0  0  0  0  0  0  0  0  0  0
   22.1468  -15.8195  -16.2794 C   0  0  0  0  0  0  0  0  0  0  0  0
   22.3723  -19.6748  -13.9079 C   0  0  0  0  0  0  0  0  0  0  0  0
   21.9259  -20.0254  -12.7755 O   0  0  0  0  0  0  0  0  0  0  0  0
   24.7163  -25.9133  -12.4581 C   0  0  0  0  0  0  0  0  0  0  0  0
   24.1269  -24.4401  -13.3592 S   0  0  0  0  0  0  0  0  0  0  0  0
   25.5814  -23.3844  -13.7311 C   0  0  0  0  0  0  0  0  0  0  0  0
   25.0576  -22.1702  -14.4293 C   0  0  0  0  0  0  0  0  0  0  0  0
   24.3201  -21.2333  -13.4692 C   0  0  2  0  0  0  0  0  0  0  0  0
   23.6097  -20.2716  -14.2875 N   0  0  0  0  0  0  0  0  0  0  0  0
   25.2777  -20.5862  -12.5431 C   0  0  0  0  0  0  0  0  0  0  0  0
   25.9956  -19.6516  -12.9893 O   0  0  0  0  0  0  0  0  0  0  0  0
   25.4341  -20.9522  -11.1949 N   0  0  0  0  0  0  0  0  0  0  0  0
   26.5141  -20.3197  -10.4069 C   0  0  1  0  0  0  0  0  0  0  0  0
   26.1182  -20.2849   -8.9704 C   0  0  0  0  0  0  0  0  0  0  0  0
   27.0120  -19.6058   -8.0377 C   0  0  0  0  0  0  0  0  0  0  0  0
   27.4371  -18.2757   -8.1831 C   0  0  0  0  0  0  0  0  0  0  0  0
   28.2756  -17.9551   -7.1836 N   0  0  0  0  0  0  0  0  0  0  0  0
   28.4322  -18.9995   -6.3782 C   0  0  0  0  0  0  0  0  0  0  0  0
   29.1691  -19.1550   -5.2280 C   0  0  0  0  0  0  0  0  0  0  0  0
   29.1264  -20.3795   -4.5718 C   0  0  0  0  0  0  0  0  0  0  0  0
   28.3559  -21.4325   -5.0619 C   0  0  0  0  0  0  0  0  0  0  0  0
   27.6456  -21.2154   -6.2117 C   0  0  0  0  0  0  0  0  0  0  0  0
   27.6581  -20.0189   -6.8963 C   0  0  0  0  0  0  0  0  0  0  0  0
   27.7318  -21.0946  -10.6633 C   0  0  0  0  0  0  0  0  0  0  0  0
   28.9513  -20.4418  -10.7313 O   0  0  0  0  0  0  0  0  0  0  0  0
   27.7693  -22.3449  -10.8342 O   0  0  0  0  0  0  0  0  0  0  0  0
  2  1  1  1
  3  2  1  0
  4  5  2  0
  4  3  1  0
  6  5  1  0
  7 12  2  0
  7  6  1  0
  8  7  1  0
  9 10  1  0
  9  8  2  0
 10 11  2  0
 11 12  1  0
 12  4  1  0
 13  2  1  0
 14 13  2  0
 16 17  1  0
 16 15  1  0
 17 18  1  0
 19 18  1  6
 19 21  1  0
 19 20  1  0
 20 13  1  0
 21 22  2  0
 23 24  1  0
 23 21  1  0
 25 26  1  0
 24 25  1  1
 26 27  2  0
 27 28  1  0
 29 28  1  0
 30 29  2  0
 31 30  1  0
 32 33  1  0
 32 31  2  0
 33 34  2  0
 34 26  1  0
 34 29  1  0
 35 36  1  0
 35 24  1  0
 37 35  2  0
M  END
$$$$
