AHI.pdb
     RDKit          3D

 24 24  0  0  1  0  0  0  0  0999 V2000
   28.1432  -17.9249  -16.3715 C   0  0  0  0  0  0  0  0  0  0  0  0
   27.4046  -19.2447  -16.2264 C   0  0  2  0  0  0  0  0  0  0  0  0
   26.7142  -19.5648  -17.4350 N   0  0  0  0  0  0  0  0  0  0  0  0
   26.5006  -19.0998  -15.0569 C   0  0  0  0  0  0  0  0  0  0  0  0
   26.4912  -17.9436  -14.5140 O   0  0  0  0  0  0  0  0  0  0  0  0
   25.6976  -20.1581  -14.5636 N   0  0  0  0  0  0  0  0  0  0  0  0
   24.7160  -19.8888  -13.4769 C   0  0  1  0  0  0  0  0  0  0  0  0
   23.4054  -20.3852  -13.9763 C   0  0  0  0  0  0  0  0  0  0  0  0
   22.7114  -19.4896  -14.9129 C   0  0  0  0  0  0  0  0  0  0  0  0
   22.0724  -18.3097  -14.6154 C   0  0  0  0  0  0  0  0  0  0  0  0
   21.5420  -17.8093  -15.7310 N   0  0  0  0  0  0  0  0  0  0  0  0
   21.8151  -18.6275  -16.7510 C   0  0  0  0  0  0  0  0  0  0  0  0
   22.5281  -19.6512  -16.2500 N   0  0  0  0  0  0  0  0  0  0  0  0
   25.2561  -20.5389  -12.2753 C   0  0  0  0  0  0  0  0  0  0  0  0
   25.4933  -21.7979  -12.2933 O   0  0  0  0  0  0  0  0  0  0  0  0
   28.1043  -19.6798   -6.8730 C   0  0  0  0  0  0  0  0  0  0  0  0
   27.2815  -20.5927   -7.7381 C   0  0  0  0  0  0  0  0  0  0  0  0
   26.7804  -19.7827   -8.9187 C   0  0  2  0  0  0  0  0  0  0  0  0
   25.8978  -18.6871   -8.3459 C   0  0  0  0  0  0  0  0  0  0  0  0
   25.9383  -20.6361   -9.8485 C   0  0  2  0  0  0  0  0  0  0  0  0
   25.5669  -19.9220  -11.0425 N   0  0  0  0  0  0  0  0  0  0  0  0
   24.8379  -21.1880   -9.0702 C   0  0  0  0  0  0  0  0  0  0  0  0
   23.5317  -20.7373   -9.1358 O   0  0  0  0  0  0  0  0  0  0  0  0
   25.0790  -22.1371   -8.2830 O   0  0  0  0  0  0  0  0  0  0  0  0
  2  1  1  6
  2  3  1  0
  4  5  2  0
  4  2  1  0
  6  4  1  0
  7 14  1  0
  7  6  1  0
  7  8  1  6
  9  8  1  0
  9 13  1  0
 10 11  1  0
 10  9  2  0
 11 12  1  0
 12 13  2  0
 14 21  1  0
 15 14  2  0
 17 16  1  0
 18 20  1  0
 18 17  1  0
 18 19  1  1
 20 22  1  0
 20 21  1  6
 22 24  2  0
 22 23  1  0
M  END
$$$$
