AHI.pdb
     RDKit          3D

 24 24  0  0  1  0  0  0  0  0999 V2000
   17.6152  -13.2609  -17.2839 C   0  0  0  0  0  0  0  0  0  0  0  0
   19.0491  -13.5552  -17.6909 C   0  0  2  0  0  0  0  0  0  0  0  0
   19.3591  -14.9307  -17.4640 N   0  0  0  0  0  0  0  0  0  0  0  0
   19.9104  -12.6257  -16.9162 C   0  0  0  0  0  0  0  0  0  0  0  0
   19.6148  -12.5107  -15.6788 O   0  0  0  0  0  0  0  0  0  0  0  0
   20.9884  -11.9083  -17.4917 N   0  0  0  0  0  0  0  0  0  0  0  0
   21.7553  -10.9426  -16.6573 C   0  0  1  0  0  0  0  0  0  0  0  0
   23.1834  -11.1176  -17.0362 C   0  0  0  0  0  0  0  0  0  0  0  0
   23.8603  -12.2659  -16.4166 C   0  0  0  0  0  0  0  0  0  0  0  0
   23.3486  -13.1202  -15.4692 C   0  0  0  0  0  0  0  0  0  0  0  0
   24.2815  -14.0130  -15.1397 N   0  0  0  0  0  0  0  0  0  0  0  0
   25.3900  -13.7684  -15.8439 C   0  0  0  0  0  0  0  0  0  0  0  0
   25.1310  -12.7028  -16.6217 N   0  0  0  0  0  0  0  0  0  0  0  0
   21.1587   -9.6249  -16.9139 C   0  0  0  0  0  0  0  0  0  0  0  0
   21.0008   -9.2300  -18.1226 O   0  0  0  0  0  0  0  0  0  0  0  0
   16.6184   -6.2132  -16.9428 C   0  0  0  0  0  0  0  0  0  0  0  0
   18.0933   -6.0620  -16.6970 C   0  0  0  0  0  0  0  0  0  0  0  0
   18.6512   -7.4356  -16.3758 C   0  0  2  0  0  0  0  0  0  0  0  0
   18.0843   -7.8248  -15.0214 C   0  0  0  0  0  0  0  0  0  0  0  0
   20.1641   -7.3988  -16.2667 C   0  0  2  0  0  0  0  0  0  0  0  0
   20.7105   -8.6931  -15.9509 N   0  0  0  0  0  0  0  0  0  0  0  0
   20.5176   -6.3200  -15.3543 C   0  0  0  0  0  0  0  0  0  0  0  0
   20.9570   -6.5076  -14.0561 O   0  0  0  0  0  0  0  0  0  0  0  0
   20.4208   -5.1356  -15.7624 O   0  0  0  0  0  0  0  0  0  0  0  0
  2  1  1  1
  2  3  1  0
  4  5  2  0
  4  2  1  0
  6  4  1  0
  7 14  1  0
  7  6  1  0
  7  8  1  6
  9  8  1  0
  9 13  1  0
 10 11  1  0
 10  9  2  0
 11 12  1  0
 12 13  2  0
 14 21  1  0
 15 14  2  0
 17 16  1  0
 18 20  1  0
 18 17  1  0
 18 19  1  1
 20 22  1  0
 20 21  1  1
 22 24  2  0
 22 23  1  0
M  END
$$$$
