AHI.pdb
     RDKit          3D

 24 24  0  0  1  0  0  0  0  0999 V2000
   17.7838  -14.9136  -15.5243 C   0  0  0  0  0  0  0  0  0  0  0  0
   17.7606  -13.4075  -15.7229 C   0  0  2  0  0  0  0  0  0  0  0  0
   16.6595  -13.0309  -16.5507 N   0  0  0  0  0  0  0  0  0  0  0  0
   19.0787  -13.0339  -16.2967 C   0  0  0  0  0  0  0  0  0  0  0  0
   19.8770  -14.0078  -16.5104 O   0  0  0  0  0  0  0  0  0  0  0  0
   19.4429  -11.6968  -16.5927 N   0  0  0  0  0  0  0  0  0  0  0  0
   20.7097  -11.4272  -17.3273 C   0  0  1  0  0  0  0  0  0  0  0  0
   20.3085  -11.0305  -18.7040 C   0  0  0  0  0  0  0  0  0  0  0  0
   21.3869  -10.4790  -19.5368 C   0  0  0  0  0  0  0  0  0  0  0  0
   21.5204   -9.1820  -19.9719 C   0  0  0  0  0  0  0  0  0  0  0  0
   22.6137   -9.0875  -20.7281 N   0  0  0  0  0  0  0  0  0  0  0  0
   23.2005  -10.2854  -20.8012 C   0  0  0  0  0  0  0  0  0  0  0  0
   22.4509  -11.1321  -20.0742 N   0  0  0  0  0  0  0  0  0  0  0  0
   21.4312  -10.4241  -16.5327 C   0  0  0  0  0  0  0  0  0  0  0  0
   20.7683   -9.5573  -15.8612 O   0  0  0  0  0  0  0  0  0  0  0  0
   27.1353  -10.2330  -16.0275 C   0  0  0  0  0  0  0  0  0  0  0  0
   25.7509   -9.8746  -16.4896 C   0  0  0  0  0  0  0  0  0  0  0  0
   24.8979   -9.6431  -15.2568 C   0  0  2  0  0  0  0  0  0  0  0  0
   24.8486  -10.9662  -14.5124 C   0  0  0  0  0  0  0  0  0  0  0  0
   23.4808   -9.2572  -15.6377 C   0  0  2  0  0  0  0  0  0  0  0  0
   22.8319  -10.2889  -16.4045 N   0  0  0  0  0  0  0  0  0  0  0  0
   23.5306   -7.9405  -16.2584 C   0  0  0  0  0  0  0  0  0  0  0  0
   23.6118   -6.7499  -15.5588 O   0  0  0  0  0  0  0  0  0  0  0  0
   23.4981   -7.8688  -17.5124 O   0  0  0  0  0  0  0  0  0  0  0  0
  2  1  1  6
  2  3  1  0
  4  5  2  0
  4  2  1  0
  6  4  1  0
  7 14  1  0
  7  6  1  0
  7  8  1  6
  9  8  1  0
  9 13  1  0
 10 11  1  0
 10  9  2  0
 11 12  1  0
 12 13  2  0
 14 21  1  0
 15 14  2  0
 17 16  1  0
 18 20  1  0
 18 17  1  0
 18 19  1  6
 20 22  1  0
 20 21  1  6
 22 24  2  0
 22 23  1  0
M  END
$$$$
