AHI.pdb
     RDKit          3D

 24 24  0  0  1  0  0  0  0  0999 V2000
   27.3422  -19.5630  -15.2896 C   0  0  0  0  0  0  0  0  0  0  0  0
   27.8293  -20.4192  -14.1329 C   0  0  2  0  0  0  0  0  0  0  0  0
   27.7120  -21.8056  -14.4552 N   0  0  0  0  0  0  0  0  0  0  0  0
   27.0290  -20.0247  -12.9454 C   0  0  0  0  0  0  0  0  0  0  0  0
   27.0825  -18.7862  -12.6378 O   0  0  0  0  0  0  0  0  0  0  0  0
   26.2545  -20.9434  -12.1942 N   0  0  0  0  0  0  0  0  0  0  0  0
   25.4483  -20.4532  -11.0424 C   0  0  1  0  0  0  0  0  0  0  0  0
   24.0912  -21.0386  -11.2134 C   0  0  0  0  0  0  0  0  0  0  0  0
   23.2307  -20.3526  -12.1878 C   0  0  0  0  0  0  0  0  0  0  0  0
   23.5305  -19.2228  -12.9108 C   0  0  0  0  0  0  0  0  0  0  0  0
   22.4796  -18.8958  -13.6622 N   0  0  0  0  0  0  0  0  0  0  0  0
   21.4994  -19.7789  -13.4524 C   0  0  0  0  0  0  0  0  0  0  0  0
   21.9596  -20.6661  -12.5531 N   0  0  0  0  0  0  0  0  0  0  0  0
   26.1904  -20.8425   -9.8358 C   0  0  0  0  0  0  0  0  0  0  0  0
   26.7446  -21.9965   -9.7826 O   0  0  0  0  0  0  0  0  0  0  0  0
   29.3128  -19.0183   -4.9002 C   0  0  0  0  0  0  0  0  0  0  0  0
   28.4886  -20.1082   -5.5260 C   0  0  0  0  0  0  0  0  0  0  0  0
   27.8125  -19.5287   -6.7540 C   0  0  2  0  0  0  0  0  0  0  0  0
   26.9068  -18.4133   -6.2611 C   0  0  0  0  0  0  0  0  0  0  0  0
   26.9532  -20.5697   -7.4468 C   0  0  2  0  0  0  0  0  0  0  0  0
   26.3843  -20.0672   -8.6705 N   0  0  0  0  0  0  0  0  0  0  0  0
   26.0041  -21.0842   -6.4692 C   0  0  0  0  0  0  0  0  0  0  0  0
   26.3356  -21.9400   -5.4342 O   0  0  0  0  0  0  0  0  0  0  0  0
   24.8009  -20.7344   -6.5622 O   0  0  0  0  0  0  0  0  0  0  0  0
  2  1  1  6
  2  3  1  0
  4  5  2  0
  4  2  1  0
  6  4  1  0
  7 14  1  0
  7  6  1  0
  7  8  1  1
  9  8  1  0
  9 13  1  0
 10 11  1  0
 10  9  2  0
 11 12  1  0
 12 13  2  0
 14 21  1  0
 15 14  2  0
 17 16  1  0
 18 20  1  0
 18 17  1  0
 18 19  1  1
 20 22  1  0
 20 21  1  6
 22 24  2  0
 22 23  1  0
M  END
$$$$
