AHI.pdb
     RDKit          3D

 24 24  0  0  1  0  0  0  0  0999 V2000
   27.5400  -18.8020  -14.9810 C   0  0  0  0  0  0  0  0  0  0  0  0
   28.0592  -19.7823  -13.9428 C   0  0  2  0  0  0  0  0  0  0  0  0
   28.0633  -21.1099  -14.4692 N   0  0  0  0  0  0  0  0  0  0  0  0
   27.1945  -19.6304  -12.7448 C   0  0  0  0  0  0  0  0  0  0  0  0
   27.0962  -18.4411  -12.2895 O   0  0  0  0  0  0  0  0  0  0  0  0
   26.5182  -20.7166  -12.1358 N   0  0  0  0  0  0  0  0  0  0  0  0
   25.6261  -20.4648  -10.9706 C   0  0  1  0  0  0  0  0  0  0  0  0
   24.4145  -21.2988  -11.1943 C   0  0  0  0  0  0  0  0  0  0  0  0
   23.4300  -20.7362  -12.1297 C   0  0  0  0  0  0  0  0  0  0  0  0
   23.4917  -19.5215  -12.7700 C   0  0  0  0  0  0  0  0  0  0  0  0
   22.3945  -19.3638  -13.5098 N   0  0  0  0  0  0  0  0  0  0  0  0
   21.6154  -20.4403  -13.3727 C   0  0  0  0  0  0  0  0  0  0  0  0
   22.2487  -21.2756  -12.5309 N   0  0  0  0  0  0  0  0  0  0  0  0
   26.4270  -20.7670   -9.7767 C   0  0  0  0  0  0  0  0  0  0  0  0
   27.1945  -21.7929   -9.7766 O   0  0  0  0  0  0  0  0  0  0  0  0
   29.0035  -18.8085   -4.5758 C   0  0  0  0  0  0  0  0  0  0  0  0
   28.4131  -19.9683   -5.3276 C   0  0  0  0  0  0  0  0  0  0  0  0
   27.7260  -19.4166   -6.5623 C   0  0  2  0  0  0  0  0  0  0  0  0
   26.6689  -18.4440   -6.0687 C   0  0  0  0  0  0  0  0  0  0  0  0
   27.0330  -20.5196   -7.3404 C   0  0  2  0  0  0  0  0  0  0  0  0
   26.4642  -20.0322   -8.5702 N   0  0  0  0  0  0  0  0  0  0  0  0
   26.1096  -21.1893   -6.4348 C   0  0  0  0  0  0  0  0  0  0  0  0
   26.4884  -22.1049   -5.4695 O   0  0  0  0  0  0  0  0  0  0  0  0
   24.8845  -20.9258   -6.5272 O   0  0  0  0  0  0  0  0  0  0  0  0
  2  1  1  6
  2  3  1  0
  4  5  2  0
  4  2  1  0
  6  4  1  0
  7 14  1  0
  7  6  1  0
  7  8  1  6
  9  8  1  0
  9 13  1  0
 10 11  1  0
 10  9  2  0
 11 12  1  0
 12 13  2  0
 14 21  1  0
 15 14  2  0
 17 16  1  0
 18 20  1  0
 18 17  1  0
 18 19  1  1
 20 22  1  0
 20 21  1  6
 22 24  2  0
 22 23  1  0
M  END
$$$$
