AHI.pdb
     RDKit          3D

 24 24  0  0  1  0  0  0  0  0999 V2000
   29.3450  -21.0871  -18.8925 C   0  0  0  0  0  0  0  0  0  0  0  0
   28.5296  -21.9366  -17.9323 C   0  0  2  0  0  0  0  0  0  0  0  0
   27.4649  -22.5892  -18.6253 N   0  0  0  0  0  0  0  0  0  0  0  0
   28.0574  -21.0280  -16.8564 C   0  0  0  0  0  0  0  0  0  0  0  0
   28.9777  -20.4953  -16.1487 O   0  0  0  0  0  0  0  0  0  0  0  0
   26.6870  -20.7589  -16.6168 N   0  0  0  0  0  0  0  0  0  0  0  0
   26.3056  -19.7711  -15.5700 C   0  0  1  0  0  0  0  0  0  0  0  0
   25.3968  -18.7990  -16.2356 C   0  0  0  0  0  0  0  0  0  0  0  0
   25.7617  -17.3847  -16.0698 C   0  0  0  0  0  0  0  0  0  0  0  0
   26.7767  -16.8734  -15.2968 C   0  0  0  0  0  0  0  0  0  0  0  0
   26.7649  -15.5439  -15.3878 N   0  0  0  0  0  0  0  0  0  0  0  0
   25.7714  -15.1691  -16.1983 C   0  0  0  0  0  0  0  0  0  0  0  0
   25.1611  -16.2930  -16.6130 N   0  0  0  0  0  0  0  0  0  0  0  0
   25.7412  -20.5542  -14.4628 C   0  0  0  0  0  0  0  0  0  0  0  0
   25.0576  -21.6069  -14.7205 O   0  0  0  0  0  0  0  0  0  0  0  0
   25.7922  -21.1917   -8.2856 C   0  0  0  0  0  0  0  0  0  0  0  0
   25.1866  -21.6004   -9.5990 C   0  0  0  0  0  0  0  0  0  0  0  0
   25.9117  -20.8455  -10.6968 C   0  0  2  0  0  0  0  0  0  0  0  0
   25.8053  -19.3709  -10.3483 C   0  0  0  0  0  0  0  0  0  0  0  0
   25.2468  -21.0665  -12.0426 C   0  0  2  0  0  0  0  0  0  0  0  0
   25.8655  -20.2843  -13.0813 N   0  0  0  0  0  0  0  0  0  0  0  0
   23.8142  -20.8708  -11.8678 C   0  0  0  0  0  0  0  0  0  0  0  0
   22.9328  -21.8617  -11.4743 O   0  0  0  0  0  0  0  0  0  0  0  0
   23.3354  -19.7298  -12.0862 O   0  0  0  0  0  0  0  0  0  0  0  0
  2  1  1  6
  2  3  1  0
  4  5  2  0
  4  2  1  0
  6  4  1  0
  7 14  1  0
  7  6  1  0
  7  8  1  6
  9  8  1  0
  9 13  1  0
 10 11  1  0
 10  9  2  0
 11 12  1  0
 12 13  2  0
 14 21  1  0
 15 14  2  0
 17 16  1  0
 18 20  1  0
 18 17  1  0
 18 19  1  1
 20 22  1  0
 20 21  1  6
 22 24  2  0
 22 23  1  0
M  END
$$$$
