AHI.pdb
     RDKit          3D

 24 24  0  0  1  0  0  0  0  0999 V2000
   27.6291  -19.4471  -15.9238 C   0  0  0  0  0  0  0  0  0  0  0  0
   28.0089  -20.3113  -14.7333 C   0  0  2  0  0  0  0  0  0  0  0  0
   27.9252  -21.6953  -15.0753 N   0  0  0  0  0  0  0  0  0  0  0  0
   27.1013  -19.9270  -13.6221 C   0  0  0  0  0  0  0  0  0  0  0  0
   27.0668  -18.6791  -13.3519 O   0  0  0  0  0  0  0  0  0  0  0  0
   26.3207  -20.8646  -12.9011 N   0  0  0  0  0  0  0  0  0  0  0  0
   25.3572  -20.3811  -11.8740 C   0  0  1  0  0  0  0  0  0  0  0  0
   24.0199  -20.8718  -12.3035 C   0  0  0  0  0  0  0  0  0  0  0  0
   23.4473  -20.1890  -13.4725 C   0  0  0  0  0  0  0  0  0  0  0  0
   23.3815  -20.6618  -14.7615 C   0  0  0  0  0  0  0  0  0  0  0  0
   22.8179  -19.7353  -15.5361 N   0  0  0  0  0  0  0  0  0  0  0  0
   22.5124  -18.6688  -14.7919 C   0  0  0  0  0  0  0  0  0  0  0  0
   22.8970  -18.9477  -13.5341 N   0  0  0  0  0  0  0  0  0  0  0  0
   25.8608  -20.8737  -10.5849 C   0  0  0  0  0  0  0  0  0  0  0  0
   26.2783  -22.0815  -10.4921 O   0  0  0  0  0  0  0  0  0  0  0  0
   28.5769  -18.3806   -6.5099 C   0  0  0  0  0  0  0  0  0  0  0  0
   28.0528  -19.3562   -7.5258 C   0  0  0  0  0  0  0  0  0  0  0  0
   26.6842  -19.8164   -7.0610 C   0  0  2  0  0  0  0  0  0  0  0  0
   26.9038  -20.5856   -5.7697 C   0  0  0  0  0  0  0  0  0  0  0  0
   26.0505  -20.7534   -8.0722 C   0  0  2  0  0  0  0  0  0  0  0  0
   25.9522  -20.1488   -9.3754 N   0  0  0  0  0  0  0  0  0  0  0  0
   24.8023  -21.2428   -7.5032 C   0  0  0  0  0  0  0  0  0  0  0  0
   24.7165  -22.2487   -6.5575 O   0  0  0  0  0  0  0  0  0  0  0  0
   23.7250  -20.7243   -7.8895 O   0  0  0  0  0  0  0  0  0  0  0  0
  2  1  1  6
  2  3  1  0
  4  5  2  0
  4  2  1  0
  6  4  1  0
  7 14  1  0
  7  6  1  0
  7  8  1  6
  9  8  1  0
  9 13  1  0
 10 11  1  0
 10  9  2  0
 11 12  1  0
 12 13  2  0
 14 21  1  0
 15 14  2  0
 17 16  1  0
 18 20  1  0
 18 17  1  0
 18 19  1  1
 20 22  1  0
 20 21  1  6
 22 24  2  0
 22 23  1  0
M  END
$$$$
