AHI.pdb
     RDKit          3D

 24 24  0  0  1  0  0  0  0  0999 V2000
   24.9441  -20.6623   -9.2748 C   0  0  0  0  0  0  0  0  0  0  0  0
   25.8552  -21.2832  -10.3203 C   0  0  2  0  0  0  0  0  0  0  0  0
   27.2209  -20.9771  -10.0363 N   0  0  0  0  0  0  0  0  0  0  0  0
   25.4021  -20.7694  -11.6382 C   0  0  0  0  0  0  0  0  0  0  0  0
   25.9176  -19.6573  -11.9972 O   0  0  0  0  0  0  0  0  0  0  0  0
   24.4649  -21.4509  -12.4538 N   0  0  0  0  0  0  0  0  0  0  0  0
   24.1690  -20.9352  -13.8190 C   0  0  1  0  0  0  0  0  0  0  0  0
   24.5175  -22.0361  -14.7572 C   0  0  0  0  0  0  0  0  0  0  0  0
   25.8956  -22.0116  -15.2682 C   0  0  0  0  0  0  0  0  0  0  0  0
   26.8663  -21.0773  -14.9964 C   0  0  0  0  0  0  0  0  0  0  0  0
   27.9712  -21.3887  -15.6734 N   0  0  0  0  0  0  0  0  0  0  0  0
   27.7525  -22.5003  -16.3812 C   0  0  0  0  0  0  0  0  0  0  0  0
   26.4864  -22.8783  -16.1327 N   0  0  0  0  0  0  0  0  0  0  0  0
   22.7640  -20.5072  -13.7928 C   0  0  0  0  0  0  0  0  0  0  0  0
   21.9343  -21.1166  -13.0300 O   0  0  0  0  0  0  0  0  0  0  0  0
   21.0749  -15.3184  -14.5195 C   0  0  0  0  0  0  0  0  0  0  0  0
   20.9808  -16.6711  -13.8713 C   0  0  0  0  0  0  0  0  0  0  0  0
   20.5579  -17.6651  -14.9361 C   0  0  2  0  0  0  0  0  0  0  0  0
   19.0660  -17.4671  -15.1420 C   0  0  0  0  0  0  0  0  0  0  0  0
   20.7903  -19.0917  -14.4748 C   0  0  2  0  0  0  0  0  0  0  0  0
   22.1826  -19.4545  -14.5348 N   0  0  0  0  0  0  0  0  0  0  0  0
   19.8771  -19.9521  -15.2143 C   0  0  0  0  0  0  0  0  0  0  0  0
   20.2353  -20.7065  -16.3171 O   0  0  0  0  0  0  0  0  0  0  0  0
   18.6814  -20.0219  -14.8346 O   0  0  0  0  0  0  0  0  0  0  0  0
  2  1  1  1
  2  3  1  0
  4  5  2  0
  4  2  1  0
  6  4  1  0
  7 14  1  0
  7  6  1  0
  7  8  1  6
  9  8  1  0
  9 13  1  0
 10 11  1  0
 10  9  2  0
 11 12  1  0
 12 13  2  0
 14 21  1  0
 15 14  2  0
 17 16  1  0
 18 20  1  0
 18 17  1  0
 18 19  1  1
 20 22  1  0
 20 21  1  6
 22 24  2  0
 22 23  1  0
M  END
$$$$
