AHI.pdb
     RDKit          3D

 24 24  0  0  1  0  0  0  0  0999 V2000
   29.1331  -23.1118  -15.9381 C   0  0  0  0  0  0  0  0  0  0  0  0
   28.1682  -22.0917  -16.5186 C   0  0  2  0  0  0  0  0  0  0  0  0
   28.7198  -21.4966  -17.6939 N   0  0  0  0  0  0  0  0  0  0  0  0
   27.8894  -21.1087  -15.4406 C   0  0  0  0  0  0  0  0  0  0  0  0
   28.8688  -20.3518  -15.1251 O   0  0  0  0  0  0  0  0  0  0  0  0
   26.6320  -21.0031  -14.7958 N   0  0  0  0  0  0  0  0  0  0  0  0
   26.4240  -19.9522  -13.7617 C   0  0  1  0  0  0  0  0  0  0  0  0
   25.5470  -18.9273  -14.3896 C   0  0  0  0  0  0  0  0  0  0  0  0
   26.2262  -17.9930  -15.2987 C   0  0  0  0  0  0  0  0  0  0  0  0
   27.0760  -16.9688  -14.9551 C   0  0  0  0  0  0  0  0  0  0  0  0
   27.4603  -16.3330  -16.0615 N   0  0  0  0  0  0  0  0  0  0  0  0
   26.8867  -16.9111  -17.1204 C   0  0  0  0  0  0  0  0  0  0  0  0
   26.1348  -17.9229  -16.6531 N   0  0  0  0  0  0  0  0  0  0  0  0
   25.8911  -20.6469  -12.5821 C   0  0  0  0  0  0  0  0  0  0  0  0
   25.2511  -21.7464  -12.7347 O   0  0  0  0  0  0  0  0  0  0  0  0
   27.7662  -20.0638   -7.3478 C   0  0  0  0  0  0  0  0  0  0  0  0
   27.2827  -20.7571   -8.5905 C   0  0  0  0  0  0  0  0  0  0  0  0
   25.8278  -20.3793   -8.7938 C   0  0  2  0  0  0  0  0  0  0  0  0
   25.0433  -21.0812   -7.6987 C   0  0  0  0  0  0  0  0  0  0  0  0
   25.3181  -20.8712  -10.1356 C   0  0  2  0  0  0  0  0  0  0  0  0
   26.0033  -20.2399  -11.2336 N   0  0  0  0  0  0  0  0  0  0  0  0
   23.8673  -20.7428  -10.1339 C   0  0  0  0  0  0  0  0  0  0  0  0
   22.9984  -21.7087   -9.6588 O   0  0  0  0  0  0  0  0  0  0  0  0
   23.3596  -19.6889  -10.5923 O   0  0  0  0  0  0  0  0  0  0  0  0
  2  1  1  1
  2  3  1  0
  4  5  2  0
  4  2  1  0
  6  4  1  0
  7 14  1  0
  7  6  1  0
  7  8  1  6
  9  8  1  0
  9 13  1  0
 10 11  1  0
 10  9  2  0
 11 12  1  0
 12 13  2  0
 14 21  1  0
 15 14  2  0
 17 16  1  0
 18 20  1  0
 18 17  1  0
 18 19  1  1
 20 22  1  0
 20 21  1  6
 22 24  2  0
 22 23  1  0
M  END
$$$$
