AHI.pdb
     RDKit          3D

 24 24  0  0  1  0  0  0  0  0999 V2000
   26.1242  -23.7972  -18.5999 C   0  0  0  0  0  0  0  0  0  0  0  0
   24.8540  -22.9827  -18.7774 C   0  0  2  0  0  0  0  0  0  0  0  0
   24.7868  -22.4461  -20.0992 N   0  0  0  0  0  0  0  0  0  0  0  0
   24.8677  -21.9380  -17.7217 C   0  0  0  0  0  0  0  0  0  0  0  0
   26.0252  -21.6122  -17.2909 O   0  0  0  0  0  0  0  0  0  0  0  0
   23.6901  -21.3338  -17.2156 N   0  0  0  0  0  0  0  0  0  0  0  0
   23.8007  -20.1601  -16.3061 C   0  0  1  0  0  0  0  0  0  0  0  0
   22.9037  -19.1168  -16.8725 C   0  0  0  0  0  0  0  0  0  0  0  0
   23.5731  -18.0821  -17.6737 C   0  0  0  0  0  0  0  0  0  0  0  0
   24.9232  -17.9430  -17.8908 C   0  0  0  0  0  0  0  0  0  0  0  0
   25.1334  -16.8647  -18.6452 N   0  0  0  0  0  0  0  0  0  0  0  0
   23.9598  -16.2931  -18.9288 C   0  0  0  0  0  0  0  0  0  0  0  0
   23.0099  -17.0369  -18.3355 N   0  0  0  0  0  0  0  0  0  0  0  0
   23.4726  -20.6577  -14.9634 C   0  0  0  0  0  0  0  0  0  0  0  0
   22.5185  -21.5010  -14.8204 O   0  0  0  0  0  0  0  0  0  0  0  0
   27.0799  -20.8985  -10.7021 C   0  0  0  0  0  0  0  0  0  0  0  0
   26.0566  -21.2779  -11.7354 C   0  0  0  0  0  0  0  0  0  0  0  0
   24.7708  -20.5450  -11.4028 C   0  0  2  0  0  0  0  0  0  0  0  0
   24.2801  -21.1136  -10.0824 C   0  0  0  0  0  0  0  0  0  0  0  0
   23.7087  -20.8000  -12.4559 C   0  0  2  0  0  0  0  0  0  0  0  0
   24.1087  -20.3117  -13.7501 N   0  0  0  0  0  0  0  0  0  0  0  0
   22.4450  -20.2863  -11.9458 C   0  0  0  0  0  0  0  0  0  0  0  0
   21.9256  -19.0421  -12.2554 O   0  0  0  0  0  0  0  0  0  0  0  0
   21.7728  -21.0128  -11.1717 O   0  0  0  0  0  0  0  0  0  0  0  0
  2  1  1  6
  2  3  1  0
  4  5  2  0
  4  2  1  0
  6  4  1  0
  7 14  1  0
  7  6  1  0
  7  8  1  6
  9  8  1  0
  9 13  1  0
 10 11  1  0
 10  9  2  0
 11 12  1  0
 12 13  2  0
 14 21  1  0
 15 14  2  0
 17 16  1  0
 18 20  1  0
 18 17  1  0
 18 19  1  1
 20 22  1  0
 20 21  1  6
 22 24  2  0
 22 23  1  0
M  END
$$$$
