AHI.pdb
     RDKit          3D

 24 24  0  0  1  0  0  0  0  0999 V2000
   16.5709  -11.4326  -16.9874 C   0  0  0  0  0  0  0  0  0  0  0  0
   17.8970  -11.1412  -16.3056 C   0  0  2  0  0  0  0  0  0  0  0  0
   18.2446  -12.2039  -15.4170 N   0  0  0  0  0  0  0  0  0  0  0  0
   17.7444   -9.8321  -15.6207 C   0  0  0  0  0  0  0  0  0  0  0  0
   17.3934   -8.8605  -16.3719 O   0  0  0  0  0  0  0  0  0  0  0  0
   17.9681   -9.6541  -14.2328 N   0  0  0  0  0  0  0  0  0  0  0  0
   17.8476   -8.2940  -13.6390 C   0  0  1  0  0  0  0  0  0  0  0  0
   17.1501   -8.4754  -12.3373 C   0  0  0  0  0  0  0  0  0  0  0  0
   17.0606   -7.2702  -11.5006 C   0  0  0  0  0  0  0  0  0  0  0  0
   17.6124   -6.0377  -11.7569 C   0  0  0  0  0  0  0  0  0  0  0  0
   17.3325   -5.2171  -10.7448 N   0  0  0  0  0  0  0  0  0  0  0  0
   16.6132   -5.8764   -9.8325 C   0  0  0  0  0  0  0  0  0  0  0  0
   16.4486   -7.1279  -10.2953 N   0  0  0  0  0  0  0  0  0  0  0  0
   19.2126   -7.7532  -13.5892 C   0  0  0  0  0  0  0  0  0  0  0  0
   20.1452   -8.4467  -13.0498 O   0  0  0  0  0  0  0  0  0  0  0  0
   22.3150   -7.1454  -17.3833 C   0  0  0  0  0  0  0  0  0  0  0  0
   21.7029   -7.3156  -16.0212 C   0  0  0  0  0  0  0  0  0  0  0  0
   21.6750   -5.9535  -15.3540 C   0  0  2  0  0  0  0  0  0  0  0  0
   23.1234   -5.5433  -15.1515 C   0  0  0  0  0  0  0  0  0  0  0  0
   21.0051   -6.0250  -13.9946 C   0  0  2  0  0  0  0  0  0  0  0  0
   19.6511   -6.5062  -14.0886 N   0  0  0  0  0  0  0  0  0  0  0  0
   21.1762   -4.7320  -13.3464 C   0  0  0  0  0  0  0  0  0  0  0  0
   20.1674   -3.7992  -13.1859 O   0  0  0  0  0  0  0  0  0  0  0  0
   22.3117   -4.4326  -12.8994 O   0  0  0  0  0  0  0  0  0  0  0  0
  2  1  1  1
  2  3  1  0
  4  5  2  0
  4  2  1  0
  6  4  1  0
  7 14  1  0
  7  6  1  0
  7  8  1  1
  9  8  1  0
  9 13  1  0
 10 11  1  0
 10  9  2  0
 11 12  1  0
 12 13  2  0
 14 21  1  0
 15 14  2  0
 17 16  1  0
 18 20  1  0
 18 17  1  0
 18 19  1  1
 20 22  1  0
 20 21  1  6
 22 24  2  0
 22 23  1  0
M  END
$$$$
