AHI.pdb
     RDKit          3D

 24 24  0  0  1  0  0  0  0  0999 V2000
   15.2499   -7.5750   -8.1998 C   0  0  0  0  0  0  0  0  0  0  0  0
   14.4192   -8.0318   -9.3871 C   0  0  2  0  0  0  0  0  0  0  0  0
   13.5138   -9.0641   -8.9941 N   0  0  0  0  0  0  0  0  0  0  0  0
   15.3782   -8.4626  -10.4364 C   0  0  0  0  0  0  0  0  0  0  0  0
   15.8348   -9.6483  -10.3052 O   0  0  0  0  0  0  0  0  0  0  0  0
   15.7708   -7.6310  -11.5144 N   0  0  0  0  0  0  0  0  0  0  0  0
   16.5573   -8.2097  -12.6385 C   0  0  1  0  0  0  0  0  0  0  0  0
   15.7352   -8.0054  -13.8617 C   0  0  0  0  0  0  0  0  0  0  0  0
   16.3231   -8.5226  -15.1058 C   0  0  0  0  0  0  0  0  0  0  0  0
   17.5326   -9.1589  -15.2517 C   0  0  0  0  0  0  0  0  0  0  0  0
   17.7199   -9.4468  -16.5393 N   0  0  0  0  0  0  0  0  0  0  0  0
   16.6678   -9.0174  -17.2416 C   0  0  0  0  0  0  0  0  0  0  0  0
   15.8174   -8.4543  -16.3656 N   0  0  0  0  0  0  0  0  0  0  0  0
   17.8657   -7.5428  -12.6008 C   0  0  0  0  0  0  0  0  0  0  0  0
   17.9552   -6.3589  -12.1190 O   0  0  0  0  0  0  0  0  0  0  0  0
   22.5742   -9.4311  -10.6884 C   0  0  0  0  0  0  0  0  0  0  0  0
   21.4402   -8.5092  -11.0389 C   0  0  0  0  0  0  0  0  0  0  0  0
   21.4879   -8.2667  -12.5356 C   0  0  2  0  0  0  0  0  0  0  0  0
   22.8014   -7.5570  -12.8153 C   0  0  0  0  0  0  0  0  0  0  0  0
   20.3533   -7.3619  -12.9786 C   0  0  2  0  0  0  0  0  0  0  0  0
   19.0999   -8.0675  -13.0460 N   0  0  0  0  0  0  0  0  0  0  0  0
   20.7716   -6.6915  -14.2021 C   0  0  0  0  0  0  0  0  0  0  0  0
   21.4534   -5.4884  -14.2395 O   0  0  0  0  0  0  0  0  0  0  0  0
   20.5006   -7.2326  -15.3032 O   0  0  0  0  0  0  0  0  0  0  0  0
  2  1  1  1
  2  3  1  0
  4  5  2  0
  4  2  1  0
  6  4  1  0
  7 14  1  0
  7  6  1  0
  7  8  1  6
  9  8  1  0
  9 13  1  0
 10 11  1  0
 10  9  2  0
 11 12  1  0
 12 13  2  0
 14 21  1  0
 15 14  2  0
 17 16  1  0
 18 20  1  0
 18 17  1  0
 18 19  1  1
 20 22  1  0
 20 21  1  6
 22 24  2  0
 22 23  1  0
M  END
$$$$
