AHI.pdb
     RDKit          3D

 24 24  0  0  1  0  0  0  0  0999 V2000
   23.3360  -31.6923  -16.8797 C   0  0  0  0  0  0  0  0  0  0  0  0
   23.3271  -30.1849  -17.0703 C   0  0  2  0  0  0  0  0  0  0  0  0
   24.5678  -29.7455  -17.6246 N   0  0  0  0  0  0  0  0  0  0  0  0
   23.0366  -29.5899  -15.7408 C   0  0  0  0  0  0  0  0  0  0  0  0
   24.0395  -29.4911  -14.9559 O   0  0  0  0  0  0  0  0  0  0  0  0
   21.7446  -29.1566  -15.3525 N   0  0  0  0  0  0  0  0  0  0  0  0
   21.5602  -28.4887  -14.0345 C   0  0  1  0  0  0  0  0  0  0  0  0
   20.4554  -27.5100  -14.2221 C   0  0  0  0  0  0  0  0  0  0  0  0
   20.0205  -26.8141  -13.0025 C   0  0  0  0  0  0  0  0  0  0  0  0
   20.4837  -27.0107  -11.7235 C   0  0  0  0  0  0  0  0  0  0  0  0
   19.8186  -26.2090  -10.8922 N   0  0  0  0  0  0  0  0  0  0  0  0
   18.9328  -25.4926  -11.5897 C   0  0  0  0  0  0  0  0  0  0  0  0
   19.0576  -25.8631  -12.8761 N   0  0  0  0  0  0  0  0  0  0  0  0
   21.3317  -29.5675  -13.0640 C   0  0  0  0  0  0  0  0  0  0  0  0
   20.6501  -30.5946  -13.4134 O   0  0  0  0  0  0  0  0  0  0  0  0
   24.4294  -31.7967   -9.0442 C   0  0  0  0  0  0  0  0  0  0  0  0
   23.8200  -30.7513   -9.9355 C   0  0  0  0  0  0  0  0  0  0  0  0
   22.3536  -30.6281   -9.5671 C   0  0  2  0  0  0  0  0  0  0  0  0
   22.0248  -31.8310   -8.6998 C   0  0  0  0  0  0  0  0  0  0  0  0
   21.4742  -30.6763  -10.8025 C   0  0  2  0  0  0  0  0  0  0  0  0
   21.7939  -29.6220  -11.7298 N   0  0  0  0  0  0  0  0  0  0  0  0
   20.0881  -30.7338  -10.3592 C   0  0  0  0  0  0  0  0  0  0  0  0
   19.3736  -29.6476   -9.8866 O   0  0  0  0  0  0  0  0  0  0  0  0
   19.4910  -31.8384  -10.4042 O   0  0  0  0  0  0  0  0  0  0  0  0
  2  1  1  1
  2  3  1  0
  4  5  2  0
  4  2  1  0
  6  4  1  0
  7 14  1  0
  7  6  1  0
  7  8  1  6
  9  8  1  0
  9 13  1  0
 10 11  1  0
 10  9  2  0
 11 12  1  0
 12 13  2  0
 14 21  1  0
 15 14  2  0
 17 16  1  0
 18 20  1  0
 18 17  1  0
 18 19  1  1
 20 22  1  0
 20 21  1  6
 22 24  2  0
 22 23  1  0
M  END
$$$$
