CGM.pdb
     RDKit          3D

 19 18  0  0  1  0  0  0  0  0999 V2000
    4.6325  -20.4288   22.4176 N   0  0  0  0  0  0  0  0  0  0  0  0
    4.7609  -19.4635   21.3437 C   0  0  1  0  0  0  0  0  0  0  0  0
    3.4647  -19.4204   20.5887 C   0  0  0  0  0  0  0  0  0  0  0  0
    2.0511  -19.0866   21.6724 S   0  0  0  0  0  0  0  0  0  0  0  0
    5.1900  -18.1322   21.8633 C   0  0  0  0  0  0  0  0  0  0  0  0
    4.5991  -17.6641   22.8670 O   0  0  0  0  0  0  0  0  0  0  0  0
    6.2320  -17.3819   21.2731 N   0  0  0  0  0  0  0  0  0  0  0  0
    6.4983  -16.0286   21.5964 C   0  0  0  0  0  0  0  0  0  0  0  0
    7.4431  -15.7671   22.6789 C   0  0  0  0  0  0  0  0  0  0  0  0
    8.5498  -15.2321   22.3271 O   0  0  0  0  0  0  0  0  0  0  0  0
    6.4798  -11.0285   25.8316 C   0  0  0  0  0  0  0  0  0  0  0  0
    6.8792  -12.0980   27.2417 S   0  0  0  0  0  0  0  0  0  0  0  0
    8.0003  -13.4435   26.7186 C   0  0  0  0  0  0  0  0  0  0  0  0
    7.2990  -14.2104   25.6571 C   0  0  0  0  0  0  0  0  0  0  0  0
    8.1143  -15.3166   25.0419 C   0  0  2  0  0  0  0  0  0  0  0  0
    7.2770  -16.0323   24.0545 N   0  0  0  0  0  0  0  0  0  0  0  0
    8.5918  -16.2354   26.0653 C   0  0  0  0  0  0  0  0  0  0  0  0
    9.6289  -15.9125   26.8996 O   0  0  0  0  0  0  0  0  0  0  0  0
    8.0613  -17.3812   26.2220 O   0  0  0  0  0  0  0  0  0  0  0  0
  2  1  1  1
  3  2  1  0
  4  3  1  0
  5  2  1  0
  5  6  2  0
  7  5  1  0
  8  7  1  0
  9  8  1  0
 10  9  2  0
 11 12  1  0
 13 12  1  0
 13 14  1  0
 15 14  1  1
 15 16  1  0
 15 17  1  0
 16  9  1  0
 17 18  1  0
 19 17  2  0
M  END
$$$$
