CGM.pdb
     RDKit          3D

 19 18  0  0  1  0  0  0  0  0999 V2000
    5.4435  -18.2668   23.3950 N   0  0  0  0  0  0  0  0  0  0  0  0
    5.8059  -19.3332   22.4823 C   0  0  1  0  0  0  0  0  0  0  0  0
    4.5827  -19.7305   21.7091 C   0  0  0  0  0  0  0  0  0  0  0  0
    3.5470  -20.9053   22.6210 S   0  0  0  0  0  0  0  0  0  0  0  0
    6.9531  -18.9347   21.6153 C   0  0  0  0  0  0  0  0  0  0  0  0
    7.5909  -19.8354   21.0173 O   0  0  0  0  0  0  0  0  0  0  0  0
    7.3467  -17.5887   21.4407 N   0  0  0  0  0  0  0  0  0  0  0  0
    8.6906  -17.1893   21.2372 C   0  0  0  0  0  0  0  0  0  0  0  0
    9.4168  -16.6551   22.3861 C   0  0  0  0  0  0  0  0  0  0  0  0
   10.6026  -16.2420   22.1448 O   0  0  0  0  0  0  0  0  0  0  0  0
    9.5344  -13.2550   29.4976 C   0  0  0  0  0  0  0  0  0  0  0  0
    8.6481  -14.0954   28.1560 S   0  0  0  0  0  0  0  0  0  0  0  0
    9.8348  -14.8515   26.9893 C   0  0  0  0  0  0  0  0  0  0  0  0
    9.0524  -15.3447   25.8268 C   0  0  0  0  0  0  0  0  0  0  0  0
    9.8756  -16.0061   24.7537 C   0  0  2  0  0  0  0  0  0  0  0  0
    8.9654  -16.5416   23.7178 N   0  0  0  0  0  0  0  0  0  0  0  0
   10.6922  -17.0731   25.3145 C   0  0  0  0  0  0  0  0  0  0  0  0
   10.4093  -18.3942   25.0894 O   0  0  0  0  0  0  0  0  0  0  0  0
   11.7043  -16.8161   26.0413 O   0  0  0  0  0  0  0  0  0  0  0  0
  2  1  1  1
  3  2  1  0
  4  3  1  0
  5  2  1  0
  5  6  2  0
  7  5  1  0
  8  7  1  0
  9  8  1  0
 10  9  2  0
 11 12  1  0
 13 12  1  0
 13 14  1  0
 15 14  1  1
 15 16  1  0
 15 17  1  0
 16  9  1  0
 17 18  1  0
 19 17  2  0
M  END
$$$$
