CGM.pdb
     RDKit          3D

 19 18  0  0  1  0  0  0  0  0999 V2000
    9.3011  -13.0127   18.5625 N   0  0  0  0  0  0  0  0  0  0  0  0
    8.1434  -13.7226   19.0697 C   0  0  1  0  0  0  0  0  0  0  0  0
    7.3964  -14.3031   17.9048 C   0  0  0  0  0  0  0  0  0  0  0  0
    7.6725  -13.3664   16.3781 S   0  0  0  0  0  0  0  0  0  0  0  0
    8.5374  -14.7391   20.0885 C   0  0  0  0  0  0  0  0  0  0  0  0
    7.6362  -15.4332   20.6192 O   0  0  0  0  0  0  0  0  0  0  0  0
    9.8797  -14.9508   20.4764 N   0  0  0  0  0  0  0  0  0  0  0  0
   10.2654  -15.8747   21.4787 C   0  0  0  0  0  0  0  0  0  0  0  0
    9.8361  -15.6029   22.8479 C   0  0  0  0  0  0  0  0  0  0  0  0
   10.4414  -16.2673   23.7573 O   0  0  0  0  0  0  0  0  0  0  0  0
    5.1110  -11.5474   27.6615 C   0  0  0  0  0  0  0  0  0  0  0  0
    6.3506  -11.5024   26.3375 S   0  0  0  0  0  0  0  0  0  0  0  0
    7.3234  -13.0498   26.3278 C   0  0  0  0  0  0  0  0  0  0  0  0
    7.6799  -13.3343   24.9140 C   0  0  0  0  0  0  0  0  0  0  0  0
    8.6214  -14.4942   24.7273 C   0  0  2  0  0  0  0  0  0  0  0  0
    8.8417  -14.6999   23.2791 N   0  0  0  0  0  0  0  0  0  0  0  0
    8.0801  -15.7008   25.3362 C   0  0  0  0  0  0  0  0  0  0  0  0
    8.2628  -15.9851   26.6635 O   0  0  0  0  0  0  0  0  0  0  0  0
    7.4147  -16.5427   24.6527 O   0  0  0  0  0  0  0  0  0  0  0  0
  2  1  1  6
  3  2  1  0
  4  3  1  0
  5  2  1  0
  5  6  2  0
  7  5  1  0
  8  7  1  0
  9  8  1  0
 10  9  2  0
 11 12  1  0
 13 12  1  0
 13 14  1  0
 15 14  1  6
 15 16  1  0
 15 17  1  0
 16  9  1  0
 17 18  1  0
 19 17  2  0
M  END
$$$$
