CGM.pdb
     RDKit          3D

 19 18  0  0  1  0  0  0  0  0999 V2000
    5.7964  -21.0217   20.6596 N   0  0  0  0  0  0  0  0  0  0  0  0
    5.7543  -20.9047   22.1040 C   0  0  1  0  0  0  0  0  0  0  0  0
    6.3698  -22.1383   22.6968 C   0  0  0  0  0  0  0  0  0  0  0  0
    5.1313  -23.2331   23.4395 S   0  0  0  0  0  0  0  0  0  0  0  0
    6.4003  -19.6399   22.5618 C   0  0  0  0  0  0  0  0  0  0  0  0
    7.6514  -19.5543   22.5064 O   0  0  0  0  0  0  0  0  0  0  0  0
    5.6618  -18.5393   23.0519 N   0  0  0  0  0  0  0  0  0  0  0  0
    5.9497  -17.8907   24.2780 C   0  0  0  0  0  0  0  0  0  0  0  0
    7.1401  -17.0463   24.3312 C   0  0  0  0  0  0  0  0  0  0  0  0
    7.9078  -17.1116   23.3108 O   0  0  0  0  0  0  0  0  0  0  0  0
    5.2086  -11.6385   26.5562 C   0  0  0  0  0  0  0  0  0  0  0  0
    6.4916  -12.8387   27.0094 S   0  0  0  0  0  0  0  0  0  0  0  0
    7.5754  -13.1783   25.5773 C   0  0  0  0  0  0  0  0  0  0  0  0
    8.6309  -14.1160   26.0392 C   0  0  0  0  0  0  0  0  0  0  0  0
    8.7646  -15.3655   25.2101 C   0  0  2  0  0  0  0  0  0  0  0  0
    7.5362  -16.1745   25.3671 N   0  0  0  0  0  0  0  0  0  0  0  0
    9.9340  -16.1315   25.6169 C   0  0  0  0  0  0  0  0  0  0  0  0
    9.8220  -17.3592   26.2137 O   0  0  0  0  0  0  0  0  0  0  0  0
   11.1111  -15.6847   25.4341 O   0  0  0  0  0  0  0  0  0  0  0  0
  2  1  1  6
  3  2  1  0
  4  3  1  0
  5  2  1  0
  5  6  2  0
  7  5  1  0
  8  7  1  0
  9  8  1  0
 10  9  2  0
 11 12  1  0
 13 12  1  0
 13 14  1  0
 15 14  1  1
 15 16  1  0
 15 17  1  0
 16  9  1  0
 17 18  1  0
 19 17  2  0
M  END
$$$$
