CGM.pdb
     RDKit          3D

 19 18  0  0  1  0  0  0  0  0999 V2000
    6.2764  -14.1051   22.0322 N   0  0  0  0  0  0  0  0  0  0  0  0
    7.6553  -13.7249   22.2682 C   0  0  1  0  0  0  0  0  0  0  0  0
    7.6843  -12.7140   23.3769 C   0  0  0  0  0  0  0  0  0  0  0  0
    6.4001  -13.0212   24.6181 S   0  0  0  0  0  0  0  0  0  0  0  0
    8.5072  -14.9210   22.5327 C   0  0  0  0  0  0  0  0  0  0  0  0
    9.7458  -14.7572   22.6537 O   0  0  0  0  0  0  0  0  0  0  0  0
    7.9761  -16.2251   22.6532 N   0  0  0  0  0  0  0  0  0  0  0  0
    8.7575  -17.3571   22.9920 C   0  0  0  0  0  0  0  0  0  0  0  0
    9.5441  -17.2906   24.2207 C   0  0  0  0  0  0  0  0  0  0  0  0
   10.7170  -16.7965   24.0980 O   0  0  0  0  0  0  0  0  0  0  0  0
   11.0296  -13.4555   30.0823 C   0  0  0  0  0  0  0  0  0  0  0  0
   10.2081  -14.0909   28.5947 S   0  0  0  0  0  0  0  0  0  0  0  0
    9.9205  -15.8894   28.7493 C   0  0  0  0  0  0  0  0  0  0  0  0
    9.2219  -16.3291   27.5143 C   0  0  0  0  0  0  0  0  0  0  0  0
    9.9916  -17.3161   26.6776 C   0  0  2  0  0  0  0  0  0  0  0  0
    9.1628  -17.7027   25.5148 N   0  0  0  0  0  0  0  0  0  0  0  0
   10.3472  -18.4900   27.4619 C   0  0  0  0  0  0  0  0  0  0  0  0
   11.3519  -18.4605   28.3923 O   0  0  0  0  0  0  0  0  0  0  0  0
    9.7352  -19.5950   27.3093 O   0  0  0  0  0  0  0  0  0  0  0  0
  2  1  1  1
  3  2  1  0
  4  3  1  0
  5  2  1  0
  5  6  2  0
  7  5  1  0
  8  7  1  0
  9  8  1  0
 10  9  2  0
 11 12  1  0
 13 12  1  0
 13 14  1  0
 15 14  1  1
 15 16  1  0
 15 17  1  0
 16  9  1  0
 17 18  1  0
 19 17  2  0
M  END
$$$$
