CGM.pdb
     RDKit          3D

 19 18  0  0  1  0  0  0  0  0999 V2000
    6.9464  -20.0080   21.3120 N   0  0  0  0  0  0  0  0  0  0  0  0
    6.0417  -18.8778   21.3875 C   0  0  1  0  0  0  0  0  0  0  0  0
    5.1217  -19.0852   22.5548 C   0  0  0  0  0  0  0  0  0  0  0  0
    5.9917  -18.9766   24.1408 S   0  0  0  0  0  0  0  0  0  0  0  0
    6.7918  -17.5891   21.4442 C   0  0  0  0  0  0  0  0  0  0  0  0
    6.1391  -16.5171   21.4303 O   0  0  0  0  0  0  0  0  0  0  0  0
    8.2019  -17.5289   21.5141 N   0  0  0  0  0  0  0  0  0  0  0  0
    8.9260  -16.3167   21.6294 C   0  0  0  0  0  0  0  0  0  0  0  0
    9.1436  -15.7861   22.9725 C   0  0  0  0  0  0  0  0  0  0  0  0
   10.0205  -14.8601   23.0636 O   0  0  0  0  0  0  0  0  0  0  0  0
    6.5501  -10.8706   26.4417 C   0  0  0  0  0  0  0  0  0  0  0  0
    6.5225  -12.6720   26.6555 S   0  0  0  0  0  0  0  0  0  0  0  0
    7.9351  -13.4352   25.7820 C   0  0  0  0  0  0  0  0  0  0  0  0
    7.9472  -14.8760   26.1434 C   0  0  0  0  0  0  0  0  0  0  0  0
    9.0222  -15.6825   25.4648 C   0  0  2  0  0  0  0  0  0  0  0  0
    8.5034  -16.1720   24.1688 N   0  0  0  0  0  0  0  0  0  0  0  0
    9.4349  -16.7995   26.3024 C   0  0  0  0  0  0  0  0  0  0  0  0
   10.0778  -16.6087   27.4966 O   0  0  0  0  0  0  0  0  0  0  0  0
    9.2141  -18.0027   25.9525 O   0  0  0  0  0  0  0  0  0  0  0  0
  2  1  1  1
  3  2  1  0
  4  3  1  0
  5  2  1  0
  5  6  2  0
  7  5  1  0
  8  7  1  0
  9  8  1  0
 10  9  2  0
 11 12  1  0
 13 12  1  0
 13 14  1  0
 15 14  1  1
 15 16  1  0
 15 17  1  0
 16  9  1  0
 17 18  1  0
 19 17  2  0
M  END
$$$$
