CGM.pdb
     RDKit          3D

 19 18  0  0  1  0  0  0  0  0999 V2000
    5.2691  -19.0233   22.6429 N   0  0  0  0  0  0  0  0  0  0  0  0
    6.1338  -19.2944   21.5113 C   0  0  1  0  0  0  0  0  0  0  0  0
    5.2776  -19.7061   20.3496 C   0  0  0  0  0  0  0  0  0  0  0  0
    6.2364  -20.5252   19.0480 S   0  0  0  0  0  0  0  0  0  0  0  0
    7.0160  -18.1281   21.2148 C   0  0  0  0  0  0  0  0  0  0  0  0
    8.1761  -18.3496   20.7897 O   0  0  0  0  0  0  0  0  0  0  0  0
    6.5978  -16.7899   21.3917 N   0  0  0  0  0  0  0  0  0  0  0  0
    7.4477  -15.6742   21.1917 C   0  0  0  0  0  0  0  0  0  0  0  0
    8.1679  -15.1582   22.3526 C   0  0  0  0  0  0  0  0  0  0  0  0
    9.2244  -14.4869   22.0919 O   0  0  0  0  0  0  0  0  0  0  0  0
    6.5358  -10.7399   27.1276 C   0  0  0  0  0  0  0  0  0  0  0  0
    5.8567  -12.3250   26.5638 S   0  0  0  0  0  0  0  0  0  0  0  0
    6.8547  -12.9863   25.1827 C   0  0  0  0  0  0  0  0  0  0  0  0
    7.7780  -13.9995   25.7552 C   0  0  0  0  0  0  0  0  0  0  0  0
    8.6756  -14.6681   24.7483 C   0  0  2  0  0  0  0  0  0  0  0  0
    7.8353  -15.3118   23.7149 N   0  0  0  0  0  0  0  0  0  0  0  0
    9.5314  -15.6529   25.3943 C   0  0  0  0  0  0  0  0  0  0  0  0
    9.4279  -16.9910   25.1207 O   0  0  0  0  0  0  0  0  0  0  0  0
   10.4117  -15.3049   26.2446 O   0  0  0  0  0  0  0  0  0  0  0  0
  2  1  1  1
  3  2  1  0
  4  3  1  0
  5  2  1  0
  5  6  2  0
  7  5  1  0
  8  7  1  0
  9  8  1  0
 10  9  2  0
 11 12  1  0
 13 12  1  0
 13 14  1  0
 15 14  1  1
 15 16  1  0
 15 17  1  0
 16  9  1  0
 17 18  1  0
 19 17  2  0
M  END
$$$$
