CGM.pdb
     RDKit          3D

 19 18  0  0  1  0  0  0  0  0999 V2000
    8.7503  -15.4296   17.7914 N   0  0  0  0  0  0  0  0  0  0  0  0
    8.6608  -14.3162   18.7156 C   0  0  1  0  0  0  0  0  0  0  0  0
    7.6482  -13.3429   18.1871 C   0  0  0  0  0  0  0  0  0  0  0  0
    8.0205  -12.8187   16.4927 S   0  0  0  0  0  0  0  0  0  0  0  0
    8.3656  -14.7870   20.1004 C   0  0  0  0  0  0  0  0  0  0  0  0
    8.3475  -13.9410   21.0276 O   0  0  0  0  0  0  0  0  0  0  0  0
    8.1054  -16.1417   20.4071 N   0  0  0  0  0  0  0  0  0  0  0  0
    7.6607  -16.5820   21.6781 C   0  0  0  0  0  0  0  0  0  0  0  0
    8.3427  -16.0477   22.8537 C   0  0  0  0  0  0  0  0  0  0  0  0
    9.5816  -16.3472   22.9555 O   0  0  0  0  0  0  0  0  0  0  0  0
    6.6269  -11.2009   27.6741 C   0  0  0  0  0  0  0  0  0  0  0  0
    5.7995  -12.3709   26.5613 S   0  0  0  0  0  0  0  0  0  0  0  0
    6.8004  -13.8897   26.3812 C   0  0  0  0  0  0  0  0  0  0  0  0
    8.0012  -13.5310   25.5836 C   0  0  0  0  0  0  0  0  0  0  0  0
    8.6880  -14.6987   24.9269 C   0  0  2  0  0  0  0  0  0  0  0  0
    7.7987  -15.2460   23.8791 N   0  0  0  0  0  0  0  0  0  0  0  0
    9.0107  -15.7252   25.9076 C   0  0  0  0  0  0  0  0  0  0  0  0
    8.3808  -16.9414   25.9150 O   0  0  0  0  0  0  0  0  0  0  0  0
    9.8941  -15.5282   26.8018 O   0  0  0  0  0  0  0  0  0  0  0  0
  2  1  1  6
  3  2  1  0
  4  3  1  0
  5  2  1  0
  5  6  2  0
  7  5  1  0
  8  7  1  0
  9  8  1  0
 10  9  2  0
 11 12  1  0
 13 12  1  0
 13 14  1  0
 15 14  1  1
 15 16  1  0
 15 17  1  0
 16  9  1  0
 17 18  1  0
 19 17  2  0
M  END
$$$$
