CGM.pdb
     RDKit          3D

 19 18  0  0  1  0  0  0  0  0999 V2000
    5.1595  -18.1506   22.6998 N   0  0  0  0  0  0  0  0  0  0  0  0
    5.4581  -19.0230   21.5812 C   0  0  1  0  0  0  0  0  0  0  0  0
    4.1726  -19.3488   20.8788 C   0  0  0  0  0  0  0  0  0  0  0  0
    2.9869  -20.1787   21.9695 S   0  0  0  0  0  0  0  0  0  0  0  0
    6.4875  -18.4190   20.6857 C   0  0  0  0  0  0  0  0  0  0  0  0
    7.0396  -19.1529   19.8300 O   0  0  0  0  0  0  0  0  0  0  0  0
    6.8625  -17.0586   20.7621 N   0  0  0  0  0  0  0  0  0  0  0  0
    8.2089  -16.6234   20.8310 C   0  0  0  0  0  0  0  0  0  0  0  0
    8.6707  -16.0570   22.0955 C   0  0  0  0  0  0  0  0  0  0  0  0
    9.8905  -15.6739   22.1147 O   0  0  0  0  0  0  0  0  0  0  0  0
    6.8084  -11.0104   27.7079 C   0  0  0  0  0  0  0  0  0  0  0  0
    6.3762  -12.1901   26.3991 S   0  0  0  0  0  0  0  0  0  0  0  0
    7.8250  -13.2182   25.9692 C   0  0  0  0  0  0  0  0  0  0  0  0
    7.4309  -14.0718   24.8192 C   0  0  0  0  0  0  0  0  0  0  0  0
    8.4879  -15.0462   24.3718 C   0  0  2  0  0  0  0  0  0  0  0  0
    7.9338  -15.8840   23.2858 N   0  0  0  0  0  0  0  0  0  0  0  0
    8.9257  -15.8781   25.4835 C   0  0  0  0  0  0  0  0  0  0  0  0
    9.7336  -15.3911   26.4765 O   0  0  0  0  0  0  0  0  0  0  0  0
    8.5736  -17.0975   25.5731 O   0  0  0  0  0  0  0  0  0  0  0  0
  2  1  1  1
  3  2  1  0
  4  3  1  0
  5  2  1  0
  5  6  2  0
  7  5  1  0
  8  7  1  0
  9  8  1  0
 10  9  2  0
 11 12  1  0
 13 12  1  0
 13 14  1  0
 15 14  1  1
 15 16  1  0
 15 17  1  0
 16  9  1  0
 17 18  1  0
 19 17  2  0
M  END
$$$$
