CGM.pdb
     RDKit          3D

 19 18  0  0  1  0  0  0  0  0999 V2000
    8.6091  -19.5018   19.8441 N   0  0  0  0  0  0  0  0  0  0  0  0
    7.4161  -18.6834   19.9359 C   0  0  1  0  0  0  0  0  0  0  0  0
    6.4590  -19.3466   20.8826 C   0  0  0  0  0  0  0  0  0  0  0  0
    7.0379  -19.2832   22.5987 S   0  0  0  0  0  0  0  0  0  0  0  0
    7.7522  -17.2805   20.3172 C   0  0  0  0  0  0  0  0  0  0  0  0
    6.8645  -16.4007   20.2002 O   0  0  0  0  0  0  0  0  0  0  0  0
    9.0248  -16.9056   20.8041 N   0  0  0  0  0  0  0  0  0  0  0  0
    9.3252  -15.6063   21.2823 C   0  0  0  0  0  0  0  0  0  0  0  0
    9.4149  -15.4239   22.7285 C   0  0  0  0  0  0  0  0  0  0  0  0
   10.5991  -15.3098   23.1970 O   0  0  0  0  0  0  0  0  0  0  0  0
    5.7567  -11.3292   26.4956 C   0  0  0  0  0  0  0  0  0  0  0  0
    7.4020  -11.8999   27.0048 S   0  0  0  0  0  0  0  0  0  0  0  0
    7.4824  -13.7253   26.9561 C   0  0  0  0  0  0  0  0  0  0  0  0
    7.4165  -14.1288   25.5279 C   0  0  0  0  0  0  0  0  0  0  0  0
    8.6227  -14.8824   25.0342 C   0  0  2  0  0  0  0  0  0  0  0  0
    8.3567  -15.3581   23.6590 N   0  0  0  0  0  0  0  0  0  0  0  0
    8.9242  -16.0045   25.9115 C   0  0  0  0  0  0  0  0  0  0  0  0
    9.4069  -15.8209   27.1801 O   0  0  0  0  0  0  0  0  0  0  0  0
    8.7515  -17.2055   25.5287 O   0  0  0  0  0  0  0  0  0  0  0  0
  2  1  1  1
  3  2  1  0
  4  3  1  0
  5  2  1  0
  5  6  2  0
  7  5  1  0
  8  7  1  0
  9  8  1  0
 10  9  2  0
 11 12  1  0
 13 12  1  0
 13 14  1  0
 15 14  1  1
 15 16  1  0
 15 17  1  0
 16  9  1  0
 17 18  1  0
 19 17  2  0
M  END
$$$$
