CGM.pdb
     RDKit          3D

 19 18  0  0  1  0  0  0  0  0999 V2000
    8.7636  -15.4246   16.4041 N   0  0  0  0  0  0  0  0  0  0  0  0
    8.8980  -14.7710   17.6911 C   0  0  1  0  0  0  0  0  0  0  0  0
    8.4098  -13.3582   17.5576 C   0  0  0  0  0  0  0  0  0  0  0  0
    8.3274  -12.5076   19.1557 S   0  0  0  0  0  0  0  0  0  0  0  0
    8.2016  -15.5411   18.7627 C   0  0  0  0  0  0  0  0  0  0  0  0
    7.0160  -15.9024   18.5642 O   0  0  0  0  0  0  0  0  0  0  0  0
    8.8225  -15.8794   19.9863 N   0  0  0  0  0  0  0  0  0  0  0  0
    8.1032  -16.2379   21.1529 C   0  0  0  0  0  0  0  0  0  0  0  0
    8.4680  -15.5732   22.4011 C   0  0  0  0  0  0  0  0  0  0  0  0
    9.5049  -14.8272   22.3454 O   0  0  0  0  0  0  0  0  0  0  0  0
    6.1798  -10.7339   27.7734 C   0  0  0  0  0  0  0  0  0  0  0  0
    5.8717  -11.9978   26.5087 S   0  0  0  0  0  0  0  0  0  0  0  0
    7.2394  -13.2100   26.4784 C   0  0  0  0  0  0  0  0  0  0  0  0
    6.9816  -14.1330   25.3433 C   0  0  0  0  0  0  0  0  0  0  0  0
    8.2178  -14.7508   24.7459 C   0  0  2  0  0  0  0  0  0  0  0  0
    7.8143  -15.6568   23.6484 N   0  0  0  0  0  0  0  0  0  0  0  0
    8.9699  -15.4798   25.7571 C   0  0  0  0  0  0  0  0  0  0  0  0
    9.7764  -14.8391   26.6599 O   0  0  0  0  0  0  0  0  0  0  0  0
    8.9073  -16.7480   25.8387 O   0  0  0  0  0  0  0  0  0  0  0  0
  2  1  1  6
  3  2  1  0
  4  3  1  0
  5  2  1  0
  5  6  2  0
  7  5  1  0
  8  7  1  0
  9  8  1  0
 10  9  2  0
 11 12  1  0
 13 12  1  0
 13 14  1  0
 15 14  1  1
 15 16  1  0
 15 17  1  0
 16  9  1  0
 17 18  1  0
 19 17  2  0
M  END
$$$$
