RDK.pdb
     RDKit          3D

 29 28  0  0  1  0  0  0  0  0999 V2000
   27.9107  -21.2640  -10.6487 N   0  0  0  0  0  0  0  0  0  0  0  0
   29.2800  -21.3719  -11.0539 C   0  0  0  0  0  0  0  0  0  0  0  0
   30.0127  -22.3174  -10.5977 N   0  0  0  0  0  0  0  0  0  0  0  0
   29.8611  -20.4408  -11.9657 N   0  0  0  0  0  0  0  0  0  0  0  0
   29.1369  -19.9166  -13.1018 C   0  0  0  0  0  0  0  0  0  0  0  0
   28.1162  -18.9474  -12.5523 C   0  0  0  0  0  0  0  0  0  0  0  0
   27.3817  -18.1856  -13.6108 C   0  0  0  0  0  0  0  0  0  0  0  0
   26.2838  -19.1062  -14.1323 C   0  0  2  0  0  0  0  0  0  0  0  0
   26.8285  -20.3960  -14.5014 N   0  0  0  0  0  0  0  0  0  0  0  0
   25.6164  -18.5374  -15.3265 C   0  0  0  0  0  0  0  0  0  0  0  0
   25.1208  -17.3799  -15.3097 O   0  0  0  0  0  0  0  0  0  0  0  0
   30.9990  -22.4363  -10.8346 N   0  0  0  0  0  0  0  0  0  0  0  0
   25.5137  -19.2760  -16.5266 C   0  0  2  0  0  0  0  0  0  0  0  0
   24.9370  -18.6865  -17.7741 C   0  0  0  0  0  0  0  0  0  0  0  0
   25.8928  -19.0551  -18.8933 C   0  0  0  0  0  0  0  0  0  0  0  0
   27.0543  -18.2270  -19.0226 O   0  0  0  0  0  0  0  0  0  0  0  0
   27.1280  -17.0175  -19.2513 C   0  0  0  0  0  0  0  0  0  0  0  0
   23.7101  -19.5163  -17.9735 O   0  0  0  0  0  0  0  0  0  0  0  0
   23.8670  -20.7817  -17.8849 O   0  0  0  0  0  0  0  0  0  0  0  0
   28.3177  -18.8683  -18.8693 N   0  0  0  0  0  0  0  0  0  0  0  0
   22.4174  -19.0732  -18.2395 C   0  0  1  0  0  0  0  0  0  0  0  0
   21.3419  -20.0484  -18.3201 C   0  0  0  0  0  0  0  0  0  0  0  0
   20.1729  -19.6920  -17.4036 C   0  0  0  0  0  0  0  0  0  0  0  0
   19.0944  -20.6889  -17.6022 C   0  0  0  0  0  0  0  0  0  0  0  0
   17.8455  -20.4374  -16.8221 C   0  0  0  0  0  0  0  0  0  0  0  0
   16.7764  -21.4780  -16.9746 N   0  0  0  0  0  0  0  0  0  0  0  0
   15.5890  -21.1161  -16.2686 C   0  0  0  0  0  0  0  0  0  0  0  0
   20.8186  -20.0936  -19.7091 O   0  0  0  0  0  0  0  0  0  0  0  0
   20.9656  -19.1110  -20.4536 O   0  0  0  0  0  0  0  0  0  0  0  0
  2  1  1  0
  3  2  2  0
  4  2  1  0
  5  4  1  0
  6  5  1  0
  7  6  1  0
  8 10  1  0
  8  7  1  0
  8  9  1  6
 10 11  2  0
 12 10  1  0
 13 12  1  0
 13 14  1  1
 15 14  1  0
 15 19  1  0
 16 15  2  0
 17 13  1  0
 18 17  2  0
 20 17  1  0
 21 27  1  0
 21 20  1  0
 21 22  1  6
 23 22  1  0
 24 23  1  0
 24 25  1  0
 25 26  1  0
 27 29  1  0
 28 27  2  0
M  END
$$$$
