RDK.pdb
     RDKit          3D

 29 28  0  0  1  0  0  0  0  0999 V2000
   14.6699  -18.8738    2.2235 N   0  0  0  0  0  0  0  0  0  0  0  0
   14.5793  -17.6729    2.9984 C   0  0  0  0  0  0  0  0  0  0  0  0
   13.4631  -17.0534    3.0957 N   0  0  0  0  0  0  0  0  0  0  0  0
   15.7154  -17.1378    3.6758 N   0  0  0  0  0  0  0  0  0  0  0  0
   17.0017  -17.7976    3.6683 C   0  0  0  0  0  0  0  0  0  0  0  0
   16.9871  -18.7832    4.8136 C   0  0  0  0  0  0  0  0  0  0  0  0
   18.2952  -19.4799    5.0221 C   0  0  0  0  0  0  0  0  0  0  0  0
   18.1154  -20.4010    6.2238 C   0  0  2  0  0  0  0  0  0  0  0  0
   16.8196  -21.0460    6.1861 N   0  0  0  0  0  0  0  0  0  0  0  0
   18.2144  -19.6570    7.5012 C   0  0  0  0  0  0  0  0  0  0  0  0
   17.1859  -19.2434    8.0986 O   0  0  0  0  0  0  0  0  0  0  0  0
   13.3264  -16.2154    3.6632 N   0  0  0  0  0  0  0  0  0  0  0  0
   19.4684  -19.3862    8.0930 C   0  0  1  0  0  0  0  0  0  0  0  0
   19.5888  -18.7387    9.4356 C   0  0  0  0  0  0  0  0  0  0  0  0
   20.0882  -19.8173   10.3786 C   0  0  0  0  0  0  0  0  0  0  0  0
   20.0534  -19.4943   11.7737 O   0  0  0  0  0  0  0  0  0  0  0  0
   19.7705  -18.4254   12.3196 C   0  0  0  0  0  0  0  0  0  0  0  0
   20.7299  -17.7964    9.2267 O   0  0  0  0  0  0  0  0  0  0  0  0
   21.6532  -18.1978    8.4392 O   0  0  0  0  0  0  0  0  0  0  0  0
   20.3896  -20.5403   12.6813 N   0  0  0  0  0  0  0  0  0  0  0  0
   20.9026  -16.5327    9.7847 C   0  0  2  0  0  0  0  0  0  0  0  0
   22.1269  -15.8005    9.5031 C   0  0  0  0  0  0  0  0  0  0  0  0
   21.8795  -14.2997    9.3621 C   0  0  0  0  0  0  0  0  0  0  0  0
   21.1924  -14.0522    8.0725 C   0  0  0  0  0  0  0  0  0  0  0  0
   20.9257  -12.6158    7.7604 C   0  0  0  0  0  0  0  0  0  0  0  0
   20.1596  -12.3685    6.4950 N   0  0  0  0  0  0  0  0  0  0  0  0
   20.0699  -10.9738    6.2015 C   0  0  0  0  0  0  0  0  0  0  0  0
   23.0843  -15.9888   10.6226 O   0  0  0  0  0  0  0  0  0  0  0  0
   22.7033  -16.5315   11.6724 O   0  0  0  0  0  0  0  0  0  0  0  0
  2  1  1  0
  3  2  2  0
  4  2  1  0
  5  4  1  0
  6  5  1  0
  7  6  1  0
  8 10  1  0
  8  7  1  0
  8  9  1  6
 10 11  2  0
 12 10  1  0
 13 12  1  0
 13 14  1  6
 15 14  1  0
 15 19  1  0
 16 15  2  0
 17 13  1  0
 18 17  2  0
 20 17  1  0
 21 27  1  0
 21 20  1  0
 21 22  1  6
 23 22  1  0
 24 23  1  0
 24 25  1  0
 25 26  1  0
 27 29  1  0
 28 27  2  0
M  END
$$$$
