RDK.pdb
     RDKit          3D

 29 28  0  0  1  0  0  0  0  0999 V2000
   27.5506  -18.3232   -7.2107 N   0  0  0  0  0  0  0  0  0  0  0  0
   27.7207  -19.6251   -6.6389 C   0  0  0  0  0  0  0  0  0  0  0  0
   27.1714  -19.9118   -5.5186 N   0  0  0  0  0  0  0  0  0  0  0  0
   28.4975  -20.6282   -7.2918 N   0  0  0  0  0  0  0  0  0  0  0  0
   29.0952  -20.4191   -8.5915 C   0  0  0  0  0  0  0  0  0  0  0  0
   28.2158  -21.1347   -9.5904 C   0  0  0  0  0  0  0  0  0  0  0  0
   27.7635  -20.2659  -10.7220 C   0  0  0  0  0  0  0  0  0  0  0  0
   26.2395  -20.3129  -10.7296 C   0  0  2  0  0  0  0  0  0  0  0  0
   25.7546  -21.3636   -9.8592 N   0  0  0  0  0  0  0  0  0  0  0  0
   25.7083  -20.5689  -12.0888 C   0  0  0  0  0  0  0  0  0  0  0  0
   26.1795  -19.9796  -13.0969 O   0  0  0  0  0  0  0  0  0  0  0  0
   27.2798  -20.8110   -5.0467 N   0  0  0  0  0  0  0  0  0  0  0  0
   24.6532  -21.4846  -12.2997 C   0  0  1  0  0  0  0  0  0  0  0  0
   24.1703  -21.8365  -13.6706 C   0  0  0  0  0  0  0  0  0  0  0  0
   24.0201  -23.3462  -13.6881 C   0  0  0  0  0  0  0  0  0  0  0  0
   23.4766  -23.9073  -14.8888 O   0  0  0  0  0  0  0  0  0  0  0  0
   22.4761  -23.5678  -15.5246 C   0  0  0  0  0  0  0  0  0  0  0  0
   22.7862  -21.2725  -13.6685 O   0  0  0  0  0  0  0  0  0  0  0  0
   22.0942  -21.4855  -12.6151 O   0  0  0  0  0  0  0  0  0  0  0  0
   24.1733  -25.0172  -15.4488 N   0  0  0  0  0  0  0  0  0  0  0  0
   22.1647  -20.5396  -14.6758 C   0  0  2  0  0  0  0  0  0  0  0  0
   20.7956  -20.0919  -14.4778 C   0  0  0  0  0  0  0  0  0  0  0  0
   20.4414  -18.9101  -15.3788 C   0  0  0  0  0  0  0  0  0  0  0  0
   20.4465  -19.3704  -16.7874 C   0  0  0  0  0  0  0  0  0  0  0  0
   21.0142  -18.3995  -17.7708 C   0  0  0  0  0  0  0  0  0  0  0  0
   20.9623  -18.8378  -19.2041 N   0  0  0  0  0  0  0  0  0  0  0  0
   21.5592  -17.8708  -20.0691 C   0  0  0  0  0  0  0  0  0  0  0  0
   19.8610  -21.1975  -14.8088 O   0  0  0  0  0  0  0  0  0  0  0  0
   19.4274  -21.3098  -15.9668 O   0  0  0  0  0  0  0  0  0  0  0  0
  2  1  1  0
  3  2  2  0
  4  2  1  0
  5  4  1  0
  6  5  1  0
  7  6  1  0
  8 10  1  0
  8  7  1  0
  8  9  1  1
 10 11  2  0
 12 10  1  0
 13 12  1  0
 13 14  1  6
 15 14  1  0
 15 19  1  0
 16 15  2  0
 17 13  1  0
 18 17  2  0
 20 17  1  0
 21 27  1  0
 21 20  1  0
 21 22  1  1
 23 22  1  0
 24 23  1  0
 24 25  1  0
 25 26  1  0
 27 29  1  0
 28 27  2  0
M  END
$$$$
