RDK.pdb
     RDKit          3D

 29 28  0  0  1  0  0  0  0  0999 V2000
   13.7956  -15.1970  -10.5034 N   0  0  0  0  0  0  0  0  0  0  0  0
   12.7577  -14.2317  -10.2987 C   0  0  0  0  0  0  0  0  0  0  0  0
   11.7801  -14.4955   -9.5153 N   0  0  0  0  0  0  0  0  0  0  0  0
   12.7815  -12.9642  -10.9536 N   0  0  0  0  0  0  0  0  0  0  0  0
   13.6358  -11.8834  -10.5152 C   0  0  0  0  0  0  0  0  0  0  0  0
   15.0559  -12.3140  -10.7997 C   0  0  0  0  0  0  0  0  0  0  0  0
   16.0871  -11.3655  -10.2734 C   0  0  0  0  0  0  0  0  0  0  0  0
   15.8264  -10.0193  -10.9402 C   0  0  2  0  0  0  0  0  0  0  0  0
   16.1509  -10.0741  -12.3503 N   0  0  0  0  0  0  0  0  0  0  0  0
   16.6393   -8.9415  -10.3296 C   0  0  0  0  0  0  0  0  0  0  0  0
   16.7613   -8.8422   -9.0802 O   0  0  0  0  0  0  0  0  0  0  0  0
   11.0070  -13.8527   -9.3357 N   0  0  0  0  0  0  0  0  0  0  0  0
   17.3060   -7.9872  -11.1302 C   0  0  1  0  0  0  0  0  0  0  0  0
   18.1244   -6.8857  -10.5359 C   0  0  0  0  0  0  0  0  0  0  0  0
   19.1632   -6.5238  -11.5808 C   0  0  0  0  0  0  0  0  0  0  0  0
   20.3729   -7.2905  -11.5526 O   0  0  0  0  0  0  0  0  0  0  0  0
   20.7429   -8.1331  -10.7319 C   0  0  0  0  0  0  0  0  0  0  0  0
   17.1474   -5.7553  -10.4997 O   0  0  0  0  0  0  0  0  0  0  0  0
   16.4731   -5.5610  -11.5681 O   0  0  0  0  0  0  0  0  0  0  0  0
   21.2974   -7.0663  -12.6137 N   0  0  0  0  0  0  0  0  0  0  0  0
   16.8827   -4.8933   -9.4391 C   0  0  1  0  0  0  0  0  0  0  0  0
   15.8746   -3.8590   -9.6077 C   0  0  0  0  0  0  0  0  0  0  0  0
   15.1992   -3.4940   -8.2869 C   0  0  0  0  0  0  0  0  0  0  0  0
   14.2783   -4.5912   -7.9070 C   0  0  0  0  0  0  0  0  0  0  0  0
   13.5519   -4.3925   -6.6168 C   0  0  0  0  0  0  0  0  0  0  0  0
   12.0896   -4.0862   -6.7475 N   0  0  0  0  0  0  0  0  0  0  0  0
   11.4741   -3.9164   -5.4701 C   0  0  0  0  0  0  0  0  0  0  0  0
   16.5140   -2.6265  -10.1342 O   0  0  0  0  0  0  0  0  0  0  0  0
   17.7523   -2.5435  -10.1695 O   0  0  0  0  0  0  0  0  0  0  0  0
  2  1  1  0
  3  2  2  0
  4  2  1  0
  5  4  1  0
  6  5  1  0
  7  6  1  0
  8 10  1  0
  8  7  1  0
  8  9  1  6
 10 11  2  0
 12 10  1  0
 13 12  1  0
 13 14  1  1
 15 14  1  0
 15 19  1  0
 16 15  2  0
 17 13  1  0
 18 17  2  0
 20 17  1  0
 21 27  1  0
 21 20  1  0
 21 22  1  6
 23 22  1  0
 24 23  1  0
 24 25  1  0
 25 26  1  0
 27 29  1  0
 28 27  2  0
M  END
$$$$
