RDK.pdb
     RDKit          3D

 29 28  0  0  1  0  0  0  0  0999 V2000
   25.0143  -21.2550  -14.2427 N   0  0  0  0  0  0  0  0  0  0  0  0
   24.6048  -22.6030  -14.4996 C   0  0  0  0  0  0  0  0  0  0  0  0
   24.3447  -23.3925  -13.5259 N   0  0  0  0  0  0  0  0  0  0  0  0
   24.4767  -23.1002  -15.8310 N   0  0  0  0  0  0  0  0  0  0  0  0
   24.7236  -22.2744  -16.9917 C   0  0  0  0  0  0  0  0  0  0  0  0
   23.3806  -21.7444  -17.4370 C   0  0  0  0  0  0  0  0  0  0  0  0
   23.4350  -20.9732  -18.7186 C   0  0  0  0  0  0  0  0  0  0  0  0
   23.6376  -19.5096  -18.3419 C   0  0  2  0  0  0  0  0  0  0  0  0
   24.9532  -19.3039  -17.7733 N   0  0  0  0  0  0  0  0  0  0  0  0
   22.6377  -19.0593  -17.3456 C   0  0  0  0  0  0  0  0  0  0  0  0
   22.8431  -19.1855  -16.1096 O   0  0  0  0  0  0  0  0  0  0  0  0
   24.1838  -24.3950  -13.6351 N   0  0  0  0  0  0  0  0  0  0  0  0
   21.4180  -18.4718  -17.7497 C   0  0  2  0  0  0  0  0  0  0  0  0
   20.4366  -17.9230  -16.7637 C   0  0  0  0  0  0  0  0  0  0  0  0
   19.6871  -16.8199  -17.4870 C   0  0  0  0  0  0  0  0  0  0  0  0
   18.7047  -16.1199  -16.7144 O   0  0  0  0  0  0  0  0  0  0  0  0
   17.9484  -15.2082  -17.0568 C   0  0  0  0  0  0  0  0  0  0  0  0
   19.4774  -19.0591  -16.6124 O   0  0  0  0  0  0  0  0  0  0  0  0
   19.3118  -19.7958  -17.6437 O   0  0  0  0  0  0  0  0  0  0  0  0
   18.5613  -16.5149  -15.3527 N   0  0  0  0  0  0  0  0  0  0  0  0
   18.7475  -19.4112  -15.4804 C   0  0  2  0  0  0  0  0  0  0  0  0
   17.8026  -20.5129  -15.5671 C   0  0  0  0  0  0  0  0  0  0  0  0
   17.7017  -21.2882  -14.2546 C   0  0  0  0  0  0  0  0  0  0  0  0
   16.8124  -22.4555  -14.4613 C   0  0  0  0  0  0  0  0  0  0  0  0
   16.5153  -23.2529  -13.2335 C   0  0  0  0  0  0  0  0  0  0  0  0
   15.6954  -24.4886  -13.4569 N   0  0  0  0  0  0  0  0  0  0  0  0
   15.2687  -25.0643  -12.2216 C   0  0  0  0  0  0  0  0  0  0  0  0
   16.4501  -19.9815  -15.8731 O   0  0  0  0  0  0  0  0  0  0  0  0
   16.0258  -18.9899  -15.2581 O   0  0  0  0  0  0  0  0  0  0  0  0
  2  1  1  0
  3  2  2  0
  4  2  1  0
  5  4  1  0
  6  5  1  0
  7  6  1  0
  8 10  1  0
  8  7  1  0
  8  9  1  1
 10 11  2  0
 12 10  1  0
 13 12  1  0
 13 14  1  6
 15 14  1  0
 15 19  1  0
 16 15  2  0
 17 13  1  0
 18 17  2  0
 20 17  1  0
 21 27  1  0
 21 20  1  0
 21 22  1  1
 23 22  1  0
 24 23  1  0
 24 25  1  0
 25 26  1  0
 27 29  1  0
 28 27  2  0
M  END
$$$$
