RDK.pdb
     RDKit          3D

 29 28  0  0  1  0  0  0  0  0999 V2000
   28.9468  -23.2296  -16.7280 N   0  0  0  0  0  0  0  0  0  0  0  0
   28.0462  -22.6553  -17.6820 C   0  0  0  0  0  0  0  0  0  0  0  0
   28.0290  -23.0835  -18.8883 N   0  0  0  0  0  0  0  0  0  0  0  0
   27.1534  -21.6023  -17.3213 N   0  0  0  0  0  0  0  0  0  0  0  0
   27.0332  -21.1218  -15.9631 C   0  0  0  0  0  0  0  0  0  0  0  0
   26.1428  -22.1026  -15.2362 C   0  0  0  0  0  0  0  0  0  0  0  0
   24.7691  -21.5759  -14.9613 C   0  0  0  0  0  0  0  0  0  0  0  0
   24.0021  -22.6933  -14.2627 C   0  0  2  0  0  0  0  0  0  0  0  0
   23.7156  -23.7725  -15.1845 N   0  0  0  0  0  0  0  0  0  0  0  0
   22.7129  -22.2106  -13.7151 C   0  0  0  0  0  0  0  0  0  0  0  0
   22.6719  -21.3107  -12.8352 O   0  0  0  0  0  0  0  0  0  0  0  0
   27.3982  -22.7275  -19.6083 N   0  0  0  0  0  0  0  0  0  0  0  0
   21.4838  -22.7447  -14.1627 C   0  0  2  0  0  0  0  0  0  0  0  0
   20.1694  -22.2464  -13.6525 C   0  0  0  0  0  0  0  0  0  0  0  0
   19.1928  -22.3818  -14.8057 C   0  0  0  0  0  0  0  0  0  0  0  0
   18.9184  -21.1816  -15.5379 O   0  0  0  0  0  0  0  0  0  0  0  0
   18.7509  -20.0339  -15.1190 C   0  0  0  0  0  0  0  0  0  0  0  0
   19.8006  -23.2996  -12.6584 O   0  0  0  0  0  0  0  0  0  0  0  0
   20.2376  -24.4766  -12.8984 O   0  0  0  0  0  0  0  0  0  0  0  0
   18.8203  -21.3044  -16.9542 N   0  0  0  0  0  0  0  0  0  0  0  0
   19.0419  -23.1486  -11.5010 C   0  0  2  0  0  0  0  0  0  0  0  0
   18.7790  -24.3158  -10.6747 C   0  0  0  0  0  0  0  0  0  0  0  0
   18.4898  -23.9389   -9.2227 C   0  0  0  0  0  0  0  0  0  0  0  0
   18.0878  -25.1611   -8.4873 C   0  0  0  0  0  0  0  0  0  0  0  0
   17.8455  -24.9717   -7.0254 C   0  0  0  0  0  0  0  0  0  0  0  0
   17.2828  -26.1645   -6.3113 N   0  0  0  0  0  0  0  0  0  0  0  0
   17.1291  -25.9135   -4.9138 C   0  0  0  0  0  0  0  0  0  0  0  0
   17.5849  -25.0302  -11.1935 O   0  0  0  0  0  0  0  0  0  0  0  0
   16.6489  -24.3828  -11.6897 O   0  0  0  0  0  0  0  0  0  0  0  0
  2  1  1  0
  3  2  2  0
  4  2  1  0
  5  4  1  0
  6  5  1  0
  7  6  1  0
  8 10  1  0
  8  7  1  0
  8  9  1  6
 10 11  2  0
 12 10  1  0
 13 12  1  0
 13 14  1  1
 15 14  1  0
 15 19  1  0
 16 15  2  0
 17 13  1  0
 18 17  2  0
 20 17  1  0
 21 27  1  0
 21 20  1  0
 21 22  1  1
 23 22  1  0
 24 23  1  0
 24 25  1  0
 25 26  1  0
 27 29  1  0
 28 27  2  0
M  END
$$$$
