RDK.pdb
     RDKit          3D

 29 28  0  0  1  0  0  0  0  0999 V2000
   26.2937  -22.9568  -14.8612 N   0  0  0  0  0  0  0  0  0  0  0  0
   24.9573  -23.4329  -14.6654 C   0  0  0  0  0  0  0  0  0  0  0  0
   24.6590  -24.6452  -14.9486 N   0  0  0  0  0  0  0  0  0  0  0  0
   23.9319  -22.5814  -14.1561 N   0  0  0  0  0  0  0  0  0  0  0  0
   24.1875  -21.2144  -13.7609 C   0  0  0  0  0  0  0  0  0  0  0  0
   24.3227  -20.4152  -15.0360 C   0  0  0  0  0  0  0  0  0  0  0  0
   23.0375  -19.8047  -15.5004 C   0  0  0  0  0  0  0  0  0  0  0  0
   22.4024  -20.7997  -16.4656 C   0  0  2  0  0  0  0  0  0  0  0  0
   23.1793  -20.8999  -17.6834 N   0  0  0  0  0  0  0  0  0  0  0  0
   21.0262  -20.3963  -16.8378 C   0  0  0  0  0  0  0  0  0  0  0  0
   20.8125  -19.6040  -17.7930 O   0  0  0  0  0  0  0  0  0  0  0  0
   23.7172  -25.0320  -14.8677 N   0  0  0  0  0  0  0  0  0  0  0  0
   19.9053  -20.8882  -16.1322 C   0  0  1  0  0  0  0  0  0  0  0  0
   18.5042  -20.6018  -16.5697 C   0  0  0  0  0  0  0  0  0  0  0  0
   17.6573  -21.7436  -16.0395 C   0  0  0  0  0  0  0  0  0  0  0  0
   16.2538  -21.6616  -16.3137 O   0  0  0  0  0  0  0  0  0  0  0  0
   15.4945  -20.6954  -16.2111 C   0  0  0  0  0  0  0  0  0  0  0  0
   18.1598  -19.4014  -15.7487 O   0  0  0  0  0  0  0  0  0  0  0  0
   18.4944  -19.4489  -14.5160 O   0  0  0  0  0  0  0  0  0  0  0  0
   15.6207  -22.8533  -16.7721 N   0  0  0  0  0  0  0  0  0  0  0  0
   17.5224  -18.2375  -16.1694 C   0  0  2  0  0  0  0  0  0  0  0  0
   17.3941  -17.1291  -15.2371 C   0  0  0  0  0  0  0  0  0  0  0  0
   17.1633  -15.7995  -15.9531 C   0  0  0  0  0  0  0  0  0  0  0  0
   17.1481  -14.7145  -14.9437 C   0  0  0  0  0  0  0  0  0  0  0  0
   17.0423  -13.3318  -15.4992 C   0  0  0  0  0  0  0  0  0  0  0  0
   16.9486  -12.2382  -14.4772 N   0  0  0  0  0  0  0  0  0  0  0  0
   16.9510  -10.9480  -15.0895 C   0  0  0  0  0  0  0  0  0  0  0  0
   16.2273  -17.3627  -14.3487 O   0  0  0  0  0  0  0  0  0  0  0  0
   15.1674  -17.7971  -14.8277 O   0  0  0  0  0  0  0  0  0  0  0  0
  2  1  1  0
  3  2  2  0
  4  2  1  0
  5  4  1  0
  6  5  1  0
  7  6  1  0
  8 10  1  0
  8  7  1  0
  8  9  1  6
 10 11  2  0
 12 10  1  0
 13 12  1  0
 13 14  1  6
 15 14  1  0
 15 19  1  0
 16 15  2  0
 17 13  1  0
 18 17  2  0
 20 17  1  0
 21 27  1  0
 21 20  1  0
 21 22  1  6
 23 22  1  0
 24 23  1  0
 24 25  1  0
 25 26  1  0
 27 29  1  0
 28 27  2  0
M  END
$$$$
