RDK.pdb
     RDKit          3D

 29 28  0  0  1  0  0  0  0  0999 V2000
   26.3094  -22.5341  -16.8330 N   0  0  0  0  0  0  0  0  0  0  0  0
   26.0249  -23.5865  -15.9045 C   0  0  0  0  0  0  0  0  0  0  0  0
   26.0314  -24.8062  -16.2935 N   0  0  0  0  0  0  0  0  0  0  0  0
   25.7289  -23.3108  -14.5361 N   0  0  0  0  0  0  0  0  0  0  0  0
   25.3045  -22.0046  -14.0849 C   0  0  0  0  0  0  0  0  0  0  0  0
   23.8760  -21.8325  -14.5461 C   0  0  0  0  0  0  0  0  0  0  0  0
   23.6022  -20.4977  -15.1653 C   0  0  0  0  0  0  0  0  0  0  0  0
   22.7284  -19.7280  -14.1808 C   0  0  2  0  0  0  0  0  0  0  0  0
   22.8559  -20.2747  -12.8461 N   0  0  0  0  0  0  0  0  0  0  0  0
   21.2974  -19.7867  -14.5599 C   0  0  0  0  0  0  0  0  0  0  0  0
   20.9101  -19.4420  -15.7075 O   0  0  0  0  0  0  0  0  0  0  0  0
   25.7825  -25.5947  -15.6943 N   0  0  0  0  0  0  0  0  0  0  0  0
   20.3175  -20.2324  -13.6450 C   0  0  1  0  0  0  0  0  0  0  0  0
   18.8839  -20.3995  -14.0366 C   0  0  0  0  0  0  0  0  0  0  0  0
   18.2759  -21.3400  -13.0129 C   0  0  0  0  0  0  0  0  0  0  0  0
   18.4949  -22.7374  -13.2389 O   0  0  0  0  0  0  0  0  0  0  0  0
   19.0596  -23.2954  -14.1825 C   0  0  0  0  0  0  0  0  0  0  0  0
   18.3226  -19.0437  -13.7531 O   0  0  0  0  0  0  0  0  0  0  0  0
   19.0682  -18.2573  -13.0752 O   0  0  0  0  0  0  0  0  0  0  0  0
   17.9992  -23.6315  -12.2461 N   0  0  0  0  0  0  0  0  0  0  0  0
   17.0867  -18.5359  -14.1439 C   0  0  1  0  0  0  0  0  0  0  0  0
   16.8964  -17.0947  -14.1759 C   0  0  0  0  0  0  0  0  0  0  0  0
   17.7915  -16.4196  -15.2136 C   0  0  0  0  0  0  0  0  0  0  0  0
   17.5394  -14.9596  -15.1783 C   0  0  0  0  0  0  0  0  0  0  0  0
   18.2999  -14.1594  -16.1848 C   0  0  0  0  0  0  0  0  0  0  0  0
   18.1324  -12.6729  -16.0778 N   0  0  0  0  0  0  0  0  0  0  0  0
   19.0114  -11.9818  -16.9661 C   0  0  0  0  0  0  0  0  0  0  0  0
   15.4891  -16.7897  -14.5387 O   0  0  0  0  0  0  0  0  0  0  0  0
   14.8769  -17.5429  -15.3130 O   0  0  0  0  0  0  0  0  0  0  0  0
  2  1  1  0
  3  2  2  0
  4  2  1  0
  5  4  1  0
  6  5  1  0
  7  6  1  0
  8 10  1  0
  8  7  1  0
  8  9  1  1
 10 11  2  0
 12 10  1  0
 13 12  1  0
 13 14  1  6
 15 14  1  0
 15 19  1  0
 16 15  2  0
 17 13  1  0
 18 17  2  0
 20 17  1  0
 21 27  1  0
 21 20  1  0
 21 22  1  1
 23 22  1  0
 24 23  1  0
 24 25  1  0
 25 26  1  0
 27 29  1  0
 28 27  2  0
M  END
$$$$
