RDK.pdb
     RDKit          3D

 29 28  0  0  1  0  0  0  0  0999 V2000
   19.3481  -23.8286  -11.9886 N   0  0  0  0  0  0  0  0  0  0  0  0
   17.9717  -23.4333  -11.9851 C   0  0  0  0  0  0  0  0  0  0  0  0
   17.2895  -23.4706  -13.0678 N   0  0  0  0  0  0  0  0  0  0  0  0
   17.3281  -22.9914  -10.7908 N   0  0  0  0  0  0  0  0  0  0  0  0
   18.0126  -22.9366   -9.5186 C   0  0  0  0  0  0  0  0  0  0  0  0
   17.9971  -24.3405   -8.9600 C   0  0  0  0  0  0  0  0  0  0  0  0
   18.5746  -24.4446   -7.5831 C   0  0  0  0  0  0  0  0  0  0  0  0
   18.5467  -25.9218   -7.2060 C   0  0  2  0  0  0  0  0  0  0  0  0
   18.2437  -26.7403   -8.3613 N   0  0  0  0  0  0  0  0  0  0  0  0
   17.5237  -26.2015   -6.1714 C   0  0  0  0  0  0  0  0  0  0  0  0
   16.3786  -26.6241   -6.4812 O   0  0  0  0  0  0  0  0  0  0  0  0
   16.3034  -23.2116  -13.1269 N   0  0  0  0  0  0  0  0  0  0  0  0
   17.7993  -26.0033   -4.7999 C   0  0  1  0  0  0  0  0  0  0  0  0
   16.7962  -26.3162   -3.7358 C   0  0  0  0  0  0  0  0  0  0  0  0
   17.5942  -26.5996   -2.4769 C   0  0  0  0  0  0  0  0  0  0  0  0
   18.0388  -27.9509   -2.3085 O   0  0  0  0  0  0  0  0  0  0  0  0
   17.5144  -28.9980   -2.6947 C   0  0  0  0  0  0  0  0  0  0  0  0
   16.1355  -24.9915   -3.5301 O   0  0  0  0  0  0  0  0  0  0  0  0
   16.8933  -23.9659   -3.6183 O   0  0  0  0  0  0  0  0  0  0  0  0
   19.2589  -28.1390   -1.5966 N   0  0  0  0  0  0  0  0  0  0  0  0
   14.7928  -24.7436   -3.2585 C   0  0  2  0  0  0  0  0  0  0  0  0
   14.3615  -23.3731   -3.0350 C   0  0  0  0  0  0  0  0  0  0  0  0
   12.9494  -23.1220   -3.5608 C   0  0  0  0  0  0  0  0  0  0  0  0
   12.5963  -21.7045   -3.3111 C   0  0  0  0  0  0  0  0  0  0  0  0
   11.2364  -21.2973   -3.7765 C   0  0  0  0  0  0  0  0  0  0  0  0
   10.9446  -19.8287   -3.6900 N   0  0  0  0  0  0  0  0  0  0  0  0
    9.6448  -19.5225   -4.1961 C   0  0  0  0  0  0  0  0  0  0  0  0
   14.3487  -23.0903   -1.5772 O   0  0  0  0  0  0  0  0  0  0  0  0
   14.1401  -24.0137   -0.7739 O   0  0  0  0  0  0  0  0  0  0  0  0
  2  1  1  0
  3  2  2  0
  4  2  1  0
  5  4  1  0
  6  5  1  0
  7  6  1  0
  8 10  1  0
  8  7  1  0
  8  9  1  6
 10 11  2  0
 12 10  1  0
 13 12  1  0
 13 14  1  1
 15 14  1  0
 15 19  1  0
 16 15  2  0
 17 13  1  0
 18 17  2  0
 20 17  1  0
 21 27  1  0
 21 20  1  0
 21 22  1  1
 23 22  1  0
 24 23  1  0
 24 25  1  0
 25 26  1  0
 27 29  1  0
 28 27  2  0
M  END
$$$$
