RDK.pdb
     RDKit          3D

 29 28  0  0  1  0  0  0  0  0999 V2000
   30.9013  -23.2192   -8.9386 N   0  0  0  0  0  0  0  0  0  0  0  0
   31.4113  -22.6940  -10.1694 C   0  0  0  0  0  0  0  0  0  0  0  0
   32.2087  -23.3942  -10.8855 N   0  0  0  0  0  0  0  0  0  0  0  0
   31.0513  -21.3917  -10.6279 N   0  0  0  0  0  0  0  0  0  0  0  0
   29.7067  -20.8741  -10.5079 C   0  0  0  0  0  0  0  0  0  0  0  0
   28.9071  -21.4865  -11.6343 C   0  0  0  0  0  0  0  0  0  0  0  0
   28.5482  -20.5132  -12.7132 C   0  0  0  0  0  0  0  0  0  0  0  0
   27.0995  -20.1038  -12.4709 C   0  0  2  0  0  0  0  0  0  0  0  0
   26.4352  -21.0564  -11.6062 N   0  0  0  0  0  0  0  0  0  0  0  0
   26.3341  -20.0305  -13.7373 C   0  0  0  0  0  0  0  0  0  0  0  0
   26.7542  -19.3611  -14.7177 O   0  0  0  0  0  0  0  0  0  0  0  0
   32.7117  -23.0302  -11.6964 N   0  0  0  0  0  0  0  0  0  0  0  0
   25.1049  -20.7107  -13.8878 C   0  0  1  0  0  0  0  0  0  0  0  0
   24.3332  -20.6808  -15.1684 C   0  0  0  0  0  0  0  0  0  0  0  0
   24.1302  -22.1297  -15.5702 C   0  0  0  0  0  0  0  0  0  0  0  0
   23.2956  -22.3514  -16.7130 O   0  0  0  0  0  0  0  0  0  0  0  0
   23.3294  -21.8091  -17.8200 C   0  0  0  0  0  0  0  0  0  0  0  0
   23.0009  -20.1746  -14.7186 O   0  0  0  0  0  0  0  0  0  0  0  0
   22.4925  -20.7580  -13.7012 O   0  0  0  0  0  0  0  0  0  0  0  0
   22.2724  -23.3340  -16.5772 N   0  0  0  0  0  0  0  0  0  0  0  0
   22.2519  -19.1409  -15.2739 C   0  0  2  0  0  0  0  0  0  0  0  0
   20.9859  -18.7791  -14.6568 C   0  0  0  0  0  0  0  0  0  0  0  0
   20.3699  -17.5355  -15.2953 C   0  0  0  0  0  0  0  0  0  0  0  0
   19.1313  -17.1894  -14.5590 C   0  0  0  0  0  0  0  0  0  0  0  0
   18.3414  -16.0620  -15.1394 C   0  0  0  0  0  0  0  0  0  0  0  0
   17.0389  -15.7748  -14.4537 N   0  0  0  0  0  0  0  0  0  0  0  0
   16.3345  -14.7096  -15.0929 C   0  0  0  0  0  0  0  0  0  0  0  0
   20.0169  -19.8914  -14.8275 O   0  0  0  0  0  0  0  0  0  0  0  0
   19.8133  -20.3609  -15.9587 O   0  0  0  0  0  0  0  0  0  0  0  0
  2  1  1  0
  3  2  2  0
  4  2  1  0
  5  4  1  0
  6  5  1  0
  7  6  1  0
  8 10  1  0
  8  7  1  0
  8  9  1  1
 10 11  2  0
 12 10  1  0
 13 12  1  0
 13 14  1  6
 15 14  1  0
 15 19  1  0
 16 15  2  0
 17 13  1  0
 18 17  2  0
 20 17  1  0
 21 27  1  0
 21 20  1  0
 21 22  1  6
 23 22  1  0
 24 23  1  0
 24 25  1  0
 25 26  1  0
 27 29  1  0
 28 27  2  0
M  END
$$$$
