LFT.pdb
     RDKit          3D

 27 27  0  0  1  0  0  0  0  0999 V2000
   20.8946  -20.0662   -8.9271 C   0  0  0  0  0  0  0  0  0  0  0  0
   21.9642  -20.8232   -9.6862 C   0  0  1  0  0  0  0  0  0  0  0  0
   21.4693  -22.1734  -10.0882 C   0  0  0  0  0  0  0  0  0  0  0  0
   22.5659  -20.0127  -10.7851 C   0  0  0  0  0  0  0  0  0  0  0  0
   23.5181  -20.7436  -11.6715 C   0  0  2  0  0  0  0  0  0  0  0  0
   24.6800  -21.2025  -10.9447 N   0  0  0  0  0  0  0  0  0  0  0  0
   23.9495  -19.8091  -12.7437 C   0  0  0  0  0  0  0  0  0  0  0  0
   23.0950  -19.1981  -13.4705 O   0  0  0  0  0  0  0  0  0  0  0  0
   25.3176  -19.5428  -13.0217 N   0  0  0  0  0  0  0  0  0  0  0  0
   25.7298  -18.6639  -14.0820 C   0  0  1  0  0  0  0  0  0  0  0  0
   27.1252  -18.1446  -13.9496 C   0  0  0  0  0  0  0  0  0  0  0  0
   27.4975  -17.2161  -15.0463 C   0  0  0  0  0  0  0  0  0  0  0  0
   27.0570  -15.8967  -15.0666 C   0  0  0  0  0  0  0  0  0  0  0  0
   27.3977  -15.0243  -16.0787 C   0  0  0  0  0  0  0  0  0  0  0  0
   28.2075  -15.5122  -17.0942 C   0  0  0  0  0  0  0  0  0  0  0  0
   28.6690  -16.8150  -17.1168 C   0  0  0  0  0  0  0  0  0  0  0  0
   28.3013  -17.6663  -16.0731 C   0  0  0  0  0  0  0  0  0  0  0  0
   25.4646  -19.2465  -15.4264 C   0  0  0  0  0  0  0  0  0  0  0  0
   25.9127  -20.3852  -15.7414 O   0  0  0  0  0  0  0  0  0  0  0  0
   22.0606  -18.5573  -17.7224 C   0  0  0  0  0  0  0  0  0  0  0  0
   23.0686  -19.6881  -17.8489 C   0  0  1  0  0  0  0  0  0  0  0  0
   22.8608  -20.3228  -19.0678 O   0  0  0  0  0  0  0  0  0  0  0  0
   24.4853  -19.1701  -17.7171 C   0  0  2  0  0  0  0  0  0  0  0  0
   24.7045  -18.5644  -16.4134 N   0  0  0  0  0  0  0  0  0  0  0  0
   24.8063  -18.2235  -18.8086 C   0  0  0  0  0  0  0  0  0  0  0  0
   25.0676  -17.0137  -18.5920 O   0  0  0  0  0  0  0  0  0  0  0  0
   24.8236  -18.6700  -20.1152 O   0  0  0  0  0  0  0  0  0  0  0  0
  2  4  1  0
  2  1  1  6
  2  3  1  0
  5  4  1  0
  5  6  1  1
  7  5  1  0
  8  7  2  0
  9  7  1  0
 10  9  1  0
 11 12  1  0
 10 11  1  1
 12 13  2  0
 13 14  1  0
 15 14  2  0
 16 15  1  0
 17 16  2  0
 17 12  1  0
 18 10  1  0
 18 19  2  0
 21 20  1  6
 21 22  1  0
 21 23  1  0
 23 24  1  1
 24 18  1  0
 25 23  1  0
 25 27  1  0
 26 25  2  0
M  END
$$$$
