LFT.pdb
     RDKit          3D

 27 27  0  0  1  0  0  0  0  0999 V2000
   19.8471  -40.4438   -1.9311 C   0  0  0  0  0  0  0  0  0  0  0  0
   20.3727  -39.7337   -3.1611 C   0  0  1  0  0  0  0  0  0  0  0  0
   19.2452  -39.2449   -4.0094 C   0  0  0  0  0  0  0  0  0  0  0  0
   21.4098  -38.7130   -2.8312 C   0  0  0  0  0  0  0  0  0  0  0  0
   21.9194  -37.9213   -3.9888 C   0  0  2  0  0  0  0  0  0  0  0  0
   22.6911  -38.7388   -4.8971 N   0  0  0  0  0  0  0  0  0  0  0  0
   22.7830  -36.8368   -3.4530 C   0  0  0  0  0  0  0  0  0  0  0  0
   24.0418  -37.0032   -3.3132 O   0  0  0  0  0  0  0  0  0  0  0  0
   22.2690  -35.5686   -3.0694 N   0  0  0  0  0  0  0  0  0  0  0  0
   23.1043  -34.5335   -2.5238 C   0  0  1  0  0  0  0  0  0  0  0  0
   22.9257  -33.1929   -3.1604 C   0  0  0  0  0  0  0  0  0  0  0  0
   23.8261  -32.1616   -2.5865 C   0  0  0  0  0  0  0  0  0  0  0  0
   23.3894  -31.2742   -1.6083 C   0  0  0  0  0  0  0  0  0  0  0  0
   24.2168  -30.3134   -1.0663 C   0  0  0  0  0  0  0  0  0  0  0  0
   25.5214  -30.2584   -1.5354 C   0  0  0  0  0  0  0  0  0  0  0  0
   26.0000  -31.1186   -2.5058 C   0  0  0  0  0  0  0  0  0  0  0  0
   25.1301  -32.0772   -3.0289 C   0  0  0  0  0  0  0  0  0  0  0  0
   23.0225  -34.4735   -1.0383 C   0  0  0  0  0  0  0  0  0  0  0  0
   21.9088  -34.3579   -0.4527 O   0  0  0  0  0  0  0  0  0  0  0  0
   23.5721  -36.9158    1.5466 C   0  0  0  0  0  0  0  0  0  0  0  0
   24.5069  -35.7658    1.8851 C   0  0  1  0  0  0  0  0  0  0  0  0
   25.7905  -36.1146    1.4823 O   0  0  0  0  0  0  0  0  0  0  0  0
   24.0421  -34.4792    1.2360 C   0  0  2  0  0  0  0  0  0  0  0  0
   24.1747  -34.5423   -0.2107 N   0  0  0  0  0  0  0  0  0  0  0  0
   24.7679  -33.3146    1.7904 C   0  0  0  0  0  0  0  0  0  0  0  0
   25.5682  -32.6332    1.1019 O   0  0  0  0  0  0  0  0  0  0  0  0
   24.5693  -32.9515    3.1078 O   0  0  0  0  0  0  0  0  0  0  0  0
  2  4  1  0
  2  1  1  1
  2  3  1  0
  5  4  1  0
  5  6  1  6
  7  5  1  0
  8  7  2  0
  9  7  1  0
 10  9  1  0
 11 12  1  0
 10 11  1  6
 12 13  2  0
 13 14  1  0
 15 14  2  0
 16 15  1  0
 17 16  2  0
 17 12  1  0
 18 10  1  0
 18 19  2  0
 21 20  1  6
 21 22  1  0
 21 23  1  0
 23 24  1  6
 24 18  1  0
 25 23  1  0
 25 27  1  0
 26 25  2  0
M  END
$$$$
