LFT.pdb
     RDKit          3D

 27 27  0  0  1  0  0  0  0  0999 V2000
   30.6813  -24.0542  -17.5746 C   0  0  0  0  0  0  0  0  0  0  0  0
   29.6870  -22.9126  -17.6112 C   0  0  1  0  0  0  0  0  0  0  0  0
   29.4796  -22.4392  -19.0121 C   0  0  0  0  0  0  0  0  0  0  0  0
   28.4396  -23.2178  -16.8514 C   0  0  0  0  0  0  0  0  0  0  0  0
   27.4414  -22.1104  -16.7887 C   0  0  2  0  0  0  0  0  0  0  0  0
   28.0644  -20.8186  -16.9675 N   0  0  0  0  0  0  0  0  0  0  0  0
   26.7914  -22.1593  -15.4531 C   0  0  0  0  0  0  0  0  0  0  0  0
   26.1969  -23.2142  -15.0461 O   0  0  0  0  0  0  0  0  0  0  0  0
   26.7914  -21.0528  -14.5612 N   0  0  0  0  0  0  0  0  0  0  0  0
   26.0434  -21.0548  -13.3335 C   0  0  1  0  0  0  0  0  0  0  0  0
   26.6789  -20.2872  -12.2193 C   0  0  0  0  0  0  0  0  0  0  0  0
   25.8989  -20.3565  -10.9582 C   0  0  0  0  0  0  0  0  0  0  0  0
   26.3066  -21.1497   -9.8906 C   0  0  0  0  0  0  0  0  0  0  0  0
   25.5917  -21.2208   -8.7136 C   0  0  0  0  0  0  0  0  0  0  0  0
   24.4325  -20.4633   -8.6259 C   0  0  0  0  0  0  0  0  0  0  0  0
   23.9880  -19.6611   -9.6600 C   0  0  0  0  0  0  0  0  0  0  0  0
   24.7408  -19.6170  -10.8350 C   0  0  0  0  0  0  0  0  0  0  0  0
   24.6191  -20.6761  -13.5456 C   0  0  0  0  0  0  0  0  0  0  0  0
   24.3108  -19.5507  -14.0304 O   0  0  0  0  0  0  0  0  0  0  0  0
   22.3990  -21.4850  -15.9033 C   0  0  0  0  0  0  0  0  0  0  0  0
   21.5809  -21.7989  -14.6611 C   0  0  1  0  0  0  0  0  0  0  0  0
   21.5225  -23.1798  -14.5153 O   0  0  0  0  0  0  0  0  0  0  0  0
   22.1701  -21.1271  -13.4387 C   0  0  2  0  0  0  0  0  0  0  0  0
   23.5451  -21.5465  -13.2196 N   0  0  0  0  0  0  0  0  0  0  0  0
   21.3359  -21.3791  -12.2426 C   0  0  0  0  0  0  0  0  0  0  0  0
   21.7410  -22.0726  -11.2763 O   0  0  0  0  0  0  0  0  0  0  0  0
   20.0665  -20.8403  -12.1708 O   0  0  0  0  0  0  0  0  0  0  0  0
  2  4  1  0
  2  1  1  6
  2  3  1  0
  5  4  1  0
  5  6  1  1
  7  5  1  0
  8  7  2  0
  9  7  1  0
 10  9  1  0
 11 12  1  0
 10 11  1  1
 12 13  2  0
 13 14  1  0
 15 14  2  0
 16 15  1  0
 17 16  2  0
 17 12  1  0
 18 10  1  0
 18 19  2  0
 21 20  1  6
 21 22  1  0
 21 23  1  0
 23 24  1  1
 24 18  1  0
 25 23  1  0
 25 27  1  0
 26 25  2  0
M  END
$$$$
