LFT.pdb
     RDKit          3D

 27 27  0  0  1  0  0  0  0  0999 V2000
   27.7371  -19.0888  -18.5504 C   0  0  0  0  0  0  0  0  0  0  0  0
   26.3129  -18.6660  -18.2564 C   0  0  1  0  0  0  0  0  0  0  0  0
   25.5026  -18.6361  -19.5102 C   0  0  0  0  0  0  0  0  0  0  0  0
   25.7111  -19.4344  -17.1278 C   0  0  0  0  0  0  0  0  0  0  0  0
   24.2564  -19.1965  -16.8956 C   0  0  2  0  0  0  0  0  0  0  0  0
   23.9874  -17.8168  -16.5595 N   0  0  0  0  0  0  0  0  0  0  0  0
   23.8275  -20.0667  -15.7697 C   0  0  0  0  0  0  0  0  0  0  0  0
   24.1974  -21.2874  -15.7005 O   0  0  0  0  0  0  0  0  0  0  0  0
   22.9926  -19.6012  -14.7181 N   0  0  0  0  0  0  0  0  0  0  0  0
   22.6261  -20.4310  -13.6027 C   0  0  1  0  0  0  0  0  0  0  0  0
   22.9267  -19.8380  -12.2639 C   0  0  0  0  0  0  0  0  0  0  0  0
   24.3528  -19.9857  -11.8792 C   0  0  0  0  0  0  0  0  0  0  0  0
   25.3428  -19.1721  -12.4206 C   0  0  0  0  0  0  0  0  0  0  0  0
   26.6703  -19.2983  -12.0697 C   0  0  0  0  0  0  0  0  0  0  0  0
   26.9936  -20.2795  -11.1435 C   0  0  0  0  0  0  0  0  0  0  0  0
   26.0448  -21.1113  -10.5790 C   0  0  0  0  0  0  0  0  0  0  0  0
   24.7115  -20.9508  -10.9610 C   0  0  0  0  0  0  0  0  0  0  0  0
   21.2236  -20.9201  -13.7065 C   0  0  0  0  0  0  0  0  0  0  0  0
   20.2676  -20.1171  -13.9013 O   0  0  0  0  0  0  0  0  0  0  0  0
   20.1878  -25.1246  -13.4877 C   0  0  0  0  0  0  0  0  0  0  0  0
   19.4768  -24.1313  -14.3925 C   0  0  1  0  0  0  0  0  0  0  0  0
   18.1730  -24.5728  -14.5847 O   0  0  0  0  0  0  0  0  0  0  0  0
   19.5190  -22.7359  -13.8061 C   0  0  2  0  0  0  0  0  0  0  0  0
   20.8887  -22.2958  -13.5941 N   0  0  0  0  0  0  0  0  0  0  0  0
   18.7331  -22.6639  -12.5541 C   0  0  0  0  0  0  0  0  0  0  0  0
   19.2700  -22.4653  -11.4357 O   0  0  0  0  0  0  0  0  0  0  0  0
   17.3616  -22.8182  -12.6002 O   0  0  0  0  0  0  0  0  0  0  0  0
  2  4  1  0
  2  1  1  6
  2  3  1  0
  5  4  1  0
  5  6  1  1
  7  5  1  0
  8  7  2  0
  9  7  1  0
 10  9  1  0
 11 12  1  0
 10 11  1  1
 12 13  2  0
 13 14  1  0
 15 14  2  0
 16 15  1  0
 17 16  2  0
 17 12  1  0
 18 10  1  0
 18 19  2  0
 21 20  1  1
 21 22  1  0
 21 23  1  0
 23 24  1  1
 24 18  1  0
 25 23  1  0
 25 27  1  0
 26 25  2  0
M  END
$$$$
