LFT.pdb
     RDKit          3D

 27 27  0  0  1  0  0  0  0  0999 V2000
   29.4541  -20.1483  -17.1235 C   0  0  0  0  0  0  0  0  0  0  0  0
   28.8040  -19.3139  -16.0398 C   0  0  1  0  0  0  0  0  0  0  0  0
   28.3806  -17.9873  -16.5789 C   0  0  0  0  0  0  0  0  0  0  0  0
   27.7502  -20.0645  -15.2965 C   0  0  0  0  0  0  0  0  0  0  0  0
   27.0423  -19.2912  -14.2347 C   0  0  2  0  0  0  0  0  0  0  0  0
   27.9637  -18.7604  -13.2558 N   0  0  0  0  0  0  0  0  0  0  0  0
   26.0894  -20.2115  -13.5609 C   0  0  0  0  0  0  0  0  0  0  0  0
   25.8672  -21.3832  -14.0188 O   0  0  0  0  0  0  0  0  0  0  0  0
   25.3784  -19.8498  -12.3848 N   0  0  0  0  0  0  0  0  0  0  0  0
   24.4114  -20.7198  -11.7727 C   0  0  1  0  0  0  0  0  0  0  0  0
   24.3208  -20.5972  -10.2857 C   0  0  0  0  0  0  0  0  0  0  0  0
   25.6528  -20.5189   -9.6351 C   0  0  0  0  0  0  0  0  0  0  0  0
   26.1646  -19.3147   -9.1628 C   0  0  0  0  0  0  0  0  0  0  0  0
   27.3995  -19.2296   -8.5551 C   0  0  0  0  0  0  0  0  0  0  0  0
   28.1285  -20.4032   -8.4274 C   0  0  0  0  0  0  0  0  0  0  0  0
   27.6614  -21.6224   -8.8814 C   0  0  0  0  0  0  0  0  0  0  0  0
   26.4060  -21.6656   -9.4909 C   0  0  0  0  0  0  0  0  0  0  0  0
   23.0801  -20.6291  -12.4333 C   0  0  0  0  0  0  0  0  0  0  0  0
   22.6010  -19.5125  -12.7801 O   0  0  0  0  0  0  0  0  0  0  0  0
   21.8904  -22.3380  -15.5776 C   0  0  0  0  0  0  0  0  0  0  0  0
   20.8469  -22.6052  -14.5049 C   0  0  1  0  0  0  0  0  0  0  0  0
   20.9766  -23.9253  -14.0900 O   0  0  0  0  0  0  0  0  0  0  0  0
   20.9926  -21.6346  -13.3519 C   0  0  2  0  0  0  0  0  0  0  0  0
   22.2878  -21.7759  -12.7060 N   0  0  0  0  0  0  0  0  0  0  0  0
   19.8885  -21.7980  -12.3800 C   0  0  0  0  0  0  0  0  0  0  0  0
   20.0884  -22.1518  -11.1911 O   0  0  0  0  0  0  0  0  0  0  0  0
   18.5885  -21.5567  -12.7781 O   0  0  0  0  0  0  0  0  0  0  0  0
  2  4  1  0
  2  1  1  6
  2  3  1  0
  5  4  1  0
  5  6  1  1
  7  5  1  0
  8  7  2  0
  9  7  1  0
 10  9  1  0
 11 12  1  0
 10 11  1  1
 12 13  2  0
 13 14  1  0
 15 14  2  0
 16 15  1  0
 17 16  2  0
 17 12  1  0
 18 10  1  0
 18 19  2  0
 21 20  1  6
 21 22  1  0
 21 23  1  0
 23 24  1  1
 24 18  1  0
 25 23  1  0
 25 27  1  0
 26 25  2  0
M  END
$$$$
