LFT.pdb
     RDKit          3D

 27 27  0  0  1  0  0  0  0  0999 V2000
   25.8994  -32.2413  -17.0928 C   0  0  0  0  0  0  0  0  0  0  0  0
   26.8678  -31.1565  -17.5154 C   0  0  1  0  0  0  0  0  0  0  0  0
   26.6492  -30.7826  -18.9445 C   0  0  0  0  0  0  0  0  0  0  0  0
   26.8987  -30.0139  -16.5562 C   0  0  0  0  0  0  0  0  0  0  0  0
   27.7629  -28.8653  -16.9569 C   0  0  2  0  0  0  0  0  0  0  0  0
   29.0795  -28.9560  -16.3677 N   0  0  0  0  0  0  0  0  0  0  0  0
   27.1040  -27.6168  -16.4922 C   0  0  0  0  0  0  0  0  0  0  0  0
   27.1272  -27.2766  -15.2611 O   0  0  0  0  0  0  0  0  0  0  0  0
   26.4185  -26.7392  -17.3751 N   0  0  0  0  0  0  0  0  0  0  0  0
   25.8697  -25.4841  -16.9390 C   0  0  1  0  0  0  0  0  0  0  0  0
   26.5184  -24.2805  -17.5431 C   0  0  0  0  0  0  0  0  0  0  0  0
   27.9122  -24.0836  -17.0716 C   0  0  0  0  0  0  0  0  0  0  0  0
   28.2556  -23.0324  -16.2278 C   0  0  0  0  0  0  0  0  0  0  0  0
   29.5461  -22.8403  -15.7816 C   0  0  0  0  0  0  0  0  0  0  0  0
   30.5085  -23.7442  -16.2082 C   0  0  0  0  0  0  0  0  0  0  0  0
   30.2147  -24.8035  -17.0463 C   0  0  0  0  0  0  0  0  0  0  0  0
   28.8957  -24.9628  -17.4754 C   0  0  0  0  0  0  0  0  0  0  0  0
   24.3858  -25.4508  -17.0583 C   0  0  0  0  0  0  0  0  0  0  0  0
   23.8091  -25.8463  -18.1107 O   0  0  0  0  0  0  0  0  0  0  0  0
   21.9391  -27.2092  -14.8380 C   0  0  0  0  0  0  0  0  0  0  0  0
   21.4984  -25.7567  -14.9212 C   0  0  1  0  0  0  0  0  0  0  0  0
   21.8555  -25.1243  -13.7362 O   0  0  0  0  0  0  0  0  0  0  0  0
   22.1038  -25.0739  -16.1296 C   0  0  2  0  0  0  0  0  0  0  0  0
   23.5500  -24.9800  -16.0109 N   0  0  0  0  0  0  0  0  0  0  0  0
   21.4960  -23.7417  -16.3444 C   0  0  0  0  0  0  0  0  0  0  0  0
   22.1637  -22.6799  -16.2693 O   0  0  0  0  0  0  0  0  0  0  0  0
   20.1503  -23.6456  -16.6385 O   0  0  0  0  0  0  0  0  0  0  0  0
  2  4  1  0
  2  1  1  1
  2  3  1  0
  5  4  1  0
  5  6  1  1
  7  5  1  0
  8  7  2  0
  9  7  1  0
 10  9  1  0
 11 12  1  0
 10 11  1  6
 12 13  2  0
 13 14  1  0
 15 14  2  0
 16 15  1  0
 17 16  2  0
 17 12  1  0
 18 10  1  0
 18 19  2  0
 21 20  1  1
 21 22  1  0
 21 23  1  0
 23 24  1  1
 24 18  1  0
 25 23  1  0
 25 27  1  0
 26 25  2  0
M  END
$$$$
