LFT.pdb
     RDKit          3D

 27 27  0  0  1  0  0  0  0  0999 V2000
   18.6623   -8.8646  -22.6211 C   0  0  0  0  0  0  0  0  0  0  0  0
   18.9356  -10.0738  -21.7514 C   0  0  1  0  0  0  0  0  0  0  0  0
   20.4047  -10.3018  -21.6125 C   0  0  0  0  0  0  0  0  0  0  0  0
   18.1729  -10.0387  -20.4694 C   0  0  0  0  0  0  0  0  0  0  0  0
   18.4885  -11.1345  -19.5070 C   0  0  2  0  0  0  0  0  0  0  0  0
   17.8667  -12.3807  -19.8932 N   0  0  0  0  0  0  0  0  0  0  0  0
   17.9794  -10.7272  -18.1714 C   0  0  0  0  0  0  0  0  0  0  0  0
   16.7302  -10.7515  -17.9053 O   0  0  0  0  0  0  0  0  0  0  0  0
   18.8376  -10.2925  -17.1254 N   0  0  0  0  0  0  0  0  0  0  0  0
   18.3510   -9.9914  -15.8066 C   0  0  1  0  0  0  0  0  0  0  0  0
   18.8656  -10.8969  -14.7343 C   0  0  0  0  0  0  0  0  0  0  0  0
   18.3446  -12.2817  -14.8550 C   0  0  0  0  0  0  0  0  0  0  0  0
   17.1093  -12.6452  -14.3286 C   0  0  0  0  0  0  0  0  0  0  0  0
   16.6139  -13.9275  -14.4361 C   0  0  0  0  0  0  0  0  0  0  0  0
   17.3998  -14.8604  -15.0972 C   0  0  0  0  0  0  0  0  0  0  0  0
   18.6332  -14.5459  -15.6362 C   0  0  0  0  0  0  0  0  0  0  0  0
   19.0987  -13.2361  -15.5059 C   0  0  0  0  0  0  0  0  0  0  0  0
   18.5173   -8.5519  -15.4641 C   0  0  0  0  0  0  0  0  0  0  0  0
   19.6662   -8.0472  -15.3166 O   0  0  0  0  0  0  0  0  0  0  0  0
   17.8950   -5.6784  -17.4650 C   0  0  0  0  0  0  0  0  0  0  0  0
   17.0969   -5.4273  -16.1958 C   0  0  1  0  0  0  0  0  0  0  0  0
   15.7598   -5.6983  -16.4611 O   0  0  0  0  0  0  0  0  0  0  0  0
   17.6247   -6.2622  -15.0482 C   0  0  2  0  0  0  0  0  0  0  0  0
   17.4098   -7.6804  -15.2873 N   0  0  0  0  0  0  0  0  0  0  0  0
   17.0229   -5.8380  -13.7645 C   0  0  0  0  0  0  0  0  0  0  0  0
   17.2182   -4.6965  -13.2769 O   0  0  0  0  0  0  0  0  0  0  0  0
   16.2164   -6.7151  -13.0667 O   0  0  0  0  0  0  0  0  0  0  0  0
  2  4  1  0
  2  1  1  1
  2  3  1  0
  5  4  1  0
  5  6  1  6
  7  5  1  0
  8  7  2  0
  9  7  1  0
 10  9  1  0
 11 12  1  0
 10 11  1  1
 12 13  2  0
 13 14  1  0
 15 14  2  0
 16 15  1  0
 17 16  2  0
 17 12  1  0
 18 10  1  0
 18 19  2  0
 21 20  1  6
 21 22  1  0
 21 23  1  0
 23 24  1  6
 24 18  1  0
 25 23  1  0
 25 27  1  0
 26 25  2  0
M  END
$$$$
