LFT.pdb
     RDKit          3D

 27 27  0  0  1  0  0  0  0  0999 V2000
   33.1602  -23.3509   -8.1699 C   0  0  0  0  0  0  0  0  0  0  0  0
   32.4338  -22.5089   -9.1978 C   0  0  1  0  0  0  0  0  0  0  0  0
   32.9689  -22.7710  -10.5670 C   0  0  0  0  0  0  0  0  0  0  0  0
   30.9504  -22.6013   -9.0658 C   0  0  0  0  0  0  0  0  0  0  0  0
   30.1691  -21.7967  -10.0501 C   0  0  2  0  0  0  0  0  0  0  0  0
   30.7519  -20.4901  -10.2551 N   0  0  0  0  0  0  0  0  0  0  0  0
   28.7909  -21.6392   -9.5166 C   0  0  0  0  0  0  0  0  0  0  0  0
   28.0406  -22.6533   -9.3157 O   0  0  0  0  0  0  0  0  0  0  0  0
   28.2325  -20.3707   -9.2023 N   0  0  0  0  0  0  0  0  0  0  0  0
   26.8710  -20.2164   -8.7673 C   0  0  1  0  0  0  0  0  0  0  0  0
   26.6836  -19.2387   -7.6522 C   0  0  0  0  0  0  0  0  0  0  0  0
   27.5020  -19.5678   -6.4582 C   0  0  0  0  0  0  0  0  0  0  0  0
   28.6384  -18.8365   -6.1282 C   0  0  0  0  0  0  0  0  0  0  0  0
   29.4054  -19.1313   -5.0209 C   0  0  0  0  0  0  0  0  0  0  0  0
   29.0013  -20.1990   -4.2323 C   0  0  0  0  0  0  0  0  0  0  0  0
   27.8801  -20.9542   -4.5204 C   0  0  0  0  0  0  0  0  0  0  0  0
   27.1305  -20.6229   -5.6508 C   0  0  0  0  0  0  0  0  0  0  0  0
   25.9450  -19.9652   -9.9059 C   0  0  0  0  0  0  0  0  0  0  0  0
   26.0702  -18.9383  -10.6315 O   0  0  0  0  0  0  0  0  0  0  0  0
   24.3163  -22.9044  -12.2903 C   0  0  0  0  0  0  0  0  0  0  0  0
   24.4635  -21.4192  -12.5793 C   0  0  1  0  0  0  0  0  0  0  0  0
   23.7148  -21.1193  -13.7112 O   0  0  0  0  0  0  0  0  0  0  0  0
   24.0392  -20.5891  -11.3862 C   0  0  2  0  0  0  0  0  0  0  0  0
   24.8862  -20.8532  -10.2340 N   0  0  0  0  0  0  0  0  0  0  0  0
   22.6122  -20.8146  -11.0652 C   0  0  0  0  0  0  0  0  0  0  0  0
   22.2393  -21.2868   -9.9622 O   0  0  0  0  0  0  0  0  0  0  0  0
   21.6452  -20.5000  -11.9995 O   0  0  0  0  0  0  0  0  0  0  0  0
  2  4  1  0
  2  1  1  1
  2  3  1  0
  5  4  1  0
  5  6  1  1
  7  5  1  0
  8  7  2  0
  9  7  1  0
 10  9  1  0
 11 12  1  0
 10 11  1  1
 12 13  2  0
 13 14  1  0
 15 14  2  0
 16 15  1  0
 17 16  2  0
 17 12  1  0
 18 10  1  0
 18 19  2  0
 21 20  1  1
 21 22  1  0
 21 23  1  0
 23 24  1  1
 24 18  1  0
 25 23  1  0
 25 27  1  0
 26 25  2  0
M  END
$$$$
