LFT.pdb
     RDKit          3D

 27 27  0  0  1  0  0  0  0  0999 V2000
   20.1522  -15.7389  -16.6401 C   0  0  0  0  0  0  0  0  0  0  0  0
   19.7780  -14.5638  -17.5189 C   0  0  1  0  0  0  0  0  0  0  0  0
   18.3995  -14.7337  -18.0670 C   0  0  0  0  0  0  0  0  0  0  0  0
   20.0439  -13.2514  -16.8604 C   0  0  0  0  0  0  0  0  0  0  0  0
   19.5604  -12.0523  -17.6053 C   0  0  2  0  0  0  0  0  0  0  0  0
   20.2850  -11.8628  -18.8414 N   0  0  0  0  0  0  0  0  0  0  0  0
   19.7605  -10.8648  -16.7342 C   0  0  0  0  0  0  0  0  0  0  0  0
   19.2330  -10.8015  -15.5726 O   0  0  0  0  0  0  0  0  0  0  0  0
   20.5386   -9.7449  -17.1343 N   0  0  0  0  0  0  0  0  0  0  0  0
   20.7770   -8.6245  -16.2656 C   0  0  1  0  0  0  0  0  0  0  0  0
   22.2116   -8.4175  -15.9004 C   0  0  0  0  0  0  0  0  0  0  0  0
   22.7626   -9.5317  -15.0887 C   0  0  0  0  0  0  0  0  0  0  0  0
   22.4675   -9.6644  -13.7358 C   0  0  0  0  0  0  0  0  0  0  0  0
   22.9716  -10.6959  -12.9720 C   0  0  0  0  0  0  0  0  0  0  0  0
   23.7969  -11.6133  -13.6061 C   0  0  0  0  0  0  0  0  0  0  0  0
   24.1182  -11.5223  -14.9474 C   0  0  0  0  0  0  0  0  0  0  0  0
   23.5870  -10.4629  -15.6856 C   0  0  0  0  0  0  0  0  0  0  0  0
   20.1325   -7.3799  -16.7682 C   0  0  0  0  0  0  0  0  0  0  0  0
   20.3992   -6.9282  -17.9178 O   0  0  0  0  0  0  0  0  0  0  0  0
   16.6701   -6.5462  -17.6761 C   0  0  0  0  0  0  0  0  0  0  0  0
   17.0869   -5.5560  -16.6006 C   0  0  1  0  0  0  0  0  0  0  0  0
   16.5446   -5.9728  -15.3907 O   0  0  0  0  0  0  0  0  0  0  0  0
   18.5944   -5.4331  -16.5305 C   0  0  2  0  0  0  0  0  0  0  0  0
   19.1964   -6.6434  -15.9946 N   0  0  0  0  0  0  0  0  0  0  0  0
   18.9924   -4.2435  -15.7450 C   0  0  0  0  0  0  0  0  0  0  0  0
   18.7731   -3.0724  -16.1439 O   0  0  0  0  0  0  0  0  0  0  0  0
   19.6271   -4.4099  -14.5300 O   0  0  0  0  0  0  0  0  0  0  0  0
  2  4  1  0
  2  1  1  1
  2  3  1  0
  5  4  1  0
  5  6  1  6
  7  5  1  0
  8  7  2  0
  9  7  1  0
 10  9  1  0
 11 12  1  0
 10 11  1  6
 12 13  2  0
 13 14  1  0
 15 14  2  0
 16 15  1  0
 17 16  2  0
 17 12  1  0
 18 10  1  0
 18 19  2  0
 21 20  1  6
 21 22  1  0
 21 23  1  0
 23 24  1  1
 24 18  1  0
 25 23  1  0
 25 27  1  0
 26 25  2  0
M  END
$$$$
