LFT.pdb
     RDKit          3D

 27 27  0  0  1  0  0  0  0  0999 V2000
   12.0321  -11.1458  -15.3030 C   0  0  0  0  0  0  0  0  0  0  0  0
   13.4050  -11.5564  -15.7928 C   0  0  1  0  0  0  0  0  0  0  0  0
   13.6547  -11.0264  -17.1663 C   0  0  0  0  0  0  0  0  0  0  0  0
   14.4764  -11.2686  -14.7950 C   0  0  0  0  0  0  0  0  0  0  0  0
   15.8668  -11.5718  -15.2438 C   0  0  2  0  0  0  0  0  0  0  0  0
   16.1644  -12.9827  -15.1458 N   0  0  0  0  0  0  0  0  0  0  0  0
   16.8015  -10.8133  -14.3721 C   0  0  0  0  0  0  0  0  0  0  0  0
   17.1565  -11.2669  -13.2319 O   0  0  0  0  0  0  0  0  0  0  0  0
   17.3485   -9.5565  -14.7478 N   0  0  0  0  0  0  0  0  0  0  0  0
   18.1854   -8.7880  -13.8671 C   0  0  1  0  0  0  0  0  0  0  0  0
   19.5208   -8.4308  -14.4359 C   0  0  0  0  0  0  0  0  0  0  0  0
   20.3676   -7.6752  -13.4790 C   0  0  0  0  0  0  0  0  0  0  0  0
   20.4713   -6.2891  -13.5331 C   0  0  0  0  0  0  0  0  0  0  0  0
   21.2529   -5.5761  -12.6487 C   0  0  0  0  0  0  0  0  0  0  0  0
   21.9450   -6.2971  -11.6863 C   0  0  0  0  0  0  0  0  0  0  0  0
   21.8731   -7.6744  -11.5939 C   0  0  0  0  0  0  0  0  0  0  0  0
   21.0703   -8.3589  -12.5084 C   0  0  0  0  0  0  0  0  0  0  0  0
   17.4719   -7.6078  -13.3058 C   0  0  0  0  0  0  0  0  0  0  0  0
   16.8009   -6.8389  -14.0508 O   0  0  0  0  0  0  0  0  0  0  0  0
   15.7616   -7.3845   -9.5093 C   0  0  0  0  0  0  0  0  0  0  0  0
   16.6189   -6.1970   -9.9163 C   0  0  1  0  0  0  0  0  0  0  0  0
   17.8449   -6.3027   -9.2701 O   0  0  0  0  0  0  0  0  0  0  0  0
   16.7780   -6.1323  -11.4206 C   0  0  2  0  0  0  0  0  0  0  0  0
   17.5057   -7.2869  -11.9226 N   0  0  0  0  0  0  0  0  0  0  0  0
   17.4302   -4.8684  -11.8300 C   0  0  0  0  0  0  0  0  0  0  0  0
   18.5486   -4.8455  -12.4023 O   0  0  0  0  0  0  0  0  0  0  0  0
   16.8007   -3.6647  -11.5816 O   0  0  0  0  0  0  0  0  0  0  0  0
  2  4  1  0
  2  1  1  1
  2  3  1  0
  5  4  1  0
  5  6  1  1
  7  5  1  0
  8  7  2  0
  9  7  1  0
 10  9  1  0
 11 12  1  0
 10 11  1  6
 12 13  2  0
 13 14  1  0
 15 14  2  0
 16 15  1  0
 17 16  2  0
 17 12  1  0
 18 10  1  0
 18 19  2  0
 21 20  1  6
 21 22  1  0
 21 23  1  0
 23 24  1  1
 24 18  1  0
 25 23  1  0
 25 27  1  0
 26 25  2  0
M  END
$$$$
