LFT.pdb
     RDKit          3D

 27 27  0  0  1  0  0  0  0  0999 V2000
   19.8186  -15.1826  -16.2984 C   0  0  0  0  0  0  0  0  0  0  0  0
   19.3870  -13.9653  -17.0890 C   0  0  1  0  0  0  0  0  0  0  0  0
   18.1626  -14.2640  -17.8898 C   0  0  0  0  0  0  0  0  0  0  0  0
   19.3126  -12.7353  -16.2475 C   0  0  0  0  0  0  0  0  0  0  0  0
   18.8593  -11.5023  -16.9552 C   0  0  2  0  0  0  0  0  0  0  0  0
   19.7774  -11.1196  -18.0037 N   0  0  0  0  0  0  0  0  0  0  0  0
   18.7770  -10.4075  -15.9535 C   0  0  0  0  0  0  0  0  0  0  0  0
   18.1375  -10.5609  -14.8584 O   0  0  0  0  0  0  0  0  0  0  0  0
   19.3950   -9.1428  -16.1498 N   0  0  0  0  0  0  0  0  0  0  0  0
   19.3644   -8.1088  -15.1515 C   0  0  1  0  0  0  0  0  0  0  0  0
   20.7107   -7.6187  -14.7253 C   0  0  0  0  0  0  0  0  0  0  0  0
   21.5083   -8.6630  -14.0348 C   0  0  0  0  0  0  0  0  0  0  0  0
   22.4335   -9.4455  -14.7180 C   0  0  0  0  0  0  0  0  0  0  0  0
   23.1815  -10.4172  -14.0874 C   0  0  0  0  0  0  0  0  0  0  0  0
   22.9790  -10.5932  -12.7261 C   0  0  0  0  0  0  0  0  0  0  0  0
   22.0711   -9.8401  -12.0055 C   0  0  0  0  0  0  0  0  0  0  0  0
   21.3335   -8.8663  -12.6815 C   0  0  0  0  0  0  0  0  0  0  0  0
   18.4463   -6.9976  -15.5252 C   0  0  0  0  0  0  0  0  0  0  0  0
   18.4153   -6.5491  -16.7060 O   0  0  0  0  0  0  0  0  0  0  0  0
   14.7226   -3.8910  -14.4290 C   0  0  0  0  0  0  0  0  0  0  0  0
   15.5284   -5.1324  -14.0819 C   0  0  1  0  0  0  0  0  0  0  0  0
   14.6883   -6.2361  -14.1701 O   0  0  0  0  0  0  0  0  0  0  0  0
   16.7344   -5.2678  -14.9873 C   0  0  2  0  0  0  0  0  0  0  0  0
   17.5681   -6.3905  -14.5885 N   0  0  0  0  0  0  0  0  0  0  0  0
   17.5122   -4.0093  -15.0244 C   0  0  0  0  0  0  0  0  0  0  0  0
   17.3413   -3.1412  -15.9166 O   0  0  0  0  0  0  0  0  0  0  0  0
   18.4619   -3.7658  -14.0520 O   0  0  0  0  0  0  0  0  0  0  0  0
  2  4  1  0
  2  1  1  1
  2  3  1  0
  5  4  1  0
  5  6  1  6
  7  5  1  0
  8  7  2  0
  9  7  1  0
 10  9  1  0
 11 12  1  0
 10 11  1  6
 12 13  2  0
 13 14  1  0
 15 14  2  0
 16 15  1  0
 17 16  2  0
 17 12  1  0
 18 10  1  0
 18 19  2  0
 21 20  1  6
 21 22  1  0
 21 23  1  0
 23 24  1  1
 24 18  1  0
 25 23  1  0
 25 27  1  0
 26 25  2  0
M  END
$$$$
