LFT.pdb
     RDKit          3D

 27 27  0  0  1  0  0  0  0  0999 V2000
   32.9045  -23.1362   -8.2944 C   0  0  0  0  0  0  0  0  0  0  0  0
   32.2013  -22.3562   -9.3854 C   0  0  1  0  0  0  0  0  0  0  0  0
   32.8438  -22.6065  -10.7099 C   0  0  0  0  0  0  0  0  0  0  0  0
   30.7205  -22.5368   -9.3522 C   0  0  0  0  0  0  0  0  0  0  0  0
   29.9567  -21.7461  -10.3611 C   0  0  2  0  0  0  0  0  0  0  0  0
   30.4803  -20.4060  -10.4979 N   0  0  0  0  0  0  0  0  0  0  0  0
   28.5431  -21.6750   -9.9075 C   0  0  0  0  0  0  0  0  0  0  0  0
   27.8507  -22.7345   -9.7350 O   0  0  0  0  0  0  0  0  0  0  0  0
   27.8858  -20.4432   -9.6423 N   0  0  0  0  0  0  0  0  0  0  0  0
   26.5020  -20.3771   -9.2585 C   0  0  1  0  0  0  0  0  0  0  0  0
   26.2221  -19.4735   -8.1011 C   0  0  0  0  0  0  0  0  0  0  0  0
   27.0532  -19.7909   -6.9126 C   0  0  0  0  0  0  0  0  0  0  0  0
   26.7624  -20.8714   -6.0862 C   0  0  0  0  0  0  0  0  0  0  0  0
   27.5279  -21.1773   -4.9808 C   0  0  0  0  0  0  0  0  0  0  0  0
   28.6162  -20.3592   -4.7138 C   0  0  0  0  0  0  0  0  0  0  0  0
   28.9439  -19.2748   -5.5059 C   0  0  0  0  0  0  0  0  0  0  0  0
   28.1433  -18.9992   -6.6160 C   0  0  0  0  0  0  0  0  0  0  0  0
   25.6115  -20.1057  -10.4206 C   0  0  0  0  0  0  0  0  0  0  0  0
   25.8677  -19.1712  -11.2317 O   0  0  0  0  0  0  0  0  0  0  0  0
   25.2125  -21.6547  -13.3956 C   0  0  0  0  0  0  0  0  0  0  0  0
   23.7704  -21.5953  -12.9185 C   0  0  1  0  0  0  0  0  0  0  0  0
   23.3992  -22.8656  -12.4939 O   0  0  0  0  0  0  0  0  0  0  0  0
   23.6028  -20.5631  -11.8235 C   0  0  2  0  0  0  0  0  0  0  0  0
   24.4431  -20.8712  -10.6773 N   0  0  0  0  0  0  0  0  0  0  0  0
   22.1822  -20.4371  -11.4280 C   0  0  0  0  0  0  0  0  0  0  0  0
   21.7842  -20.6968  -10.2648 O   0  0  0  0  0  0  0  0  0  0  0  0
   21.2500  -20.0208  -12.3578 O   0  0  0  0  0  0  0  0  0  0  0  0
  2  4  1  0
  2  1  1  1
  2  3  1  0
  5  4  1  0
  5  6  1  1
  7  5  1  0
  8  7  2  0
  9  7  1  0
 10  9  1  0
 11 12  1  0
 10 11  1  1
 12 13  2  0
 13 14  1  0
 15 14  2  0
 16 15  1  0
 17 16  2  0
 17 12  1  0
 18 10  1  0
 18 19  2  0
 21 20  1  1
 21 22  1  0
 21 23  1  0
 23 24  1  1
 24 18  1  0
 25 23  1  0
 25 27  1  0
 26 25  2  0
M  END
$$$$
