SKL.pdb
     RDKit          3D

 24 23  0  0  1  0  0  0  0  0999 V2000
    9.5586  -14.4307   20.3155 O   0  0  0  0  0  0  0  0  0  0  0  0
    8.4054  -14.4700   19.5779 C   0  0  0  0  0  0  0  0  0  0  0  0
    7.5655  -15.6997   19.8318 C   0  0  2  0  0  0  0  0  0  0  0  0
    6.4132  -15.7225   18.9628 N   0  0  0  0  0  0  0  0  0  0  0  0
    7.1792  -15.8319   21.2554 C   0  0  0  0  0  0  0  0  0  0  0  0
    6.1793  -15.1874   21.6551 O   0  0  0  0  0  0  0  0  0  0  0  0
    7.8887  -16.6426   22.1478 N   0  0  0  0  0  0  0  0  0  0  0  0
    7.5336  -16.8657   23.5283 C   0  0  1  0  0  0  0  0  0  0  0  0
    7.8380  -18.3400   23.8273 C   0  0  0  0  0  0  0  0  0  0  0  0
    7.3642  -18.6362   25.2478 C   0  0  0  0  0  0  0  0  0  0  0  0
    7.5765  -20.1101   25.4792 C   0  0  0  0  0  0  0  0  0  0  0  0
    6.9777  -20.4978   26.7928 C   0  0  0  0  0  0  0  0  0  0  0  0
    7.1837  -21.9076   26.9998 N   0  0  0  0  0  0  0  0  0  0  0  0
    8.3167  -16.0602   24.4745 C   0  0  0  0  0  0  0  0  0  0  0  0
    9.5527  -15.8933   24.3653 O   0  0  0  0  0  0  0  0  0  0  0  0
    5.4861  -12.1038   27.0764 C   0  0  0  0  0  0  0  0  0  0  0  0
    6.4432  -12.9480   26.1741 C   0  0  1  0  0  0  0  0  0  0  0  0
    7.0077  -11.9860   25.1347 C   0  0  0  0  0  0  0  0  0  0  0  0
    7.4824  -13.5621   27.0412 C   0  0  0  0  0  0  0  0  0  0  0  0
    8.4029  -14.5553   26.4823 C   0  0  2  0  0  0  0  0  0  0  0  0
    7.6347  -15.4506   25.5528 N   0  0  0  0  0  0  0  0  0  0  0  0
    9.2831  -15.3571   27.3010 C   0  0  0  0  0  0  0  0  0  0  0  0
    9.3107  -16.5944   27.4579 O   0  0  0  0  0  0  0  0  0  0  0  0
   10.2724  -14.6538   28.0485 O   0  0  0  0  0  0  0  0  0  0  0  0
  2  1  1  0
  3  2  1  0
  3  4  1  6
  5  6  2  0
  5  3  1  0
  7  5  1  0
  8  9  1  1
  8  7  1  0
  9 10  1  0
 11 10  1  0
 11 12  1  0
 12 13  1  0
 14  8  1  0
 15 14  2  0
 17 16  1  1
 18 17  1  0
 19 17  1  0
 20 19  1  1
 20 21  1  0
 21 14  1  0
 22 24  1  0
 22 20  1  0
 23 22  2  0
M  END
$$$$
