SKL.pdb
     RDKit          3D

 24 23  0  0  1  0  0  0  0  0999 V2000
    9.6629  -13.3399   19.8372 O   0  0  0  0  0  0  0  0  0  0  0  0
    9.1656  -14.6003   19.6382 C   0  0  0  0  0  0  0  0  0  0  0  0
    7.6646  -14.6891   19.7838 C   0  0  2  0  0  0  0  0  0  0  0  0
    7.0296  -13.4888   19.2943 N   0  0  0  0  0  0  0  0  0  0  0  0
    7.2522  -14.9983   21.1723 C   0  0  0  0  0  0  0  0  0  0  0  0
    6.7446  -14.0747   21.8538 O   0  0  0  0  0  0  0  0  0  0  0  0
    7.4120  -16.2706   21.7313 N   0  0  0  0  0  0  0  0  0  0  0  0
    7.1164  -16.6189   23.0998 C   0  0  1  0  0  0  0  0  0  0  0  0
    7.3414  -18.1319   23.2264 C   0  0  0  0  0  0  0  0  0  0  0  0
    6.9765  -18.5410   24.6510 C   0  0  0  0  0  0  0  0  0  0  0  0
    7.2737  -20.0135   24.7707 C   0  0  0  0  0  0  0  0  0  0  0  0
    6.7854  -20.5127   26.0925 C   0  0  0  0  0  0  0  0  0  0  0  0
    7.0946  -21.9145   26.2032 N   0  0  0  0  0  0  0  0  0  0  0  0
    7.9978  -15.9658   24.0764 C   0  0  0  0  0  0  0  0  0  0  0  0
    9.2188  -15.7791   23.8724 O   0  0  0  0  0  0  0  0  0  0  0  0
    5.6251  -12.1406   27.1936 C   0  0  0  0  0  0  0  0  0  0  0  0
    6.5047  -12.9462   26.1836 C   0  0  1  0  0  0  0  0  0  0  0  0
    7.1892  -11.9126   25.2961 C   0  0  0  0  0  0  0  0  0  0  0  0
    7.4549  -13.7866   26.9580 C   0  0  0  0  0  0  0  0  0  0  0  0
    8.2919  -14.7678   26.2631 C   0  0  2  0  0  0  0  0  0  0  0  0
    7.4322  -15.5325   25.2978 N   0  0  0  0  0  0  0  0  0  0  0  0
    9.1652  -15.6858   26.9578 C   0  0  0  0  0  0  0  0  0  0  0  0
   10.1679  -15.4474   27.6605 O   0  0  0  0  0  0  0  0  0  0  0  0
    8.8561  -17.0722   26.8367 O   0  0  0  0  0  0  0  0  0  0  0  0
  2  1  1  0
  3  2  1  0
  3  4  1  1
  5  6  2  0
  5  3  1  0
  7  5  1  0
  8  9  1  6
  8  7  1  0
  9 10  1  0
 11 10  1  0
 11 12  1  0
 12 13  1  0
 14  8  1  0
 15 14  2  0
 17 16  1  1
 18 17  1  0
 19 17  1  0
 20 19  1  1
 20 21  1  0
 21 14  1  0
 22 24  1  0
 22 20  1  0
 23 22  2  0
M  END
$$$$
