SKL.pdb
     RDKit          3D

 24 23  0  0  1  0  0  0  0  0999 V2000
    9.6293  -13.8299   20.6143 O   0  0  0  0  0  0  0  0  0  0  0  0
    8.5141  -13.5880   19.8571 C   0  0  0  0  0  0  0  0  0  0  0  0
    7.5452  -14.7464   19.8186 C   0  0  2  0  0  0  0  0  0  0  0  0
    6.4453  -14.4660   18.9268 N   0  0  0  0  0  0  0  0  0  0  0  0
    7.0706  -15.1270   21.1689 C   0  0  0  0  0  0  0  0  0  0  0  0
    6.1457  -14.4494   21.6791 O   0  0  0  0  0  0  0  0  0  0  0  0
    7.6183  -16.2030   21.8754 N   0  0  0  0  0  0  0  0  0  0  0  0
    7.2805  -16.5639   23.2309 C   0  0  1  0  0  0  0  0  0  0  0  0
    7.5972  -18.0583   23.3794 C   0  0  0  0  0  0  0  0  0  0  0  0
    7.2108  -18.4795   24.7947 C   0  0  0  0  0  0  0  0  0  0  0  0
    7.4198  -19.9695   24.8780 C   0  0  0  0  0  0  0  0  0  0  0  0
    7.1070  -20.4382   26.2626 C   0  0  0  0  0  0  0  0  0  0  0  0
    7.3254  -21.8595   26.3329 N   0  0  0  0  0  0  0  0  0  0  0  0
    8.0695  -15.8502   24.2435 C   0  0  0  0  0  0  0  0  0  0  0  0
    9.3187  -15.7768   24.2049 O   0  0  0  0  0  0  0  0  0  0  0  0
    5.8890  -11.3960   26.5905 C   0  0  0  0  0  0  0  0  0  0  0  0
    6.8079  -12.4047   25.8284 C   0  0  1  0  0  0  0  0  0  0  0  0
    7.8521  -11.5645   25.1015 C   0  0  0  0  0  0  0  0  0  0  0  0
    7.3894  -13.3478   26.8190 C   0  0  0  0  0  0  0  0  0  0  0  0
    8.1686  -14.4994   26.3575 C   0  0  2  0  0  0  0  0  0  0  0  0
    7.3777  -15.2218   25.3046 N   0  0  0  0  0  0  0  0  0  0  0  0
    8.7550  -15.4625   27.2610 C   0  0  0  0  0  0  0  0  0  0  0  0
    8.5085  -16.6784   27.3920 O   0  0  0  0  0  0  0  0  0  0  0  0
    9.7647  -14.9756   28.1416 O   0  0  0  0  0  0  0  0  0  0  0  0
  2  1  1  0
  3  2  1  0
  3  4  1  6
  5  6  2  0
  5  3  1  0
  7  5  1  0
  8  9  1  6
  8  7  1  0
  9 10  1  0
 11 10  1  0
 11 12  1  0
 12 13  1  0
 14  8  1  0
 15 14  2  0
 17 16  1  1
 18 17  1  0
 19 17  1  0
 20 19  1  1
 20 21  1  0
 21 14  1  0
 22 24  1  0
 22 20  1  0
 23 22  2  0
M  END
$$$$
