SKL.pdb
     RDKit          3D

 24 23  0  0  1  0  0  0  0  0999 V2000
    6.4710  -18.6863   24.2001 O   0  0  0  0  0  0  0  0  0  0  0  0
    5.4476  -18.2391   23.4077 C   0  0  0  0  0  0  0  0  0  0  0  0
    5.8236  -18.1053   21.9507 C   0  0  2  0  0  0  0  0  0  0  0  0
    5.8879  -19.4003   21.3164 N   0  0  0  0  0  0  0  0  0  0  0  0
    7.0784  -17.3416   21.7623 C   0  0  0  0  0  0  0  0  0  0  0  0
    8.1072  -17.9760   21.4242 O   0  0  0  0  0  0  0  0  0  0  0  0
    7.1429  -15.9566   21.9486 N   0  0  0  0  0  0  0  0  0  0  0  0
    8.3257  -15.1497   21.7714 C   0  0  1  0  0  0  0  0  0  0  0  0
    7.9234  -13.9720   20.8732 C   0  0  0  0  0  0  0  0  0  0  0  0
    7.7097  -14.5124   19.4618 C   0  0  0  0  0  0  0  0  0  0  0  0
    8.2884  -13.4943   18.5134 C   0  0  0  0  0  0  0  0  0  0  0  0
    8.0113  -13.9134   17.1055 C   0  0  0  0  0  0  0  0  0  0  0  0
    8.5474  -12.9209   16.2108 N   0  0  0  0  0  0  0  0  0  0  0  0
    8.8441  -14.5833   23.0235 C   0  0  0  0  0  0  0  0  0  0  0  0
    9.2738  -13.4109   23.1132 O   0  0  0  0  0  0  0  0  0  0  0  0
    8.0368  -11.6642   26.5924 C   0  0  0  0  0  0  0  0  0  0  0  0
    7.3045  -13.0381   26.7299 C   0  0  1  0  0  0  0  0  0  0  0  0
    5.8234  -12.7168   26.8952 C   0  0  0  0  0  0  0  0  0  0  0  0
    7.6047  -13.8509   25.5224 C   0  0  0  0  0  0  0  0  0  0  0  0
    8.7501  -14.7642   25.5259 C   0  0  2  0  0  0  0  0  0  0  0  0
    8.8539  -15.4074   24.1726 N   0  0  0  0  0  0  0  0  0  0  0  0
    8.9521  -15.7650   26.5485 C   0  0  0  0  0  0  0  0  0  0  0  0
    8.5007  -16.9256   26.6214 O   0  0  0  0  0  0  0  0  0  0  0  0
    9.7848  -15.3948   27.6447 O   0  0  0  0  0  0  0  0  0  0  0  0
  2  1  1  0
  3  2  1  0
  3  4  1  1
  5  6  2  0
  5  3  1  0
  7  5  1  0
  8  9  1  6
  8  7  1  0
  9 10  1  0
 11 10  1  0
 11 12  1  0
 12 13  1  0
 14  8  1  0
 15 14  2  0
 17 16  1  6
 18 17  1  0
 19 17  1  0
 20 19  1  1
 20 21  1  0
 21 14  1  0
 22 24  1  0
 22 20  1  0
 23 22  2  0
M  END
$$$$
