SKL.pdb
     RDKit          3D

 24 23  0  0  1  0  0  0  0  0999 V2000
   10.3209  -13.0291   20.2256 O   0  0  0  0  0  0  0  0  0  0  0  0
    9.7918  -13.8963   19.3072 C   0  0  0  0  0  0  0  0  0  0  0  0
    8.2815  -13.9283   19.3044 C   0  0  2  0  0  0  0  0  0  0  0  0
    7.7417  -12.6435   18.9285 N   0  0  0  0  0  0  0  0  0  0  0  0
    7.7272  -14.3976   20.5951 C   0  0  0  0  0  0  0  0  0  0  0  0
    7.2172  -13.5439   21.3606 O   0  0  0  0  0  0  0  0  0  0  0  0
    7.7580  -15.7440   20.9738 N   0  0  0  0  0  0  0  0  0  0  0  0
    7.2943  -16.2611   22.2384 C   0  0  1  0  0  0  0  0  0  0  0  0
    7.4374  -17.7876   22.1676 C   0  0  0  0  0  0  0  0  0  0  0  0
    6.8382  -18.3728   23.4437 C   0  0  0  0  0  0  0  0  0  0  0  0
    6.8430  -19.8708   23.2799 C   0  0  0  0  0  0  0  0  0  0  0  0
    6.2289  -20.5042   24.4866 C   0  0  0  0  0  0  0  0  0  0  0  0
    6.0964  -21.9186   24.2527 N   0  0  0  0  0  0  0  0  0  0  0  0
    8.0870  -15.8035   23.3871 C   0  0  0  0  0  0  0  0  0  0  0  0
    9.3388  -15.7850   23.3855 O   0  0  0  0  0  0  0  0  0  0  0  0
    6.0621  -11.8708   26.6145 C   0  0  0  0  0  0  0  0  0  0  0  0
    6.9030  -12.7687   25.6503 C   0  0  1  0  0  0  0  0  0  0  0  0
    7.9514  -11.8560   25.0240 C   0  0  0  0  0  0  0  0  0  0  0  0
    7.4837  -13.8862   26.4395 C   0  0  0  0  0  0  0  0  0  0  0  0
    8.1884  -14.9723   25.7540 C   0  0  2  0  0  0  0  0  0  0  0  0
    7.3958  -15.3667   24.5407 N   0  0  0  0  0  0  0  0  0  0  0  0
    8.6470  -16.1619   26.4340 C   0  0  0  0  0  0  0  0  0  0  0  0
    8.3360  -17.3545   26.2410 O   0  0  0  0  0  0  0  0  0  0  0  0
    9.5929  -15.9700   27.4830 O   0  0  0  0  0  0  0  0  0  0  0  0
  2  1  1  0
  3  2  1  0
  3  4  1  1
  5  6  2  0
  5  3  1  0
  7  5  1  0
  8  9  1  6
  8  7  1  0
  9 10  1  0
 11 10  1  0
 11 12  1  0
 12 13  1  0
 14  8  1  0
 15 14  2  0
 17 16  1  1
 18 17  1  0
 19 17  1  0
 20 19  1  1
 20 21  1  0
 21 14  1  0
 22 24  1  0
 22 20  1  0
 23 22  2  0
M  END
$$$$
