SKL.pdb
     RDKit          3D

 24 23  0  0  1  0  0  0  0  0999 V2000
   11.0396  -13.4567   19.0171 O   0  0  0  0  0  0  0  0  0  0  0  0
    9.9514  -13.1518   19.7904 C   0  0  0  0  0  0  0  0  0  0  0  0
    8.7066  -13.9208   19.4146 C   0  0  2  0  0  0  0  0  0  0  0  0
    7.8562  -13.1324   18.5552 N   0  0  0  0  0  0  0  0  0  0  0  0
    7.9737  -14.4181   20.6016 C   0  0  0  0  0  0  0  0  0  0  0  0
    7.1237  -13.6592   21.1276 O   0  0  0  0  0  0  0  0  0  0  0  0
    8.2020  -15.6889   21.1400 N   0  0  0  0  0  0  0  0  0  0  0  0
    7.5381  -16.2297   22.3012 C   0  0  1  0  0  0  0  0  0  0  0  0
    7.6446  -17.7573   22.1961 C   0  0  0  0  0  0  0  0  0  0  0  0
    6.8762  -18.3610   23.3688 C   0  0  0  0  0  0  0  0  0  0  0  0
    7.0104  -19.8574   23.2531 C   0  0  0  0  0  0  0  0  0  0  0  0
    6.0831  -20.5156   24.2234 C   0  0  0  0  0  0  0  0  0  0  0  0
    6.2683  -21.9415   24.1496 N   0  0  0  0  0  0  0  0  0  0  0  0
    8.1623  -15.8374   23.5714 C   0  0  0  0  0  0  0  0  0  0  0  0
    9.4027  -15.7740   23.7288 O   0  0  0  0  0  0  0  0  0  0  0  0
    5.6997  -12.0639   26.7068 C   0  0  0  0  0  0  0  0  0  0  0  0
    6.7997  -12.8314   25.9044 C   0  0  1  0  0  0  0  0  0  0  0  0
    8.0056  -11.9010   25.8378 C   0  0  0  0  0  0  0  0  0  0  0  0
    7.0773  -14.1144   26.6012 C   0  0  0  0  0  0  0  0  0  0  0  0
    7.9359  -15.1170   25.9659 C   0  0  2  0  0  0  0  0  0  0  0  0
    7.3157  -15.5193   24.6584 N   0  0  0  0  0  0  0  0  0  0  0  0
    8.4074  -16.2962   26.6552 C   0  0  0  0  0  0  0  0  0  0  0  0
    8.0010  -17.4732   26.5805 O   0  0  0  0  0  0  0  0  0  0  0  0
    9.4947  -16.1125   27.5586 O   0  0  0  0  0  0  0  0  0  0  0  0
  2  1  1  0
  3  2  1  0
  3  4  1  1
  5  6  2  0
  5  3  1  0
  7  5  1  0
  8  9  1  6
  8  7  1  0
  9 10  1  0
 11 10  1  0
 11 12  1  0
 12 13  1  0
 14  8  1  0
 15 14  2  0
 17 16  1  1
 18 17  1  0
 19 17  1  0
 20 19  1  1
 20 21  1  0
 21 14  1  0
 22 24  1  0
 22 20  1  0
 23 22  2  0
M  END
$$$$
