SKL.pdb
     RDKit          3D

 24 23  0  0  1  0  0  0  0  0999 V2000
   10.0067  -14.9947   19.7082 O   0  0  0  0  0  0  0  0  0  0  0  0
   10.0377  -16.2805   19.2381 C   0  0  0  0  0  0  0  0  0  0  0  0
    8.7738  -17.0588   19.5190 C   0  0  2  0  0  0  0  0  0  0  0  0
    7.6935  -16.6045   18.6763 N   0  0  0  0  0  0  0  0  0  0  0  0
    8.4003  -17.0255   20.9518 C   0  0  0  0  0  0  0  0  0  0  0  0
    7.4373  -16.2958   21.2911 O   0  0  0  0  0  0  0  0  0  0  0  0
    9.0824  -17.7736   21.9172 N   0  0  0  0  0  0  0  0  0  0  0  0
    8.7979  -17.7596   23.3316 C   0  0  1  0  0  0  0  0  0  0  0  0
    9.6599  -18.8609   23.9639 C   0  0  0  0  0  0  0  0  0  0  0  0
    9.3126  -18.9316   25.4486 C   0  0  0  0  0  0  0  0  0  0  0  0
   10.2420  -19.9448   26.0654 C   0  0  0  0  0  0  0  0  0  0  0  0
    9.8326  -20.1971   27.4808 C   0  0  0  0  0  0  0  0  0  0  0  0
   10.6628  -21.2392   28.0263 N   0  0  0  0  0  0  0  0  0  0  0  0
    9.1550  -16.4966   23.9908 C   0  0  0  0  0  0  0  0  0  0  0  0
   10.1469  -15.8106   23.6546 O   0  0  0  0  0  0  0  0  0  0  0  0
    5.8328  -11.9410   25.6844 C   0  0  0  0  0  0  0  0  0  0  0  0
    7.2893  -12.4715   25.8845 C   0  0  1  0  0  0  0  0  0  0  0  0
    7.5960  -12.3242   27.3707 C   0  0  0  0  0  0  0  0  0  0  0  0
    7.3456  -13.8764   25.4030 C   0  0  0  0  0  0  0  0  0  0  0  0
    8.5623  -14.6669   25.6046 C   0  0  2  0  0  0  0  0  0  0  0  0
    8.3356  -16.0445   25.0508 N   0  0  0  0  0  0  0  0  0  0  0  0
    9.2291  -14.7682   26.8825 C   0  0  0  0  0  0  0  0  0  0  0  0
   10.1683  -14.0880   27.3423 O   0  0  0  0  0  0  0  0  0  0  0  0
    8.7633  -15.7874   27.7637 O   0  0  0  0  0  0  0  0  0  0  0  0
  2  1  1  0
  3  2  1  0
  3  4  1  6
  5  6  2  0
  5  3  1  0
  7  5  1  0
  8  9  1  1
  8  7  1  0
  9 10  1  0
 11 10  1  0
 11 12  1  0
 12 13  1  0
 14  8  1  0
 15 14  2  0
 17 16  1  1
 18 17  1  0
 19 17  1  0
 20 19  1  1
 20 21  1  0
 21 14  1  0
 22 24  1  0
 22 20  1  0
 23 22  2  0
M  END
$$$$
