SKL.pdb
     RDKit          3D

 24 23  0  0  1  0  0  0  0  0999 V2000
    9.8020  -14.8931   20.7866 O   0  0  0  0  0  0  0  0  0  0  0  0
    8.6893  -14.7821   19.9961 C   0  0  0  0  0  0  0  0  0  0  0  0
    7.6722  -15.8755   20.2247 C   0  0  2  0  0  0  0  0  0  0  0  0
    6.5504  -15.7284   19.3284 N   0  0  0  0  0  0  0  0  0  0  0  0
    7.2363  -15.9505   21.6382 C   0  0  0  0  0  0  0  0  0  0  0  0
    6.4363  -15.0772   22.0534 O   0  0  0  0  0  0  0  0  0  0  0  0
    7.6865  -16.9523   22.5046 N   0  0  0  0  0  0  0  0  0  0  0  0
    7.4170  -17.0073   23.9209 C   0  0  1  0  0  0  0  0  0  0  0  0
    7.7338  -18.4394   24.3730 C   0  0  0  0  0  0  0  0  0  0  0  0
    7.3372  -18.5644   25.8417 C   0  0  0  0  0  0  0  0  0  0  0  0
    7.6031  -19.9920   26.2445 C   0  0  0  0  0  0  0  0  0  0  0  0
    7.1802  -20.1943   27.6640 C   0  0  0  0  0  0  0  0  0  0  0  0
    7.4684  -21.5521   28.0460 N   0  0  0  0  0  0  0  0  0  0  0  0
    8.2603  -16.1047   24.7155 C   0  0  0  0  0  0  0  0  0  0  0  0
    9.4974  -16.0078   24.5495 O   0  0  0  0  0  0  0  0  0  0  0  0
    5.8456  -11.5227   26.5078 C   0  0  0  0  0  0  0  0  0  0  0  0
    6.7388  -12.6003   25.8122 C   0  0  1  0  0  0  0  0  0  0  0  0
    7.4704  -11.8830   24.6831 C   0  0  0  0  0  0  0  0  0  0  0  0
    7.6482  -13.1835   26.8328 C   0  0  0  0  0  0  0  0  0  0  0  0
    8.4741  -14.3449   26.4933 C   0  0  2  0  0  0  0  0  0  0  0  0
    7.6373  -15.3148   25.7092 N   0  0  0  0  0  0  0  0  0  0  0  0
    9.2526  -15.0671   27.4732 C   0  0  0  0  0  0  0  0  0  0  0  0
   10.1341  -14.6481   28.2501 O   0  0  0  0  0  0  0  0  0  0  0  0
    8.9936  -16.4643   27.5867 O   0  0  0  0  0  0  0  0  0  0  0  0
  2  1  1  0
  3  2  1  0
  3  4  1  6
  5  6  2  0
  5  3  1  0
  7  5  1  0
  8  9  1  1
  8  7  1  0
  9 10  1  0
 11 10  1  0
 11 12  1  0
 12 13  1  0
 14  8  1  0
 15 14  2  0
 17 16  1  1
 18 17  1  0
 19 17  1  0
 20 19  1  1
 20 21  1  0
 21 14  1  0
 22 24  1  0
 22 20  1  0
 23 22  2  0
M  END
$$$$
