SKL.pdb
     RDKit          3D

 24 23  0  0  1  0  0  0  0  0999 V2000
    9.8591  -12.6363   20.1171 O   0  0  0  0  0  0  0  0  0  0  0  0
    9.5297  -13.6945   19.3126 C   0  0  0  0  0  0  0  0  0  0  0  0
    8.0692  -14.0746   19.3794 C   0  0  2  0  0  0  0  0  0  0  0  0
    7.2329  -12.9734   18.9651 N   0  0  0  0  0  0  0  0  0  0  0  0
    7.6815  -14.5826   20.7155 C   0  0  0  0  0  0  0  0  0  0  0  0
    7.0675  -13.8040   21.4847 O   0  0  0  0  0  0  0  0  0  0  0  0
    7.9779  -15.8847   21.1323 N   0  0  0  0  0  0  0  0  0  0  0  0
    7.5788  -16.4638   22.3921 C   0  0  1  0  0  0  0  0  0  0  0  0
    7.9708  -17.9467   22.3375 C   0  0  0  0  0  0  0  0  0  0  0  0
    7.4928  -18.6044   23.6294 C   0  0  0  0  0  0  0  0  0  0  0  0
    6.4942  -19.6621   23.2360 C   0  0  0  0  0  0  0  0  0  0  0  0
    5.9759  -20.3372   24.4649 C   0  0  0  0  0  0  0  0  0  0  0  0
    4.9053  -21.2245   24.0915 N   0  0  0  0  0  0  0  0  0  0  0  0
    8.2621  -15.8766   23.5520 C   0  0  0  0  0  0  0  0  0  0  0  0
    9.4895  -15.6299   23.5654 O   0  0  0  0  0  0  0  0  0  0  0  0
    5.6161  -12.1616   26.6221 C   0  0  0  0  0  0  0  0  0  0  0  0
    6.6526  -12.9146   25.7268 C   0  0  1  0  0  0  0  0  0  0  0  0
    7.6765  -11.8721   25.2916 C   0  0  0  0  0  0  0  0  0  0  0  0
    7.2375  -14.0255   26.5221 C   0  0  0  0  0  0  0  0  0  0  0  0
    8.1682  -14.9628   25.8886 C   0  0  2  0  0  0  0  0  0  0  0  0
    7.4903  -15.5807   24.6993 N   0  0  0  0  0  0  0  0  0  0  0  0
    8.8716  -15.9880   26.6250 C   0  0  0  0  0  0  0  0  0  0  0  0
    8.6916  -17.2224   26.6331 O   0  0  0  0  0  0  0  0  0  0  0  0
    9.9296  -15.5488   27.4735 O   0  0  0  0  0  0  0  0  0  0  0  0
  2  1  1  0
  3  2  1  0
  3  4  1  1
  5  6  2  0
  5  3  1  0
  7  5  1  0
  8  9  1  6
  8  7  1  0
  9 10  1  0
 11 10  1  0
 11 12  1  0
 12 13  1  0
 14  8  1  0
 15 14  2  0
 17 16  1  1
 18 17  1  0
 19 17  1  0
 20 19  1  1
 20 21  1  0
 21 14  1  0
 22 24  1  0
 22 20  1  0
 23 22  2  0
M  END
$$$$
