SKL.pdb
     RDKit          3D

 24 23  0  0  1  0  0  0  0  0999 V2000
    6.4149  -18.6436   25.3418 O   0  0  0  0  0  0  0  0  0  0  0  0
    5.3466  -18.7817   24.4961 C   0  0  0  0  0  0  0  0  0  0  0  0
    5.7368  -18.8995   23.0415 C   0  0  2  0  0  0  0  0  0  0  0  0
    6.0295  -20.2707   22.6982 N   0  0  0  0  0  0  0  0  0  0  0  0
    6.8550  -17.9962   22.6849 C   0  0  0  0  0  0  0  0  0  0  0  0
    8.0077  -18.4875   22.6151 O   0  0  0  0  0  0  0  0  0  0  0  0
    6.6605  -16.6347   22.4291 N   0  0  0  0  0  0  0  0  0  0  0  0
    7.6979  -15.7039   22.0561 C   0  0  1  0  0  0  0  0  0  0  0  0
    6.9972  -14.5019   21.4082 C   0  0  0  0  0  0  0  0  0  0  0  0
    8.0758  -13.5265   20.9443 C   0  0  0  0  0  0  0  0  0  0  0  0
    7.9284  -13.3925   19.4506 C   0  0  0  0  0  0  0  0  0  0  0  0
    8.9997  -12.4923   18.9247 C   0  0  0  0  0  0  0  0  0  0  0  0
    8.8525  -12.3789   17.4970 N   0  0  0  0  0  0  0  0  0  0  0  0
    8.4684  -15.1937   23.1977 C   0  0  0  0  0  0  0  0  0  0  0  0
    9.4528  -14.4314   23.0676 O   0  0  0  0  0  0  0  0  0  0  0  0
    5.6737  -12.8553   26.7977 C   0  0  0  0  0  0  0  0  0  0  0  0
    6.8966  -13.1512   25.8704 C   0  0  1  0  0  0  0  0  0  0  0  0
    7.6753  -11.8449   25.7623 C   0  0  0  0  0  0  0  0  0  0  0  0
    7.6805  -14.2620   26.4705 C   0  0  0  0  0  0  0  0  0  0  0  0
    8.7193  -14.9291   25.6817 C   0  0  2  0  0  0  0  0  0  0  0  0
    8.0722  -15.5872   24.4968 N   0  0  0  0  0  0  0  0  0  0  0  0
    9.6863  -15.8322   26.2623 C   0  0  0  0  0  0  0  0  0  0  0  0
   10.4090  -15.6798   27.2676 O   0  0  0  0  0  0  0  0  0  0  0  0
    9.8576  -17.0869   25.6077 O   0  0  0  0  0  0  0  0  0  0  0  0
  2  1  1  0
  3  2  1  0
  3  4  1  1
  5  6  2  0
  5  3  1  0
  7  5  1  0
  8  9  1  1
  8  7  1  0
  9 10  1  0
 11 10  1  0
 11 12  1  0
 12 13  1  0
 14  8  1  0
 15 14  2  0
 17 16  1  1
 18 17  1  0
 19 17  1  0
 20 19  1  1
 20 21  1  0
 21 14  1  0
 22 24  1  0
 22 20  1  0
 23 22  2  0
M  END
$$$$
