SKL.pdb
     RDKit          3D

 24 23  0  0  1  0  0  0  0  0999 V2000
    9.8904  -13.2608   20.1556 O   0  0  0  0  0  0  0  0  0  0  0  0
    9.3325  -14.2463   19.3856 C   0  0  0  0  0  0  0  0  0  0  0  0
    7.8452  -14.4093   19.5946 C   0  0  2  0  0  0  0  0  0  0  0  0
    7.1337  -13.2315   19.1587 N   0  0  0  0  0  0  0  0  0  0  0  0
    7.5100  -14.7641   20.9929 C   0  0  0  0  0  0  0  0  0  0  0  0
    7.0428  -13.8636   21.7316 O   0  0  0  0  0  0  0  0  0  0  0  0
    7.6982  -16.0543   21.4998 N   0  0  0  0  0  0  0  0  0  0  0  0
    7.3149  -16.4911   22.8204 C   0  0  1  0  0  0  0  0  0  0  0  0
    7.5592  -18.0056   22.8702 C   0  0  0  0  0  0  0  0  0  0  0  0
    7.0683  -18.5139   24.2232 C   0  0  0  0  0  0  0  0  0  0  0  0
    7.1795  -20.0164   24.1902 C   0  0  0  0  0  0  0  0  0  0  0  0
    6.5274  -20.5893   25.4073 C   0  0  0  0  0  0  0  0  0  0  0  0
    6.6428  -22.0237   25.3650 N   0  0  0  0  0  0  0  0  0  0  0  0
    8.1139  -15.8870   23.8946 C   0  0  0  0  0  0  0  0  0  0  0  0
    9.3578  -15.7621   23.8291 O   0  0  0  0  0  0  0  0  0  0  0  0
    5.7864  -11.9330   26.8771 C   0  0  0  0  0  0  0  0  0  0  0  0
    6.6985  -12.7985   25.9487 C   0  0  1  0  0  0  0  0  0  0  0  0
    7.6030  -11.8200   25.2078 C   0  0  0  0  0  0  0  0  0  0  0  0
    7.4405  -13.7689   26.7951 C   0  0  0  0  0  0  0  0  0  0  0  0
    8.2401  -14.8221   26.1648 C   0  0  2  0  0  0  0  0  0  0  0  0
    7.4382  -15.4296   25.0495 N   0  0  0  0  0  0  0  0  0  0  0  0
    8.8863  -15.8728   26.9173 C   0  0  0  0  0  0  0  0  0  0  0  0
    8.6229  -17.0913   26.9637 O   0  0  0  0  0  0  0  0  0  0  0  0
    9.9883  -15.4845   27.7341 O   0  0  0  0  0  0  0  0  0  0  0  0
  2  1  1  0
  3  2  1  0
  3  4  1  1
  5  6  2  0
  5  3  1  0
  7  5  1  0
  8  9  1  6
  8  7  1  0
  9 10  1  0
 11 10  1  0
 11 12  1  0
 12 13  1  0
 14  8  1  0
 15 14  2  0
 17 16  1  1
 18 17  1  0
 19 17  1  0
 20 19  1  1
 20 21  1  0
 21 14  1  0
 22 24  1  0
 22 20  1  0
 23 22  2  0
M  END
$$$$
