WDY.pdb
     RDKit          3D

 35 37  0  0  1  0  0  0  0  0999 V2000
   14.5534  -15.0556    7.1868 N   0  0  0  0  0  0  0  0  0  0  0  0
   16.0346  -15.0490    7.1994 C   0  0  1  0  0  0  0  0  0  0  0  0
   16.4654  -13.6676    7.3172 C   0  0  0  0  0  0  0  0  0  0  0  0
   17.3825  -13.1753    6.2807 C   0  0  0  0  0  0  0  0  0  0  0  0
   17.1130  -13.0342    4.9507 C   0  0  0  0  0  0  0  0  0  0  0  0
   18.1896  -12.6061    4.2778 N   0  0  0  0  0  0  0  0  0  0  0  0
   19.1772  -12.4674    5.1912 C   0  0  0  0  0  0  0  0  0  0  0  0
   20.5062  -12.0547    5.0462 C   0  0  0  0  0  0  0  0  0  0  0  0
   21.3134  -12.0016    6.1438 C   0  0  0  0  0  0  0  0  0  0  0  0
   20.8529  -12.3461    7.4030 C   0  0  0  0  0  0  0  0  0  0  0  0
   19.5530  -12.7499    7.5458 C   0  0  0  0  0  0  0  0  0  0  0  0
   18.7138  -12.8111    6.4416 C   0  0  0  0  0  0  0  0  0  0  0  0
   16.5337  -16.1109    8.0560 C   0  0  0  0  0  0  0  0  0  0  0  0
   16.9652  -15.7991    9.2480 O   0  0  0  0  0  0  0  0  0  0  0  0
   16.6420  -17.4927    7.8077 N   0  0  0  0  0  0  0  0  0  0  0  0
   16.9564  -18.4910    8.8373 C   0  0  1  0  0  0  0  0  0  0  0  0
   16.1481  -18.2600   10.0632 C   0  0  0  0  0  0  0  0  0  0  0  0
   16.4209  -19.1868   11.1630 C   0  0  0  0  0  0  0  0  0  0  0  0
   17.5161  -19.7886   11.2517 O   0  0  0  0  0  0  0  0  0  0  0  0
   16.8120  -19.8566    8.2994 C   0  0  0  0  0  0  0  0  0  0  0  0
   17.0189  -20.8841    9.0447 O   0  0  0  0  0  0  0  0  0  0  0  0
   15.4643  -19.4154   12.1318 O   0  0  0  0  0  0  0  0  0  0  0  0
   13.8654  -17.6043    1.7708 O   0  0  0  0  0  0  0  0  0  0  0  0
   14.8418  -18.1818    2.5718 C   0  0  0  0  0  0  0  0  0  0  0  0
   15.4046  -17.4213    3.5790 C   0  0  0  0  0  0  0  0  0  0  0  0
   16.3760  -17.9665    4.3903 C   0  0  0  0  0  0  0  0  0  0  0  0
   16.8378  -19.2770    4.2511 C   0  0  0  0  0  0  0  0  0  0  0  0
   17.8848  -19.8211    5.1400 C   0  0  0  0  0  0  0  0  0  0  0  0
   17.3456  -20.8935    6.0633 C   0  0  2  0  0  0  0  0  0  0  0  0
   16.4430  -20.1864    6.9727 N   0  0  0  0  0  0  0  0  0  0  0  0
   18.4550  -21.5653    6.7289 C   0  0  0  0  0  0  0  0  0  0  0  0
   18.8378  -21.1201    7.8645 O   0  0  0  0  0  0  0  0  0  0  0  0
   16.2611  -20.0234    3.2356 C   0  0  0  0  0  0  0  0  0  0  0  0
   15.2869  -19.4739    2.4234 C   0  0  0  0  0  0  0  0  0  0  0  0
   19.1186  -22.6661    6.1960 O   0  0  0  0  0  0  0  0  0  0  0  0
  2  1  1  1
  2  3  1  0
  4  5  2  0
  4  3  1  0
  6  5  1  0
  7 12  2  0
  7  6  1  0
  8  7  1  0
  9  8  2  0
  9 10  1  0
 10 11  2  0
 11 12  1  0
 12  4  1  0
 13  2  1  0
 14 13  2  0
 15 13  1  0
 16 17  1  1
 16 15  1  0
 17 18  1  0
 18 19  2  0
 18 22  1  0
 20 30  1  0
 20 16  1  0
 21 20  2  0
 23 24  1  0
 24 34  2  0
 25 24  1  0
 25 26  2  0
 26 27  1  0
 27 33  2  0
 27 28  1  0
 29 30  1  0
 29 28  1  6
 31 35  1  0
 31 29  1  0
 32 31  2  0
 34 33  1  0
M  END
$$$$
