WDY.pdb
     RDKit          3D

 35 37  0  0  1  0  0  0  0  0999 V2000
   28.0960  -21.1787  -10.6727 N   0  0  0  0  0  0  0  0  0  0  0  0
   26.8124  -20.9133   -9.9829 C   0  0  1  0  0  0  0  0  0  0  0  0
   27.0921  -20.0383   -8.8587 C   0  0  0  0  0  0  0  0  0  0  0  0
   28.2474  -20.3919   -8.0232 C   0  0  0  0  0  0  0  0  0  0  0  0
   29.2777  -21.2201   -8.3611 C   0  0  0  0  0  0  0  0  0  0  0  0
   30.1403  -21.3644   -7.3461 N   0  0  0  0  0  0  0  0  0  0  0  0
   29.6583  -20.6141   -6.3294 C   0  0  0  0  0  0  0  0  0  0  0  0
   30.1513  -20.3983   -5.0379 C   0  0  0  0  0  0  0  0  0  0  0  0
   29.4640  -19.5841   -4.1871 C   0  0  0  0  0  0  0  0  0  0  0  0
   28.2869  -18.9624   -4.5670 C   0  0  0  0  0  0  0  0  0  0  0  0
   27.8038  -19.1729   -5.8301 C   0  0  0  0  0  0  0  0  0  0  0  0
   28.4879  -19.9980   -6.7125 C   0  0  0  0  0  0  0  0  0  0  0  0
   25.7665  -20.6454  -10.9549 C   0  0  0  0  0  0  0  0  0  0  0  0
   25.5167  -19.4049  -11.2757 O   0  0  0  0  0  0  0  0  0  0  0  0
   24.9275  -21.5410  -11.6453 N   0  0  0  0  0  0  0  0  0  0  0  0
   23.9285  -21.1312  -12.6400 C   0  0  1  0  0  0  0  0  0  0  0  0
   23.9208  -22.0631  -13.7980 C   0  0  0  0  0  0  0  0  0  0  0  0
   22.8844  -21.7948  -14.7962 C   0  0  0  0  0  0  0  0  0  0  0  0
   22.4142  -20.6444  -14.9545 O   0  0  0  0  0  0  0  0  0  0  0  0
   22.6023  -20.9783  -12.0133 C   0  0  0  0  0  0  0  0  0  0  0  0
   22.1281  -21.8920  -11.2422 O   0  0  0  0  0  0  0  0  0  0  0  0
   22.4023  -22.8172  -15.5888 O   0  0  0  0  0  0  0  0  0  0  0  0
   18.8672  -16.9317  -17.0479 O   0  0  0  0  0  0  0  0  0  0  0  0
   19.1041  -17.2896  -15.7273 C   0  0  0  0  0  0  0  0  0  0  0  0
   20.3694  -17.0949  -15.2071 C   0  0  0  0  0  0  0  0  0  0  0  0
   20.6354  -17.4404  -13.8997 C   0  0  0  0  0  0  0  0  0  0  0  0
   19.6764  -17.9906  -13.0468 C   0  0  0  0  0  0  0  0  0  0  0  0
   20.0048  -18.3513  -11.6524 C   0  0  0  0  0  0  0  0  0  0  0  0
   20.4268  -19.8000  -11.5243 C   0  0  2  0  0  0  0  0  0  0  0  0
   21.7388  -19.8670  -12.1694 N   0  0  0  0  0  0  0  0  0  0  0  0
   19.4183  -20.6565  -12.1362 C   0  0  0  0  0  0  0  0  0  0  0  0
   19.6670  -21.1571  -13.2860 O   0  0  0  0  0  0  0  0  0  0  0  0
   18.4138  -18.1780  -13.5870 C   0  0  0  0  0  0  0  0  0  0  0  0
   18.1499  -17.8305  -14.8985 C   0  0  0  0  0  0  0  0  0  0  0  0
   18.2005  -20.9602  -11.5357 O   0  0  0  0  0  0  0  0  0  0  0  0
  2  1  1  6
  2  3  1  0
  4  5  2  0
  4  3  1  0
  6  5  1  0
  7 12  2  0
  7  6  1  0
  8  7  1  0
  9  8  2  0
  9 10  1  0
 10 11  2  0
 11 12  1  0
 12  4  1  0
 13  2  1  0
 14 13  2  0
 15 13  1  0
 16 17  1  6
 16 15  1  0
 17 18  1  0
 18 19  2  0
 18 22  1  0
 20 30  1  0
 20 16  1  0
 21 20  2  0
 23 24  1  0
 24 34  2  0
 25 24  1  0
 25 26  2  0
 26 27  1  0
 27 33  2  0
 27 28  1  0
 29 30  1  0
 29 28  1  6
 31 35  1  0
 31 29  1  0
 32 31  2  0
 34 33  1  0
M  END
$$$$
