WDY.pdb
     RDKit          3D

 35 37  0  0  1  0  0  0  0  0999 V2000
   20.8772  -18.2682  -17.9941 N   0  0  0  0  0  0  0  0  0  0  0  0
   22.0322  -17.4306  -17.5959 C   0  0  1  0  0  0  0  0  0  0  0  0
   21.5624  -16.4798  -16.6044 C   0  0  0  0  0  0  0  0  0  0  0  0
   20.4931  -15.5654  -17.0267 C   0  0  0  0  0  0  0  0  0  0  0  0
   19.1813  -15.6143  -16.6547 C   0  0  0  0  0  0  0  0  0  0  0  0
   18.4659  -14.6592  -17.2638 N   0  0  0  0  0  0  0  0  0  0  0  0
   19.3325  -13.9775  -18.0469 C   0  0  0  0  0  0  0  0  0  0  0  0
   19.1316  -12.8873  -18.9003 C   0  0  0  0  0  0  0  0  0  0  0  0
   20.1891  -12.3764  -19.5930 C   0  0  0  0  0  0  0  0  0  0  0  0
   21.4616  -12.9086  -19.4749 C   0  0  0  0  0  0  0  0  0  0  0  0
   21.6592  -13.9751  -18.6403 C   0  0  0  0  0  0  0  0  0  0  0  0
   20.5964  -14.5108  -17.9255 C   0  0  0  0  0  0  0  0  0  0  0  0
   23.2102  -18.2588  -17.4044 C   0  0  0  0  0  0  0  0  0  0  0  0
   23.0503  -19.4777  -16.9652 O   0  0  0  0  0  0  0  0  0  0  0  0
   24.5686  -17.9563  -17.6186 N   0  0  0  0  0  0  0  0  0  0  0  0
   25.6669  -18.9055  -17.3997 C   0  0  1  0  0  0  0  0  0  0  0  0
   26.8392  -18.5638  -18.2474 C   0  0  0  0  0  0  0  0  0  0  0  0
   26.6187  -18.7057  -19.6875 C   0  0  0  0  0  0  0  0  0  0  0  0
   25.7286  -19.4629  -20.1390 O   0  0  0  0  0  0  0  0  0  0  0  0
   25.9984  -18.9962  -15.9656 C   0  0  0  0  0  0  0  0  0  0  0  0
   25.7886  -18.0028  -15.1761 O   0  0  0  0  0  0  0  0  0  0  0  0
   27.3971  -17.9989  -20.5821 O   0  0  0  0  0  0  0  0  0  0  0  0
   26.1408  -20.0725   -7.5164 O   0  0  0  0  0  0  0  0  0  0  0  0
   26.0195  -19.9855   -8.8970 C   0  0  0  0  0  0  0  0  0  0  0  0
   25.4858  -21.0604   -9.5822 C   0  0  0  0  0  0  0  0  0  0  0  0
   25.3529  -21.0040  -10.9527 C   0  0  0  0  0  0  0  0  0  0  0  0
   25.7359  -19.8952  -11.7104 C   0  0  0  0  0  0  0  0  0  0  0  0
   25.5803  -19.8777  -13.1794 C   0  0  0  0  0  0  0  0  0  0  0  0
   26.8936  -20.1206  -13.8931 C   0  0  2  0  0  0  0  0  0  0  0  0
   26.5516  -20.1264  -15.3161 N   0  0  0  0  0  0  0  0  0  0  0  0
   27.4829  -21.3662  -13.4174 C   0  0  0  0  0  0  0  0  0  0  0  0
   28.2679  -21.3175  -12.4095 O   0  0  0  0  0  0  0  0  0  0  0  0
   26.2687  -18.8277  -11.0051 C   0  0  0  0  0  0  0  0  0  0  0  0
   26.4008  -18.8871   -9.6305 C   0  0  0  0  0  0  0  0  0  0  0  0
   27.2358  -22.6054  -13.9998 O   0  0  0  0  0  0  0  0  0  0  0  0
  2  1  1  1
  2  3  1  0
  4  5  2  0
  4  3  1  0
  6  5  1  0
  7 12  2  0
  7  6  1  0
  8  7  1  0
  9  8  2  0
  9 10  1  0
 10 11  2  0
 11 12  1  0
 12  4  1  0
 13  2  1  0
 14 13  2  0
 15 13  1  0
 16 17  1  6
 16 15  1  0
 17 18  1  0
 18 19  2  0
 18 22  1  0
 20 30  1  0
 20 16  1  0
 21 20  2  0
 23 24  1  0
 24 34  2  0
 25 24  1  0
 25 26  2  0
 26 27  1  0
 27 33  2  0
 27 28  1  0
 29 30  1  0
 29 28  1  1
 31 35  1  0
 31 29  1  0
 32 31  2  0
 34 33  1  0
M  END
$$$$
