WDY.pdb
     RDKit          3D

 35 37  0  0  1  0  0  0  0  0999 V2000
   14.7589  -16.0189    5.9805 N   0  0  0  0  0  0  0  0  0  0  0  0
   16.1745  -15.8392    6.3780 C   0  0  1  0  0  0  0  0  0  0  0  0
   16.3373  -14.4618    6.8070 C   0  0  0  0  0  0  0  0  0  0  0  0
   17.1698  -13.6028    5.9544 C   0  0  0  0  0  0  0  0  0  0  0  0
   16.7914  -12.9864    4.7975 C   0  0  0  0  0  0  0  0  0  0  0  0
   17.8124  -12.3179    4.2447 N   0  0  0  0  0  0  0  0  0  0  0  0
   18.8745  -12.5055    5.0606 C   0  0  0  0  0  0  0  0  0  0  0  0
   20.1911  -12.0409    4.9701 C   0  0  0  0  0  0  0  0  0  0  0  0
   21.0879  -12.3798    5.9396 C   0  0  0  0  0  0  0  0  0  0  0  0
   20.7308  -13.1743    7.0156 C   0  0  0  0  0  0  0  0  0  0  0  0
   19.4431  -13.6292    7.1050 C   0  0  0  0  0  0  0  0  0  0  0  0
   18.5137  -13.2960    6.1290 C   0  0  0  0  0  0  0  0  0  0  0  0
   16.6218  -16.9736    7.1675 C   0  0  0  0  0  0  0  0  0  0  0  0
   15.7227  -17.7342    7.7309 O   0  0  0  0  0  0  0  0  0  0  0  0
   17.9287  -17.4164    7.4485 N   0  0  0  0  0  0  0  0  0  0  0  0
   18.2394  -18.5972    8.2637 C   0  0  1  0  0  0  0  0  0  0  0  0
   17.7100  -19.8329    7.6293 C   0  0  0  0  0  0  0  0  0  0  0  0
   17.7265  -21.0194    8.4863 C   0  0  0  0  0  0  0  0  0  0  0  0
   17.6189  -20.9259    9.7310 O   0  0  0  0  0  0  0  0  0  0  0  0
   19.6847  -18.6678    8.5478 C   0  0  0  0  0  0  0  0  0  0  0  0
   20.4614  -19.4060    7.8364 O   0  0  0  0  0  0  0  0  0  0  0  0
   17.8624  -22.2758    7.9303 O   0  0  0  0  0  0  0  0  0  0  0  0
   22.2626  -12.1213   10.6222 O   0  0  0  0  0  0  0  0  0  0  0  0
   22.0922  -13.4788   10.8602 C   0  0  0  0  0  0  0  0  0  0  0  0
   23.0097  -14.3632   10.3259 C   0  0  0  0  0  0  0  0  0  0  0  0
   22.8674  -15.7164   10.5445 C   0  0  0  0  0  0  0  0  0  0  0  0
   21.8226  -16.2614   11.2940 C   0  0  0  0  0  0  0  0  0  0  0  0
   21.7044  -17.7194   11.5004 C   0  0  0  0  0  0  0  0  0  0  0  0
   21.5877  -18.4713   10.1911 C   0  0  2  0  0  0  0  0  0  0  0  0
   20.3588  -17.9667    9.5770 N   0  0  0  0  0  0  0  0  0  0  0  0
   21.5771  -19.9053   10.4528 C   0  0  0  0  0  0  0  0  0  0  0  0
   22.6652  -20.5572   10.2932 O   0  0  0  0  0  0  0  0  0  0  0  0
   20.9131  -15.3583   11.8213 C   0  0  0  0  0  0  0  0  0  0  0  0
   21.0585  -14.0016   11.6005 C   0  0  0  0  0  0  0  0  0  0  0  0
   20.4472  -20.6027   10.8686 O   0  0  0  0  0  0  0  0  0  0  0  0
  2  1  1  1
  2  3  1  0
  4  5  2  0
  4  3  1  0
  6  5  1  0
  7 12  2  0
  7  6  1  0
  8  7  1  0
  9  8  2  0
  9 10  1  0
 10 11  2  0
 11 12  1  0
 12  4  1  0
 13  2  1  0
 14 13  2  0
 15 13  1  0
 16 17  1  6
 16 15  1  0
 17 18  1  0
 18 19  2  0
 18 22  1  0
 20 30  1  0
 20 16  1  0
 21 20  2  0
 23 24  1  0
 24 34  2  0
 25 24  1  0
 25 26  2  0
 26 27  1  0
 27 33  2  0
 27 28  1  0
 29 30  1  0
 29 28  1  1
 31 35  1  0
 31 29  1  0
 32 31  2  0
 34 33  1  0
M  END
$$$$
