WDY.pdb
     RDKit          3D

 35 37  0  0  1  0  0  0  0  0999 V2000
   26.9861  -22.2942  -13.6163 N   0  0  0  0  0  0  0  0  0  0  0  0
   25.9399  -21.5692  -12.8587 C   0  0  1  0  0  0  0  0  0  0  0  0
   26.5593  -20.3950  -12.2710 C   0  0  0  0  0  0  0  0  0  0  0  0
   27.6180  -20.6369  -11.2819 C   0  0  0  0  0  0  0  0  0  0  0  0
   28.8862  -21.0736  -11.5321 C   0  0  0  0  0  0  0  0  0  0  0  0
   29.5788  -21.2359  -10.3967 N   0  0  0  0  0  0  0  0  0  0  0  0
   28.7416  -20.8975   -9.3901 C   0  0  0  0  0  0  0  0  0  0  0  0
   28.9360  -20.8812   -8.0047 C   0  0  0  0  0  0  0  0  0  0  0  0
   27.9130  -20.4947   -7.1903 C   0  0  0  0  0  0  0  0  0  0  0  0
   26.6820  -20.1162   -7.6981 C   0  0  0  0  0  0  0  0  0  0  0  0
   26.4909  -20.1318   -9.0532 C   0  0  0  0  0  0  0  0  0  0  0  0
   27.5190  -20.5218   -9.9006 C   0  0  0  0  0  0  0  0  0  0  0  0
   24.7094  -21.5148  -13.6290 C   0  0  0  0  0  0  0  0  0  0  0  0
   24.7808  -21.2125  -14.8970 O   0  0  0  0  0  0  0  0  0  0  0  0
   23.3806  -21.7403  -13.2213 N   0  0  0  0  0  0  0  0  0  0  0  0
   22.3184  -22.2249  -14.1113 C   0  0  1  0  0  0  0  0  0  0  0  0
   22.7702  -23.4178  -14.8746 C   0  0  0  0  0  0  0  0  0  0  0  0
   22.2359  -23.5165  -16.2338 C   0  0  0  0  0  0  0  0  0  0  0  0
   21.6846  -24.5646  -16.6428 O   0  0  0  0  0  0  0  0  0  0  0  0
   21.0737  -22.4601  -13.3563 C   0  0  0  0  0  0  0  0  0  0  0  0
   21.0540  -23.2609  -12.3501 O   0  0  0  0  0  0  0  0  0  0  0  0
   22.3319  -22.4437  -17.0973 O   0  0  0  0  0  0  0  0  0  0  0  0
   20.0185  -23.8153   -7.1650 O   0  0  0  0  0  0  0  0  0  0  0  0
   20.0622  -23.0207   -8.3030 C   0  0  0  0  0  0  0  0  0  0  0  0
   21.1710  -22.2221   -8.5087 C   0  0  0  0  0  0  0  0  0  0  0  0
   21.2434  -21.4224   -9.6287 C   0  0  0  0  0  0  0  0  0  0  0  0
   20.2354  -21.3696  -10.5938 C   0  0  0  0  0  0  0  0  0  0  0  0
   20.3510  -20.4944  -11.7783 C   0  0  0  0  0  0  0  0  0  0  0  0
   19.2746  -20.7811  -12.8041 C   0  0  2  0  0  0  0  0  0  0  0  0
   19.8188  -21.8623  -13.6268 N   0  0  0  0  0  0  0  0  0  0  0  0
   18.9724  -19.5631  -13.5458 C   0  0  0  0  0  0  0  0  0  0  0  0
   18.2225  -18.6882  -12.9920 O   0  0  0  0  0  0  0  0  0  0  0  0
   19.1319  -22.1776  -10.3695 C   0  0  0  0  0  0  0  0  0  0  0  0
   19.0621  -22.9788   -9.2453 C   0  0  0  0  0  0  0  0  0  0  0  0
   19.4576  -19.3003  -14.8231 O   0  0  0  0  0  0  0  0  0  0  0  0
  2  1  1  6
  2  3  1  0
  4  5  2  0
  4  3  1  0
  6  5  1  0
  7 12  2  0
  7  6  1  0
  8  7  1  0
  9  8  2  0
  9 10  1  0
 10 11  2  0
 11 12  1  0
 12  4  1  0
 13  2  1  0
 14 13  2  0
 15 13  1  0
 16 17  1  1
 16 15  1  0
 17 18  1  0
 18 19  2  0
 18 22  1  0
 20 30  1  0
 20 16  1  0
 21 20  2  0
 23 24  1  0
 24 34  2  0
 25 24  1  0
 25 26  2  0
 26 27  1  0
 27 33  2  0
 27 28  1  0
 29 30  1  0
 29 28  1  1
 31 35  1  0
 31 29  1  0
 32 31  2  0
 34 33  1  0
M  END
$$$$
