WDY.pdb
     RDKit          3D

 35 37  0  0  1  0  0  0  0  0999 V2000
   24.3446   -9.9587  -21.1374 N   0  0  0  0  0  0  0  0  0  0  0  0
   24.3471   -8.7485  -21.9916 C   0  0  1  0  0  0  0  0  0  0  0  0
   23.1568   -8.7957  -22.8214 C   0  0  0  0  0  0  0  0  0  0  0  0
   23.1209   -9.8347  -23.8592 C   0  0  0  0  0  0  0  0  0  0  0  0
   22.5556  -11.0723  -23.7577 C   0  0  0  0  0  0  0  0  0  0  0  0
   22.7465  -11.7885  -24.8738 N   0  0  0  0  0  0  0  0  0  0  0  0
   23.4504  -10.9982  -25.7157 C   0  0  0  0  0  0  0  0  0  0  0  0
   23.9245  -11.2343  -27.0107 C   0  0  0  0  0  0  0  0  0  0  0  0
   24.6227  -10.2568  -27.6558 C   0  0  0  0  0  0  0  0  0  0  0  0
   24.8768   -9.0320  -27.0627 C   0  0  0  0  0  0  0  0  0  0  0  0
   24.4135   -8.8002  -25.7960 C   0  0  0  0  0  0  0  0  0  0  0  0
   23.7002   -9.7815  -25.1211 C   0  0  0  0  0  0  0  0  0  0  0  0
   24.7226   -7.5832  -21.2095 C   0  0  0  0  0  0  0  0  0  0  0  0
   24.0654   -7.3326  -20.1097 O   0  0  0  0  0  0  0  0  0  0  0  0
   25.7247   -6.6232  -21.4477 N   0  0  0  0  0  0  0  0  0  0  0  0
   26.0079   -5.4915  -20.5563 C   0  0  1  0  0  0  0  0  0  0  0  0
   27.4709   -5.2472  -20.4589 C   0  0  0  0  0  0  0  0  0  0  0  0
   28.2085   -6.2374  -19.6728 C   0  0  0  0  0  0  0  0  0  0  0  0
   27.6245   -7.2012  -19.1254 O   0  0  0  0  0  0  0  0  0  0  0  0
   25.2497   -4.2975  -20.9741 C   0  0  0  0  0  0  0  0  0  0  0  0
   25.1758   -3.9638  -22.2139 O   0  0  0  0  0  0  0  0  0  0  0  0
   29.5759   -6.1242  -19.5201 O   0  0  0  0  0  0  0  0  0  0  0  0
   18.4133   -4.9130  -18.1694 O   0  0  0  0  0  0  0  0  0  0  0  0
   19.4632   -4.4739  -18.9652 C   0  0  0  0  0  0  0  0  0  0  0  0
   19.4989   -3.1432  -19.3362 C   0  0  0  0  0  0  0  0  0  0  0  0
   20.5281   -2.6775  -20.1256 C   0  0  0  0  0  0  0  0  0  0  0  0
   21.5646   -3.4926  -20.5852 C   0  0  0  0  0  0  0  0  0  0  0  0
   22.6470   -2.9537  -21.4339 C   0  0  0  0  0  0  0  0  0  0  0  0
   23.7437   -2.3069  -20.6140 C   0  0  2  0  0  0  0  0  0  0  0  0
   24.5445   -3.4239  -20.1112 N   0  0  0  0  0  0  0  0  0  0  0  0
   23.1484   -1.4833  -19.5689 C   0  0  0  0  0  0  0  0  0  0  0  0
   22.5121   -0.4306  -19.9174 O   0  0  0  0  0  0  0  0  0  0  0  0
   21.5110   -4.8236  -20.2024 C   0  0  0  0  0  0  0  0  0  0  0  0
   20.4776   -5.2878  -19.4105 C   0  0  0  0  0  0  0  0  0  0  0  0
   23.2338   -1.7817  -18.2126 O   0  0  0  0  0  0  0  0  0  0  0  0
  2  1  1  1
  2  3  1  0
  4  5  2  0
  4  3  1  0
  6  5  1  0
  7 12  2  0
  7  6  1  0
  8  7  1  0
  9  8  2  0
  9 10  1  0
 10 11  2  0
 11 12  1  0
 12  4  1  0
 13  2  1  0
 14 13  2  0
 15 13  1  0
 16 17  1  6
 16 15  1  0
 17 18  1  0
 18 19  2  0
 18 22  1  0
 20 30  1  0
 20 16  1  0
 21 20  2  0
 23 24  1  0
 24 34  2  0
 25 24  1  0
 25 26  2  0
 26 27  1  0
 27 33  2  0
 27 28  1  0
 29 30  1  0
 29 28  1  6
 31 35  1  0
 31 29  1  0
 32 31  2  0
 34 33  1  0
M  END
$$$$
