WDY.pdb
     RDKit          3D

 35 37  0  0  1  0  0  0  0  0999 V2000
   26.4197  -18.9138   -9.3343 N   0  0  0  0  0  0  0  0  0  0  0  0
   26.4577  -20.3859   -9.1745 C   0  0  1  0  0  0  0  0  0  0  0  0
   26.5729  -20.6695   -7.7553 C   0  0  0  0  0  0  0  0  0  0  0  0
   27.4187  -19.7602   -6.9707 C   0  0  0  0  0  0  0  0  0  0  0  0
   27.4183  -18.3967   -7.0198 C   0  0  0  0  0  0  0  0  0  0  0  0
   28.3507  -17.8793   -6.2087 N   0  0  0  0  0  0  0  0  0  0  0  0
   28.9682  -18.9298   -5.6222 C   0  0  0  0  0  0  0  0  0  0  0  0
   30.0135  -18.9745   -4.6933 C   0  0  0  0  0  0  0  0  0  0  0  0
   30.4646  -20.1832   -4.2519 C   0  0  0  0  0  0  0  0  0  0  0  0
   29.9148  -21.3725   -4.6990 C   0  0  0  0  0  0  0  0  0  0  0  0
   28.8923  -21.3297   -5.6077 C   0  0  0  0  0  0  0  0  0  0  0  0
   28.4176  -20.1098   -6.0702 C   0  0  0  0  0  0  0  0  0  0  0  0
   25.4622  -21.0093  -10.0292 C   0  0  0  0  0  0  0  0  0  0  0  0
   24.2178  -21.0158   -9.6343 O   0  0  0  0  0  0  0  0  0  0  0  0
   25.6163  -21.6455  -11.2759 N   0  0  0  0  0  0  0  0  0  0  0  0
   24.5458  -21.7719  -12.2726 C   0  0  1  0  0  0  0  0  0  0  0  0
   23.9479  -20.4459  -12.5787 C   0  0  0  0  0  0  0  0  0  0  0  0
   22.8441  -20.4762  -13.5396 C   0  0  0  0  0  0  0  0  0  0  0  0
   22.2271  -21.5374  -13.7900 O   0  0  0  0  0  0  0  0  0  0  0  0
   25.0329  -22.4765  -13.4731 C   0  0  0  0  0  0  0  0  0  0  0  0
   25.9358  -21.9526  -14.2243 O   0  0  0  0  0  0  0  0  0  0  0  0
   22.4605  -19.3223  -14.1932 O   0  0  0  0  0  0  0  0  0  0  0  0
   25.8614  -28.6088  -19.9028 O   0  0  0  0  0  0  0  0  0  0  0  0
   25.5057  -27.8935  -18.7670 C   0  0  0  0  0  0  0  0  0  0  0  0
   24.3735  -27.1026  -18.8123 C   0  0  0  0  0  0  0  0  0  0  0  0
   23.9949  -26.3807  -17.7011 C   0  0  0  0  0  0  0  0  0  0  0  0
   24.7069  -26.4015  -16.4999 C   0  0  0  0  0  0  0  0  0  0  0  0
   24.2687  -25.6084  -15.3332 C   0  0  0  0  0  0  0  0  0  0  0  0
   25.1242  -24.3755  -15.1301 C   0  0  2  0  0  0  0  0  0  0  0  0
   24.5957  -23.7476  -13.9184 N   0  0  0  0  0  0  0  0  0  0  0  0
   25.0525  -23.5325  -16.3172 C   0  0  0  0  0  0  0  0  0  0  0  0
   25.9809  -23.6368  -17.1900 O   0  0  0  0  0  0  0  0  0  0  0  0
   25.8391  -27.2005  -16.4746 C   0  0  0  0  0  0  0  0  0  0  0  0
   26.2163  -27.9235  -17.5906 C   0  0  0  0  0  0  0  0  0  0  0  0
   24.0273  -22.6217  -16.5527 O   0  0  0  0  0  0  0  0  0  0  0  0
  2  1  1  1
  2  3  1  0
  4  5  2  0
  4  3  1  0
  6  5  1  0
  7 12  2  0
  7  6  1  0
  8  7  1  0
  9  8  2  0
  9 10  1  0
 10 11  2  0
 11 12  1  0
 12  4  1  0
 13  2  1  0
 14 13  2  0
 15 13  1  0
 16 17  1  6
 16 15  1  0
 17 18  1  0
 18 19  2  0
 18 22  1  0
 20 30  1  0
 20 16  1  0
 21 20  2  0
 23 24  1  0
 24 34  2  0
 25 24  1  0
 25 26  2  0
 26 27  1  0
 27 33  2  0
 27 28  1  0
 29 30  1  0
 29 28  1  6
 31 35  1  0
 31 29  1  0
 32 31  2  0
 34 33  1  0
M  END
$$$$
