WDY.pdb
     RDKit          3D

 35 37  0  0  1  0  0  0  0  0999 V2000
   24.1444  -19.0070  -17.4310 N   0  0  0  0  0  0  0  0  0  0  0  0
   25.4051  -18.6696  -16.7304 C   0  0  1  0  0  0  0  0  0  0  0  0
   25.2356  -17.3582  -16.1310 C   0  0  0  0  0  0  0  0  0  0  0  0
   25.4588  -16.2015  -17.0086 C   0  0  0  0  0  0  0  0  0  0  0  0
   24.5195  -15.3137  -17.4458 C   0  0  0  0  0  0  0  0  0  0  0  0
   25.0542  -14.4067  -18.2744 N   0  0  0  0  0  0  0  0  0  0  0  0
   26.3673  -14.7138  -18.3763 C   0  0  0  0  0  0  0  0  0  0  0  0
   27.3952  -14.1061  -19.1053 C   0  0  0  0  0  0  0  0  0  0  0  0
   28.6564  -14.6198  -19.0388 C   0  0  0  0  0  0  0  0  0  0  0  0
   28.9496  -15.7309  -18.2667 C   0  0  0  0  0  0  0  0  0  0  0  0
   27.9448  -16.3261  -17.5532 C   0  0  0  0  0  0  0  0  0  0  0  0
   26.6535  -15.8192  -17.6064 C   0  0  0  0  0  0  0  0  0  0  0  0
   25.8925  -19.8217  -15.9919 C   0  0  0  0  0  0  0  0  0  0  0  0
   25.0260  -20.5785  -15.3747 O   0  0  0  0  0  0  0  0  0  0  0  0
   27.2098  -20.2864  -15.8140 N   0  0  0  0  0  0  0  0  0  0  0  0
   27.6046  -21.2703  -14.7985 C   0  0  1  0  0  0  0  0  0  0  0  0
   28.9763  -21.7799  -15.0599 C   0  0  0  0  0  0  0  0  0  0  0  0
   29.0784  -22.7292  -16.1695 C   0  0  0  0  0  0  0  0  0  0  0  0
   30.1820  -23.2106  -16.5158 O   0  0  0  0  0  0  0  0  0  0  0  0
   27.4447  -20.7120  -13.4429 C   0  0  0  0  0  0  0  0  0  0  0  0
   27.9145  -19.5516  -13.1481 O   0  0  0  0  0  0  0  0  0  0  0  0
   27.9469  -23.1139  -16.8604 O   0  0  0  0  0  0  0  0  0  0  0  0
   20.6105  -20.2374  -12.8558 O   0  0  0  0  0  0  0  0  0  0  0  0
   21.9365  -20.0426  -12.4923 C   0  0  0  0  0  0  0  0  0  0  0  0
   22.2616  -20.0546  -11.1493 C   0  0  0  0  0  0  0  0  0  0  0  0
   23.5690  -19.8639  -10.7572 C   0  0  0  0  0  0  0  0  0  0  0  0
   24.6126  -19.6536  -11.6610 C   0  0  0  0  0  0  0  0  0  0  0  0
   26.0003  -19.4488  -11.1980 C   0  0  0  0  0  0  0  0  0  0  0  0
   26.7399  -20.7585  -11.0219 C   0  0  2  0  0  0  0  0  0  0  0  0
   26.7864  -21.3461  -12.3615 N   0  0  0  0  0  0  0  0  0  0  0  0
   26.0481  -21.5792  -10.0355 C   0  0  0  0  0  0  0  0  0  0  0  0
   25.9502  -21.1348   -8.8408 O   0  0  0  0  0  0  0  0  0  0  0  0
   24.2663  -19.6452  -13.0030 C   0  0  0  0  0  0  0  0  0  0  0  0
   22.9541  -19.8368  -13.3933 C   0  0  0  0  0  0  0  0  0  0  0  0
   25.4870  -22.8192  -10.3244 O   0  0  0  0  0  0  0  0  0  0  0  0
  2  1  1  1
  2  3  1  0
  4  5  2  0
  4  3  1  0
  6  5  1  0
  7 12  2  0
  7  6  1  0
  8  7  1  0
  9  8  2  0
  9 10  1  0
 10 11  2  0
 11 12  1  0
 12  4  1  0
 13  2  1  0
 14 13  2  0
 15 13  1  0
 16 17  1  6
 16 15  1  0
 17 18  1  0
 18 19  2  0
 18 22  1  0
 20 30  1  0
 20 16  1  0
 21 20  2  0
 23 24  1  0
 24 34  2  0
 25 24  1  0
 25 26  2  0
 26 27  1  0
 27 33  2  0
 27 28  1  0
 29 30  1  0
 29 28  1  6
 31 35  1  0
 31 29  1  0
 32 31  2  0
 34 33  1  0
M  END
$$$$
