WDY.pdb
     RDKit          3D

 35 37  0  0  1  0  0  0  0  0999 V2000
   26.7958  -19.5447  -11.0650 N   0  0  0  0  0  0  0  0  0  0  0  0
   26.3575  -20.9523  -11.2096 C   0  0  1  0  0  0  0  0  0  0  0  0
   26.1964  -21.5000   -9.8748 C   0  0  0  0  0  0  0  0  0  0  0  0
   27.2091  -21.1178   -8.8818 C   0  0  0  0  0  0  0  0  0  0  0  0
   27.0093  -20.3764   -7.7540 C   0  0  0  0  0  0  0  0  0  0  0  0
   28.1580  -20.1706   -7.0958 N   0  0  0  0  0  0  0  0  0  0  0  0
   29.1221  -20.7915   -7.8126 C   0  0  0  0  0  0  0  0  0  0  0  0
   30.4997  -20.8987   -7.5931 C   0  0  0  0  0  0  0  0  0  0  0  0
   31.2669  -21.5903   -8.4831 C   0  0  0  0  0  0  0  0  0  0  0  0
   30.7186  -22.1921   -9.6028 C   0  0  0  0  0  0  0  0  0  0  0  0
   29.3712  -22.0878   -9.8184 C   0  0  0  0  0  0  0  0  0  0  0  0
   28.5714  -21.3884   -8.9248 C   0  0  0  0  0  0  0  0  0  0  0  0
   25.3367  -21.0568  -12.2379 C   0  0  0  0  0  0  0  0  0  0  0  0
   24.3274  -20.2296  -12.2005 O   0  0  0  0  0  0  0  0  0  0  0  0
   25.2407  -21.9468  -13.3249 N   0  0  0  0  0  0  0  0  0  0  0  0
   24.1071  -21.9873  -14.2569 C   0  0  1  0  0  0  0  0  0  0  0  0
   24.5157  -22.5677  -15.5629 C   0  0  0  0  0  0  0  0  0  0  0  0
   25.5185  -21.7914  -16.2939 C   0  0  0  0  0  0  0  0  0  0  0  0
   25.4762  -20.5397  -16.3276 O   0  0  0  0  0  0  0  0  0  0  0  0
   22.9584  -22.6845  -13.6494 C   0  0  0  0  0  0  0  0  0  0  0  0
   23.0244  -23.9359  -13.3600 O   0  0  0  0  0  0  0  0  0  0  0  0
   26.5393  -22.4334  -16.9660 O   0  0  0  0  0  0  0  0  0  0  0  0
   15.8907  -24.6020   -8.7719 O   0  0  0  0  0  0  0  0  0  0  0  0
   16.8791  -23.9410   -9.4891 C   0  0  0  0  0  0  0  0  0  0  0  0
   18.1885  -24.3600   -9.3495 C   0  0  0  0  0  0  0  0  0  0  0  0
   19.1916  -23.7236  -10.0481 C   0  0  0  0  0  0  0  0  0  0  0  0
   18.9569  -22.6517  -10.9118 C   0  0  0  0  0  0  0  0  0  0  0  0
   20.0624  -21.9945  -11.6386 C   0  0  0  0  0  0  0  0  0  0  0  0
   20.6091  -22.8656  -12.7501 C   0  0  2  0  0  0  0  0  0  0  0  0
   21.7134  -22.0943  -13.3225 N   0  0  0  0  0  0  0  0  0  0  0  0
   19.5438  -23.1722  -13.6968 C   0  0  0  0  0  0  0  0  0  0  0  0
   19.3441  -22.3623  -14.6656 O   0  0  0  0  0  0  0  0  0  0  0  0
   17.6375  -22.2465  -11.0384 C   0  0  0  0  0  0  0  0  0  0  0  0
   16.6335  -22.8867  -10.3364 C   0  0  0  0  0  0  0  0  0  0  0  0
   18.7338  -24.2997  -13.6041 O   0  0  0  0  0  0  0  0  0  0  0  0
  2  1  1  1
  2  3  1  0
  4  5  2  0
  4  3  1  0
  6  5  1  0
  7 12  2  0
  7  6  1  0
  8  7  1  0
  9  8  2  0
  9 10  1  0
 10 11  2  0
 11 12  1  0
 12  4  1  0
 13  2  1  0
 14 13  2  0
 15 13  1  0
 16 17  1  6
 16 15  1  0
 17 18  1  0
 18 19  2  0
 18 22  1  0
 20 30  1  0
 20 16  1  0
 21 20  2  0
 23 24  1  0
 24 34  2  0
 25 24  1  0
 25 26  2  0
 26 27  1  0
 27 33  2  0
 27 28  1  0
 29 30  1  0
 29 28  1  1
 31 35  1  0
 31 29  1  0
 32 31  2  0
 34 33  1  0
M  END
$$$$
