WDY.pdb
     RDKit          3D

 35 37  0  0  1  0  0  0  0  0999 V2000
   27.4009  -19.0495  -12.4777 N   0  0  0  0  0  0  0  0  0  0  0  0
   27.1900  -20.4839  -12.7812 C   0  0  1  0  0  0  0  0  0  0  0  0
   26.2222  -20.9956  -11.8276 C   0  0  0  0  0  0  0  0  0  0  0  0
   26.4767  -20.7001  -10.4114 C   0  0  0  0  0  0  0  0  0  0  0  0
   25.6467  -20.0416   -9.5517 C   0  0  0  0  0  0  0  0  0  0  0  0
   26.2092  -19.8989   -8.3441 N   0  0  0  0  0  0  0  0  0  0  0  0
   27.4293  -20.4769   -8.4234 C   0  0  0  0  0  0  0  0  0  0  0  0
   28.4395  -20.6167   -7.4657 C   0  0  0  0  0  0  0  0  0  0  0  0
   29.5986  -21.2501   -7.8039 C   0  0  0  0  0  0  0  0  0  0  0  0
   29.8049  -21.7608   -9.0740 C   0  0  0  0  0  0  0  0  0  0  0  0
   28.8173  -21.6245  -10.0116 C   0  0  0  0  0  0  0  0  0  0  0  0
   27.6291  -20.9832   -9.6884 C   0  0  0  0  0  0  0  0  0  0  0  0
   27.0702  -20.6809  -14.2155 C   0  0  0  0  0  0  0  0  0  0  0  0
   26.3078  -19.8674  -14.8948 O   0  0  0  0  0  0  0  0  0  0  0  0
   27.6634  -21.6527  -15.0440 N   0  0  0  0  0  0  0  0  0  0  0  0
   27.2369  -21.9305  -16.4211 C   0  0  1  0  0  0  0  0  0  0  0  0
   28.3324  -22.5701  -17.1960 C   0  0  0  0  0  0  0  0  0  0  0  0
   28.0733  -22.7047  -18.6303 C   0  0  0  0  0  0  0  0  0  0  0  0
   26.9976  -22.3115  -19.1380 O   0  0  0  0  0  0  0  0  0  0  0  0
   25.9884  -22.7153  -16.4310 C   0  0  0  0  0  0  0  0  0  0  0  0
   26.0042  -23.9823  -16.2109 O   0  0  0  0  0  0  0  0  0  0  0  0
   29.0215  -23.2738  -19.4568 O   0  0  0  0  0  0  0  0  0  0  0  0
   19.8258  -20.4117  -11.6557 O   0  0  0  0  0  0  0  0  0  0  0  0
   20.7797  -21.0630  -12.4266 C   0  0  0  0  0  0  0  0  0  0  0  0
   20.5176  -22.3514  -12.8520 C   0  0  0  0  0  0  0  0  0  0  0  0
   21.4450  -23.0238  -13.6182 C   0  0  0  0  0  0  0  0  0  0  0  0
   22.6666  -22.4654  -14.0002 C   0  0  0  0  0  0  0  0  0  0  0  0
   23.6351  -23.2231  -14.8189 C   0  0  0  0  0  0  0  0  0  0  0  0
   23.4794  -22.9332  -16.2971 C   0  0  2  0  0  0  0  0  0  0  0  0
   24.6908  -22.1989  -16.6650 N   0  0  0  0  0  0  0  0  0  0  0  0
   22.2437  -22.1928  -16.5202 C   0  0  0  0  0  0  0  0  0  0  0  0
   21.1409  -22.8396  -16.5096 O   0  0  0  0  0  0  0  0  0  0  0  0
   22.9107  -21.1728  -13.5638 C   0  0  0  0  0  0  0  0  0  0  0  0
   21.9787  -20.5008  -12.7955 C   0  0  0  0  0  0  0  0  0  0  0  0
   22.1993  -20.8200  -16.7423 O   0  0  0  0  0  0  0  0  0  0  0  0
  2  1  1  6
  2  3  1  0
  4  5  2  0
  4  3  1  0
  6  5  1  0
  7 12  2  0
  7  6  1  0
  8  7  1  0
  9  8  2  0
  9 10  1  0
 10 11  2  0
 11 12  1  0
 12  4  1  0
 13  2  1  0
 14 13  2  0
 15 13  1  0
 16 17  1  1
 16 15  1  0
 17 18  1  0
 18 19  2  0
 18 22  1  0
 20 30  1  0
 20 16  1  0
 21 20  2  0
 23 24  1  0
 24 34  2  0
 25 24  1  0
 25 26  2  0
 26 27  1  0
 27 33  2  0
 27 28  1  0
 29 30  1  0
 29 28  1  1
 31 35  1  0
 31 29  1  0
 32 31  2  0
 34 33  1  0
M  END
$$$$
