WDY.pdb
     RDKit          3D

 35 37  0  0  1  0  0  0  0  0999 V2000
   25.6504  -20.1554  -16.5470 N   0  0  0  0  0  0  0  0  0  0  0  0
   24.5141  -20.0463  -15.6032 C   0  0  1  0  0  0  0  0  0  0  0  0
   24.7550  -18.8895  -14.7597 C   0  0  0  0  0  0  0  0  0  0  0  0
   26.0107  -18.8830  -13.9974 C   0  0  0  0  0  0  0  0  0  0  0  0
   27.1585  -18.2191  -14.3184 C   0  0  0  0  0  0  0  0  0  0  0  0
   28.1311  -18.4698  -13.4317 N   0  0  0  0  0  0  0  0  0  0  0  0
   27.6021  -19.3142  -12.5173 C   0  0  0  0  0  0  0  0  0  0  0  0
   28.1661  -19.9002  -11.3789 C   0  0  0  0  0  0  0  0  0  0  0  0
   27.4079  -20.7326  -10.6099 C   0  0  0  0  0  0  0  0  0  0  0  0
   26.0899  -21.0153  -10.9253 C   0  0  0  0  0  0  0  0  0  0  0  0
   25.5373  -20.4425  -12.0387 C   0  0  0  0  0  0  0  0  0  0  0  0
   26.2914  -19.5918  -12.8356 C   0  0  0  0  0  0  0  0  0  0  0  0
   23.2595  -20.2717  -16.3001 C   0  0  0  0  0  0  0  0  0  0  0  0
   23.1417  -19.8402  -17.5266 O   0  0  0  0  0  0  0  0  0  0  0  0
   22.0836  -20.9064  -15.8560 N   0  0  0  0  0  0  0  0  0  0  0  0
   21.3250  -21.8808  -16.6499 C   0  0  1  0  0  0  0  0  0  0  0  0
   22.2396  -22.8194  -17.3513 C   0  0  0  0  0  0  0  0  0  0  0  0
   21.6873  -23.4250  -18.5640 C   0  0  0  0  0  0  0  0  0  0  0  0
   20.9078  -22.7909  -19.3122 O   0  0  0  0  0  0  0  0  0  0  0  0
   20.3239  -22.5677  -15.8127 C   0  0  0  0  0  0  0  0  0  0  0  0
   19.4553  -23.3576  -16.3377 O   0  0  0  0  0  0  0  0  0  0  0  0
   22.0202  -24.7201  -18.9071 O   0  0  0  0  0  0  0  0  0  0  0  0
   21.9238  -18.7676   -9.8766 O   0  0  0  0  0  0  0  0  0  0  0  0
   21.3754  -19.9093  -10.4460 C   0  0  0  0  0  0  0  0  0  0  0  0
   22.1189  -20.6030  -11.3817 C   0  0  0  0  0  0  0  0  0  0  0  0
   21.6017  -21.7397  -11.9645 C   0  0  0  0  0  0  0  0  0  0  0  0
   20.3367  -22.2454  -11.6574 C   0  0  0  0  0  0  0  0  0  0  0  0
   19.8181  -23.4654  -12.3093 C   0  0  0  0  0  0  0  0  0  0  0  0
   19.1765  -23.1657  -13.6479 C   0  0  2  0  0  0  0  0  0  0  0  0
   20.2059  -22.4535  -14.4062 N   0  0  0  0  0  0  0  0  0  0  0  0
   17.9532  -22.4004  -13.4408 C   0  0  0  0  0  0  0  0  0  0  0  0
   16.9762  -22.9713  -12.8457 O   0  0  0  0  0  0  0  0  0  0  0  0
   19.6068  -21.5357  -10.7169 C   0  0  0  0  0  0  0  0  0  0  0  0
   20.1282  -20.3960  -10.1340 C   0  0  0  0  0  0  0  0  0  0  0  0
   17.7920  -21.0816  -13.8540 O   0  0  0  0  0  0  0  0  0  0  0  0
  2  1  1  6
  2  3  1  0
  4  5  2  0
  4  3  1  0
  6  5  1  0
  7 12  2  0
  7  6  1  0
  8  7  1  0
  9  8  2  0
  9 10  1  0
 10 11  2  0
 11 12  1  0
 12  4  1  0
 13  2  1  0
 14 13  2  0
 15 13  1  0
 16 17  1  1
 16 15  1  0
 17 18  1  0
 18 19  2  0
 18 22  1  0
 20 30  1  0
 20 16  1  0
 21 20  2  0
 23 24  1  0
 24 34  2  0
 25 24  1  0
 25 26  2  0
 26 27  1  0
 27 33  2  0
 27 28  1  0
 29 30  1  0
 29 28  1  1
 31 35  1  0
 31 29  1  0
 32 31  2  0
 34 33  1  0
M  END
$$$$
