WDY.pdb
     RDKit          3D

 35 37  0  0  1  0  0  0  0  0999 V2000
   28.2051  -19.4957   -9.3062 N   0  0  0  0  0  0  0  0  0  0  0  0
   27.1008  -20.4803   -9.2356 C   0  0  1  0  0  0  0  0  0  0  0  0
   26.4338  -20.2995   -7.9588 C   0  0  0  0  0  0  0  0  0  0  0  0
   27.2228  -19.6747   -6.8888 C   0  0  0  0  0  0  0  0  0  0  0  0
   27.4578  -18.3416   -6.7182 C   0  0  0  0  0  0  0  0  0  0  0  0
   28.2596  -18.1183   -5.6682 N   0  0  0  0  0  0  0  0  0  0  0  0
   28.5502  -19.3323   -5.1480 C   0  0  0  0  0  0  0  0  0  0  0  0
   29.3417  -19.6926   -4.0521 C   0  0  0  0  0  0  0  0  0  0  0  0
   29.4783  -21.0104   -3.7302 C   0  0  0  0  0  0  0  0  0  0  0  0
   28.8531  -22.0064   -4.4606 C   0  0  0  0  0  0  0  0  0  0  0  0
   28.0786  -21.6551   -5.5329 C   0  0  0  0  0  0  0  0  0  0  0  0
   27.9258  -20.3191   -5.8781 C   0  0  0  0  0  0  0  0  0  0  0  0
   26.3899  -20.5286  -10.5015 C   0  0  0  0  0  0  0  0  0  0  0  0
   26.0828  -19.4030  -11.0871 O   0  0  0  0  0  0  0  0  0  0  0  0
   25.9475  -21.6399  -11.2445 N   0  0  0  0  0  0  0  0  0  0  0  0
   25.2779  -21.5441  -12.5475 C   0  0  1  0  0  0  0  0  0  0  0  0
   25.9959  -22.3467  -13.5723 C   0  0  0  0  0  0  0  0  0  0  0  0
   26.4098  -21.5982  -14.7601 C   0  0  0  0  0  0  0  0  0  0  0  0
   26.0826  -20.3997  -14.9221 O   0  0  0  0  0  0  0  0  0  0  0  0
   23.8525  -21.9029  -12.4278 C   0  0  0  0  0  0  0  0  0  0  0  0
   23.4980  -23.0926  -12.0915 O   0  0  0  0  0  0  0  0  0  0  0  0
   27.1766  -22.2080  -15.7328 O   0  0  0  0  0  0  0  0  0  0  0  0
   15.0056  -21.2083  -11.7051 O   0  0  0  0  0  0  0  0  0  0  0  0
   16.3714  -20.9780  -11.8051 C   0  0  0  0  0  0  0  0  0  0  0  0
   16.8619  -20.4087  -12.9648 C   0  0  0  0  0  0  0  0  0  0  0  0
   18.2127  -20.1680  -13.0938 C   0  0  0  0  0  0  0  0  0  0  0  0
   19.1400  -20.4737  -12.0954 C   0  0  0  0  0  0  0  0  0  0  0  0
   20.5810  -20.2033  -12.2763 C   0  0  0  0  0  0  0  0  0  0  0  0
   21.3699  -21.4709  -12.5293 C   0  0  2  0  0  0  0  0  0  0  0  0
   22.7601  -21.0297  -12.6499 N   0  0  0  0  0  0  0  0  0  0  0  0
   20.8517  -22.1375  -13.7176 C   0  0  0  0  0  0  0  0  0  0  0  0
   21.2900  -21.7650  -14.8595 O   0  0  0  0  0  0  0  0  0  0  0  0
   18.6284  -21.0438  -10.9403 C   0  0  0  0  0  0  0  0  0  0  0  0
   17.2731  -21.2840  -10.8136 C   0  0  0  0  0  0  0  0  0  0  0  0
   19.9074  -23.1585  -13.6764 O   0  0  0  0  0  0  0  0  0  0  0  0
  2  1  1  6
  2  3  1  0
  4  5  2  0
  4  3  1  0
  6  5  1  0
  7 12  2  0
  7  6  1  0
  8  7  1  0
  9  8  2  0
  9 10  1  0
 10 11  2  0
 11 12  1  0
 12  4  1  0
 13  2  1  0
 14 13  2  0
 15 13  1  0
 16 17  1  6
 16 15  1  0
 17 18  1  0
 18 19  2  0
 18 22  1  0
 20 30  1  0
 20 16  1  0
 21 20  2  0
 23 24  1  0
 24 34  2  0
 25 24  1  0
 25 26  2  0
 26 27  1  0
 27 33  2  0
 27 28  1  0
 29 30  1  0
 29 28  1  6
 31 35  1  0
 31 29  1  0
 32 31  2  0
 34 33  1  0
M  END
$$$$
