WDY.pdb
     RDKit          3D

 35 37  0  0  1  0  0  0  0  0999 V2000
   28.3459  -20.9599  -11.1019 N   0  0  0  0  0  0  0  0  0  0  0  0
   27.0747  -20.8509  -10.3492 C   0  0  1  0  0  0  0  0  0  0  0  0
   27.3251  -20.0209   -9.1848 C   0  0  0  0  0  0  0  0  0  0  0  0
   28.5419  -20.3170   -8.4169 C   0  0  0  0  0  0  0  0  0  0  0  0
   29.6386  -21.0004   -8.8545 C   0  0  0  0  0  0  0  0  0  0  0  0
   30.5496  -21.1350   -7.8813 N   0  0  0  0  0  0  0  0  0  0  0  0
   30.0318  -20.5262   -6.7904 C   0  0  0  0  0  0  0  0  0  0  0  0
   30.5487  -20.3658   -5.5002 C   0  0  0  0  0  0  0  0  0  0  0  0
   29.8138  -19.7019   -4.5631 C   0  0  0  0  0  0  0  0  0  0  0  0
   28.5650  -19.1797   -4.8537 C   0  0  0  0  0  0  0  0  0  0  0  0
   28.0585  -19.3361   -6.1154 C   0  0  0  0  0  0  0  0  0  0  0  0
   28.7901  -20.0086   -7.0849 C   0  0  0  0  0  0  0  0  0  0  0  0
   25.9687  -20.6222  -11.2629 C   0  0  0  0  0  0  0  0  0  0  0  0
   25.8859  -19.4664  -11.8642 O   0  0  0  0  0  0  0  0  0  0  0  0
   24.9110  -21.4767  -11.6288 N   0  0  0  0  0  0  0  0  0  0  0  0
   23.7011  -21.0330  -12.3321 C   0  0  1  0  0  0  0  0  0  0  0  0
   23.9017  -21.0676  -13.8046 C   0  0  0  0  0  0  0  0  0  0  0  0
   22.7682  -20.5786  -14.5911 C   0  0  0  0  0  0  0  0  0  0  0  0
   22.0744  -21.3556  -15.2872 O   0  0  0  0  0  0  0  0  0  0  0  0
   22.5280  -21.8101  -11.8909 C   0  0  0  0  0  0  0  0  0  0  0  0
   22.5826  -23.0918  -11.7992 O   0  0  0  0  0  0  0  0  0  0  0  0
   22.4412  -19.2374  -14.5784 O   0  0  0  0  0  0  0  0  0  0  0  0
   14.9450  -24.6524   -8.4403 O   0  0  0  0  0  0  0  0  0  0  0  0
   16.0852  -23.9441   -8.7962 C   0  0  0  0  0  0  0  0  0  0  0  0
   15.9403  -22.7932   -9.5472 C   0  0  0  0  0  0  0  0  0  0  0  0
   17.0531  -22.0688   -9.9160 C   0  0  0  0  0  0  0  0  0  0  0  0
   18.3535  -22.4390   -9.5665 C   0  0  0  0  0  0  0  0  0  0  0  0
   19.5200  -21.6359   -9.9867 C   0  0  0  0  0  0  0  0  0  0  0  0
   20.0940  -22.1134  -11.3042 C   0  0  2  0  0  0  0  0  0  0  0  0
   21.2698  -21.2711  -11.5283 N   0  0  0  0  0  0  0  0  0  0  0  0
   19.0785  -22.0069  -12.3445 C   0  0  0  0  0  0  0  0  0  0  0  0
   18.3977  -23.0496  -12.6340 O   0  0  0  0  0  0  0  0  0  0  0  0
   18.4779  -23.5958   -8.8133 C   0  0  0  0  0  0  0  0  0  0  0  0
   17.3599  -24.3203   -8.4448 C   0  0  0  0  0  0  0  0  0  0  0  0
   18.8087  -20.8313  -13.0382 O   0  0  0  0  0  0  0  0  0  0  0  0
  2  1  1  6
  2  3  1  0
  4  5  2  0
  4  3  1  0
  6  5  1  0
  7 12  2  0
  7  6  1  0
  8  7  1  0
  9  8  2  0
  9 10  1  0
 10 11  2  0
 11 12  1  0
 12  4  1  0
 13  2  1  0
 14 13  2  0
 15 13  1  0
 16 17  1  6
 16 15  1  0
 17 18  1  0
 18 19  2  0
 18 22  1  0
 20 30  1  0
 20 16  1  0
 21 20  2  0
 23 24  1  0
 24 34  2  0
 25 24  1  0
 25 26  2  0
 26 27  1  0
 27 33  2  0
 27 28  1  0
 29 30  1  0
 29 28  1  1
 31 35  1  0
 31 29  1  0
 32 31  2  0
 34 33  1  0
M  END
$$$$
