KTS.pdb
     RDKit          3D

 23 22  0  0  1  0  0  0  0  0999 V2000
    8.1574  -17.1039   16.2222 N   0  0  0  0  0  0  0  0  0  0  0  0
    7.8172  -17.4259   17.5949 C   0  0  1  0  0  0  0  0  0  0  0  0
    7.9684  -18.8959   17.7965 C   0  0  0  0  0  0  0  0  0  0  0  0
    7.2269  -19.6650   16.7487 C   0  0  0  0  0  0  0  0  0  0  0  0
    7.4067  -21.1462   16.8819 C   0  0  0  0  0  0  0  0  0  0  0  0
    6.7007  -21.8446   15.7218 C   0  0  0  0  0  0  0  0  0  0  0  0
    6.8974  -23.2629   15.7378 N   0  0  0  0  0  0  0  0  0  0  0  0
    8.6854  -16.6273   18.4827 C   0  0  0  0  0  0  0  0  0  0  0  0
    9.8162  -16.1955   18.1371 O   0  0  0  0  0  0  0  0  0  0  0  0
    7.4919  -13.5605   20.2946 C   0  0  0  0  0  0  0  0  0  0  0  0
    8.0352  -14.5095   21.3381 C   0  0  1  0  0  0  0  0  0  0  0  0
    6.9933  -15.2575   21.8598 O   0  0  0  0  0  0  0  0  0  0  0  0
    9.0322  -15.4466   20.6773 C   0  0  2  0  0  0  0  0  0  0  0  0
    8.2577  -16.3149   19.7887 N   0  0  0  0  0  0  0  0  0  0  0  0
    9.6900  -16.3036   21.6871 C   0  0  0  0  0  0  0  0  0  0  0  0
    9.1760  -17.3963   22.0210 O   0  0  0  0  0  0  0  0  0  0  0  0
   13.3046  -15.3688   23.0490 O   0  0  0  0  0  0  0  0  0  0  0  0
   12.9821  -16.7129   23.2333 C   0  0  0  0  0  0  0  0  0  0  0  0
   11.4764  -16.8179   23.3317 C   0  0  2  0  0  0  0  0  0  0  0  0
   10.9150  -15.9410   22.3196 N   0  0  0  0  0  0  0  0  0  0  0  0
   11.0104  -16.3752   24.6682 C   0  0  0  0  0  0  0  0  0  0  0  0
   10.2361  -15.3873   24.7837 O   0  0  0  0  0  0  0  0  0  0  0  0
   11.4188  -17.0408   25.8115 O   0  0  0  0  0  0  0  0  0  0  0  0
  2  1  1  6
  2  3  1  0
  2  8  1  0
  4  3  1  0
  5  4  1  0
  5  6  1  0
  6  7  1  0
  8  9  2  0
 11 10  1  6
 11 13  1  0
 12 11  1  0
 13 15  1  0
 13 14  1  6
 14  8  1  0
 15 20  1  0
 15 16  2  0
 18 17  1  0
 19 18  1  1
 19 21  1  0
 20 19  1  0
 21 22  2  0
 21 23  1  0
M  END
$$$$
