KTS.pdb
     RDKit          3D

 23 22  0  0  1  0  0  0  0  0999 V2000
    6.0824  -15.3259   25.7659 N   0  0  0  0  0  0  0  0  0  0  0  0
    7.4114  -15.0947   25.2328 C   0  0  1  0  0  0  0  0  0  0  0  0
    8.4180  -15.5662   26.2272 C   0  0  0  0  0  0  0  0  0  0  0  0
    8.6157  -14.5593   27.3163 C   0  0  0  0  0  0  0  0  0  0  0  0
    9.7605  -14.9011   28.2200 C   0  0  0  0  0  0  0  0  0  0  0  0
    9.9742  -13.7614   29.2137 C   0  0  0  0  0  0  0  0  0  0  0  0
   11.0019  -14.0543   30.1669 N   0  0  0  0  0  0  0  0  0  0  0  0
    7.5122  -15.7884   23.9334 C   0  0  0  0  0  0  0  0  0  0  0  0
    7.0124  -16.9230   23.7155 O   0  0  0  0  0  0  0  0  0  0  0  0
    6.9417  -13.9033   20.7873 C   0  0  0  0  0  0  0  0  0  0  0  0
    8.2036  -14.6920   20.5226 C   0  0  1  0  0  0  0  0  0  0  0  0
    9.2995  -13.8566   20.6578 O   0  0  0  0  0  0  0  0  0  0  0  0
    8.3071  -15.8102   21.5463 C   0  0  2  0  0  0  0  0  0  0  0  0
    8.1950  -15.1781   22.8621 N   0  0  0  0  0  0  0  0  0  0  0  0
    9.6305  -16.4655   21.4701 C   0  0  0  0  0  0  0  0  0  0  0  0
   10.5532  -16.1196   22.2438 O   0  0  0  0  0  0  0  0  0  0  0  0
   10.1944  -20.2335   20.6579 O   0  0  0  0  0  0  0  0  0  0  0  0
   11.0915  -19.4831   19.8986 C   0  0  0  0  0  0  0  0  0  0  0  0
   11.2306  -18.1270   20.5538 C   0  0  2  0  0  0  0  0  0  0  0  0
    9.9205  -17.5013   20.5346 N   0  0  0  0  0  0  0  0  0  0  0  0
   12.1833  -17.2790   19.7971 C   0  0  0  0  0  0  0  0  0  0  0  0
   11.7782  -16.2705   19.1584 O   0  0  0  0  0  0  0  0  0  0  0  0
   13.5342  -17.5817   19.7800 O   0  0  0  0  0  0  0  0  0  0  0  0
  2  1  1  1
  2  3  1  0
  2  8  1  0
  4  3  1  0
  5  4  1  0
  5  6  1  0
  6  7  1  0
  8  9  2  0
 11 10  1  1
 11 13  1  0
 12 11  1  0
 13 15  1  0
 13 14  1  1
 14  8  1  0
 15 20  1  0
 15 16  2  0
 18 17  1  0
 19 18  1  6
 19 21  1  0
 20 19  1  0
 21 22  2  0
 21 23  1  0
M  END
$$$$
