KTS.pdb
     RDKit          3D

 23 22  0  0  1  0  0  0  0  0999 V2000
    8.5374  -17.7598   17.2877 N   0  0  0  0  0  0  0  0  0  0  0  0
    9.1428  -18.3454   18.4686 C   0  0  1  0  0  0  0  0  0  0  0  0
   10.3540  -19.1129   18.0585 C   0  0  0  0  0  0  0  0  0  0  0  0
   10.3123  -19.4523   16.6018 C   0  0  0  0  0  0  0  0  0  0  0  0
   11.5157  -20.2231   16.1522 C   0  0  0  0  0  0  0  0  0  0  0  0
   11.7055  -21.4348   17.0620 C   0  0  0  0  0  0  0  0  0  0  0  0
   12.8438  -22.2212   16.6928 N   0  0  0  0  0  0  0  0  0  0  0  0
    9.4417  -17.2564   19.4196 C   0  0  0  0  0  0  0  0  0  0  0  0
   10.1788  -16.2758   19.1374 O   0  0  0  0  0  0  0  0  0  0  0  0
    7.1730  -14.9121   20.7734 C   0  0  0  0  0  0  0  0  0  0  0  0
    7.6958  -15.6498   21.9846 C   0  0  1  0  0  0  0  0  0  0  0  0
    6.8535  -16.7112   22.2698 O   0  0  0  0  0  0  0  0  0  0  0  0
    9.0806  -16.1903   21.6698 C   0  0  2  0  0  0  0  0  0  0  0  0
    8.8906  -17.2850   20.7164 N   0  0  0  0  0  0  0  0  0  0  0  0
    9.7091  -16.7521   22.8848 C   0  0  0  0  0  0  0  0  0  0  0  0
    9.6844  -17.9867   23.0967 O   0  0  0  0  0  0  0  0  0  0  0  0
   12.9621  -15.5330   24.8673 O   0  0  0  0  0  0  0  0  0  0  0  0
   11.8426  -15.5877   25.6970 C   0  0  0  0  0  0  0  0  0  0  0  0
   10.8545  -16.5509   25.0775 C   0  0  2  0  0  0  0  0  0  0  0  0
   10.3614  -15.9385   23.8568 N   0  0  0  0  0  0  0  0  0  0  0  0
    9.7140  -16.7878   25.9952 C   0  0  0  0  0  0  0  0  0  0  0  0
    8.5436  -16.4565   25.6642 O   0  0  0  0  0  0  0  0  0  0  0  0
    9.9166  -17.3771   27.2316 O   0  0  0  0  0  0  0  0  0  0  0  0
  2  1  1  6
  2  3  1  0
  2  8  1  0
  4  3  1  0
  5  4  1  0
  5  6  1  0
  6  7  1  0
  8  9  2  0
 11 10  1  6
 11 13  1  0
 12 11  1  0
 13 15  1  0
 13 14  1  6
 14  8  1  0
 15 20  1  0
 15 16  2  0
 18 17  1  0
 19 18  1  1
 19 21  1  0
 20 19  1  0
 21 22  2  0
 21 23  1  0
M  END
$$$$
