KTS.pdb
     RDKit          3D

 23 22  0  0  1  0  0  0  0  0999 V2000
    8.4707  -17.1498   16.2104 N   0  0  0  0  0  0  0  0  0  0  0  0
    8.2291  -17.6968   17.5318 C   0  0  1  0  0  0  0  0  0  0  0  0
    8.6707  -19.1212   17.5516 C   0  0  0  0  0  0  0  0  0  0  0  0
    8.8138  -19.6628   16.1641 C   0  0  0  0  0  0  0  0  0  0  0  0
    9.1270  -21.1276   16.1437 C   0  0  0  0  0  0  0  0  0  0  0  0
    9.1950  -21.6071   14.6954 C   0  0  0  0  0  0  0  0  0  0  0  0
    9.3781  -23.0240   14.5980 N   0  0  0  0  0  0  0  0  0  0  0  0
    8.9416  -16.8559   18.5143 C   0  0  0  0  0  0  0  0  0  0  0  0
   10.0383  -16.2879   18.2708 O   0  0  0  0  0  0  0  0  0  0  0  0
    7.1992  -14.1238   20.5149 C   0  0  0  0  0  0  0  0  0  0  0  0
    7.8767  -15.0558   21.4930 C   0  0  1  0  0  0  0  0  0  0  0  0
    6.9616  -15.9969   21.9338 O   0  0  0  0  0  0  0  0  0  0  0  0
    9.0145  -15.7698   20.7826 C   0  0  2  0  0  0  0  0  0  0  0  0
    8.3946  -16.6584   19.7980 N   0  0  0  0  0  0  0  0  0  0  0  0
    9.7771  -16.6084   21.7325 C   0  0  0  0  0  0  0  0  0  0  0  0
    9.4068  -17.7791   21.9811 O   0  0  0  0  0  0  0  0  0  0  0  0
   13.1610  -15.2399   23.4169 O   0  0  0  0  0  0  0  0  0  0  0  0
   13.0892  -16.6301   23.3345 C   0  0  0  0  0  0  0  0  0  0  0  0
   11.6274  -17.0185   23.3351 C   0  0  2  0  0  0  0  0  0  0  0  0
   10.9466  -16.1408   22.4000 N   0  0  0  0  0  0  0  0  0  0  0  0
   11.0413  -16.8359   24.6850 C   0  0  0  0  0  0  0  0  0  0  0  0
   10.1430  -15.9742   24.8841 O   0  0  0  0  0  0  0  0  0  0  0  0
   11.4718  -17.6097   25.7494 O   0  0  0  0  0  0  0  0  0  0  0  0
  2  1  1  6
  2  3  1  0
  2  8  1  0
  4  3  1  0
  5  4  1  0
  5  6  1  0
  6  7  1  0
  8  9  2  0
 11 10  1  6
 11 13  1  0
 12 11  1  0
 13 15  1  0
 13 14  1  6
 14  8  1  0
 15 20  1  0
 15 16  2  0
 18 17  1  0
 19 18  1  1
 19 21  1  0
 20 19  1  0
 21 22  2  0
 21 23  1  0
M  END
$$$$
