KTS.pdb
     RDKit          3D

 23 22  0  0  1  0  0  0  0  0999 V2000
    7.9165  -17.6749   16.8901 N   0  0  0  0  0  0  0  0  0  0  0  0
    7.3688  -17.5094   18.2230 C   0  0  1  0  0  0  0  0  0  0  0  0
    6.9965  -18.8498   18.7605 C   0  0  0  0  0  0  0  0  0  0  0  0
    7.0798  -19.9009   17.6988 C   0  0  0  0  0  0  0  0  0  0  0  0
    7.8012  -21.1312   18.1573 C   0  0  0  0  0  0  0  0  0  0  0  0
    7.6746  -22.2156   17.0895 C   0  0  0  0  0  0  0  0  0  0  0  0
    6.9023  -23.3351   17.5378 N   0  0  0  0  0  0  0  0  0  0  0  0
    8.3745  -16.8129   19.0496 C   0  0  0  0  0  0  0  0  0  0  0  0
    9.6085  -16.8367   18.8021 O   0  0  0  0  0  0  0  0  0  0  0  0
    7.6331  -13.2060   20.5378 C   0  0  0  0  0  0  0  0  0  0  0  0
    8.0859  -14.1674   21.6126 C   0  0  1  0  0  0  0  0  0  0  0  0
    6.9747  -14.7265   22.2209 O   0  0  0  0  0  0  0  0  0  0  0  0
    8.9041  -15.2738   20.9683 C   0  0  2  0  0  0  0  0  0  0  0  0
    7.9669  -16.0755   20.1793 N   0  0  0  0  0  0  0  0  0  0  0  0
    9.4950  -16.1532   21.9999 C   0  0  0  0  0  0  0  0  0  0  0  0
    8.9478  -17.2415   22.2926 O   0  0  0  0  0  0  0  0  0  0  0  0
   13.2543  -17.3849   24.6859 O   0  0  0  0  0  0  0  0  0  0  0  0
   12.7340  -16.5742   23.6777 C   0  0  0  0  0  0  0  0  0  0  0  0
   11.2325  -16.7557   23.6669 C   0  0  2  0  0  0  0  0  0  0  0  0
   10.6907  -15.8176   22.7000 N   0  0  0  0  0  0  0  0  0  0  0  0
   10.6629  -16.4567   25.0031 C   0  0  0  0  0  0  0  0  0  0  0  0
    9.9792  -15.4145   25.1913 O   0  0  0  0  0  0  0  0  0  0  0  0
   10.8731  -17.3184   26.0662 O   0  0  0  0  0  0  0  0  0  0  0  0
  2  1  1  6
  2  3  1  0
  2  8  1  0
  4  3  1  0
  5  4  1  0
  5  6  1  0
  6  7  1  0
  8  9  2  0
 11 10  1  6
 11 13  1  0
 12 11  1  0
 13 15  1  0
 13 14  1  6
 14  8  1  0
 15 20  1  0
 15 16  2  0
 18 17  1  0
 19 18  1  1
 19 21  1  0
 20 19  1  0
 21 22  2  0
 21 23  1  0
M  END
$$$$
