KTS.pdb
     RDKit          3D

 23 22  0  0  1  0  0  0  0  0999 V2000
    8.6739  -17.3325   16.6344 N   0  0  0  0  0  0  0  0  0  0  0  0
    8.5019  -17.7615   18.0092 C   0  0  1  0  0  0  0  0  0  0  0  0
    8.9831  -19.1672   18.1389 C   0  0  0  0  0  0  0  0  0  0  0  0
    7.8385  -20.1306   18.1678 C   0  0  0  0  0  0  0  0  0  0  0  0
    7.2711  -20.3966   16.8071 C   0  0  0  0  0  0  0  0  0  0  0  0
    6.1811  -21.4606   16.9161 C   0  0  0  0  0  0  0  0  0  0  0  0
    5.5399  -21.7152   15.6613 N   0  0  0  0  0  0  0  0  0  0  0  0
    9.2305  -16.8174   18.8796 C   0  0  0  0  0  0  0  0  0  0  0  0
   10.3900  -16.3982   18.6259 O   0  0  0  0  0  0  0  0  0  0  0  0
    7.7022  -13.6160   20.3984 C   0  0  0  0  0  0  0  0  0  0  0  0
    8.2243  -14.4896   21.5159 C   0  0  1  0  0  0  0  0  0  0  0  0
    7.1884  -15.2643   22.0100 O   0  0  0  0  0  0  0  0  0  0  0  0
    9.3026  -15.4047   20.9604 C   0  0  2  0  0  0  0  0  0  0  0  0
    8.6270  -16.3418   20.0610 N   0  0  0  0  0  0  0  0  0  0  0  0
    9.9289  -16.1904   22.0454 C   0  0  0  0  0  0  0  0  0  0  0  0
    9.3816  -17.2357   22.4667 O   0  0  0  0  0  0  0  0  0  0  0  0
   13.4058  -15.0084   23.6817 O   0  0  0  0  0  0  0  0  0  0  0  0
   13.2372  -16.3927   23.6792 C   0  0  0  0  0  0  0  0  0  0  0  0
   11.7519  -16.6776   23.6577 C   0  0  2  0  0  0  0  0  0  0  0  0
   11.1598  -15.8098   22.6554 N   0  0  0  0  0  0  0  0  0  0  0  0
   11.1456  -16.3772   24.9773 C   0  0  0  0  0  0  0  0  0  0  0  0
   10.2708  -15.4769   25.0923 O   0  0  0  0  0  0  0  0  0  0  0  0
   11.5310  -17.0815   26.1053 O   0  0  0  0  0  0  0  0  0  0  0  0
  2  1  1  6
  2  3  1  0
  2  8  1  0
  4  3  1  0
  5  4  1  0
  5  6  1  0
  6  7  1  0
  8  9  2  0
 11 10  1  6
 11 13  1  0
 12 11  1  0
 13 15  1  0
 13 14  1  6
 14  8  1  0
 15 20  1  0
 15 16  2  0
 18 17  1  0
 19 18  1  1
 19 21  1  0
 20 19  1  0
 21 22  2  0
 21 23  1  0
M  END
$$$$
