KTS.pdb
     RDKit          3D

 23 22  0  0  1  0  0  0  0  0999 V2000
    4.7521  -19.0237   20.6192 N   0  0  0  0  0  0  0  0  0  0  0  0
    4.9215  -18.9070   22.0550 C   0  0  1  0  0  0  0  0  0  0  0  0
    4.4991  -20.1861   22.6954 C   0  0  0  0  0  0  0  0  0  0  0  0
    3.3718  -20.8211   21.9438 C   0  0  0  0  0  0  0  0  0  0  0  0
    2.8160  -22.0246   22.6416 C   0  0  0  0  0  0  0  0  0  0  0  0
    2.0719  -21.5783   23.8982 C   0  0  0  0  0  0  0  0  0  0  0  0
    0.6899  -21.9528   23.8758 N   0  0  0  0  0  0  0  0  0  0  0  0
    6.3316  -18.5625   22.3246 C   0  0  0  0  0  0  0  0  0  0  0  0
    7.3003  -19.0973   21.7244 O   0  0  0  0  0  0  0  0  0  0  0  0
    7.5409  -15.0609   22.4273 C   0  0  0  0  0  0  0  0  0  0  0  0
    8.0034  -15.6737   23.7293 C   0  0  1  0  0  0  0  0  0  0  0  0
    7.1144  -15.3321   24.7344 O   0  0  0  0  0  0  0  0  0  0  0  0
    8.0221  -17.1858   23.5806 C   0  0  2  0  0  0  0  0  0  0  0  0
    6.6442  -17.5905   23.2961 N   0  0  0  0  0  0  0  0  0  0  0  0
    8.4304  -17.8289   24.8480 C   0  0  0  0  0  0  0  0  0  0  0  0
    7.6296  -17.8979   25.8091 O   0  0  0  0  0  0  0  0  0  0  0  0
   11.5022  -20.2908   24.9746 O   0  0  0  0  0  0  0  0  0  0  0  0
   10.5721  -20.4044   26.0073 C   0  0  0  0  0  0  0  0  0  0  0  0
   10.0452  -19.0192   26.3096 C   0  0  2  0  0  0  0  0  0  0  0  0
    9.7261  -18.3916   25.0397 N   0  0  0  0  0  0  0  0  0  0  0  0
   11.0765  -18.2105   27.0036 C   0  0  0  0  0  0  0  0  0  0  0  0
   11.5290  -17.1581   26.4775 O   0  0  0  0  0  0  0  0  0  0  0  0
   11.5592  -18.5988   28.2418 O   0  0  0  0  0  0  0  0  0  0  0  0
  2  1  1  6
  2  3  1  0
  2  8  1  0
  4  3  1  0
  5  4  1  0
  5  6  1  0
  6  7  1  0
  8  9  2  0
 11 10  1  6
 11 13  1  0
 12 11  1  0
 13 15  1  0
 13 14  1  1
 14  8  1  0
 15 20  1  0
 15 16  2  0
 18 17  1  0
 19 18  1  6
 19 21  1  0
 20 19  1  0
 21 22  2  0
 21 23  1  0
M  END
$$$$
