KTS.pdb
     RDKit          3D

 23 22  0  0  1  0  0  0  0  0999 V2000
   -1.3135  -24.7803   27.3589 N   0  0  0  0  0  0  0  0  0  0  0  0
   -2.6271  -25.2714   27.7292 C   0  0  1  0  0  0  0  0  0  0  0  0
   -2.4652  -26.4176   28.6696 C   0  0  0  0  0  0  0  0  0  0  0  0
   -1.7681  -27.5652   28.0093 C   0  0  0  0  0  0  0  0  0  0  0  0
   -1.6115  -28.7470   28.9165 C   0  0  0  0  0  0  0  0  0  0  0  0
   -0.9565  -29.8902   28.1443 C   0  0  0  0  0  0  0  0  0  0  0  0
   -0.7408  -31.0467   28.9607 N   0  0  0  0  0  0  0  0  0  0  0  0
   -3.3901  -24.1489   28.3103 C   0  0  0  0  0  0  0  0  0  0  0  0
   -2.9005  -23.3355   29.1369 O   0  0  0  0  0  0  0  0  0  0  0  0
   -4.2608  -21.2573   26.9164 C   0  0  0  0  0  0  0  0  0  0  0  0
   -5.6190  -21.8571   27.1994 C   0  0  1  0  0  0  0  0  0  0  0  0
   -6.0321  -22.5883   26.0985 O   0  0  0  0  0  0  0  0  0  0  0  0
   -5.5047  -22.7881   28.3948 C   0  0  2  0  0  0  0  0  0  0  0  0
   -4.7359  -23.9492   27.9429 N   0  0  0  0  0  0  0  0  0  0  0  0
   -6.8405  -23.2647   28.8135 C   0  0  0  0  0  0  0  0  0  0  0  0
   -7.3893  -24.2173   28.2127 O   0  0  0  0  0  0  0  0  0  0  0  0
  -10.3188  -23.4910   32.0673 O   0  0  0  0  0  0  0  0  0  0  0  0
   -9.0634  -22.9894   31.7256 C   0  0  0  0  0  0  0  0  0  0  0  0
   -8.8705  -23.1982   30.2401 C   0  0  2  0  0  0  0  0  0  0  0  0
   -7.5582  -22.6798   29.8975 N   0  0  0  0  0  0  0  0  0  0  0  0
   -9.8997  -22.4558   29.4726 C   0  0  0  0  0  0  0  0  0  0  0  0
   -9.7462  -21.2328   29.2086 O   0  0  0  0  0  0  0  0  0  0  0  0
  -11.0467  -23.0949   29.0334 O   0  0  0  0  0  0  0  0  0  0  0  0
  2  1  1  1
  2  3  1  0
  2  8  1  0
  4  3  1  0
  5  4  1  0
  5  6  1  0
  6  7  1  0
  8  9  2  0
 11 10  1  6
 11 13  1  0
 12 11  1  0
 13 15  1  0
 13 14  1  6
 14  8  1  0
 15 20  1  0
 15 16  2  0
 18 17  1  0
 19 18  1  1
 19 21  1  0
 20 19  1  0
 21 22  2  0
 21 23  1  0
M  END
$$$$
