KTS.pdb
     RDKit          3D

 23 22  0  0  1  0  0  0  0  0999 V2000
    8.2581  -16.8733   15.9728 N   0  0  0  0  0  0  0  0  0  0  0  0
    7.5529  -16.7031   17.2289 C   0  0  1  0  0  0  0  0  0  0  0  0
    7.0189  -18.0258   17.6644 C   0  0  0  0  0  0  0  0  0  0  0  0
    6.7079  -18.8977   16.4888 C   0  0  0  0  0  0  0  0  0  0  0  0
    6.1710  -20.2381   16.8880 C   0  0  0  0  0  0  0  0  0  0  0  0
    5.8341  -21.0390   15.6322 C   0  0  0  0  0  0  0  0  0  0  0  0
    5.2172  -22.2952   15.9355 N   0  0  0  0  0  0  0  0  0  0  0  0
    8.4878  -16.1066   18.2034 C   0  0  0  0  0  0  0  0  0  0  0  0
    9.7390  -16.1389   18.0693 O   0  0  0  0  0  0  0  0  0  0  0  0
    7.7964  -12.6827   20.0184 C   0  0  0  0  0  0  0  0  0  0  0  0
    8.0752  -13.7664   21.0344 C   0  0  1  0  0  0  0  0  0  0  0  0
    6.8741  -14.2852   21.4879 O   0  0  0  0  0  0  0  0  0  0  0  0
    8.8692  -14.8750   20.3640 C   0  0  2  0  0  0  0  0  0  0  0  0
    7.9881  -15.4612   19.3524 N   0  0  0  0  0  0  0  0  0  0  0  0
    9.2086  -15.9348   21.3378 C   0  0  0  0  0  0  0  0  0  0  0  0
    8.4676  -16.9369   21.4662 O   0  0  0  0  0  0  0  0  0  0  0  0
   12.8123  -16.1100   23.2209 O   0  0  0  0  0  0  0  0  0  0  0  0
   12.0871  -17.2864   23.0349 C   0  0  0  0  0  0  0  0  0  0  0  0
   10.6168  -16.9412   23.1168 C   0  0  2  0  0  0  0  0  0  0  0  0
   10.3696  -15.8747   22.1629 N   0  0  0  0  0  0  0  0  0  0  0  0
   10.2696  -16.4639   24.4772 C   0  0  0  0  0  0  0  0  0  0  0  0
    9.8050  -15.3052   24.6523 O   0  0  0  0  0  0  0  0  0  0  0  0
   10.4503  -17.2842   25.5779 O   0  0  0  0  0  0  0  0  0  0  0  0
  2  1  1  6
  2  3  1  0
  2  8  1  0
  4  3  1  0
  5  4  1  0
  5  6  1  0
  6  7  1  0
  8  9  2  0
 11 10  1  6
 11 13  1  0
 12 11  1  0
 13 15  1  0
 13 14  1  6
 14  8  1  0
 15 20  1  0
 15 16  2  0
 18 17  1  0
 19 18  1  1
 19 21  1  0
 20 19  1  0
 21 22  2  0
 21 23  1  0
M  END
$$$$
