KTS.pdb
     RDKit          3D

 23 22  0  0  1  0  0  0  0  0999 V2000
    8.0325  -16.5440   20.1556 N   0  0  0  0  0  0  0  0  0  0  0  0
    8.5635  -15.3502   20.7857 C   0  0  1  0  0  0  0  0  0  0  0  0
    8.1914  -14.1644   19.9612 C   0  0  0  0  0  0  0  0  0  0  0  0
    8.4509  -14.4122   18.5086 C   0  0  0  0  0  0  0  0  0  0  0  0
    7.7423  -13.4370   17.6192 C   0  0  0  0  0  0  0  0  0  0  0  0
    8.0873  -13.7419   16.1632 C   0  0  0  0  0  0  0  0  0  0  0  0
    7.4020  -12.8796   15.2481 N   0  0  0  0  0  0  0  0  0  0  0  0
    8.0375  -15.2855   22.1637 C   0  0  0  0  0  0  0  0  0  0  0  0
    7.0400  -14.5907   22.4904 O   0  0  0  0  0  0  0  0  0  0  0  0
    6.3908  -17.5842   24.0277 C   0  0  0  0  0  0  0  0  0  0  0  0
    7.6246  -17.3679   24.8735 C   0  0  1  0  0  0  0  0  0  0  0  0
    8.5735  -18.3220   24.5470 O   0  0  0  0  0  0  0  0  0  0  0  0
    8.1889  -15.9891   24.5746 C   0  0  2  0  0  0  0  0  0  0  0  0
    8.6595  -16.0262   23.1888 N   0  0  0  0  0  0  0  0  0  0  0  0
    9.3531  -15.7037   25.4406 C   0  0  0  0  0  0  0  0  0  0  0  0
   10.5101  -16.0021   25.0638 O   0  0  0  0  0  0  0  0  0  0  0  0
    8.8871  -13.6461   28.8459 O   0  0  0  0  0  0  0  0  0  0  0  0
   10.1574  -13.5398   28.2806 C   0  0  0  0  0  0  0  0  0  0  0  0
   10.4203  -14.8040   27.4929 C   0  0  2  0  0  0  0  0  0  0  0  0
    9.2244  -15.0882   26.7200 N   0  0  0  0  0  0  0  0  0  0  0  0
   10.6872  -15.9405   28.4074 C   0  0  0  0  0  0  0  0  0  0  0  0
    9.8879  -16.9130   28.4737 O   0  0  0  0  0  0  0  0  0  0  0  0
   11.8198  -15.9516   29.2037 O   0  0  0  0  0  0  0  0  0  0  0  0
  2  1  1  6
  2  3  1  0
  2  8  1  0
  4  3  1  0
  5  4  1  0
  5  6  1  0
  6  7  1  0
  8  9  2  0
 11 10  1  6
 11 13  1  0
 12 11  1  0
 13 15  1  0
 13 14  1  6
 14  8  1  0
 15 20  1  0
 15 16  2  0
 18 17  1  0
 19 18  1  1
 19 21  1  0
 20 19  1  0
 21 22  2  0
 21 23  1  0
M  END
$$$$
