KTS.pdb
     RDKit          3D

 23 22  0  0  1  0  0  0  0  0999 V2000
   11.9248  -14.4802   17.1621 N   0  0  0  0  0  0  0  0  0  0  0  0
   12.2340  -15.1324   18.4202 C   0  0  1  0  0  0  0  0  0  0  0  0
   13.5722  -14.6683   18.8872 C   0  0  0  0  0  0  0  0  0  0  0  0
   14.6637  -15.1908   18.0071 C   0  0  0  0  0  0  0  0  0  0  0  0
   16.0310  -14.8593   18.5217 C   0  0  0  0  0  0  0  0  0  0  0  0
   17.0759  -15.5827   17.6749 C   0  0  0  0  0  0  0  0  0  0  0  0
   18.4138  -15.2980   18.0988 N   0  0  0  0  0  0  0  0  0  0  0  0
   11.1496  -14.8270   19.3746 C   0  0  0  0  0  0  0  0  0  0  0  0
   10.6322  -13.6853   19.4899 O   0  0  0  0  0  0  0  0  0  0  0  0
    7.9954  -16.5915   19.3815 C   0  0  0  0  0  0  0  0  0  0  0  0
    8.5142  -16.7542   20.7918 C   0  0  1  0  0  0  0  0  0  0  0  0
    9.1789  -17.9645   20.8955 O   0  0  0  0  0  0  0  0  0  0  0  0
    9.4909  -15.6285   21.0882 C   0  0  2  0  0  0  0  0  0  0  0  0
   10.6452  -15.8412   20.2132 N   0  0  0  0  0  0  0  0  0  0  0  0
    9.9635  -15.7038   22.4874 C   0  0  0  0  0  0  0  0  0  0  0  0
   11.1011  -16.1600   22.7472 O   0  0  0  0  0  0  0  0  0  0  0  0
    7.5343  -14.6211   25.4317 O   0  0  0  0  0  0  0  0  0  0  0  0
    8.8652  -14.5150   25.8340 C   0  0  0  0  0  0  0  0  0  0  0  0
    9.6923  -15.4088   24.9369 C   0  0  2  0  0  0  0  0  0  0  0  0
    9.1691  -15.2715   23.5893 N   0  0  0  0  0  0  0  0  0  0  0  0
    9.5728  -16.8248   25.3607 C   0  0  0  0  0  0  0  0  0  0  0  0
    9.9964  -17.1957   26.4886 O   0  0  0  0  0  0  0  0  0  0  0  0
    8.9934  -17.7631   24.5235 O   0  0  0  0  0  0  0  0  0  0  0  0
  2  1  1  6
  2  3  1  0
  2  8  1  0
  4  3  1  0
  5  4  1  0
  5  6  1  0
  6  7  1  0
  8  9  2  0
 11 10  1  6
 11 13  1  0
 12 11  1  0
 13 15  1  0
 13 14  1  6
 14  8  1  0
 15 20  1  0
 15 16  2  0
 18 17  1  0
 19 18  1  1
 19 21  1  0
 20 19  1  0
 21 22  2  0
 21 23  1  0
M  END
$$$$
