KTS.pdb
     RDKit          3D

 23 22  0  0  1  0  0  0  0  0999 V2000
    4.1805  -22.5303   21.6745 N   0  0  0  0  0  0  0  0  0  0  0  0
    4.1966  -21.8622   22.9619 C   0  0  1  0  0  0  0  0  0  0  0  0
    3.3844  -22.6576   23.9274 C   0  0  0  0  0  0  0  0  0  0  0  0
    1.9385  -22.6635   23.5423 C   0  0  0  0  0  0  0  0  0  0  0  0
    1.0736  -23.3557   24.5508 C   0  0  0  0  0  0  0  0  0  0  0  0
   -0.3936  -23.1488   24.1813 C   0  0  0  0  0  0  0  0  0  0  0  0
   -0.7319  -23.7567   22.9296 N   0  0  0  0  0  0  0  0  0  0  0  0
    5.6037  -21.7052   23.3804 C   0  0  0  0  0  0  0  0  0  0  0  0
    6.4618  -22.6201   23.2752 O   0  0  0  0  0  0  0  0  0  0  0  0
    7.8628  -19.1860   22.1025 C   0  0  0  0  0  0  0  0  0  0  0  0
    7.8480  -18.9550   23.5961 C   0  0  1  0  0  0  0  0  0  0  0  0
    6.9197  -17.9721   23.8956 O   0  0  0  0  0  0  0  0  0  0  0  0
    7.4406  -20.2450   24.2881 C   0  0  2  0  0  0  0  0  0  0  0  0
    6.0414  -20.4831   23.9290 N   0  0  0  0  0  0  0  0  0  0  0  0
    7.5114  -20.0929   25.7573 C   0  0  0  0  0  0  0  0  0  0  0  0
    6.6883  -19.3642   26.3583 O   0  0  0  0  0  0  0  0  0  0  0  0
    7.2745  -22.4904   28.3747 O   0  0  0  0  0  0  0  0  0  0  0  0
    8.5038  -21.8916   28.6483 C   0  0  0  0  0  0  0  0  0  0  0  0
    8.5138  -20.5323   27.9850 C   0  0  2  0  0  0  0  0  0  0  0  0
    8.4965  -20.7516   26.5497 N   0  0  0  0  0  0  0  0  0  0  0  0
    9.7438  -19.7865   28.3459 C   0  0  0  0  0  0  0  0  0  0  0  0
   10.0406  -19.5833   29.5541 O   0  0  0  0  0  0  0  0  0  0  0  0
   10.5867  -19.3011   27.3606 O   0  0  0  0  0  0  0  0  0  0  0  0
  2  1  1  6
  2  3  1  0
  2  8  1  0
  4  3  1  0
  5  4  1  0
  5  6  1  0
  6  7  1  0
  8  9  2  0
 11 10  1  6
 11 13  1  0
 12 11  1  0
 13 15  1  0
 13 14  1  1
 14  8  1  0
 15 20  1  0
 15 16  2  0
 18 17  1  0
 19 18  1  1
 19 21  1  0
 20 19  1  0
 21 22  2  0
 21 23  1  0
M  END
$$$$
