KTS.pdb
     RDKit          3D

 23 22  0  0  1  0  0  0  0  0999 V2000
    8.2450  -17.5241   16.4404 N   0  0  0  0  0  0  0  0  0  0  0  0
    8.1603  -17.9971   17.8089 C   0  0  1  0  0  0  0  0  0  0  0  0
    8.7497  -19.3651   17.8830 C   0  0  0  0  0  0  0  0  0  0  0  0
    7.8164  -20.3880   17.3159 C   0  0  0  0  0  0  0  0  0  0  0  0
    6.6585  -20.6800   18.2204 C   0  0  0  0  0  0  0  0  0  0  0  0
    5.7782  -21.7512   17.5803 C   0  0  0  0  0  0  0  0  0  0  0  0
    5.8724  -23.0102   18.2561 N   0  0  0  0  0  0  0  0  0  0  0  0
    8.8507  -17.0214   18.6757 C   0  0  0  0  0  0  0  0  0  0  0  0
   10.0044  -16.5790   18.4353 O   0  0  0  0  0  0  0  0  0  0  0  0
    7.0713  -13.8733   20.2979 C   0  0  0  0  0  0  0  0  0  0  0  0
    7.6985  -14.7618   21.3475 C   0  0  1  0  0  0  0  0  0  0  0  0
    6.7480  -15.6527   21.8169 O   0  0  0  0  0  0  0  0  0  0  0  0
    8.8359  -15.5440   20.7122 C   0  0  2  0  0  0  0  0  0  0  0  0
    8.2148  -16.5407   19.8379 N   0  0  0  0  0  0  0  0  0  0  0  0
    9.6110  -16.2666   21.7436 C   0  0  0  0  0  0  0  0  0  0  0  0
    9.3498  -17.4629   22.0087 O   0  0  0  0  0  0  0  0  0  0  0  0
   13.6743  -16.5476   24.2520 O   0  0  0  0  0  0  0  0  0  0  0  0
   12.8058  -15.7173   23.5443 C   0  0  0  0  0  0  0  0  0  0  0  0
   11.5204  -16.4807   23.3149 C   0  0  2  0  0  0  0  0  0  0  0  0
   10.6719  -15.6555   22.4738 N   0  0  0  0  0  0  0  0  0  0  0  0
   10.8281  -16.7324   24.6020 C   0  0  0  0  0  0  0  0  0  0  0  0
    9.8303  -16.0406   24.9407 O   0  0  0  0  0  0  0  0  0  0  0  0
   11.2672  -17.7324   25.4530 O   0  0  0  0  0  0  0  0  0  0  0  0
  2  1  1  6
  2  3  1  0
  2  8  1  0
  4  3  1  0
  5  4  1  0
  5  6  1  0
  6  7  1  0
  8  9  2  0
 11 10  1  6
 11 13  1  0
 12 11  1  0
 13 15  1  0
 13 14  1  6
 14  8  1  0
 15 20  1  0
 15 16  2  0
 18 17  1  0
 19 18  1  1
 19 21  1  0
 20 19  1  0
 21 22  2  0
 21 23  1  0
M  END
$$$$
