SRE.pdb
     RDKit          3D

 27 26  0  0  1  0  0  0  0  0999 V2000
   10.7091  -15.0427   19.6601 O   0  0  0  0  0  0  0  0  0  0  0  0
   10.0651  -16.2594   19.8807 C   0  0  0  0  0  0  0  0  0  0  0  0
    8.5584  -16.1210   19.9452 C   0  0  2  0  0  0  0  0  0  0  0  0
    8.1953  -14.8747   19.3140 N   0  0  0  0  0  0  0  0  0  0  0  0
    8.1532  -16.1906   21.3569 C   0  0  0  0  0  0  0  0  0  0  0  0
    7.6775  -15.1581   21.9497 O   0  0  0  0  0  0  0  0  0  0  0  0
    7.3766  -23.1246   26.9668 N   0  0  0  0  0  0  0  0  0  0  0  0
    6.6084  -22.0622   27.5382 C   0  0  0  0  0  0  0  0  0  0  0  0
    5.9287  -22.2802   28.6033 N   0  0  0  0  0  0  0  0  0  0  0  0
    6.6018  -20.7832   26.9344 N   0  0  0  0  0  0  0  0  0  0  0  0
    7.2627  -20.5264   25.6752 C   0  0  0  0  0  0  0  0  0  0  0  0
    7.1273  -19.0598   25.3168 C   0  0  0  0  0  0  0  0  0  0  0  0
    7.7393  -18.8533   23.9638 C   0  0  0  0  0  0  0  0  0  0  0  0
    7.6273  -17.4285   23.4850 C   0  0  2  0  0  0  0  0  0  0  0  0
    8.2480  -17.3609   22.1536 N   0  0  0  0  0  0  0  0  0  0  0  0
    8.4293  -16.5960   24.4296 C   0  0  0  0  0  0  0  0  0  0  0  0
    9.6787  -16.6634   24.3310 O   0  0  0  0  0  0  0  0  0  0  0  0
    5.3395  -21.5579   29.0588 N   0  0  0  0  0  0  0  0  0  0  0  0
    7.8470  -15.7543   25.4044 C   0  0  2  0  0  0  0  0  0  0  0  0
    8.7886  -14.9716   26.2353 C   0  0  0  0  0  0  0  0  0  0  0  0
    8.0273  -13.7428   26.6910 C   0  0  0  0  0  0  0  0  0  0  0  0
    7.5117  -12.9672   25.5182 C   0  0  0  0  0  0  0  0  0  0  0  0
    6.7224  -11.7863   25.9956 O   0  0  0  0  0  0  0  0  0  0  0  0
    6.4931  -11.5721   27.1919 C   0  0  0  0  0  0  0  0  0  0  0  0
    9.2933  -15.8158   27.3249 O   0  0  0  0  0  0  0  0  0  0  0  0
    8.8785  -17.1011   27.5782 O   0  0  0  0  0  0  0  0  0  0  0  0
    6.2300  -10.9015   25.0269 O   0  0  0  0  0  0  0  0  0  0  0  0
  2  1  1  0
  3  4  1  1
  3  2  1  0
  5  3  1  0
  6  5  2  0
  7  8  1  0
  8 10  1  0
  9  8  2  0
 10 11  1  0
 12 11  1  0
 13 12  1  0
 14 13  1  1
 14 15  1  0
 15  5  1  0
 16 14  1  0
 16 17  2  0
 18 16  1  0
 19 18  1  0
 19 20  1  6
 20 21  1  0
 21 22  1  0
 22 26  1  0
 22 23  2  0
 24 19  1  0
 25 24  1  0
 27 24  2  0
M  END
$$$$
