SRE.pdb
     RDKit          3D

 27 26  0  0  1  0  0  0  0  0999 V2000
   14.7990  -17.1093   15.0253 O   0  0  0  0  0  0  0  0  0  0  0  0
   14.1809  -16.5217   16.1281 C   0  0  0  0  0  0  0  0  0  0  0  0
   14.0228  -15.0227   15.9808 C   0  0  2  0  0  0  0  0  0  0  0  0
   15.3152  -14.4649   15.6616 N   0  0  0  0  0  0  0  0  0  0  0  0
   13.4629  -14.4970   17.2347 C   0  0  0  0  0  0  0  0  0  0  0  0
   14.2353  -14.1412   18.1942 O   0  0  0  0  0  0  0  0  0  0  0  0
    7.5451  -15.6717   19.7961 N   0  0  0  0  0  0  0  0  0  0  0  0
    7.0105  -14.7784   20.7766 C   0  0  0  0  0  0  0  0  0  0  0  0
    6.2945  -15.2477   21.7310 N   0  0  0  0  0  0  0  0  0  0  0  0
    7.2725  -13.3909   20.6943 N   0  0  0  0  0  0  0  0  0  0  0  0
    7.9970  -12.8118   19.5860 C   0  0  0  0  0  0  0  0  0  0  0  0
    9.4880  -12.9431   19.8258 C   0  0  0  0  0  0  0  0  0  0  0  0
   10.1028  -13.5590   18.6050 C   0  0  0  0  0  0  0  0  0  0  0  0
   11.5823  -13.8030   18.7578 C   0  0  2  0  0  0  0  0  0  0  0  0
   12.0741  -14.3424   17.4811 N   0  0  0  0  0  0  0  0  0  0  0  0
   11.7363  -14.8500   19.8106 C   0  0  0  0  0  0  0  0  0  0  0  0
   11.4542  -16.0298   19.4885 O   0  0  0  0  0  0  0  0  0  0  0  0
    5.8267  -14.6490   22.4375 N   0  0  0  0  0  0  0  0  0  0  0  0
   12.1795  -14.5680   21.1228 C   0  0  2  0  0  0  0  0  0  0  0  0
   12.5650  -15.7363   21.9452 C   0  0  0  0  0  0  0  0  0  0  0  0
   14.0658  -15.6414   22.1344 C   0  0  0  0  0  0  0  0  0  0  0  0
   14.5592  -16.7197   23.0490 C   0  0  0  0  0  0  0  0  0  0  0  0
   16.0405  -16.5912   23.2356 O   0  0  0  0  0  0  0  0  0  0  0  0
   16.5486  -15.8173   24.0557 C   0  0  0  0  0  0  0  0  0  0  0  0
   11.7909  -15.7300   23.1923 O   0  0  0  0  0  0  0  0  0  0  0  0
   10.8696  -14.7714   23.5391 O   0  0  0  0  0  0  0  0  0  0  0  0
   16.8663  -17.3896   22.4331 O   0  0  0  0  0  0  0  0  0  0  0  0
  2  1  1  0
  3  4  1  1
  3  2  1  0
  5  3  1  0
  6  5  2  0
  7  8  1  0
  8 10  1  0
  9  8  2  0
 10 11  1  0
 12 11  1  0
 13 12  1  0
 14 13  1  6
 14 15  1  0
 15  5  1  0
 16 14  1  0
 16 17  2  0
 18 16  1  0
 19 18  1  0
 19 20  1  1
 20 21  1  0
 21 22  1  0
 22 26  1  0
 22 23  2  0
 24 19  1  0
 25 24  1  0
 27 24  2  0
M  END
$$$$
