SRE.pdb
     RDKit          3D

 27 26  0  0  1  0  0  0  0  0999 V2000
    9.3610  -14.9476   17.4702 O   0  0  0  0  0  0  0  0  0  0  0  0
    7.9692  -14.8749   17.5072 C   0  0  0  0  0  0  0  0  0  0  0  0
    7.4651  -13.7368   18.3698 C   0  0  2  0  0  0  0  0  0  0  0  0
    7.8839  -12.4956   17.7638 N   0  0  0  0  0  0  0  0  0  0  0  0
    7.9974  -13.9226   19.7279 C   0  0  0  0  0  0  0  0  0  0  0  0
    9.0943  -13.3599   20.0801 O   0  0  0  0  0  0  0  0  0  0  0  0
    8.5954  -19.1175   24.9949 N   0  0  0  0  0  0  0  0  0  0  0  0
    8.1488  -18.4657   26.1870 C   0  0  0  0  0  0  0  0  0  0  0  0
    8.6974  -18.7600   27.3078 N   0  0  0  0  0  0  0  0  0  0  0  0
    7.1134  -17.5040   26.1278 N   0  0  0  0  0  0  0  0  0  0  0  0
    6.5742  -17.0340   24.8721 C   0  0  0  0  0  0  0  0  0  0  0  0
    7.6362  -16.2582   24.1184 C   0  0  0  0  0  0  0  0  0  0  0  0
    6.9990  -15.6615   22.8995 C   0  0  0  0  0  0  0  0  0  0  0  0
    7.9734  -14.8799   22.0561 C   0  0  2  0  0  0  0  0  0  0  0  0
    7.3671  -14.7081   20.7274 N   0  0  0  0  0  0  0  0  0  0  0  0
    9.1949  -15.7268   21.9188 C   0  0  0  0  0  0  0  0  0  0  0  0
    9.1243  -16.7093   21.1410 O   0  0  0  0  0  0  0  0  0  0  0  0
    8.4090  -18.3364   28.2099 N   0  0  0  0  0  0  0  0  0  0  0  0
   10.3981  -15.4671   22.6136 C   0  0  2  0  0  0  0  0  0  0  0  0
   11.5005  -16.4284   22.3887 C   0  0  0  0  0  0  0  0  0  0  0  0
   12.6819  -15.6097   21.9079 C   0  0  0  0  0  0  0  0  0  0  0  0
   13.9169  -16.4522   21.8209 C   0  0  0  0  0  0  0  0  0  0  0  0
   15.0746  -15.6141   21.3703 O   0  0  0  0  0  0  0  0  0  0  0  0
   14.9559  -14.4278   21.0411 C   0  0  0  0  0  0  0  0  0  0  0  0
   11.7443  -17.1861   23.6219 O   0  0  0  0  0  0  0  0  0  0  0  0
   12.5002  -18.3308   23.7031 O   0  0  0  0  0  0  0  0  0  0  0  0
   16.3361  -16.2225   21.3247 O   0  0  0  0  0  0  0  0  0  0  0  0
  2  1  1  0
  3  4  1  6
  3  2  1  0
  5  3  1  0
  6  5  2  0
  7  8  1  0
  8 10  1  0
  9  8  2  0
 10 11  1  0
 12 11  1  0
 13 12  1  0
 14 13  1  1
 14 15  1  0
 15  5  1  0
 16 14  1  0
 16 17  2  0
 18 16  1  0
 19 18  1  0
 19 20  1  1
 20 21  1  0
 21 22  1  0
 22 26  1  0
 22 23  2  0
 24 19  1  0
 25 24  1  0
 27 24  2  0
M  END
$$$$
