SRE.pdb
     RDKit          3D

 27 26  0  0  1  0  0  0  0  0999 V2000
   11.8607  -21.0288   19.1602 O   0  0  0  0  0  0  0  0  0  0  0  0
   10.5148  -20.8034   18.8750 C   0  0  0  0  0  0  0  0  0  0  0  0
   10.2797  -19.4887   18.1610 C   0  0  2  0  0  0  0  0  0  0  0  0
   11.0622  -19.4913   16.9481 N   0  0  0  0  0  0  0  0  0  0  0  0
   10.6440  -18.3990   19.0785 C   0  0  0  0  0  0  0  0  0  0  0  0
   11.8010  -17.8508   19.0118 O   0  0  0  0  0  0  0  0  0  0  0  0
    8.1715  -12.4817   19.9866 N   0  0  0  0  0  0  0  0  0  0  0  0
    7.7273  -12.5222   21.3454 C   0  0  0  0  0  0  0  0  0  0  0  0
    7.8274  -11.4701   22.0713 N   0  0  0  0  0  0  0  0  0  0  0  0
    7.1805  -13.7116   21.8809 N   0  0  0  0  0  0  0  0  0  0  0  0
    6.9050  -14.8673   21.0581 C   0  0  0  0  0  0  0  0  0  0  0  0
    8.1926  -15.3705   20.4363 C   0  0  0  0  0  0  0  0  0  0  0  0
    8.9544  -16.1208   21.4873 C   0  0  0  0  0  0  0  0  0  0  0  0
   10.2020  -16.7727   20.9487 C   0  0  2  0  0  0  0  0  0  0  0  0
    9.7799  -17.8790   20.0767 N   0  0  0  0  0  0  0  0  0  0  0  0
   10.9290  -17.3395   22.1228 C   0  0  0  0  0  0  0  0  0  0  0  0
   10.5439  -18.4555   22.5487 O   0  0  0  0  0  0  0  0  0  0  0  0
    7.4631  -11.4123   23.0410 N   0  0  0  0  0  0  0  0  0  0  0  0
   12.0093  -16.6823   22.7544 C   0  0  2  0  0  0  0  0  0  0  0  0
   12.5484  -17.3347   23.9684 C   0  0  0  0  0  0  0  0  0  0  0  0
   13.9672  -16.8253   24.1255 C   0  0  0  0  0  0  0  0  0  0  0  0
   14.7474  -17.0159   22.8614 C   0  0  0  0  0  0  0  0  0  0  0  0
   16.1583  -16.5513   23.0587 O   0  0  0  0  0  0  0  0  0  0  0  0
   17.0179  -16.6221   22.1723 C   0  0  0  0  0  0  0  0  0  0  0  0
   11.6673  -17.0480   25.1067 O   0  0  0  0  0  0  0  0  0  0  0  0
   10.5755  -16.2147   25.0635 O   0  0  0  0  0  0  0  0  0  0  0  0
   16.4966  -16.0201   24.3105 O   0  0  0  0  0  0  0  0  0  0  0  0
  2  1  1  0
  3  4  1  6
  3  2  1  0
  5  3  1  0
  6  5  2  0
  7  8  1  0
  8 10  1  0
  9  8  2  0
 10 11  1  0
 12 11  1  0
 13 12  1  0
 14 13  1  1
 14 15  1  0
 15  5  1  0
 16 14  1  0
 16 17  2  0
 18 16  1  0
 19 18  1  0
 19 20  1  6
 20 21  1  0
 21 22  1  0
 22 26  1  0
 22 23  2  0
 24 19  1  0
 25 24  1  0
 27 24  2  0
M  END
$$$$
