SRE.pdb
     RDKit          3D

 27 26  0  0  1  0  0  0  0  0999 V2000
    8.9726  -20.8724   15.9581 O   0  0  0  0  0  0  0  0  0  0  0  0
   10.3443  -20.7022   16.1406 C   0  0  0  0  0  0  0  0  0  0  0  0
   10.7806  -20.9541   17.5688 C   0  0  2  0  0  0  0  0  0  0  0  0
    9.7268  -21.6784   18.2383 N   0  0  0  0  0  0  0  0  0  0  0  0
   11.0728  -19.6553   18.1930 C   0  0  0  0  0  0  0  0  0  0  0  0
   12.0045  -18.9055   17.7309 O   0  0  0  0  0  0  0  0  0  0  0  0
    6.7956  -12.9590   18.4190 N   0  0  0  0  0  0  0  0  0  0  0  0
    7.3845  -12.6970   19.6957 C   0  0  0  0  0  0  0  0  0  0  0  0
    7.2211  -11.5475   20.2396 N   0  0  0  0  0  0  0  0  0  0  0  0
    8.1375  -13.6985   20.3518 N   0  0  0  0  0  0  0  0  0  0  0  0
    8.6498  -14.8546   19.6523 C   0  0  0  0  0  0  0  0  0  0  0  0
    9.3920  -15.7517   20.6228 C   0  0  0  0  0  0  0  0  0  0  0  0
    9.2812  -17.1630   20.1292 C   0  0  0  0  0  0  0  0  0  0  0  0
   10.6202  -17.7727   19.8019 C   0  0  2  0  0  0  0  0  0  0  0  0
   10.3754  -19.1387   19.3155 N   0  0  0  0  0  0  0  0  0  0  0  0
   11.3794  -17.8505   21.0848 C   0  0  0  0  0  0  0  0  0  0  0  0
   10.9326  -18.6234   21.9670 O   0  0  0  0  0  0  0  0  0  0  0  0
    7.6918  -11.2633   21.1194 N   0  0  0  0  0  0  0  0  0  0  0  0
   12.5545  -17.1058   21.3344 C   0  0  2  0  0  0  0  0  0  0  0  0
   13.1855  -17.3089   22.6575 C   0  0  0  0  0  0  0  0  0  0  0  0
   14.5583  -16.6724   22.5716 C   0  0  0  0  0  0  0  0  0  0  0  0
   15.2610  -16.7352   23.8926 C   0  0  0  0  0  0  0  0  0  0  0  0
   16.6733  -16.2575   23.7417 O   0  0  0  0  0  0  0  0  0  0  0  0
   17.0553  -15.5887   22.7740 C   0  0  0  0  0  0  0  0  0  0  0  0
   12.3178  -16.7502   23.7012 O   0  0  0  0  0  0  0  0  0  0  0  0
   12.2251  -17.2311   24.9850 O   0  0  0  0  0  0  0  0  0  0  0  0
   17.5838  -16.5977   24.7510 O   0  0  0  0  0  0  0  0  0  0  0  0
  2  1  1  0
  3  4  1  1
  3  2  1  0
  5  3  1  0
  6  5  2  0
  7  8  1  0
  8 10  1  0
  9  8  2  0
 10 11  1  0
 12 11  1  0
 13 12  1  0
 14 13  1  1
 14 15  1  0
 15  5  1  0
 16 14  1  0
 16 17  2  0
 18 16  1  0
 19 18  1  0
 19 20  1  6
 20 21  1  0
 21 22  1  0
 22 26  1  0
 22 23  2  0
 24 19  1  0
 25 24  1  0
 27 24  2  0
M  END
$$$$
