SRE.pdb
     RDKit          3D

 27 26  0  0  1  0  0  0  0  0999 V2000
    9.9178  -13.0098   18.4925 O   0  0  0  0  0  0  0  0  0  0  0  0
    9.0051  -13.0637   19.5449 C   0  0  0  0  0  0  0  0  0  0  0  0
    8.1375  -14.3043   19.5045 C   0  0  2  0  0  0  0  0  0  0  0  0
    7.0627  -14.0694   18.5702 N   0  0  0  0  0  0  0  0  0  0  0  0
    7.6641  -14.5755   20.8699 C   0  0  0  0  0  0  0  0  0  0  0  0
    6.7066  -13.8890   21.3756 O   0  0  0  0  0  0  0  0  0  0  0  0
    8.1230  -22.0326   25.6504 N   0  0  0  0  0  0  0  0  0  0  0  0
    7.3868  -21.1108   26.4588 C   0  0  0  0  0  0  0  0  0  0  0  0
    6.8478  -21.5206   27.5475 N   0  0  0  0  0  0  0  0  0  0  0  0
    7.2577  -19.7597   26.0608 N   0  0  0  0  0  0  0  0  0  0  0  0
    7.6626  -19.3043   24.7504 C   0  0  0  0  0  0  0  0  0  0  0  0
    7.3995  -17.8170   24.6224 C   0  0  0  0  0  0  0  0  0  0  0  0
    7.8332  -17.3841   23.2542 C   0  0  0  0  0  0  0  0  0  0  0  0
    7.5686  -15.9233   22.9941 C   0  0  2  0  0  0  0  0  0  0  0  0
    8.2036  -15.5817   21.7124 N   0  0  0  0  0  0  0  0  0  0  0  0
    8.2515  -15.1647   24.0835 C   0  0  0  0  0  0  0  0  0  0  0  0
    9.5065  -15.1720   24.0845 O   0  0  0  0  0  0  0  0  0  0  0  0
    6.3717  -20.8886   28.2186 N   0  0  0  0  0  0  0  0  0  0  0  0
    7.5532  -14.4547   25.0865 C   0  0  2  0  0  0  0  0  0  0  0  0
    8.3853  -13.6928   26.0441 C   0  0  0  0  0  0  0  0  0  0  0  0
    7.6307  -12.4100   26.3302 C   0  0  0  0  0  0  0  0  0  0  0  0
    6.3644  -12.6895   27.0793 C   0  0  0  0  0  0  0  0  0  0  0  0
    5.6567  -11.4037   27.3814 O   0  0  0  0  0  0  0  0  0  0  0  0
    6.2384  -10.3133   27.4303 C   0  0  0  0  0  0  0  0  0  0  0  0
    8.6495  -14.5222   27.2261 O   0  0  0  0  0  0  0  0  0  0  0  0
    9.5405  -14.2059   28.2232 O   0  0  0  0  0  0  0  0  0  0  0  0
    4.2769  -11.4636   27.6184 O   0  0  0  0  0  0  0  0  0  0  0  0
  2  1  1  0
  3  4  1  6
  3  2  1  0
  5  3  1  0
  6  5  2  0
  7  8  1  0
  8 10  1  0
  9  8  2  0
 10 11  1  0
 12 11  1  0
 13 12  1  0
 14 13  1  1
 14 15  1  0
 15  5  1  0
 16 14  1  0
 16 17  2  0
 18 16  1  0
 19 18  1  0
 19 20  1  6
 20 21  1  0
 21 22  1  0
 22 26  1  0
 22 23  2  0
 24 19  1  0
 25 24  1  0
 27 24  2  0
M  END
$$$$
