SRE.pdb
     RDKit          3D

 27 26  0  0  1  0  0  0  0  0999 V2000
   10.6732  -18.4438   17.6366 O   0  0  0  0  0  0  0  0  0  0  0  0
    9.4251  -19.0638   17.6000 C   0  0  0  0  0  0  0  0  0  0  0  0
    8.2819  -18.0906   17.7987 C   0  0  2  0  0  0  0  0  0  0  0  0
    8.3909  -17.0600   16.7942 N   0  0  0  0  0  0  0  0  0  0  0  0
    8.3604  -17.5677   19.1707 C   0  0  0  0  0  0  0  0  0  0  0  0
    8.5547  -16.3180   19.3813 O   0  0  0  0  0  0  0  0  0  0  0  0
    3.9253  -22.1023   24.2308 N   0  0  0  0  0  0  0  0  0  0  0  0
    4.5191  -22.5451   23.0074 C   0  0  0  0  0  0  0  0  0  0  0  0
    4.1502  -23.6622   22.4976 N   0  0  0  0  0  0  0  0  0  0  0  0
    5.5019  -21.7557   22.3660 N   0  0  0  0  0  0  0  0  0  0  0  0
    5.9702  -20.5090   22.9270 C   0  0  0  0  0  0  0  0  0  0  0  0
    6.9102  -19.8303   21.9505 C   0  0  0  0  0  0  0  0  0  0  0  0
    7.3827  -18.5508   22.5728 C   0  0  0  0  0  0  0  0  0  0  0  0
    8.3195  -17.7793   21.6790 C   0  0  2  0  0  0  0  0  0  0  0  0
    8.2313  -18.3689   20.3347 N   0  0  0  0  0  0  0  0  0  0  0  0
    9.6968  -18.0020   22.2097 C   0  0  0  0  0  0  0  0  0  0  0  0
   10.3197  -19.0032   21.7798 O   0  0  0  0  0  0  0  0  0  0  0  0
    4.5824  -24.0684   21.6464 N   0  0  0  0  0  0  0  0  0  0  0  0
   10.3098  -17.1464   23.1531 C   0  0  1  0  0  0  0  0  0  0  0  0
   11.6920  -17.4969   23.5486 C   0  0  0  0  0  0  0  0  0  0  0  0
   12.6031  -16.5946   22.7406 C   0  0  0  0  0  0  0  0  0  0  0  0
   14.0425  -16.9124   23.0049 C   0  0  0  0  0  0  0  0  0  0  0  0
   14.9211  -15.9896   22.2161 O   0  0  0  0  0  0  0  0  0  0  0  0
   14.8824  -15.9184   20.9820 C   0  0  0  0  0  0  0  0  0  0  0  0
   11.8312  -17.3601   25.0034 O   0  0  0  0  0  0  0  0  0  0  0  0
   12.8916  -17.8331   25.7382 O   0  0  0  0  0  0  0  0  0  0  0  0
   15.8198  -15.1842   22.9283 O   0  0  0  0  0  0  0  0  0  0  0  0
  2  1  1  0
  3  4  1  6
  3  2  1  0
  5  3  1  0
  6  5  2  0
  7  8  1  0
  8 10  1  0
  9  8  2  0
 10 11  1  0
 12 11  1  0
 13 12  1  0
 14 13  1  1
 14 15  1  0
 15  5  1  0
 16 14  1  0
 16 17  2  0
 18 16  1  0
 19 18  1  0
 19 20  1  1
 20 21  1  0
 21 22  1  0
 22 26  1  0
 22 23  2  0
 24 19  1  0
 25 24  1  0
 27 24  2  0
M  END
$$$$
