SRE.pdb
     RDKit          3D

 27 26  0  0  1  0  0  0  0  0999 V2000
   17.2334  -20.5561   16.0995 O   0  0  0  0  0  0  0  0  0  0  0  0
   16.2955  -20.0221   16.9820 C   0  0  0  0  0  0  0  0  0  0  0  0
   14.8819  -20.0840   16.4420 C   0  0  2  0  0  0  0  0  0  0  0  0
   14.8822  -19.5086   15.1183 N   0  0  0  0  0  0  0  0  0  0  0  0
   14.0030  -19.3698   17.3798 C   0  0  0  0  0  0  0  0  0  0  0  0
   13.9415  -18.0892   17.3682 O   0  0  0  0  0  0  0  0  0  0  0  0
    6.3999  -21.8223   20.0903 N   0  0  0  0  0  0  0  0  0  0  0  0
    7.1132  -21.2956   18.9682 C   0  0  0  0  0  0  0  0  0  0  0  0
    6.6816  -21.5277   17.7834 N   0  0  0  0  0  0  0  0  0  0  0  0
    8.2821  -20.5241   19.1655 N   0  0  0  0  0  0  0  0  0  0  0  0
    8.8500  -20.3144   20.4777 C   0  0  0  0  0  0  0  0  0  0  0  0
   10.0677  -19.4181   20.3703 C   0  0  0  0  0  0  0  0  0  0  0  0
   11.0570  -20.0846   19.4622 C   0  0  0  0  0  0  0  0  0  0  0  0
   12.2775  -19.2375   19.2083 C   0  0  2  0  0  0  0  0  0  0  0  0
   13.1778  -20.0108   18.3398 N   0  0  0  0  0  0  0  0  0  0  0  0
   12.9421  -19.0384   20.5300 C   0  0  0  0  0  0  0  0  0  0  0  0
   13.3563  -20.0650   21.1215 O   0  0  0  0  0  0  0  0  0  0  0  0
    7.2178  -21.2917   16.9272 N   0  0  0  0  0  0  0  0  0  0  0  0
   13.1192  -17.7677   21.1230 C   0  0  1  0  0  0  0  0  0  0  0  0
   13.8866  -17.7405   22.3880 C   0  0  0  0  0  0  0  0  0  0  0  0
   15.0546  -16.8040   22.1521 C   0  0  0  0  0  0  0  0  0  0  0  0
   15.8808  -16.6558   23.3924 C   0  0  0  0  0  0  0  0  0  0  0  0
   17.0454  -15.7520   23.1238 O   0  0  0  0  0  0  0  0  0  0  0  0
   17.7364  -15.2623   24.0251 C   0  0  0  0  0  0  0  0  0  0  0  0
   12.9985  -17.3439   23.4873 O   0  0  0  0  0  0  0  0  0  0  0  0
   13.2703  -17.5292   24.8214 O   0  0  0  0  0  0  0  0  0  0  0  0
   17.3442  -15.4603   21.7861 O   0  0  0  0  0  0  0  0  0  0  0  0
  2  1  1  0
  3  4  1  6
  3  2  1  0
  5  3  1  0
  6  5  2  0
  7  8  1  0
  8 10  1  0
  9  8  2  0
 10 11  1  0
 12 11  1  0
 13 12  1  0
 14 13  1  1
 14 15  1  0
 15  5  1  0
 16 14  1  0
 16 17  2  0
 18 16  1  0
 19 18  1  0
 19 20  1  1
 20 21  1  0
 21 22  1  0
 22 26  1  0
 22 23  2  0
 24 19  1  0
 25 24  1  0
 27 24  2  0
M  END
$$$$
