SRE.pdb
     RDKit          3D

 27 26  0  0  1  0  0  0  0  0999 V2000
   10.5628  -20.6746   18.7881 O   0  0  0  0  0  0  0  0  0  0  0  0
    9.3340  -20.3065   18.2418 C   0  0  0  0  0  0  0  0  0  0  0  0
    9.3671  -18.9371   17.5960 C   0  0  2  0  0  0  0  0  0  0  0  0
   10.2815  -18.9895   16.4805 N   0  0  0  0  0  0  0  0  0  0  0  0
    9.7634  -17.9587   18.6196 C   0  0  0  0  0  0  0  0  0  0  0  0
   10.9414  -17.4526   18.6153 O   0  0  0  0  0  0  0  0  0  0  0  0
    6.4726  -13.0039   26.0458 N   0  0  0  0  0  0  0  0  0  0  0  0
    7.4570  -13.5119   25.1412 C   0  0  0  0  0  0  0  0  0  0  0  0
    8.4361  -14.2012   25.5997 N   0  0  0  0  0  0  0  0  0  0  0  0
    7.3486  -13.2576   23.7541 N   0  0  0  0  0  0  0  0  0  0  0  0
    7.0892  -14.3109   22.7994 C   0  0  0  0  0  0  0  0  0  0  0  0
    8.4005  -14.9066   22.3268 C   0  0  0  0  0  0  0  0  0  0  0  0
    8.0939  -15.9323   21.2773 C   0  0  0  0  0  0  0  0  0  0  0  0
    9.3300  -16.4402   20.5802 C   0  0  2  0  0  0  0  0  0  0  0  0
    8.9096  -17.5063   19.6587 N   0  0  0  0  0  0  0  0  0  0  0  0
   10.2014  -17.0361   21.6357 C   0  0  0  0  0  0  0  0  0  0  0  0
    9.9119  -18.1919   22.0300 O   0  0  0  0  0  0  0  0  0  0  0  0
    9.2328  -14.5154   25.0141 N   0  0  0  0  0  0  0  0  0  0  0  0
   11.3137  -16.3635   22.1908 C   0  0  2  0  0  0  0  0  0  0  0  0
   12.2056  -17.1767   23.0470 C   0  0  0  0  0  0  0  0  0  0  0  0
   13.6151  -16.6985   22.7610 C   0  0  0  0  0  0  0  0  0  0  0  0
   14.6012  -17.3647   23.6702 C   0  0  0  0  0  0  0  0  0  0  0  0
   15.9800  -16.8475   23.3929 O   0  0  0  0  0  0  0  0  0  0  0  0
   16.4558  -15.8628   23.9704 C   0  0  0  0  0  0  0  0  0  0  0  0
   11.7885  -17.0442   24.4480 O   0  0  0  0  0  0  0  0  0  0  0  0
   12.1607  -17.8945   25.4613 O   0  0  0  0  0  0  0  0  0  0  0  0
   16.7441  -17.5225   22.4315 O   0  0  0  0  0  0  0  0  0  0  0  0
  2  1  1  0
  3  4  1  6
  3  2  1  0
  5  3  1  0
  6  5  2  0
  7  8  1  0
  8 10  1  0
  9  8  2  0
 10 11  1  0
 12 11  1  0
 13 12  1  0
 14 13  1  1
 14 15  1  0
 15  5  1  0
 16 14  1  0
 16 17  2  0
 18 16  1  0
 19 18  1  0
 19 20  1  6
 20 21  1  0
 21 22  1  0
 22 26  1  0
 22 23  2  0
 24 19  1  0
 25 24  1  0
 27 24  2  0
M  END
$$$$
