SRE.pdb
     RDKit          3D

 27 26  0  0  1  0  0  0  0  0999 V2000
   11.7672  -21.8126   20.3426 O   0  0  0  0  0  0  0  0  0  0  0  0
   12.6285  -21.2401   19.4077 C   0  0  0  0  0  0  0  0  0  0  0  0
   11.9010  -20.4010   18.3781 C   0  0  2  0  0  0  0  0  0  0  0  0
   12.6135  -20.5087   17.1275 N   0  0  0  0  0  0  0  0  0  0  0  0
   11.8281  -19.0216   18.8820 C   0  0  0  0  0  0  0  0  0  0  0  0
   12.5767  -18.1066   18.3859 O   0  0  0  0  0  0  0  0  0  0  0  0
    7.0106  -12.2398   20.3107 N   0  0  0  0  0  0  0  0  0  0  0  0
    7.5115  -12.9391   19.1682 C   0  0  0  0  0  0  0  0  0  0  0  0
    7.6467  -12.3134   18.0573 N   0  0  0  0  0  0  0  0  0  0  0  0
    7.8565  -14.3073   19.2654 N   0  0  0  0  0  0  0  0  0  0  0  0
    7.7932  -15.0271   20.5169 C   0  0  0  0  0  0  0  0  0  0  0  0
    9.1889  -15.4405   20.9398 C   0  0  0  0  0  0  0  0  0  0  0  0
    9.4113  -16.8537   20.4913 C   0  0  0  0  0  0  0  0  0  0  0  0
   10.8707  -17.1860   20.3144 C   0  0  2  0  0  0  0  0  0  0  0  0
   10.9560  -18.5998   19.9187 N   0  0  0  0  0  0  0  0  0  0  0  0
   11.5111  -17.0244   21.6532 C   0  0  0  0  0  0  0  0  0  0  0  0
   11.4569  -15.8859   22.1786 O   0  0  0  0  0  0  0  0  0  0  0  0
    7.9314  -12.7783   17.1746 N   0  0  0  0  0  0  0  0  0  0  0  0
   12.1578  -18.0811   22.3337 C   0  0  2  0  0  0  0  0  0  0  0  0
   12.8820  -17.7125   23.5704 C   0  0  0  0  0  0  0  0  0  0  0  0
   14.1565  -17.0250   23.1232 C   0  0  0  0  0  0  0  0  0  0  0  0
   14.9643  -16.5761   24.3017 C   0  0  0  0  0  0  0  0  0  0  0  0
   16.2171  -15.9005   23.8329 O   0  0  0  0  0  0  0  0  0  0  0  0
   16.5524  -15.8598   22.6432 C   0  0  0  0  0  0  0  0  0  0  0  0
   12.0100  -16.8904   24.4180 O   0  0  0  0  0  0  0  0  0  0  0  0
   10.8874  -16.2295   23.9810 O   0  0  0  0  0  0  0  0  0  0  0  0
   17.0301  -15.2982   24.8024 O   0  0  0  0  0  0  0  0  0  0  0  0
  2  1  1  0
  3  4  1  6
  3  2  1  0
  5  3  1  0
  6  5  2  0
  7  8  1  0
  8 10  1  0
  9  8  2  0
 10 11  1  0
 12 11  1  0
 13 12  1  0
 14 13  1  1
 14 15  1  0
 15  5  1  0
 16 14  1  0
 16 17  2  0
 18 16  1  0
 19 18  1  0
 19 20  1  6
 20 21  1  0
 21 22  1  0
 22 26  1  0
 22 23  2  0
 24 19  1  0
 25 24  1  0
 27 24  2  0
M  END
$$$$
