SRE.pdb
     RDKit          3D

 27 26  0  0  1  0  0  0  0  0999 V2000
    6.7363  -14.1590   18.0411 O   0  0  0  0  0  0  0  0  0  0  0  0
    7.0141  -13.2018   19.0159 C   0  0  0  0  0  0  0  0  0  0  0  0
    8.4985  -12.9569   19.1897 C   0  0  2  0  0  0  0  0  0  0  0  0
    9.0498  -12.6122   17.9011 N   0  0  0  0  0  0  0  0  0  0  0  0
    9.0972  -14.1699   19.7660 C   0  0  0  0  0  0  0  0  0  0  0  0
    8.6159  -14.6890   20.8350 O   0  0  0  0  0  0  0  0  0  0  0  0
   13.5819  -13.7610   15.7698 N   0  0  0  0  0  0  0  0  0  0  0  0
   13.3846  -15.0680   15.2240 C   0  0  0  0  0  0  0  0  0  0  0  0
   12.8425  -15.1918   14.0687 N   0  0  0  0  0  0  0  0  0  0  0  0
   13.7866  -16.2121   15.9520 N   0  0  0  0  0  0  0  0  0  0  0  0
   12.8628  -16.9641   16.7702 C   0  0  0  0  0  0  0  0  0  0  0  0
   12.2991  -16.0707   17.8573 C   0  0  0  0  0  0  0  0  0  0  0  0
   11.3614  -16.8897   18.6926 C   0  0  0  0  0  0  0  0  0  0  0  0
   10.7211  -16.0933   19.8005 C   0  0  2  0  0  0  0  0  0  0  0  0
   10.2143  -14.8455   19.2101 N   0  0  0  0  0  0  0  0  0  0  0  0
   11.8070  -15.7581   20.7685 C   0  0  0  0  0  0  0  0  0  0  0  0
   12.3651  -14.6417   20.6366 O   0  0  0  0  0  0  0  0  0  0  0  0
   12.7042  -16.1077   13.6014 N   0  0  0  0  0  0  0  0  0  0  0  0
   12.2169  -16.6296   21.8030 C   0  0  2  0  0  0  0  0  0  0  0  0
   13.2850  -16.1251   22.6944 C   0  0  0  0  0  0  0  0  0  0  0  0
   12.6998  -16.1210   24.0925 C   0  0  0  0  0  0  0  0  0  0  0  0
   12.2530  -17.4940   24.4898 C   0  0  0  0  0  0  0  0  0  0  0  0
   11.8328  -17.4967   25.9282 O   0  0  0  0  0  0  0  0  0  0  0  0
   12.6326  -17.3552   26.8609 C   0  0  0  0  0  0  0  0  0  0  0  0
   14.4836  -16.9576   22.5368 O   0  0  0  0  0  0  0  0  0  0  0  0
   15.6951  -16.7102   23.1361 O   0  0  0  0  0  0  0  0  0  0  0  0
   10.4704  -17.6718   26.2050 O   0  0  0  0  0  0  0  0  0  0  0  0
  2  1  1  0
  3  4  1  6
  3  2  1  0
  5  3  1  0
  6  5  2  0
  7  8  1  0
  8 10  1  0
  9  8  2  0
 10 11  1  0
 12 11  1  0
 13 12  1  0
 14 13  1  6
 14 15  1  0
 15  5  1  0
 16 14  1  0
 16 17  2  0
 18 16  1  0
 19 18  1  0
 19 20  1  6
 20 21  1  0
 21 22  1  0
 22 26  1  0
 22 23  2  0
 24 19  1  0
 25 24  1  0
 27 24  2  0
M  END
$$$$
