SRE.pdb
     RDKit          3D

 27 26  0  0  1  0  0  0  0  0999 V2000
   13.2888  -20.7701   19.0910 O   0  0  0  0  0  0  0  0  0  0  0  0
   11.9647  -20.7218   18.6573 C   0  0  0  0  0  0  0  0  0  0  0  0
   11.6285  -19.4277   17.9460 C   0  0  2  0  0  0  0  0  0  0  0  0
   12.4907  -19.3122   16.7943 N   0  0  0  0  0  0  0  0  0  0  0  0
   11.7952  -18.3238   18.9028 C   0  0  0  0  0  0  0  0  0  0  0  0
   12.8902  -17.6583   18.9450 O   0  0  0  0  0  0  0  0  0  0  0  0
    8.4110  -12.5887   20.3696 N   0  0  0  0  0  0  0  0  0  0  0  0
    7.2628  -13.1903   19.7654 C   0  0  0  0  0  0  0  0  0  0  0  0
    6.6936  -12.6056   18.7765 N   0  0  0  0  0  0  0  0  0  0  0  0
    6.7629  -14.4200   20.2536 N   0  0  0  0  0  0  0  0  0  0  0  0
    7.5545  -15.2907   21.0924 C   0  0  0  0  0  0  0  0  0  0  0  0
    8.9336  -15.4668   20.4884 C   0  0  0  0  0  0  0  0  0  0  0  0
    9.7011  -16.4219   21.3524 C   0  0  0  0  0  0  0  0  0  0  0  0
   11.0330  -16.8032   20.7587 C   0  0  2  0  0  0  0  0  0  0  0  0
   10.7974  -17.9144   19.8249 N   0  0  0  0  0  0  0  0  0  0  0  0
   11.8779  -17.2966   21.8862 C   0  0  0  0  0  0  0  0  0  0  0  0
   11.6558  -18.4607   22.2994 O   0  0  0  0  0  0  0  0  0  0  0  0
    5.8878  -13.0112   18.2640 N   0  0  0  0  0  0  0  0  0  0  0  0
   12.8946  -16.5206   22.4879 C   0  0  2  0  0  0  0  0  0  0  0  0
   13.7011  -17.1974   23.5277 C   0  0  0  0  0  0  0  0  0  0  0  0
   15.1017  -16.6303   23.4100 C   0  0  0  0  0  0  0  0  0  0  0  0
   15.9948  -17.1839   24.4771 C   0  0  0  0  0  0  0  0  0  0  0  0
   17.3462  -16.5418   24.3941 O   0  0  0  0  0  0  0  0  0  0  0  0
   18.3833  -17.1131   24.7513 C   0  0  0  0  0  0  0  0  0  0  0  0
   13.0704  -16.9991   24.8382 O   0  0  0  0  0  0  0  0  0  0  0  0
   13.3928  -17.6961   25.9777 O   0  0  0  0  0  0  0  0  0  0  0  0
   17.4134  -15.2362   23.8897 O   0  0  0  0  0  0  0  0  0  0  0  0
  2  1  1  0
  3  4  1  6
  3  2  1  0
  5  3  1  0
  6  5  2  0
  7  8  1  0
  8 10  1  0
  9  8  2  0
 10 11  1  0
 12 11  1  0
 13 12  1  0
 14 13  1  1
 14 15  1  0
 15  5  1  0
 16 14  1  0
 16 17  2  0
 18 16  1  0
 19 18  1  0
 19 20  1  6
 20 21  1  0
 21 22  1  0
 22 26  1  0
 22 23  2  0
 24 19  1  0
 25 24  1  0
 27 24  2  0
M  END
$$$$
