SRE.pdb
     RDKit          3D

 27 26  0  0  1  0  0  0  0  0999 V2000
    9.1837  -15.3125   17.6879 O   0  0  0  0  0  0  0  0  0  0  0  0
    7.8661  -15.1820   18.1245 C   0  0  0  0  0  0  0  0  0  0  0  0
    7.6217  -13.8861   18.8692 C   0  0  2  0  0  0  0  0  0  0  0  0
    7.8217  -12.7944   17.9465 N   0  0  0  0  0  0  0  0  0  0  0  0
    8.5354  -13.8415   20.0203 C   0  0  0  0  0  0  0  0  0  0  0  0
    9.5892  -13.1120   19.9875 O   0  0  0  0  0  0  0  0  0  0  0  0
    7.9304  -17.9026   26.5117 N   0  0  0  0  0  0  0  0  0  0  0  0
    7.0303  -17.8994   25.4004 C   0  0  0  0  0  0  0  0  0  0  0  0
    6.5323  -19.0078   24.9914 N   0  0  0  0  0  0  0  0  0  0  0  0
    6.6916  -16.6838   24.7615 N   0  0  0  0  0  0  0  0  0  0  0  0
    7.1120  -15.4021   25.2798 C   0  0  0  0  0  0  0  0  0  0  0  0
    7.6413  -14.5423   24.1491 C   0  0  0  0  0  0  0  0  0  0  0  0
    8.7485  -15.2935   23.4728 C   0  0  0  0  0  0  0  0  0  0  0  0
    9.3319  -14.5432   22.3030 C   0  0  2  0  0  0  0  0  0  0  0  0
    8.3369  -14.5716   21.2207 N   0  0  0  0  0  0  0  0  0  0  0  0
   10.5378  -15.3061   21.8645 C   0  0  0  0  0  0  0  0  0  0  0  0
   10.3447  -16.3122   21.1394 O   0  0  0  0  0  0  0  0  0  0  0  0
    5.9362  -19.0850   24.1457 N   0  0  0  0  0  0  0  0  0  0  0  0
   11.8555  -14.9439   22.2253 C   0  0  1  0  0  0  0  0  0  0  0  0
   12.9373  -15.7909   21.6756 C   0  0  0  0  0  0  0  0  0  0  0  0
   13.8435  -14.8616   20.8931 C   0  0  0  0  0  0  0  0  0  0  0  0
   15.0557  -15.5881   20.3974 C   0  0  0  0  0  0  0  0  0  0  0  0
   15.9594  -14.6367   19.6738 O   0  0  0  0  0  0  0  0  0  0  0  0
   16.8613  -14.0069   20.2391 C   0  0  0  0  0  0  0  0  0  0  0  0
   13.5987  -16.5079   22.7724 O   0  0  0  0  0  0  0  0  0  0  0  0
   13.2922  -16.3603   24.1037 O   0  0  0  0  0  0  0  0  0  0  0  0
   15.7533  -14.4665   18.2983 O   0  0  0  0  0  0  0  0  0  0  0  0
  2  1  1  0
  3  4  1  6
  3  2  1  0
  5  3  1  0
  6  5  2  0
  7  8  1  0
  8 10  1  0
  9  8  2  0
 10 11  1  0
 12 11  1  0
 13 12  1  0
 14 13  1  1
 14 15  1  0
 15  5  1  0
 16 14  1  0
 16 17  2  0
 18 16  1  0
 19 18  1  0
 19 20  1  1
 20 21  1  0
 21 22  1  0
 22 26  1  0
 22 23  2  0
 24 19  1  0
 25 24  1  0
 27 24  2  0
M  END
$$$$
