SRE.pdb
     RDKit          3D

 27 26  0  0  1  0  0  0  0  0999 V2000
   14.4480  -20.0635   18.7109 O   0  0  0  0  0  0  0  0  0  0  0  0
   14.9275  -19.5095   17.5248 C   0  0  0  0  0  0  0  0  0  0  0  0
   13.9873  -18.4770   16.9388 C   0  0  2  0  0  0  0  0  0  0  0  0
   14.6305  -17.8861   15.7897 N   0  0  0  0  0  0  0  0  0  0  0  0
   13.6725  -17.4974   17.9892 C   0  0  0  0  0  0  0  0  0  0  0  0
   14.4785  -16.5332   18.2432 O   0  0  0  0  0  0  0  0  0  0  0  0
    7.7302  -12.9746   18.8705 N   0  0  0  0  0  0  0  0  0  0  0  0
    7.8632  -12.8632   20.2901 C   0  0  0  0  0  0  0  0  0  0  0  0
    7.7869  -11.7076   20.8401 N   0  0  0  0  0  0  0  0  0  0  0  0
    8.0741  -14.0184   21.0786 N   0  0  0  0  0  0  0  0  0  0  0  0
    8.6082  -15.2401   20.5214 C   0  0  0  0  0  0  0  0  0  0  0  0
   10.1217  -15.1655   20.4833 C   0  0  0  0  0  0  0  0  0  0  0  0
   10.6265  -16.3496   19.7147 C   0  0  0  0  0  0  0  0  0  0  0  0
   12.1314  -16.4067   19.6545 C   0  0  2  0  0  0  0  0  0  0  0  0
   12.4951  -17.5319   18.7803 N   0  0  0  0  0  0  0  0  0  0  0  0
   12.6036  -16.7043   21.0390 C   0  0  0  0  0  0  0  0  0  0  0  0
   12.2322  -17.7897   21.5481 O   0  0  0  0  0  0  0  0  0  0  0  0
    7.8906  -11.5565   21.8613 N   0  0  0  0  0  0  0  0  0  0  0  0
   13.4346  -15.8312   21.7771 C   0  0  2  0  0  0  0  0  0  0  0  0
   13.8813  -16.3207   23.1003 C   0  0  0  0  0  0  0  0  0  0  0  0
   15.2446  -15.7034   23.3395 C   0  0  0  0  0  0  0  0  0  0  0  0
   16.2372  -16.1897   22.3290 C   0  0  0  0  0  0  0  0  0  0  0  0
   17.5960  -15.6433   22.6457 O   0  0  0  0  0  0  0  0  0  0  0  0
   17.8254  -14.9542   23.6468 C   0  0  0  0  0  0  0  0  0  0  0  0
   12.8718  -15.9816   24.1105 O   0  0  0  0  0  0  0  0  0  0  0  0
   11.6885  -15.3332   23.8506 O   0  0  0  0  0  0  0  0  0  0  0  0
   18.6361  -15.9356   21.7532 O   0  0  0  0  0  0  0  0  0  0  0  0
  2  1  1  0
  3  4  1  6
  3  2  1  0
  5  3  1  0
  6  5  2  0
  7  8  1  0
  8 10  1  0
  9  8  2  0
 10 11  1  0
 12 11  1  0
 13 12  1  0
 14 13  1  1
 14 15  1  0
 15  5  1  0
 16 14  1  0
 16 17  2  0
 18 16  1  0
 19 18  1  0
 19 20  1  6
 20 21  1  0
 21 22  1  0
 22 26  1  0
 22 23  2  0
 24 19  1  0
 25 24  1  0
 27 24  2  0
M  END
$$$$
