SRE.pdb
     RDKit          3D

 27 26  0  0  1  0  0  0  0  0999 V2000
    9.5997  -18.5756   25.9179 O   0  0  0  0  0  0  0  0  0  0  0  0
    8.3006  -18.1441   26.1822 C   0  0  0  0  0  0  0  0  0  0  0  0
    7.3504  -18.4096   25.0333 C   0  0  2  0  0  0  0  0  0  0  0  0
    7.2413  -19.8387   24.8630 N   0  0  0  0  0  0  0  0  0  0  0  0
    7.8731  -17.7262   23.8409 C   0  0  0  0  0  0  0  0  0  0  0  0
    8.3540  -18.4005   22.8621 O   0  0  0  0  0  0  0  0  0  0  0  0
    9.3436  -15.1193   17.8568 N   0  0  0  0  0  0  0  0  0  0  0  0
    8.4448  -14.0300   17.6309 C   0  0  0  0  0  0  0  0  0  0  0  0
    8.0607  -13.7692   16.4358 N   0  0  0  0  0  0  0  0  0  0  0  0
    7.9830  -13.2506   18.7170 N   0  0  0  0  0  0  0  0  0  0  0  0
    7.3967  -13.8481   19.8950 C   0  0  0  0  0  0  0  0  0  0  0  0
    8.3025  -13.6194   21.0887 C   0  0  0  0  0  0  0  0  0  0  0  0
    7.7486  -14.3926   22.2476 C   0  0  0  0  0  0  0  0  0  0  0  0
    8.4689  -15.6969   22.4754 C   0  0  2  0  0  0  0  0  0  0  0  0
    7.8884  -16.3170   23.6758 N   0  0  0  0  0  0  0  0  0  0  0  0
    9.8946  -15.3545   22.7555 C   0  0  0  0  0  0  0  0  0  0  0  0
   10.1852  -15.0390   23.9350 O   0  0  0  0  0  0  0  0  0  0  0  0
    7.3644  -13.0337   16.2107 N   0  0  0  0  0  0  0  0  0  0  0  0
   10.9036  -15.3747   21.7659 C   0  0  2  0  0  0  0  0  0  0  0  0
   12.2967  -15.2706   22.2540 C   0  0  0  0  0  0  0  0  0  0  0  0
   12.5433  -16.5095   23.0915 C   0  0  0  0  0  0  0  0  0  0  0  0
   13.9651  -16.5656   23.5585 C   0  0  0  0  0  0  0  0  0  0  0  0
   14.2091  -17.8473   24.2954 O   0  0  0  0  0  0  0  0  0  0  0  0
   13.5582  -18.1823   25.2922 C   0  0  0  0  0  0  0  0  0  0  0  0
   13.2029  -15.1170   21.1096 O   0  0  0  0  0  0  0  0  0  0  0  0
   14.5020  -14.6768   21.1910 O   0  0  0  0  0  0  0  0  0  0  0  0
   15.2258  -18.6855   23.8185 O   0  0  0  0  0  0  0  0  0  0  0  0
  2  1  1  0
  3  4  1  6
  3  2  1  0
  5  3  1  0
  6  5  2  0
  7  8  1  0
  8 10  1  0
  9  8  2  0
 10 11  1  0
 12 11  1  0
 13 12  1  0
 14 13  1  1
 14 15  1  0
 15  5  1  0
 16 14  1  0
 16 17  2  0
 18 16  1  0
 19 18  1  0
 19 20  1  1
 20 21  1  0
 21 22  1  0
 22 26  1  0
 22 23  2  0
 24 19  1  0
 25 24  1  0
 27 24  2  0
M  END
$$$$
