SRE.pdb
     RDKit          3D

 27 26  0  0  1  0  0  0  0  0999 V2000
   16.3567  -15.9909   18.3210 O   0  0  0  0  0  0  0  0  0  0  0  0
   15.3019  -16.0475   17.4112 C   0  0  0  0  0  0  0  0  0  0  0  0
   14.4377  -14.8041   17.4387 C   0  0  2  0  0  0  0  0  0  0  0  0
   15.2614  -13.6775   17.0706 N   0  0  0  0  0  0  0  0  0  0  0  0
   13.8599  -14.6791   18.7851 C   0  0  0  0  0  0  0  0  0  0  0  0
   14.5429  -14.1677   19.7420 O   0  0  0  0  0  0  0  0  0  0  0  0
    7.3322  -12.4790   19.3240 N   0  0  0  0  0  0  0  0  0  0  0  0
    7.5171  -13.2475   18.1321 C   0  0  0  0  0  0  0  0  0  0  0  0
    7.5288  -12.6532   16.9962 N   0  0  0  0  0  0  0  0  0  0  0  0
    7.6880  -14.6495   18.2080 N   0  0  0  0  0  0  0  0  0  0  0  0
    8.4398  -15.2739   19.2725 C   0  0  0  0  0  0  0  0  0  0  0  0
    9.7646  -14.5590   19.4499 C   0  0  0  0  0  0  0  0  0  0  0  0
   10.5673  -15.3128   20.4674 C   0  0  0  0  0  0  0  0  0  0  0  0
   12.0174  -14.9024   20.4860 C   0  0  2  0  0  0  0  0  0  0  0  0
   12.5475  -15.0956   19.1280 N   0  0  0  0  0  0  0  0  0  0  0  0
   12.7160  -15.8434   21.4106 C   0  0  0  0  0  0  0  0  0  0  0  0
   12.8385  -17.0330   21.0296 O   0  0  0  0  0  0  0  0  0  0  0  0
    7.6782  -13.1491   16.0972 N   0  0  0  0  0  0  0  0  0  0  0  0
   13.2334  -15.4522   22.6664 C   0  0  1  0  0  0  0  0  0  0  0  0
   13.8474  -16.5246   23.4805 C   0  0  0  0  0  0  0  0  0  0  0  0
   15.2540  -16.0587   23.7991 C   0  0  0  0  0  0  0  0  0  0  0  0
   16.0608  -15.8978   22.5477 C   0  0  0  0  0  0  0  0  0  0  0  0
   17.4475  -15.4450   22.8903 O   0  0  0  0  0  0  0  0  0  0  0  0
   17.8223  -15.2527   24.0532 C   0  0  0  0  0  0  0  0  0  0  0  0
   13.0087  -16.7828   24.6571 O   0  0  0  0  0  0  0  0  0  0  0  0
   13.2736  -17.7297   25.6170 O   0  0  0  0  0  0  0  0  0  0  0  0
   18.3403  -15.2334   21.8312 O   0  0  0  0  0  0  0  0  0  0  0  0
  2  1  1  0
  3  4  1  1
  3  2  1  0
  5  3  1  0
  6  5  2  0
  7  8  1  0
  8 10  1  0
  9  8  2  0
 10 11  1  0
 12 11  1  0
 13 12  1  0
 14 13  1  6
 14 15  1  0
 15  5  1  0
 16 14  1  0
 16 17  2  0
 18 16  1  0
 19 18  1  0
 19 20  1  6
 20 21  1  0
 21 22  1  0
 22 26  1  0
 22 23  2  0
 24 19  1  0
 25 24  1  0
 27 24  2  0
M  END
$$$$
