YAT.pdb
     RDKit          3D

 25 25  0  0  1  0  0  0  0  0999 V2000
   27.6192  -19.8947   -5.7150 O   0  0  0  0  0  0  0  0  0  0  0  0
   27.3245  -20.2289   -7.0344 C   0  0  0  0  0  0  0  0  0  0  0  0
   26.0114  -20.2990   -7.4707 C   0  0  0  0  0  0  0  0  0  0  0  0
   25.7223  -20.6273   -8.7709 C   0  0  0  0  0  0  0  0  0  0  0  0
   26.7067  -20.9036   -9.7077 C   0  0  0  0  0  0  0  0  0  0  0  0
   26.3641  -21.2609  -11.1163 C   0  0  0  0  0  0  0  0  0  0  0  0
   27.2405  -20.4448  -12.0434 C   0  0  2  0  0  0  0  0  0  0  0  0
   26.9834  -19.0214  -11.7984 N   0  0  0  0  0  0  0  0  0  0  0  0
   26.9663  -20.7129  -13.4607 C   0  0  0  0  0  0  0  0  0  0  0  0
   26.0472  -20.0847  -14.0647 O   0  0  0  0  0  0  0  0  0  0  0  0
   28.0156  -20.8324   -9.2674 C   0  0  0  0  0  0  0  0  0  0  0  0
   28.3107  -20.5009   -7.9559 C   0  0  0  0  0  0  0  0  0  0  0  0
   28.4687  -22.8205  -16.2046 C   0  0  0  0  0  0  0  0  0  0  0  0
   27.4150  -21.8560  -15.6596 C   0  0  2  0  0  0  0  0  0  0  0  0
   27.6791  -21.6657  -14.2561 N   0  0  0  0  0  0  0  0  0  0  0  0
   26.0470  -22.3408  -15.9237 C   0  0  0  0  0  0  0  0  0  0  0  0
   25.5945  -23.3068  -15.2418 O   0  0  0  0  0  0  0  0  0  0  0  0
   22.9570  -19.8937  -17.2776 C   0  0  0  0  0  0  0  0  0  0  0  0
   22.8215  -21.2286  -16.6284 C   0  0  1  0  0  0  0  0  0  0  0  0
   21.5316  -21.7058  -16.8460 O   0  0  0  0  0  0  0  0  0  0  0  0
   23.8296  -22.2339  -17.1403 C   0  0  2  0  0  0  0  0  0  0  0  0
   25.1886  -21.7935  -16.9035 N   0  0  0  0  0  0  0  0  0  0  0  0
   23.6056  -22.6682  -18.5224 C   0  0  0  0  0  0  0  0  0  0  0  0
   24.4626  -22.4694  -19.4132 O   0  0  0  0  0  0  0  0  0  0  0  0
   22.4391  -23.3266  -18.9474 O   0  0  0  0  0  0  0  0  0  0  0  0
  2  1  1  0
  3  2  2  0
  4  3  1  0
  5  4  2  0
  5 11  1  0
  6  5  1  0
  7  9  1  0
  7  6  1  0
  7  8  1  6
  9 10  2  0
 11 12  2  0
 12  2  1  0
 14 13  1  1
 14 16  1  0
 15 14  1  0
 15  9  1  0
 16 22  1  0
 17 16  2  0
 19 20  1  0
 19 18  1  6
 21 19  1  0
 21 22  1  6
 23 25  1  0
 23 21  1  0
 24 23  2  0
M  END
$$$$
