YAT.pdb
     RDKit          3D

 25 25  0  0  1  0  0  0  0  0999 V2000
   17.2238  -16.5670  -17.3596 O   0  0  0  0  0  0  0  0  0  0  0  0
   17.8432  -15.3536  -17.0710 C   0  0  0  0  0  0  0  0  0  0  0  0
   17.8898  -14.3403  -18.0147 C   0  0  0  0  0  0  0  0  0  0  0  0
   18.4994  -13.1450  -17.7289 C   0  0  0  0  0  0  0  0  0  0  0  0
   19.0940  -12.8844  -16.5034 C   0  0  0  0  0  0  0  0  0  0  0  0
   19.7530  -11.5751  -16.2194 C   0  0  0  0  0  0  0  0  0  0  0  0
   20.9209  -11.4114  -17.1696 C   0  0  2  0  0  0  0  0  0  0  0  0
   21.9474  -12.4010  -16.8246 N   0  0  0  0  0  0  0  0  0  0  0  0
   21.5345  -10.0803  -17.0858 C   0  0  0  0  0  0  0  0  0  0  0  0
   22.2259   -9.7568  -16.0750 O   0  0  0  0  0  0  0  0  0  0  0  0
   19.0448  -13.8988  -15.5650 C   0  0  0  0  0  0  0  0  0  0  0  0
   18.4300  -15.1061  -15.8502 C   0  0  0  0  0  0  0  0  0  0  0  0
   22.0664   -7.1382  -19.3565 C   0  0  0  0  0  0  0  0  0  0  0  0
   22.0303   -7.7732  -17.9662 C   0  0  2  0  0  0  0  0  0  0  0  0
   21.4145   -9.0696  -18.0922 N   0  0  0  0  0  0  0  0  0  0  0  0
   21.3430   -6.9057  -16.9908 C   0  0  0  0  0  0  0  0  0  0  0  0
   20.0777   -6.9127  -16.9461 O   0  0  0  0  0  0  0  0  0  0  0  0
   21.2616   -7.0827  -13.4742 C   0  0  0  0  0  0  0  0  0  0  0  0
   21.6134   -5.6520  -13.7012 C   0  0  1  0  0  0  0  0  0  0  0  0
   22.9597   -5.4663  -13.3984 O   0  0  0  0  0  0  0  0  0  0  0  0
   21.3433   -5.2006  -15.1197 C   0  0  2  0  0  0  0  0  0  0  0  0
   22.0092   -6.0500  -16.0852 N   0  0  0  0  0  0  0  0  0  0  0  0
   21.5813   -3.7739  -15.3585 C   0  0  0  0  0  0  0  0  0  0  0  0
   22.3887   -3.3871  -16.2338 O   0  0  0  0  0  0  0  0  0  0  0  0
   20.9378   -2.7512  -14.6410 O   0  0  0  0  0  0  0  0  0  0  0  0
  2  1  1  0
  3  2  2  0
  4  3  1  0
  5  4  2  0
  5 11  1  0
  6  5  1  0
  7  9  1  0
  7  6  1  0
  7  8  1  1
  9 10  2  0
 11 12  2  0
 12  2  1  0
 14 13  1  6
 14 16  1  0
 15 14  1  0
 15  9  1  0
 16 22  1  0
 17 16  2  0
 19 20  1  0
 19 18  1  6
 21 19  1  0
 21 22  1  6
 23 25  1  0
 23 21  1  0
 24 23  2  0
M  END
$$$$
