YAT.pdb
     RDKit          3D

 25 25  0  0  1  0  0  0  0  0999 V2000
   16.8876  -10.8645  -23.6043 O   0  0  0  0  0  0  0  0  0  0  0  0
   17.2570  -10.1593  -22.4618 C   0  0  0  0  0  0  0  0  0  0  0  0
   16.3902   -9.2477  -21.8812 C   0  0  0  0  0  0  0  0  0  0  0  0
   16.7548   -8.5542  -20.7551 C   0  0  0  0  0  0  0  0  0  0  0  0
   17.9880   -8.7200  -20.1428 C   0  0  0  0  0  0  0  0  0  0  0  0
   18.3603   -7.9503  -18.9189 C   0  0  0  0  0  0  0  0  0  0  0  0
   18.4892   -8.9215  -17.7639 C   0  0  2  0  0  0  0  0  0  0  0  0
   17.1573   -9.4451  -17.4416 N   0  0  0  0  0  0  0  0  0  0  0  0
   19.0284   -8.2901  -16.5530 C   0  0  0  0  0  0  0  0  0  0  0  0
   18.2801   -7.5891  -15.8094 O   0  0  0  0  0  0  0  0  0  0  0  0
   18.8495   -9.6309  -20.7261 C   0  0  0  0  0  0  0  0  0  0  0  0
   18.4844  -10.3326  -21.8623 C   0  0  0  0  0  0  0  0  0  0  0  0
   22.1413   -8.5502  -14.4893 C   0  0  0  0  0  0  0  0  0  0  0  0
   20.8596   -7.8189  -14.8893 C   0  0  2  0  0  0  0  0  0  0  0  0
   20.3878   -8.4022  -16.1193 N   0  0  0  0  0  0  0  0  0  0  0  0
   21.0748   -6.3631  -14.9921 C   0  0  0  0  0  0  0  0  0  0  0  0
   21.5391   -5.8846  -16.0683 O   0  0  0  0  0  0  0  0  0  0  0  0
   20.3136   -1.7547  -13.3087 C   0  0  0  0  0  0  0  0  0  0  0  0
   20.0047   -3.2127  -13.3333 C   0  0  1  0  0  0  0  0  0  0  0  0
   18.7894   -3.4041  -13.9855 O   0  0  0  0  0  0  0  0  0  0  0  0
   21.0820   -4.0282  -14.0139 C   0  0  2  0  0  0  0  0  0  0  0  0
   20.7947   -5.4463  -13.9541 N   0  0  0  0  0  0  0  0  0  0  0  0
   22.4472   -3.7066  -13.5877 C   0  0  0  0  0  0  0  0  0  0  0  0
   23.0728   -2.7420  -14.0837 O   0  0  0  0  0  0  0  0  0  0  0  0
   23.1460   -4.4378  -12.6121 O   0  0  0  0  0  0  0  0  0  0  0  0
  2  1  1  0
  3  2  2  0
  4  3  1  0
  5  4  2  0
  5 11  1  0
  6  5  1  0
  7  9  1  0
  7  6  1  0
  7  8  1  1
  9 10  2  0
 11 12  2  0
 12  2  1  0
 14 13  1  6
 14 16  1  0
 15 14  1  0
 15  9  1  0
 16 22  1  0
 17 16  2  0
 19 20  1  0
 19 18  1  6
 21 19  1  0
 21 22  1  1
 23 25  1  0
 23 21  1  0
 24 23  2  0
M  END
$$$$
