YAT.pdb
     RDKit          3D

 25 25  0  0  1  0  0  0  0  0999 V2000
   24.0102  -21.2583   -6.8977 O   0  0  0  0  0  0  0  0  0  0  0  0
   24.3935  -20.9753   -8.2063 C   0  0  0  0  0  0  0  0  0  0  0  0
   25.7273  -20.7820   -8.5273 C   0  0  0  0  0  0  0  0  0  0  0  0
   26.1038  -20.5044   -9.8169 C   0  0  0  0  0  0  0  0  0  0  0  0
   25.1907  -20.4019  -10.8556 C   0  0  0  0  0  0  0  0  0  0  0  0
   25.6276  -20.0961  -12.2502 C   0  0  0  0  0  0  0  0  0  0  0  0
   24.8034  -20.9351  -13.2044 C   0  0  2  0  0  0  0  0  0  0  0  0
   25.4488  -22.2439  -13.3543 N   0  0  0  0  0  0  0  0  0  0  0  0
   24.6969  -20.3318  -14.5387 C   0  0  0  0  0  0  0  0  0  0  0  0
   25.6321  -20.4724  -15.3812 O   0  0  0  0  0  0  0  0  0  0  0  0
   23.8608  -20.5956  -10.5301 C   0  0  0  0  0  0  0  0  0  0  0  0
   23.4776  -20.8764   -9.2297 C   0  0  0  0  0  0  0  0  0  0  0  0
   22.0985  -18.4196  -16.4944 C   0  0  0  0  0  0  0  0  0  0  0  0
   23.4820  -19.0504  -16.3347 C   0  0  2  0  0  0  0  0  0  0  0  0
   23.5775  -19.5633  -14.9917 N   0  0  0  0  0  0  0  0  0  0  0  0
   24.5561  -18.0926  -16.6590 C   0  0  0  0  0  0  0  0  0  0  0  0
   24.7166  -17.0758  -15.9220 O   0  0  0  0  0  0  0  0  0  0  0  0
   27.8716  -18.0446  -16.0988 C   0  0  0  0  0  0  0  0  0  0  0  0
   27.8448  -17.8288  -17.5735 C   0  0  1  0  0  0  0  0  0  0  0  0
   28.1454  -19.0305  -18.2095 O   0  0  0  0  0  0  0  0  0  0  0  0
   26.5108  -17.3119  -18.0656 C   0  0  2  0  0  0  0  0  0  0  0  0
   25.4358  -18.2315  -17.7559 N   0  0  0  0  0  0  0  0  0  0  0  0
   26.5055  -16.8829  -19.4673 C   0  0  0  0  0  0  0  0  0  0  0  0
   25.6641  -17.3286  -20.2804 O   0  0  0  0  0  0  0  0  0  0  0  0
   27.4226  -15.9596  -19.9976 O   0  0  0  0  0  0  0  0  0  0  0  0
  2  1  1  0
  3  2  2  0
  4  3  1  0
  5  4  2  0
  5 11  1  0
  6  5  1  0
  7  9  1  0
  7  6  1  0
  7  8  1  6
  9 10  2  0
 11 12  2  0
 12  2  1  0
 14 13  1  1
 14 16  1  0
 15 14  1  0
 15  9  1  0
 16 22  1  0
 17 16  2  0
 19 20  1  0
 19 18  1  1
 21 19  1  0
 21 22  1  6
 23 25  1  0
 23 21  1  0
 24 23  2  0
M  END
$$$$
