YAT.pdb
     RDKit          3D

 25 25  0  0  1  0  0  0  0  0999 V2000
   33.0171   -8.8196  -21.2620 O   0  0  0  0  0  0  0  0  0  0  0  0
   31.7619   -9.0950  -20.7251 C   0  0  0  0  0  0  0  0  0  0  0  0
   31.2893   -8.3884  -19.6311 C   0  0  0  0  0  0  0  0  0  0  0  0
   30.0523   -8.6597  -19.1037 C   0  0  0  0  0  0  0  0  0  0  0  0
   29.2177   -9.6380  -19.6228 C   0  0  0  0  0  0  0  0  0  0  0  0
   27.8766   -9.9147  -19.0276 C   0  0  0  0  0  0  0  0  0  0  0  0
   28.0697  -10.7589  -17.7852 C   0  0  2  0  0  0  0  0  0  0  0  0
   28.5744  -12.0762  -18.1880 N   0  0  0  0  0  0  0  0  0  0  0  0
   26.8198  -10.9650  -17.0430 C   0  0  0  0  0  0  0  0  0  0  0  0
   25.9781  -11.8270  -17.4338 O   0  0  0  0  0  0  0  0  0  0  0  0
   29.6939  -10.3404  -20.7145 C   0  0  0  0  0  0  0  0  0  0  0  0
   30.9416  -10.0687  -21.2494 C   0  0  0  0  0  0  0  0  0  0  0  0
   25.4682  -10.0672  -13.6819 C   0  0  0  0  0  0  0  0  0  0  0  0
   25.2494  -10.5303  -15.1224 C   0  0  2  0  0  0  0  0  0  0  0  0
   26.4522  -10.2442  -15.8623 N   0  0  0  0  0  0  0  0  0  0  0  0
   24.0509   -9.9083  -15.7165 C   0  0  0  0  0  0  0  0  0  0  0  0
   24.1512   -8.7634  -16.2476 O   0  0  0  0  0  0  0  0  0  0  0  0
   21.6243  -11.6094  -18.2401 C   0  0  0  0  0  0  0  0  0  0  0  0
   20.8280  -10.9848  -17.1456 C   0  0  1  0  0  0  0  0  0  0  0  0
   20.3983  -11.9835  -16.2757 O   0  0  0  0  0  0  0  0  0  0  0  0
   21.6072   -9.9404  -16.3771 C   0  0  2  0  0  0  0  0  0  0  0  0
   22.7730  -10.5109  -15.7347 N   0  0  0  0  0  0  0  0  0  0  0  0
   20.7969   -9.1273  -15.4654 C   0  0  0  0  0  0  0  0  0  0  0  0
   21.0369   -9.0935  -14.2370 O   0  0  0  0  0  0  0  0  0  0  0  0
   19.7121   -8.3400  -15.8873 O   0  0  0  0  0  0  0  0  0  0  0  0
  2  1  1  0
  3  2  2  0
  4  3  1  0
  5  4  2  0
  5 11  1  0
  6  5  1  0
  7  9  1  0
  7  6  1  0
  7  8  1  6
  9 10  2  0
 11 12  2  0
 12  2  1  0
 14 13  1  1
 14 16  1  0
 15 14  1  0
 15  9  1  0
 16 22  1  0
 17 16  2  0
 19 20  1  0
 19 18  1  6
 21 19  1  0
 21 22  1  1
 23 25  1  0
 23 21  1  0
 24 23  2  0
M  END
$$$$
