YAT.pdb
     RDKit          3D

 25 25  0  0  1  0  0  0  0  0999 V2000
   29.6999  -20.0815   -3.7482 O   0  0  0  0  0  0  0  0  0  0  0  0
   28.8162  -20.0783   -4.8245 C   0  0  0  0  0  0  0  0  0  0  0  0
   27.7886  -21.0046   -4.8997 C   0  0  0  0  0  0  0  0  0  0  0  0
   26.9181  -20.9999   -5.9599 C   0  0  0  0  0  0  0  0  0  0  0  0
   27.0126  -20.0869   -6.9994 C   0  0  0  0  0  0  0  0  0  0  0  0
   26.0529  -20.1057   -8.1430 C   0  0  0  0  0  0  0  0  0  0  0  0
   26.7122  -20.8122   -9.3091 C   0  0  2  0  0  0  0  0  0  0  0  0
   28.0434  -20.2317   -9.5163 N   0  0  0  0  0  0  0  0  0  0  0  0
   25.9577  -20.6623  -10.5597 C   0  0  0  0  0  0  0  0  0  0  0  0
   25.6946  -19.5098  -11.0142 O   0  0  0  0  0  0  0  0  0  0  0  0
   28.0398  -19.1646   -6.9199 C   0  0  0  0  0  0  0  0  0  0  0  0
   28.9197  -19.1664   -5.8509 C   0  0  0  0  0  0  0  0  0  0  0  0
   24.8708  -22.8443  -13.3972 C   0  0  0  0  0  0  0  0  0  0  0  0
   24.7441  -21.5614  -12.5751 C   0  0  2  0  0  0  0  0  0  0  0  0
   25.4708  -21.7546  -11.3463 N   0  0  0  0  0  0  0  0  0  0  0  0
   23.3321  -21.1962  -12.3533 C   0  0  0  0  0  0  0  0  0  0  0  0
   22.7578  -21.5771  -11.2912 O   0  0  0  0  0  0  0  0  0  0  0  0
   21.2139  -18.2229  -14.7083 C   0  0  0  0  0  0  0  0  0  0  0  0
   20.8867  -18.6484  -13.3176 C   0  0  1  0  0  0  0  0  0  0  0  0
   19.5451  -18.3726  -13.0668 O   0  0  0  0  0  0  0  0  0  0  0  0
   21.1589  -20.1167  -13.0751 C   0  0  2  0  0  0  0  0  0  0  0  0
   22.5591  -20.4368  -13.2601 N   0  0  0  0  0  0  0  0  0  0  0  0
   20.2674  -21.0272  -13.7996 C   0  0  0  0  0  0  0  0  0  0  0  0
   20.6804  -21.7111  -14.7637 O   0  0  0  0  0  0  0  0  0  0  0  0
   18.9105  -21.2008  -13.4777 O   0  0  0  0  0  0  0  0  0  0  0  0
  2  1  1  0
  3  2  2  0
  4  3  1  0
  5  4  2  0
  5 11  1  0
  6  5  1  0
  7  9  1  0
  7  6  1  0
  7  8  1  6
  9 10  2  0
 11 12  2  0
 12  2  1  0
 14 13  1  6
 14 16  1  0
 15 14  1  0
 15  9  1  0
 16 22  1  0
 17 16  2  0
 19 20  1  0
 19 18  1  6
 21 19  1  0
 21 22  1  6
 23 25  1  0
 23 21  1  0
 24 23  2  0
M  END
$$$$
