YAT.pdb
     RDKit          3D

 25 25  0  0  1  0  0  0  0  0999 V2000
   15.5482  -15.9911  -15.8475 O   0  0  0  0  0  0  0  0  0  0  0  0
   16.3154  -14.8358  -15.7207 C   0  0  0  0  0  0  0  0  0  0  0  0
   17.4434  -14.8196  -14.9163 C   0  0  0  0  0  0  0  0  0  0  0  0
   18.1989  -13.6813  -14.7929 C   0  0  0  0  0  0  0  0  0  0  0  0
   17.8853  -12.5020  -15.4519 C   0  0  0  0  0  0  0  0  0  0  0  0
   18.7238  -11.2763  -15.2979 C   0  0  0  0  0  0  0  0  0  0  0  0
   19.5661  -11.1130  -16.5460 C   0  0  2  0  0  0  0  0  0  0  0  0
   20.6321  -12.1206  -16.5265 N   0  0  0  0  0  0  0  0  0  0  0  0
   20.1994   -9.7912  -16.6306 C   0  0  0  0  0  0  0  0  0  0  0  0
   21.1522   -9.4871  -15.8535 O   0  0  0  0  0  0  0  0  0  0  0  0
   16.7587  -12.5232  -16.2533 C   0  0  0  0  0  0  0  0  0  0  0  0
   15.9943  -13.6706  -16.3803 C   0  0  0  0  0  0  0  0  0  0  0  0
   20.0114   -6.7788  -18.8813 C   0  0  0  0  0  0  0  0  0  0  0  0
   20.4632   -7.4821  -17.6012 C   0  0  2  0  0  0  0  0  0  0  0  0
   19.8169   -8.7690  -17.5567 N   0  0  0  0  0  0  0  0  0  0  0  0
   20.1888   -6.6625  -16.4057 C   0  0  0  0  0  0  0  0  0  0  0  0
   19.0391   -6.7105  -15.8778 O   0  0  0  0  0  0  0  0  0  0  0  0
   21.7819   -6.8366  -13.1303 C   0  0  0  0  0  0  0  0  0  0  0  0
   21.8381   -5.3904  -13.4873 C   0  0  1  0  0  0  0  0  0  0  0  0
   23.1412   -5.0690  -13.8581 O   0  0  0  0  0  0  0  0  0  0  0  0
   20.8858   -5.0256  -14.6048 C   0  0  2  0  0  0  0  0  0  0  0  0
   21.1364   -5.8101  -15.7959 N   0  0  0  0  0  0  0  0  0  0  0  0
   20.7944   -3.5886  -14.8797 C   0  0  0  0  0  0  0  0  0  0  0  0
   21.0874   -3.1219  -16.0040 O   0  0  0  0  0  0  0  0  0  0  0  0
   20.3807   -2.6429  -13.9261 O   0  0  0  0  0  0  0  0  0  0  0  0
  2  1  1  0
  3  2  2  0
  4  3  1  0
  5  4  2  0
  5 11  1  0
  6  5  1  0
  7  9  1  0
  7  6  1  0
  7  8  1  1
  9 10  2  0
 11 12  2  0
 12  2  1  0
 14 13  1  6
 14 16  1  0
 15 14  1  0
 15  9  1  0
 16 22  1  0
 17 16  2  0
 19 20  1  0
 19 18  1  6
 21 19  1  0
 21 22  1  6
 23 25  1  0
 23 21  1  0
 24 23  2  0
M  END
$$$$
