YAT.pdb
     RDKit          3D

 25 25  0  0  1  0  0  0  0  0999 V2000
   27.2962  -19.3242   -4.6636 O   0  0  0  0  0  0  0  0  0  0  0  0
   27.1776  -19.6834   -6.0038 C   0  0  0  0  0  0  0  0  0  0  0  0
   26.0301  -20.3029   -6.4719 C   0  0  0  0  0  0  0  0  0  0  0  0
   25.9139  -20.6554   -7.7925 C   0  0  0  0  0  0  0  0  0  0  0  0
   26.9176  -20.4183   -8.7197 C   0  0  0  0  0  0  0  0  0  0  0  0
   26.7659  -20.8146  -10.1511 C   0  0  0  0  0  0  0  0  0  0  0  0
   25.7135  -19.9283  -10.7839 C   0  0  2  0  0  0  0  0  0  0  0  0
   24.4020  -20.5628  -10.6121 N   0  0  0  0  0  0  0  0  0  0  0  0
   25.9318  -19.7315  -12.2224 C   0  0  0  0  0  0  0  0  0  0  0  0
   25.5561  -20.6109  -13.0529 O   0  0  0  0  0  0  0  0  0  0  0  0
   28.0607  -19.7999   -8.2476 C   0  0  0  0  0  0  0  0  0  0  0  0
   28.1809  -19.4424   -6.9154 C   0  0  0  0  0  0  0  0  0  0  0  0
   26.9711  -16.8744  -14.4305 C   0  0  0  0  0  0  0  0  0  0  0  0
   26.5924  -18.3399  -14.2150 C   0  0  2  0  0  0  0  0  0  0  0  0
   26.5610  -18.5803  -12.7948 N   0  0  0  0  0  0  0  0  0  0  0  0
   27.5099  -19.2483  -14.9288 C   0  0  0  0  0  0  0  0  0  0  0  0
   28.6737  -19.4347  -14.4667 O   0  0  0  0  0  0  0  0  0  0  0  0
   27.8709  -22.8111  -15.4954 C   0  0  0  0  0  0  0  0  0  0  0  0
   27.7272  -22.2085  -16.8512 C   0  0  1  0  0  0  0  0  0  0  0  0
   26.4101  -22.3644  -17.2754 O   0  0  0  0  0  0  0  0  0  0  0  0
   28.1028  -20.7434  -16.8837 C   0  0  2  0  0  0  0  0  0  0  0  0
   27.1759  -19.9384  -16.1157 N   0  0  0  0  0  0  0  0  0  0  0  0
   28.3425  -20.2078  -18.2271 C   0  0  0  0  0  0  0  0  0  0  0  0
   27.6537  -19.2677  -18.6846 O   0  0  0  0  0  0  0  0  0  0  0  0
   29.3405  -20.6953  -19.0880 O   0  0  0  0  0  0  0  0  0  0  0  0
  2  1  1  0
  3  2  2  0
  4  3  1  0
  5  4  2  0
  5 11  1  0
  6  5  1  0
  7  9  1  0
  7  6  1  0
  7  8  1  6
  9 10  2  0
 11 12  2  0
 12  2  1  0
 14 13  1  1
 14 16  1  0
 15 14  1  0
 15  9  1  0
 16 22  1  0
 17 16  2  0
 19 20  1  0
 19 18  1  1
 21 19  1  0
 21 22  1  6
 23 25  1  0
 23 21  1  0
 24 23  2  0
M  END
$$$$
