YAT.pdb
     RDKit          3D

 25 25  0  0  1  0  0  0  0  0999 V2000
   21.9363  -21.5604   -7.3268 O   0  0  0  0  0  0  0  0  0  0  0  0
   22.4835  -21.4485   -8.6025 C   0  0  0  0  0  0  0  0  0  0  0  0
   23.8059  -21.0730   -8.7752 C   0  0  0  0  0  0  0  0  0  0  0  0
   24.3441  -20.9641  -10.0323 C   0  0  0  0  0  0  0  0  0  0  0  0
   23.6119  -21.2174  -11.1825 C   0  0  0  0  0  0  0  0  0  0  0  0
   24.2221  -21.0888  -12.5391 C   0  0  0  0  0  0  0  0  0  0  0  0
   24.3658  -19.6160  -12.8612 C   0  0  2  0  0  0  0  0  0  0  0  0
   23.0601  -19.1002  -13.2871 N   0  0  0  0  0  0  0  0  0  0  0  0
   25.3226  -19.3663  -13.9464 C   0  0  0  0  0  0  0  0  0  0  0  0
   24.9147  -18.9935  -15.0862 O   0  0  0  0  0  0  0  0  0  0  0  0
   22.2927  -21.5917  -11.0048 C   0  0  0  0  0  0  0  0  0  0  0  0
   21.7466  -21.7031   -9.7374 C   0  0  0  0  0  0  0  0  0  0  0  0
   29.0265  -18.8801  -14.1820 C   0  0  0  0  0  0  0  0  0  0  0  0
   27.6580  -19.0617  -14.8390 C   0  0  2  0  0  0  0  0  0  0  0  0
   26.7410  -19.5140  -13.8239 N   0  0  0  0  0  0  0  0  0  0  0  0
   27.7278  -19.9755  -15.9950 C   0  0  0  0  0  0  0  0  0  0  0  0
   27.8491  -21.2189  -15.7897 O   0  0  0  0  0  0  0  0  0  0  0  0
   25.2313  -20.9792  -18.5087 C   0  0  0  0  0  0  0  0  0  0  0  0
   26.3749  -20.3774  -19.2517 C   0  0  1  0  0  0  0  0  0  0  0  0
   26.0733  -19.0497  -19.5431 O   0  0  0  0  0  0  0  0  0  0  0  0
   27.6753  -20.4472  -18.4816 C   0  0  2  0  0  0  0  0  0  0  0  0
   27.6684  -19.5536  -17.3422 N   0  0  0  0  0  0  0  0  0  0  0  0
   28.8782  -20.3059  -19.3074 C   0  0  0  0  0  0  0  0  0  0  0  0
   29.6965  -19.3789  -19.1107 O   0  0  0  0  0  0  0  0  0  0  0  0
   29.2010  -21.1786  -20.3605 O   0  0  0  0  0  0  0  0  0  0  0  0
  2  1  1  0
  3  2  2  0
  4  3  1  0
  5  4  2  0
  5 11  1  0
  6  5  1  0
  7  9  1  0
  7  6  1  0
  7  8  1  6
  9 10  2  0
 11 12  2  0
 12  2  1  0
 14 13  1  1
 14 16  1  0
 15 14  1  0
 15  9  1  0
 16 22  1  0
 17 16  2  0
 19 20  1  0
 19 18  1  1
 21 19  1  0
 21 22  1  1
 23 25  1  0
 23 21  1  0
 24 23  2  0
M  END
$$$$
