YAT.pdb
     RDKit          3D

 25 25  0  0  1  0  0  0  0  0999 V2000
   26.5494  -19.2775   -5.1898 O   0  0  0  0  0  0  0  0  0  0  0  0
   26.5411  -19.6326   -6.5364 C   0  0  0  0  0  0  0  0  0  0  0  0
   25.9061  -20.7888   -6.9598 C   0  0  0  0  0  0  0  0  0  0  0  0
   25.8976  -21.1372   -8.2866 C   0  0  0  0  0  0  0  0  0  0  0  0
   26.5122  -20.3689   -9.2641 C   0  0  0  0  0  0  0  0  0  0  0  0
   26.4900  -20.7727  -10.7013 C   0  0  0  0  0  0  0  0  0  0  0  0
   25.4772  -19.9099  -11.4249 C   0  0  2  0  0  0  0  0  0  0  0  0
   24.1528  -20.5251  -11.2849 N   0  0  0  0  0  0  0  0  0  0  0  0
   25.7645  -19.7848  -12.8593 C   0  0  0  0  0  0  0  0  0  0  0  0
   25.2839  -20.6180  -13.6833 O   0  0  0  0  0  0  0  0  0  0  0  0
   27.1446  -19.2160   -8.8365 C   0  0  0  0  0  0  0  0  0  0  0  0
   27.1545  -18.8615   -7.4982 C   0  0  0  0  0  0  0  0  0  0  0  0
   27.4450  -17.2678  -15.1032 C   0  0  0  0  0  0  0  0  0  0  0  0
   26.7391  -18.6016  -14.8577 C   0  0  2  0  0  0  0  0  0  0  0  0
   26.5776  -18.7568  -13.4345 N   0  0  0  0  0  0  0  0  0  0  0  0
   27.4695  -19.7242  -15.4763 C   0  0  0  0  0  0  0  0  0  0  0  0
   28.4892  -20.1922  -14.8897 O   0  0  0  0  0  0  0  0  0  0  0  0
   26.6552  -23.3150  -16.1442 C   0  0  0  0  0  0  0  0  0  0  0  0
   26.9289  -22.6514  -17.4506 C   0  0  1  0  0  0  0  0  0  0  0  0
   25.7175  -22.2894  -18.0338 O   0  0  0  0  0  0  0  0  0  0  0  0
   27.8131  -21.4313  -17.3138 C   0  0  2  0  0  0  0  0  0  0  0  0
   27.1053  -20.3262  -16.7016 N   0  0  0  0  0  0  0  0  0  0  0  0
   28.5119  -21.0470  -18.5438 C   0  0  0  0  0  0  0  0  0  0  0  0
   28.2649  -19.9633  -19.1202 O   0  0  0  0  0  0  0  0  0  0  0  0
   29.4911  -21.8452  -19.1593 O   0  0  0  0  0  0  0  0  0  0  0  0
  2  1  1  0
  3  2  2  0
  4  3  1  0
  5  4  2  0
  5 11  1  0
  6  5  1  0
  7  9  1  0
  7  6  1  0
  7  8  1  6
  9 10  2  0
 11 12  2  0
 12  2  1  0
 14 13  1  1
 14 16  1  0
 15 14  1  0
 15  9  1  0
 16 22  1  0
 17 16  2  0
 19 20  1  0
 19 18  1  1
 21 19  1  0
 21 22  1  6
 23 25  1  0
 23 21  1  0
 24 23  2  0
M  END
$$$$
