YAT.pdb
     RDKit          3D

 25 25  0  0  1  0  0  0  0  0999 V2000
   21.3775  -26.6280  -13.9550 O   0  0  0  0  0  0  0  0  0  0  0  0
   20.7290  -26.3671  -12.7506 C   0  0  0  0  0  0  0  0  0  0  0  0
   19.8143  -25.3315  -12.6488 C   0  0  0  0  0  0  0  0  0  0  0  0
   19.1754  -25.0760  -11.4620 C   0  0  0  0  0  0  0  0  0  0  0  0
   19.4023  -25.8232  -10.3160 C   0  0  0  0  0  0  0  0  0  0  0  0
   18.6948  -25.5219   -9.0362 C   0  0  0  0  0  0  0  0  0  0  0  0
   18.1994  -26.8253   -8.4452 C   0  0  2  0  0  0  0  0  0  0  0  0
   17.3183  -27.4767   -9.4206 N   0  0  0  0  0  0  0  0  0  0  0  0
   17.4326  -26.6290   -7.2086 C   0  0  0  0  0  0  0  0  0  0  0  0
   16.1843  -26.4202   -7.2560 O   0  0  0  0  0  0  0  0  0  0  0  0
   20.3161  -26.8554  -10.4227 C   0  0  0  0  0  0  0  0  0  0  0  0
   20.9623  -27.1162  -11.6191 C   0  0  0  0  0  0  0  0  0  0  0  0
   18.1408  -26.5613   -3.5013 C   0  0  0  0  0  0  0  0  0  0  0  0
   17.2163  -26.4068   -4.7092 C   0  0  2  0  0  0  0  0  0  0  0  0
   17.9980  -26.6540   -5.8939 N   0  0  0  0  0  0  0  0  0  0  0  0
   16.5579  -25.0867   -4.7234 C   0  0  0  0  0  0  0  0  0  0  0  0
   17.0084  -24.1829   -5.4869 O   0  0  0  0  0  0  0  0  0  0  0  0
   13.1462  -22.1390   -5.4119 C   0  0  0  0  0  0  0  0  0  0  0  0
   13.9456  -23.3935   -5.3168 C   0  0  1  0  0  0  0  0  0  0  0  0
   14.8297  -23.4461   -6.3913 O   0  0  0  0  0  0  0  0  0  0  0  0
   14.7149  -23.5007   -4.0185 C   0  0  2  0  0  0  0  0  0  0  0  0
   15.4380  -24.7522   -3.9293 N   0  0  0  0  0  0  0  0  0  0  0  0
   13.9232  -23.2151   -2.8184 C   0  0  0  0  0  0  0  0  0  0  0  0
   13.2373  -24.1046   -2.2652 O   0  0  0  0  0  0  0  0  0  0  0  0
   13.8720  -21.9505   -2.2077 O   0  0  0  0  0  0  0  0  0  0  0  0
  2  1  1  0
  3  2  2  0
  4  3  1  0
  5  4  2  0
  5 11  1  0
  6  5  1  0
  7  9  1  0
  7  6  1  0
  7  8  1  6
  9 10  2  0
 11 12  2  0
 12  2  1  0
 14 13  1  1
 14 16  1  0
 15 14  1  0
 15  9  1  0
 16 22  1  0
 17 16  2  0
 19 20  1  0
 19 18  1  1
 21 19  1  0
 21 22  1  1
 23 25  1  0
 23 21  1  0
 24 23  2  0
M  END
$$$$
