YAT.pdb
     RDKit          3D

 25 25  0  0  1  0  0  0  0  0999 V2000
   26.2052  -33.1930  -14.1441 O   0  0  0  0  0  0  0  0  0  0  0  0
   27.1951  -32.8117  -15.0463 C   0  0  0  0  0  0  0  0  0  0  0  0
   26.9926  -32.9310  -16.4117 C   0  0  0  0  0  0  0  0  0  0  0  0
   27.9680  -32.5540  -17.2996 C   0  0  0  0  0  0  0  0  0  0  0  0
   29.1907  -32.0419  -16.8924 C   0  0  0  0  0  0  0  0  0  0  0  0
   30.2361  -31.6416  -17.8804 C   0  0  0  0  0  0  0  0  0  0  0  0
   30.6018  -30.1935  -17.6295 C   0  0  2  0  0  0  0  0  0  0  0  0
   29.4825  -29.3471  -18.0572 N   0  0  0  0  0  0  0  0  0  0  0  0
   31.7930  -29.7742  -18.3783 C   0  0  0  0  0  0  0  0  0  0  0  0
   31.7077  -29.4892  -19.6094 O   0  0  0  0  0  0  0  0  0  0  0  0
   29.3880  -31.9249  -15.5288 C   0  0  0  0  0  0  0  0  0  0  0  0
   28.4054  -32.3040  -14.6301 C   0  0  0  0  0  0  0  0  0  0  0  0
   35.2580  -28.6191  -17.6206 C   0  0  0  0  0  0  0  0  0  0  0  0
   34.2446  -29.2354  -18.5854 C   0  0  2  0  0  0  0  0  0  0  0  0
   33.1026  -29.6539  -17.8132 N   0  0  0  0  0  0  0  0  0  0  0  0
   34.8398  -30.3349  -19.3684 C   0  0  0  0  0  0  0  0  0  0  0  0
   34.7904  -31.5138  -18.9093 O   0  0  0  0  0  0  0  0  0  0  0  0
   36.4083  -32.1243  -23.7100 C   0  0  0  0  0  0  0  0  0  0  0  0
   35.9052  -30.9904  -22.8835 C   0  0  1  0  0  0  0  0  0  0  0  0
   34.5649  -30.7703  -23.1901 O   0  0  0  0  0  0  0  0  0  0  0  0
   36.0542  -31.2368  -21.3983 C   0  0  2  0  0  0  0  0  0  0  0  0
   35.4744  -30.1628  -20.6190 N   0  0  0  0  0  0  0  0  0  0  0  0
   37.4152  -31.5769  -20.9729 C   0  0  0  0  0  0  0  0  0  0  0  0
   38.2457  -30.6872  -20.6787 O   0  0  0  0  0  0  0  0  0  0  0  0
   37.8851  -32.8968  -20.8641 O   0  0  0  0  0  0  0  0  0  0  0  0
  2  1  1  0
  3  2  2  0
  4  3  1  0
  5  4  2  0
  5 11  1  0
  6  5  1  0
  7  9  1  0
  7  6  1  0
  7  8  1  6
  9 10  2  0
 11 12  2  0
 12  2  1  0
 14 13  1  1
 14 16  1  0
 15 14  1  0
 15  9  1  0
 16 22  1  0
 17 16  2  0
 19 20  1  0
 19 18  1  6
 21 19  1  0
 21 22  1  1
 23 25  1  0
 23 21  1  0
 24 23  2  0
M  END
$$$$
