MMR.pdb
     RDKit          3D

 28 27  0  0  1  0  0  0  0  0999 V2000
    7.7919  -11.4881   19.0044 C   0  0  0  0  0  0  0  0  0  0  0  0
    7.8255  -12.8469   17.7825 S   0  0  0  0  0  0  0  0  0  0  0  0
    7.9201  -14.4038   18.6879 C   0  0  0  0  0  0  0  0  0  0  0  0
    8.5559  -14.1407   20.0174 C   0  0  0  0  0  0  0  0  0  0  0  0
    8.6406  -15.3800   20.8513 C   0  0  2  0  0  0  0  0  0  0  0  0
    7.7158  -16.3981   20.4679 N   0  0  0  0  0  0  0  0  0  0  0  0
    8.7608  -15.1457   22.2998 C   0  0  0  0  0  0  0  0  0  0  0  0
    9.8172  -14.5748   22.7437 O   0  0  0  0  0  0  0  0  0  0  0  0
    6.4384  -11.3396   27.3310 C   0  0  0  0  0  0  0  0  0  0  0  0
    5.8438  -13.0592   27.4550 S   0  0  0  0  0  0  0  0  0  0  0  0
    7.1987  -14.1420   26.8458 C   0  0  0  0  0  0  0  0  0  0  0  0
    6.9927  -14.3788   25.3632 C   0  0  0  0  0  0  0  0  0  0  0  0
    8.0117  -15.1673   24.6834 C   0  0  2  0  0  0  0  0  0  0  0  0
    7.7924  -15.4978   23.2911 N   0  0  0  0  0  0  0  0  0  0  0  0
    8.5649  -16.3330   25.4587 C   0  0  0  0  0  0  0  0  0  0  0  0
    7.9164  -16.7357   26.4213 O   0  0  0  0  0  0  0  0  0  0  0  0
   14.9902  -15.1259   23.1434 N   0  0  0  0  0  0  0  0  0  0  0  0
   14.3112  -15.6769   21.9989 C   0  0  0  0  0  0  0  0  0  0  0  0
   14.3159  -14.9228   20.9166 N   0  0  0  0  0  0  0  0  0  0  0  0
   13.6737  -16.9229   22.0067 N   0  0  0  0  0  0  0  0  0  0  0  0
   13.4529  -17.6425   23.2571 C   0  0  0  0  0  0  0  0  0  0  0  0
   12.2387  -17.0812   24.0170 C   0  0  0  0  0  0  0  0  0  0  0  0
   11.9203  -18.0050   25.1165 C   0  0  0  0  0  0  0  0  0  0  0  0
   10.6844  -17.7155   25.9324 C   0  0  2  0  0  0  0  0  0  0  0  0
    9.7628  -16.9584   25.1520 N   0  0  0  0  0  0  0  0  0  0  0  0
   10.9191  -17.3826   27.3178 C   0  0  0  0  0  0  0  0  0  0  0  0
   10.2060  -17.9631   28.2187 O   0  0  0  0  0  0  0  0  0  0  0  0
   11.7820  -16.5255   27.9110 O   0  0  0  0  0  0  0  0  0  0  0  0
  2  1  1  0
  3  2  1  0
  4  5  1  0
  4  3  1  0
  5  6  1  1
  7  8  2  0
  7  5  1  0
 10  9  1  0
 11 10  1  0
 11 12  1  0
 13 12  1  1
 13 14  1  0
 14  7  1  0
 15 25  1  0
 15 13  1  0
 16 15  2  0
 17 18  1  0
 18 20  1  0
 19 18  2  0
 20 21  1  0
 21 22  1  0
 22 23  1  0
 24 23  1  6
 24 25  1  0
 24 26  1  0
 26 28  1  0
 27 26  2  0
M  END
$$$$
