MMR.pdb
     RDKit          3D

 28 27  0  0  1  0  0  0  0  0999 V2000
    8.3861  -11.2979   19.1232 C   0  0  0  0  0  0  0  0  0  0  0  0
    7.4345  -12.4893   18.1154 S   0  0  0  0  0  0  0  0  0  0  0  0
    7.4952  -14.0894   18.9452 C   0  0  0  0  0  0  0  0  0  0  0  0
    8.2744  -13.9357   20.2142 C   0  0  0  0  0  0  0  0  0  0  0  0
    8.3074  -15.2042   21.0068 C   0  0  2  0  0  0  0  0  0  0  0  0
    7.1016  -15.9649   20.9291 N   0  0  0  0  0  0  0  0  0  0  0  0
    8.8930  -15.0799   22.3518 C   0  0  0  0  0  0  0  0  0  0  0  0
   10.1366  -14.7943   22.4560 O   0  0  0  0  0  0  0  0  0  0  0  0
    5.3254  -11.9416   27.6839 C   0  0  0  0  0  0  0  0  0  0  0  0
    7.0645  -12.1441   27.1737 S   0  0  0  0  0  0  0  0  0  0  0  0
    7.1264  -13.5856   26.0345 C   0  0  0  0  0  0  0  0  0  0  0  0
    8.5496  -13.7431   25.5383 C   0  0  0  0  0  0  0  0  0  0  0  0
    8.8632  -14.9874   24.8486 C   0  0  2  0  0  0  0  0  0  0  0  0
    8.1974  -15.2480   23.5898 N   0  0  0  0  0  0  0  0  0  0  0  0
    8.9339  -16.2173   25.7137 C   0  0  0  0  0  0  0  0  0  0  0  0
    7.8784  -16.7860   25.9819 O   0  0  0  0  0  0  0  0  0  0  0  0
   14.3185  -19.8879   22.0508 N   0  0  0  0  0  0  0  0  0  0  0  0
   12.9375  -19.7607   21.6621 C   0  0  0  0  0  0  0  0  0  0  0  0
   12.6840  -19.9700   20.3847 N   0  0  0  0  0  0  0  0  0  0  0  0
   11.9121  -19.4309   22.5561 N   0  0  0  0  0  0  0  0  0  0  0  0
   12.1968  -19.1994   23.9686 C   0  0  0  0  0  0  0  0  0  0  0  0
   10.8999  -19.0320   24.7791 C   0  0  0  0  0  0  0  0  0  0  0  0
   11.2650  -18.8306   26.1898 C   0  0  0  0  0  0  0  0  0  0  0  0
   10.4123  -17.8863   27.0009 C   0  0  2  0  0  0  0  0  0  0  0  0
   10.1158  -16.7260   26.2279 N   0  0  0  0  0  0  0  0  0  0  0  0
   10.7715  -17.7670   28.3945 C   0  0  0  0  0  0  0  0  0  0  0  0
   11.0071  -18.8416   29.0627 O   0  0  0  0  0  0  0  0  0  0  0  0
   10.9147  -16.6931   29.2054 O   0  0  0  0  0  0  0  0  0  0  0  0
  2  1  1  0
  3  2  1  0
  4  5  1  0
  4  3  1  0
  5  6  1  1
  7  8  2  0
  7  5  1  0
 10  9  1  0
 11 10  1  0
 11 12  1  0
 13 12  1  1
 13 14  1  0
 14  7  1  0
 15 25  1  0
 15 13  1  0
 16 15  2  0
 17 18  1  0
 18 20  1  0
 19 18  2  0
 20 21  1  0
 21 22  1  0
 22 23  1  0
 24 23  1  6
 24 25  1  0
 24 26  1  0
 26 28  1  0
 27 26  2  0
M  END
$$$$
