MMR.pdb
     RDKit          3D

 28 27  0  0  1  0  0  0  0  0999 V2000
    8.4053  -11.5000   19.5877 C   0  0  0  0  0  0  0  0  0  0  0  0
    6.9727  -12.6314   19.4988 S   0  0  0  0  0  0  0  0  0  0  0  0
    7.5856  -14.2670   19.0498 C   0  0  0  0  0  0  0  0  0  0  0  0
    8.8650  -14.5124   19.7875 C   0  0  0  0  0  0  0  0  0  0  0  0
    8.7192  -15.5890   20.8161 C   0  0  2  0  0  0  0  0  0  0  0  0
    7.6447  -16.4930   20.5573 N   0  0  0  0  0  0  0  0  0  0  0  0
    8.8434  -15.1349   22.2110 C   0  0  0  0  0  0  0  0  0  0  0  0
    9.9651  -14.6592   22.6042 O   0  0  0  0  0  0  0  0  0  0  0  0
    6.1377  -11.0546   26.0553 C   0  0  0  0  0  0  0  0  0  0  0  0
    6.2327  -12.3824   27.3018 S   0  0  0  0  0  0  0  0  0  0  0  0
    7.4752  -13.5965   26.7008 C   0  0  0  0  0  0  0  0  0  0  0  0
    7.1698  -13.9168   25.2514 C   0  0  0  0  0  0  0  0  0  0  0  0
    8.0985  -14.8117   24.5741 C   0  0  2  0  0  0  0  0  0  0  0  0
    7.8120  -15.1689   23.2007 N   0  0  0  0  0  0  0  0  0  0  0  0
    8.5736  -15.9937   25.3761 C   0  0  0  0  0  0  0  0  0  0  0  0
    7.7654  -16.5337   26.1275 O   0  0  0  0  0  0  0  0  0  0  0  0
    6.7963  -21.2209   28.2456 N   0  0  0  0  0  0  0  0  0  0  0  0
    7.8467  -22.1569   27.9376 C   0  0  0  0  0  0  0  0  0  0  0  0
    8.1931  -22.9673   28.9190 N   0  0  0  0  0  0  0  0  0  0  0  0
    8.4814  -22.2211   26.6917 N   0  0  0  0  0  0  0  0  0  0  0  0
    8.5424  -21.0506   25.8220 C   0  0  0  0  0  0  0  0  0  0  0  0
    9.5020  -19.9874   26.3838 C   0  0  0  0  0  0  0  0  0  0  0  0
    9.5420  -18.8620   25.4374 C   0  0  0  0  0  0  0  0  0  0  0  0
   10.4548  -17.7069   25.7686 C   0  0  2  0  0  0  0  0  0  0  0  0
    9.8666  -16.4887   25.3196 N   0  0  0  0  0  0  0  0  0  0  0  0
   11.8645  -17.9550   25.5771 C   0  0  0  0  0  0  0  0  0  0  0  0
   12.4320  -18.8612   26.2937 O   0  0  0  0  0  0  0  0  0  0  0  0
   12.7806  -17.3934   24.7545 O   0  0  0  0  0  0  0  0  0  0  0  0
  2  1  1  0
  3  2  1  0
  4  5  1  0
  4  3  1  0
  5  6  1  1
  7  8  2  0
  7  5  1  0
 10  9  1  0
 11 10  1  0
 11 12  1  0
 13 12  1  1
 13 14  1  0
 14  7  1  0
 15 25  1  0
 15 13  1  0
 16 15  2  0
 17 18  1  0
 18 20  1  0
 19 18  2  0
 20 21  1  0
 21 22  1  0
 22 23  1  0
 24 23  1  6
 24 25  1  0
 24 26  1  0
 26 28  1  0
 27 26  2  0
M  END
$$$$
