MMR.pdb
     RDKit          3D

 28 27  0  0  1  0  0  0  0  0999 V2000
    6.8334  -11.5888   19.3577 C   0  0  0  0  0  0  0  0  0  0  0  0
    8.0870  -12.8967   19.5991 S   0  0  0  0  0  0  0  0  0  0  0  0
    7.3205  -14.4793   19.1984 C   0  0  0  0  0  0  0  0  0  0  0  0
    8.2475  -15.5754   19.6230 C   0  0  0  0  0  0  0  0  0  0  0  0
    7.7161  -16.3323   20.7992 C   0  0  2  0  0  0  0  0  0  0  0  0
    6.5065  -17.0418   20.5305 N   0  0  0  0  0  0  0  0  0  0  0  0
    7.7508  -15.5992   22.0754 C   0  0  0  0  0  0  0  0  0  0  0  0
    6.6514  -15.4050   22.7019 O   0  0  0  0  0  0  0  0  0  0  0  0
    6.2608  -11.8691   27.9936 C   0  0  0  0  0  0  0  0  0  0  0  0
    6.1096  -12.6282   26.3424 S   0  0  0  0  0  0  0  0  0  0  0  0
    7.6909  -13.5031   26.0058 C   0  0  0  0  0  0  0  0  0  0  0  0
    7.6698  -13.9966   24.5731 C   0  0  0  0  0  0  0  0  0  0  0  0
    8.8790  -14.6526   24.0940 C   0  0  2  0  0  0  0  0  0  0  0  0
    8.9180  -15.0676   22.7076 N   0  0  0  0  0  0  0  0  0  0  0  0
    9.4687  -15.6917   25.0098 C   0  0  0  0  0  0  0  0  0  0  0  0
    9.4971  -15.4405   26.2121 O   0  0  0  0  0  0  0  0  0  0  0  0
   11.2437  -23.2460   24.0599 N   0  0  0  0  0  0  0  0  0  0  0  0
   12.6490  -23.1442   24.3593 C   0  0  0  0  0  0  0  0  0  0  0  0
   13.2062  -24.2331   24.8529 N   0  0  0  0  0  0  0  0  0  0  0  0
   13.3979  -21.9791   24.1574 N   0  0  0  0  0  0  0  0  0  0  0  0
   12.7588  -20.7484   23.7024 C   0  0  0  0  0  0  0  0  0  0  0  0
   11.8946  -20.1251   24.8121 C   0  0  0  0  0  0  0  0  0  0  0  0
   11.3248  -18.8704   24.2976 C   0  0  0  0  0  0  0  0  0  0  0  0
   10.5074  -18.0349   25.2519 C   0  0  2  0  0  0  0  0  0  0  0  0
    9.9876  -16.8979   24.5672 N   0  0  0  0  0  0  0  0  0  0  0  0
   11.0497  -17.9043   26.5838 C   0  0  0  0  0  0  0  0  0  0  0  0
   11.9840  -17.0421   26.7853 O   0  0  0  0  0  0  0  0  0  0  0  0
   10.7720  -18.5450   27.7430 O   0  0  0  0  0  0  0  0  0  0  0  0
  2  1  1  0
  3  2  1  0
  4  5  1  0
  4  3  1  0
  5  6  1  6
  7  8  2  0
  7  5  1  0
 10  9  1  0
 11 10  1  0
 11 12  1  0
 13 12  1  1
 13 14  1  0
 14  7  1  0
 15 25  1  0
 15 13  1  0
 16 15  2  0
 17 18  1  0
 18 20  1  0
 19 18  2  0
 20 21  1  0
 21 22  1  0
 22 23  1  0
 24 23  1  6
 24 25  1  0
 24 26  1  0
 26 28  1  0
 27 26  2  0
M  END
$$$$
