MMR.pdb
     RDKit          3D

 28 27  0  0  1  0  0  0  0  0999 V2000
    8.3682  -11.1566   19.8511 C   0  0  0  0  0  0  0  0  0  0  0  0
    7.5177  -12.2578   18.6660 S   0  0  0  0  0  0  0  0  0  0  0  0
    7.2876  -13.8585   19.4643 C   0  0  0  0  0  0  0  0  0  0  0  0
    8.6011  -14.2974   20.0328 C   0  0  0  0  0  0  0  0  0  0  0  0
    8.4748  -15.5654   20.8169 C   0  0  2  0  0  0  0  0  0  0  0  0
    7.3494  -16.3628   20.4478 N   0  0  0  0  0  0  0  0  0  0  0  0
    8.7047  -15.4249   22.2643 C   0  0  0  0  0  0  0  0  0  0  0  0
    9.9097  -15.4199   22.6969 O   0  0  0  0  0  0  0  0  0  0  0  0
    6.3285  -11.3533   26.1814 C   0  0  0  0  0  0  0  0  0  0  0  0
    6.7829  -12.4733   27.5470 S   0  0  0  0  0  0  0  0  0  0  0  0
    7.8097  -13.8152   26.8230 C   0  0  0  0  0  0  0  0  0  0  0  0
    7.3578  -14.0469   25.3952 C   0  0  0  0  0  0  0  0  0  0  0  0
    8.0558  -15.0886   24.6537 C   0  0  2  0  0  0  0  0  0  0  0  0
    7.6938  -15.2877   23.2662 N   0  0  0  0  0  0  0  0  0  0  0  0
    8.2477  -16.3938   25.3787 C   0  0  0  0  0  0  0  0  0  0  0  0
    7.3778  -17.2513   25.2470 O   0  0  0  0  0  0  0  0  0  0  0  0
   13.2733  -20.0301   20.7082 N   0  0  0  0  0  0  0  0  0  0  0  0
   13.5693  -20.7942   21.8928 C   0  0  0  0  0  0  0  0  0  0  0  0
   14.3241  -21.8602   21.7088 N   0  0  0  0  0  0  0  0  0  0  0  0
   13.0958  -20.4570   23.1661 N   0  0  0  0  0  0  0  0  0  0  0  0
   12.1773  -19.3380   23.3507 C   0  0  0  0  0  0  0  0  0  0  0  0
   11.7419  -19.2101   24.8207 C   0  0  0  0  0  0  0  0  0  0  0  0
   10.8126  -18.0746   24.9252 C   0  0  0  0  0  0  0  0  0  0  0  0
   10.2160  -17.7866   26.2809 C   0  0  2  0  0  0  0  0  0  0  0  0
    9.3379  -16.6676   26.1890 N   0  0  0  0  0  0  0  0  0  0  0  0
   11.1211  -17.9187   27.3983 C   0  0  0  0  0  0  0  0  0  0  0  0
   11.4136  -16.8668   28.0801 O   0  0  0  0  0  0  0  0  0  0  0  0
   11.7791  -18.9841   27.9113 O   0  0  0  0  0  0  0  0  0  0  0  0
  2  1  1  0
  3  2  1  0
  4  5  1  0
  4  3  1  0
  5  6  1  1
  7  8  2  0
  7  5  1  0
 10  9  1  0
 11 10  1  0
 11 12  1  0
 13 12  1  1
 13 14  1  0
 14  7  1  0
 15 25  1  0
 15 13  1  0
 16 15  2  0
 17 18  1  0
 18 20  1  0
 19 18  2  0
 20 21  1  0
 21 22  1  0
 22 23  1  0
 24 23  1  6
 24 25  1  0
 24 26  1  0
 26 28  1  0
 27 26  2  0
M  END
$$$$
