MMR.pdb
     RDKit          3D

 28 27  0  0  1  0  0  0  0  0999 V2000
    8.9365  -11.4313   19.6444 C   0  0  0  0  0  0  0  0  0  0  0  0
    8.1609  -12.5071   18.3869 S   0  0  0  0  0  0  0  0  0  0  0  0
    8.1324  -14.1887   19.0381 C   0  0  0  0  0  0  0  0  0  0  0  0
    8.5770  -14.1508   20.4671 C   0  0  0  0  0  0  0  0  0  0  0  0
    8.6264  -15.5177   21.0733 C   0  0  2  0  0  0  0  0  0  0  0  0
    7.6865  -16.4332   20.5102 N   0  0  0  0  0  0  0  0  0  0  0  0
    8.7327  -15.5414   22.5415 C   0  0  0  0  0  0  0  0  0  0  0  0
    9.7908  -15.0716   23.0881 O   0  0  0  0  0  0  0  0  0  0  0  0
    7.3130  -11.9630   26.8987 C   0  0  0  0  0  0  0  0  0  0  0  0
    5.8509  -12.8638   26.2850 S   0  0  0  0  0  0  0  0  0  0  0  0
    6.4473  -14.0624   25.0253 C   0  0  0  0  0  0  0  0  0  0  0  0
    7.5410  -14.9069   25.6476 C   0  0  0  0  0  0  0  0  0  0  0  0
    7.9961  -16.0540   24.8736 C   0  0  2  0  0  0  0  0  0  0  0  0
    7.7485  -16.0471   23.4472 N   0  0  0  0  0  0  0  0  0  0  0  0
    7.7324  -17.4042   25.4846 C   0  0  0  0  0  0  0  0  0  0  0  0
    6.5732  -17.6749   25.7885 O   0  0  0  0  0  0  0  0  0  0  0  0
   12.8545  -18.7666   30.8441 N   0  0  0  0  0  0  0  0  0  0  0  0
   12.6833  -20.1949   30.9165 C   0  0  0  0  0  0  0  0  0  0  0  0
   12.8923  -20.7340   32.1021 N   0  0  0  0  0  0  0  0  0  0  0  0
   12.3266  -20.9854   29.8178 N   0  0  0  0  0  0  0  0  0  0  0  0
   11.9790  -20.3751   28.5384 C   0  0  0  0  0  0  0  0  0  0  0  0
   10.7380  -19.4751   28.6684 C   0  0  0  0  0  0  0  0  0  0  0  0
   10.3967  -18.9706   27.3295 C   0  0  0  0  0  0  0  0  0  0  0  0
    8.9880  -19.1980   26.8387 C   0  0  2  0  0  0  0  0  0  0  0  0
    8.7233  -18.3409   25.7311 N   0  0  0  0  0  0  0  0  0  0  0  0
    7.9954  -19.3923   27.8693 C   0  0  0  0  0  0  0  0  0  0  0  0
    7.8119  -20.5802   28.3299 O   0  0  0  0  0  0  0  0  0  0  0  0
    7.1533  -18.5344   28.4907 O   0  0  0  0  0  0  0  0  0  0  0  0
  2  1  1  0
  3  2  1  0
  4  5  1  0
  4  3  1  0
  5  6  1  1
  7  8  2  0
  7  5  1  0
 10  9  1  0
 11 10  1  0
 11 12  1  0
 13 12  1  1
 13 14  1  0
 14  7  1  0
 15 25  1  0
 15 13  1  0
 16 15  2  0
 17 18  1  0
 18 20  1  0
 19 18  2  0
 20 21  1  0
 21 22  1  0
 22 23  1  0
 24 23  1  1
 24 25  1  0
 24 26  1  0
 26 28  1  0
 27 26  2  0
M  END
$$$$
