MMR.pdb
     RDKit          3D

 28 27  0  0  1  0  0  0  0  0999 V2000
    7.9776  -11.2744   18.8485 C   0  0  0  0  0  0  0  0  0  0  0  0
    7.1594  -12.7023   18.0536 S   0  0  0  0  0  0  0  0  0  0  0  0
    7.6896  -14.1951   18.9156 C   0  0  0  0  0  0  0  0  0  0  0  0
    8.3289  -13.7937   20.2084 C   0  0  0  0  0  0  0  0  0  0  0  0
    8.7618  -14.9806   21.0099 C   0  0  2  0  0  0  0  0  0  0  0  0
    8.0598  -16.1815   20.6882 N   0  0  0  0  0  0  0  0  0  0  0  0
    8.9513  -14.7227   22.4469 C   0  0  0  0  0  0  0  0  0  0  0  0
    9.6509  -13.7110   22.8021 O   0  0  0  0  0  0  0  0  0  0  0  0
    5.3432  -11.8177   26.0439 C   0  0  0  0  0  0  0  0  0  0  0  0
    6.9819  -11.9721   26.8291 S   0  0  0  0  0  0  0  0  0  0  0  0
    7.4248  -13.7561   26.8031 C   0  0  0  0  0  0  0  0  0  0  0  0
    7.3372  -14.2506   25.3733 C   0  0  0  0  0  0  0  0  0  0  0  0
    8.4723  -15.0198   24.8812 C   0  0  2  0  0  0  0  0  0  0  0  0
    8.4188  -15.5055   23.5184 N   0  0  0  0  0  0  0  0  0  0  0  0
    9.0238  -16.0535   25.8264 C   0  0  0  0  0  0  0  0  0  0  0  0
    9.0856  -15.7600   27.0178 O   0  0  0  0  0  0  0  0  0  0  0  0
   14.5326  -15.1023   21.1356 N   0  0  0  0  0  0  0  0  0  0  0  0
   13.2408  -15.5068   20.6435 C   0  0  0  0  0  0  0  0  0  0  0  0
   12.9811  -15.1819   19.3918 N   0  0  0  0  0  0  0  0  0  0  0  0
   12.3003  -16.1934   21.4203 N   0  0  0  0  0  0  0  0  0  0  0  0
   12.5839  -16.5343   22.8107 C   0  0  0  0  0  0  0  0  0  0  0  0
   11.4622  -17.3975   23.4136 C   0  0  0  0  0  0  0  0  0  0  0  0
   11.7745  -17.6272   24.8326 C   0  0  0  0  0  0  0  0  0  0  0  0
   10.6419  -18.0538   25.7338 C   0  0  2  0  0  0  0  0  0  0  0  0
    9.4728  -17.3003   25.4218 N   0  0  0  0  0  0  0  0  0  0  0  0
   11.0045  -18.3095   27.1079 C   0  0  0  0  0  0  0  0  0  0  0  0
   10.4044  -17.6486   28.0353 O   0  0  0  0  0  0  0  0  0  0  0  0
   11.9088  -19.1472   27.6664 O   0  0  0  0  0  0  0  0  0  0  0  0
  2  1  1  0
  3  2  1  0
  4  5  1  0
  4  3  1  0
  5  6  1  1
  7  8  2  0
  7  5  1  0
 10  9  1  0
 11 10  1  0
 11 12  1  0
 13 12  1  1
 13 14  1  0
 14  7  1  0
 15 25  1  0
 15 13  1  0
 16 15  2  0
 17 18  1  0
 18 20  1  0
 19 18  2  0
 20 21  1  0
 21 22  1  0
 22 23  1  0
 24 23  1  1
 24 25  1  0
 24 26  1  0
 26 28  1  0
 27 26  2  0
M  END
$$$$
