MMR.pdb
     RDKit          3D

 28 27  0  0  1  0  0  0  0  0999 V2000
    5.7956  -11.5371   25.4755 C   0  0  0  0  0  0  0  0  0  0  0  0
    6.6494  -12.3105   26.8943 S   0  0  0  0  0  0  0  0  0  0  0  0
    6.1088  -14.0280   26.9969 C   0  0  0  0  0  0  0  0  0  0  0  0
    7.0617  -14.8723   26.2094 C   0  0  0  0  0  0  0  0  0  0  0  0
    6.5168  -15.2195   24.8600 C   0  0  2  0  0  0  0  0  0  0  0  0
    5.7596  -16.4298   24.8370 N   0  0  0  0  0  0  0  0  0  0  0  0
    7.4617  -15.0417   23.7451 C   0  0  0  0  0  0  0  0  0  0  0  0
    8.2239  -14.0130   23.7444 O   0  0  0  0  0  0  0  0  0  0  0  0
    8.9835  -12.0772   19.2449 C   0  0  0  0  0  0  0  0  0  0  0  0
    7.3590  -12.8383   18.9172 S   0  0  0  0  0  0  0  0  0  0  0  0
    7.3159  -14.4304   19.8352 C   0  0  0  0  0  0  0  0  0  0  0  0
    8.4694  -14.4481   20.8179 C   0  0  0  0  0  0  0  0  0  0  0  0
    8.6221  -15.6552   21.6189 C   0  0  2  0  0  0  0  0  0  0  0  0
    7.6232  -15.9242   22.6318 N   0  0  0  0  0  0  0  0  0  0  0  0
   10.0151  -15.9446   22.1106 C   0  0  0  0  0  0  0  0  0  0  0  0
   10.8056  -15.0058   22.1664 O   0  0  0  0  0  0  0  0  0  0  0  0
   11.2196  -19.6987   29.4964 N   0  0  0  0  0  0  0  0  0  0  0  0
   12.5350  -19.6572   28.9112 C   0  0  0  0  0  0  0  0  0  0  0  0
   13.5095  -20.1251   29.6671 N   0  0  0  0  0  0  0  0  0  0  0  0
   12.7939  -19.1531   27.6313 N   0  0  0  0  0  0  0  0  0  0  0  0
   11.8815  -19.4192   26.5237 C   0  0  0  0  0  0  0  0  0  0  0  0
   12.4415  -18.8779   25.1970 C   0  0  0  0  0  0  0  0  0  0  0  0
   11.3247  -18.3082   24.4277 C   0  0  0  0  0  0  0  0  0  0  0  0
   11.6488  -17.6719   23.0985 C   0  0  2  0  0  0  0  0  0  0  0  0
   10.4489  -17.2059   22.4862 N   0  0  0  0  0  0  0  0  0  0  0  0
   12.6568  -18.3477   22.3160 C   0  0  0  0  0  0  0  0  0  0  0  0
   12.2822  -19.0426   21.2993 O   0  0  0  0  0  0  0  0  0  0  0  0
   14.0028  -18.4179   22.4370 O   0  0  0  0  0  0  0  0  0  0  0  0
  2  1  1  0
  3  2  1  0
  4  5  1  0
  4  3  1  0
  5  6  1  1
  7  8  2  0
  7  5  1  0
 10  9  1  0
 11 10  1  0
 11 12  1  0
 13 12  1  1
 13 14  1  0
 14  7  1  0
 15 25  1  0
 15 13  1  0
 16 15  2  0
 17 18  1  0
 18 20  1  0
 19 18  2  0
 20 21  1  0
 21 22  1  0
 22 23  1  0
 24 23  1  1
 24 25  1  0
 24 26  1  0
 26 28  1  0
 27 26  2  0
M  END
$$$$
