MMR.pdb
     RDKit          3D

 28 27  0  0  1  0  0  0  0  0999 V2000
    8.3740  -11.5082   19.2496 C   0  0  0  0  0  0  0  0  0  0  0  0
    7.1443  -12.6496   18.5247 S   0  0  0  0  0  0  0  0  0  0  0  0
    7.1171  -14.1461   19.5308 C   0  0  0  0  0  0  0  0  0  0  0  0
    8.5300  -14.5591   19.8038 C   0  0  0  0  0  0  0  0  0  0  0  0
    8.5986  -15.7792   20.6669 C   0  0  2  0  0  0  0  0  0  0  0  0
    7.7032  -16.8181   20.2701 N   0  0  0  0  0  0  0  0  0  0  0  0
    8.6592  -15.5128   22.1135 C   0  0  0  0  0  0  0  0  0  0  0  0
    9.8056  -15.3563   22.6615 O   0  0  0  0  0  0  0  0  0  0  0  0
    6.6234  -11.8779   28.5413 C   0  0  0  0  0  0  0  0  0  0  0  0
    6.0666  -12.4780   26.9117 S   0  0  0  0  0  0  0  0  0  0  0  0
    7.0385  -13.9924   26.5355 C   0  0  0  0  0  0  0  0  0  0  0  0
    6.6983  -14.4428   25.1291 C   0  0  0  0  0  0  0  0  0  0  0  0
    7.7370  -15.1683   24.4101 C   0  0  2  0  0  0  0  0  0  0  0  0
    7.5391  -15.4058   22.9958 N   0  0  0  0  0  0  0  0  0  0  0  0
    8.2986  -16.3764   25.1110 C   0  0  0  0  0  0  0  0  0  0  0  0
    7.9125  -17.4815   24.7380 O   0  0  0  0  0  0  0  0  0  0  0  0
   15.6947  -15.8123   23.9320 N   0  0  0  0  0  0  0  0  0  0  0  0
   15.7089  -17.2455   23.7900 C   0  0  0  0  0  0  0  0  0  0  0  0
   16.9040  -17.8032   23.7634 N   0  0  0  0  0  0  0  0  0  0  0  0
   14.5489  -18.0208   23.6781 N   0  0  0  0  0  0  0  0  0  0  0  0
   13.2279  -17.4026   23.7313 C   0  0  0  0  0  0  0  0  0  0  0  0
   12.6330  -17.4781   25.1481 C   0  0  0  0  0  0  0  0  0  0  0  0
   11.3016  -16.8534   25.1189 C   0  0  0  0  0  0  0  0  0  0  0  0
   10.4720  -16.9251   26.3773 C   0  0  2  0  0  0  0  0  0  0  0  0
    9.2088  -16.3038   26.1532 N   0  0  0  0  0  0  0  0  0  0  0  0
   11.1916  -16.7005   27.6089 C   0  0  0  0  0  0  0  0  0  0  0  0
   11.3630  -17.6930   28.4104 O   0  0  0  0  0  0  0  0  0  0  0  0
   11.7554  -15.5911   28.1405 O   0  0  0  0  0  0  0  0  0  0  0  0
  2  1  1  0
  3  2  1  0
  4  5  1  0
  4  3  1  0
  5  6  1  1
  7  8  2  0
  7  5  1  0
 10  9  1  0
 11 10  1  0
 11 12  1  0
 13 12  1  1
 13 14  1  0
 14  7  1  0
 15 25  1  0
 15 13  1  0
 16 15  2  0
 17 18  1  0
 18 20  1  0
 19 18  2  0
 20 21  1  0
 21 22  1  0
 22 23  1  0
 24 23  1  6
 24 25  1  0
 24 26  1  0
 26 28  1  0
 27 26  2  0
M  END
$$$$
