MMR.pdb
     RDKit          3D

 28 27  0  0  1  0  0  0  0  0999 V2000
    5.7475  -15.3406   18.6778 C   0  0  0  0  0  0  0  0  0  0  0  0
    6.7801  -14.4419   17.4669 S   0  0  0  0  0  0  0  0  0  0  0  0
    7.9180  -13.3860   18.3850 C   0  0  0  0  0  0  0  0  0  0  0  0
    8.5880  -14.2138   19.4371 C   0  0  0  0  0  0  0  0  0  0  0  0
    9.4105  -13.3778   20.3661 C   0  0  2  0  0  0  0  0  0  0  0  0
   10.7449  -13.1519   19.9111 N   0  0  0  0  0  0  0  0  0  0  0  0
    9.2763  -13.7202   21.7917 C   0  0  0  0  0  0  0  0  0  0  0  0
   10.3253  -13.7155   22.5256 O   0  0  0  0  0  0  0  0  0  0  0  0
    8.0087  -11.6758   27.6199 C   0  0  0  0  0  0  0  0  0  0  0  0
    6.4652  -12.1756   26.7871 S   0  0  0  0  0  0  0  0  0  0  0  0
    6.7534  -13.8471   26.0784 C   0  0  0  0  0  0  0  0  0  0  0  0
    6.7819  -13.7286   24.5679 C   0  0  0  0  0  0  0  0  0  0  0  0
    8.0140  -14.1382   23.9072 C   0  0  2  0  0  0  0  0  0  0  0  0
    8.0615  -14.0656   22.4620 N   0  0  0  0  0  0  0  0  0  0  0  0
    8.6508  -15.3984   24.4292 C   0  0  0  0  0  0  0  0  0  0  0  0
    8.6826  -15.5578   25.6469 O   0  0  0  0  0  0  0  0  0  0  0  0
   14.4631  -15.0425   20.9847 N   0  0  0  0  0  0  0  0  0  0  0  0
   13.3661  -15.2508   20.0748 C   0  0  0  0  0  0  0  0  0  0  0  0
   13.2721  -14.3808   19.0878 N   0  0  0  0  0  0  0  0  0  0  0  0
   12.4415  -16.2933   20.2076 N   0  0  0  0  0  0  0  0  0  0  0  0
   11.3646  -16.2176   21.1896 C   0  0  0  0  0  0  0  0  0  0  0  0
   11.8031  -16.7991   22.5447 C   0  0  0  0  0  0  0  0  0  0  0  0
   10.8969  -17.9079   22.8813 C   0  0  0  0  0  0  0  0  0  0  0  0
    9.8071  -17.6341   23.8884 C   0  0  2  0  0  0  0  0  0  0  0  0
    9.2089  -16.3698   23.6138 N   0  0  0  0  0  0  0  0  0  0  0  0
   10.1040  -18.0255   25.2463 C   0  0  0  0  0  0  0  0  0  0  0  0
    9.8994  -17.1744   26.1901 O   0  0  0  0  0  0  0  0  0  0  0  0
   10.5930  -19.1720   25.7733 O   0  0  0  0  0  0  0  0  0  0  0  0
  2  1  1  0
  3  2  1  0
  4  5  1  0
  4  3  1  0
  5  6  1  6
  7  8  2  0
  7  5  1  0
 10  9  1  0
 11 10  1  0
 11 12  1  0
 13 12  1  6
 13 14  1  0
 14  7  1  0
 15 25  1  0
 15 13  1  0
 16 15  2  0
 17 18  1  0
 18 20  1  0
 19 18  2  0
 20 21  1  0
 21 22  1  0
 22 23  1  0
 24 23  1  6
 24 25  1  0
 24 26  1  0
 26 28  1  0
 27 26  2  0
M  END
$$$$
