MMR.pdb
     RDKit          3D

 28 27  0  0  1  0  0  0  0  0999 V2000
   12.1263  -14.6010   28.6544 C   0  0  0  0  0  0  0  0  0  0  0  0
   10.7857  -15.6462   29.3258 S   0  0  0  0  0  0  0  0  0  0  0  0
   10.0947  -16.6040   27.9628 C   0  0  0  0  0  0  0  0  0  0  0  0
    8.9299  -17.3901   28.4790 C   0  0  0  0  0  0  0  0  0  0  0  0
    8.2509  -18.1619   27.3919 C   0  0  2  0  0  0  0  0  0  0  0  0
    8.9673  -19.3247   26.9756 N   0  0  0  0  0  0  0  0  0  0  0  0
    7.6892  -17.3411   26.3065 C   0  0  0  0  0  0  0  0  0  0  0  0
    7.3750  -17.9121   25.2046 O   0  0  0  0  0  0  0  0  0  0  0  0
    6.6831  -11.0599   25.8374 C   0  0  0  0  0  0  0  0  0  0  0  0
    5.5470  -11.9133   26.9805 S   0  0  0  0  0  0  0  0  0  0  0  0
    5.5282  -13.6865   26.4961 C   0  0  0  0  0  0  0  0  0  0  0  0
    6.4875  -13.8770   25.3386 C   0  0  0  0  0  0  0  0  0  0  0  0
    7.0423  -15.2131   25.1677 C   0  0  2  0  0  0  0  0  0  0  0  0
    7.4491  -15.9324   26.3564 N   0  0  0  0  0  0  0  0  0  0  0  0
    8.0327  -15.3738   24.0455 C   0  0  0  0  0  0  0  0  0  0  0  0
    9.2166  -15.1629   24.2966 O   0  0  0  0  0  0  0  0  0  0  0  0
    9.9590  -14.3274   17.1281 N   0  0  0  0  0  0  0  0  0  0  0  0
    8.7665  -13.6362   16.7099 C   0  0  0  0  0  0  0  0  0  0  0  0
    8.4587  -13.7538   15.4326 N   0  0  0  0  0  0  0  0  0  0  0  0
    7.9715  -12.8769   17.5762 N   0  0  0  0  0  0  0  0  0  0  0  0
    8.2962  -12.7772   18.9956 C   0  0  0  0  0  0  0  0  0  0  0  0
    8.7930  -14.1234   19.5503 C   0  0  0  0  0  0  0  0  0  0  0  0
    8.0525  -14.4089   20.7888 C   0  0  0  0  0  0  0  0  0  0  0  0
    8.3782  -15.6914   21.5141 C   0  0  2  0  0  0  0  0  0  0  0  0
    7.6772  -15.7305   22.7546 N   0  0  0  0  0  0  0  0  0  0  0  0
    9.7564  -16.1155   21.4369 C   0  0  0  0  0  0  0  0  0  0  0  0
   10.5768  -15.7072   22.3409 O   0  0  0  0  0  0  0  0  0  0  0  0
   10.4164  -16.8972   20.5512 O   0  0  0  0  0  0  0  0  0  0  0  0
  2  1  1  0
  3  2  1  0
  4  5  1  0
  4  3  1  0
  5  6  1  6
  7  8  2  0
  7  5  1  0
 10  9  1  0
 11 10  1  0
 11 12  1  0
 13 12  1  1
 13 14  1  0
 14  7  1  0
 15 25  1  0
 15 13  1  0
 16 15  2  0
 17 18  1  0
 18 20  1  0
 19 18  2  0
 20 21  1  0
 21 22  1  0
 22 23  1  0
 24 23  1  1
 24 25  1  0
 24 26  1  0
 26 28  1  0
 27 26  2  0
M  END
$$$$
