MMR.pdb
     RDKit          3D

 28 27  0  0  1  0  0  0  0  0999 V2000
    4.3647  -18.9403   21.8326 C   0  0  0  0  0  0  0  0  0  0  0  0
    5.3961  -19.1856   20.3438 S   0  0  0  0  0  0  0  0  0  0  0  0
    6.8017  -18.0608   20.4523 C   0  0  0  0  0  0  0  0  0  0  0  0
    6.3699  -16.7144   19.9606 C   0  0  0  0  0  0  0  0  0  0  0  0
    7.4715  -15.7061   20.0532 C   0  0  2  0  0  0  0  0  0  0  0  0
    8.5319  -15.9226   19.1220 N   0  0  0  0  0  0  0  0  0  0  0  0
    7.8903  -15.3694   21.4238 C   0  0  0  0  0  0  0  0  0  0  0  0
    9.0558  -15.7267   21.8149 O   0  0  0  0  0  0  0  0  0  0  0  0
    7.2108  -11.6169   28.3997 C   0  0  0  0  0  0  0  0  0  0  0  0
    6.3851  -12.0486   26.8320 S   0  0  0  0  0  0  0  0  0  0  0  0
    7.5161  -13.1754   25.9209 C   0  0  0  0  0  0  0  0  0  0  0  0
    6.9098  -13.4677   24.5632 C   0  0  0  0  0  0  0  0  0  0  0  0
    7.6395  -14.3982   23.7124 C   0  0  2  0  0  0  0  0  0  0  0  0
    7.1097  -14.6630   22.3913 N   0  0  0  0  0  0  0  0  0  0  0  0
    8.1325  -15.6524   24.3833 C   0  0  0  0  0  0  0  0  0  0  0  0
    7.3495  -16.5946   24.4745 O   0  0  0  0  0  0  0  0  0  0  0  0
   13.9681  -20.2951   22.4541 N   0  0  0  0  0  0  0  0  0  0  0  0
   12.8105  -19.7037   21.8339 C   0  0  0  0  0  0  0  0  0  0  0  0
   12.9349  -19.4178   20.5522 N   0  0  0  0  0  0  0  0  0  0  0  0
   11.6217  -19.4320   22.5211 N   0  0  0  0  0  0  0  0  0  0  0  0
   11.5105  -19.6878   23.9536 C   0  0  0  0  0  0  0  0  0  0  0  0
   12.0163  -18.4897   24.7755 C   0  0  0  0  0  0  0  0  0  0  0  0
   11.1914  -17.3205   24.4346 C   0  0  0  0  0  0  0  0  0  0  0  0
   10.1251  -16.9104   25.4203 C   0  0  2  0  0  0  0  0  0  0  0  0
    9.4070  -15.7900   24.9094 N   0  0  0  0  0  0  0  0  0  0  0  0
   10.5121  -16.9613   26.8106 C   0  0  0  0  0  0  0  0  0  0  0  0
   10.9457  -15.8851   27.3678 O   0  0  0  0  0  0  0  0  0  0  0  0
   10.5250  -17.9706   27.7119 O   0  0  0  0  0  0  0  0  0  0  0  0
  2  1  1  0
  3  2  1  0
  4  5  1  0
  4  3  1  0
  5  6  1  6
  7  8  2  0
  7  5  1  0
 10  9  1  0
 11 10  1  0
 11 12  1  0
 13 12  1  1
 13 14  1  0
 14  7  1  0
 15 25  1  0
 15 13  1  0
 16 15  2  0
 17 18  1  0
 18 20  1  0
 19 18  2  0
 20 21  1  0
 21 22  1  0
 22 23  1  0
 24 23  1  6
 24 25  1  0
 24 26  1  0
 26 28  1  0
 27 26  2  0
M  END
$$$$
