KMY.pdb
     RDKit          3D

 30 30  0  0  1  0  0  0  0  0999 V2000
   17.2270  -13.7987   11.7718 N   0  0  0  0  0  0  0  0  0  0  0  0
   16.7255  -14.0723   10.4881 C   0  0  1  0  0  0  0  0  0  0  0  0
   16.3098  -12.9306    9.6266 C   0  0  0  0  0  0  0  0  0  0  0  0
   15.1400  -12.1353   10.0386 C   0  0  0  0  0  0  0  0  0  0  0  0
   14.7340  -10.9745    9.2046 C   0  0  0  0  0  0  0  0  0  0  0  0
   13.5564  -10.2144    9.7426 C   0  0  0  0  0  0  0  0  0  0  0  0
   13.2298   -9.0198    9.0512 N   0  0  0  0  0  0  0  0  0  0  0  0
   17.6526  -14.9652    9.7252 C   0  0  0  0  0  0  0  0  0  0  0  0
   17.3849  -15.2634    8.5202 O   0  0  0  0  0  0  0  0  0  0  0  0
   24.4496  -16.9327   10.7706 C   0  0  0  0  0  0  0  0  0  0  0  0
   23.8593  -16.0555    9.3028 S   0  0  0  0  0  0  0  0  0  0  0  0
   22.1602  -16.6400    8.9437 C   0  0  0  0  0  0  0  0  0  0  0  0
   21.1484  -15.8120    9.6708 C   0  0  0  0  0  0  0  0  0  0  0  0
   19.7645  -16.3010    9.4369 C   0  0  2  0  0  0  0  0  0  0  0  0
   18.8234  -15.5120   10.2547 N   0  0  0  0  0  0  0  0  0  0  0  0
   19.6036  -17.6948    9.8870 C   0  0  0  0  0  0  0  0  0  0  0  0
   19.5490  -17.9895   11.1359 O   0  0  0  0  0  0  0  0  0  0  0  0
   16.9983  -24.9445   12.7907 O   0  0  0  0  0  0  0  0  0  0  0  0
   17.2245  -23.7417   12.1500 C   0  0  0  0  0  0  0  0  0  0  0  0
   18.3868  -23.0630   12.4594 C   0  0  0  0  0  0  0  0  0  0  0  0
   18.6269  -21.8785   11.8397 C   0  0  0  0  0  0  0  0  0  0  0  0
   17.7202  -21.3717   10.9201 C   0  0  0  0  0  0  0  0  0  0  0  0
   18.0203  -20.0880   10.2950 C   0  0  0  0  0  0  0  0  0  0  0  0
   19.3462  -20.1329    9.5219 C   0  0  2  0  0  0  0  0  0  0  0  0
   19.4924  -18.7839    8.9917 N   0  0  0  0  0  0  0  0  0  0  0  0
   19.2640  -21.1582    8.4783 C   0  0  0  0  0  0  0  0  0  0  0  0
   18.8085  -20.9433    7.3422 O   0  0  0  0  0  0  0  0  0  0  0  0
   16.5665  -22.0489   10.6155 C   0  0  0  0  0  0  0  0  0  0  0  0
   16.3263  -23.2473   11.2441 C   0  0  0  0  0  0  0  0  0  0  0  0
   19.7118  -22.4406    8.7501 O   0  0  0  0  0  0  0  0  0  0  0  0
  2  3  1  0
  2  1  1  1
  4  3  1  0
  4  5  1  0
  5  6  1  0
  6  7  1  0
  8  2  1  0
  9  8  2  0
 10 11  1  0
 12 13  1  0
 12 11  1  0
 14 13  1  1
 14 15  1  0
 15  8  1  0
 16 17  2  0
 16 14  1  0
 19 18  1  0
 20 19  2  0
 21 20  1  0
 22 21  2  0
 22 28  1  0
 24 23  1  6
 23 22  1  0
 24 25  1  0
 25 16  1  0
 26 24  1  0
 27 26  2  0
 28 29  2  0
 29 19  1  0
 30 26  1  0
M  END
$$$$
