KMY.pdb
     RDKit          3D

 30 30  0  0  1  0  0  0  0  0999 V2000
   27.3030  -23.2641  -16.1720 N   0  0  0  0  0  0  0  0  0  0  0  0
   27.0523  -21.9660  -15.6961 C   0  0  1  0  0  0  0  0  0  0  0  0
   26.4854  -20.9590  -16.6357 C   0  0  0  0  0  0  0  0  0  0  0  0
   27.2480  -20.6340  -17.8537 C   0  0  0  0  0  0  0  0  0  0  0  0
   28.7304  -20.7287  -17.8168 C   0  0  0  0  0  0  0  0  0  0  0  0
   29.4039  -20.3107  -19.0916 C   0  0  0  0  0  0  0  0  0  0  0  0
   30.0372  -19.0419  -19.0631 N   0  0  0  0  0  0  0  0  0  0  0  0
   26.2358  -21.9987  -14.4428 C   0  0  0  0  0  0  0  0  0  0  0  0
   25.1805  -22.7039  -14.4008 O   0  0  0  0  0  0  0  0  0  0  0  0
   25.4770  -19.9489   -6.8493 C   0  0  0  0  0  0  0  0  0  0  0  0
   26.5144  -19.8647   -8.3289 S   0  0  0  0  0  0  0  0  0  0  0  0
   25.5837  -20.6250   -9.7121 C   0  0  0  0  0  0  0  0  0  0  0  0
   26.3971  -20.6178  -10.9676 C   0  0  0  0  0  0  0  0  0  0  0  0
   25.7121  -21.3375  -12.0729 C   0  0  2  0  0  0  0  0  0  0  0  0
   26.5556  -21.2904  -13.2826 N   0  0  0  0  0  0  0  0  0  0  0  0
   24.4510  -20.6733  -12.4467 C   0  0  0  0  0  0  0  0  0  0  0  0
   24.4367  -19.6828  -13.2642 O   0  0  0  0  0  0  0  0  0  0  0  0
   17.3689  -19.4033  -16.6357 O   0  0  0  0  0  0  0  0  0  0  0  0
   18.5337  -19.7506  -15.9792 C   0  0  0  0  0  0  0  0  0  0  0  0
   18.7019  -21.0782  -15.6382 C   0  0  0  0  0  0  0  0  0  0  0  0
   19.8408  -21.4393  -14.9922 C   0  0  0  0  0  0  0  0  0  0  0  0
   20.8052  -20.4897  -14.6873 C   0  0  0  0  0  0  0  0  0  0  0  0
   22.0028  -20.9294  -13.9792 C   0  0  0  0  0  0  0  0  0  0  0  0
   21.9795  -20.4947  -12.5068 C   0  0  2  0  0  0  0  0  0  0  0  0
   23.1914  -21.0776  -11.9467 N   0  0  0  0  0  0  0  0  0  0  0  0
   20.7542  -20.9906  -11.8746 C   0  0  0  0  0  0  0  0  0  0  0  0
   20.6253  -22.1508  -11.4483 O   0  0  0  0  0  0  0  0  0  0  0  0
   20.6343  -19.1717  -15.0277 C   0  0  0  0  0  0  0  0  0  0  0  0
   19.4808  -18.8093  -15.6814 C   0  0  0  0  0  0  0  0  0  0  0  0
   19.6706  -20.1391  -11.7340 O   0  0  0  0  0  0  0  0  0  0  0  0
  2  3  1  0
  2  1  1  6
  4  3  1  0
  4  5  1  0
  5  6  1  0
  6  7  1  0
  8  2  1  0
  9  8  2  0
 10 11  1  0
 12 13  1  0
 12 11  1  0
 14 13  1  1
 14 15  1  0
 15  8  1  0
 16 17  2  0
 16 14  1  0
 19 18  1  0
 20 19  2  0
 21 20  1  0
 22 21  2  0
 22 28  1  0
 24 23  1  6
 23 22  1  0
 24 25  1  0
 25 16  1  0
 26 24  1  0
 27 26  2  0
 28 29  2  0
 29 19  1  0
 30 26  1  0
M  END
$$$$
