KMY.pdb
     RDKit          3D

 30 30  0  0  1  0  0  0  0  0999 V2000
   28.5325  -21.4804  -15.1396 N   0  0  0  0  0  0  0  0  0  0  0  0
   27.9613  -20.4630  -14.3566 C   0  0  1  0  0  0  0  0  0  0  0  0
   27.4211  -19.2552  -15.0405 C   0  0  0  0  0  0  0  0  0  0  0  0
   28.2247  -18.6420  -16.1123 C   0  0  0  0  0  0  0  0  0  0  0  0
   27.7336  -17.3930  -16.7499 C   0  0  0  0  0  0  0  0  0  0  0  0
   28.6513  -16.8386  -17.8008 C   0  0  0  0  0  0  0  0  0  0  0  0
   28.1695  -15.7009  -18.4973 N   0  0  0  0  0  0  0  0  0  0  0  0
   26.9304  -21.0145  -13.4230 C   0  0  0  0  0  0  0  0  0  0  0  0
   26.2028  -21.9861  -13.7963 O   0  0  0  0  0  0  0  0  0  0  0  0
   26.1086  -19.4189   -7.1821 C   0  0  0  0  0  0  0  0  0  0  0  0
   27.3885  -20.6416   -7.5554 S   0  0  0  0  0  0  0  0  0  0  0  0
   27.1601  -21.1828   -9.2911 C   0  0  0  0  0  0  0  0  0  0  0  0
   25.8943  -20.6242   -9.8599 C   0  0  0  0  0  0  0  0  0  0  0  0
   25.6621  -21.0901  -11.2520 C   0  0  2  0  0  0  0  0  0  0  0  0
   26.7009  -20.5261  -12.1351 N   0  0  0  0  0  0  0  0  0  0  0  0
   24.3816  -20.5880  -11.7804 C   0  0  0  0  0  0  0  0  0  0  0  0
   24.2178  -19.3452  -12.0603 O   0  0  0  0  0  0  0  0  0  0  0  0
   24.4356  -19.1756  -18.0409 O   0  0  0  0  0  0  0  0  0  0  0  0
   23.7486  -19.7269  -16.9768 C   0  0  0  0  0  0  0  0  0  0  0  0
   23.9472  -21.0683  -16.7157 C   0  0  0  0  0  0  0  0  0  0  0  0
   23.2804  -21.6286  -15.6734 C   0  0  0  0  0  0  0  0  0  0  0  0
   22.4231  -20.8629  -14.8964 C   0  0  0  0  0  0  0  0  0  0  0  0
   21.7207  -21.5186  -13.7984 C   0  0  0  0  0  0  0  0  0  0  0  0
   22.0091  -20.8336  -12.4548 C   0  0  2  0  0  0  0  0  0  0  0  0
   23.2670  -21.4252  -12.0190 N   0  0  0  0  0  0  0  0  0  0  0  0
   20.8997  -21.0899  -11.5325 C   0  0  0  0  0  0  0  0  0  0  0  0
   21.0124  -21.7708  -10.4990 O   0  0  0  0  0  0  0  0  0  0  0  0
   22.2284  -19.5305  -15.1591 C   0  0  0  0  0  0  0  0  0  0  0  0
   22.9046  -18.9664  -16.2145 C   0  0  0  0  0  0  0  0  0  0  0  0
   19.6517  -20.5550  -11.8068 O   0  0  0  0  0  0  0  0  0  0  0  0
  2  3  1  0
  2  1  1  6
  4  3  1  0
  4  5  1  0
  5  6  1  0
  6  7  1  0
  8  2  1  0
  9  8  2  0
 10 11  1  0
 12 13  1  0
 12 11  1  0
 14 13  1  1
 14 15  1  0
 15  8  1  0
 16 17  2  0
 16 14  1  0
 19 18  1  0
 20 19  2  0
 21 20  1  0
 22 21  2  0
 22 28  1  0
 24 23  1  6
 23 22  1  0
 24 25  1  0
 25 16  1  0
 26 24  1  0
 27 26  2  0
 28 29  2  0
 29 19  1  0
 30 26  1  0
M  END
$$$$
