KMY.pdb
     RDKit          3D

 30 30  0  0  1  0  0  0  0  0999 V2000
   22.8947  -14.2892  -18.6504 N   0  0  0  0  0  0  0  0  0  0  0  0
   22.1761  -14.2839  -17.4430 C   0  0  1  0  0  0  0  0  0  0  0  0
   22.0605  -15.5556  -16.6763 C   0  0  0  0  0  0  0  0  0  0  0  0
   21.6462  -16.7709  -17.3989 C   0  0  0  0  0  0  0  0  0  0  0  0
   20.4309  -16.7171  -18.2521 C   0  0  0  0  0  0  0  0  0  0  0  0
   20.0945  -18.0170  -18.9235 C   0  0  0  0  0  0  0  0  0  0  0  0
   19.8669  -19.1150  -18.0550 N   0  0  0  0  0  0  0  0  0  0  0  0
   22.6515  -13.1927  -16.5364 C   0  0  0  0  0  0  0  0  0  0  0  0
   22.2028  -13.1234  -15.3505 O   0  0  0  0  0  0  0  0  0  0  0  0
   29.0224  -13.1719  -15.5038 C   0  0  0  0  0  0  0  0  0  0  0  0
   28.0833  -11.7367  -16.0789 S   0  0  0  0  0  0  0  0  0  0  0  0
   26.3092  -12.0578  -15.7519 C   0  0  0  0  0  0  0  0  0  0  0  0
   25.4701  -10.8983  -16.1869 C   0  0  0  0  0  0  0  0  0  0  0  0
   24.0212  -11.1574  -15.9803 C   0  0  2  0  0  0  0  0  0  0  0  0
   23.5775  -12.2157  -16.9078 N   0  0  0  0  0  0  0  0  0  0  0  0
   23.2102   -9.9741  -16.3168 C   0  0  0  0  0  0  0  0  0  0  0  0
   22.8752   -9.7193  -17.5303 O   0  0  0  0  0  0  0  0  0  0  0  0
   16.4616   -5.2879  -17.6295 O   0  0  0  0  0  0  0  0  0  0  0  0
   17.5150   -6.1233  -17.3119 C   0  0  0  0  0  0  0  0  0  0  0  0
   17.2144   -7.3242  -16.6998 C   0  0  0  0  0  0  0  0  0  0  0  0
   18.2367   -8.1591  -16.3797 C   0  0  0  0  0  0  0  0  0  0  0  0
   19.5473   -7.8046  -16.6652 C   0  0  0  0  0  0  0  0  0  0  0  0
   20.6080   -8.7320  -16.2864 C   0  0  0  0  0  0  0  0  0  0  0  0
   21.8383   -7.9910  -15.7433 C   0  0  2  0  0  0  0  0  0  0  0  0
   22.7464   -9.0580  -15.3443 N   0  0  0  0  0  0  0  0  0  0  0  0
   21.4326   -7.1306  -14.6287 C   0  0  0  0  0  0  0  0  0  0  0  0
   21.2454   -7.5495  -13.4737 O   0  0  0  0  0  0  0  0  0  0  0  0
   19.8419   -6.6106  -17.2733 C   0  0  0  0  0  0  0  0  0  0  0  0
   18.8052   -5.7678  -17.5961 C   0  0  0  0  0  0  0  0  0  0  0  0
   21.2424   -5.7766  -14.8510 O   0  0  0  0  0  0  0  0  0  0  0  0
  2  3  1  0
  2  1  1  6
  4  3  1  0
  4  5  1  0
  5  6  1  0
  6  7  1  0
  8  2  1  0
  9  8  2  0
 10 11  1  0
 12 13  1  0
 12 11  1  0
 14 13  1  6
 14 15  1  0
 15  8  1  0
 16 17  2  0
 16 14  1  0
 19 18  1  0
 20 19  2  0
 21 20  1  0
 22 21  2  0
 22 28  1  0
 24 23  1  1
 23 22  1  0
 24 25  1  0
 25 16  1  0
 26 24  1  0
 27 26  2  0
 28 29  2  0
 29 19  1  0
 30 26  1  0
M  END
$$$$
