KMY.pdb
     RDKit          3D

 30 30  0  0  1  0  0  0  0  0999 V2000
   28.2329  -18.6173  -14.3782 N   0  0  0  0  0  0  0  0  0  0  0  0
   27.1990  -19.3917  -14.9311 C   0  0  1  0  0  0  0  0  0  0  0  0
   27.4380  -20.0754  -16.2326 C   0  0  0  0  0  0  0  0  0  0  0  0
   28.8198  -20.1504  -16.7381 C   0  0  0  0  0  0  0  0  0  0  0  0
   29.1881  -19.3523  -17.9361 C   0  0  0  0  0  0  0  0  0  0  0  0
   30.6573  -19.3504  -18.2443 C   0  0  0  0  0  0  0  0  0  0  0  0
   31.0626  -18.4870  -19.2940 N   0  0  0  0  0  0  0  0  0  0  0  0
   26.6709  -20.3765  -13.9363 C   0  0  0  0  0  0  0  0  0  0  0  0
   25.7808  -21.2098  -14.2914 O   0  0  0  0  0  0  0  0  0  0  0  0
   26.8080  -19.3227   -6.7359 C   0  0  0  0  0  0  0  0  0  0  0  0
   26.9966  -20.8029   -7.7587 S   0  0  0  0  0  0  0  0  0  0  0  0
   27.1792  -20.2634   -9.5003 C   0  0  0  0  0  0  0  0  0  0  0  0
   27.2856  -21.4432  -10.4139 C   0  0  0  0  0  0  0  0  0  0  0  0
   26.4144  -21.2960  -11.6089 C   0  0  2  0  0  0  0  0  0  0  0  0
   27.0946  -20.4494  -12.6077 N   0  0  0  0  0  0  0  0  0  0  0  0
   25.1647  -20.5883  -11.2792 C   0  0  0  0  0  0  0  0  0  0  0  0
   25.1395  -19.3120  -11.1370 O   0  0  0  0  0  0  0  0  0  0  0  0
   20.6598  -23.2633  -16.1201 O   0  0  0  0  0  0  0  0  0  0  0  0
   21.0826  -22.3847  -15.1415 C   0  0  0  0  0  0  0  0  0  0  0  0
   22.4218  -22.0478  -15.1224 C   0  0  0  0  0  0  0  0  0  0  0  0
   22.8566  -21.1852  -14.1676 C   0  0  0  0  0  0  0  0  0  0  0  0
   21.9689  -20.6611  -13.2391 C   0  0  0  0  0  0  0  0  0  0  0  0
   22.4921  -19.7507  -12.2261 C   0  0  0  0  0  0  0  0  0  0  0  0
   22.7202  -20.4670  -10.8872 C   0  0  2  0  0  0  0  0  0  0  0  0
   23.9277  -21.2518  -11.1072 N   0  0  0  0  0  0  0  0  0  0  0  0
   21.5478  -21.2868  -10.5705 C   0  0  0  0  0  0  0  0  0  0  0  0
   20.4180  -20.8133  -10.3611 O   0  0  0  0  0  0  0  0  0  0  0  0
   20.6392  -20.9984  -13.2614 C   0  0  0  0  0  0  0  0  0  0  0  0
   20.2021  -21.8715  -14.2288 C   0  0  0  0  0  0  0  0  0  0  0  0
   21.6825  -22.6635  -10.4956 O   0  0  0  0  0  0  0  0  0  0  0  0
  2  3  1  0
  2  1  1  1
  4  3  1  0
  4  5  1  0
  5  6  1  0
  6  7  1  0
  8  2  1  0
  9  8  2  0
 10 11  1  0
 12 13  1  0
 12 11  1  0
 14 13  1  1
 14 15  1  0
 15  8  1  0
 16 17  2  0
 16 14  1  0
 19 18  1  0
 20 19  2  0
 21 20  1  0
 22 21  2  0
 22 28  1  0
 24 23  1  6
 23 22  1  0
 24 25  1  0
 25 16  1  0
 26 24  1  0
 27 26  2  0
 28 29  2  0
 29 19  1  0
 30 26  1  0
M  END
$$$$
