KMY.pdb
     RDKit          3D

 30 30  0  0  1  0  0  0  0  0999 V2000
   28.4056  -20.2313  -18.1718 N   0  0  0  0  0  0  0  0  0  0  0  0
   27.7064  -19.6170  -17.1191 C   0  0  1  0  0  0  0  0  0  0  0  0
   26.3542  -19.0558  -17.3929 C   0  0  0  0  0  0  0  0  0  0  0  0
   26.2349  -17.9773  -18.3895 C   0  0  0  0  0  0  0  0  0  0  0  0
   24.9063  -17.3494  -18.6092 C   0  0  0  0  0  0  0  0  0  0  0  0
   24.8545  -16.4185  -19.7857 C   0  0  0  0  0  0  0  0  0  0  0  0
   23.6347  -15.7157  -19.9585 N   0  0  0  0  0  0  0  0  0  0  0  0
   27.6466  -20.5078  -15.9185 C   0  0  0  0  0  0  0  0  0  0  0  0
   27.6973  -21.7676  -16.0698 O   0  0  0  0  0  0  0  0  0  0  0  0
   31.4805  -22.3574   -9.7689 C   0  0  0  0  0  0  0  0  0  0  0  0
   31.2310  -21.3972  -11.2816 S   0  0  0  0  0  0  0  0  0  0  0  0
   29.4816  -21.5939  -11.7904 C   0  0  0  0  0  0  0  0  0  0  0  0
   29.2042  -20.8303  -13.0465 C   0  0  0  0  0  0  0  0  0  0  0  0
   27.7734  -20.9157  -13.4395 C   0  0  2  0  0  0  0  0  0  0  0  0
   27.5348  -20.0443  -14.6059 N   0  0  0  0  0  0  0  0  0  0  0  0
   26.8924  -20.4004  -12.3768 C   0  0  0  0  0  0  0  0  0  0  0  0
   26.8253  -19.1442  -12.1179 O   0  0  0  0  0  0  0  0  0  0  0  0
   21.3962  -18.8183  -15.0186 O   0  0  0  0  0  0  0  0  0  0  0  0
   22.0280  -19.4379  -13.9578 C   0  0  0  0  0  0  0  0  0  0  0  0
   21.8582  -18.8855  -12.7036 C   0  0  0  0  0  0  0  0  0  0  0  0
   22.4716  -19.4806  -11.6479 C   0  0  0  0  0  0  0  0  0  0  0  0
   23.2474  -20.6153  -11.8360 C   0  0  0  0  0  0  0  0  0  0  0  0
   23.8958  -21.2055  -10.6698 C   0  0  0  0  0  0  0  0  0  0  0  0
   25.3189  -20.6613  -10.4794 C   0  0  2  0  0  0  0  0  0  0  0  0
   26.0689  -21.2368  -11.5878 N   0  0  0  0  0  0  0  0  0  0  0  0
   25.8227  -21.0714   -9.1660 C   0  0  0  0  0  0  0  0  0  0  0  0
   26.7253  -21.9116   -9.0111 O   0  0  0  0  0  0  0  0  0  0  0  0
   23.4137  -21.1611  -13.0837 C   0  0  0  0  0  0  0  0  0  0  0  0
   22.7917  -20.5567  -14.1501 C   0  0  0  0  0  0  0  0  0  0  0  0
   25.2795  -20.5061   -8.0240 O   0  0  0  0  0  0  0  0  0  0  0  0
  2  3  1  0
  2  1  1  6
  4  3  1  0
  4  5  1  0
  5  6  1  0
  6  7  1  0
  8  2  1  0
  9  8  2  0
 10 11  1  0
 12 13  1  0
 12 11  1  0
 14 13  1  1
 14 15  1  0
 15  8  1  0
 16 17  2  0
 16 14  1  0
 19 18  1  0
 20 19  2  0
 21 20  1  0
 22 21  2  0
 22 28  1  0
 24 23  1  6
 23 22  1  0
 24 25  1  0
 25 16  1  0
 26 24  1  0
 27 26  2  0
 28 29  2  0
 29 19  1  0
 30 26  1  0
M  END
$$$$
