KMY.pdb
     RDKit          3D

 30 30  0  0  1  0  0  0  0  0999 V2000
   22.0707  -14.2158  -19.8121 N   0  0  0  0  0  0  0  0  0  0  0  0
   21.3639  -14.4381  -18.6183 C   0  0  1  0  0  0  0  0  0  0  0  0
   21.1685  -15.8403  -18.1557 C   0  0  0  0  0  0  0  0  0  0  0  0
   20.6326  -16.8229  -19.1138 C   0  0  0  0  0  0  0  0  0  0  0  0
   21.1551  -18.2135  -19.0805 C   0  0  0  0  0  0  0  0  0  0  0  0
   20.7184  -19.0609  -20.2402 C   0  0  0  0  0  0  0  0  0  0  0  0
   21.2989  -20.3533  -20.3082 N   0  0  0  0  0  0  0  0  0  0  0  0
   21.9196  -13.6135  -17.5003 C   0  0  0  0  0  0  0  0  0  0  0  0
   21.4332  -13.7314  -16.3331 O   0  0  0  0  0  0  0  0  0  0  0  0
   28.1477  -14.6007  -15.8884 C   0  0  0  0  0  0  0  0  0  0  0  0
   27.4491  -13.0009  -16.3629 S   0  0  0  0  0  0  0  0  0  0  0  0
   25.6331  -13.0904  -16.1348 C   0  0  0  0  0  0  0  0  0  0  0  0
   24.9739  -11.8389  -16.6215 C   0  0  0  0  0  0  0  0  0  0  0  0
   23.4936  -11.9173  -16.5139 C   0  0  2  0  0  0  0  0  0  0  0  0
   22.9623  -12.6965  -17.6485 N   0  0  0  0  0  0  0  0  0  0  0  0
   22.8751  -10.5847  -16.6280 C   0  0  0  0  0  0  0  0  0  0  0  0
   22.7608   -9.9985  -17.7650 O   0  0  0  0  0  0  0  0  0  0  0  0
   18.1443   -3.9267  -17.8682 O   0  0  0  0  0  0  0  0  0  0  0  0
   18.7513   -5.1279  -17.5566 C   0  0  0  0  0  0  0  0  0  0  0  0
   19.9818   -5.3875  -18.1271 C   0  0  0  0  0  0  0  0  0  0  0  0
   20.5945   -6.5634  -17.8328 C   0  0  0  0  0  0  0  0  0  0  0  0
   19.9902   -7.4745  -16.9788 C   0  0  0  0  0  0  0  0  0  0  0  0
   20.6852   -8.7285  -16.7085 C   0  0  0  0  0  0  0  0  0  0  0  0
   21.8322   -8.5336  -15.7065 C   0  0  2  0  0  0  0  0  0  0  0  0
   22.3666   -9.8753  -15.5152 N   0  0  0  0  0  0  0  0  0  0  0  0
   21.3040   -7.9410  -14.4749 C   0  0  0  0  0  0  0  0  0  0  0  0
   20.9892   -8.6081  -13.4747 O   0  0  0  0  0  0  0  0  0  0  0  0
   18.7675   -7.2130  -16.4140 C   0  0  0  0  0  0  0  0  0  0  0  0
   18.1500   -6.0222  -16.7137 C   0  0  0  0  0  0  0  0  0  0  0  0
   21.1388   -6.5677  -14.3991 O   0  0  0  0  0  0  0  0  0  0  0  0
  2  3  1  0
  2  1  1  6
  4  3  1  0
  4  5  1  0
  5  6  1  0
  6  7  1  0
  8  2  1  0
  9  8  2  0
 10 11  1  0
 12 13  1  0
 12 11  1  0
 14 13  1  6
 14 15  1  0
 15  8  1  0
 16 17  2  0
 16 14  1  0
 19 18  1  0
 20 19  2  0
 21 20  1  0
 22 21  2  0
 22 28  1  0
 24 23  1  6
 23 22  1  0
 24 25  1  0
 25 16  1  0
 26 24  1  0
 27 26  2  0
 28 29  2  0
 29 19  1  0
 30 26  1  0
M  END
$$$$
