KMY.pdb
     RDKit          3D

 30 30  0  0  1  0  0  0  0  0999 V2000
   27.8743  -22.2333  -15.0726 N   0  0  0  0  0  0  0  0  0  0  0  0
   27.5348  -21.0552  -14.3862 C   0  0  1  0  0  0  0  0  0  0  0  0
   27.0765  -19.8775  -15.1744 C   0  0  0  0  0  0  0  0  0  0  0  0
   27.9787  -19.3328  -16.2039 C   0  0  0  0  0  0  0  0  0  0  0  0
   28.2115  -20.1213  -17.4416 C   0  0  0  0  0  0  0  0  0  0  0  0
   29.0863  -19.4355  -18.4506 C   0  0  0  0  0  0  0  0  0  0  0  0
   28.5508  -18.2539  -19.0241 N   0  0  0  0  0  0  0  0  0  0  0  0
   26.5597  -21.3333  -13.2860 C   0  0  0  0  0  0  0  0  0  0  0  0
   25.7145  -22.2714  -13.4203 O   0  0  0  0  0  0  0  0  0  0  0  0
   28.7753  -20.0397   -6.9154 C   0  0  0  0  0  0  0  0  0  0  0  0
   27.2409  -19.4561   -7.6752 S   0  0  0  0  0  0  0  0  0  0  0  0
   26.9409  -20.4595   -9.1789 C   0  0  0  0  0  0  0  0  0  0  0  0
   25.7132  -19.9915   -9.8941 C   0  0  0  0  0  0  0  0  0  0  0  0
   25.4298  -20.8134  -11.0995 C   0  0  2  0  0  0  0  0  0  0  0  0
   26.5070  -20.6170  -12.0885 N   0  0  0  0  0  0  0  0  0  0  0  0
   24.1942  -20.3740  -11.7714 C   0  0  0  0  0  0  0  0  0  0  0  0
   24.2306  -19.5792  -12.7796 O   0  0  0  0  0  0  0  0  0  0  0  0
   17.5739  -20.0346  -16.8033 O   0  0  0  0  0  0  0  0  0  0  0  0
   18.6795  -20.2351  -15.9997 C   0  0  0  0  0  0  0  0  0  0  0  0
   18.7300  -21.4028  -15.2642 C   0  0  0  0  0  0  0  0  0  0  0  0
   19.8092  -21.6180  -14.4681 C   0  0  0  0  0  0  0  0  0  0  0  0
   20.8303  -20.6810  -14.4026 C   0  0  0  0  0  0  0  0  0  0  0  0
   21.9592  -20.9555  -13.5200 C   0  0  0  0  0  0  0  0  0  0  0  0
   21.7405  -20.3596  -12.1219 C   0  0  2  0  0  0  0  0  0  0  0  0
   22.9067  -20.7952  -11.3653 N   0  0  0  0  0  0  0  0  0  0  0  0
   20.4766  -20.8597  -11.5745 C   0  0  0  0  0  0  0  0  0  0  0  0
   19.3678  -20.3784  -11.8631 O   0  0  0  0  0  0  0  0  0  0  0  0
   20.7764  -19.5220  -15.1348 C   0  0  0  0  0  0  0  0  0  0  0  0
   19.6831  -19.3072  -15.9396 C   0  0  0  0  0  0  0  0  0  0  0  0
   20.4949  -21.9236  -10.6875 O   0  0  0  0  0  0  0  0  0  0  0  0
  2  3  1  0
  2  1  1  6
  4  3  1  0
  4  5  1  0
  5  6  1  0
  6  7  1  0
  8  2  1  0
  9  8  2  0
 10 11  1  0
 12 13  1  0
 12 11  1  0
 14 13  1  1
 14 15  1  0
 15  8  1  0
 16 17  2  0
 16 14  1  0
 19 18  1  0
 20 19  2  0
 21 20  1  0
 22 21  2  0
 22 28  1  0
 24 23  1  6
 23 22  1  0
 24 25  1  0
 25 16  1  0
 26 24  1  0
 27 26  2  0
 28 29  2  0
 29 19  1  0
 30 26  1  0
M  END
$$$$
