KMY.pdb
     RDKit          3D

 30 30  0  0  1  0  0  0  0  0999 V2000
   25.0015  -19.9538  -18.9866 N   0  0  0  0  0  0  0  0  0  0  0  0
   25.7808  -21.1228  -19.0073 C   0  0  1  0  0  0  0  0  0  0  0  0
   26.8846  -21.2265  -20.0019 C   0  0  0  0  0  0  0  0  0  0  0  0
   27.2004  -20.0425  -20.8198 C   0  0  0  0  0  0  0  0  0  0  0  0
   27.1296  -18.6982  -20.1908 C   0  0  0  0  0  0  0  0  0  0  0  0
   27.4438  -17.5661  -21.1253 C   0  0  0  0  0  0  0  0  0  0  0  0
   27.2797  -16.2638  -20.5879 N   0  0  0  0  0  0  0  0  0  0  0  0
   26.3020  -21.4486  -17.6432 C   0  0  0  0  0  0  0  0  0  0  0  0
   26.9000  -22.5517  -17.4479 O   0  0  0  0  0  0  0  0  0  0  0  0
   30.1571  -19.5860  -11.2942 C   0  0  0  0  0  0  0  0  0  0  0  0
   29.5553  -19.1226  -12.9360 S   0  0  0  0  0  0  0  0  0  0  0  0
   28.2784  -20.3399  -13.4312 C   0  0  0  0  0  0  0  0  0  0  0  0
   27.7250  -20.0103  -14.7813 C   0  0  0  0  0  0  0  0  0  0  0  0
   26.6795  -20.9798  -15.2007 C   0  0  2  0  0  0  0  0  0  0  0  0
   26.1753  -20.6067  -16.5362 N   0  0  0  0  0  0  0  0  0  0  0  0
   25.5077  -20.9261  -14.3089 C   0  0  0  0  0  0  0  0  0  0  0  0
   24.4690  -20.2353  -14.6145 O   0  0  0  0  0  0  0  0  0  0  0  0
   27.8274  -19.3348   -7.6204 O   0  0  0  0  0  0  0  0  0  0  0  0
   26.9928  -20.0587   -8.4497 C   0  0  0  0  0  0  0  0  0  0  0  0
   27.5368  -21.1387   -9.1168 C   0  0  0  0  0  0  0  0  0  0  0  0
   26.7318  -21.8628   -9.9368 C   0  0  0  0  0  0  0  0  0  0  0  0
   25.3973  -21.5176  -10.0933 C   0  0  0  0  0  0  0  0  0  0  0  0
   24.5813  -22.3205  -10.9979 C   0  0  0  0  0  0  0  0  0  0  0  0
   24.2305  -21.5479  -12.2776 C   0  0  2  0  0  0  0  0  0  0  0  0
   25.4434  -21.6246  -13.0809 N   0  0  0  0  0  0  0  0  0  0  0  0
   23.8552  -20.1754  -11.9274 C   0  0  0  0  0  0  0  0  0  0  0  0
   24.6412  -19.2146  -11.9874 O   0  0  0  0  0  0  0  0  0  0  0  0
   24.8606  -20.4439   -9.4288 C   0  0  0  0  0  0  0  0  0  0  0  0
   25.6776  -19.7130   -8.5997 C   0  0  0  0  0  0  0  0  0  0  0  0
   22.5624  -19.9121  -11.5053 O   0  0  0  0  0  0  0  0  0  0  0  0
  2  3  1  0
  2  1  1  1
  4  3  1  0
  4  5  1  0
  5  6  1  0
  6  7  1  0
  8  2  1  0
  9  8  2  0
 10 11  1  0
 12 13  1  0
 12 11  1  0
 14 13  1  1
 14 15  1  0
 15  8  1  0
 16 17  2  0
 16 14  1  0
 19 18  1  0
 20 19  2  0
 21 20  1  0
 22 21  2  0
 22 28  1  0
 24 23  1  1
 23 22  1  0
 24 25  1  0
 25 16  1  0
 26 24  1  0
 27 26  2  0
 28 29  2  0
 29 19  1  0
 30 26  1  0
M  END
$$$$
