KMY.pdb
     RDKit          3D

 30 30  0  0  1  0  0  0  0  0999 V2000
   18.7881  -28.5291  -10.2401 N   0  0  0  0  0  0  0  0  0  0  0  0
   18.0079  -27.3794  -10.0310 C   0  0  1  0  0  0  0  0  0  0  0  0
   16.5268  -27.4933  -10.1395 C   0  0  0  0  0  0  0  0  0  0  0  0
   15.8841  -27.0666  -11.3947 C   0  0  0  0  0  0  0  0  0  0  0  0
   15.1849  -25.7560  -11.4314 C   0  0  0  0  0  0  0  0  0  0  0  0
   14.4830  -25.4711  -12.7275 C   0  0  0  0  0  0  0  0  0  0  0  0
   13.6568  -24.3183  -12.7369 N   0  0  0  0  0  0  0  0  0  0  0  0
   18.3668  -26.7104   -8.7418 C   0  0  0  0  0  0  0  0  0  0  0  0
   18.7066  -27.4169   -7.7427 O   0  0  0  0  0  0  0  0  0  0  0  0
   19.7643  -20.4507   -7.6936 C   0  0  0  0  0  0  0  0  0  0  0  0
   21.1556  -21.5644   -8.0043 S   0  0  0  0  0  0  0  0  0  0  0  0
   20.6045  -23.2711   -7.6284 C   0  0  0  0  0  0  0  0  0  0  0  0
   19.1212  -23.3217   -7.4414 C   0  0  0  0  0  0  0  0  0  0  0  0
   18.6379  -24.7123   -7.2378 C   0  0  2  0  0  0  0  0  0  0  0  0
   18.3546  -25.3275   -8.5487 N   0  0  0  0  0  0  0  0  0  0  0  0
   17.3580  -24.7351   -6.5079 C   0  0  0  0  0  0  0  0  0  0  0  0
   16.2371  -24.6234   -7.1250 O   0  0  0  0  0  0  0  0  0  0  0  0
   17.4743  -30.8329   -3.4049 O   0  0  0  0  0  0  0  0  0  0  0  0
   16.9013  -29.6303   -3.7706 C   0  0  0  0  0  0  0  0  0  0  0  0
   16.8550  -29.3295   -5.1176 C   0  0  0  0  0  0  0  0  0  0  0  0
   16.2954  -28.1514   -5.4969 C   0  0  0  0  0  0  0  0  0  0  0  0
   15.7858  -27.2789   -4.5463 C   0  0  0  0  0  0  0  0  0  0  0  0
   15.2093  -26.0204   -5.0076 C   0  0  0  0  0  0  0  0  0  0  0  0
   15.9756  -24.8113   -4.4520 C   0  0  2  0  0  0  0  0  0  0  0  0
   17.2760  -24.8866   -5.1042 N   0  0  0  0  0  0  0  0  0  0  0  0
   16.0540  -24.9165   -2.9926 C   0  0  0  0  0  0  0  0  0  0  0  0
   15.0579  -24.8891   -2.2500 O   0  0  0  0  0  0  0  0  0  0  0  0
   15.8339  -27.5813   -3.2089 C   0  0  0  0  0  0  0  0  0  0  0  0
   16.4007  -28.7742   -2.8282 C   0  0  0  0  0  0  0  0  0  0  0  0
   17.2926  -25.0544   -2.3877 O   0  0  0  0  0  0  0  0  0  0  0  0
  2  3  1  0
  2  1  1  1
  4  3  1  0
  4  5  1  0
  5  6  1  0
  6  7  1  0
  8  2  1  0
  9  8  2  0
 10 11  1  0
 12 13  1  0
 12 11  1  0
 14 13  1  6
 14 15  1  0
 15  8  1  0
 16 17  2  0
 16 14  1  0
 19 18  1  0
 20 19  2  0
 21 20  1  0
 22 21  2  0
 22 28  1  0
 24 23  1  6
 23 22  1  0
 24 25  1  0
 25 16  1  0
 26 24  1  0
 27 26  2  0
 28 29  2  0
 29 19  1  0
 30 26  1  0
M  END
$$$$
