KMY.pdb
     RDKit          3D

 30 30  0  0  1  0  0  0  0  0999 V2000
   28.5590  -21.3059  -15.5737 N   0  0  0  0  0  0  0  0  0  0  0  0
   28.3132  -20.3601  -14.5639 C   0  0  1  0  0  0  0  0  0  0  0  0
   28.0538  -18.9474  -14.9579 C   0  0  0  0  0  0  0  0  0  0  0  0
   27.8620  -18.6455  -16.3871 C   0  0  0  0  0  0  0  0  0  0  0  0
   26.7624  -19.3238  -17.1208 C   0  0  0  0  0  0  0  0  0  0  0  0
   26.5994  -18.8671  -18.5416 C   0  0  0  0  0  0  0  0  0  0  0  0
   25.5834  -19.5221  -19.2836 N   0  0  0  0  0  0  0  0  0  0  0  0
   27.2369  -20.8283  -13.6360 C   0  0  0  0  0  0  0  0  0  0  0  0
   26.2833  -21.5344  -14.0883 O   0  0  0  0  0  0  0  0  0  0  0  0
   27.0598  -19.3663   -7.3871 C   0  0  0  0  0  0  0  0  0  0  0  0
   25.7711  -20.6340   -7.3187 S   0  0  0  0  0  0  0  0  0  0  0  0
   25.3725  -21.1239   -9.0388 C   0  0  0  0  0  0  0  0  0  0  0  0
   26.4005  -20.6021   -9.9920 C   0  0  0  0  0  0  0  0  0  0  0  0
   26.1234  -21.0265  -11.3891 C   0  0  2  0  0  0  0  0  0  0  0  0
   27.2007  -20.5375  -12.2707 N   0  0  0  0  0  0  0  0  0  0  0  0
   24.8861  -20.4123  -11.9022 C   0  0  0  0  0  0  0  0  0  0  0  0
   24.9046  -19.2748  -12.4982 O   0  0  0  0  0  0  0  0  0  0  0  0
   18.6064  -18.6260  -17.0728 O   0  0  0  0  0  0  0  0  0  0  0  0
   19.6377  -19.0925  -16.2808 C   0  0  0  0  0  0  0  0  0  0  0  0
   20.6612  -18.2143  -15.9838 C   0  0  0  0  0  0  0  0  0  0  0  0
   21.6842  -18.6546  -15.2063 C   0  0  0  0  0  0  0  0  0  0  0  0
   21.6909  -19.9567  -14.7275 C   0  0  0  0  0  0  0  0  0  0  0  0
   22.8215  -20.3821  -13.9092 C   0  0  0  0  0  0  0  0  0  0  0  0
   22.4615  -20.4039  -12.4167 C   0  0  2  0  0  0  0  0  0  0  0  0
   23.6170  -21.0248  -11.7831 N   0  0  0  0  0  0  0  0  0  0  0  0
   21.2220  -21.1624  -12.2284 C   0  0  0  0  0  0  0  0  0  0  0  0
   20.0955  -20.6380  -12.2059 O   0  0  0  0  0  0  0  0  0  0  0  0
   20.6722  -20.8263  -15.0249 C   0  0  0  0  0  0  0  0  0  0  0  0
   19.6384  -20.3778  -15.8118 C   0  0  0  0  0  0  0  0  0  0  0  0
   21.2854  -22.5366  -12.0653 O   0  0  0  0  0  0  0  0  0  0  0  0
  2  3  1  0
  2  1  1  6
  4  3  1  0
  4  5  1  0
  5  6  1  0
  6  7  1  0
  8  2  1  0
  9  8  2  0
 10 11  1  0
 12 13  1  0
 12 11  1  0
 14 13  1  1
 14 15  1  0
 15  8  1  0
 16 17  2  0
 16 14  1  0
 19 18  1  0
 20 19  2  0
 21 20  1  0
 22 21  2  0
 22 28  1  0
 24 23  1  6
 23 22  1  0
 24 25  1  0
 25 16  1  0
 26 24  1  0
 27 26  2  0
 28 29  2  0
 29 19  1  0
 30 26  1  0
M  END
$$$$
