KMY.pdb
     RDKit          3D

 30 30  0  0  1  0  0  0  0  0999 V2000
   28.5520  -18.8701  -15.1394 N   0  0  0  0  0  0  0  0  0  0  0  0
   28.2804  -20.0989  -15.7644 C   0  0  1  0  0  0  0  0  0  0  0  0
   29.4083  -20.8478  -16.3853 C   0  0  0  0  0  0  0  0  0  0  0  0
   29.3227  -21.1759  -17.8190 C   0  0  0  0  0  0  0  0  0  0  0  0
   30.3988  -21.9980  -18.4307 C   0  0  0  0  0  0  0  0  0  0  0  0
   31.2510  -21.2561  -19.4192 C   0  0  0  0  0  0  0  0  0  0  0  0
   32.3614  -21.9741  -19.9320 N   0  0  0  0  0  0  0  0  0  0  0  0
   27.5131  -21.0082  -14.8572 C   0  0  0  0  0  0  0  0  0  0  0  0
   28.0877  -22.0237  -14.3559 O   0  0  0  0  0  0  0  0  0  0  0  0
   26.0579  -20.6750   -7.8534 C   0  0  0  0  0  0  0  0  0  0  0  0
   26.7940  -20.1872   -9.4322 S   0  0  0  0  0  0  0  0  0  0  0  0
   25.8406  -20.9971  -10.7712 C   0  0  0  0  0  0  0  0  0  0  0  0
   26.3922  -20.6313  -12.1127 C   0  0  0  0  0  0  0  0  0  0  0  0
   25.6236  -21.2637  -13.2164 C   0  0  2  0  0  0  0  0  0  0  0  0
   26.1735  -20.8191  -14.5114 N   0  0  0  0  0  0  0  0  0  0  0  0
   24.2176  -20.8227  -13.2139 C   0  0  0  0  0  0  0  0  0  0  0  0
   23.9106  -19.5760  -13.1838 O   0  0  0  0  0  0  0  0  0  0  0  0
   15.5335  -21.0095  -13.9458 O   0  0  0  0  0  0  0  0  0  0  0  0
   16.8772  -21.3303  -13.9422 C   0  0  0  0  0  0  0  0  0  0  0  0
   17.3570  -22.0554  -12.8693 C   0  0  0  0  0  0  0  0  0  0  0  0
   18.6755  -22.3804  -12.8478 C   0  0  0  0  0  0  0  0  0  0  0  0
   19.5113  -21.9886  -13.8835 C   0  0  0  0  0  0  0  0  0  0  0  0
   20.9222  -22.3515  -13.8027 C   0  0  0  0  0  0  0  0  0  0  0  0
   21.7685  -21.2037  -13.2335 C   0  0  2  0  0  0  0  0  0  0  0  0
   23.1289  -21.7246  -13.2516 N   0  0  0  0  0  0  0  0  0  0  0  0
   21.2941  -20.8736  -11.8870 C   0  0  0  0  0  0  0  0  0  0  0  0
   20.5159  -19.9348  -11.6466 O   0  0  0  0  0  0  0  0  0  0  0  0
   19.0309  -21.2682  -14.9477 C   0  0  0  0  0  0  0  0  0  0  0  0
   17.6961  -20.9408  -14.9667 C   0  0  0  0  0  0  0  0  0  0  0  0
   21.7219  -21.6342  -10.8112 O   0  0  0  0  0  0  0  0  0  0  0  0
  2  3  1  0
  2  1  1  1
  4  3  1  0
  4  5  1  0
  5  6  1  0
  6  7  1  0
  8  2  1  0
  9  8  2  0
 10 11  1  0
 12 13  1  0
 12 11  1  0
 14 13  1  1
 14 15  1  0
 15  8  1  0
 16 17  2  0
 16 14  1  0
 19 18  1  0
 20 19  2  0
 21 20  1  0
 22 21  2  0
 22 28  1  0
 24 23  1  1
 23 22  1  0
 24 25  1  0
 25 16  1  0
 26 24  1  0
 27 26  2  0
 28 29  2  0
 29 19  1  0
 30 26  1  0
M  END
$$$$
