KMY.pdb
     RDKit          3D

 30 30  0  0  1  0  0  0  0  0999 V2000
   29.9382  -23.4745  -16.9987 N   0  0  0  0  0  0  0  0  0  0  0  0
   28.8538  -22.7175  -17.4736 C   0  0  1  0  0  0  0  0  0  0  0  0
   27.8252  -23.3935  -18.3123 C   0  0  0  0  0  0  0  0  0  0  0  0
   28.1073  -24.7545  -18.8007 C   0  0  0  0  0  0  0  0  0  0  0  0
   28.8198  -24.9174  -20.0944 C   0  0  0  0  0  0  0  0  0  0  0  0
   29.0165  -26.3462  -20.5109 C   0  0  0  0  0  0  0  0  0  0  0  0
   29.7742  -26.5413  -21.6939 N   0  0  0  0  0  0  0  0  0  0  0  0
   28.1849  -21.9749  -16.3602 C   0  0  0  0  0  0  0  0  0  0  0  0
   28.2534  -22.4272  -15.1755 O   0  0  0  0  0  0  0  0  0  0  0  0
   26.0857  -15.9205  -16.8365 C   0  0  0  0  0  0  0  0  0  0  0  0
   27.7947  -16.1038  -16.2722 S   0  0  0  0  0  0  0  0  0  0  0  0
   28.0549  -17.8626  -15.8288 C   0  0  0  0  0  0  0  0  0  0  0  0
   26.7541  -18.6006  -15.7960 C   0  0  0  0  0  0  0  0  0  0  0  0
   26.9346  -20.0191  -15.3910 C   0  0  2  0  0  0  0  0  0  0  0  0
   27.4692  -20.7881  -16.5311 N   0  0  0  0  0  0  0  0  0  0  0  0
   25.6457  -20.6518  -15.0597 C   0  0  0  0  0  0  0  0  0  0  0  0
   24.9666  -21.2848  -15.9473 O   0  0  0  0  0  0  0  0  0  0  0  0
   26.4937  -20.2653   -7.9412 O   0  0  0  0  0  0  0  0  0  0  0  0
   25.9248  -20.7876   -9.0867 C   0  0  0  0  0  0  0  0  0  0  0  0
   24.5616  -20.6366   -9.2477 C   0  0  0  0  0  0  0  0  0  0  0  0
   23.9839  -21.1435  -10.3675 C   0  0  0  0  0  0  0  0  0  0  0  0
   24.7537  -21.7952  -11.3201 C   0  0  0  0  0  0  0  0  0  0  0  0
   24.0798  -22.3336  -12.4970 C   0  0  0  0  0  0  0  0  0  0  0  0
   23.7851  -21.2365  -13.5300 C   0  0  2  0  0  0  0  0  0  0  0  0
   25.0809  -20.6133  -13.7637 N   0  0  0  0  0  0  0  0  0  0  0  0
   22.7890  -20.3113  -12.9832 C   0  0  0  0  0  0  0  0  0  0  0  0
   23.0577  -19.1544  -12.6175 O   0  0  0  0  0  0  0  0  0  0  0  0
   26.1077  -21.9433  -11.1565 C   0  0  0  0  0  0  0  0  0  0  0  0
   26.6895  -21.4292  -10.0223 C   0  0  0  0  0  0  0  0  0  0  0  0
   21.4733  -20.7265  -12.8587 O   0  0  0  0  0  0  0  0  0  0  0  0
  2  3  1  0
  2  1  1  1
  4  3  1  0
  4  5  1  0
  5  6  1  0
  6  7  1  0
  8  2  1  0
  9  8  2  0
 10 11  1  0
 12 13  1  0
 12 11  1  0
 14 13  1  6
 14 15  1  0
 15  8  1  0
 16 17  2  0
 16 14  1  0
 19 18  1  0
 20 19  2  0
 21 20  1  0
 22 21  2  0
 22 28  1  0
 24 23  1  1
 23 22  1  0
 24 25  1  0
 25 16  1  0
 26 24  1  0
 27 26  2  0
 28 29  2  0
 29 19  1  0
 30 26  1  0
M  END
$$$$
