KMY.pdb
     RDKit          3D

 30 30  0  0  1  0  0  0  0  0999 V2000
   27.5990  -19.8988  -14.3835 N   0  0  0  0  0  0  0  0  0  0  0  0
   26.7332  -21.0054  -14.3951 C   0  0  1  0  0  0  0  0  0  0  0  0
   27.1743  -22.2488  -15.0862 C   0  0  0  0  0  0  0  0  0  0  0  0
   27.9522  -22.1173  -16.3304 C   0  0  0  0  0  0  0  0  0  0  0  0
   27.6500  -20.9879  -17.2475 C   0  0  0  0  0  0  0  0  0  0  0  0
   28.4689  -20.9832  -18.5058 C   0  0  0  0  0  0  0  0  0  0  0  0
   28.1813  -19.9384  -19.4207 N   0  0  0  0  0  0  0  0  0  0  0  0
   26.2639  -21.3382  -13.0139 C   0  0  0  0  0  0  0  0  0  0  0  0
   25.5459  -22.3690  -12.8276 O   0  0  0  0  0  0  0  0  0  0  0  0
   26.7810  -20.2964   -5.2321 C   0  0  0  0  0  0  0  0  0  0  0  0
   27.4453  -19.8489   -6.8541 S   0  0  0  0  0  0  0  0  0  0  0  0
   26.3238  -20.5359   -8.1300 C   0  0  0  0  0  0  0  0  0  0  0  0
   26.8558  -20.2724   -9.5031 C   0  0  0  0  0  0  0  0  0  0  0  0
   26.0025  -20.8876  -10.5530 C   0  0  2  0  0  0  0  0  0  0  0  0
   26.5639  -20.5778  -11.8818 N   0  0  0  0  0  0  0  0  0  0  0  0
   24.6481  -20.3074  -10.5532 C   0  0  0  0  0  0  0  0  0  0  0  0
   24.4591  -19.0567  -10.3305 O   0  0  0  0  0  0  0  0  0  0  0  0
   21.6148  -21.8060  -16.9268 O   0  0  0  0  0  0  0  0  0  0  0  0
   21.8236  -21.2011  -15.7025 C   0  0  0  0  0  0  0  0  0  0  0  0
   20.7640  -21.1704  -14.8173 C   0  0  0  0  0  0  0  0  0  0  0  0
   20.9499  -20.5798  -13.6084 C   0  0  0  0  0  0  0  0  0  0  0  0
   22.1782  -20.0241  -13.2809 C   0  0  0  0  0  0  0  0  0  0  0  0
   22.3187  -19.3890  -11.9748 C   0  0  0  0  0  0  0  0  0  0  0  0
   22.1875  -20.4086  -10.8343 C   0  0  2  0  0  0  0  0  0  0  0  0
   23.4843  -21.0716  -10.8016 N   0  0  0  0  0  0  0  0  0  0  0  0
   21.0790  -21.3215  -11.1258 C   0  0  0  0  0  0  0  0  0  0  0  0
   21.2394  -22.5044  -11.4716 O   0  0  0  0  0  0  0  0  0  0  0  0
   23.2284  -20.0565  -14.1631 C   0  0  0  0  0  0  0  0  0  0  0  0
   23.0373  -20.6548  -15.3856 C   0  0  0  0  0  0  0  0  0  0  0  0
   19.7761  -20.8638  -11.0164 O   0  0  0  0  0  0  0  0  0  0  0  0
  2  3  1  0
  2  1  1  1
  4  3  1  0
  4  5  1  0
  5  6  1  0
  6  7  1  0
  8  2  1  0
  9  8  2  0
 10 11  1  0
 12 13  1  0
 12 11  1  0
 14 13  1  1
 14 15  1  0
 15  8  1  0
 16 17  2  0
 16 14  1  0
 19 18  1  0
 20 19  2  0
 21 20  1  0
 22 21  2  0
 22 28  1  0
 24 23  1  6
 23 22  1  0
 24 25  1  0
 25 16  1  0
 26 24  1  0
 27 26  2  0
 28 29  2  0
 29 19  1  0
 30 26  1  0
M  END
$$$$
