VNP.pdb
     RDKit          3D

 23 23  0  0  1  0  0  0  0  0999 V2000
   28.3291  -20.1408  -14.7907 C   0  0  0  0  0  0  0  0  0  0  0  0
   27.0949  -20.1218  -13.9447 C   0  0  2  0  0  0  0  0  0  0  0  0
   26.7269  -18.7049  -13.5502 C   0  0  0  0  0  0  0  0  0  0  0  0
   27.2346  -20.9145  -12.6711 C   0  0  2  0  0  0  0  0  0  0  0  0
   26.2717  -21.9911  -12.6396 N   0  0  0  0  0  0  0  0  0  0  0  0
   26.9849  -20.0680  -11.4633 C   0  0  0  0  0  0  0  0  0  0  0  0
   27.4062  -18.8997  -11.3616 O   0  0  0  0  0  0  0  0  0  0  0  0
   24.3482  -20.0795  -11.1321 N   0  0  0  0  0  0  0  0  0  0  0  0
   23.7539  -20.3406   -9.8604 C   0  0  0  0  0  0  0  0  0  0  0  0
   22.5293  -20.5896   -9.8526 O   0  0  0  0  0  0  0  0  0  0  0  0
   24.6131  -20.2989   -8.6630 C   0  0  0  0  0  0  0  0  0  0  0  0
   26.0661  -20.0388   -9.1010 C   0  0  2  0  0  0  0  0  0  0  0  0
   26.2304  -20.6728  -10.4199 N   0  0  0  0  0  0  0  0  0  0  0  0
   26.9745  -20.6761   -8.1233 C   0  0  0  0  0  0  0  0  0  0  0  0
   27.3734  -21.8449   -8.3549 O   0  0  0  0  0  0  0  0  0  0  0  0
   27.4162  -20.0348   -6.9446 N   0  0  0  0  0  0  0  0  0  0  0  0
   26.9972  -18.7008   -6.4777 C   0  0  0  0  0  0  0  0  0  0  0  0
   28.2161  -18.1706   -5.7763 C   0  0  0  0  0  0  0  0  0  0  0  0
   29.2365  -19.2682   -5.7717 C   0  0  0  0  0  0  0  0  0  0  0  0
   28.3624  -20.4905   -5.9539 C   0  0  1  0  0  0  0  0  0  0  0  0
   27.6494  -20.8497   -4.6713 C   0  0  0  0  0  0  0  0  0  0  0  0
   26.2822  -20.6982   -4.5720 O   0  0  0  0  0  0  0  0  0  0  0  0
   28.2649  -21.2866   -3.6840 O   0  0  0  0  0  0  0  0  0  0  0  0
  2  1  1  1
  2  3  1  0
  4  2  1  0
  4  6  1  0
  4  5  1  6
  6  7  2  0
  8  9  1  0
  9 11  1  0
 10  9  2  0
 12 11  1  1
 12 14  1  0
 13  6  1  0
 13 12  1  0
 14 15  2  0
 16 14  1  0
 16 20  1  0
 17 16  1  0
 18 19  1  0
 18 17  1  0
 19 20  1  0
 20 21  1  1
 21 23  2  0
 21 22  1  0
M  END
$$$$
