VNP.pdb
     RDKit          3D

 23 23  0  0  1  0  0  0  0  0999 V2000
   24.3267  -14.4042  -15.8771 C   0  0  0  0  0  0  0  0  0  0  0  0
   23.7784  -13.0527  -16.2124 C   0  0  2  0  0  0  0  0  0  0  0  0
   24.3876  -11.9830  -15.3274 C   0  0  0  0  0  0  0  0  0  0  0  0
   22.2830  -12.9614  -16.0530 C   0  0  2  0  0  0  0  0  0  0  0  0
   21.6250  -13.9115  -16.9200 N   0  0  0  0  0  0  0  0  0  0  0  0
   21.7701  -11.6050  -16.4203 C   0  0  0  0  0  0  0  0  0  0  0  0
   21.9054  -11.1205  -17.5604 O   0  0  0  0  0  0  0  0  0  0  0  0
   17.5729  -11.3983  -15.4461 N   0  0  0  0  0  0  0  0  0  0  0  0
   18.2580  -10.2447  -15.9343 C   0  0  0  0  0  0  0  0  0  0  0  0
   18.0486   -9.9284  -17.1251 O   0  0  0  0  0  0  0  0  0  0  0  0
   19.1512   -9.5177  -15.0138 C   0  0  0  0  0  0  0  0  0  0  0  0
   20.5779   -9.5267  -15.5929 C   0  0  2  0  0  0  0  0  0  0  0  0
   21.1097  -10.8843  -15.3868 N   0  0  0  0  0  0  0  0  0  0  0  0
   21.3970   -8.5497  -14.8435 C   0  0  0  0  0  0  0  0  0  0  0  0
   21.9277   -8.9194  -13.7662 O   0  0  0  0  0  0  0  0  0  0  0  0
   21.6132   -7.2237  -15.2804 N   0  0  0  0  0  0  0  0  0  0  0  0
   21.0114   -6.5976  -16.4717 C   0  0  0  0  0  0  0  0  0  0  0  0
   22.0691   -5.6389  -16.9419 C   0  0  0  0  0  0  0  0  0  0  0  0
   23.1780   -5.6745  -15.9345 C   0  0  0  0  0  0  0  0  0  0  0  0
   22.4553   -6.1981  -14.7119 C   0  0  1  0  0  0  0  0  0  0  0  0
   21.6125   -5.1206  -14.0710 C   0  0  0  0  0  0  0  0  0  0  0  0
   20.2489   -5.0927  -14.2763 O   0  0  0  0  0  0  0  0  0  0  0  0
   22.1156   -4.2422  -13.3501 O   0  0  0  0  0  0  0  0  0  0  0  0
  2  1  1  1
  2  3  1  0
  4  2  1  0
  4  6  1  0
  4  5  1  6
  6  7  2  0
  8  9  1  0
  9 11  1  0
 10  9  2  0
 12 11  1  1
 12 14  1  0
 13  6  1  0
 13 12  1  0
 14 15  2  0
 16 14  1  0
 16 20  1  0
 17 16  1  0
 18 19  1  0
 18 17  1  0
 19 20  1  0
 20 21  1  6
 21 23  2  0
 21 22  1  0
M  END
$$$$
