VNP.pdb
     RDKit          3D

 23 23  0  0  1  0  0  0  0  0999 V2000
   27.5447  -20.6146   -4.7011 C   0  0  0  0  0  0  0  0  0  0  0  0
   28.6799  -19.9991   -5.4573 C   0  0  2  0  0  0  0  0  0  0  0  0
   29.3936  -18.9586   -4.6166 C   0  0  0  0  0  0  0  0  0  0  0  0
   28.2473  -19.3197   -6.7305 C   0  0  2  0  0  0  0  0  0  0  0  0
   27.3027  -18.2650   -6.4430 N   0  0  0  0  0  0  0  0  0  0  0  0
   27.5690  -20.2732   -7.6624 C   0  0  0  0  0  0  0  0  0  0  0  0
   28.0570  -21.3787   -7.9667 O   0  0  0  0  0  0  0  0  0  0  0  0
   24.7545  -21.9746   -7.2615 N   0  0  0  0  0  0  0  0  0  0  0  0
   23.7417  -21.2553   -7.9653 C   0  0  0  0  0  0  0  0  0  0  0  0
   22.5665  -21.4038   -7.5667 O   0  0  0  0  0  0  0  0  0  0  0  0
   24.1463  -20.4002   -9.0961 C   0  0  0  0  0  0  0  0  0  0  0  0
   25.6638  -20.5449   -9.3123 C   0  0  2  0  0  0  0  0  0  0  0  0
   26.3191  -19.8484   -8.1925 N   0  0  0  0  0  0  0  0  0  0  0  0
   26.0230  -19.8886  -10.5880 C   0  0  0  0  0  0  0  0  0  0  0  0
   26.1213  -18.6361  -10.6066 O   0  0  0  0  0  0  0  0  0  0  0  0
   26.2626  -20.6007  -11.7845 N   0  0  0  0  0  0  0  0  0  0  0  0
   26.0895  -22.0522  -11.9755 C   0  0  0  0  0  0  0  0  0  0  0  0
   27.1531  -22.4082  -12.9760 C   0  0  0  0  0  0  0  0  0  0  0  0
   27.8087  -21.1287  -13.3992 C   0  0  0  0  0  0  0  0  0  0  0  0
   26.7362  -20.1161  -13.0592 C   0  0  1  0  0  0  0  0  0  0  0  0
   25.6207  -20.1373  -14.0778 C   0  0  0  0  0  0  0  0  0  0  0  0
   24.4091  -20.7186  -13.7674 O   0  0  0  0  0  0  0  0  0  0  0  0
   25.7601  -19.6381  -15.2073 O   0  0  0  0  0  0  0  0  0  0  0  0
  2  1  1  1
  2  3  1  0
  4  2  1  0
  4  6  1  0
  4  5  1  1
  6  7  2  0
  8  9  1  0
  9 11  1  0
 10  9  2  0
 12 11  1  1
 12 14  1  0
 13  6  1  0
 13 12  1  0
 14 15  2  0
 16 14  1  0
 16 20  1  0
 17 16  1  0
 18 19  1  0
 18 17  1  0
 19 20  1  0
 20 21  1  6
 21 23  2  0
 21 22  1  0
M  END
$$$$
