VNP.pdb
     RDKit          3D

 23 23  0  0  1  0  0  0  0  0999 V2000
   37.9756  -11.2283   -5.9836 C   0  0  0  0  0  0  0  0  0  0  0  0
   37.3323  -10.5140   -7.1305 C   0  0  2  0  0  0  0  0  0  0  0  0
   37.5359  -11.2722   -8.4275 C   0  0  0  0  0  0  0  0  0  0  0  0
   37.8699   -9.1224   -7.3412 C   0  0  2  0  0  0  0  0  0  0  0  0
   37.1085   -8.4370   -8.3599 N   0  0  0  0  0  0  0  0  0  0  0  0
   39.2939   -9.1438   -7.7989 C   0  0  0  0  0  0  0  0  0  0  0  0
   39.6169   -9.3577   -8.9834 O   0  0  0  0  0  0  0  0  0  0  0  0
   41.9186   -6.7940   -9.2267 N   0  0  0  0  0  0  0  0  0  0  0  0
   41.6210   -6.5504   -7.8517 C   0  0  0  0  0  0  0  0  0  0  0  0
   40.8751   -5.5794   -7.6014 O   0  0  0  0  0  0  0  0  0  0  0  0
   42.2053   -7.4475   -6.8382 C   0  0  0  0  0  0  0  0  0  0  0  0
   41.7175   -8.8837   -7.1031 C   0  0  2  0  0  0  0  0  0  0  0  0
   40.2768   -8.9040   -6.7989 N   0  0  0  0  0  0  0  0  0  0  0  0
   42.4341   -9.8008   -6.1907 C   0  0  0  0  0  0  0  0  0  0  0  0
   41.9321  -10.0306   -5.0620 O   0  0  0  0  0  0  0  0  0  0  0  0
   43.6526  -10.4317   -6.5270 N   0  0  0  0  0  0  0  0  0  0  0  0
   44.4133  -10.2327   -7.7739 C   0  0  0  0  0  0  0  0  0  0  0  0
   45.0527  -11.5708   -8.0177 C   0  0  0  0  0  0  0  0  0  0  0  0
   44.7248  -12.4389   -6.8408 C   0  0  0  0  0  0  0  0  0  0  0  0
   44.4172  -11.4028   -5.7810 C   0  0  1  0  0  0  0  0  0  0  0  0
   45.6829  -10.7764   -5.2444 C   0  0  0  0  0  0  0  0  0  0  0  0
   46.4241  -11.4272   -4.2804 O   0  0  0  0  0  0  0  0  0  0  0  0
   46.0874   -9.6739   -5.6509 O   0  0  0  0  0  0  0  0  0  0  0  0
  2  1  1  1
  2  3  1  0
  4  2  1  0
  4  6  1  0
  4  5  1  6
  6  7  2  0
  8  9  1  0
  9 11  1  0
 10  9  2  0
 12 11  1  1
 12 14  1  0
 13  6  1  0
 13 12  1  0
 14 15  2  0
 16 14  1  0
 16 20  1  0
 17 16  1  0
 18 19  1  0
 18 17  1  0
 19 20  1  0
 20 21  1  6
 21 23  2  0
 21 22  1  0
M  END
$$$$
