VNP.pdb
     RDKit          3D

 23 23  0  0  1  0  0  0  0  0999 V2000
   26.8301  -26.2083  -16.3725 C   0  0  0  0  0  0  0  0  0  0  0  0
   27.6465  -26.1803  -17.6263 C   0  0  2  0  0  0  0  0  0  0  0  0
   28.2824  -27.5307  -17.8923 C   0  0  0  0  0  0  0  0  0  0  0  0
   28.7596  -25.1657  -17.5886 C   0  0  2  0  0  0  0  0  0  0  0  0
   29.9883  -25.7819  -17.1437 N   0  0  0  0  0  0  0  0  0  0  0  0
   28.4591  -24.0511  -16.6372 C   0  0  0  0  0  0  0  0  0  0  0  0
   28.8623  -24.0459  -15.4581 O   0  0  0  0  0  0  0  0  0  0  0  0
   27.3460  -18.3499  -16.4834 N   0  0  0  0  0  0  0  0  0  0  0  0
   26.5098  -19.5060  -16.5348 C   0  0  0  0  0  0  0  0  0  0  0  0
   25.4278  -19.4455  -15.9123 O   0  0  0  0  0  0  0  0  0  0  0  0
   26.9737  -20.6732  -17.3068 C   0  0  0  0  0  0  0  0  0  0  0  0
   27.2945  -21.8205  -16.3313 C   0  0  2  0  0  0  0  0  0  0  0  0
   27.6778  -22.9804  -17.1536 N   0  0  0  0  0  0  0  0  0  0  0  0
   26.0742  -22.1372  -15.5582 C   0  0  0  0  0  0  0  0  0  0  0  0
   25.2372  -22.9266  -16.0633 O   0  0  0  0  0  0  0  0  0  0  0  0
   25.8053  -21.5976  -14.2806 N   0  0  0  0  0  0  0  0  0  0  0  0
   26.5883  -20.5478  -13.6038 C   0  0  0  0  0  0  0  0  0  0  0  0
   26.4668  -20.8972  -12.1470 C   0  0  0  0  0  0  0  0  0  0  0  0
   25.5263  -22.0598  -12.0478 C   0  0  0  0  0  0  0  0  0  0  0  0
   24.7580  -21.9351  -13.3460 C   0  0  1  0  0  0  0  0  0  0  0  0
   23.7384  -20.8227  -13.2739 C   0  0  0  0  0  0  0  0  0  0  0  0
   23.9565  -19.6375  -13.9447 O   0  0  0  0  0  0  0  0  0  0  0  0
   22.6890  -20.9420  -12.6190 O   0  0  0  0  0  0  0  0  0  0  0  0
  2  1  1  1
  2  3  1  0
  4  2  1  0
  4  6  1  0
  4  5  1  1
  6  7  2  0
  8  9  1  0
  9 11  1  0
 10  9  2  0
 12 11  1  6
 12 14  1  0
 13  6  1  0
 13 12  1  0
 14 15  2  0
 16 14  1  0
 16 20  1  0
 17 16  1  0
 18 19  1  0
 18 17  1  0
 19 20  1  0
 20 21  1  1
 21 23  2  0
 21 22  1  0
M  END
$$$$
