VNP.pdb
     RDKit          3D

 23 23  0  0  1  0  0  0  0  0999 V2000
   23.3604   -9.5213  -21.1458 C   0  0  0  0  0  0  0  0  0  0  0  0
   22.8403  -10.9155  -20.9880 C   0  0  2  0  0  0  0  0  0  0  0  0
   21.6671  -11.1672  -21.9148 C   0  0  0  0  0  0  0  0  0  0  0  0
   22.3735  -11.2213  -19.5886 C   0  0  2  0  0  0  0  0  0  0  0  0
   21.6456  -12.4690  -19.5616 N   0  0  0  0  0  0  0  0  0  0  0  0
   21.4501  -10.1643  -19.0709 C   0  0  0  0  0  0  0  0  0  0  0  0
   20.6274   -9.5747  -19.7978 O   0  0  0  0  0  0  0  0  0  0  0  0
   18.6567   -8.5367  -14.1409 N   0  0  0  0  0  0  0  0  0  0  0  0
   18.7993   -8.5640  -15.5613 C   0  0  0  0  0  0  0  0  0  0  0  0
   18.1286   -7.7322  -16.2097 O   0  0  0  0  0  0  0  0  0  0  0  0
   19.7136   -9.5562  -16.1554 C   0  0  0  0  0  0  0  0  0  0  0  0
   20.7371   -8.8229  -17.0417 C   0  0  2  0  0  0  0  0  0  0  0  0
   21.5598   -9.8608  -17.6854 N   0  0  0  0  0  0  0  0  0  0  0  0
   21.5872   -7.9755  -16.1779 C   0  0  0  0  0  0  0  0  0  0  0  0
   22.5424   -8.5170  -15.5669 O   0  0  0  0  0  0  0  0  0  0  0  0
   21.3791   -6.5885  -16.0081 N   0  0  0  0  0  0  0  0  0  0  0  0
   20.2742   -5.8033  -16.5877 C   0  0  0  0  0  0  0  0  0  0  0  0
   20.8869   -4.4522  -16.8292 C   0  0  0  0  0  0  0  0  0  0  0  0
   22.2770   -4.4905  -16.2707 C   0  0  0  0  0  0  0  0  0  0  0  0
   22.1691   -5.6268  -15.2765 C   0  0  1  0  0  0  0  0  0  0  0  0
   21.4429   -5.1921  -14.0251 C   0  0  0  0  0  0  0  0  0  0  0  0
   22.0993   -4.4520  -13.0640 O   0  0  0  0  0  0  0  0  0  0  0  0
   20.2508   -5.4832  -13.8292 O   0  0  0  0  0  0  0  0  0  0  0  0
  2  1  1  1
  2  3  1  0
  4  2  1  0
  4  6  1  0
  4  5  1  6
  6  7  2  0
  8  9  1  0
  9 11  1  0
 10  9  2  0
 12 11  1  1
 12 14  1  0
 13  6  1  0
 13 12  1  0
 14 15  2  0
 16 14  1  0
 16 20  1  0
 17 16  1  0
 18 19  1  0
 18 17  1  0
 19 20  1  0
 20 21  1  1
 21 23  2  0
 21 22  1  0
M  END
$$$$
