VNP.pdb
     RDKit          3D

 23 23  0  0  1  0  0  0  0  0999 V2000
   19.0666  -12.9342  -18.3631 C   0  0  0  0  0  0  0  0  0  0  0  0
   20.3607  -12.3481  -17.8929 C   0  0  2  0  0  0  0  0  0  0  0  0
   20.3143  -12.0468  -16.4077 C   0  0  0  0  0  0  0  0  0  0  0  0
   20.7222  -11.0648  -18.5946 C   0  0  2  0  0  0  0  0  0  0  0  0
   22.1483  -10.8419  -18.5340 N   0  0  0  0  0  0  0  0  0  0  0  0
   20.0665   -9.8820  -17.9552 C   0  0  0  0  0  0  0  0  0  0  0  0
   18.8354   -9.6924  -17.9943 O   0  0  0  0  0  0  0  0  0  0  0  0
   19.4568   -8.9209  -14.4239 N   0  0  0  0  0  0  0  0  0  0  0  0
   20.6638   -8.1889  -14.2097 C   0  0  0  0  0  0  0  0  0  0  0  0
   21.0907   -8.1397  -13.0361 O   0  0  0  0  0  0  0  0  0  0  0  0
   21.3129   -7.5518  -15.3700 C   0  0  0  0  0  0  0  0  0  0  0  0
   20.4294   -7.7624  -16.6132 C   0  0  2  0  0  0  0  0  0  0  0  0
   20.9319   -8.9699  -17.2899 N   0  0  0  0  0  0  0  0  0  0  0  0
   20.5807   -6.5910  -17.5031 C   0  0  0  0  0  0  0  0  0  0  0  0
   21.5648   -6.5592  -18.2838 O   0  0  0  0  0  0  0  0  0  0  0  0
   19.6730   -5.5086  -17.5195 N   0  0  0  0  0  0  0  0  0  0  0  0
   18.4685   -5.3783  -16.6795 C   0  0  0  0  0  0  0  0  0  0  0  0
   17.5062   -4.6230  -17.5527 C   0  0  0  0  0  0  0  0  0  0  0  0
   18.2414   -4.2542  -18.8055 C   0  0  0  0  0  0  0  0  0  0  0  0
   19.6799   -4.3201  -18.3390 C   0  0  1  0  0  0  0  0  0  0  0  0
   20.0421   -3.1107  -17.5092 C   0  0  0  0  0  0  0  0  0  0  0  0
   20.3071   -1.9036  -18.1215 O   0  0  0  0  0  0  0  0  0  0  0  0
   20.1093   -3.1674  -16.2696 O   0  0  0  0  0  0  0  0  0  0  0  0
  2  1  1  6
  2  3  1  0
  4  2  1  0
  4  6  1  0
  4  5  1  1
  6  7  2  0
  8  9  1  0
  9 11  1  0
 10  9  2  0
 12 11  1  1
 12 14  1  0
 13  6  1  0
 13 12  1  0
 14 15  2  0
 16 14  1  0
 16 20  1  0
 17 16  1  0
 18 19  1  0
 18 17  1  0
 19 20  1  0
 20 21  1  1
 21 23  2  0
 21 22  1  0
M  END
$$$$
