VNP.pdb
     RDKit          3D

 23 23  0  0  1  0  0  0  0  0999 V2000
   19.7159  -13.7359  -17.8500 C   0  0  0  0  0  0  0  0  0  0  0  0
   18.3258  -13.2104  -18.0253 C   0  0  2  0  0  0  0  0  0  0  0  0
   17.7720  -13.5792  -19.3876 C   0  0  0  0  0  0  0  0  0  0  0  0
   18.2366  -11.7115  -17.9013 C   0  0  2  0  0  0  0  0  0  0  0  0
   18.7250  -11.0766  -19.1036 N   0  0  0  0  0  0  0  0  0  0  0  0
   19.0679  -11.2006  -16.7675 C   0  0  0  0  0  0  0  0  0  0  0  0
   18.9118  -11.5846  -15.5923 O   0  0  0  0  0  0  0  0  0  0  0  0
   22.4591   -9.5662  -13.9181 N   0  0  0  0  0  0  0  0  0  0  0  0
   23.1068  -10.0645  -15.0888 C   0  0  0  0  0  0  0  0  0  0  0  0
   24.2834  -10.4638  -14.9535 O   0  0  0  0  0  0  0  0  0  0  0  0
   22.3544  -10.0733  -16.3566 C   0  0  0  0  0  0  0  0  0  0  0  0
   20.9137   -9.6031  -16.0844 C   0  0  2  0  0  0  0  0  0  0  0  0
   20.0614  -10.2393  -17.1029 N   0  0  0  0  0  0  0  0  0  0  0  0
   20.8610   -8.1330  -16.2359 C   0  0  0  0  0  0  0  0  0  0  0  0
   21.0736   -7.6433  -17.3734 O   0  0  0  0  0  0  0  0  0  0  0  0
   20.5818   -7.2539  -15.1658 N   0  0  0  0  0  0  0  0  0  0  0  0
   20.2785   -7.6502  -13.7787 C   0  0  0  0  0  0  0  0  0  0  0  0
   19.3255   -6.5884  -13.3059 C   0  0  0  0  0  0  0  0  0  0  0  0
   19.2178   -5.5712  -14.4012 C   0  0  0  0  0  0  0  0  0  0  0  0
   20.5043   -5.8123  -15.1615 C   0  0  1  0  0  0  0  0  0  0  0  0
   21.6894   -5.2236  -14.4325 C   0  0  0  0  0  0  0  0  0  0  0  0
   22.5660   -6.0462  -13.7563 O   0  0  0  0  0  0  0  0  0  0  0  0
   21.9060   -4.0000  -14.4223 O   0  0  0  0  0  0  0  0  0  0  0  0
  2  1  1  6
  2  3  1  0
  4  2  1  0
  4  6  1  0
  4  5  1  6
  6  7  2  0
  8  9  1  0
  9 11  1  0
 10  9  2  0
 12 11  1  6
 12 14  1  0
 13  6  1  0
 13 12  1  0
 14 15  2  0
 16 14  1  0
 16 20  1  0
 17 16  1  0
 18 19  1  0
 18 17  1  0
 19 20  1  0
 20 21  1  1
 21 23  2  0
 21 22  1  0
M  END
$$$$
