VNP.pdb
     RDKit          3D

 23 23  0  0  1  0  0  0  0  0999 V2000
   28.0242  -18.7671  -16.6690 C   0  0  0  0  0  0  0  0  0  0  0  0
   27.5414  -18.6683  -15.2560 C   0  0  2  0  0  0  0  0  0  0  0  0
   28.5043  -19.3486  -14.3028 C   0  0  0  0  0  0  0  0  0  0  0  0
   26.1890  -19.2977  -15.0443 C   0  0  2  0  0  0  0  0  0  0  0  0
   25.1977  -18.6529  -15.8743 N   0  0  0  0  0  0  0  0  0  0  0  0
   25.7310  -19.1589  -13.6270 C   0  0  0  0  0  0  0  0  0  0  0  0
   25.4321  -18.0600  -13.1210 O   0  0  0  0  0  0  0  0  0  0  0  0
   22.4213  -21.5249  -13.1611 N   0  0  0  0  0  0  0  0  0  0  0  0
   22.8891  -20.9273  -11.9517 C   0  0  0  0  0  0  0  0  0  0  0  0
   22.2055  -19.9902  -11.4866 O   0  0  0  0  0  0  0  0  0  0  0  0
   24.1273  -21.4491  -11.3449 C   0  0  0  0  0  0  0  0  0  0  0  0
   25.2292  -20.3803  -11.4632 C   0  0  2  0  0  0  0  0  0  0  0  0
   25.6523  -20.3630  -12.8736 N   0  0  0  0  0  0  0  0  0  0  0  0
   26.3661  -20.7781  -10.6051 C   0  0  0  0  0  0  0  0  0  0  0  0
   27.2614  -21.5061  -11.1023 O   0  0  0  0  0  0  0  0  0  0  0  0
   26.4950  -20.3784   -9.2562 N   0  0  0  0  0  0  0  0  0  0  0  0
   25.5240  -19.5684   -8.4985 C   0  0  0  0  0  0  0  0  0  0  0  0
   26.3826  -18.7796   -7.5500 C   0  0  0  0  0  0  0  0  0  0  0  0
   27.7918  -19.2580   -7.7266 C   0  0  0  0  0  0  0  0  0  0  0  0
   27.5693  -20.6304   -8.3253 C   0  0  1  0  0  0  0  0  0  0  0  0
   27.1321  -21.6222   -7.2730 C   0  0  0  0  0  0  0  0  0  0  0  0
   28.0448  -22.1182   -6.3656 O   0  0  0  0  0  0  0  0  0  0  0  0
   25.9550  -22.0130   -7.1949 O   0  0  0  0  0  0  0  0  0  0  0  0
  2  1  1  6
  2  3  1  0
  4  2  1  0
  4  6  1  0
  4  5  1  6
  6  7  2  0
  8  9  1  0
  9 11  1  0
 10  9  2  0
 12 11  1  6
 12 14  1  0
 13  6  1  0
 13 12  1  0
 14 15  2  0
 16 14  1  0
 16 20  1  0
 17 16  1  0
 18 19  1  0
 18 17  1  0
 19 20  1  0
 20 21  1  1
 21 23  2  0
 21 22  1  0
M  END
$$$$
