VNP.pdb
     RDKit          3D

 23 23  0  0  1  0  0  0  0  0999 V2000
   16.7998  -12.2662  -17.0403 C   0  0  0  0  0  0  0  0  0  0  0  0
   18.1084  -12.5215  -17.7200 C   0  0  2  0  0  0  0  0  0  0  0  0
   18.4128  -14.0057  -17.7753 C   0  0  0  0  0  0  0  0  0  0  0  0
   19.2737  -11.8550  -17.0361 C   0  0  2  0  0  0  0  0  0  0  0  0
   19.4560  -12.3963  -15.7091 N   0  0  0  0  0  0  0  0  0  0  0  0
   19.0558  -10.3830  -16.8825 C   0  0  0  0  0  0  0  0  0  0  0  0
   18.9622   -9.6114  -17.8566 O   0  0  0  0  0  0  0  0  0  0  0  0
   15.5272   -9.3354  -14.2080 N   0  0  0  0  0  0  0  0  0  0  0  0
   16.4555   -8.3596  -14.6821 C   0  0  0  0  0  0  0  0  0  0  0  0
   16.0470   -7.5792  -15.5687 O   0  0  0  0  0  0  0  0  0  0  0  0
   17.8106   -8.3407  -14.1019 C   0  0  0  0  0  0  0  0  0  0  0  0
   18.8414   -8.4652  -15.2388 C   0  0  2  0  0  0  0  0  0  0  0  0
   18.9591   -9.9002  -15.5479 N   0  0  0  0  0  0  0  0  0  0  0  0
   20.1407   -7.9497  -14.7559 C   0  0  0  0  0  0  0  0  0  0  0  0
   20.9206   -8.7477  -14.1782 O   0  0  0  0  0  0  0  0  0  0  0  0
   20.5476   -6.6061  -14.9141 N   0  0  0  0  0  0  0  0  0  0  0  0
   19.7070   -5.5014  -15.4103 C   0  0  0  0  0  0  0  0  0  0  0  0
   20.6793   -4.6118  -16.1329 C   0  0  0  0  0  0  0  0  0  0  0  0
   22.0472   -5.1852  -15.9186 C   0  0  0  0  0  0  0  0  0  0  0  0
   21.8355   -6.0039  -14.6632 C   0  0  1  0  0  0  0  0  0  0  0  0
   21.7742   -5.1217  -13.4383 C   0  0  0  0  0  0  0  0  0  0  0  0
   22.9372   -4.6807  -12.8424 O   0  0  0  0  0  0  0  0  0  0  0  0
   20.6905   -4.7720  -12.9407 O   0  0  0  0  0  0  0  0  0  0  0  0
  2  1  1  1
  2  3  1  0
  4  2  1  0
  4  6  1  0
  4  5  1  1
  6  7  2  0
  8  9  1  0
  9 11  1  0
 10  9  2  0
 12 11  1  1
 12 14  1  0
 13  6  1  0
 13 12  1  0
 14 15  2  0
 16 14  1  0
 16 20  1  0
 17 16  1  0
 18 19  1  0
 18 17  1  0
 19 20  1  0
 20 21  1  1
 21 23  2  0
 21 22  1  0
M  END
$$$$
