VNP.pdb
     RDKit          3D

 23 23  0  0  1  0  0  0  0  0999 V2000
   29.2386  -21.1568  -14.0314 C   0  0  0  0  0  0  0  0  0  0  0  0
   28.7018  -20.4934  -12.8021 C   0  0  2  0  0  0  0  0  0  0  0  0
   29.5222  -20.8624  -11.5818 C   0  0  0  0  0  0  0  0  0  0  0  0
   27.2720  -20.8624  -12.5034 C   0  0  2  0  0  0  0  0  0  0  0  0
   26.4118  -20.4715  -13.5963 N   0  0  0  0  0  0  0  0  0  0  0  0
   26.7666  -20.1682  -11.2784 C   0  0  0  0  0  0  0  0  0  0  0  0
   26.5769  -18.9374  -11.2325 O   0  0  0  0  0  0  0  0  0  0  0  0
   23.3160  -21.1259  -10.4322 N   0  0  0  0  0  0  0  0  0  0  0  0
   23.7539  -20.4293   -9.2654 C   0  0  0  0  0  0  0  0  0  0  0  0
   23.2053  -19.3320   -9.0267 O   0  0  0  0  0  0  0  0  0  0  0  0
   24.8067  -21.0432   -8.4357 C   0  0  0  0  0  0  0  0  0  0  0  0
   26.1673  -20.4404   -8.8305 C   0  0  2  0  0  0  0  0  0  0  0  0
   26.5094  -20.9961  -10.1506 N   0  0  0  0  0  0  0  0  0  0  0  0
   27.1762  -20.8610   -7.8344 C   0  0  0  0  0  0  0  0  0  0  0  0
   27.6868  -22.0033   -7.9495 O   0  0  0  0  0  0  0  0  0  0  0  0
   27.5945  -20.0413   -6.7625 N   0  0  0  0  0  0  0  0  0  0  0  0
   27.1432  -18.6622   -6.5022 C   0  0  0  0  0  0  0  0  0  0  0  0
   28.3448  -18.0062   -5.8818 C   0  0  0  0  0  0  0  0  0  0  0  0
   29.3883  -19.0678   -5.7083 C   0  0  0  0  0  0  0  0  0  0  0  0
   28.5420  -20.3227   -5.7102 C   0  0  1  0  0  0  0  0  0  0  0  0
   27.8264  -20.5023   -4.3918 C   0  0  0  0  0  0  0  0  0  0  0  0
   28.5287  -20.8847   -3.2681 O   0  0  0  0  0  0  0  0  0  0  0  0
   26.6032  -20.3123   -4.2832 O   0  0  0  0  0  0  0  0  0  0  0  0
  2  1  1  6
  2  3  1  0
  4  2  1  0
  4  6  1  0
  4  5  1  6
  6  7  2  0
  8  9  1  0
  9 11  1  0
 10  9  2  0
 12 11  1  1
 12 14  1  0
 13  6  1  0
 13 12  1  0
 14 15  2  0
 16 14  1  0
 16 20  1  0
 17 16  1  0
 18 19  1  0
 18 17  1  0
 19 20  1  0
 20 21  1  1
 21 23  2  0
 21 22  1  0
M  END
$$$$
