VNP.pdb
     RDKit          3D

 23 23  0  0  1  0  0  0  0  0999 V2000
   24.7339  -20.9163   -9.0050 C   0  0  0  0  0  0  0  0  0  0  0  0
   25.1735  -20.2287  -10.2593 C   0  0  2  0  0  0  0  0  0  0  0  0
   23.9825  -19.7184  -11.0466 C   0  0  0  0  0  0  0  0  0  0  0  0
   25.9647  -21.1206  -11.1804 C   0  0  2  0  0  0  0  0  0  0  0  0
   27.0707  -21.7222  -10.4718 N   0  0  0  0  0  0  0  0  0  0  0  0
   26.5440  -20.3550  -12.3276 C   0  0  0  0  0  0  0  0  0  0  0  0
   27.5077  -19.5756  -12.1983 O   0  0  0  0  0  0  0  0  0  0  0  0
   28.7941  -20.9730  -16.4278 N   0  0  0  0  0  0  0  0  0  0  0  0
   27.6061  -21.5560  -15.8918 C   0  0  0  0  0  0  0  0  0  0  0  0
   27.7154  -22.6964  -15.3924 O   0  0  0  0  0  0  0  0  0  0  0  0
   26.3521  -20.7841  -15.9636 C   0  0  0  0  0  0  0  0  0  0  0  0
   26.3103  -19.7909  -14.7878 C   0  0  2  0  0  0  0  0  0  0  0  0
   25.9303  -20.5644  -13.5938 N   0  0  0  0  0  0  0  0  0  0  0  0
   25.2793  -18.7690  -15.0704 C   0  0  0  0  0  0  0  0  0  0  0  0
   24.0908  -19.0164  -14.7462 O   0  0  0  0  0  0  0  0  0  0  0  0
   25.5658  -17.5292  -15.6842 N   0  0  0  0  0  0  0  0  0  0  0  0
   26.8822  -17.0989  -16.1893 C   0  0  0  0  0  0  0  0  0  0  0  0
   26.8797  -15.6125  -15.9666 C   0  0  0  0  0  0  0  0  0  0  0  0
   25.5207  -15.2442  -15.4535 C   0  0  0  0  0  0  0  0  0  0  0  0
   24.6897  -16.4111  -15.9422 C   0  0  1  0  0  0  0  0  0  0  0  0
   24.4030  -16.2975  -17.4212 C   0  0  0  0  0  0  0  0  0  0  0  0
   23.3642  -15.5075  -17.8675 O   0  0  0  0  0  0  0  0  0  0  0  0
   25.0853  -16.9022  -18.2655 O   0  0  0  0  0  0  0  0  0  0  0  0
  2  1  1  1
  2  3  1  0
  4  2  1  0
  4  6  1  0
  4  5  1  1
  6  7  2  0
  8  9  1  0
  9 11  1  0
 10  9  2  0
 12 11  1  6
 12 14  1  0
 13  6  1  0
 13 12  1  0
 14 15  2  0
 16 14  1  0
 16 20  1  0
 17 16  1  0
 18 19  1  0
 18 17  1  0
 19 20  1  0
 20 21  1  6
 21 23  2  0
 21 22  1  0
M  END
$$$$
