VNP.pdb
     RDKit          3D

 23 23  0  0  1  0  0  0  0  0999 V2000
   37.1712  -28.5152  -20.7253 C   0  0  0  0  0  0  0  0  0  0  0  0
   35.7163  -28.8330  -20.5780 C   0  0  2  0  0  0  0  0  0  0  0  0
   34.8813  -28.0263  -21.5530 C   0  0  0  0  0  0  0  0  0  0  0  0
   35.1827  -28.5506  -19.1977 C   0  0  2  0  0  0  0  0  0  0  0  0
   35.2691  -27.1388  -18.9032 N   0  0  0  0  0  0  0  0  0  0  0  0
   35.9679  -29.2665  -18.1447 C   0  0  0  0  0  0  0  0  0  0  0  0
   36.9525  -28.7564  -17.5762 O   0  0  0  0  0  0  0  0  0  0  0  0
   34.3237  -32.2798  -14.2591 N   0  0  0  0  0  0  0  0  0  0  0  0
   34.2100  -32.1196  -15.6733 C   0  0  0  0  0  0  0  0  0  0  0  0
   33.1711  -31.5676  -16.0949 O   0  0  0  0  0  0  0  0  0  0  0  0
   35.3093  -32.6091  -16.5251 C   0  0  0  0  0  0  0  0  0  0  0  0
   36.2449  -31.4320  -16.8566 C   0  0  2  0  0  0  0  0  0  0  0  0
   35.5277  -30.5795  -17.8195 N   0  0  0  0  0  0  0  0  0  0  0  0
   37.4735  -31.9678  -17.4816 C   0  0  0  0  0  0  0  0  0  0  0  0
   37.4837  -32.1360  -18.7267 O   0  0  0  0  0  0  0  0  0  0  0  0
   38.6350  -32.2973  -16.7479 N   0  0  0  0  0  0  0  0  0  0  0  0
   38.7468  -32.3363  -15.2785 C   0  0  0  0  0  0  0  0  0  0  0  0
   40.1684  -31.9231  -15.0191 C   0  0  0  0  0  0  0  0  0  0  0  0
   40.8378  -31.7798  -16.3523 C   0  0  0  0  0  0  0  0  0  0  0  0
   39.9528  -32.6426  -17.2261 C   0  0  1  0  0  0  0  0  0  0  0  0
   40.2262  -34.1112  -17.0010 C   0  0  0  0  0  0  0  0  0  0  0  0
   39.3290  -34.8832  -16.2930 O   0  0  0  0  0  0  0  0  0  0  0  0
   41.2513  -34.6582  -17.4418 O   0  0  0  0  0  0  0  0  0  0  0  0
  2  1  1  1
  2  3  1  0
  4  2  1  0
  4  6  1  0
  4  5  1  1
  6  7  2  0
  8  9  1  0
  9 11  1  0
 10  9  2  0
 12 11  1  6
 12 14  1  0
 13  6  1  0
 13 12  1  0
 14 15  2  0
 16 14  1  0
 16 20  1  0
 17 16  1  0
 18 19  1  0
 18 17  1  0
 19 20  1  0
 20 21  1  1
 21 23  2  0
 21 22  1  0
M  END
$$$$
