VNP.pdb
     RDKit          3D

 23 23  0  0  1  0  0  0  0  0999 V2000
   19.6029  -12.7594  -17.1420 C   0  0  0  0  0  0  0  0  0  0  0  0
   18.4694  -12.7110  -16.1662 C   0  0  2  0  0  0  0  0  0  0  0  0
   17.2330  -13.3799  -16.7342 C   0  0  0  0  0  0  0  0  0  0  0  0
   18.0769  -11.3087  -15.7797 C   0  0  2  0  0  0  0  0  0  0  0  0
   17.3752  -10.6644  -16.8658 N   0  0  0  0  0  0  0  0  0  0  0  0
   19.2733  -10.4658  -15.4700 C   0  0  0  0  0  0  0  0  0  0  0  0
   20.0804  -10.7500  -14.5641 O   0  0  0  0  0  0  0  0  0  0  0  0
   19.4015   -8.2533  -18.9952 N   0  0  0  0  0  0  0  0  0  0  0  0
   20.4526   -7.5264  -18.3583 C   0  0  0  0  0  0  0  0  0  0  0  0
   20.5763   -6.3237  -18.6746 O   0  0  0  0  0  0  0  0  0  0  0  0
   21.3059   -8.2343  -17.3866 C   0  0  0  0  0  0  0  0  0  0  0  0
   20.5481   -8.3534  -16.0516 C   0  0  2  0  0  0  0  0  0  0  0  0
   19.4464   -9.3050  -16.2738 N   0  0  0  0  0  0  0  0  0  0  0  0
   19.9989   -7.0258  -15.7012 C   0  0  0  0  0  0  0  0  0  0  0  0
   18.7910   -6.7940  -15.9584 O   0  0  0  0  0  0  0  0  0  0  0  0
   20.7647   -6.0077  -15.0904 N   0  0  0  0  0  0  0  0  0  0  0  0
   22.2274   -6.0188  -14.9075 C   0  0  0  0  0  0  0  0  0  0  0  0
   22.4304   -5.2679  -13.6214 C   0  0  0  0  0  0  0  0  0  0  0  0
   21.0881   -4.7614  -13.1881 C   0  0  0  0  0  0  0  0  0  0  0  0
   20.3295   -4.7652  -14.4979 C   0  0  1  0  0  0  0  0  0  0  0  0
   20.7332   -3.5977  -15.3676 C   0  0  0  0  0  0  0  0  0  0  0  0
   20.0956   -2.3818  -15.2359 O   0  0  0  0  0  0  0  0  0  0  0  0
   21.6387   -3.6972  -16.2129 O   0  0  0  0  0  0  0  0  0  0  0  0
  2  1  1  6
  2  3  1  0
  4  2  1  0
  4  6  1  0
  4  5  1  6
  6  7  2  0
  8  9  1  0
  9 11  1  0
 10  9  2  0
 12 11  1  6
 12 14  1  0
 13  6  1  0
 13 12  1  0
 14 15  2  0
 16 14  1  0
 16 20  1  0
 17 16  1  0
 18 19  1  0
 18 17  1  0
 19 20  1  0
 20 21  1  6
 21 23  2  0
 21 22  1  0
M  END
$$$$
