GRV.pdb
     RDKit          3D

 23 22  0  0  1  0  0  0  0  0999 V2000
   13.1356  -17.5252   20.6841 N   0  0  0  0  0  0  0  0  0  0  0  0
   11.8025  -17.6472   21.2291 C   0  0  0  0  0  0  0  0  0  0  0  0
   11.5615  -16.6201   22.2767 C   0  0  0  0  0  0  0  0  0  0  0  0
   12.5476  -16.0626   22.8025 O   0  0  0  0  0  0  0  0  0  0  0  0
    7.6231  -14.7123   18.5440 N   0  0  0  0  0  0  0  0  0  0  0  0
    7.6188  -13.7356   19.5790 C   0  0  0  0  0  0  0  0  0  0  0  0
    7.7160  -12.4633   19.3017 N   0  0  0  0  0  0  0  0  0  0  0  0
    7.5119  -14.0717   20.9482 N   0  0  0  0  0  0  0  0  0  0  0  0
    7.8363  -15.4024   21.4127 C   0  0  0  0  0  0  0  0  0  0  0  0
    7.6444  -15.5781   22.9008 C   0  0  0  0  0  0  0  0  0  0  0  0
    8.6198  -14.7075   23.6210 C   0  0  0  0  0  0  0  0  0  0  0  0
    9.9871  -15.3385   23.7754 C   0  0  2  0  0  0  0  0  0  0  0  0
   10.2585  -16.2448   22.7060 N   0  0  0  0  0  0  0  0  0  0  0  0
   10.1474  -15.9541   25.1146 C   0  0  0  0  0  0  0  0  0  0  0  0
   10.2039  -17.2044   25.2485 O   0  0  0  0  0  0  0  0  0  0  0  0
    7.7880  -11.7997   20.0940 C   0  0  0  0  0  0  0  0  0  0  0  0
    8.9449  -14.2558   28.8121 C   0  0  1  0  0  0  0  0  0  0  0  0
   10.3664  -14.7735   28.7275 C   0  0  0  0  0  0  0  0  0  0  0  0
   11.2424  -13.5695   28.4487 C   0  0  1  0  0  0  0  0  0  0  0  0
   10.5519  -15.7527   27.6086 N   0  0  0  0  0  0  0  0  0  0  0  0
   10.2452  -15.1884   26.3102 C   0  0  0  0  0  0  0  0  0  0  0  0
    9.6987  -16.9394   27.8996 O   0  0  0  0  0  0  0  0  0  0  0  0
    8.6337  -17.1204   27.2889 O   0  0  0  0  0  0  0  0  0  0  0  0
  1  2  1  0
  3  4  2  0
  3  2  1  0
  6  5  1  0
  7  6  2  0
  8  6  1  0
  9 10  1  0
  9  8  1  0
 10 11  1  0
 12 11  1  6
 12 13  1  0
 12 14  1  0
 13  3  1  0
 14 20  1  0
 15 14  2  0
 17 16  1  1
 17 19  1  0
 18 17  1  0
 19 21  1  0
 19 20  1  6
 21 22  2  0
 21 23  1  0
M  END
$$$$
