GRV.pdb
     RDKit          3D

 23 22  0  0  1  0  0  0  0  0999 V2000
    7.9516  -12.7314   18.8319 N   0  0  0  0  0  0  0  0  0  0  0  0
    8.4693  -13.8963   19.5132 C   0  0  0  0  0  0  0  0  0  0  0  0
    7.8638  -14.0337   20.8641 C   0  0  0  0  0  0  0  0  0  0  0  0
    7.4961  -12.9997   21.4602 O   0  0  0  0  0  0  0  0  0  0  0  0
    2.5957  -18.9753   22.1739 N   0  0  0  0  0  0  0  0  0  0  0  0
    3.3732  -19.4316   21.0728 C   0  0  0  0  0  0  0  0  0  0  0  0
    2.8085  -19.7541   19.9404 N   0  0  0  0  0  0  0  0  0  0  0  0
    4.7796  -19.5637   21.1314 N   0  0  0  0  0  0  0  0  0  0  0  0
    5.5423  -18.9179   22.1767 C   0  0  0  0  0  0  0  0  0  0  0  0
    5.8405  -17.4655   21.8872 C   0  0  0  0  0  0  0  0  0  0  0  0
    6.6677  -16.9101   22.9987 C   0  0  0  0  0  0  0  0  0  0  0  0
    7.0705  -15.4669   22.7834 C   0  0  2  0  0  0  0  0  0  0  0  0
    7.6850  -15.2898   21.5069 N   0  0  0  0  0  0  0  0  0  0  0  0
    7.9030  -14.9678   23.9041 C   0  0  0  0  0  0  0  0  0  0  0  0
    9.1449  -15.1713   23.9270 O   0  0  0  0  0  0  0  0  0  0  0  0
    3.4036  -20.1808   19.2075 C   0  0  0  0  0  0  0  0  0  0  0  0
    6.1288  -12.8997   27.2975 C   0  0  1  0  0  0  0  0  0  0  0  0
    7.4779  -12.5029   26.7332 C   0  0  0  0  0  0  0  0  0  0  0  0
    7.2083  -11.4282   25.7002 C   0  0  1  0  0  0  0  0  0  0  0  0
    8.1683  -13.6431   26.0487 N   0  0  0  0  0  0  0  0  0  0  0  0
    7.3641  -14.2423   25.0035 C   0  0  0  0  0  0  0  0  0  0  0  0
    8.5341  -14.6426   27.0918 O   0  0  0  0  0  0  0  0  0  0  0  0
    7.9531  -15.7374   27.1533 O   0  0  0  0  0  0  0  0  0  0  0  0
  1  2  1  0
  3  4  2  0
  3  2  1  0
  6  5  1  0
  7  6  2  0
  8  6  1  0
  9 10  1  0
  9  8  1  0
 10 11  1  0
 12 11  1  1
 12 13  1  0
 12 14  1  0
 13  3  1  0
 14 20  1  0
 15 14  2  0
 17 16  1  1
 17 19  1  0
 18 17  1  0
 19 21  1  0
 19 20  1  6
 21 22  2  0
 21 23  1  0
M  END
$$$$
