GRV.pdb
     RDKit          3D

 23 22  0  0  1  0  0  0  0  0999 V2000
    8.9425  -16.6327   19.0009 N   0  0  0  0  0  0  0  0  0  0  0  0
    9.2353  -17.2190   20.2893 C   0  0  0  0  0  0  0  0  0  0  0  0
    8.4062  -16.5978   21.3557 C   0  0  0  0  0  0  0  0  0  0  0  0
    7.8691  -15.4940   21.1258 O   0  0  0  0  0  0  0  0  0  0  0  0
    8.7881  -21.4825   23.9898 N   0  0  0  0  0  0  0  0  0  0  0  0
    7.5086  -22.1032   23.9361 C   0  0  0  0  0  0  0  0  0  0  0  0
    7.3615  -23.2940   23.4208 N   0  0  0  0  0  0  0  0  0  0  0  0
    6.3362  -21.4838   24.4267 N   0  0  0  0  0  0  0  0  0  0  0  0
    6.3724  -20.1353   24.9480 C   0  0  0  0  0  0  0  0  0  0  0  0
    6.9659  -19.1377   23.9813 C   0  0  0  0  0  0  0  0  0  0  0  0
    6.8744  -17.7723   24.5774 C   0  0  0  0  0  0  0  0  0  0  0  0
    7.3504  -16.6779   23.6461 C   0  0  2  0  0  0  0  0  0  0  0  0
    8.1980  -17.2047   22.6250 N   0  0  0  0  0  0  0  0  0  0  0  0
    7.9716  -15.5625   24.3998 C   0  0  0  0  0  0  0  0  0  0  0  0
    9.2129  -15.5348   24.6067 O   0  0  0  0  0  0  0  0  0  0  0  0
    6.4288  -23.7396   23.4911 C   0  0  0  0  0  0  0  0  0  0  0  0
    7.4907  -11.0972   26.6493 C   0  0  1  0  0  0  0  0  0  0  0  0
    6.8553  -12.2467   25.8938 C   0  0  0  0  0  0  0  0  0  0  0  0
    5.6970  -12.7268   26.7439 C   0  0  2  0  0  0  0  0  0  0  0  0
    7.7986  -13.3950   25.7021 N   0  0  0  0  0  0  0  0  0  0  0  0
    7.2214  -14.4743   24.9274 C   0  0  0  0  0  0  0  0  0  0  0  0
    8.2226  -13.8626   27.0521 O   0  0  0  0  0  0  0  0  0  0  0  0
    7.7284  -14.8844   27.5539 O   0  0  0  0  0  0  0  0  0  0  0  0
  1  2  1  0
  3  4  2  0
  3  2  1  0
  6  5  1  0
  7  6  2  0
  8  6  1  0
  9 10  1  0
  9  8  1  0
 10 11  1  0
 12 11  1  1
 12 13  1  0
 12 14  1  0
 13  3  1  0
 14 20  1  0
 15 14  2  0
 17 16  1  6
 17 19  1  0
 18 17  1  0
 19 21  1  0
 19 20  1  1
 21 22  2  0
 21 23  1  0
M  END
$$$$
