GRV.pdb
     RDKit          3D

 23 22  0  0  1  0  0  0  0  0999 V2000
   11.2485  -22.1845   31.3891 N   0  0  0  0  0  0  0  0  0  0  0  0
   10.2748  -21.7347   30.4200 C   0  0  0  0  0  0  0  0  0  0  0  0
   10.8066  -20.5989   29.6215 C   0  0  0  0  0  0  0  0  0  0  0  0
   11.5621  -19.7781   30.1828 O   0  0  0  0  0  0  0  0  0  0  0  0
   14.2367  -22.2094   24.7457 N   0  0  0  0  0  0  0  0  0  0  0  0
   13.2417  -23.0732   24.2082 C   0  0  0  0  0  0  0  0  0  0  0  0
   13.5253  -24.3076   23.8903 N   0  0  0  0  0  0  0  0  0  0  0  0
   11.9078  -22.6601   23.9868 N   0  0  0  0  0  0  0  0  0  0  0  0
   11.4859  -21.3139   24.3049 C   0  0  0  0  0  0  0  0  0  0  0  0
   11.5675  -20.9959   25.7795 C   0  0  0  0  0  0  0  0  0  0  0  0
   11.0185  -19.6273   26.0109 C   0  0  0  0  0  0  0  0  0  0  0  0
   10.8907  -19.2720   27.4768 C   0  0  2  0  0  0  0  0  0  0  0  0
   10.4931  -20.4062   28.2476 N   0  0  0  0  0  0  0  0  0  0  0  0
   10.0065  -18.0978   27.6707 C   0  0  0  0  0  0  0  0  0  0  0  0
    8.7594  -18.2373   27.7695 O   0  0  0  0  0  0  0  0  0  0  0  0
   12.7662  -24.8921   23.4959 C   0  0  0  0  0  0  0  0  0  0  0  0
    9.4228  -13.3104   28.9177 C   0  0  1  0  0  0  0  0  0  0  0  0
   10.3051  -14.5318   28.7574 C   0  0  0  0  0  0  0  0  0  0  0  0
   11.5484  -14.0665   28.0277 C   0  0  2  0  0  0  0  0  0  0  0  0
    9.6553  -15.6015   27.9336 N   0  0  0  0  0  0  0  0  0  0  0  0
   10.4991  -16.7653   27.7556 C   0  0  0  0  0  0  0  0  0  0  0  0
    9.2797  -14.9984   26.6236 O   0  0  0  0  0  0  0  0  0  0  0  0
    9.9351  -15.2466   25.5994 O   0  0  0  0  0  0  0  0  0  0  0  0
  1  2  1  0
  3  4  2  0
  3  2  1  0
  6  5  1  0
  7  6  2  0
  8  6  1  0
  9 10  1  0
  9  8  1  0
 10 11  1  0
 12 11  1  6
 12 13  1  0
 12 14  1  0
 13  3  1  0
 14 20  1  0
 15 14  2  0
 17 16  1  1
 17 19  1  0
 18 17  1  0
 19 21  1  0
 19 20  1  6
 21 22  2  0
 21 23  1  0
M  END
$$$$
