GRV.pdb
     RDKit          3D

 23 22  0  0  1  0  0  0  0  0999 V2000
    6.8824  -21.6618   24.9770 N   0  0  0  0  0  0  0  0  0  0  0  0
    6.1209  -20.4461   25.1546 C   0  0  0  0  0  0  0  0  0  0  0  0
    6.9521  -19.2507   24.8540 C   0  0  0  0  0  0  0  0  0  0  0  0
    8.1039  -19.1900   25.3332 O   0  0  0  0  0  0  0  0  0  0  0  0
   10.0512  -13.4756   19.1190 N   0  0  0  0  0  0  0  0  0  0  0  0
    8.7685  -13.2990   19.7094 C   0  0  0  0  0  0  0  0  0  0  0  0
    8.2495  -12.1082   19.8432 N   0  0  0  0  0  0  0  0  0  0  0  0
    7.9875  -14.3791   20.1809 N   0  0  0  0  0  0  0  0  0  0  0  0
    8.3242  -15.0546   21.4146 C   0  0  0  0  0  0  0  0  0  0  0  0
    7.3078  -14.8364   22.5107 C   0  0  0  0  0  0  0  0  0  0  0  0
    6.5837  -16.1174   22.7617 C   0  0  0  0  0  0  0  0  0  0  0  0
    7.1695  -16.9246   23.9005 C   0  0  2  0  0  0  0  0  0  0  0  0
    6.4939  -18.1740   24.0455 N   0  0  0  0  0  0  0  0  0  0  0  0
    7.2087  -16.1353   25.1549 C   0  0  0  0  0  0  0  0  0  0  0  0
    6.1499  -15.8545   25.7750 O   0  0  0  0  0  0  0  0  0  0  0  0
    7.3007  -12.0374   20.2534 C   0  0  0  0  0  0  0  0  0  0  0  0
   10.4271  -16.0620   27.9586 C   0  0  1  0  0  0  0  0  0  0  0  0
    9.8726  -14.7353   27.4808 C   0  0  0  0  0  0  0  0  0  0  0  0
    9.8234  -13.8318   28.6957 C   0  0  2  0  0  0  0  0  0  0  0  0
    8.4818  -14.8601   26.9374 N   0  0  0  0  0  0  0  0  0  0  0  0
    8.4195  -15.6538   25.7273 C   0  0  0  0  0  0  0  0  0  0  0  0
    7.9595  -13.4830   26.7103 O   0  0  0  0  0  0  0  0  0  0  0  0
    8.1221  -12.9144   25.6193 O   0  0  0  0  0  0  0  0  0  0  0  0
  1  2  1  0
  3  4  2  0
  3  2  1  0
  6  5  1  0
  7  6  2  0
  8  6  1  0
  9 10  1  0
  9  8  1  0
 10 11  1  0
 12 11  1  6
 12 13  1  0
 12 14  1  0
 13  3  1  0
 14 20  1  0
 15 14  2  0
 17 16  1  6
 17 19  1  0
 18 17  1  0
 19 21  1  0
 19 20  1  1
 21 22  2  0
 21 23  1  0
M  END
$$$$
