GRV.pdb
     RDKit          3D

 23 22  0  0  1  0  0  0  0  0999 V2000
   11.7365  -19.9442   21.7630 N   0  0  0  0  0  0  0  0  0  0  0  0
   10.7977  -19.8153   22.8545 C   0  0  0  0  0  0  0  0  0  0  0  0
   10.7528  -18.4155   23.3532 C   0  0  0  0  0  0  0  0  0  0  0  0
   11.8291  -17.7971   23.4906 O   0  0  0  0  0  0  0  0  0  0  0  0
    7.0272  -14.0512   18.9877 N   0  0  0  0  0  0  0  0  0  0  0  0
    7.7519  -13.0514   19.6950 C   0  0  0  0  0  0  0  0  0  0  0  0
    8.1054  -11.9386   19.1103 N   0  0  0  0  0  0  0  0  0  0  0  0
    8.1299  -13.1944   21.0499 N   0  0  0  0  0  0  0  0  0  0  0  0
    7.8899  -14.4311   21.7602 C   0  0  0  0  0  0  0  0  0  0  0  0
    8.3833  -14.4046   23.1878 C   0  0  0  0  0  0  0  0  0  0  0  0
    8.1711  -15.7499   23.7986 C   0  0  0  0  0  0  0  0  0  0  0  0
    9.4579  -16.4290   24.2162 C   0  0  2  0  0  0  0  0  0  0  0  0
    9.5391  -17.7500   23.6806 N   0  0  0  0  0  0  0  0  0  0  0  0
    9.6362  -16.3857   25.6874 C   0  0  0  0  0  0  0  0  0  0  0  0
    9.0146  -17.1829   26.4373 O   0  0  0  0  0  0  0  0  0  0  0  0
    8.6875  -11.2725   19.6496 C   0  0  0  0  0  0  0  0  0  0  0  0
    8.4859  -14.3841   28.3700 C   0  0  1  0  0  0  0  0  0  0  0  0
    9.9935  -14.2356   28.4007 C   0  0  0  0  0  0  0  0  0  0  0  0
   10.3161  -12.9960   27.5920 C   0  0  1  0  0  0  0  0  0  0  0  0
   10.6948  -15.3989   27.7682 N   0  0  0  0  0  0  0  0  0  0  0  0
   10.5025  -15.4600   26.3338 C   0  0  0  0  0  0  0  0  0  0  0  0
   10.2055  -16.6390   28.4343 O   0  0  0  0  0  0  0  0  0  0  0  0
   10.5116  -16.8908   29.6103 O   0  0  0  0  0  0  0  0  0  0  0  0
  1  2  1  0
  3  4  2  0
  3  2  1  0
  6  5  1  0
  7  6  2  0
  8  6  1  0
  9 10  1  0
  9  8  1  0
 10 11  1  0
 12 11  1  1
 12 13  1  0
 12 14  1  0
 13  3  1  0
 14 20  1  0
 15 14  2  0
 17 16  1  1
 17 19  1  0
 18 17  1  0
 19 21  1  0
 19 20  1  6
 21 22  2  0
 21 23  1  0
M  END
$$$$
