GRV.pdb
     RDKit          3D

 23 22  0  0  1  0  0  0  0  0999 V2000
    7.8818  -12.7499   18.2100 N   0  0  0  0  0  0  0  0  0  0  0  0
    8.8873  -13.1303   19.1762 C   0  0  0  0  0  0  0  0  0  0  0  0
    8.2669  -13.7863   20.3573 C   0  0  0  0  0  0  0  0  0  0  0  0
    7.0713  -13.5365   20.6180 O   0  0  0  0  0  0  0  0  0  0  0  0
    8.8738  -16.9955   18.3757 N   0  0  0  0  0  0  0  0  0  0  0  0
    8.1617  -18.2231   18.2702 C   0  0  0  0  0  0  0  0  0  0  0  0
    8.0803  -18.8560   17.1309 N   0  0  0  0  0  0  0  0  0  0  0  0
    7.5082  -18.8258   19.3696 N   0  0  0  0  0  0  0  0  0  0  0  0
    7.5961  -18.2479   20.6924 C   0  0  0  0  0  0  0  0  0  0  0  0
    8.8601  -17.4505   20.9123 C   0  0  0  0  0  0  0  0  0  0  0  0
    8.8245  -16.8537   22.2800 C   0  0  0  0  0  0  0  0  0  0  0  0
    8.3916  -15.4031   22.2906 C   0  0  2  0  0  0  0  0  0  0  0  0
    8.9742  -14.6850   21.2027 N   0  0  0  0  0  0  0  0  0  0  0  0
    8.6502  -14.7741   23.6080 C   0  0  0  0  0  0  0  0  0  0  0  0
    9.8244  -14.5195   23.9831 O   0  0  0  0  0  0  0  0  0  0  0  0
    7.5385  -19.7387   17.1057 C   0  0  0  0  0  0  0  0  0  0  0  0
    6.2376  -11.9869   25.5317 C   0  0  1  0  0  0  0  0  0  0  0  0
    6.6477  -13.1659   26.3905 C   0  0  0  0  0  0  0  0  0  0  0  0
    7.0250  -12.5973   27.7429 C   0  0  2  0  0  0  0  0  0  0  0  0
    7.8406  -13.8862   25.8396 N   0  0  0  0  0  0  0  0  0  0  0  0
    7.6105  -14.4250   24.5149 C   0  0  0  0  0  0  0  0  0  0  0  0
    8.2069  -14.9599   26.8059 O   0  0  0  0  0  0  0  0  0  0  0  0
    7.6855  -16.0837   26.7337 O   0  0  0  0  0  0  0  0  0  0  0  0
  1  2  1  0
  3  4  2  0
  3  2  1  0
  6  5  1  0
  7  6  2  0
  8  6  1  0
  9 10  1  0
  9  8  1  0
 10 11  1  0
 12 11  1  1
 12 13  1  0
 12 14  1  0
 13  3  1  0
 14 20  1  0
 15 14  2  0
 17 16  1  1
 17 19  1  0
 18 17  1  0
 19 21  1  0
 19 20  1  6
 21 22  2  0
 21 23  1  0
M  END
$$$$
