GRV.pdb
     RDKit          3D

 23 22  0  0  1  0  0  0  0  0999 V2000
    8.9472  -16.4780   19.1141 N   0  0  0  0  0  0  0  0  0  0  0  0
    9.5386  -16.7999   20.3932 C   0  0  0  0  0  0  0  0  0  0  0  0
    8.6385  -16.4047   21.5085 C   0  0  0  0  0  0  0  0  0  0  0  0
    7.8249  -15.4767   21.3172 O   0  0  0  0  0  0  0  0  0  0  0  0
    4.7122  -21.0945   22.9700 N   0  0  0  0  0  0  0  0  0  0  0  0
    5.8333  -21.8666   23.3850 C   0  0  0  0  0  0  0  0  0  0  0  0
    6.0416  -23.0614   22.9010 N   0  0  0  0  0  0  0  0  0  0  0  0
    6.7760  -21.4006   24.3300 N   0  0  0  0  0  0  0  0  0  0  0  0
    6.6109  -20.1142   24.9700 C   0  0  0  0  0  0  0  0  0  0  0  0
    6.8167  -18.9495   24.0302 C   0  0  0  0  0  0  0  0  0  0  0  0
    7.5236  -17.8567   24.7610 C   0  0  0  0  0  0  0  0  0  0  0  0
    7.8429  -16.6609   23.8894 C   0  0  2  0  0  0  0  0  0  0  0  0
    8.6632  -17.0362   22.7826 N   0  0  0  0  0  0  0  0  0  0  0  0
    8.4156  -15.5507   24.6879 C   0  0  0  0  0  0  0  0  0  0  0  0
    9.6471  -15.5079   24.9449 O   0  0  0  0  0  0  0  0  0  0  0  0
    6.8724  -23.5813   23.2370 C   0  0  0  0  0  0  0  0  0  0  0  0
    5.8360  -12.7271   26.7587 C   0  0  1  0  0  0  0  0  0  0  0  0
    7.1982  -12.3033   26.2483 C   0  0  0  0  0  0  0  0  0  0  0  0
    6.9707  -11.6987   24.8781 C   0  0  1  0  0  0  0  0  0  0  0  0
    8.1365  -13.4615   26.0955 N   0  0  0  0  0  0  0  0  0  0  0  0
    7.6276  -14.4845   25.2052 C   0  0  0  0  0  0  0  0  0  0  0  0
    8.4037  -14.0098   27.4553 O   0  0  0  0  0  0  0  0  0  0  0  0
    7.9510  -15.1143   27.7944 O   0  0  0  0  0  0  0  0  0  0  0  0
  1  2  1  0
  3  4  2  0
  3  2  1  0
  6  5  1  0
  7  6  2  0
  8  6  1  0
  9 10  1  0
  9  8  1  0
 10 11  1  0
 12 11  1  1
 12 13  1  0
 12 14  1  0
 13  3  1  0
 14 20  1  0
 15 14  2  0
 17 16  1  1
 17 19  1  0
 18 17  1  0
 19 21  1  0
 19 20  1  6
 21 22  2  0
 21 23  1  0
M  END
$$$$
