GRV.pdb
     RDKit          3D

 23 22  0  0  1  0  0  0  0  0999 V2000
    6.3321  -21.3964   25.7015 N   0  0  0  0  0  0  0  0  0  0  0  0
    5.9141  -20.0497   26.0193 C   0  0  0  0  0  0  0  0  0  0  0  0
    6.8855  -19.0546   25.4937 C   0  0  0  0  0  0  0  0  0  0  0  0
    8.0982  -19.2153   25.7456 O   0  0  0  0  0  0  0  0  0  0  0  0
    6.7987  -13.3509   19.0306 N   0  0  0  0  0  0  0  0  0  0  0  0
    8.0760  -13.1919   19.6375 C   0  0  0  0  0  0  0  0  0  0  0  0
    8.8285  -12.1620   19.3576 N   0  0  0  0  0  0  0  0  0  0  0  0
    8.6041  -14.1200   20.5642 N   0  0  0  0  0  0  0  0  0  0  0  0
    7.7603  -15.1282   21.1668 C   0  0  0  0  0  0  0  0  0  0  0  0
    7.6427  -14.9892   22.6665 C   0  0  0  0  0  0  0  0  0  0  0  0
    6.7475  -16.0657   23.1838 C   0  0  0  0  0  0  0  0  0  0  0  0
    7.3837  -16.9034   24.2725 C   0  0  2  0  0  0  0  0  0  0  0  0
    6.4951  -17.9287   24.7173 N   0  0  0  0  0  0  0  0  0  0  0  0
    7.8918  -16.0545   25.3768 C   0  0  0  0  0  0  0  0  0  0  0  0
    7.1325  -15.2467   25.9727 O   0  0  0  0  0  0  0  0  0  0  0  0
    9.7457  -12.0894   19.8340 C   0  0  0  0  0  0  0  0  0  0  0  0
    8.4559  -15.9006   28.7043 C   0  0  1  0  0  0  0  0  0  0  0  0
    9.8444  -15.6327   28.1600 C   0  0  0  0  0  0  0  0  0  0  0  0
   10.4396  -14.5432   29.0281 C   0  0  2  0  0  0  0  0  0  0  0  0
    9.8178  -15.1379   26.7459 N   0  0  0  0  0  0  0  0  0  0  0  0
    9.2419  -16.0963   25.8250 C   0  0  0  0  0  0  0  0  0  0  0  0
   11.2149  -14.7890   26.3622 O   0  0  0  0  0  0  0  0  0  0  0  0
   11.8858  -15.5503   25.6478 O   0  0  0  0  0  0  0  0  0  0  0  0
  1  2  1  0
  3  4  2  0
  3  2  1  0
  6  5  1  0
  7  6  2  0
  8  6  1  0
  9 10  1  0
  9  8  1  0
 10 11  1  0
 12 11  1  6
 12 13  1  0
 12 14  1  0
 13  3  1  0
 14 20  1  0
 15 14  2  0
 17 16  1  1
 17 19  1  0
 18 17  1  0
 19 21  1  0
 19 20  1  6
 21 22  2  0
 21 23  1  0
M  END
$$$$
