GRV.pdb
     RDKit          3D

 23 22  0  0  1  0  0  0  0  0999 V2000
    7.5960  -12.6631   18.7666 N   0  0  0  0  0  0  0  0  0  0  0  0
    8.3600  -13.7069   19.4115 C   0  0  0  0  0  0  0  0  0  0  0  0
    7.7349  -14.1024   20.7012 C   0  0  0  0  0  0  0  0  0  0  0  0
    7.0849  -13.2453   21.3358 O   0  0  0  0  0  0  0  0  0  0  0  0
    8.3155  -18.3901   26.5861 N   0  0  0  0  0  0  0  0  0  0  0  0
    7.2900  -19.3765   26.5621 C   0  0  0  0  0  0  0  0  0  0  0  0
    6.8359  -19.8996   27.6690 N   0  0  0  0  0  0  0  0  0  0  0  0
    6.7075  -19.8460   25.3624 N   0  0  0  0  0  0  0  0  0  0  0  0
    7.0934  -19.2911   24.0839 C   0  0  0  0  0  0  0  0  0  0  0  0
    6.9578  -17.7878   24.0207 C   0  0  0  0  0  0  0  0  0  0  0  0
    7.3678  -17.3213   22.6633 C   0  0  0  0  0  0  0  0  0  0  0  0
    7.3002  -15.8178   22.4999 C   0  0  2  0  0  0  0  0  0  0  0  0
    7.8445  -15.4125   21.2437 N   0  0  0  0  0  0  0  0  0  0  0  0
    7.9197  -15.1229   23.6537 C   0  0  0  0  0  0  0  0  0  0  0  0
    9.1701  -15.0941   23.7954 O   0  0  0  0  0  0  0  0  0  0  0  0
    6.0381  -20.5572   27.6015 C   0  0  0  0  0  0  0  0  0  0  0  0
    6.0368  -11.8741   25.5128 C   0  0  2  0  0  0  0  0  0  0  0  0
    6.7392  -12.8353   26.4501 C   0  0  0  0  0  0  0  0  0  0  0  0
    7.4829  -11.9818   27.4568 C   0  0  2  0  0  0  0  0  0  0  0  0
    7.7399  -13.6960   25.7408 N   0  0  0  0  0  0  0  0  0  0  0  0
    7.1578  -14.4577   24.6550 C   0  0  0  0  0  0  0  0  0  0  0  0
    8.3677  -14.5896   26.7548 O   0  0  0  0  0  0  0  0  0  0  0  0
    7.8702  -15.6948   27.0215 O   0  0  0  0  0  0  0  0  0  0  0  0
  1  2  1  0
  3  4  2  0
  3  2  1  0
  6  5  1  0
  7  6  2  0
  8  6  1  0
  9 10  1  0
  9  8  1  0
 10 11  1  0
 12 11  1  1
 12 13  1  0
 12 14  1  0
 13  3  1  0
 14 20  1  0
 15 14  2  0
 17 16  1  1
 17 19  1  0
 18 17  1  0
 19 21  1  0
 19 20  1  6
 21 22  2  0
 21 23  1  0
M  END
$$$$
