GRV.pdb
     RDKit          3D

 23 22  0  0  1  0  0  0  0  0999 V2000
    7.9058  -12.5540   18.6211 N   0  0  0  0  0  0  0  0  0  0  0  0
    8.5680  -13.6297   19.3237 C   0  0  0  0  0  0  0  0  0  0  0  0
    7.9853  -13.8163   20.6787 C   0  0  0  0  0  0  0  0  0  0  0  0
    7.2653  -12.9100   21.1477 O   0  0  0  0  0  0  0  0  0  0  0  0
    8.0213  -20.7224   23.9340 N   0  0  0  0  0  0  0  0  0  0  0  0
    8.3572  -20.4439   22.5794 C   0  0  0  0  0  0  0  0  0  0  0  0
    9.3898  -21.0091   22.0142 N   0  0  0  0  0  0  0  0  0  0  0  0
    7.6106  -19.5544   21.7730 N   0  0  0  0  0  0  0  0  0  0  0  0
    6.4212  -18.9101   22.2846 C   0  0  0  0  0  0  0  0  0  0  0  0
    6.3980  -17.4196   22.0400 C   0  0  0  0  0  0  0  0  0  0  0  0
    7.4299  -16.7713   22.9019 C   0  0  0  0  0  0  0  0  0  0  0  0
    7.5379  -15.2766   22.6873 C   0  0  2  0  0  0  0  0  0  0  0  0
    8.2117  -14.9805   21.4638 N   0  0  0  0  0  0  0  0  0  0  0  0
    8.1449  -14.6069   23.8626 C   0  0  0  0  0  0  0  0  0  0  0  0
    9.3930  -14.5925   24.0249 O   0  0  0  0  0  0  0  0  0  0  0  0
    9.5835  -20.7807   21.0224 C   0  0  0  0  0  0  0  0  0  0  0  0
    5.6954  -12.9803   27.0500 C   0  0  1  0  0  0  0  0  0  0  0  0
    6.9684  -12.2817   26.6170 C   0  0  0  0  0  0  0  0  0  0  0  0
    6.5588  -11.2502   25.5860 C   0  0  1  0  0  0  0  0  0  0  0  0
    7.9443  -13.2196   25.9743 N   0  0  0  0  0  0  0  0  0  0  0  0
    7.3729  -13.9512   24.8623 C   0  0  0  0  0  0  0  0  0  0  0  0
    8.4470  -14.1432   27.0303 O   0  0  0  0  0  0  0  0  0  0  0  0
    9.1802  -13.7270   27.9409 O   0  0  0  0  0  0  0  0  0  0  0  0
  1  2  1  0
  3  4  2  0
  3  2  1  0
  6  5  1  0
  7  6  2  0
  8  6  1  0
  9 10  1  0
  9  8  1  0
 10 11  1  0
 12 11  1  1
 12 13  1  0
 12 14  1  0
 13  3  1  0
 14 20  1  0
 15 14  2  0
 17 16  1  1
 17 19  1  0
 18 17  1  0
 19 21  1  0
 19 20  1  6
 21 22  2  0
 21 23  1  0
M  END
$$$$
