GRV.pdb
     RDKit          3D

 23 22  0  0  1  0  0  0  0  0999 V2000
    4.9824  -19.9996   24.3062 N   0  0  0  0  0  0  0  0  0  0  0  0
    4.9519  -18.5628   24.4614 C   0  0  0  0  0  0  0  0  0  0  0  0
    6.2963  -17.9747   24.2229 C   0  0  0  0  0  0  0  0  0  0  0  0
    7.2322  -18.2995   24.9835 O   0  0  0  0  0  0  0  0  0  0  0  0
    7.0472  -13.6229   18.8222 N   0  0  0  0  0  0  0  0  0  0  0  0
    8.3280  -13.0150   18.9453 C   0  0  0  0  0  0  0  0  0  0  0  0
    8.5114  -11.7641   18.6184 N   0  0  0  0  0  0  0  0  0  0  0  0
    9.4635  -13.7114   19.4194 N   0  0  0  0  0  0  0  0  0  0  0  0
    9.3879  -15.1183   19.7456 C   0  0  0  0  0  0  0  0  0  0  0  0
    9.3074  -15.3829   21.2308 C   0  0  0  0  0  0  0  0  0  0  0  0
    7.9326  -15.8596   21.5639 C   0  0  0  0  0  0  0  0  0  0  0  0
    7.8042  -16.3780   22.9803 C   0  0  2  0  0  0  0  0  0  0  0  0
    6.5635  -17.0594   23.1676 N   0  0  0  0  0  0  0  0  0  0  0  0
    8.0302  -15.2983   23.9709 C   0  0  0  0  0  0  0  0  0  0  0  0
    7.9121  -14.0880   23.6458 O   0  0  0  0  0  0  0  0  0  0  0  0
    9.4822  -11.4024   18.6152 C   0  0  0  0  0  0  0  0  0  0  0  0
    6.6429  -13.0851   25.4544 C   0  0  1  0  0  0  0  0  0  0  0  0
    7.1735  -13.8707   26.6364 C   0  0  0  0  0  0  0  0  0  0  0  0
    7.3885  -12.8687   27.7520 C   0  0  2  0  0  0  0  0  0  0  0  0
    8.4875  -14.5278   26.3419 N   0  0  0  0  0  0  0  0  0  0  0  0
    8.3881  -15.5540   25.3244 C   0  0  0  0  0  0  0  0  0  0  0  0
    9.0132  -15.0819   27.6215 O   0  0  0  0  0  0  0  0  0  0  0  0
    9.0523  -16.3072   27.8140 O   0  0  0  0  0  0  0  0  0  0  0  0
  1  2  1  0
  3  4  2  0
  3  2  1  0
  6  5  1  0
  7  6  2  0
  8  6  1  0
  9 10  1  0
  9  8  1  0
 10 11  1  0
 12 11  1  6
 12 13  1  0
 12 14  1  0
 13  3  1  0
 14 20  1  0
 15 14  2  0
 17 16  1  1
 17 19  1  0
 18 17  1  0
 19 21  1  0
 19 20  1  6
 21 22  2  0
 21 23  1  0
M  END
$$$$
