GRV.pdb
     RDKit          3D

 23 22  0  0  1  0  0  0  0  0999 V2000
    7.7672  -12.4342   18.1842 N   0  0  0  0  0  0  0  0  0  0  0  0
    8.6670  -13.2746   18.9415 C   0  0  0  0  0  0  0  0  0  0  0  0
    8.0241  -13.7441   20.1972 C   0  0  0  0  0  0  0  0  0  0  0  0
    6.9309  -13.2408   20.5310 O   0  0  0  0  0  0  0  0  0  0  0  0
    9.8977  -20.3707   22.3671 N   0  0  0  0  0  0  0  0  0  0  0  0
    9.7939  -20.1441   20.9660 C   0  0  0  0  0  0  0  0  0  0  0  0
   10.7383  -20.5316   20.1517 N   0  0  0  0  0  0  0  0  0  0  0  0
    8.6842  -19.4969   20.3754 N   0  0  0  0  0  0  0  0  0  0  0  0
    7.5964  -18.9999   21.1886 C   0  0  0  0  0  0  0  0  0  0  0  0
    7.3916  -17.5084   21.0639 C   0  0  0  0  0  0  0  0  0  0  0  0
    8.1160  -16.8255   22.1762 C   0  0  0  0  0  0  0  0  0  0  0  0
    7.9498  -15.3209   22.1658 C   0  0  2  0  0  0  0  0  0  0  0  0
    8.5986  -14.7401   21.0342 N   0  0  0  0  0  0  0  0  0  0  0  0
    8.3793  -14.7233   23.4528 C   0  0  0  0  0  0  0  0  0  0  0  0
    9.5970  -14.5154   23.6943 O   0  0  0  0  0  0  0  0  0  0  0  0
   10.6006  -20.3671   19.1381 C   0  0  0  0  0  0  0  0  0  0  0  0
    6.2754  -11.8572   25.5033 C   0  0  1  0  0  0  0  0  0  0  0  0
    6.7670  -12.9823   26.3913 C   0  0  0  0  0  0  0  0  0  0  0  0
    7.3341  -12.3274   27.6340 C   0  0  2  0  0  0  0  0  0  0  0  0
    7.8584  -13.7823   25.7479 N   0  0  0  0  0  0  0  0  0  0  0  0
    7.4629  -14.3541   24.4772 C   0  0  0  0  0  0  0  0  0  0  0  0
    8.2735  -14.8395   26.7128 O   0  0  0  0  0  0  0  0  0  0  0  0
    7.7638  -15.9702   26.6734 O   0  0  0  0  0  0  0  0  0  0  0  0
  1  2  1  0
  3  4  2  0
  3  2  1  0
  6  5  1  0
  7  6  2  0
  8  6  1  0
  9 10  1  0
  9  8  1  0
 10 11  1  0
 12 11  1  1
 12 13  1  0
 12 14  1  0
 13  3  1  0
 14 20  1  0
 15 14  2  0
 17 16  1  1
 17 19  1  0
 18 17  1  0
 19 21  1  0
 19 20  1  6
 21 22  2  0
 21 23  1  0
M  END
$$$$
