DHH.pdb
     RDKit          3D

 29 30  0  0  1  0  0  0  0  0999 V2000
   18.2978  -13.7057  -20.5753 N   0  0  0  0  0  0  0  0  0  0  0  0
   19.1849  -12.5478  -20.4356 C   0  0  1  0  0  0  0  0  0  0  0  0
   19.2323  -11.8791  -21.7958 C   0  0  0  0  0  0  0  0  0  0  0  0
   20.2190  -12.6147  -22.6205 C   0  0  0  0  0  0  0  0  0  0  0  0
   20.9477  -13.5302  -22.1646 O   0  0  0  0  0  0  0  0  0  0  0  0
   18.5919  -11.6596  -19.4097 C   0  0  0  0  0  0  0  0  0  0  0  0
   17.3667  -11.3789  -19.3904 O   0  0  0  0  0  0  0  0  0  0  0  0
   20.3813  -12.3105  -23.9718 O   0  0  0  0  0  0  0  0  0  0  0  0
   19.4148  -11.1044  -18.4165 N   0  0  0  0  0  0  0  0  0  0  0  0
   18.9537  -10.3245  -17.2847 C   0  0  1  0  0  0  0  0  0  0  0  0
   19.4892  -10.9831  -16.0453 C   0  0  0  0  0  0  0  0  0  0  0  0
   18.7534  -12.2480  -15.7909 C   0  0  0  0  0  0  0  0  0  0  0  0
   17.4242  -12.3823  -15.3716 C   0  0  0  0  0  0  0  0  0  0  0  0
   17.1199  -13.6744  -15.2534 N   0  0  0  0  0  0  0  0  0  0  0  0
   18.2086  -14.3859  -15.5823 C   0  0  0  0  0  0  0  0  0  0  0  0
   19.1864  -13.5253  -15.9039 N   0  0  0  0  0  0  0  0  0  0  0  0
   19.3874   -8.9447  -17.4666 C   0  0  0  0  0  0  0  0  0  0  0  0
   20.6110   -8.7132  -17.6512 O   0  0  0  0  0  0  0  0  0  0  0  0
   18.4412   -7.8411  -17.4386 N   0  0  0  0  0  0  0  0  0  0  0  0
   18.9389   -6.5049  -17.6458 C   0  0  1  0  0  0  0  0  0  0  0  0
   18.1930   -5.7305  -18.6714 C   0  0  0  0  0  0  0  0  0  0  0  0
   18.6235   -4.3730  -18.9433 C   0  0  0  0  0  0  0  0  0  0  0  0
   19.8142   -3.7488  -18.6980 C   0  0  0  0  0  0  0  0  0  0  0  0
   19.7654   -2.4679  -19.1539 N   0  0  0  0  0  0  0  0  0  0  0  0
   18.5397   -2.3302  -19.6736 C   0  0  0  0  0  0  0  0  0  0  0  0
   17.8410   -3.4506  -19.5599 N   0  0  0  0  0  0  0  0  0  0  0  0
   19.0733   -5.8120  -16.3505 C   0  0  0  0  0  0  0  0  0  0  0  0
   18.8204   -6.3867  -15.1288 O   0  0  0  0  0  0  0  0  0  0  0  0
   19.4438   -4.6145  -16.3637 O   0  0  0  0  0  0  0  0  0  0  0  0
  2  1  1  6
  3  4  1  0
  3  2  1  0
  4  5  2  0
  6  2  1  0
  6  7  2  0
  8  4  1  0
  9  6  1  0
 10  9  1  0
 10 11  1  1
 11 12  1  0
 12 16  1  0
 12 13  2  0
 13 14  1  0
 15 14  1  0
 16 15  2  0
 17 10  1  0
 18 17  2  0
 19 17  1  0
 20 21  1  6
 20 19  1  0
 21 22  1  0
 22 23  2  0
 22 26  1  0
 23 24  1  0
 24 25  1  0
 26 25  2  0
 27 28  1  0
 27 20  1  0
 29 27  2  0
M  END
$$$$
