DHH.pdb
     RDKit          3D

 29 30  0  0  1  0  0  0  0  0999 V2000
   22.8631  -33.2753  -12.6909 N   0  0  0  0  0  0  0  0  0  0  0  0
   23.9111  -33.2112  -11.6688 C   0  0  1  0  0  0  0  0  0  0  0  0
   25.0227  -32.3586  -12.2493 C   0  0  0  0  0  0  0  0  0  0  0  0
   25.7189  -33.1706  -13.2744 C   0  0  0  0  0  0  0  0  0  0  0  0
   25.4634  -34.3829  -13.4792 O   0  0  0  0  0  0  0  0  0  0  0  0
   23.3152  -32.5876  -10.4650 C   0  0  0  0  0  0  0  0  0  0  0  0
   23.9966  -32.3035   -9.4476 O   0  0  0  0  0  0  0  0  0  0  0  0
   26.7122  -32.6048  -14.0732 O   0  0  0  0  0  0  0  0  0  0  0  0
   21.9415  -32.2969  -10.4450 N   0  0  0  0  0  0  0  0  0  0  0  0
   21.2197  -31.7340   -9.3208 C   0  0  1  0  0  0  0  0  0  0  0  0
   19.9422  -31.1556   -9.8595 C   0  0  0  0  0  0  0  0  0  0  0  0
   20.2142  -29.8396  -10.4922 C   0  0  0  0  0  0  0  0  0  0  0  0
   21.4380  -29.1606  -10.5364 C   0  0  0  0  0  0  0  0  0  0  0  0
   21.2886  -28.0100  -11.1921 N   0  0  0  0  0  0  0  0  0  0  0  0
   20.0066  -27.9180  -11.5762 C   0  0  0  0  0  0  0  0  0  0  0  0
   19.3658  -29.0185  -11.1536 N   0  0  0  0  0  0  0  0  0  0  0  0
   21.0314  -32.7791   -8.3221 C   0  0  0  0  0  0  0  0  0  0  0  0
   21.0058  -33.9801   -8.6988 O   0  0  0  0  0  0  0  0  0  0  0  0
   20.8738  -32.4626   -6.9118 N   0  0  0  0  0  0  0  0  0  0  0  0
   20.7472  -33.5494   -5.9744 C   0  0  1  0  0  0  0  0  0  0  0  0
   21.8433  -34.5497   -6.0518 C   0  0  0  0  0  0  0  0  0  0  0  0
   21.8450  -35.6314   -5.0863 C   0  0  0  0  0  0  0  0  0  0  0  0
   20.8106  -36.2978   -4.4917 C   0  0  0  0  0  0  0  0  0  0  0  0
   21.2984  -37.2627   -3.6659 N   0  0  0  0  0  0  0  0  0  0  0  0
   22.6294  -37.1698   -3.7706 C   0  0  0  0  0  0  0  0  0  0  0  0
   22.9793  -36.2058   -4.6101 N   0  0  0  0  0  0  0  0  0  0  0  0
   20.5133  -33.0189   -4.6180 C   0  0  0  0  0  0  0  0  0  0  0  0
   20.3409  -31.6891   -4.3198 O   0  0  0  0  0  0  0  0  0  0  0  0
   20.4688  -33.8374   -3.6696 O   0  0  0  0  0  0  0  0  0  0  0  0
  2  1  1  6
  3  4  1  0
  3  2  1  0
  4  5  2  0
  6  2  1  0
  6  7  2  0
  8  4  1  0
  9  6  1  0
 10  9  1  0
 10 11  1  6
 11 12  1  0
 12 16  1  0
 12 13  2  0
 13 14  1  0
 15 14  1  0
 16 15  2  0
 17 10  1  0
 18 17  2  0
 19 17  1  0
 20 21  1  1
 20 19  1  0
 21 22  1  0
 22 23  2  0
 22 26  1  0
 23 24  1  0
 24 25  1  0
 26 25  2  0
 27 28  1  0
 27 20  1  0
 29 27  2  0
M  END
$$$$
