DHH.pdb
     RDKit          3D

 29 30  0  0  1  0  0  0  0  0999 V2000
   27.3286  -36.4117   -1.6265 N   0  0  0  0  0  0  0  0  0  0  0  0
   28.0031  -35.2760   -0.9920 C   0  0  1  0  0  0  0  0  0  0  0  0
   27.4317  -34.0266   -1.6338 C   0  0  0  0  0  0  0  0  0  0  0  0
   28.1417  -33.8198   -2.9175 C   0  0  0  0  0  0  0  0  0  0  0  0
   29.0777  -34.5588   -3.3107 O   0  0  0  0  0  0  0  0  0  0  0  0
   27.6984  -35.3355    0.4560 C   0  0  0  0  0  0  0  0  0  0  0  0
   26.5295  -35.2162    0.9026 O   0  0  0  0  0  0  0  0  0  0  0  0
   27.7885  -32.7676   -3.7620 O   0  0  0  0  0  0  0  0  0  0  0  0
   28.7421  -35.5324    1.3747 N   0  0  0  0  0  0  0  0  0  0  0  0
   28.5880  -35.6155    2.8138 C   0  0  1  0  0  0  0  0  0  0  0  0
   29.1110  -36.9582    3.2385 C   0  0  0  0  0  0  0  0  0  0  0  0
   28.0481  -37.9837    3.0818 C   0  0  0  0  0  0  0  0  0  0  0  0
   26.7469  -37.7854    2.6041 C   0  0  0  0  0  0  0  0  0  0  0  0
   26.0868  -38.9431    2.6078 N   0  0  0  0  0  0  0  0  0  0  0  0
   26.9166  -39.8891    3.0726 C   0  0  0  0  0  0  0  0  0  0  0  0
   28.0925  -39.3083    3.3559 N   0  0  0  0  0  0  0  0  0  0  0  0
   29.2786  -34.4834    3.4189 C   0  0  0  0  0  0  0  0  0  0  0  0
   30.4100  -34.1555    2.9746 O   0  0  0  0  0  0  0  0  0  0  0  0
   28.6902  -33.7330    4.5165 N   0  0  0  0  0  0  0  0  0  0  0  0
   29.4369  -32.6347    5.0752 C   0  0  1  0  0  0  0  0  0  0  0  0
   29.8196  -31.5941    4.0858 C   0  0  0  0  0  0  0  0  0  0  0  0
   31.0379  -31.7950    3.3260 C   0  0  0  0  0  0  0  0  0  0  0  0
   31.7049  -32.9413    2.9963 C   0  0  0  0  0  0  0  0  0  0  0  0
   32.7969  -32.6388    2.2435 N   0  0  0  0  0  0  0  0  0  0  0  0
   32.7787  -31.3059    2.1244 C   0  0  0  0  0  0  0  0  0  0  0  0
   31.7413  -30.7807    2.7604 N   0  0  0  0  0  0  0  0  0  0  0  0
   28.7407  -32.1062    6.2634 C   0  0  0  0  0  0  0  0  0  0  0  0
   27.4083  -32.2986    6.5364 O   0  0  0  0  0  0  0  0  0  0  0  0
   29.4103  -31.4336    7.0824 O   0  0  0  0  0  0  0  0  0  0  0  0
  2  1  1  6
  3  4  1  0
  3  2  1  0
  4  5  2  0
  6  2  1  0
  6  7  2  0
  8  4  1  0
  9  6  1  0
 10  9  1  0
 10 11  1  1
 11 12  1  0
 12 16  1  0
 12 13  2  0
 13 14  1  0
 15 14  1  0
 16 15  2  0
 17 10  1  0
 18 17  2  0
 19 17  1  0
 20 21  1  6
 20 19  1  0
 21 22  1  0
 22 23  2  0
 22 26  1  0
 23 24  1  0
 24 25  1  0
 26 25  2  0
 27 28  1  0
 27 20  1  0
 29 27  2  0
M  END
$$$$
