DHH.pdb
     RDKit          3D

 29 30  0  0  1  0  0  0  0  0999 V2000
   15.5483  -12.4578    7.8897 N   0  0  0  0  0  0  0  0  0  0  0  0
   16.1512  -13.7318    8.2906 C   0  0  1  0  0  0  0  0  0  0  0  0
   15.4103  -14.1825    9.5346 C   0  0  0  0  0  0  0  0  0  0  0  0
   16.2359  -13.8074   10.7061 C   0  0  0  0  0  0  0  0  0  0  0  0
   17.3603  -13.2576   10.6054 O   0  0  0  0  0  0  0  0  0  0  0  0
   15.9643  -14.6802    7.1687 C   0  0  0  0  0  0  0  0  0  0  0  0
   14.9152  -14.7048    6.4768 O   0  0  0  0  0  0  0  0  0  0  0  0
   15.7839  -14.0574   12.0016 O   0  0  0  0  0  0  0  0  0  0  0  0
   16.9870  -15.5898    6.8546 N   0  0  0  0  0  0  0  0  0  0  0  0
   16.9506  -16.5507    5.7696 C   0  0  1  0  0  0  0  0  0  0  0  0
   18.1477  -16.2846    4.9019 C   0  0  0  0  0  0  0  0  0  0  0  0
   17.8444  -15.1846    3.9512 C   0  0  0  0  0  0  0  0  0  0  0  0
   16.6513  -14.4583    3.8527 C   0  0  0  0  0  0  0  0  0  0  0  0
   16.7573  -13.5519    2.8815 N   0  0  0  0  0  0  0  0  0  0  0  0
   17.9814  -13.6647    2.3443 C   0  0  0  0  0  0  0  0  0  0  0  0
   18.6299  -14.6461    2.9896 N   0  0  0  0  0  0  0  0  0  0  0  0
   16.9089  -17.8913    6.3404 C   0  0  0  0  0  0  0  0  0  0  0  0
   17.6155  -18.1419    7.3518 O   0  0  0  0  0  0  0  0  0  0  0  0
   16.0739  -18.9351    5.7681 N   0  0  0  0  0  0  0  0  0  0  0  0
   15.9588  -20.1860    6.4737 C   0  0  1  0  0  0  0  0  0  0  0  0
   14.5598  -20.6470    6.6694 C   0  0  0  0  0  0  0  0  0  0  0  0
   13.7281  -19.9151    7.6046 C   0  0  0  0  0  0  0  0  0  0  0  0
   14.0645  -19.0923    8.6426 C   0  0  0  0  0  0  0  0  0  0  0  0
   12.9374  -18.6051    9.2283 N   0  0  0  0  0  0  0  0  0  0  0  0
   11.9258  -19.1405    8.5346 C   0  0  0  0  0  0  0  0  0  0  0  0
   12.3711  -19.9242    7.5630 N   0  0  0  0  0  0  0  0  0  0  0  0
   16.8424  -21.1939    5.8577 C   0  0  0  0  0  0  0  0  0  0  0  0
   17.1045  -22.4319    6.3919 O   0  0  0  0  0  0  0  0  0  0  0  0
   17.3940  -20.9016    4.7707 O   0  0  0  0  0  0  0  0  0  0  0  0
  2  1  1  6
  3  4  1  0
  3  2  1  0
  4  5  2  0
  6  2  1  0
  6  7  2  0
  8  4  1  0
  9  6  1  0
 10  9  1  0
 10 11  1  6
 11 12  1  0
 12 16  1  0
 12 13  2  0
 13 14  1  0
 15 14  1  0
 16 15  2  0
 17 10  1  0
 18 17  2  0
 19 17  1  0
 20 21  1  6
 20 19  1  0
 21 22  1  0
 22 23  2  0
 22 26  1  0
 23 24  1  0
 24 25  1  0
 26 25  2  0
 27 28  1  0
 27 20  1  0
 29 27  2  0
M  END
$$$$
