DHH.pdb
     RDKit          3D

 29 30  0  0  1  0  0  0  0  0999 V2000
   24.9227  -11.8356  -19.2497 N   0  0  0  0  0  0  0  0  0  0  0  0
   24.3096  -11.6701  -17.9290 C   0  0  1  0  0  0  0  0  0  0  0  0
   25.3779  -11.0731  -17.0337 C   0  0  0  0  0  0  0  0  0  0  0  0
   26.3580  -12.1430  -16.7340 C   0  0  0  0  0  0  0  0  0  0  0  0
   27.5919  -11.9339  -16.6307 O   0  0  0  0  0  0  0  0  0  0  0  0
   23.1565  -10.7549  -18.0900 C   0  0  0  0  0  0  0  0  0  0  0  0
   23.2347   -9.6834  -18.7426 O   0  0  0  0  0  0  0  0  0  0  0  0
   25.9367  -13.4597  -16.5502 O   0  0  0  0  0  0  0  0  0  0  0  0
   21.9257  -11.0828  -17.4989 N   0  0  0  0  0  0  0  0  0  0  0  0
   20.7168  -10.2869  -17.5826 C   0  0  1  0  0  0  0  0  0  0  0  0
   19.5768  -11.1668  -17.1547 C   0  0  0  0  0  0  0  0  0  0  0  0
   18.2906  -10.4469  -17.3375 C   0  0  0  0  0  0  0  0  0  0  0  0
   18.0797   -9.2635  -18.0557 C   0  0  0  0  0  0  0  0  0  0  0  0
   16.7924   -8.9249  -17.9935 N   0  0  0  0  0  0  0  0  0  0  0  0
   16.1580   -9.8500  -17.2577 C   0  0  0  0  0  0  0  0  0  0  0  0
   17.0616  -10.7612  -16.8661 N   0  0  0  0  0  0  0  0  0  0  0  0
   20.8922   -9.0922  -16.7661 C   0  0  0  0  0  0  0  0  0  0  0  0
   21.7218   -9.1212  -15.8196 O   0  0  0  0  0  0  0  0  0  0  0  0
   20.1333   -7.8787  -17.0224 N   0  0  0  0  0  0  0  0  0  0  0  0
   20.3767   -6.7282  -16.1899 C   0  0  1  0  0  0  0  0  0  0  0  0
   21.8033   -6.3182  -16.1214 C   0  0  0  0  0  0  0  0  0  0  0  0
   22.1307   -5.1218  -15.3709 C   0  0  0  0  0  0  0  0  0  0  0  0
   22.1865   -4.9014  -14.0234 C   0  0  0  0  0  0  0  0  0  0  0  0
   22.5674   -3.6179  -13.7818 N   0  0  0  0  0  0  0  0  0  0  0  0
   22.7395   -3.0726  -14.9919 C   0  0  0  0  0  0  0  0  0  0  0  0
   22.4854   -3.9480  -15.9540 N   0  0  0  0  0  0  0  0  0  0  0  0
   19.4554   -5.6368  -16.5587 C   0  0  0  0  0  0  0  0  0  0  0  0
   19.3298   -4.4557  -15.8688 O   0  0  0  0  0  0  0  0  0  0  0  0
   18.7356   -5.7969  -17.5724 O   0  0  0  0  0  0  0  0  0  0  0  0
  2  1  1  6
  3  4  1  0
  3  2  1  0
  4  5  2  0
  6  2  1  0
  6  7  2  0
  8  4  1  0
  9  6  1  0
 10  9  1  0
 10 11  1  1
 11 12  1  0
 12 16  1  0
 12 13  2  0
 13 14  1  0
 15 14  1  0
 16 15  2  0
 17 10  1  0
 18 17  2  0
 19 17  1  0
 20 21  1  6
 20 19  1  0
 21 22  1  0
 22 23  2  0
 22 26  1  0
 23 24  1  0
 24 25  1  0
 26 25  2  0
 27 28  1  0
 27 20  1  0
 29 27  2  0
M  END
$$$$
