DHH.pdb
     RDKit          3D

 29 30  0  0  1  0  0  0  0  0999 V2000
   27.9485  -20.7235  -16.2581 N   0  0  0  0  0  0  0  0  0  0  0  0
   26.7385  -19.9751  -15.9072 C   0  0  1  0  0  0  0  0  0  0  0  0
   25.8771  -19.9462  -17.1548 C   0  0  0  0  0  0  0  0  0  0  0  0
   26.4678  -18.9531  -18.0820 C   0  0  0  0  0  0  0  0  0  0  0  0
   27.1771  -17.9913  -17.6964 O   0  0  0  0  0  0  0  0  0  0  0  0
   26.0754  -20.7030  -14.8012 C   0  0  0  0  0  0  0  0  0  0  0  0
   25.7736  -21.9206  -14.8832 O   0  0  0  0  0  0  0  0  0  0  0  0
   26.2531  -19.0505  -19.4566 O   0  0  0  0  0  0  0  0  0  0  0  0
   25.7670  -20.0224  -13.6123 N   0  0  0  0  0  0  0  0  0  0  0  0
   25.0551  -20.5875  -12.4829 C   0  0  1  0  0  0  0  0  0  0  0  0
   25.7668  -20.1355  -11.2395 C   0  0  0  0  0  0  0  0  0  0  0  0
   27.1202  -20.7449  -11.1859 C   0  0  0  0  0  0  0  0  0  0  0  0
   27.6885  -21.6234  -12.1164 C   0  0  0  0  0  0  0  0  0  0  0  0
   28.9195  -21.9535  -11.7273 N   0  0  0  0  0  0  0  0  0  0  0  0
   29.1712  -21.3181  -10.5729 C   0  0  0  0  0  0  0  0  0  0  0  0
   28.0881  -20.5941  -10.2521 N   0  0  0  0  0  0  0  0  0  0  0  0
   23.6600  -20.1720  -12.5608 C   0  0  0  0  0  0  0  0  0  0  0  0
   23.3941  -18.9417  -12.5814 O   0  0  0  0  0  0  0  0  0  0  0  0
   22.5798  -21.1438  -12.6143 N   0  0  0  0  0  0  0  0  0  0  0  0
   21.3005  -20.7206  -13.1244 C   0  0  1  0  0  0  0  0  0  0  0  0
   21.3680  -20.0313  -14.4390 C   0  0  0  0  0  0  0  0  0  0  0  0
   20.1303  -19.5407  -15.0129 C   0  0  0  0  0  0  0  0  0  0  0  0
   19.5550  -18.3019  -14.9667 C   0  0  0  0  0  0  0  0  0  0  0  0
   18.3960  -18.3053  -15.6791 N   0  0  0  0  0  0  0  0  0  0  0  0
   18.2820  -19.5522  -16.1518 C   0  0  0  0  0  0  0  0  0  0  0  0
   19.3021  -20.3065  -15.7685 N   0  0  0  0  0  0  0  0  0  0  0  0
   20.3464  -21.8449  -13.0844 C   0  0  0  0  0  0  0  0  0  0  0  0
   20.7026  -23.1660  -12.9632 O   0  0  0  0  0  0  0  0  0  0  0  0
   19.1244  -21.5779  -13.1669 O   0  0  0  0  0  0  0  0  0  0  0  0
  2  1  1  6
  3  4  1  0
  3  2  1  0
  4  5  2  0
  6  2  1  0
  6  7  2  0
  8  4  1  0
  9  6  1  0
 10  9  1  0
 10 11  1  1
 11 12  1  0
 12 16  1  0
 12 13  2  0
 13 14  1  0
 15 14  1  0
 16 15  2  0
 17 10  1  0
 18 17  2  0
 19 17  1  0
 20 21  1  6
 20 19  1  0
 21 22  1  0
 22 23  2  0
 22 26  1  0
 23 24  1  0
 24 25  1  0
 26 25  2  0
 27 28  1  0
 27 20  1  0
 29 27  2  0
M  END
$$$$
