DHH.pdb
     RDKit          3D

 29 30  0  0  1  0  0  0  0  0999 V2000
   19.1811   -7.8793  -14.5684 N   0  0  0  0  0  0  0  0  0  0  0  0
   17.7563   -7.7672  -14.8922 C   0  0  1  0  0  0  0  0  0  0  0  0
   17.6662   -6.8917  -16.1270 C   0  0  0  0  0  0  0  0  0  0  0  0
   17.9350   -5.4970  -15.7057 C   0  0  0  0  0  0  0  0  0  0  0  0
   17.7029   -5.0736  -14.5465 O   0  0  0  0  0  0  0  0  0  0  0  0
   17.2549   -9.1358  -15.1541 C   0  0  0  0  0  0  0  0  0  0  0  0
   16.0820   -9.3583  -15.5477 O   0  0  0  0  0  0  0  0  0  0  0  0
   18.4706   -4.5752  -16.6047 O   0  0  0  0  0  0  0  0  0  0  0  0
   18.1087  -10.2338  -14.9608 N   0  0  0  0  0  0  0  0  0  0  0  0
   17.8027  -11.6063  -15.3133 C   0  0  1  0  0  0  0  0  0  0  0  0
   19.1087  -12.3443  -15.3951 C   0  0  0  0  0  0  0  0  0  0  0  0
   19.4810  -12.5499  -16.8182 C   0  0  0  0  0  0  0  0  0  0  0  0
   18.7148  -12.2320  -17.9462 C   0  0  0  0  0  0  0  0  0  0  0  0
   19.3840  -12.5624  -19.0502 N   0  0  0  0  0  0  0  0  0  0  0  0
   20.5617  -13.0854  -18.6772 C   0  0  0  0  0  0  0  0  0  0  0  0
   20.6151  -13.0759  -17.3366 N   0  0  0  0  0  0  0  0  0  0  0  0
   16.8720  -12.1406  -14.3268 C   0  0  0  0  0  0  0  0  0  0  0  0
   16.7602  -11.5538  -13.2186 O   0  0  0  0  0  0  0  0  0  0  0  0
   16.0778  -13.3282  -14.5968 N   0  0  0  0  0  0  0  0  0  0  0  0
   15.1167  -13.7503  -13.6098 C   0  0  1  0  0  0  0  0  0  0  0  0
   14.1824  -12.6800  -13.1744 C   0  0  0  0  0  0  0  0  0  0  0  0
   13.1181  -13.0392  -12.2579 C   0  0  0  0  0  0  0  0  0  0  0  0
   12.9886  -12.8270  -10.9141 C   0  0  0  0  0  0  0  0  0  0  0  0
   11.7972  -13.3220  -10.4821 N   0  0  0  0  0  0  0  0  0  0  0  0
   11.2153  -13.8305  -11.5748 C   0  0  0  0  0  0  0  0  0  0  0  0
   11.9821  -13.6745  -12.6444 N   0  0  0  0  0  0  0  0  0  0  0  0
   14.4472  -14.9866  -14.0564 C   0  0  0  0  0  0  0  0  0  0  0  0
   13.7644  -15.8457  -13.2303 O   0  0  0  0  0  0  0  0  0  0  0  0
   14.5048  -15.2751  -15.2749 O   0  0  0  0  0  0  0  0  0  0  0  0
  2  1  1  6
  3  4  1  0
  3  2  1  0
  4  5  2  0
  6  2  1  0
  6  7  2  0
  8  4  1  0
  9  6  1  0
 10  9  1  0
 10 11  1  1
 11 12  1  0
 12 16  1  0
 12 13  2  0
 13 14  1  0
 15 14  1  0
 16 15  2  0
 17 10  1  0
 18 17  2  0
 19 17  1  0
 20 21  1  6
 20 19  1  0
 21 22  1  0
 22 23  2  0
 22 26  1  0
 23 24  1  0
 24 25  1  0
 26 25  2  0
 27 28  1  0
 27 20  1  0
 29 27  2  0
M  END
$$$$
