DHH.pdb
     RDKit          3D

 29 30  0  0  1  0  0  0  0  0999 V2000
   23.9551  -21.2791  -19.3267 N   0  0  0  0  0  0  0  0  0  0  0  0
   24.2005  -20.2802  -18.2830 C   0  0  1  0  0  0  0  0  0  0  0  0
   22.8758  -19.5844  -18.0373 C   0  0  0  0  0  0  0  0  0  0  0  0
   22.6819  -18.5971  -19.1248 C   0  0  0  0  0  0  0  0  0  0  0  0
   23.6319  -18.1053  -19.7823 O   0  0  0  0  0  0  0  0  0  0  0  0
   24.6688  -21.0058  -17.0799 C   0  0  0  0  0  0  0  0  0  0  0  0
   24.0838  -22.0284  -16.6413 O   0  0  0  0  0  0  0  0  0  0  0  0
   21.4019  -18.1639  -19.4696 O   0  0  0  0  0  0  0  0  0  0  0  0
   25.8056  -20.5474  -16.3947 N   0  0  0  0  0  0  0  0  0  0  0  0
   26.3507  -21.1355  -15.1869 C   0  0  1  0  0  0  0  0  0  0  0  0
   27.8311  -20.8806  -15.1994 C   0  0  0  0  0  0  0  0  0  0  0  0
   28.5257  -21.9891  -15.9028 C   0  0  0  0  0  0  0  0  0  0  0  0
   27.9450  -23.1464  -16.4361 C   0  0  0  0  0  0  0  0  0  0  0  0
   28.8885  -23.9060  -16.9917 N   0  0  0  0  0  0  0  0  0  0  0  0
   30.0652  -23.2805  -16.8372 C   0  0  0  0  0  0  0  0  0  0  0  0
   29.8422  -22.1306  -16.1830 N   0  0  0  0  0  0  0  0  0  0  0  0
   25.6532  -20.5669  -14.0402 C   0  0  0  0  0  0  0  0  0  0  0  0
   25.2386  -19.3803  -14.1101 O   0  0  0  0  0  0  0  0  0  0  0  0
   25.4298  -21.3382  -12.8280 N   0  0  0  0  0  0  0  0  0  0  0  0
   24.5747  -20.7837  -11.8095 C   0  0  1  0  0  0  0  0  0  0  0  0
   23.1226  -20.9350  -12.0861 C   0  0  0  0  0  0  0  0  0  0  0  0
   22.1889  -20.5303  -11.0535 C   0  0  0  0  0  0  0  0  0  0  0  0
   22.3316  -19.6521  -10.0162 C   0  0  0  0  0  0  0  0  0  0  0  0
   21.1680  -19.5733   -9.3158 N   0  0  0  0  0  0  0  0  0  0  0  0
   20.3290  -20.4085   -9.9402 C   0  0  0  0  0  0  0  0  0  0  0  0
   20.9137  -20.9902  -10.9776 N   0  0  0  0  0  0  0  0  0  0  0  0
   24.9878  -21.2780  -10.4824 C   0  0  0  0  0  0  0  0  0  0  0  0
   24.7627  -20.6172   -9.2994 O   0  0  0  0  0  0  0  0  0  0  0  0
   25.5868  -22.3779  -10.4287 O   0  0  0  0  0  0  0  0  0  0  0  0
  2  1  1  6
  3  4  1  0
  3  2  1  0
  4  5  2  0
  6  2  1  0
  6  7  2  0
  8  4  1  0
  9  6  1  0
 10  9  1  0
 10 11  1  1
 11 12  1  0
 12 16  1  0
 12 13  2  0
 13 14  1  0
 15 14  1  0
 16 15  2  0
 17 10  1  0
 18 17  2  0
 19 17  1  0
 20 21  1  6
 20 19  1  0
 21 22  1  0
 22 23  2  0
 22 26  1  0
 23 24  1  0
 24 25  1  0
 26 25  2  0
 27 28  1  0
 27 20  1  0
 29 27  2  0
M  END
$$$$
