DHH.pdb
     RDKit          3D

 29 30  0  0  1  0  0  0  0  0999 V2000
   17.8636  -15.4537  -16.4669 N   0  0  0  0  0  0  0  0  0  0  0  0
   18.4032  -14.6764  -15.3480 C   0  0  1  0  0  0  0  0  0  0  0  0
   19.5993  -15.4498  -14.8279 C   0  0  0  0  0  0  0  0  0  0  0  0
   19.0838  -16.6340  -14.1021 C   0  0  0  0  0  0  0  0  0  0  0  0
   17.9565  -16.6631  -13.5497 O   0  0  0  0  0  0  0  0  0  0  0  0
   18.7975  -13.3522  -15.8809 C   0  0  0  0  0  0  0  0  0  0  0  0
   19.3101  -13.2114  -17.0200 O   0  0  0  0  0  0  0  0  0  0  0  0
   19.8514  -17.7940  -14.0015 O   0  0  0  0  0  0  0  0  0  0  0  0
   18.5972  -12.2040  -15.0976 N   0  0  0  0  0  0  0  0  0  0  0  0
   18.9876  -10.8578  -15.4677 C   0  0  1  0  0  0  0  0  0  0  0  0
   18.0492   -9.9163  -14.7678 C   0  0  0  0  0  0  0  0  0  0  0  0
   16.7581   -9.8578  -15.4996 C   0  0  0  0  0  0  0  0  0  0  0  0
   16.4120  -10.5617  -16.6595 C   0  0  0  0  0  0  0  0  0  0  0  0
   15.1674  -10.2489  -17.0190 N   0  0  0  0  0  0  0  0  0  0  0  0
   14.6919   -9.3637  -16.1302 C   0  0  0  0  0  0  0  0  0  0  0  0
   15.6504   -9.1321  -15.2204 N   0  0  0  0  0  0  0  0  0  0  0  0
   20.3918  -10.6723  -15.1232 C   0  0  0  0  0  0  0  0  0  0  0  0
   20.9969  -11.6000  -14.5248 O   0  0  0  0  0  0  0  0  0  0  0  0
   21.0998   -9.4464  -15.4548 N   0  0  0  0  0  0  0  0  0  0  0  0
   22.5245   -9.3984  -15.2451 C   0  0  1  0  0  0  0  0  0  0  0  0
   23.2614  -10.5592  -15.8086 C   0  0  0  0  0  0  0  0  0  0  0  0
   24.7039  -10.5823  -15.6652 C   0  0  0  0  0  0  0  0  0  0  0  0
   25.5470   -9.7434  -14.9922 C   0  0  0  0  0  0  0  0  0  0  0  0
   26.8294  -10.1793  -15.1196 N   0  0  0  0  0  0  0  0  0  0  0  0
   26.7482  -11.2834  -15.8717 C   0  0  0  0  0  0  0  0  0  0  0  0
   25.4933  -11.5438  -16.2092 N   0  0  0  0  0  0  0  0  0  0  0  0
   23.0516   -8.0883  -15.6715 C   0  0  0  0  0  0  0  0  0  0  0  0
   24.2913   -7.6003  -15.3374 O   0  0  0  0  0  0  0  0  0  0  0  0
   22.3178   -7.3683  -16.3889 O   0  0  0  0  0  0  0  0  0  0  0  0
  2  1  1  6
  3  4  1  0
  3  2  1  0
  4  5  2  0
  6  2  1  0
  6  7  2  0
  8  4  1  0
  9  6  1  0
 10  9  1  0
 10 11  1  1
 11 12  1  0
 12 16  1  0
 12 13  2  0
 13 14  1  0
 15 14  1  0
 16 15  2  0
 17 10  1  0
 18 17  2  0
 19 17  1  0
 20 21  1  6
 20 19  1  0
 21 22  1  0
 22 23  2  0
 22 26  1  0
 23 24  1  0
 24 25  1  0
 26 25  2  0
 27 28  1  0
 27 20  1  0
 29 27  2  0
M  END
$$$$
