DHH.pdb
     RDKit          3D

 29 30  0  0  1  0  0  0  0  0999 V2000
   19.5612  -10.6192  -16.7887 N   0  0  0  0  0  0  0  0  0  0  0  0
   20.5507   -9.5386  -16.7661 C   0  0  1  0  0  0  0  0  0  0  0  0
   20.7509   -9.1122  -18.2075 C   0  0  0  0  0  0  0  0  0  0  0  0
   21.4682  -10.2073  -18.9012 C   0  0  0  0  0  0  0  0  0  0  0  0
   20.9537  -10.8900  -19.8210 O   0  0  0  0  0  0  0  0  0  0  0  0
   19.9877   -8.4427  -15.9446 C   0  0  0  0  0  0  0  0  0  0  0  0
   18.7998   -8.0508  -16.0694 O   0  0  0  0  0  0  0  0  0  0  0  0
   22.7784  -10.5312  -18.5499 O   0  0  0  0  0  0  0  0  0  0  0  0
   20.7973   -7.8097  -14.9877 N   0  0  0  0  0  0  0  0  0  0  0  0
   20.3657   -6.7591  -14.0867 C   0  0  1  0  0  0  0  0  0  0  0  0
   20.6423   -7.2334  -12.6884 C   0  0  0  0  0  0  0  0  0  0  0  0
   19.5250   -8.0922  -12.2192 C   0  0  0  0  0  0  0  0  0  0  0  0
   18.3261   -8.3604  -12.8911 C   0  0  0  0  0  0  0  0  0  0  0  0
   17.5720   -9.1754  -12.1541 N   0  0  0  0  0  0  0  0  0  0  0  0
   18.2415   -9.4464  -11.0236 C   0  0  0  0  0  0  0  0  0  0  0  0
   19.4130   -8.7939  -11.0674 N   0  0  0  0  0  0  0  0  0  0  0  0
   21.0542   -5.5267  -14.4499 C   0  0  0  0  0  0  0  0  0  0  0  0
   22.3118   -5.4970  -14.3985 O   0  0  0  0  0  0  0  0  0  0  0  0
   20.3218   -4.3417  -14.8664 N   0  0  0  0  0  0  0  0  0  0  0  0
   21.0704   -3.1866  -15.2924 C   0  0  1  0  0  0  0  0  0  0  0  0
   20.9844   -2.9101  -16.7499 C   0  0  0  0  0  0  0  0  0  0  0  0
   21.5088   -3.9074  -17.6623 C   0  0  0  0  0  0  0  0  0  0  0  0
   22.6396   -4.6717  -17.5944 C   0  0  0  0  0  0  0  0  0  0  0  0
   22.7058   -5.4936  -18.6765 N   0  0  0  0  0  0  0  0  0  0  0  0
   21.6085   -5.2169  -19.3910 C   0  0  0  0  0  0  0  0  0  0  0  0
   20.8800   -4.2757  -18.8079 N   0  0  0  0  0  0  0  0  0  0  0  0
   20.7365   -2.0291  -14.4411 C   0  0  0  0  0  0  0  0  0  0  0  0
   21.3842   -0.8185  -14.4818 O   0  0  0  0  0  0  0  0  0  0  0  0
   19.7962   -2.1576  -13.6221 O   0  0  0  0  0  0  0  0  0  0  0  0
  2  1  1  6
  3  4  1  0
  3  2  1  0
  4  5  2  0
  6  2  1  0
  6  7  2  0
  8  4  1  0
  9  6  1  0
 10  9  1  0
 10 11  1  1
 11 12  1  0
 12 16  1  0
 12 13  2  0
 13 14  1  0
 15 14  1  0
 16 15  2  0
 17 10  1  0
 18 17  2  0
 19 17  1  0
 20 21  1  6
 20 19  1  0
 21 22  1  0
 22 23  2  0
 22 26  1  0
 23 24  1  0
 24 25  1  0
 26 25  2  0
 27 28  1  0
 27 20  1  0
 29 27  2  0
M  END
$$$$
