DHH.pdb
     RDKit          3D

 29 30  0  0  1  0  0  0  0  0999 V2000
   19.2472  -14.0426  -17.5318 N   0  0  0  0  0  0  0  0  0  0  0  0
   19.9056  -13.2296  -16.5057 C   0  0  1  0  0  0  0  0  0  0  0  0
   21.3973  -13.3868  -16.7278 C   0  0  0  0  0  0  0  0  0  0  0  0
   21.7654  -14.7646  -16.3263 C   0  0  0  0  0  0  0  0  0  0  0  0
   21.2186  -15.3704  -15.3719 O   0  0  0  0  0  0  0  0  0  0  0  0
   19.4674  -11.8291  -16.7049 C   0  0  0  0  0  0  0  0  0  0  0  0
   19.7191  -11.1891  -17.7572 O   0  0  0  0  0  0  0  0  0  0  0  0
   22.7607  -15.4611  -17.0113 O   0  0  0  0  0  0  0  0  0  0  0  0
   18.7437  -11.1801  -15.6915 N   0  0  0  0  0  0  0  0  0  0  0  0
   18.2377   -9.8233  -15.7597 C   0  0  1  0  0  0  0  0  0  0  0  0
   16.9642   -9.7850  -14.9637 C   0  0  0  0  0  0  0  0  0  0  0  0
   15.8325  -10.2536  -15.8038 C   0  0  0  0  0  0  0  0  0  0  0  0
   15.8773  -10.6151  -17.1558 C   0  0  0  0  0  0  0  0  0  0  0  0
   14.6626  -10.9835  -17.5616 N   0  0  0  0  0  0  0  0  0  0  0  0
   13.8281  -10.8735  -16.5171 C   0  0  0  0  0  0  0  0  0  0  0  0
   14.5350  -10.4349  -15.4644 N   0  0  0  0  0  0  0  0  0  0  0  0
   19.2741   -8.9184  -15.2782 C   0  0  0  0  0  0  0  0  0  0  0  0
   19.7804   -9.1252  -14.1442 O   0  0  0  0  0  0  0  0  0  0  0  0
   19.7295   -7.7916  -16.0762 N   0  0  0  0  0  0  0  0  0  0  0  0
   20.7099   -6.9007  -15.5094 C   0  0  1  0  0  0  0  0  0  0  0  0
   21.9682   -6.8032  -16.2937 C   0  0  0  0  0  0  0  0  0  0  0  0
   22.8347   -7.9649  -16.3344 C   0  0  0  0  0  0  0  0  0  0  0  0
   22.7697   -9.1504  -15.6577 C   0  0  0  0  0  0  0  0  0  0  0  0
   23.7951   -9.9574  -16.0425 N   0  0  0  0  0  0  0  0  0  0  0  0
   24.4727   -9.2484  -16.9532 C   0  0  0  0  0  0  0  0  0  0  0  0
   23.9206   -8.0588  -17.1440 N   0  0  0  0  0  0  0  0  0  0  0  0
   20.0891   -5.5974  -15.2059 C   0  0  0  0  0  0  0  0  0  0  0  0
   20.6935   -4.5938  -14.4889 O   0  0  0  0  0  0  0  0  0  0  0  0
   18.9283   -5.3896  -15.6312 O   0  0  0  0  0  0  0  0  0  0  0  0
  2  1  1  6
  3  4  1  0
  3  2  1  0
  4  5  2  0
  6  2  1  0
  6  7  2  0
  8  4  1  0
  9  6  1  0
 10  9  1  0
 10 11  1  1
 11 12  1  0
 12 16  1  0
 12 13  2  0
 13 14  1  0
 15 14  1  0
 16 15  2  0
 17 10  1  0
 18 17  2  0
 19 17  1  0
 20 21  1  6
 20 19  1  0
 21 22  1  0
 22 23  2  0
 22 26  1  0
 23 24  1  0
 24 25  1  0
 26 25  2  0
 27 28  1  0
 27 20  1  0
 29 27  2  0
M  END
$$$$
