SLS.pdb
     RDKit          3D

 21 20  0  0  1  0  0  0  0  0999 V2000
   28.1361  -18.6004  -16.5373 O   0  0  0  0  0  0  0  0  0  0  0  0
   27.0393  -19.3117  -16.0941 C   0  0  0  0  0  0  0  0  0  0  0  0
   27.5163  -20.3719  -15.1334 C   0  0  2  0  0  0  0  0  0  0  0  0
   28.3447  -21.3600  -15.7490 N   0  0  0  0  0  0  0  0  0  0  0  0
   26.3862  -20.9992  -14.3955 C   0  0  0  0  0  0  0  0  0  0  0  0
   25.8580  -22.0767  -14.7741 O   0  0  0  0  0  0  0  0  0  0  0  0
   26.0184  -20.0234   -8.8767 C   0  0  0  0  0  0  0  0  0  0  0  0
   25.9167  -20.7246  -10.1932 C   0  0  1  0  0  0  0  0  0  0  0  0
   25.8542  -22.2194   -9.8782 C   0  0  0  0  0  0  0  0  0  0  0  0
   24.8992  -20.2845  -11.1386 C   0  0  0  0  0  0  0  0  0  0  0  0
   24.7208  -20.8686  -12.4752 C   0  0  2  0  0  0  0  0  0  0  0  0
   25.9032  -20.3658  -13.2486 N   0  0  0  0  0  0  0  0  0  0  0  0
   23.5095  -20.4974  -13.2209 C   0  0  0  0  0  0  0  0  0  0  0  0
   23.3892  -19.4104  -13.8366 O   0  0  0  0  0  0  0  0  0  0  0  0
   21.1293  -22.9438  -15.4198 O   0  0  0  0  0  0  0  0  0  0  0  0
   21.1364  -21.5640  -15.4076 C   0  0  0  0  0  0  0  0  0  0  0  0
   21.1522  -20.9945  -14.0086 C   0  0  2  0  0  0  0  0  0  0  0  0
   22.3618  -21.3490  -13.3067 N   0  0  0  0  0  0  0  0  0  0  0  0
   19.9342  -21.2981  -13.2456 C   0  0  0  0  0  0  0  0  0  0  0  0
   18.6962  -20.9784  -13.7830 O   0  0  0  0  0  0  0  0  0  0  0  0
   19.9523  -21.8411  -12.1127 O   0  0  0  0  0  0  0  0  0  0  0  0
  1  2  1  0
  3  5  1  0
  3  4  1  6
  3  2  1  0
  5  6  2  0
  8  7  1  1
  8 10  1  0
  9  8  1  0
 11 10  1  1
 11 13  1  0
 12 11  1  0
 12  5  1  0
 13 18  1  0
 13 14  2  0
 15 16  1  0
 17 16  1  6
 18 17  1  0
 19 20  1  0
 19 17  1  0
 21 19  2  0
M  END
$$$$
