SLS.pdb
     RDKit          3D

 21 20  0  0  1  0  0  0  0  0999 V2000
   15.7959  -11.7594  -17.4623 O   0  0  0  0  0  0  0  0  0  0  0  0
   16.8865  -11.5323  -16.6471 C   0  0  0  0  0  0  0  0  0  0  0  0
   17.6490  -10.3502  -17.1909 C   0  0  2  0  0  0  0  0  0  0  0  0
   18.2186  -10.5901  -18.4792 N   0  0  0  0  0  0  0  0  0  0  0  0
   18.6758   -9.8640  -16.2294 C   0  0  0  0  0  0  0  0  0  0  0  0
   18.3990   -9.6116  -15.0282 O   0  0  0  0  0  0  0  0  0  0  0  0
   24.2896  -11.6259  -15.6982 C   0  0  0  0  0  0  0  0  0  0  0  0
   23.2794  -10.6284  -15.2295 C   0  0  1  0  0  0  0  0  0  0  0  0
   24.0702   -9.4069  -14.7601 C   0  0  0  0  0  0  0  0  0  0  0  0
   22.1664  -10.2996  -16.1102 C   0  0  0  0  0  0  0  0  0  0  0  0
   21.1208   -9.3234  -15.7734 C   0  0  2  0  0  0  0  0  0  0  0  0
   19.9843   -9.6850  -16.6828 N   0  0  0  0  0  0  0  0  0  0  0  0
   21.4272   -7.9015  -15.9863 C   0  0  0  0  0  0  0  0  0  0  0  0
   21.8341   -7.4440  -17.0819 O   0  0  0  0  0  0  0  0  0  0  0  0
   19.4592   -4.6923  -14.4486 O   0  0  0  0  0  0  0  0  0  0  0  0
   20.3872   -4.7053  -15.4697 C   0  0  0  0  0  0  0  0  0  0  0  0
   21.6122   -5.5223  -15.1322 C   0  0  2  0  0  0  0  0  0  0  0  0
   21.2864   -6.9167  -14.9567 N   0  0  0  0  0  0  0  0  0  0  0  0
   22.3888   -4.9679  -14.0154 C   0  0  0  0  0  0  0  0  0  0  0  0
   22.8981   -3.6814  -14.1120 O   0  0  0  0  0  0  0  0  0  0  0  0
   22.6214   -5.6061  -12.9585 O   0  0  0  0  0  0  0  0  0  0  0  0
  1  2  1  0
  3  5  1  0
  3  4  1  6
  3  2  1  0
  5  6  2  0
  8  7  1  6
  8 10  1  0
  9  8  1  0
 11 10  1  6
 11 13  1  0
 12 11  1  0
 12  5  1  0
 13 18  1  0
 13 14  2  0
 15 16  1  0
 17 16  1  1
 18 17  1  0
 19 20  1  0
 19 17  1  0
 21 19  2  0
M  END
$$$$
