SLS.pdb
     RDKit          3D

 21 20  0  0  1  0  0  0  0  0999 V2000
   16.8918   -9.3731  -19.1033 O   0  0  0  0  0  0  0  0  0  0  0  0
   17.6464   -8.9815  -18.0157 C   0  0  0  0  0  0  0  0  0  0  0  0
   18.6094  -10.0926  -17.6800 C   0  0  2  0  0  0  0  0  0  0  0  0
   17.9595  -11.3078  -17.3023 N   0  0  0  0  0  0  0  0  0  0  0  0
   19.6043   -9.6723  -16.6560 C   0  0  0  0  0  0  0  0  0  0  0  0
   19.3101   -9.5852  -15.4357 O   0  0  0  0  0  0  0  0  0  0  0  0
   24.7986  -11.4719  -16.5524 C   0  0  0  0  0  0  0  0  0  0  0  0
   23.5506  -10.8352  -16.0302 C   0  0  1  0  0  0  0  0  0  0  0  0
   23.6451  -10.8959  -14.5055 C   0  0  0  0  0  0  0  0  0  0  0  0
   23.1738   -9.5233  -16.5397 C   0  0  0  0  0  0  0  0  0  0  0  0
   21.9467   -8.8172  -16.1458 C   0  0  2  0  0  0  0  0  0  0  0  0
   20.9022   -9.3671  -17.0709 N   0  0  0  0  0  0  0  0  0  0  0  0
   21.9345   -7.3533  -16.2792 C   0  0  0  0  0  0  0  0  0  0  0  0
   21.7860   -6.7658  -17.3783 O   0  0  0  0  0  0  0  0  0  0  0  0
   20.2233   -3.3761  -15.7645 O   0  0  0  0  0  0  0  0  0  0  0  0
   20.4959   -4.7288  -15.7720 C   0  0  0  0  0  0  0  0  0  0  0  0
   21.8672   -5.0491  -15.2254 C   0  0  2  0  0  0  0  0  0  0  0  0
   22.0920   -6.4727  -15.1614 N   0  0  0  0  0  0  0  0  0  0  0  0
   22.1617   -4.3626  -13.9606 C   0  0  0  0  0  0  0  0  0  0  0  0
   22.5006   -3.0177  -13.9781 O   0  0  0  0  0  0  0  0  0  0  0  0
   22.1229   -4.9366  -12.8437 O   0  0  0  0  0  0  0  0  0  0  0  0
  1  2  1  0
  3  5  1  0
  3  4  1  1
  3  2  1  0
  5  6  2  0
  8  7  1  6
  8 10  1  0
  9  8  1  0
 11 10  1  6
 11 13  1  0
 12 11  1  0
 12  5  1  0
 13 18  1  0
 13 14  2  0
 15 16  1  0
 17 16  1  1
 18 17  1  0
 19 20  1  0
 19 17  1  0
 21 19  2  0
M  END
$$$$
