SLS.pdb
     RDKit          3D

 21 20  0  0  1  0  0  0  0  0999 V2000
   15.6316  -10.4425  -18.4646 O   0  0  0  0  0  0  0  0  0  0  0  0
   16.3718   -9.9745  -17.3975 C   0  0  0  0  0  0  0  0  0  0  0  0
   17.3316  -11.0575  -16.9727 C   0  0  2  0  0  0  0  0  0  0  0  0
   16.6788  -12.2569  -16.5518 N   0  0  0  0  0  0  0  0  0  0  0  0
   18.2898  -10.5746  -15.9413 C   0  0  0  0  0  0  0  0  0  0  0  0
   17.9372  -10.3538  -14.7538 O   0  0  0  0  0  0  0  0  0  0  0  0
   23.0849  -10.5480  -13.4158 C   0  0  0  0  0  0  0  0  0  0  0  0
   23.0974  -10.4409  -14.9070 C   0  0  1  0  0  0  0  0  0  0  0  0
   24.2096  -11.3705  -15.3934 C   0  0  0  0  0  0  0  0  0  0  0  0
   21.8416  -10.6075  -15.6266 C   0  0  0  0  0  0  0  0  0  0  0  0
   20.6451   -9.7910  -15.3786 C   0  0  2  0  0  0  0  0  0  0  0  0
   19.6194  -10.3627  -16.3115 N   0  0  0  0  0  0  0  0  0  0  0  0
   20.7403   -8.3493  -15.6497 C   0  0  0  0  0  0  0  0  0  0  0  0
   20.8383   -7.8740  -16.8071 O   0  0  0  0  0  0  0  0  0  0  0  0
   19.7445   -3.8539  -15.0048 O   0  0  0  0  0  0  0  0  0  0  0  0
   19.5920   -5.2185  -14.8682 C   0  0  0  0  0  0  0  0  0  0  0  0
   20.9123   -5.9521  -14.8447 C   0  0  2  0  0  0  0  0  0  0  0  0
   20.7291   -7.3639  -14.6111 N   0  0  0  0  0  0  0  0  0  0  0  0
   21.8978   -5.3426  -13.9418 C   0  0  0  0  0  0  0  0  0  0  0  0
   22.4207   -4.0946  -14.2464 O   0  0  0  0  0  0  0  0  0  0  0  0
   22.3005   -5.8994  -12.8900 O   0  0  0  0  0  0  0  0  0  0  0  0
  1  2  1  0
  3  5  1  0
  3  4  1  1
  3  2  1  0
  5  6  2  0
  8  7  1  1
  8 10  1  0
  9  8  1  0
 11 10  1  6
 11 13  1  0
 12 11  1  0
 12  5  1  0
 13 18  1  0
 13 14  2  0
 15 16  1  0
 17 16  1  1
 18 17  1  0
 19 20  1  0
 19 17  1  0
 21 19  2  0
M  END
$$$$
