SLS.pdb
     RDKit          3D

 21 20  0  0  1  0  0  0  0  0999 V2000
   18.8950  -11.6603  -19.4435 O   0  0  0  0  0  0  0  0  0  0  0  0
   19.1636  -10.9838  -18.2705 C   0  0  0  0  0  0  0  0  0  0  0  0
   20.4674  -11.4975  -17.7130 C   0  0  2  0  0  0  0  0  0  0  0  0
   20.3929  -12.8499  -17.2579 N   0  0  0  0  0  0  0  0  0  0  0  0
   21.0082  -10.6014  -16.6548 C   0  0  0  0  0  0  0  0  0  0  0  0
   20.4696  -10.5057  -15.5217 O   0  0  0  0  0  0  0  0  0  0  0  0
   26.2762  -10.5383  -15.4993 C   0  0  0  0  0  0  0  0  0  0  0  0
   24.8035  -10.3298  -15.3479 C   0  0  1  0  0  0  0  0  0  0  0  0
   24.5140  -10.3956  -13.8481 C   0  0  0  0  0  0  0  0  0  0  0  0
   24.1916   -9.1857  -16.0106 C   0  0  0  0  0  0  0  0  0  0  0  0
   22.7540   -8.8855  -15.9576 C   0  0  2  0  0  0  0  0  0  0  0  0
   22.1491   -9.8472  -16.9366 N   0  0  0  0  0  0  0  0  0  0  0  0
   22.3297   -7.5316  -16.3423 C   0  0  0  0  0  0  0  0  0  0  0  0
   22.4344   -7.0860  -17.5109 O   0  0  0  0  0  0  0  0  0  0  0  0
   19.3906   -3.8496  -15.9080 O   0  0  0  0  0  0  0  0  0  0  0  0
   19.8310   -5.1186  -15.5923 C   0  0  0  0  0  0  0  0  0  0  0  0
   21.3229   -5.2774  -15.7685 C   0  0  2  0  0  0  0  0  0  0  0  0
   21.7595   -6.6052  -15.4114 N   0  0  0  0  0  0  0  0  0  0  0  0
   22.1001   -4.2194  -15.1093 C   0  0  0  0  0  0  0  0  0  0  0  0
   22.3028   -3.0140  -15.7647 O   0  0  0  0  0  0  0  0  0  0  0  0
   22.6003   -4.3485  -13.9640 O   0  0  0  0  0  0  0  0  0  0  0  0
  1  2  1  0
  3  5  1  0
  3  4  1  1
  3  2  1  0
  5  6  2  0
  8  7  1  1
  8 10  1  0
  9  8  1  0
 11 10  1  6
 11 13  1  0
 12 11  1  0
 12  5  1  0
 13 18  1  0
 13 14  2  0
 15 16  1  0
 17 16  1  1
 18 17  1  0
 19 20  1  0
 19 17  1  0
 21 19  2  0
M  END
$$$$
