SLS.pdb
     RDKit          3D

 21 20  0  0  1  0  0  0  0  0999 V2000
   16.8993   -9.5873  -19.1574 O   0  0  0  0  0  0  0  0  0  0  0  0
   17.4171   -8.7452  -18.1939 C   0  0  0  0  0  0  0  0  0  0  0  0
   17.8421   -9.5795  -17.0115 C   0  0  2  0  0  0  0  0  0  0  0  0
   16.8088  -10.4391  -16.5266 N   0  0  0  0  0  0  0  0  0  0  0  0
   18.4052   -8.7426  -15.9172 C   0  0  0  0  0  0  0  0  0  0  0  0
   17.6778   -8.2269  -15.0295 O   0  0  0  0  0  0  0  0  0  0  0  0
   23.0674  -10.2691  -13.4325 C   0  0  0  0  0  0  0  0  0  0  0  0
   21.7492   -9.5947  -13.6402 C   0  0  1  0  0  0  0  0  0  0  0  0
   21.1844   -9.3210  -12.2460 C   0  0  0  0  0  0  0  0  0  0  0  0
   21.6902   -8.4426  -14.5301 C   0  0  0  0  0  0  0  0  0  0  0  0
   20.4554   -7.7024  -14.8250 C   0  0  2  0  0  0  0  0  0  0  0  0
   19.7846   -8.5281  -15.8821 N   0  0  0  0  0  0  0  0  0  0  0  0
   20.5931   -6.3353  -15.3475 C   0  0  0  0  0  0  0  0  0  0  0  0
   21.0639   -6.0787  -16.4823 O   0  0  0  0  0  0  0  0  0  0  0  0
   17.8716   -3.5995  -15.0606 O   0  0  0  0  0  0  0  0  0  0  0  0
   19.0673   -3.0171  -14.6930 C   0  0  0  0  0  0  0  0  0  0  0  0
   20.2662   -3.8324  -15.1170 C   0  0  2  0  0  0  0  0  0  0  0  0
   20.2000   -5.1782  -14.6015 N   0  0  0  0  0  0  0  0  0  0  0  0
   21.5466   -3.1702  -14.8341 C   0  0  0  0  0  0  0  0  0  0  0  0
   21.8011   -1.9192  -15.3762 O   0  0  0  0  0  0  0  0  0  0  0  0
   22.4400   -3.6837  -14.1153 O   0  0  0  0  0  0  0  0  0  0  0  0
  1  2  1  0
  3  5  1  0
  3  4  1  1
  3  2  1  0
  5  6  2  0
  8  7  1  1
  8 10  1  0
  9  8  1  0
 11 10  1  6
 11 13  1  0
 12 11  1  0
 12  5  1  0
 13 18  1  0
 13 14  2  0
 15 16  1  0
 17 16  1  1
 18 17  1  0
 19 20  1  0
 19 17  1  0
 21 19  2  0
M  END
$$$$
