SLS.pdb
     RDKit          3D

 21 20  0  0  1  0  0  0  0  0999 V2000
   27.7727  -17.7070  -16.7985 O   0  0  0  0  0  0  0  0  0  0  0  0
   27.3398  -18.9731  -17.1377 C   0  0  0  0  0  0  0  0  0  0  0  0
   28.0972  -19.9746  -16.3023 C   0  0  2  0  0  0  0  0  0  0  0  0
   28.9515  -20.8216  -17.0733 N   0  0  0  0  0  0  0  0  0  0  0  0
   27.1881  -20.7717  -15.4344 C   0  0  0  0  0  0  0  0  0  0  0  0
   26.7198  -21.8812  -15.7992 O   0  0  0  0  0  0  0  0  0  0  0  0
   25.2945  -22.1839  -10.3259 C   0  0  0  0  0  0  0  0  0  0  0  0
   25.4658  -20.7538  -10.7270 C   0  0  1  0  0  0  0  0  0  0  0  0
   25.9702  -20.0186   -9.4851 C   0  0  0  0  0  0  0  0  0  0  0  0
   26.2295  -20.4564  -11.9316 C   0  0  0  0  0  0  0  0  0  0  0  0
   25.8547  -20.9279  -13.2720 C   0  0  2  0  0  0  0  0  0  0  0  0
   26.8495  -20.2654  -14.1779 N   0  0  0  0  0  0  0  0  0  0  0  0
   24.5107  -20.5859  -13.7595 C   0  0  0  0  0  0  0  0  0  0  0  0
   24.1637  -19.4153  -14.0504 O   0  0  0  0  0  0  0  0  0  0  0  0
   22.3623  -22.2697  -16.5183 O   0  0  0  0  0  0  0  0  0  0  0  0
   21.6117  -22.2396  -15.3608 C   0  0  0  0  0  0  0  0  0  0  0  0
   22.1360  -21.2439  -14.3531 C   0  0  2  0  0  0  0  0  0  0  0  0
   23.4817  -21.5642  -13.9435 N   0  0  0  0  0  0  0  0  0  0  0  0
   21.2250  -21.0315  -13.2204 C   0  0  0  0  0  0  0  0  0  0  0  0
   21.6660  -21.2964  -11.9324 O   0  0  0  0  0  0  0  0  0  0  0  0
   20.0473  -20.6156  -13.3564 O   0  0  0  0  0  0  0  0  0  0  0  0
  1  2  1  0
  3  5  1  0
  3  4  1  6
  3  2  1  0
  5  6  2  0
  8  7  1  1
  8 10  1  0
  9  8  1  0
 11 10  1  1
 11 13  1  0
 12 11  1  0
 12  5  1  0
 13 18  1  0
 13 14  2  0
 15 16  1  0
 17 16  1  6
 18 17  1  0
 19 20  1  0
 19 17  1  0
 21 19  2  0
M  END
$$$$
