SLS.pdb
     RDKit          3D

 21 20  0  0  1  0  0  0  0  0999 V2000
   23.7718  -13.4843  -16.4120 O   0  0  0  0  0  0  0  0  0  0  0  0
   22.9682  -12.4428  -16.8303 C   0  0  0  0  0  0  0  0  0  0  0  0
   23.4810  -11.1673  -16.2098 C   0  0  2  0  0  0  0  0  0  0  0  0
   23.6466  -11.2557  -14.7933 N   0  0  0  0  0  0  0  0  0  0  0  0
   22.6438   -9.9947  -16.5828 C   0  0  0  0  0  0  0  0  0  0  0  0
   22.5228   -9.6133  -17.7758 O   0  0  0  0  0  0  0  0  0  0  0  0
   18.4656   -7.2133  -17.4732 C   0  0  0  0  0  0  0  0  0  0  0  0
   18.5359   -7.9274  -16.1615 C   0  0  1  0  0  0  0  0  0  0  0  0
   17.2440   -8.7368  -16.0453 C   0  0  0  0  0  0  0  0  0  0  0  0
   19.7349   -8.6945  -15.8509 C   0  0  0  0  0  0  0  0  0  0  0  0
   21.0885   -8.1224  -15.8386 C   0  0  2  0  0  0  0  0  0  0  0  0
   21.9754   -9.3019  -15.5713 N   0  0  0  0  0  0  0  0  0  0  0  0
   21.3841   -7.1027  -14.8218 C   0  0  0  0  0  0  0  0  0  0  0  0
   22.1689   -7.2982  -13.8621 O   0  0  0  0  0  0  0  0  0  0  0  0
   23.5557   -3.3825  -14.6913 O   0  0  0  0  0  0  0  0  0  0  0  0
   22.8694   -4.5215  -15.0598 C   0  0  0  0  0  0  0  0  0  0  0  0
   21.4952   -4.5998  -14.4374 C   0  0  2  0  0  0  0  0  0  0  0  0
   20.7984   -5.7964  -14.8423 N   0  0  0  0  0  0  0  0  0  0  0  0
   20.7015   -3.3788  -14.6298 C   0  0  0  0  0  0  0  0  0  0  0  0
   20.5571   -2.4872  -13.5772 O   0  0  0  0  0  0  0  0  0  0  0  0
   20.1361   -3.0924  -15.7146 O   0  0  0  0  0  0  0  0  0  0  0  0
  1  2  1  0
  3  5  1  0
  3  4  1  1
  3  2  1  0
  5  6  2  0
  8  7  1  6
  8 10  1  0
  9  8  1  0
 11 10  1  1
 11 13  1  0
 12 11  1  0
 12  5  1  0
 13 18  1  0
 13 14  2  0
 15 16  1  0
 17 16  1  6
 18 17  1  0
 19 20  1  0
 19 17  1  0
 21 19  2  0
M  END
$$$$
