SLS.pdb
     RDKit          3D

 21 20  0  0  1  0  0  0  0  0999 V2000
   16.7988  -10.1492  -19.1587 O   0  0  0  0  0  0  0  0  0  0  0  0
   17.4850   -9.6406  -18.0743 C   0  0  0  0  0  0  0  0  0  0  0  0
   18.3367  -10.7405  -17.4917 C   0  0  2  0  0  0  0  0  0  0  0  0
   17.5777  -11.8661  -17.0460 N   0  0  0  0  0  0  0  0  0  0  0  0
   19.2341  -10.2355  -16.4171 C   0  0  0  0  0  0  0  0  0  0  0  0
   18.8171  -10.0057  -15.2523 O   0  0  0  0  0  0  0  0  0  0  0  0
   23.9867  -10.0077  -13.7532 C   0  0  0  0  0  0  0  0  0  0  0  0
   24.0168   -9.8004  -15.2336 C   0  0  1  0  0  0  0  0  0  0  0  0
   25.2356  -10.5666  -15.7482 C   0  0  0  0  0  0  0  0  0  0  0  0
   22.8020  -10.0563  -15.9963 C   0  0  0  0  0  0  0  0  0  0  0  0
   21.5315   -9.3546  -15.7660 C   0  0  2  0  0  0  0  0  0  0  0  0
   20.5790  -10.0124  -16.7194 N   0  0  0  0  0  0  0  0  0  0  0  0
   21.4985   -7.9086  -16.0291 C   0  0  0  0  0  0  0  0  0  0  0  0
   21.6305   -7.4169  -17.1763 O   0  0  0  0  0  0  0  0  0  0  0  0
   19.8567   -3.5767  -15.1828 O   0  0  0  0  0  0  0  0  0  0  0  0
   19.8988   -4.9467  -15.0230 C   0  0  0  0  0  0  0  0  0  0  0  0
   21.2840   -5.5139  -15.2267 C   0  0  2  0  0  0  0  0  0  0  0  0
   21.3123   -6.9374  -14.9938 N   0  0  0  0  0  0  0  0  0  0  0  0
   22.3224   -4.7884  -14.4829 C   0  0  0  0  0  0  0  0  0  0  0  0
   22.5694   -3.4566  -14.7812 O   0  0  0  0  0  0  0  0  0  0  0  0
   23.0116   -5.3172  -13.5752 O   0  0  0  0  0  0  0  0  0  0  0  0
  1  2  1  0
  3  5  1  0
  3  4  1  1
  3  2  1  0
  5  6  2  0
  8  7  1  1
  8 10  1  0
  9  8  1  0
 11 10  1  6
 11 13  1  0
 12 11  1  0
 12  5  1  0
 13 18  1  0
 13 14  2  0
 15 16  1  0
 17 16  1  1
 18 17  1  0
 19 20  1  0
 19 17  1  0
 21 19  2  0
M  END
$$$$
