NYD.pdb
     RDKit          3D

 29 29  0  0  1  0  0  0  0  0999 V2000
   28.2319  -18.0460  -17.4860 N   0  0  0  0  0  0  0  0  0  0  0  0
   27.7501  -17.7266  -16.1668 C   0  0  0  0  0  0  0  0  0  0  0  0
   28.1359  -16.6813  -15.6035 O   0  0  0  0  0  0  0  0  0  0  0  0
   26.8206  -18.6509  -15.5397 C   0  0  0  0  0  0  0  0  0  0  0  0
   27.4030  -19.4634  -14.4032 C   0  0  2  0  0  0  0  0  0  0  0  0
   28.2232  -20.4872  -15.1263 N   0  0  0  0  0  0  0  0  0  0  0  0
   26.3076  -20.2436  -13.7835 C   0  0  0  0  0  0  0  0  0  0  0  0
   25.9089  -21.2924  -14.4082 O   0  0  0  0  0  0  0  0  0  0  0  0
   30.0120  -21.3433   -8.5502 O   0  0  0  0  0  0  0  0  0  0  0  0
   28.7037  -21.1799   -8.9867 C   0  0  0  0  0  0  0  0  0  0  0  0
   27.7403  -20.5184   -8.2536 C   0  0  0  0  0  0  0  0  0  0  0  0
   26.4404  -20.3935   -8.7608 C   0  0  0  0  0  0  0  0  0  0  0  0
   26.1142  -20.9272   -9.9895 C   0  0  0  0  0  0  0  0  0  0  0  0
   24.7614  -20.7960  -10.5098 C   0  0  0  0  0  0  0  0  0  0  0  0
   24.6449  -20.8745  -12.0205 C   0  0  2  0  0  0  0  0  0  0  0  0
   25.6551  -19.9542  -12.5637 N   0  0  0  0  0  0  0  0  0  0  0  0
   23.2794  -20.5745  -12.4873 C   0  0  0  0  0  0  0  0  0  0  0  0
   23.0204  -19.3800  -12.7791 O   0  0  0  0  0  0  0  0  0  0  0  0
   27.0867  -21.5808  -10.7016 C   0  0  0  0  0  0  0  0  0  0  0  0
   28.3870  -21.7224  -10.2265 C   0  0  0  0  0  0  0  0  0  0  0  0
   22.2336  -21.5036  -12.6382 N   0  0  0  0  0  0  0  0  0  0  0  0
   20.9978  -21.2226  -13.3592 C   0  0  1  0  0  0  0  0  0  0  0  0
   21.2680  -20.8869  -14.7896 C   0  0  0  0  0  0  0  0  0  0  0  0
   20.7871  -19.5296  -15.0978 C   0  0  0  0  0  0  0  0  0  0  0  0
   20.2139  -18.7868  -14.2653 O   0  0  0  0  0  0  0  0  0  0  0  0
   20.1497  -22.4172  -13.2601 C   0  0  0  0  0  0  0  0  0  0  0  0
   20.6280  -23.5148  -12.9023 O   0  0  0  0  0  0  0  0  0  0  0  0
   20.9736  -19.0345  -16.3791 O   0  0  0  0  0  0  0  0  0  0  0  0
   18.8084  -22.3457  -13.5596 O   0  0  0  0  0  0  0  0  0  0  0  0
  1  2  1  0
  2  3  2  0
  4  2  1  0
  4  5  1  0
  5  6  1  6
  5  7  1  0
  7  8  2  0
  9 10  1  0
 10 20  2  0
 10 11  1  0
 11 12  2  0
 12 13  1  0
 13 14  1  0
 15 14  1  1
 16  7  1  0
 16 15  1  0
 17 21  1  0
 17 15  1  0
 18 17  2  0
 19 13  2  0
 20 19  1  0
 22 26  1  0
 22 23  1  6
 22 21  1  0
 23 24  1  0
 24 28  1  0
 24 25  2  0
 26 29  1  0
 27 26  2  0
M  END
$$$$
