NYD.pdb
     RDKit          3D

 29 29  0  0  1  0  0  0  0  0999 V2000
   19.9707  -10.6038  -19.5568 N   0  0  0  0  0  0  0  0  0  0  0  0
   19.8777  -10.6886  -18.1221 C   0  0  0  0  0  0  0  0  0  0  0  0
   19.5811  -11.7758  -17.5845 O   0  0  0  0  0  0  0  0  0  0  0  0
   20.1378   -9.4847  -17.3511 C   0  0  0  0  0  0  0  0  0  0  0  0
   20.4703   -8.2611  -18.1777 C   0  0  2  0  0  0  0  0  0  0  0  0
   21.9263   -8.4561  -18.4705 N   0  0  0  0  0  0  0  0  0  0  0  0
   20.4313   -7.0776  -17.2886 C   0  0  0  0  0  0  0  0  0  0  0  0
   19.2824   -6.7179  -16.8416 O   0  0  0  0  0  0  0  0  0  0  0  0
   19.5841   -8.9713  -11.1402 O   0  0  0  0  0  0  0  0  0  0  0  0
   20.2481   -8.1429  -12.0356 C   0  0  0  0  0  0  0  0  0  0  0  0
   21.3475   -8.5464  -12.7647 C   0  0  0  0  0  0  0  0  0  0  0  0
   21.9647   -7.6528  -13.6496 C   0  0  0  0  0  0  0  0  0  0  0  0
   21.4818   -6.3701  -13.7991 C   0  0  0  0  0  0  0  0  0  0  0  0
   22.1289   -5.4459  -14.7185 C   0  0  0  0  0  0  0  0  0  0  0  0
   21.3462   -5.1463  -15.9832 C   0  0  2  0  0  0  0  0  0  0  0  0
   21.5368   -6.3012  -16.8735 N   0  0  0  0  0  0  0  0  0  0  0  0
   21.7533   -3.8698  -16.5975 C   0  0  0  0  0  0  0  0  0  0  0  0
   22.9313   -3.7878  -17.0275 O   0  0  0  0  0  0  0  0  0  0  0  0
   20.3881   -5.9895  -13.0649 C   0  0  0  0  0  0  0  0  0  0  0  0
   19.7522   -6.8523  -12.1775 C   0  0  0  0  0  0  0  0  0  0  0  0
   20.9437   -2.7290  -16.7491 N   0  0  0  0  0  0  0  0  0  0  0  0
   21.3734   -1.5158  -17.4342 C   0  0  1  0  0  0  0  0  0  0  0  0
   20.3789   -1.0936  -18.4660 C   0  0  0  0  0  0  0  0  0  0  0  0
   20.4011   -2.0211  -19.6097 C   0  0  0  0  0  0  0  0  0  0  0  0
   19.4730   -2.8215  -19.8769 O   0  0  0  0  0  0  0  0  0  0  0  0
   21.5370   -0.4705  -16.4160 C   0  0  0  0  0  0  0  0  0  0  0  0
   20.8864   -0.5070  -15.3498 O   0  0  0  0  0  0  0  0  0  0  0  0
   21.5069   -2.0174  -20.4457 O   0  0  0  0  0  0  0  0  0  0  0  0
   22.4146    0.5697  -16.6206 O   0  0  0  0  0  0  0  0  0  0  0  0
  1  2  1  0
  2  3  2  0
  4  2  1  0
  4  5  1  0
  5  6  1  1
  5  7  1  0
  7  8  2  0
  9 10  1  0
 10 20  2  0
 10 11  1  0
 11 12  2  0
 12 13  1  0
 13 14  1  0
 15 14  1  1
 16  7  1  0
 16 15  1  0
 17 21  1  0
 17 15  1  0
 18 17  2  0
 19 13  2  0
 20 19  1  0
 22 26  1  0
 22 23  1  6
 22 21  1  0
 23 24  1  0
 24 28  1  0
 24 25  2  0
 26 29  1  0
 27 26  2  0
M  END
$$$$
