NYD.pdb
     RDKit          3D

 29 29  0  0  1  0  0  0  0  0999 V2000
   15.9185  -16.2699  -16.2871 N   0  0  0  0  0  0  0  0  0  0  0  0
   15.7431  -15.1506  -15.3979 C   0  0  0  0  0  0  0  0  0  0  0  0
   14.7984  -15.1512  -14.5815 O   0  0  0  0  0  0  0  0  0  0  0  0
   16.6896  -14.0521  -15.4920 C   0  0  0  0  0  0  0  0  0  0  0  0
   17.6451  -14.1361  -16.6628 C   0  0  2  0  0  0  0  0  0  0  0  0
   18.6936  -15.0781  -16.1560 N   0  0  0  0  0  0  0  0  0  0  0  0
   18.3467  -12.8375  -16.7815 C   0  0  0  0  0  0  0  0  0  0  0  0
   19.2170  -12.5569  -15.8798 O   0  0  0  0  0  0  0  0  0  0  0  0
   23.3752  -14.6075  -20.2580 O   0  0  0  0  0  0  0  0  0  0  0  0
   22.4873  -13.5798  -19.9674 C   0  0  0  0  0  0  0  0  0  0  0  0
   22.8574  -12.4267  -19.3068 C   0  0  0  0  0  0  0  0  0  0  0  0
   21.9040  -11.4330  -19.0492 C   0  0  0  0  0  0  0  0  0  0  0  0
   20.5955  -11.5975  -19.4514 C   0  0  0  0  0  0  0  0  0  0  0  0
   19.6094  -10.5624  -19.1788 C   0  0  0  0  0  0  0  0  0  0  0  0
   18.9622  -10.6382  -17.8087 C   0  0  2  0  0  0  0  0  0  0  0  0
   18.1601  -11.8707  -17.7953 N   0  0  0  0  0  0  0  0  0  0  0  0
   18.1731   -9.4319  -17.5011 C   0  0  0  0  0  0  0  0  0  0  0  0
   17.0676   -9.3031  -18.0847 O   0  0  0  0  0  0  0  0  0  0  0  0
   20.2490  -12.7511  -20.1065 C   0  0  0  0  0  0  0  0  0  0  0  0
   21.1713  -13.7572  -20.3776 C   0  0  0  0  0  0  0  0  0  0  0  0
   18.5420   -8.4062  -16.6114 N   0  0  0  0  0  0  0  0  0  0  0  0
   17.7490   -7.2032  -16.3881 C   0  0  1  0  0  0  0  0  0  0  0  0
   17.4797   -6.9925  -14.9339 C   0  0  0  0  0  0  0  0  0  0  0  0
   16.7711   -5.7190  -14.7225 C   0  0  0  0  0  0  0  0  0  0  0  0
   16.3619   -4.9853  -15.6540 O   0  0  0  0  0  0  0  0  0  0  0  0
   18.5016   -6.0713  -16.9435 C   0  0  0  0  0  0  0  0  0  0  0  0
   18.0139   -4.9208  -16.9540 O   0  0  0  0  0  0  0  0  0  0  0  0
   16.5375   -5.2973  -13.4228 O   0  0  0  0  0  0  0  0  0  0  0  0
   19.7622   -6.2606  -17.4622 O   0  0  0  0  0  0  0  0  0  0  0  0
  1  2  1  0
  2  3  2  0
  4  2  1  0
  4  5  1  0
  5  6  1  1
  5  7  1  0
  7  8  2  0
  9 10  1  0
 10 20  2  0
 10 11  1  0
 11 12  2  0
 12 13  1  0
 13 14  1  0
 15 14  1  6
 16  7  1  0
 16 15  1  0
 17 21  1  0
 17 15  1  0
 18 17  2  0
 19 13  2  0
 20 19  1  0
 22 26  1  0
 22 23  1  1
 22 21  1  0
 23 24  1  0
 24 28  1  0
 24 25  2  0
 26 29  1  0
 27 26  2  0
M  END
$$$$
