NYD.pdb
     RDKit          3D

 29 29  0  0  1  0  0  0  0  0999 V2000
   44.9002   -7.9570   -7.4563 N   0  0  0  0  0  0  0  0  0  0  0  0
   44.5883   -7.6924   -8.8372 C   0  0  0  0  0  0  0  0  0  0  0  0
   45.4123   -7.9925   -9.7261 O   0  0  0  0  0  0  0  0  0  0  0  0
   43.3068   -7.0777   -9.1395 C   0  0  0  0  0  0  0  0  0  0  0  0
   42.4902   -6.6837   -7.9276 C   0  0  2  0  0  0  0  0  0  0  0  0
   41.8167   -7.9704   -7.5608 N   0  0  0  0  0  0  0  0  0  0  0  0
   41.3848   -5.8081   -8.3793 C   0  0  0  0  0  0  0  0  0  0  0  0
   41.7059   -4.6706   -8.8816 O   0  0  0  0  0  0  0  0  0  0  0  0
   33.3271   -2.5576  -10.3117 O   0  0  0  0  0  0  0  0  0  0  0  0
   34.4349   -3.3494  -10.0381 C   0  0  0  0  0  0  0  0  0  0  0  0
   35.4810   -3.5154  -10.9220 C   0  0  0  0  0  0  0  0  0  0  0  0
   36.5657   -4.3310  -10.5746 C   0  0  0  0  0  0  0  0  0  0  0  0
   36.5975   -4.9709   -9.3538 C   0  0  0  0  0  0  0  0  0  0  0  0
   37.7263   -5.8187   -8.9998 C   0  0  0  0  0  0  0  0  0  0  0  0
   39.0079   -5.0759   -8.6718 C   0  0  2  0  0  0  0  0  0  0  0  0
   40.0032   -6.0997   -8.3196 N   0  0  0  0  0  0  0  0  0  0  0  0
   38.8107   -4.0725   -7.6103 C   0  0  0  0  0  0  0  0  0  0  0  0
   38.5743   -4.4988   -6.4521 O   0  0  0  0  0  0  0  0  0  0  0  0
   35.5475   -4.7924   -8.4903 C   0  0  0  0  0  0  0  0  0  0  0  0
   34.4553   -3.9894   -8.8046 C   0  0  0  0  0  0  0  0  0  0  0  0
   38.8628   -2.6757   -7.7719 N   0  0  0  0  0  0  0  0  0  0  0  0
   38.6493   -1.7260   -6.6864 C   0  0  1  0  0  0  0  0  0  0  0  0
   39.7382   -1.8122   -5.6674 C   0  0  0  0  0  0  0  0  0  0  0  0
   39.5288   -0.8122   -4.6068 C   0  0  0  0  0  0  0  0  0  0  0  0
   38.4039   -0.5220   -4.1338 O   0  0  0  0  0  0  0  0  0  0  0  0
   38.6020   -0.3837   -7.2798 C   0  0  0  0  0  0  0  0  0  0  0  0
   38.7663   -0.2196   -8.5076 O   0  0  0  0  0  0  0  0  0  0  0  0
   40.6320   -0.1474   -4.0944 O   0  0  0  0  0  0  0  0  0  0  0  0
   38.3734    0.7195   -6.4893 O   0  0  0  0  0  0  0  0  0  0  0  0
  1  2  1  0
  2  3  2  0
  4  2  1  0
  4  5  1  0
  5  6  1  6
  5  7  1  0
  7  8  2  0
  9 10  1  0
 10 20  2  0
 10 11  1  0
 11 12  2  0
 12 13  1  0
 13 14  1  0
 15 14  1  1
 16  7  1  0
 16 15  1  0
 17 21  1  0
 17 15  1  0
 18 17  2  0
 19 13  2  0
 20 19  1  0
 22 26  1  0
 22 23  1  1
 22 21  1  0
 23 24  1  0
 24 28  1  0
 24 25  2  0
 26 29  1  0
 27 26  2  0
M  END
$$$$
