NYD.pdb
     RDKit          3D

 29 29  0  0  1  0  0  0  0  0999 V2000
   42.1235   -9.0604   -6.2701 N   0  0  0  0  0  0  0  0  0  0  0  0
   41.0024   -9.0909   -5.3664 C   0  0  0  0  0  0  0  0  0  0  0  0
   40.8906  -10.0296   -4.5508 O   0  0  0  0  0  0  0  0  0  0  0  0
   40.0353   -8.0093   -5.4454 C   0  0  0  0  0  0  0  0  0  0  0  0
   40.3961   -6.9047   -6.4152 C   0  0  2  0  0  0  0  0  0  0  0  0
   41.5590   -6.2477   -5.7371 N   0  0  0  0  0  0  0  0  0  0  0  0
   39.3241   -5.8840   -6.3736 C   0  0  0  0  0  0  0  0  0  0  0  0
   38.1659   -6.2325   -6.8051 O   0  0  0  0  0  0  0  0  0  0  0  0
   36.4206   -3.1509    0.0223 O   0  0  0  0  0  0  0  0  0  0  0  0
   37.0046   -3.0093   -1.2298 C   0  0  0  0  0  0  0  0  0  0  0  0
   38.2378   -3.5371   -1.5517 C   0  0  0  0  0  0  0  0  0  0  0  0
   38.7621   -3.3525   -2.8377 C   0  0  0  0  0  0  0  0  0  0  0  0
   38.0546   -2.6463   -3.7872 C   0  0  0  0  0  0  0  0  0  0  0  0
   38.6059   -2.4562   -5.1207 C   0  0  0  0  0  0  0  0  0  0  0  0
   38.3485   -3.5953   -6.0893 C   0  0  2  0  0  0  0  0  0  0  0  0
   39.4437   -4.5581   -5.8992 N   0  0  0  0  0  0  0  0  0  0  0  0
   38.2290   -3.1233   -7.4805 C   0  0  0  0  0  0  0  0  0  0  0  0
   39.2806   -2.7355   -8.0490 O   0  0  0  0  0  0  0  0  0  0  0  0
   36.8310   -2.1300   -3.4463 C   0  0  0  0  0  0  0  0  0  0  0  0
   36.2820   -2.2952   -2.1783 C   0  0  0  0  0  0  0  0  0  0  0  0
   37.0435   -3.0660   -8.2360 N   0  0  0  0  0  0  0  0  0  0  0  0
   36.9718   -2.5359   -9.5924 C   0  0  1  0  0  0  0  0  0  0  0  0
   35.7140   -2.9621  -10.2763 C   0  0  0  0  0  0  0  0  0  0  0  0
   35.6915   -2.4684  -11.6636 C   0  0  0  0  0  0  0  0  0  0  0  0
   36.7218   -2.1774  -12.3172 O   0  0  0  0  0  0  0  0  0  0  0  0
   37.0372   -1.0721   -9.4962 C   0  0  0  0  0  0  0  0  0  0  0  0
   37.8651   -0.4219  -10.1695 O   0  0  0  0  0  0  0  0  0  0  0  0
   34.4662   -2.3126  -12.2928 O   0  0  0  0  0  0  0  0  0  0  0  0
   36.1826   -0.3903   -8.6603 O   0  0  0  0  0  0  0  0  0  0  0  0
  1  2  1  0
  2  3  2  0
  4  2  1  0
  4  5  1  0
  5  6  1  1
  5  7  1  0
  7  8  2  0
  9 10  1  0
 10 20  2  0
 10 11  1  0
 11 12  2  0
 12 13  1  0
 13 14  1  0
 15 14  1  1
 16  7  1  0
 16 15  1  0
 17 21  1  0
 17 15  1  0
 18 17  2  0
 19 13  2  0
 20 19  1  0
 22 26  1  0
 22 23  1  1
 22 21  1  0
 23 24  1  0
 24 28  1  0
 24 25  2  0
 26 29  1  0
 27 26  2  0
M  END
$$$$
