NYD.pdb
     RDKit          3D

 29 29  0  0  1  0  0  0  0  0999 V2000
   16.8239  -14.4430  -16.1810 N   0  0  0  0  0  0  0  0  0  0  0  0
   16.7948  -13.1957  -15.4614 C   0  0  0  0  0  0  0  0  0  0  0  0
   15.8488  -12.9520  -14.6838 O   0  0  0  0  0  0  0  0  0  0  0  0
   17.8862  -12.2608  -15.6761 C   0  0  0  0  0  0  0  0  0  0  0  0
   18.8541  -12.6555  -16.7707 C   0  0  2  0  0  0  0  0  0  0  0  0
   19.7985  -13.5691  -16.0517 N   0  0  0  0  0  0  0  0  0  0  0  0
   19.6770  -11.4719  -17.1096 C   0  0  0  0  0  0  0  0  0  0  0  0
   20.5641  -11.1105  -16.2542 O   0  0  0  0  0  0  0  0  0  0  0  0
   24.0147   -5.2674  -21.7456 O   0  0  0  0  0  0  0  0  0  0  0  0
   23.2745   -6.3556  -21.3021 C   0  0  0  0  0  0  0  0  0  0  0  0
   23.8490   -7.5131  -20.8191 C   0  0  0  0  0  0  0  0  0  0  0  0
   23.0356   -8.5695  -20.3892 C   0  0  0  0  0  0  0  0  0  0  0  0
   21.6621   -8.4626  -20.4445 C   0  0  0  0  0  0  0  0  0  0  0  0
   20.8227   -9.5646  -19.9984 C   0  0  0  0  0  0  0  0  0  0  0  0
   20.5122   -9.5738  -18.5133 C   0  0  2  0  0  0  0  0  0  0  0  0
   19.5902  -10.6972  -18.2883 N   0  0  0  0  0  0  0  0  0  0  0  0
   19.9726   -8.2821  -18.0521 C   0  0  0  0  0  0  0  0  0  0  0  0
   18.7822   -8.0150  -18.3535 O   0  0  0  0  0  0  0  0  0  0  0  0
   21.1117   -7.3036  -20.9280 C   0  0  0  0  0  0  0  0  0  0  0  0
   21.8912   -6.2360  -21.3629 C   0  0  0  0  0  0  0  0  0  0  0  0
   20.6675   -7.3153  -17.3023 N   0  0  0  0  0  0  0  0  0  0  0  0
   20.0490   -6.1103  -16.7623 C   0  0  1  0  0  0  0  0  0  0  0  0
   18.9081   -6.4442  -15.8576 C   0  0  0  0  0  0  0  0  0  0  0  0
   18.3899   -5.2253  -15.2139 C   0  0  0  0  0  0  0  0  0  0  0  0
   17.9919   -4.2177  -15.8463 O   0  0  0  0  0  0  0  0  0  0  0  0
   21.0879   -5.3721  -16.0330 C   0  0  0  0  0  0  0  0  0  0  0  0
   22.2540   -5.8145  -15.9559 O   0  0  0  0  0  0  0  0  0  0  0  0
   18.3343   -5.1781  -13.8297 O   0  0  0  0  0  0  0  0  0  0  0  0
   20.7923   -4.1751  -15.4216 O   0  0  0  0  0  0  0  0  0  0  0  0
  1  2  1  0
  2  3  2  0
  4  2  1  0
  4  5  1  0
  5  6  1  1
  5  7  1  0
  7  8  2  0
  9 10  1  0
 10 20  2  0
 10 11  1  0
 11 12  2  0
 12 13  1  0
 13 14  1  0
 15 14  1  6
 16  7  1  0
 16 15  1  0
 17 21  1  0
 17 15  1  0
 18 17  2  0
 19 13  2  0
 20 19  1  0
 22 26  1  0
 22 23  1  1
 22 21  1  0
 23 24  1  0
 24 28  1  0
 24 25  2  0
 26 29  1  0
 27 26  2  0
M  END
$$$$
