NYD.pdb
     RDKit          3D

 29 29  0  0  1  0  0  0  0  0999 V2000
   17.9215  -13.1253  -15.7033 N   0  0  0  0  0  0  0  0  0  0  0  0
   16.7875  -12.5579  -15.0204 C   0  0  0  0  0  0  0  0  0  0  0  0
   15.8019  -13.2769  -14.7549 O   0  0  0  0  0  0  0  0  0  0  0  0
   16.8421  -11.1500  -14.6647 C   0  0  0  0  0  0  0  0  0  0  0  0
   16.3738  -10.8314  -13.2612 C   0  0  2  0  0  0  0  0  0  0  0  0
   14.8952  -10.6747  -13.4426 N   0  0  0  0  0  0  0  0  0  0  0  0
   16.8457   -9.4715  -12.9135 C   0  0  0  0  0  0  0  0  0  0  0  0
   16.1438   -8.4820  -13.3348 O   0  0  0  0  0  0  0  0  0  0  0  0
   13.2900   -6.8840   -8.0330 O   0  0  0  0  0  0  0  0  0  0  0  0
   14.5315   -7.1097   -8.6132 C   0  0  0  0  0  0  0  0  0  0  0  0
   15.0214   -8.3711   -8.8813 C   0  0  0  0  0  0  0  0  0  0  0  0
   16.2844   -8.5192   -9.4690 C   0  0  0  0  0  0  0  0  0  0  0  0
   17.0445   -7.4125   -9.7828 C   0  0  0  0  0  0  0  0  0  0  0  0
   18.3568   -7.5732  -10.3911 C   0  0  0  0  0  0  0  0  0  0  0  0
   18.3482   -7.7443  -11.8986 C   0  0  2  0  0  0  0  0  0  0  0  0
   17.9939   -9.1482  -12.1556 N   0  0  0  0  0  0  0  0  0  0  0  0
   19.6313   -7.3512  -12.5082 C   0  0  0  0  0  0  0  0  0  0  0  0
   20.6802   -7.7998  -11.9811 O   0  0  0  0  0  0  0  0  0  0  0  0
   16.5388   -6.1680   -9.5077 C   0  0  0  0  0  0  0  0  0  0  0  0
   15.2883   -5.9864   -8.9247 C   0  0  0  0  0  0  0  0  0  0  0  0
   19.7936   -6.5176  -13.6300 N   0  0  0  0  0  0  0  0  0  0  0  0
   21.0884   -6.1872  -14.2135 C   0  0  1  0  0  0  0  0  0  0  0  0
   21.1718   -6.6319  -15.6372 C   0  0  0  0  0  0  0  0  0  0  0  0
   21.0523   -8.0970  -15.7250 C   0  0  0  0  0  0  0  0  0  0  0  0
   21.7511   -8.8953  -15.0557 O   0  0  0  0  0  0  0  0  0  0  0  0
   21.2558   -4.7317  -14.1160 C   0  0  0  0  0  0  0  0  0  0  0  0
   22.3475   -4.1920  -14.3959 O   0  0  0  0  0  0  0  0  0  0  0  0
   20.1165   -8.6356  -16.5944 O   0  0  0  0  0  0  0  0  0  0  0  0
   20.2074   -3.9355  -13.7145 O   0  0  0  0  0  0  0  0  0  0  0  0
  1  2  1  0
  2  3  2  0
  4  2  1  0
  4  5  1  0
  5  6  1  6
  5  7  1  0
  7  8  2  0
  9 10  1  0
 10 20  2  0
 10 11  1  0
 11 12  2  0
 12 13  1  0
 13 14  1  0
 15 14  1  1
 16  7  1  0
 16 15  1  0
 17 21  1  0
 17 15  1  0
 18 17  2  0
 19 13  2  0
 20 19  1  0
 22 26  1  0
 22 23  1  6
 22 21  1  0
 23 24  1  0
 24 28  1  0
 24 25  2  0
 26 29  1  0
 27 26  2  0
M  END
$$$$
