NYD.pdb
     RDKit          3D

 29 29  0  0  1  0  0  0  0  0999 V2000
   26.3861  -10.1773  -20.0222 N   0  0  0  0  0  0  0  0  0  0  0  0
   25.2215   -9.6515  -20.6868 C   0  0  0  0  0  0  0  0  0  0  0  0
   25.2630   -9.4133  -21.9117 O   0  0  0  0  0  0  0  0  0  0  0  0
   24.0301   -9.4178  -19.8885 C   0  0  0  0  0  0  0  0  0  0  0  0
   24.1804   -9.7344  -18.4161 C   0  0  2  0  0  0  0  0  0  0  0  0
   24.0754  -11.2284  -18.3954 N   0  0  0  0  0  0  0  0  0  0  0  0
   22.9598   -9.2723  -17.7165 C   0  0  0  0  0  0  0  0  0  0  0  0
   21.8389   -9.4411  -18.3201 O   0  0  0  0  0  0  0  0  0  0  0  0
   20.1164  -14.4560  -15.1906 O   0  0  0  0  0  0  0  0  0  0  0  0
   20.3902  -13.1012  -15.0544 C   0  0  0  0  0  0  0  0  0  0  0  0
   19.4560  -12.1146  -15.2928 C   0  0  0  0  0  0  0  0  0  0  0  0
   19.8071  -10.7677  -15.1337 C   0  0  0  0  0  0  0  0  0  0  0  0
   21.0813  -10.4183  -14.7397 C   0  0  0  0  0  0  0  0  0  0  0  0
   21.4402   -9.0171  -14.5785 C   0  0  0  0  0  0  0  0  0  0  0  0
   21.6104   -8.2456  -15.8737 C   0  0  2  0  0  0  0  0  0  0  0  0
   22.9003   -8.6657  -16.4415 N   0  0  0  0  0  0  0  0  0  0  0  0
   21.5167   -6.7892  -15.6675 C   0  0  0  0  0  0  0  0  0  0  0  0
   22.5951   -6.1507  -15.5737 O   0  0  0  0  0  0  0  0  0  0  0  0
   21.9944  -11.4146  -14.5082 C   0  0  0  0  0  0  0  0  0  0  0  0
   21.6780  -12.7616  -14.6571 C   0  0  0  0  0  0  0  0  0  0  0  0
   20.3285   -6.0425  -15.5658 N   0  0  0  0  0  0  0  0  0  0  0  0
   20.2924   -4.5902  -15.4417 C   0  0  1  0  0  0  0  0  0  0  0  0
   21.0663   -3.9321  -16.5370 C   0  0  0  0  0  0  0  0  0  0  0  0
   21.0074   -2.4672  -16.3985 C   0  0  0  0  0  0  0  0  0  0  0  0
   20.2292   -1.7351  -17.0556 O   0  0  0  0  0  0  0  0  0  0  0  0
   18.8831   -4.1802  -15.4865 C   0  0  0  0  0  0  0  0  0  0  0  0
   18.0389   -4.8551  -16.1136 O   0  0  0  0  0  0  0  0  0  0  0  0
   21.8567   -1.8516  -15.4922 O   0  0  0  0  0  0  0  0  0  0  0  0
   18.4680   -3.0417  -14.8341 O   0  0  0  0  0  0  0  0  0  0  0  0
  1  2  1  0
  2  3  2  0
  4  2  1  0
  4  5  1  0
  5  6  1  6
  5  7  1  0
  7  8  2  0
  9 10  1  0
 10 20  2  0
 10 11  1  0
 11 12  2  0
 12 13  1  0
 13 14  1  0
 15 14  1  1
 16  7  1  0
 16 15  1  0
 17 21  1  0
 17 15  1  0
 18 17  2  0
 19 13  2  0
 20 19  1  0
 22 26  1  0
 22 23  1  6
 22 21  1  0
 23 24  1  0
 24 28  1  0
 24 25  2  0
 26 29  1  0
 27 26  2  0
M  END
$$$$
