NYD.pdb
     RDKit          3D

 29 29  0  0  1  0  0  0  0  0999 V2000
   25.6374  -11.0440  -21.1176 N   0  0  0  0  0  0  0  0  0  0  0  0
   24.3424  -11.6705  -21.0498 C   0  0  0  0  0  0  0  0  0  0  0  0
   23.8973  -12.2804  -22.0443 O   0  0  0  0  0  0  0  0  0  0  0  0
   23.5990  -11.5631  -19.8059 C   0  0  0  0  0  0  0  0  0  0  0  0
   24.2751  -10.7388  -18.7315 C   0  0  2  0  0  0  0  0  0  0  0  0
   25.2322  -11.7199  -18.1273 N   0  0  0  0  0  0  0  0  0  0  0  0
   23.2891  -10.4807  -17.6573 C   0  0  0  0  0  0  0  0  0  0  0  0
   22.0993  -10.1597  -18.0186 O   0  0  0  0  0  0  0  0  0  0  0  0
   21.6330  -16.5645  -15.0163 O   0  0  0  0  0  0  0  0  0  0  0  0
   21.8299  -15.2064  -14.8030 C   0  0  0  0  0  0  0  0  0  0  0  0
   20.8270  -14.2683  -14.9352 C   0  0  0  0  0  0  0  0  0  0  0  0
   21.1025  -12.9145  -14.7031 C   0  0  0  0  0  0  0  0  0  0  0  0
   22.3702  -12.5100  -14.3424 C   0  0  0  0  0  0  0  0  0  0  0  0
   22.6503  -11.1017  -14.1048 C   0  0  0  0  0  0  0  0  0  0  0  0
   22.4642  -10.1987  -15.3097 C   0  0  2  0  0  0  0  0  0  0  0  0
   23.5227  -10.5574  -16.2656 N   0  0  0  0  0  0  0  0  0  0  0  0
   22.4785   -8.7719  -14.9404 C   0  0  0  0  0  0  0  0  0  0  0  0
   23.5829   -8.1747  -14.9936 O   0  0  0  0  0  0  0  0  0  0  0  0
   23.3522  -13.4586  -14.2167 C   0  0  0  0  0  0  0  0  0  0  0  0
   23.1119  -14.8109  -14.4402 C   0  0  0  0  0  0  0  0  0  0  0  0
   21.3672   -8.0115  -14.5323 N   0  0  0  0  0  0  0  0  0  0  0  0
   21.4286   -6.5876  -14.2244 C   0  0  1  0  0  0  0  0  0  0  0  0
   22.0645   -5.8186  -15.3361 C   0  0  0  0  0  0  0  0  0  0  0  0
   22.1285   -4.3866  -14.9985 C   0  0  0  0  0  0  0  0  0  0  0  0
   22.0940   -3.9443  -13.8252 O   0  0  0  0  0  0  0  0  0  0  0  0
   20.0528   -6.1271  -13.9984 C   0  0  0  0  0  0  0  0  0  0  0  0
   19.0818   -6.8893  -14.1922 O   0  0  0  0  0  0  0  0  0  0  0  0
   22.2331   -3.4657  -16.0293 O   0  0  0  0  0  0  0  0  0  0  0  0
   19.8104   -4.8432  -13.5660 O   0  0  0  0  0  0  0  0  0  0  0  0
  1  2  1  0
  2  3  2  0
  4  2  1  0
  4  5  1  0
  5  6  1  1
  5  7  1  0
  7  8  2  0
  9 10  1  0
 10 20  2  0
 10 11  1  0
 11 12  2  0
 12 13  1  0
 13 14  1  0
 15 14  1  1
 16  7  1  0
 16 15  1  0
 17 21  1  0
 17 15  1  0
 18 17  2  0
 19 13  2  0
 20 19  1  0
 22 26  1  0
 22 23  1  6
 22 21  1  0
 23 24  1  0
 24 28  1  0
 24 25  2  0
 26 29  1  0
 27 26  2  0
M  END
$$$$
