NYD.pdb
     RDKit          3D

 29 29  0  0  1  0  0  0  0  0999 V2000
   21.8112  -11.9739  -19.8655 N   0  0  0  0  0  0  0  0  0  0  0  0
   20.6205  -12.1617  -19.0772 C   0  0  0  0  0  0  0  0  0  0  0  0
   19.8604  -13.1211  -19.3237 O   0  0  0  0  0  0  0  0  0  0  0  0
   20.3525  -11.2102  -18.0122 C   0  0  0  0  0  0  0  0  0  0  0  0
   21.3678  -10.0947  -17.8874 C   0  0  2  0  0  0  0  0  0  0  0  0
   22.5238  -10.7833  -17.2294 N   0  0  0  0  0  0  0  0  0  0  0  0
   20.8818   -9.1390  -16.8660 C   0  0  0  0  0  0  0  0  0  0  0  0
   19.8238   -8.4677  -17.1477 O   0  0  0  0  0  0  0  0  0  0  0  0
   18.7936   -5.3011   -9.1972 O   0  0  0  0  0  0  0  0  0  0  0  0
   19.3091   -6.0920  -10.2158 C   0  0  0  0  0  0  0  0  0  0  0  0
   18.5401   -6.9666  -10.9552 C   0  0  0  0  0  0  0  0  0  0  0  0
   19.1323   -7.7320  -11.9682 C   0  0  0  0  0  0  0  0  0  0  0  0
   20.4804   -7.6186  -12.2338 C   0  0  0  0  0  0  0  0  0  0  0  0
   21.0899   -8.4182  -13.2860 C   0  0  0  0  0  0  0  0  0  0  0  0
   20.8796   -7.8930  -14.6938 C   0  0  2  0  0  0  0  0  0  0  0  0
   21.4630   -8.8920  -15.6018 N   0  0  0  0  0  0  0  0  0  0  0  0
   21.4500   -6.5458  -14.8736 C   0  0  0  0  0  0  0  0  0  0  0  0
   22.7027   -6.4460  -14.8693 O   0  0  0  0  0  0  0  0  0  0  0  0
   21.2264   -6.7435  -11.4870 C   0  0  0  0  0  0  0  0  0  0  0  0
   20.6692   -5.9690  -10.4739 C   0  0  0  0  0  0  0  0  0  0  0  0
   20.7211   -5.3554  -15.0509 N   0  0  0  0  0  0  0  0  0  0  0  0
   21.3323   -4.0333  -15.1168 C   0  0  1  0  0  0  0  0  0  0  0  0
   21.2898   -3.4839  -16.5053 C   0  0  0  0  0  0  0  0  0  0  0  0
   21.9218   -2.1546  -16.5508 C   0  0  0  0  0  0  0  0  0  0  0  0
   22.7455   -1.7443  -15.6984 O   0  0  0  0  0  0  0  0  0  0  0  0
   20.5949   -3.1617  -14.1934 C   0  0  0  0  0  0  0  0  0  0  0  0
   19.4631   -3.4845  -13.7735 O   0  0  0  0  0  0  0  0  0  0  0  0
   21.5947   -1.2995  -17.5917 O   0  0  0  0  0  0  0  0  0  0  0  0
   21.1421   -1.9709  -13.7730 O   0  0  0  0  0  0  0  0  0  0  0  0
  1  2  1  0
  2  3  2  0
  4  2  1  0
  4  5  1  0
  5  6  1  1
  5  7  1  0
  7  8  2  0
  9 10  1  0
 10 20  2  0
 10 11  1  0
 11 12  2  0
 12 13  1  0
 13 14  1  0
 15 14  1  1
 16  7  1  0
 16 15  1  0
 17 21  1  0
 17 15  1  0
 18 17  2  0
 19 13  2  0
 20 19  1  0
 22 26  1  0
 22 23  1  6
 22 21  1  0
 23 24  1  0
 24 28  1  0
 24 25  2  0
 26 29  1  0
 27 26  2  0
M  END
$$$$
