NYD.pdb
     RDKit          3D

 29 29  0  0  1  0  0  0  0  0999 V2000
   16.3394  -15.1405  -16.9173 N   0  0  0  0  0  0  0  0  0  0  0  0
   16.8046  -15.0845  -15.5554 C   0  0  0  0  0  0  0  0  0  0  0  0
   16.5049  -16.0001  -14.7611 O   0  0  0  0  0  0  0  0  0  0  0  0
   17.6158  -13.9457  -15.1598 C   0  0  0  0  0  0  0  0  0  0  0  0
   17.7929  -12.8902  -16.2300 C   0  0  2  0  0  0  0  0  0  0  0  0
   19.0505  -13.3320  -16.9133 N   0  0  0  0  0  0  0  0  0  0  0  0
   18.1635  -11.6182  -15.5685 C   0  0  0  0  0  0  0  0  0  0  0  0
   17.2809  -11.0721  -14.8122 O   0  0  0  0  0  0  0  0  0  0  0  0
   22.5737   -4.1370  -13.5712 O   0  0  0  0  0  0  0  0  0  0  0  0
   22.2064   -5.4131  -13.9779 C   0  0  0  0  0  0  0  0  0  0  0  0
   22.0605   -5.7707  -15.3023 C   0  0  0  0  0  0  0  0  0  0  0  0
   21.6871   -7.0793  -15.6350 C   0  0  0  0  0  0  0  0  0  0  0  0
   21.4635   -8.0157  -14.6481 C   0  0  0  0  0  0  0  0  0  0  0  0
   21.0736   -9.3729  -15.0004 C   0  0  0  0  0  0  0  0  0  0  0  0
   19.5772   -9.6088  -15.0845 C   0  0  2  0  0  0  0  0  0  0  0  0
   19.3991  -10.9416  -15.6799 N   0  0  0  0  0  0  0  0  0  0  0  0
   18.8897   -8.5435  -15.8363 C   0  0  0  0  0  0  0  0  0  0  0  0
   18.8595   -8.6502  -17.0881 O   0  0  0  0  0  0  0  0  0  0  0  0
   21.6139   -7.6393  -13.3382 C   0  0  0  0  0  0  0  0  0  0  0  0
   21.9836   -6.3481  -12.9740 C   0  0  0  0  0  0  0  0  0  0  0  0
   18.2608   -7.4133  -15.2823 N   0  0  0  0  0  0  0  0  0  0  0  0
   17.6193   -6.3723  -16.0765 C   0  0  1  0  0  0  0  0  0  0  0  0
   16.2054   -6.7298  -16.4001 C   0  0  0  0  0  0  0  0  0  0  0  0
   15.5395   -5.6136  -17.0924 C   0  0  0  0  0  0  0  0  0  0  0  0
   16.1244   -4.8342  -17.8823 O   0  0  0  0  0  0  0  0  0  0  0  0
   17.6726   -5.1292  -15.2968 C   0  0  0  0  0  0  0  0  0  0  0  0
   17.2603   -5.0940  -14.1178 O   0  0  0  0  0  0  0  0  0  0  0  0
   14.1883   -5.4032  -16.8652 O   0  0  0  0  0  0  0  0  0  0  0  0
   18.1812   -3.9785  -15.8548 O   0  0  0  0  0  0  0  0  0  0  0  0
  1  2  1  0
  2  3  2  0
  4  2  1  0
  4  5  1  0
  5  6  1  6
  5  7  1  0
  7  8  2  0
  9 10  1  0
 10 20  2  0
 10 11  1  0
 11 12  2  0
 12 13  1  0
 13 14  1  0
 15 14  1  6
 16  7  1  0
 16 15  1  0
 17 21  1  0
 17 15  1  0
 18 17  2  0
 19 13  2  0
 20 19  1  0
 22 26  1  0
 22 23  1  1
 22 21  1  0
 23 24  1  0
 24 28  1  0
 24 25  2  0
 26 29  1  0
 27 26  2  0
M  END
$$$$
