NYD.pdb
     RDKit          3D

 29 29  0  0  1  0  0  0  0  0999 V2000
   19.3637  -21.6443  -13.7743 N   0  0  0  0  0  0  0  0  0  0  0  0
   19.4146  -20.6772  -12.7082 C   0  0  0  0  0  0  0  0  0  0  0  0
   18.3527  -20.2448  -12.2140 O   0  0  0  0  0  0  0  0  0  0  0  0
   20.7217  -20.2407  -12.2476 C   0  0  0  0  0  0  0  0  0  0  0  0
   21.8925  -20.8618  -12.9786 C   0  0  2  0  0  0  0  0  0  0  0  0
   21.7346  -22.3173  -12.6618 N   0  0  0  0  0  0  0  0  0  0  0  0
   23.1366  -20.4680  -12.2787 C   0  0  0  0  0  0  0  0  0  0  0  0
   23.4106  -19.2143  -12.2312 O   0  0  0  0  0  0  0  0  0  0  0  0
   28.6977  -18.9093   -5.9916 O   0  0  0  0  0  0  0  0  0  0  0  0
   27.9818  -19.6019   -6.9594 C   0  0  0  0  0  0  0  0  0  0  0  0
   28.5637  -20.4986   -7.8314 C   0  0  0  0  0  0  0  0  0  0  0  0
   27.7751  -21.1600   -8.7819 C   0  0  0  0  0  0  0  0  0  0  0  0
   26.4189  -20.9224   -8.8537 C   0  0  0  0  0  0  0  0  0  0  0  0
   25.6057  -21.6111   -9.8449 C   0  0  0  0  0  0  0  0  0  0  0  0
   25.3213  -20.8162  -11.1054 C   0  0  2  0  0  0  0  0  0  0  0  0
   24.0570  -21.3354  -11.6481 N   0  0  0  0  0  0  0  0  0  0  0  0
   26.4354  -20.8865  -12.0680 C   0  0  0  0  0  0  0  0  0  0  0  0
   27.1854  -21.8930  -12.0076 O   0  0  0  0  0  0  0  0  0  0  0  0
   25.8609  -20.0273   -7.9777 C   0  0  0  0  0  0  0  0  0  0  0  0
   26.6157  -19.3538   -7.0221 C   0  0  0  0  0  0  0  0  0  0  0  0
   26.7397  -19.9289  -13.0529 N   0  0  0  0  0  0  0  0  0  0  0  0
   27.4449  -20.2364  -14.2915 C   0  0  1  0  0  0  0  0  0  0  0  0
   27.0770  -21.5906  -14.8039 C   0  0  0  0  0  0  0  0  0  0  0  0
   27.7647  -21.8614  -16.0777 C   0  0  0  0  0  0  0  0  0  0  0  0
   28.5826  -21.0735  -16.6103 O   0  0  0  0  0  0  0  0  0  0  0  0
   27.0891  -19.1999  -15.2688 C   0  0  0  0  0  0  0  0  0  0  0  0
   27.9729  -18.6006  -15.9178 O   0  0  0  0  0  0  0  0  0  0  0  0
   27.5000  -23.0531  -16.7345 O   0  0  0  0  0  0  0  0  0  0  0  0
   25.7705  -18.8720  -15.4872 O   0  0  0  0  0  0  0  0  0  0  0  0
  1  2  1  0
  2  3  2  0
  4  2  1  0
  4  5  1  0
  5  6  1  1
  5  7  1  0
  7  8  2  0
  9 10  1  0
 10 20  2  0
 10 11  1  0
 11 12  2  0
 12 13  1  0
 13 14  1  0
 15 14  1  1
 16  7  1  0
 16 15  1  0
 17 21  1  0
 17 15  1  0
 18 17  2  0
 19 13  2  0
 20 19  1  0
 22 26  1  0
 22 23  1  6
 22 21  1  0
 23 24  1  0
 24 28  1  0
 24 25  2  0
 26 29  1  0
 27 26  2  0
M  END
$$$$
