NYD.pdb
     RDKit          3D

 29 29  0  0  1  0  0  0  0  0999 V2000
   17.2998  -14.1400  -14.9582 N   0  0  0  0  0  0  0  0  0  0  0  0
   17.2487  -12.8271  -15.5480 C   0  0  0  0  0  0  0  0  0  0  0  0
   17.8462  -12.6076  -16.6221 O   0  0  0  0  0  0  0  0  0  0  0  0
   16.4910  -11.7990  -14.8549 C   0  0  0  0  0  0  0  0  0  0  0  0
   15.9197  -12.2234  -13.5191 C   0  0  2  0  0  0  0  0  0  0  0  0
   14.6739  -12.9528  -13.9186 N   0  0  0  0  0  0  0  0  0  0  0  0
   15.4273  -11.0137  -12.8211 C   0  0  0  0  0  0  0  0  0  0  0  0
   14.2818  -10.5563  -13.1786 O   0  0  0  0  0  0  0  0  0  0  0  0
   12.9763   -5.2102   -6.7631 O   0  0  0  0  0  0  0  0  0  0  0  0
   13.6207   -6.2163   -7.4713 C   0  0  0  0  0  0  0  0  0  0  0  0
   14.9899   -6.3846   -7.4668 C   0  0  0  0  0  0  0  0  0  0  0  0
   15.5678   -7.4242   -8.2070 C   0  0  0  0  0  0  0  0  0  0  0  0
   14.7784   -8.2831   -8.9418 C   0  0  0  0  0  0  0  0  0  0  0  0
   15.3852   -9.3598   -9.7104 C   0  0  0  0  0  0  0  0  0  0  0  0
   15.4871   -9.1040  -11.2024 C   0  0  2  0  0  0  0  0  0  0  0  0
   16.0902  -10.3094  -11.7907 N   0  0  0  0  0  0  0  0  0  0  0  0
   16.2421   -7.8744  -11.5035 C   0  0  0  0  0  0  0  0  0  0  0  0
   17.4501   -7.8418  -11.1588 O   0  0  0  0  0  0  0  0  0  0  0  0
   13.4198   -8.0979   -8.9325 C   0  0  0  0  0  0  0  0  0  0  0  0
   12.8143   -7.0755   -8.2083 C   0  0  0  0  0  0  0  0  0  0  0  0
   15.7358   -6.7283  -12.1438 N   0  0  0  0  0  0  0  0  0  0  0  0
   16.5399   -5.5527  -12.4559 C   0  0  1  0  0  0  0  0  0  0  0  0
   16.4454   -5.1990  -13.9042 C   0  0  0  0  0  0  0  0  0  0  0  0
   17.1679   -6.1878  -14.7221 C   0  0  0  0  0  0  0  0  0  0  0  0
   18.3253   -6.5958  -14.4625 O   0  0  0  0  0  0  0  0  0  0  0  0
   16.0476   -4.4494  -11.6213 C   0  0  0  0  0  0  0  0  0  0  0  0
   16.6436   -3.3515  -11.5937 O   0  0  0  0  0  0  0  0  0  0  0  0
   16.5418   -6.7041  -15.8460 O   0  0  0  0  0  0  0  0  0  0  0  0
   14.9160   -4.6077  -10.8543 O   0  0  0  0  0  0  0  0  0  0  0  0
  1  2  1  0
  2  3  2  0
  4  2  1  0
  4  5  1  0
  5  6  1  6
  5  7  1  0
  7  8  2  0
  9 10  1  0
 10 20  2  0
 10 11  1  0
 11 12  2  0
 12 13  1  0
 13 14  1  0
 15 14  1  1
 16  7  1  0
 16 15  1  0
 17 21  1  0
 17 15  1  0
 18 17  2  0
 19 13  2  0
 20 19  1  0
 22 26  1  0
 22 23  1  6
 22 21  1  0
 23 24  1  0
 24 28  1  0
 24 25  2  0
 26 29  1  0
 27 26  2  0
M  END
$$$$
