NYD.pdb
     RDKit          3D

 29 29  0  0  1  0  0  0  0  0999 V2000
   29.1456  -22.7439  -18.5074 N   0  0  0  0  0  0  0  0  0  0  0  0
   29.5538  -23.3075  -17.2465 C   0  0  0  0  0  0  0  0  0  0  0  0
   30.5969  -23.9908  -17.1830 O   0  0  0  0  0  0  0  0  0  0  0  0
   28.7194  -23.0515  -16.0847 C   0  0  0  0  0  0  0  0  0  0  0  0
   27.4751  -22.2364  -16.3642 C   0  0  2  0  0  0  0  0  0  0  0  0
   28.0393  -20.8860  -16.6832 N   0  0  0  0  0  0  0  0  0  0  0  0
   26.7545  -22.0390  -15.0858 C   0  0  0  0  0  0  0  0  0  0  0  0
   26.0831  -23.0351  -14.6315 O   0  0  0  0  0  0  0  0  0  0  0  0
   27.7830  -21.1436   -7.0252 O   0  0  0  0  0  0  0  0  0  0  0  0
   27.4920  -20.7946   -8.3377 C   0  0  0  0  0  0  0  0  0  0  0  0
   28.3404  -21.0551   -9.3938 C   0  0  0  0  0  0  0  0  0  0  0  0
   27.9772  -20.6726  -10.6917 C   0  0  0  0  0  0  0  0  0  0  0  0
   26.7762  -20.0365  -10.9237 C   0  0  0  0  0  0  0  0  0  0  0  0
   26.4059  -19.6396  -12.2740 C   0  0  0  0  0  0  0  0  0  0  0  0
   25.8454  -20.7532  -13.1387 C   0  0  2  0  0  0  0  0  0  0  0  0
   26.7340  -20.8609  -14.3055 N   0  0  0  0  0  0  0  0  0  0  0  0
   24.4375  -20.5155  -13.5045 C   0  0  0  0  0  0  0  0  0  0  0  0
   24.2088  -20.0837  -14.6623 O   0  0  0  0  0  0  0  0  0  0  0  0
   25.9480  -19.7870   -9.8598 C   0  0  0  0  0  0  0  0  0  0  0  0
   26.2787  -20.1538   -8.5588 C   0  0  0  0  0  0  0  0  0  0  0  0
   23.3201  -20.7277  -12.6763 N   0  0  0  0  0  0  0  0  0  0  0  0
   21.9420  -20.7001  -13.1519 C   0  0  1  0  0  0  0  0  0  0  0  0
   21.7037  -21.7503  -14.1872 C   0  0  0  0  0  0  0  0  0  0  0  0
   20.2981  -21.7286  -14.6260 C   0  0  0  0  0  0  0  0  0  0  0  0
   19.5016  -20.7942  -14.3696 O   0  0  0  0  0  0  0  0  0  0  0  0
   21.0713  -20.9139  -11.9890 C   0  0  0  0  0  0  0  0  0  0  0  0
   21.4334  -21.6460  -11.0433 O   0  0  0  0  0  0  0  0  0  0  0  0
   19.8174  -22.7978  -15.3659 O   0  0  0  0  0  0  0  0  0  0  0  0
   19.8379  -20.3071  -11.9217 O   0  0  0  0  0  0  0  0  0  0  0  0
  1  2  1  0
  2  3  2  0
  4  2  1  0
  4  5  1  0
  5  6  1  1
  5  7  1  0
  7  8  2  0
  9 10  1  0
 10 20  2  0
 10 11  1  0
 11 12  2  0
 12 13  1  0
 13 14  1  0
 15 14  1  1
 16  7  1  0
 16 15  1  0
 17 21  1  0
 17 15  1  0
 18 17  2  0
 19 13  2  0
 20 19  1  0
 22 26  1  0
 22 23  1  6
 22 21  1  0
 23 24  1  0
 24 28  1  0
 24 25  2  0
 26 29  1  0
 27 26  2  0
M  END
$$$$
