NYD.pdb
     RDKit          3D

 29 29  0  0  1  0  0  0  0  0999 V2000
   19.1425  -10.8935  -15.4706 N   0  0  0  0  0  0  0  0  0  0  0  0
   17.7823  -11.3001  -15.2280 C   0  0  0  0  0  0  0  0  0  0  0  0
   17.3050  -12.2689  -15.8546 O   0  0  0  0  0  0  0  0  0  0  0  0
   17.0132  -10.5521  -14.2480 C   0  0  0  0  0  0  0  0  0  0  0  0
   17.7433   -9.3799  -13.6285 C   0  0  2  0  0  0  0  0  0  0  0  0
   18.6555  -10.0505  -12.6477 N   0  0  0  0  0  0  0  0  0  0  0  0
   16.7845   -8.6317  -12.7837 C   0  0  0  0  0  0  0  0  0  0  0  0
   15.8192   -8.0327  -13.3825 O   0  0  0  0  0  0  0  0  0  0  0  0
   11.9446   -5.8746   -5.8680 O   0  0  0  0  0  0  0  0  0  0  0  0
   12.8389   -6.5071   -6.7218 C   0  0  0  0  0  0  0  0  0  0  0  0
   12.4819   -7.5503   -7.5509 C   0  0  0  0  0  0  0  0  0  0  0  0
   13.4412   -8.1385   -8.3854 C   0  0  0  0  0  0  0  0  0  0  0  0
   14.7424   -7.6829   -8.3858 C   0  0  0  0  0  0  0  0  0  0  0  0
   15.7347   -8.2998   -9.2535 C   0  0  0  0  0  0  0  0  0  0  0  0
   15.7844   -7.7467  -10.6654 C   0  0  2  0  0  0  0  0  0  0  0  0
   16.8191   -8.5130  -11.3759 N   0  0  0  0  0  0  0  0  0  0  0  0
   16.0277   -6.2931  -10.6828 C   0  0  0  0  0  0  0  0  0  0  0  0
   17.2199   -5.9104  -10.7903 O   0  0  0  0  0  0  0  0  0  0  0  0
   15.0760   -6.6452   -7.5540 C   0  0  0  0  0  0  0  0  0  0  0  0
   14.1476   -6.0392   -6.7130 C   0  0  0  0  0  0  0  0  0  0  0  0
   15.0468   -5.2886  -10.5904 N   0  0  0  0  0  0  0  0  0  0  0  0
   15.3170   -3.8707  -10.7964 C   0  0  1  0  0  0  0  0  0  0  0  0
   15.9528   -3.6267  -12.1261 C   0  0  0  0  0  0  0  0  0  0  0  0
   16.0721   -2.1811  -12.3802 C   0  0  0  0  0  0  0  0  0  0  0  0
   15.8600   -1.3004  -11.5125 O   0  0  0  0  0  0  0  0  0  0  0  0
   14.0357   -3.1603  -10.6981 C   0  0  0  0  0  0  0  0  0  0  0  0
   13.9878   -1.9133  -10.7621 O   0  0  0  0  0  0  0  0  0  0  0  0
   16.4397   -1.7583  -13.6482 O   0  0  0  0  0  0  0  0  0  0  0  0
   12.8621   -3.8603  -10.5345 O   0  0  0  0  0  0  0  0  0  0  0  0
  1  2  1  0
  2  3  2  0
  4  2  1  0
  4  5  1  0
  5  6  1  1
  5  7  1  0
  7  8  2  0
  9 10  1  0
 10 20  2  0
 10 11  1  0
 11 12  2  0
 12 13  1  0
 13 14  1  0
 15 14  1  1
 16  7  1  0
 16 15  1  0
 17 21  1  0
 17 15  1  0
 18 17  2  0
 19 13  2  0
 20 19  1  0
 22 26  1  0
 22 23  1  6
 22 21  1  0
 23 24  1  0
 24 28  1  0
 24 25  2  0
 26 29  1  0
 27 26  2  0
M  END
$$$$
