NYD.pdb
     RDKit          3D

 29 29  0  0  1  0  0  0  0  0999 V2000
   30.1387  -20.5230  -19.3126 N   0  0  0  0  0  0  0  0  0  0  0  0
   28.7195  -20.5554  -19.5555 C   0  0  0  0  0  0  0  0  0  0  0  0
   28.2523  -19.9950  -20.5687 O   0  0  0  0  0  0  0  0  0  0  0  0
   27.8804  -21.2507  -18.5943 C   0  0  0  0  0  0  0  0  0  0  0  0
   28.6144  -21.7947  -17.3875 C   0  0  2  0  0  0  0  0  0  0  0  0
   28.9015  -23.2073  -17.7947 N   0  0  0  0  0  0  0  0  0  0  0  0
   27.6447  -21.9244  -16.2759 C   0  0  0  0  0  0  0  0  0  0  0  0
   26.9625  -23.0108  -16.2171 O   0  0  0  0  0  0  0  0  0  0  0  0
   23.1838  -20.6414   -8.6948 O   0  0  0  0  0  0  0  0  0  0  0  0
   24.1063  -20.6162   -9.7326 C   0  0  0  0  0  0  0  0  0  0  0  0
   25.3172  -21.2752   -9.6825 C   0  0  0  0  0  0  0  0  0  0  0  0
   26.1968  -21.2031  -10.7704 C   0  0  0  0  0  0  0  0  0  0  0  0
   25.8623  -20.4776  -11.8941 C   0  0  0  0  0  0  0  0  0  0  0  0
   26.7815  -20.4048  -13.0201 C   0  0  0  0  0  0  0  0  0  0  0  0
   26.3803  -21.2282  -14.2296 C   0  0  2  0  0  0  0  0  0  0  0  0
   27.3951  -20.9715  -15.2625 N   0  0  0  0  0  0  0  0  0  0  0  0
   25.0097  -20.9229  -14.6778 C   0  0  0  0  0  0  0  0  0  0  0  0
   24.8327  -19.8412  -15.2924 O   0  0  0  0  0  0  0  0  0  0  0  0
   24.6540  -19.8301  -11.9231 C   0  0  0  0  0  0  0  0  0  0  0  0
   23.7579  -19.8814  -10.8597 C   0  0  0  0  0  0  0  0  0  0  0  0
   23.8754  -21.7322  -14.4820 N   0  0  0  0  0  0  0  0  0  0  0  0
   22.5354  -21.3708  -14.9288 C   0  0  1  0  0  0  0  0  0  0  0  0
   22.1407  -22.1456  -16.1435 C   0  0  0  0  0  0  0  0  0  0  0  0
   20.8132  -21.7176  -16.6161 C   0  0  0  0  0  0  0  0  0  0  0  0
   20.3297  -20.5802  -16.4019 O   0  0  0  0  0  0  0  0  0  0  0  0
   21.6134  -21.6445  -13.8192 C   0  0  0  0  0  0  0  0  0  0  0  0
   20.4053  -21.3352  -13.8985 O   0  0  0  0  0  0  0  0  0  0  0  0
   20.0453  -22.6160  -17.3406 O   0  0  0  0  0  0  0  0  0  0  0  0
   22.0675  -22.2501  -12.6697 O   0  0  0  0  0  0  0  0  0  0  0  0
  1  2  1  0
  2  3  2  0
  4  2  1  0
  4  5  1  0
  5  6  1  6
  5  7  1  0
  7  8  2  0
  9 10  1  0
 10 20  2  0
 10 11  1  0
 11 12  2  0
 12 13  1  0
 13 14  1  0
 15 14  1  1
 16  7  1  0
 16 15  1  0
 17 21  1  0
 17 15  1  0
 18 17  2  0
 19 13  2  0
 20 19  1  0
 22 26  1  0
 22 23  1  6
 22 21  1  0
 23 24  1  0
 24 28  1  0
 24 25  2  0
 26 29  1  0
 27 26  2  0
M  END
$$$$
