NYD.pdb
     RDKit          3D

 29 29  0  0  1  0  0  0  0  0999 V2000
   19.7512  -12.8636  -18.3190 N   0  0  0  0  0  0  0  0  0  0  0  0
   19.1908  -11.9699  -17.3385 C   0  0  0  0  0  0  0  0  0  0  0  0
   17.9513  -11.8894  -17.2116 O   0  0  0  0  0  0  0  0  0  0  0  0
   20.1085  -11.1887  -16.5267 C   0  0  0  0  0  0  0  0  0  0  0  0
   21.5684  -11.3383  -16.8971 C   0  0  2  0  0  0  0  0  0  0  0  0
   22.0005  -12.4916  -16.0446 N   0  0  0  0  0  0  0  0  0  0  0  0
   22.3067  -10.1791  -16.3456 C   0  0  0  0  0  0  0  0  0  0  0  0
   22.4388  -10.1216  -15.0695 O   0  0  0  0  0  0  0  0  0  0  0  0
   28.0375  -12.4485  -15.7290 O   0  0  0  0  0  0  0  0  0  0  0  0
   27.2628  -11.3443  -16.0597 C   0  0  0  0  0  0  0  0  0  0  0  0
   26.7011  -11.1624  -17.3065 C   0  0  0  0  0  0  0  0  0  0  0  0
   25.9305  -10.0214  -17.5652 C   0  0  0  0  0  0  0  0  0  0  0  0
   25.7278   -9.0760  -16.5823 C   0  0  0  0  0  0  0  0  0  0  0  0
   24.9282   -7.8917  -16.8582 C   0  0  0  0  0  0  0  0  0  0  0  0
   23.4853   -7.9702  -16.3958 C   0  0  2  0  0  0  0  0  0  0  0  0
   22.8902   -9.1253  -17.0846 N   0  0  0  0  0  0  0  0  0  0  0  0
   22.7559   -6.7130  -16.6402 C   0  0  0  0  0  0  0  0  0  0  0  0
   22.3682   -6.4916  -17.8150 O   0  0  0  0  0  0  0  0  0  0  0  0
   26.2953   -9.2763  -15.3503 C   0  0  0  0  0  0  0  0  0  0  0  0
   27.0658  -10.3983  -15.0608 C   0  0  0  0  0  0  0  0  0  0  0  0
   22.4507   -5.7327  -15.6781 N   0  0  0  0  0  0  0  0  0  0  0  0
   21.7849   -4.4731  -15.9877 C   0  0  1  0  0  0  0  0  0  0  0  0
   21.1069   -3.9068  -14.7830 C   0  0  0  0  0  0  0  0  0  0  0  0
   20.4578   -2.6269  -15.1136 C   0  0  0  0  0  0  0  0  0  0  0  0
   20.9901   -1.5064  -14.9279 O   0  0  0  0  0  0  0  0  0  0  0  0
   22.8083   -3.5465  -16.4880 C   0  0  0  0  0  0  0  0  0  0  0  0
   22.5401   -2.7194  -17.3855 O   0  0  0  0  0  0  0  0  0  0  0  0
   19.1850   -2.6505  -15.6622 O   0  0  0  0  0  0  0  0  0  0  0  0
   24.0842   -3.5737  -15.9728 O   0  0  0  0  0  0  0  0  0  0  0  0
  1  2  1  0
  2  3  2  0
  4  2  1  0
  4  5  1  0
  5  6  1  1
  5  7  1  0
  7  8  2  0
  9 10  1  0
 10 20  2  0
 10 11  1  0
 11 12  2  0
 12 13  1  0
 13 14  1  0
 15 14  1  6
 16  7  1  0
 16 15  1  0
 17 21  1  0
 17 15  1  0
 18 17  2  0
 19 13  2  0
 20 19  1  0
 22 26  1  0
 22 23  1  1
 22 21  1  0
 23 24  1  0
 24 28  1  0
 24 25  2  0
 26 29  1  0
 27 26  2  0
M  END
$$$$
