WQP.pdb
     RDKit          3D

 31 33  0  0  1  0  0  0  0  0999 V2000
    9.0223  -17.6334   25.3599 N   0  0  0  0  0  0  0  0  0  0  0  0
    8.9586  -16.3429   24.7666 C   0  0  1  0  0  0  0  0  0  0  0  0
    9.2283  -15.1874   25.6767 C   0  0  0  0  0  0  0  0  0  0  0  0
    8.0257  -14.6910   26.3924 C   0  0  0  0  0  0  0  0  0  0  0  0
    7.1630  -15.4477   27.1895 C   0  0  0  0  0  0  0  0  0  0  0  0
    6.2040  -14.6461   27.6769 N   0  0  0  0  0  0  0  0  0  0  0  0
    6.3830  -13.3713   27.2396 C   0  0  0  0  0  0  0  0  0  0  0  0
    5.6663  -12.2128   27.4613 C   0  0  0  0  0  0  0  0  0  0  0  0
    6.0651  -11.0302   26.8828 C   0  0  0  0  0  0  0  0  0  0  0  0
    7.1883  -11.0356   26.0848 C   0  0  0  0  0  0  0  0  0  0  0  0
    7.8975  -12.2171   25.8742 C   0  0  0  0  0  0  0  0  0  0  0  0
    7.5129  -13.4127   26.4461 C   0  0  0  0  0  0  0  0  0  0  0  0
    9.9017  -16.2413   23.6235 C   0  0  0  0  0  0  0  0  0  0  0  0
   11.0227  -15.7159   23.8231 O   0  0  0  0  0  0  0  0  0  0  0  0
   12.7909  -18.0035   17.8359 N   0  0  0  0  0  0  0  0  0  0  0  0
   13.0609  -17.1364   18.9129 C   0  0  0  0  0  0  0  0  0  0  0  0
   14.1704  -17.0227   19.4803 O   0  0  0  0  0  0  0  0  0  0  0  0
   11.9286  -16.2997   19.4007 C   0  0  0  0  0  0  0  0  0  0  0  0
   11.3154  -16.9077   20.6469 C   0  0  0  0  0  0  0  0  0  0  0  0
   10.1381  -16.0906   21.1090 C   0  0  2  0  0  0  0  0  0  0  0  0
    9.6082  -16.7055   22.3142 N   0  0  0  0  0  0  0  0  0  0  0  0
    9.0568  -15.9706   20.1265 C   0  0  0  0  0  0  0  0  0  0  0  0
    8.2138  -16.9294   19.9950 O   0  0  0  0  0  0  0  0  0  0  0  0
    8.8918  -14.8453   19.3121 N   0  0  0  0  0  0  0  0  0  0  0  0
    9.6570  -13.6087   19.3237 C   0  0  0  0  0  0  0  0  0  0  0  0
    8.5591  -12.6012   19.0962 C   0  0  0  0  0  0  0  0  0  0  0  0
    7.7186  -13.2271   18.0234 C   0  0  0  0  0  0  0  0  0  0  0  0
    7.8694  -14.7060   18.2707 C   0  0  1  0  0  0  0  0  0  0  0  0
    8.2957  -15.3151   16.9899 C   0  0  0  0  0  0  0  0  0  0  0  0
    7.4554  -15.3149   16.0546 O   0  0  0  0  0  0  0  0  0  0  0  0
    9.5268  -15.8783   16.7438 O   0  0  0  0  0  0  0  0  0  0  0  0
  2 13  1  0
  2  1  1  1
  3  2  1  0
  4  3  1  0
  4  5  2  0
  6  5  1  0
  7  6  1  0
  8  7  2  0
  9  8  1  0
 10  9  2  0
 10 11  1  0
 11 12  2  0
 12  7  1  0
 12  4  1  0
 13 14  2  0
 16 15  1  0
 16 17  2  0
 18 16  1  0
 19 18  1  0
 20 19  1  6
 20 22  1  0
 21 20  1  0
 21 13  1  0
 22 23  2  0
 24 22  1  0
 24 28  1  0
 25 26  1  0
 25 24  1  0
 26 27  1  0
 27 28  1  0
 28 29  1  6
 29 30  2  0
 29 31  1  0
M  END
$$$$
