WQP.pdb
     RDKit          3D

 31 33  0  0  1  0  0  0  0  0999 V2000
    7.8792  -13.4341   22.9046 N   0  0  0  0  0  0  0  0  0  0  0  0
    8.3701  -14.7674   22.9551 C   0  0  1  0  0  0  0  0  0  0  0  0
    7.5864  -15.7249   23.7949 C   0  0  0  0  0  0  0  0  0  0  0  0
    6.9505  -15.1022   24.9837 C   0  0  0  0  0  0  0  0  0  0  0  0
    5.8280  -15.5757   25.6679 C   0  0  0  0  0  0  0  0  0  0  0  0
    5.5646  -14.7535   26.6948 N   0  0  0  0  0  0  0  0  0  0  0  0
    6.4672  -13.7375   26.7334 C   0  0  0  0  0  0  0  0  0  0  0  0
    6.6053  -12.6606   27.5856 C   0  0  0  0  0  0  0  0  0  0  0  0
    7.6229  -11.7544   27.3974 C   0  0  0  0  0  0  0  0  0  0  0  0
    8.4907  -11.9508   26.3454 C   0  0  0  0  0  0  0  0  0  0  0  0
    8.3331  -13.0454   25.4966 C   0  0  0  0  0  0  0  0  0  0  0  0
    7.3187  -13.9649   25.6699 C   0  0  0  0  0  0  0  0  0  0  0  0
    8.4666  -15.3455   21.5901 C   0  0  0  0  0  0  0  0  0  0  0  0
    8.3300  -16.5851   21.4589 O   0  0  0  0  0  0  0  0  0  0  0  0
    8.8088  -14.7564   15.8010 N   0  0  0  0  0  0  0  0  0  0  0  0
    7.8241  -13.9779   16.4406 C   0  0  0  0  0  0  0  0  0  0  0  0
    6.7115  -13.6848   15.9488 O   0  0  0  0  0  0  0  0  0  0  0  0
    8.1489  -13.4734   17.8045 C   0  0  0  0  0  0  0  0  0  0  0  0
    9.5097  -13.9743   18.2474 C   0  0  0  0  0  0  0  0  0  0  0  0
    9.3619  -15.1000   19.2365 C   0  0  2  0  0  0  0  0  0  0  0  0
    8.7049  -14.5751   20.4215 N   0  0  0  0  0  0  0  0  0  0  0  0
   10.6242  -15.7286   19.6368 C   0  0  0  0  0  0  0  0  0  0  0  0
   11.2977  -15.2296   20.6087 O   0  0  0  0  0  0  0  0  0  0  0  0
   11.1409  -16.8649   19.0053 N   0  0  0  0  0  0  0  0  0  0  0  0
   10.4970  -17.7119   18.0140 C   0  0  0  0  0  0  0  0  0  0  0  0
   10.9631  -19.0720   18.4668 C   0  0  0  0  0  0  0  0  0  0  0  0
   12.4129  -18.8624   18.7881 C   0  0  0  0  0  0  0  0  0  0  0  0
   12.4712  -17.4296   19.2515 C   0  0  1  0  0  0  0  0  0  0  0  0
   13.5165  -16.7588   18.4449 C   0  0  0  0  0  0  0  0  0  0  0  0
   14.7110  -17.0426   18.7161 O   0  0  0  0  0  0  0  0  0  0  0  0
   13.2874  -15.8559   17.4321 O   0  0  0  0  0  0  0  0  0  0  0  0
  2 13  1  0
  2  1  1  6
  3  2  1  0
  4  3  1  0
  4  5  2  0
  6  5  1  0
  7  6  1  0
  8  7  2  0
  9  8  1  0
 10  9  2  0
 10 11  1  0
 11 12  2  0
 12  7  1  0
 12  4  1  0
 13 14  2  0
 16 15  1  0
 16 17  2  0
 18 16  1  0
 19 18  1  0
 20 19  1  6
 20 22  1  0
 21 20  1  0
 21 13  1  0
 22 23  2  0
 24 22  1  0
 24 28  1  0
 25 26  1  0
 25 24  1  0
 26 27  1  0
 27 28  1  0
 28 29  1  6
 29 30  2  0
 29 31  1  0
M  END
$$$$
