WQP.pdb
     RDKit          3D

 31 33  0  0  1  0  0  0  0  0999 V2000
    6.0437  -18.6034   24.8322 N   0  0  0  0  0  0  0  0  0  0  0  0
    6.4920  -17.2777   24.5814 C   0  0  1  0  0  0  0  0  0  0  0  0
    7.2705  -16.6284   25.6808 C   0  0  0  0  0  0  0  0  0  0  0  0
    6.6923  -15.3438   26.1507 C   0  0  0  0  0  0  0  0  0  0  0  0
    5.4230  -15.1584   26.7046 C   0  0  0  0  0  0  0  0  0  0  0  0
    5.2699  -13.8634   27.0199 N   0  0  0  0  0  0  0  0  0  0  0  0
    6.3891  -13.1612   26.6998 C   0  0  0  0  0  0  0  0  0  0  0  0
    6.7043  -11.8234   26.8264 C   0  0  0  0  0  0  0  0  0  0  0  0
    7.9301  -11.3581   26.4103 C   0  0  0  0  0  0  0  0  0  0  0  0
    8.8242  -12.2562   25.8697 C   0  0  0  0  0  0  0  0  0  0  0  0
    8.4855  -13.6032   25.7511 C   0  0  0  0  0  0  0  0  0  0  0  0
    7.2611  -14.0883   26.1631 C   0  0  0  0  0  0  0  0  0  0  0  0
    7.3256  -17.2268   23.3530 C   0  0  0  0  0  0  0  0  0  0  0  0
    8.0138  -18.2334   23.0599 O   0  0  0  0  0  0  0  0  0  0  0  0
    7.4332  -12.5612   19.1494 N   0  0  0  0  0  0  0  0  0  0  0  0
    8.3015  -13.4631   18.5035 C   0  0  0  0  0  0  0  0  0  0  0  0
    8.8058  -13.2862   17.3720 O   0  0  0  0  0  0  0  0  0  0  0  0
    8.6333  -14.7170   19.2369 C   0  0  0  0  0  0  0  0  0  0  0  0
    7.8418  -14.8045   20.5272 C   0  0  0  0  0  0  0  0  0  0  0  0
    8.1624  -16.0813   21.2580 C   0  0  2  0  0  0  0  0  0  0  0  0
    7.3895  -16.1025   22.4882 N   0  0  0  0  0  0  0  0  0  0  0  0
    9.5800  -16.2541   21.5890 C   0  0  0  0  0  0  0  0  0  0  0  0
   10.0578  -15.6856   22.6357 O   0  0  0  0  0  0  0  0  0  0  0  0
   10.4537  -17.0213   20.8112 N   0  0  0  0  0  0  0  0  0  0  0  0
   10.1637  -17.7420   19.5819 C   0  0  0  0  0  0  0  0  0  0  0  0
   10.9728  -18.9954   19.7980 C   0  0  0  0  0  0  0  0  0  0  0  0
   12.2685  -18.4902   20.3591 C   0  0  0  0  0  0  0  0  0  0  0  0
   11.8685  -17.2516   21.1187 C   0  0  1  0  0  0  0  0  0  0  0  0
   12.7289  -16.1500   20.6293 C   0  0  0  0  0  0  0  0  0  0  0  0
   12.2879  -15.4710   19.6674 O   0  0  0  0  0  0  0  0  0  0  0  0
   13.9627  -15.8139   21.1374 O   0  0  0  0  0  0  0  0  0  0  0  0
  2 13  1  0
  2  1  1  1
  3  2  1  0
  4  3  1  0
  4  5  2  0
  6  5  1  0
  7  6  1  0
  8  7  2  0
  9  8  1  0
 10  9  2  0
 10 11  1  0
 11 12  2  0
 12  7  1  0
 12  4  1  0
 13 14  2  0
 16 15  1  0
 16 17  2  0
 18 16  1  0
 19 18  1  0
 20 19  1  1
 20 22  1  0
 21 20  1  0
 21 13  1  0
 22 23  2  0
 24 22  1  0
 24 28  1  0
 25 26  1  0
 25 24  1  0
 26 27  1  0
 27 28  1  0
 28 29  1  6
 29 30  2  0
 29 31  1  0
M  END
$$$$
