WQP.pdb
     RDKit          3D

 31 33  0  0  1  0  0  0  0  0999 V2000
    6.1065  -18.0094   24.1354 N   0  0  0  0  0  0  0  0  0  0  0  0
    6.5866  -16.6766   24.0153 C   0  0  1  0  0  0  0  0  0  0  0  0
    7.4538  -16.1875   25.1312 C   0  0  0  0  0  0  0  0  0  0  0  0
    6.8501  -15.0875   25.9253 C   0  0  0  0  0  0  0  0  0  0  0  0
    5.7256  -15.1794   26.7496 C   0  0  0  0  0  0  0  0  0  0  0  0
    5.4969  -13.9821   27.3100 N   0  0  0  0  0  0  0  0  0  0  0  0
    6.4250  -13.0789   26.8961 C   0  0  0  0  0  0  0  0  0  0  0  0
    6.6017  -11.7413   27.1870 C   0  0  0  0  0  0  0  0  0  0  0  0
    7.6390  -11.0398   26.6177 C   0  0  0  0  0  0  0  0  0  0  0  0
    8.4871  -11.7037   25.7584 C   0  0  0  0  0  0  0  0  0  0  0  0
    8.2905  -13.0551   25.4785 C   0  0  0  0  0  0  0  0  0  0  0  0
    7.2559  -13.7753   26.0402 C   0  0  0  0  0  0  0  0  0  0  0  0
    7.3451  -16.5017   22.7502 C   0  0  0  0  0  0  0  0  0  0  0  0
    8.0763  -17.4431   22.3609 O   0  0  0  0  0  0  0  0  0  0  0  0
    6.9401  -14.2075   17.8480 N   0  0  0  0  0  0  0  0  0  0  0  0
    8.3207  -13.9290   17.8797 C   0  0  0  0  0  0  0  0  0  0  0  0
    9.1069  -14.0936   16.9202 O   0  0  0  0  0  0  0  0  0  0  0  0
    8.8692  -13.3999   19.1601 C   0  0  0  0  0  0  0  0  0  0  0  0
    7.9295  -13.7074   20.3095 C   0  0  0  0  0  0  0  0  0  0  0  0
    8.0874  -15.1377   20.7526 C   0  0  2  0  0  0  0  0  0  0  0  0
    7.2910  -15.3279   21.9531 N   0  0  0  0  0  0  0  0  0  0  0  0
    9.4688  -15.5388   21.0350 C   0  0  0  0  0  0  0  0  0  0  0  0
   10.0376  -15.1302   22.1105 O   0  0  0  0  0  0  0  0  0  0  0  0
   10.2115  -16.3596   20.1797 N   0  0  0  0  0  0  0  0  0  0  0  0
    9.7703  -17.0184   18.9607 C   0  0  0  0  0  0  0  0  0  0  0  0
   10.4757  -18.3442   19.0913 C   0  0  0  0  0  0  0  0  0  0  0  0
   11.8486  -17.9715   19.5656 C   0  0  0  0  0  0  0  0  0  0  0  0
   11.6179  -16.7231   20.3776 C   0  0  1  0  0  0  0  0  0  0  0  0
   12.5375  -15.6898   19.8487 C   0  0  0  0  0  0  0  0  0  0  0  0
   13.7613  -15.8407   20.0946 O   0  0  0  0  0  0  0  0  0  0  0  0
   12.1632  -14.5859   19.1175 O   0  0  0  0  0  0  0  0  0  0  0  0
  2 13  1  0
  2  1  1  1
  3  2  1  0
  4  3  1  0
  4  5  2  0
  6  5  1  0
  7  6  1  0
  8  7  2  0
  9  8  1  0
 10  9  2  0
 10 11  1  0
 11 12  2  0
 12  7  1  0
 12  4  1  0
 13 14  2  0
 16 15  1  0
 16 17  2  0
 18 16  1  0
 19 18  1  0
 20 19  1  1
 20 22  1  0
 21 20  1  0
 21 13  1  0
 22 23  2  0
 24 22  1  0
 24 28  1  0
 25 26  1  0
 25 24  1  0
 26 27  1  0
 27 28  1  0
 28 29  1  6
 29 30  2  0
 29 31  1  0
M  END
$$$$
