WQP.pdb
     RDKit          3D

 31 33  0  0  1  0  0  0  0  0999 V2000
    6.2307  -17.7100   24.2453 N   0  0  0  0  0  0  0  0  0  0  0  0
    6.8860  -16.5196   23.8272 C   0  0  1  0  0  0  0  0  0  0  0  0
    7.6862  -15.8086   24.8715 C   0  0  0  0  0  0  0  0  0  0  0  0
    6.9072  -14.8171   25.6557 C   0  0  0  0  0  0  0  0  0  0  0  0
    5.7485  -15.0692   26.3948 C   0  0  0  0  0  0  0  0  0  0  0  0
    5.3453  -13.9291   26.9759 N   0  0  0  0  0  0  0  0  0  0  0  0
    6.1878  -12.9105   26.6582 C   0  0  0  0  0  0  0  0  0  0  0  0
    6.1881  -11.5742   27.0038 C   0  0  0  0  0  0  0  0  0  0  0  0
    7.1725  -10.7371   26.5323 C   0  0  0  0  0  0  0  0  0  0  0  0
    8.1475  -11.2652   25.7145 C   0  0  0  0  0  0  0  0  0  0  0  0
    8.1283  -12.6179   25.3780 C   0  0  0  0  0  0  0  0  0  0  0  0
    7.1493  -13.4729   25.8414 C   0  0  0  0  0  0  0  0  0  0  0  0
    7.7893  -16.7906   22.6795 C   0  0  0  0  0  0  0  0  0  0  0  0
    8.2575  -17.9469   22.5521 O   0  0  0  0  0  0  0  0  0  0  0  0
    7.8272  -12.1071   18.4556 N   0  0  0  0  0  0  0  0  0  0  0  0
    7.9396  -13.4651   18.0980 C   0  0  0  0  0  0  0  0  0  0  0  0
    8.1542  -13.8853   16.9391 O   0  0  0  0  0  0  0  0  0  0  0  0
    7.7884  -14.4625   19.1947 C   0  0  0  0  0  0  0  0  0  0  0  0
    9.1426  -14.8356   19.7655 C   0  0  0  0  0  0  0  0  0  0  0  0
    9.0393  -16.0880   20.5950 C   0  0  2  0  0  0  0  0  0  0  0  0
    8.1549  -15.8148   21.7151 N   0  0  0  0  0  0  0  0  0  0  0  0
   10.3182  -16.5821   21.1138 C   0  0  0  0  0  0  0  0  0  0  0  0
   10.7600  -16.1362   22.2333 O   0  0  0  0  0  0  0  0  0  0  0  0
   11.0945  -17.5322   20.4420 N   0  0  0  0  0  0  0  0  0  0  0  0
   10.7930  -18.2193   19.1963 C   0  0  0  0  0  0  0  0  0  0  0  0
   11.3064  -19.6013   19.5107 C   0  0  0  0  0  0  0  0  0  0  0  0
   12.6128  -19.3468   20.2018 C   0  0  0  0  0  0  0  0  0  0  0  0
   12.3947  -18.0299   20.9014 C   0  0  1  0  0  0  0  0  0  0  0  0
   13.5050  -17.1379   20.4953 C   0  0  0  0  0  0  0  0  0  0  0  0
   14.6479  -17.4178   20.9384 O   0  0  0  0  0  0  0  0  0  0  0  0
   13.3869  -16.0356   19.6803 O   0  0  0  0  0  0  0  0  0  0  0  0
  2 13  1  0
  2  1  1  1
  3  2  1  0
  4  3  1  0
  4  5  2  0
  6  5  1  0
  7  6  1  0
  8  7  2  0
  9  8  1  0
 10  9  2  0
 10 11  1  0
 11 12  2  0
 12  7  1  0
 12  4  1  0
 13 14  2  0
 16 15  1  0
 16 17  2  0
 18 16  1  0
 19 18  1  0
 20 19  1  1
 20 22  1  0
 21 20  1  0
 21 13  1  0
 22 23  2  0
 24 22  1  0
 24 28  1  0
 25 26  1  0
 25 24  1  0
 26 27  1  0
 27 28  1  0
 28 29  1  6
 29 30  2  0
 29 31  1  0
M  END
$$$$
