WQP.pdb
     RDKit          3D

 31 33  0  0  1  0  0  0  0  0999 V2000
    9.6665  -17.7333   24.4908 N   0  0  0  0  0  0  0  0  0  0  0  0
    9.0029  -16.4760   24.4791 C   0  0  1  0  0  0  0  0  0  0  0  0
    9.0029  -15.7210   25.7699 C   0  0  0  0  0  0  0  0  0  0  0  0
    7.7116  -15.0561   26.0787 C   0  0  0  0  0  0  0  0  0  0  0  0
    6.4578  -15.6692   26.1465 C   0  0  0  0  0  0  0  0  0  0  0  0
    5.5379  -14.7464   26.4659 N   0  0  0  0  0  0  0  0  0  0  0  0
    6.1207  -13.5275   26.6173 C   0  0  0  0  0  0  0  0  0  0  0  0
    5.5978  -12.2899   26.9334 C   0  0  0  0  0  0  0  0  0  0  0  0
    6.4212  -11.1913   27.0191 C   0  0  0  0  0  0  0  0  0  0  0  0
    7.7681  -11.3604   26.7831 C   0  0  0  0  0  0  0  0  0  0  0  0
    8.2753  -12.6194   26.4654 C   0  0  0  0  0  0  0  0  0  0  0  0
    7.4650  -13.7328   26.3751 C   0  0  0  0  0  0  0  0  0  0  0  0
    9.5802  -15.5851   23.4400 C   0  0  0  0  0  0  0  0  0  0  0  0
    9.2755  -14.3689   23.4643 O   0  0  0  0  0  0  0  0  0  0  0  0
   14.1118  -13.4197   18.7098 N   0  0  0  0  0  0  0  0  0  0  0  0
   13.7878  -14.6536   19.3074 C   0  0  0  0  0  0  0  0  0  0  0  0
   14.6166  -15.4482   19.8049 O   0  0  0  0  0  0  0  0  0  0  0  0
   12.3450  -15.0247   19.3405 C   0  0  0  0  0  0  0  0  0  0  0  0
   12.0171  -15.7740   20.6172 C   0  0  0  0  0  0  0  0  0  0  0  0
   10.7222  -15.2774   21.2034 C   0  0  2  0  0  0  0  0  0  0  0  0
   10.4594  -16.0305   22.4180 N   0  0  0  0  0  0  0  0  0  0  0  0
    9.5641  -15.3996   20.3131 C   0  0  0  0  0  0  0  0  0  0  0  0
    8.8501  -16.4655   20.3486 O   0  0  0  0  0  0  0  0  0  0  0  0
    9.1887  -14.3969   19.4129 N   0  0  0  0  0  0  0  0  0  0  0  0
    9.7912  -13.0866   19.2262 C   0  0  0  0  0  0  0  0  0  0  0  0
    8.5601  -12.2434   19.0121 C   0  0  0  0  0  0  0  0  0  0  0  0
    7.7139  -13.0758   18.0956 C   0  0  0  0  0  0  0  0  0  0  0  0
    8.0696  -14.4915   18.4705 C   0  0  1  0  0  0  0  0  0  0  0  0
    8.4550  -15.1840   17.2195 C   0  0  0  0  0  0  0  0  0  0  0  0
    7.5467  -15.3654   16.3692 O   0  0  0  0  0  0  0  0  0  0  0  0
    9.7163  -15.6427   16.9162 O   0  0  0  0  0  0  0  0  0  0  0  0
  2 13  1  0
  2  1  1  1
  3  2  1  0
  4  3  1  0
  4  5  2  0
  6  5  1  0
  7  6  1  0
  8  7  2  0
  9  8  1  0
 10  9  2  0
 10 11  1  0
 11 12  2  0
 12  7  1  0
 12  4  1  0
 13 14  2  0
 16 15  1  0
 16 17  2  0
 18 16  1  0
 19 18  1  0
 20 19  1  6
 20 22  1  0
 21 20  1  0
 21 13  1  0
 22 23  2  0
 24 22  1  0
 24 28  1  0
 25 26  1  0
 25 24  1  0
 26 27  1  0
 27 28  1  0
 28 29  1  6
 29 30  2  0
 29 31  1  0
M  END
$$$$
