WQP.pdb
     RDKit          3D

 31 33  0  0  1  0  0  0  0  0999 V2000
    5.1795  -18.7281   21.1781 N   0  0  0  0  0  0  0  0  0  0  0  0
    6.0032  -17.6003   21.4444 C   0  0  1  0  0  0  0  0  0  0  0  0
    5.6396  -16.3378   20.7302 C   0  0  0  0  0  0  0  0  0  0  0  0
    6.7888  -15.6656   20.0725 C   0  0  0  0  0  0  0  0  0  0  0  0
    7.6282  -16.2175   19.1013 C   0  0  0  0  0  0  0  0  0  0  0  0
    8.5380  -15.3005   18.7392 N   0  0  0  0  0  0  0  0  0  0  0  0
    8.3480  -14.1447   19.4296 C   0  0  0  0  0  0  0  0  0  0  0  0
    9.0203  -12.9395   19.4099 C   0  0  0  0  0  0  0  0  0  0  0  0
    8.6209  -11.9100   20.2302 C   0  0  0  0  0  0  0  0  0  0  0  0
    7.5421  -12.1146   21.0626 C   0  0  0  0  0  0  0  0  0  0  0  0
    6.8773  -13.3398   21.0664 C   0  0  0  0  0  0  0  0  0  0  0  0
    7.2632  -14.3838   20.2506 C   0  0  0  0  0  0  0  0  0  0  0  0
    6.0303  -17.2991   22.8988 C   0  0  0  0  0  0  0  0  0  0  0  0
    4.9383  -17.2292   23.5114 O   0  0  0  0  0  0  0  0  0  0  0  0
    8.3991  -20.3713   27.0306 N   0  0  0  0  0  0  0  0  0  0  0  0
    7.9834  -19.3327   27.8868 C   0  0  0  0  0  0  0  0  0  0  0  0
    7.9565  -19.4015   29.1359 O   0  0  0  0  0  0  0  0  0  0  0  0
    7.5456  -18.0640   27.2393 C   0  0  0  0  0  0  0  0  0  0  0  0
    7.6067  -18.1882   25.7294 C   0  0  0  0  0  0  0  0  0  0  0  0
    7.2474  -16.8797   25.0769 C   0  0  2  0  0  0  0  0  0  0  0  0
    7.2231  -17.0852   23.6386 N   0  0  0  0  0  0  0  0  0  0  0  0
    8.1635  -15.7762   25.3799 C   0  0  0  0  0  0  0  0  0  0  0  0
    9.3318  -15.7614   24.8487 O   0  0  0  0  0  0  0  0  0  0  0  0
    7.8243  -14.7190   26.2309 N   0  0  0  0  0  0  0  0  0  0  0  0
    6.5668  -14.4941   26.9258 C   0  0  0  0  0  0  0  0  0  0  0  0
    6.4326  -12.9998   26.7790 C   0  0  0  0  0  0  0  0  0  0  0  0
    7.8148  -12.4893   27.0579 C   0  0  0  0  0  0  0  0  0  0  0  0
    8.7092  -13.6020   26.5751 C   0  0  1  0  0  0  0  0  0  0  0  0
    9.6186  -13.9393   27.6942 C   0  0  0  0  0  0  0  0  0  0  0  0
   10.4761  -13.0750   28.0080 O   0  0  0  0  0  0  0  0  0  0  0  0
    9.6019  -15.1138   28.4110 O   0  0  0  0  0  0  0  0  0  0  0  0
  2 13  1  0
  2  1  1  1
  3  2  1  0
  4  3  1  0
  4  5  2  0
  6  5  1  0
  7  6  1  0
  8  7  2  0
  9  8  1  0
 10  9  2  0
 10 11  1  0
 11 12  2  0
 12  7  1  0
 12  4  1  0
 13 14  2  0
 16 15  1  0
 16 17  2  0
 18 16  1  0
 19 18  1  0
 20 19  1  1
 20 22  1  0
 21 20  1  0
 21 13  1  0
 22 23  2  0
 24 22  1  0
 24 28  1  0
 25 26  1  0
 25 24  1  0
 26 27  1  0
 27 28  1  0
 28 29  1  1
 29 30  2  0
 29 31  1  0
M  END
$$$$
