WQP.pdb
     RDKit          3D

 31 33  0  0  1  0  0  0  0  0999 V2000
    5.6821  -17.9500   24.1394 N   0  0  0  0  0  0  0  0  0  0  0  0
    6.3144  -16.6776   24.0885 C   0  0  1  0  0  0  0  0  0  0  0  0
    7.1480  -16.3103   25.2745 C   0  0  0  0  0  0  0  0  0  0  0  0
    6.5999  -15.1825   26.0698 C   0  0  0  0  0  0  0  0  0  0  0  0
    5.5249  -15.2404   26.9605 C   0  0  0  0  0  0  0  0  0  0  0  0
    5.3381  -14.0255   27.4981 N   0  0  0  0  0  0  0  0  0  0  0  0
    6.2471  -13.1431   27.0047 C   0  0  0  0  0  0  0  0  0  0  0  0
    6.4503  -11.7993   27.2456 C   0  0  0  0  0  0  0  0  0  0  0  0
    7.4577  -11.1238   26.5966 C   0  0  0  0  0  0  0  0  0  0  0  0
    8.2492  -11.8198   25.7092 C   0  0  0  0  0  0  0  0  0  0  0  0
    8.0266  -13.1769   25.4808 C   0  0  0  0  0  0  0  0  0  0  0  0
    7.0214  -13.8712   26.1225 C   0  0  0  0  0  0  0  0  0  0  0  0
    7.1765  -16.5654   22.8841 C   0  0  0  0  0  0  0  0  0  0  0  0
    7.7914  -17.5872   22.4963 O   0  0  0  0  0  0  0  0  0  0  0  0
    6.9125  -14.0586   18.0241 N   0  0  0  0  0  0  0  0  0  0  0  0
    8.3138  -13.9253   17.9677 C   0  0  0  0  0  0  0  0  0  0  0  0
    9.0001  -14.0106   16.9249 O   0  0  0  0  0  0  0  0  0  0  0  0
    9.0154  -13.6641   19.2561 C   0  0  0  0  0  0  0  0  0  0  0  0
    8.0717  -13.8629   20.4261 C   0  0  0  0  0  0  0  0  0  0  0  0
    8.1695  -15.2711   20.9501 C   0  0  2  0  0  0  0  0  0  0  0  0
    7.3460  -15.3658   22.1436 N   0  0  0  0  0  0  0  0  0  0  0  0
    9.5302  -15.7049   21.2806 C   0  0  0  0  0  0  0  0  0  0  0  0
   10.0705  -15.3093   22.3755 O   0  0  0  0  0  0  0  0  0  0  0  0
   10.2826  -16.5436   20.4517 N   0  0  0  0  0  0  0  0  0  0  0  0
    9.8809  -17.1629   19.1987 C   0  0  0  0  0  0  0  0  0  0  0  0
   10.5206  -18.5202   19.3428 C   0  0  0  0  0  0  0  0  0  0  0  0
   11.8803  -18.2156   19.8972 C   0  0  0  0  0  0  0  0  0  0  0  0
   11.6593  -16.9714   20.7184 C   0  0  1  0  0  0  0  0  0  0  0  0
   12.6498  -15.9710   20.2589 C   0  0  0  0  0  0  0  0  0  0  0  0
   13.8604  -16.2287   20.4804 O   0  0  0  0  0  0  0  0  0  0  0  0
   12.3542  -14.7909   19.6159 O   0  0  0  0  0  0  0  0  0  0  0  0
  2 13  1  0
  2  1  1  1
  3  2  1  0
  4  3  1  0
  4  5  2  0
  6  5  1  0
  7  6  1  0
  8  7  2  0
  9  8  1  0
 10  9  2  0
 10 11  1  0
 11 12  2  0
 12  7  1  0
 12  4  1  0
 13 14  2  0
 16 15  1  0
 16 17  2  0
 18 16  1  0
 19 18  1  0
 20 19  1  1
 20 22  1  0
 21 20  1  0
 21 13  1  0
 22 23  2  0
 24 22  1  0
 24 28  1  0
 25 26  1  0
 25 24  1  0
 26 27  1  0
 27 28  1  0
 28 29  1  6
 29 30  2  0
 29 31  1  0
M  END
$$$$
