WQP.pdb
     RDKit          3D

 31 33  0  0  1  0  0  0  0  0999 V2000
    6.5474  -18.1548   20.8812 N   0  0  0  0  0  0  0  0  0  0  0  0
    6.9792  -16.9137   21.4240 C   0  0  1  0  0  0  0  0  0  0  0  0
    6.1853  -15.7107   21.0256 C   0  0  0  0  0  0  0  0  0  0  0  0
    6.9351  -14.4331   21.1289 C   0  0  0  0  0  0  0  0  0  0  0  0
    7.7787  -13.8852   20.1591 C   0  0  0  0  0  0  0  0  0  0  0  0
    8.2602  -12.7169   20.6098 N   0  0  0  0  0  0  0  0  0  0  0  0
    7.7749  -12.4507   21.8516 C   0  0  0  0  0  0  0  0  0  0  0  0
    7.9810  -11.3922   22.7132 C   0  0  0  0  0  0  0  0  0  0  0  0
    7.3617  -11.3680   23.9412 C   0  0  0  0  0  0  0  0  0  0  0  0
    6.5387  -12.4191   24.2824 C   0  0  0  0  0  0  0  0  0  0  0  0
    6.3444  -13.4781   23.3969 C   0  0  0  0  0  0  0  0  0  0  0  0
    6.9568  -13.5197   22.1610 C   0  0  0  0  0  0  0  0  0  0  0  0
    6.9976  -16.9657   22.9084 C   0  0  0  0  0  0  0  0  0  0  0  0
    5.9128  -16.8238   23.5213 O   0  0  0  0  0  0  0  0  0  0  0  0
    6.8115  -20.4768   26.6034 N   0  0  0  0  0  0  0  0  0  0  0  0
    7.5614  -19.7644   27.5599 C   0  0  0  0  0  0  0  0  0  0  0  0
    7.4580  -19.9029   28.7992 O   0  0  0  0  0  0  0  0  0  0  0  0
    8.5467  -18.7755   27.0390 C   0  0  0  0  0  0  0  0  0  0  0  0
    8.4384  -18.6594   25.5312 C   0  0  0  0  0  0  0  0  0  0  0  0
    8.1818  -17.2314   25.1284 C   0  0  2  0  0  0  0  0  0  0  0  0
    8.1744  -17.1672   23.6768 N   0  0  0  0  0  0  0  0  0  0  0  0
    9.1633  -16.2691   25.6379 C   0  0  0  0  0  0  0  0  0  0  0  0
   10.3329  -16.2217   25.1116 O   0  0  0  0  0  0  0  0  0  0  0  0
    8.8862  -15.3831   26.6843 N   0  0  0  0  0  0  0  0  0  0  0  0
    7.6110  -15.1378   27.3388 C   0  0  0  0  0  0  0  0  0  0  0  0
    7.6781  -13.6434   27.5251 C   0  0  0  0  0  0  0  0  0  0  0  0
    9.0837  -13.4056   27.9904 C   0  0  0  0  0  0  0  0  0  0  0  0
    9.8705  -14.5031   27.3214 C   0  0  1  0  0  0  0  0  0  0  0  0
   10.6295  -15.1988   28.3859 C   0  0  0  0  0  0  0  0  0  0  0  0
   10.2234  -16.3417   28.7170 O   0  0  0  0  0  0  0  0  0  0  0  0
   11.7332  -14.6982   29.0376 O   0  0  0  0  0  0  0  0  0  0  0  0
  2 13  1  0
  2  1  1  6
  3  2  1  0
  4  3  1  0
  4  5  2  0
  6  5  1  0
  7  6  1  0
  8  7  2  0
  9  8  1  0
 10  9  2  0
 10 11  1  0
 11 12  2  0
 12  7  1  0
 12  4  1  0
 13 14  2  0
 16 15  1  0
 16 17  2  0
 18 16  1  0
 19 18  1  0
 20 19  1  6
 20 22  1  0
 21 20  1  0
 21 13  1  0
 22 23  2  0
 24 22  1  0
 24 28  1  0
 25 26  1  0
 25 24  1  0
 26 27  1  0
 27 28  1  0
 28 29  1  1
 29 30  2  0
 29 31  1  0
M  END
$$$$
