WQP.pdb
     RDKit          3D

 31 33  0  0  1  0  0  0  0  0999 V2000
    9.0159  -16.6064   21.5803 N   0  0  0  0  0  0  0  0  0  0  0  0
    7.9806  -15.7634   22.0688 C   0  0  1  0  0  0  0  0  0  0  0  0
    6.7794  -15.6210   21.1895 C   0  0  0  0  0  0  0  0  0  0  0  0
    7.0752  -15.0395   19.8555 C   0  0  0  0  0  0  0  0  0  0  0  0
    6.7578  -15.6017   18.6163 C   0  0  0  0  0  0  0  0  0  0  0  0
    7.1714  -14.7752   17.6438 N   0  0  0  0  0  0  0  0  0  0  0  0
    7.7591  -13.6712   18.1769 C   0  0  0  0  0  0  0  0  0  0  0  0
    8.3342  -12.5612   17.5920 C   0  0  0  0  0  0  0  0  0  0  0  0
    8.8753  -11.5679   18.3748 C   0  0  0  0  0  0  0  0  0  0  0  0
    8.8269  -11.7114   19.7442 C   0  0  0  0  0  0  0  0  0  0  0  0
    8.2412  -12.8407   20.3142 C   0  0  0  0  0  0  0  0  0  0  0  0
    7.6931  -13.8471   19.5454 C   0  0  0  0  0  0  0  0  0  0  0  0
    7.5084  -16.2255   23.3992 C   0  0  0  0  0  0  0  0  0  0  0  0
    6.4876  -15.6854   23.8878 O   0  0  0  0  0  0  0  0  0  0  0  0
    7.6693  -20.9913   27.4250 N   0  0  0  0  0  0  0  0  0  0  0  0
    6.4992  -20.5380   26.7847 C   0  0  0  0  0  0  0  0  0  0  0  0
    5.3806  -21.0938   26.8594 O   0  0  0  0  0  0  0  0  0  0  0  0
    6.6210  -19.3028   25.9603 C   0  0  0  0  0  0  0  0  0  0  0  0
    8.0455  -18.7842   25.9853 C   0  0  0  0  0  0  0  0  0  0  0  0
    8.0846  -17.3286   25.6021 C   0  0  2  0  0  0  0  0  0  0  0  0
    8.1464  -17.2460   24.1527 N   0  0  0  0  0  0  0  0  0  0  0  0
    9.2123  -16.5805   26.1654 C   0  0  0  0  0  0  0  0  0  0  0  0
   10.4110  -16.9103   25.8467 O   0  0  0  0  0  0  0  0  0  0  0  0
    9.0473  -15.5060   27.0457 N   0  0  0  0  0  0  0  0  0  0  0  0
    7.8261  -14.7810   27.3583 C   0  0  0  0  0  0  0  0  0  0  0  0
    8.3541  -13.3715   27.4411 C   0  0  0  0  0  0  0  0  0  0  0  0
    9.6350  -13.5159   28.2075 C   0  0  0  0  0  0  0  0  0  0  0  0
   10.1227  -14.8909   27.8297 C   0  0  1  0  0  0  0  0  0  0  0  0
   10.3747  -15.6204   29.0936 C   0  0  0  0  0  0  0  0  0  0  0  0
   11.3447  -15.2280   29.7907 O   0  0  0  0  0  0  0  0  0  0  0  0
    9.6398  -16.6855   29.5615 O   0  0  0  0  0  0  0  0  0  0  0  0
  2 13  1  0
  2  1  1  6
  3  2  1  0
  4  3  1  0
  4  5  2  0
  6  5  1  0
  7  6  1  0
  8  7  2  0
  9  8  1  0
 10  9  2  0
 10 11  1  0
 11 12  2  0
 12  7  1  0
 12  4  1  0
 13 14  2  0
 16 15  1  0
 16 17  2  0
 18 16  1  0
 19 18  1  0
 20 19  1  6
 20 22  1  0
 21 20  1  0
 21 13  1  0
 22 23  2  0
 24 22  1  0
 24 28  1  0
 25 26  1  0
 25 24  1  0
 26 27  1  0
 27 28  1  0
 28 29  1  1
 29 30  2  0
 29 31  1  0
M  END
$$$$
