WQP.pdb
     RDKit          3D

 31 33  0  0  1  0  0  0  0  0999 V2000
    6.0683  -17.2391   23.2662 N   0  0  0  0  0  0  0  0  0  0  0  0
    6.7590  -16.0150   23.0520 C   0  0  1  0  0  0  0  0  0  0  0  0
    7.6655  -15.5703   24.1551 C   0  0  0  0  0  0  0  0  0  0  0  0
    6.9674  -14.8691   25.2624 C   0  0  0  0  0  0  0  0  0  0  0  0
    6.0516  -15.4324   26.1548 C   0  0  0  0  0  0  0  0  0  0  0  0
    5.6505  -14.4897   27.0210 N   0  0  0  0  0  0  0  0  0  0  0  0
    6.2602  -13.3052   26.7496 C   0  0  0  0  0  0  0  0  0  0  0  0
    6.1692  -12.0646   27.3477 C   0  0  0  0  0  0  0  0  0  0  0  0
    6.9037  -11.0069   26.8640 C   0  0  0  0  0  0  0  0  0  0  0  0
    7.7239  -11.2194   25.7774 C   0  0  0  0  0  0  0  0  0  0  0  0
    7.8008  -12.4806   25.1886 C   0  0  0  0  0  0  0  0  0  0  0  0
    7.0720  -13.5534   25.6599 C   0  0  0  0  0  0  0  0  0  0  0  0
    7.5670  -16.0767   21.8070 C   0  0  0  0  0  0  0  0  0  0  0  0
    7.9958  -17.1938   21.4319 O   0  0  0  0  0  0  0  0  0  0  0  0
    9.0407  -14.5464   16.8624 N   0  0  0  0  0  0  0  0  0  0  0  0
    7.8528  -13.8398   17.1348 C   0  0  0  0  0  0  0  0  0  0  0  0
    6.9107  -13.6838   16.3262 O   0  0  0  0  0  0  0  0  0  0  0  0
    7.7257  -13.2392   18.4925 C   0  0  0  0  0  0  0  0  0  0  0  0
    8.9323  -13.5850   19.3429 C   0  0  0  0  0  0  0  0  0  0  0  0
    8.8079  -14.9808   19.8937 C   0  0  2  0  0  0  0  0  0  0  0  0
    7.8834  -14.9422   21.0142 N   0  0  0  0  0  0  0  0  0  0  0  0
   10.0709  -15.5724   20.3450 C   0  0  0  0  0  0  0  0  0  0  0  0
   10.5329  -15.2674   21.5029 O   0  0  0  0  0  0  0  0  0  0  0  0
   10.8106  -16.4691   19.5668 N   0  0  0  0  0  0  0  0  0  0  0  0
   10.4752  -17.0124   18.2603 C   0  0  0  0  0  0  0  0  0  0  0  0
   10.9493  -18.4342   18.4214 C   0  0  0  0  0  0  0  0  0  0  0  0
   12.2700  -18.2922   19.1173 C   0  0  0  0  0  0  0  0  0  0  0  0
   12.0997  -17.0502   19.9538 C   0  0  1  0  0  0  0  0  0  0  0  0
   13.2325  -16.1535   19.6282 C   0  0  0  0  0  0  0  0  0  0  0  0
   13.0142  -15.2485   18.7831 O   0  0  0  0  0  0  0  0  0  0  0  0
   14.4948  -16.2317   20.1703 O   0  0  0  0  0  0  0  0  0  0  0  0
  2 13  1  0
  2  1  1  1
  3  2  1  0
  4  3  1  0
  4  5  2  0
  6  5  1  0
  7  6  1  0
  8  7  2  0
  9  8  1  0
 10  9  2  0
 10 11  1  0
 11 12  2  0
 12  7  1  0
 12  4  1  0
 13 14  2  0
 16 15  1  0
 16 17  2  0
 18 16  1  0
 19 18  1  0
 20 19  1  1
 20 22  1  0
 21 20  1  0
 21 13  1  0
 22 23  2  0
 24 22  1  0
 24 28  1  0
 25 26  1  0
 25 24  1  0
 26 27  1  0
 27 28  1  0
 28 29  1  6
 29 30  2  0
 29 31  1  0
M  END
$$$$
