WQP.pdb
     RDKit          3D

 31 33  0  0  1  0  0  0  0  0999 V2000
    6.7286  -18.2199   24.9039 N   0  0  0  0  0  0  0  0  0  0  0  0
    6.9836  -16.9167   24.3962 C   0  0  1  0  0  0  0  0  0  0  0  0
    7.7819  -16.0119   25.2797 C   0  0  0  0  0  0  0  0  0  0  0  0
    6.9646  -15.0142   26.0156 C   0  0  0  0  0  0  0  0  0  0  0  0
    5.7975  -15.2695   26.7402 C   0  0  0  0  0  0  0  0  0  0  0  0
    5.3566  -14.1210   27.2754 N   0  0  0  0  0  0  0  0  0  0  0  0
    6.1816  -13.0935   26.9406 C   0  0  0  0  0  0  0  0  0  0  0  0
    6.1441  -11.7471   27.2418 C   0  0  0  0  0  0  0  0  0  0  0  0
    7.1182  -10.9026   26.7621 C   0  0  0  0  0  0  0  0  0  0  0  0
    8.1213  -11.4339   25.9810 C   0  0  0  0  0  0  0  0  0  0  0  0
    8.1400  -12.7968   25.6890 C   0  0  0  0  0  0  0  0  0  0  0  0
    7.1719  -13.6593   26.1614 C   0  0  0  0  0  0  0  0  0  0  0  0
    7.6786  -16.9885   23.0852 C   0  0  0  0  0  0  0  0  0  0  0  0
    8.3346  -18.0229   22.8165 O   0  0  0  0  0  0  0  0  0  0  0  0
    7.6688  -12.5570   18.6274 N   0  0  0  0  0  0  0  0  0  0  0  0
    8.3910  -13.5569   17.9467 C   0  0  0  0  0  0  0  0  0  0  0  0
    8.7909  -13.4722   16.7641 O   0  0  0  0  0  0  0  0  0  0  0  0
    8.6922  -14.8024   18.7071 C   0  0  0  0  0  0  0  0  0  0  0  0
    8.0353  -14.7643   20.0731 C   0  0  0  0  0  0  0  0  0  0  0  0
    8.3148  -16.0360   20.8293 C   0  0  2  0  0  0  0  0  0  0  0  0
    7.6438  -15.9521   22.1154 N   0  0  0  0  0  0  0  0  0  0  0  0
    9.7369  -16.3095   21.0565 C   0  0  0  0  0  0  0  0  0  0  0  0
   10.3384  -15.7475   22.0412 O   0  0  0  0  0  0  0  0  0  0  0  0
   10.4850  -17.1674   20.2434 N   0  0  0  0  0  0  0  0  0  0  0  0
   10.0404  -17.9128   19.0766 C   0  0  0  0  0  0  0  0  0  0  0  0
   10.7776  -19.2118   19.2803 C   0  0  0  0  0  0  0  0  0  0  0  0
   12.1488  -18.7796   19.7069 C   0  0  0  0  0  0  0  0  0  0  0  0
   11.9021  -17.4867   20.4409 C   0  0  1  0  0  0  0  0  0  0  0  0
   12.7899  -16.4700   19.8316 C   0  0  0  0  0  0  0  0  0  0  0  0
   12.3824  -15.9208   18.7766 O   0  0  0  0  0  0  0  0  0  0  0  0
   14.0157  -16.0826   20.3224 O   0  0  0  0  0  0  0  0  0  0  0  0
  2 13  1  0
  2  1  1  1
  3  2  1  0
  4  3  1  0
  4  5  2  0
  6  5  1  0
  7  6  1  0
  8  7  2  0
  9  8  1  0
 10  9  2  0
 10 11  1  0
 11 12  2  0
 12  7  1  0
 12  4  1  0
 13 14  2  0
 16 15  1  0
 16 17  2  0
 18 16  1  0
 19 18  1  0
 20 19  1  1
 20 22  1  0
 21 20  1  0
 21 13  1  0
 22 23  2  0
 24 22  1  0
 24 28  1  0
 25 26  1  0
 25 24  1  0
 26 27  1  0
 27 28  1  0
 28 29  1  6
 29 30  2  0
 29 31  1  0
M  END
$$$$
