WQP.pdb
     RDKit          3D

 31 33  0  0  1  0  0  0  0  0999 V2000
    6.0994  -17.5533   24.2439 N   0  0  0  0  0  0  0  0  0  0  0  0
    7.2849  -16.8131   23.9831 C   0  0  1  0  0  0  0  0  0  0  0  0
    7.8559  -16.0578   25.1406 C   0  0  0  0  0  0  0  0  0  0  0  0
    7.0031  -14.9350   25.6067 C   0  0  0  0  0  0  0  0  0  0  0  0
    5.8423  -15.0391   26.3774 C   0  0  0  0  0  0  0  0  0  0  0  0
    5.3614  -13.8084   26.6097 N   0  0  0  0  0  0  0  0  0  0  0  0
    6.1531  -12.8709   26.0243 C   0  0  0  0  0  0  0  0  0  0  0  0
    6.0698  -11.4939   25.9786 C   0  0  0  0  0  0  0  0  0  0  0  0
    7.0173  -10.7649   25.2982 C   0  0  0  0  0  0  0  0  0  0  0  0
    8.0405  -11.4414   24.6707 C   0  0  0  0  0  0  0  0  0  0  0  0
    8.1056  -12.8327   24.7295 C   0  0  0  0  0  0  0  0  0  0  0  0
    7.1648  -13.5808   25.4073 C   0  0  0  0  0  0  0  0  0  0  0  0
    8.3543  -17.6994   23.4564 C   0  0  0  0  0  0  0  0  0  0  0  0
    8.5543  -18.7956   24.0315 O   0  0  0  0  0  0  0  0  0  0  0  0
   11.5603  -16.5541   18.2967 N   0  0  0  0  0  0  0  0  0  0  0  0
   10.2334  -17.0250   18.3444 C   0  0  0  0  0  0  0  0  0  0  0  0
    9.3933  -16.8938   17.4263 O   0  0  0  0  0  0  0  0  0  0  0  0
    9.8157  -17.7295   19.5892 C   0  0  0  0  0  0  0  0  0  0  0  0
   10.8711  -17.5770   20.6670 C   0  0  0  0  0  0  0  0  0  0  0  0
   10.3667  -18.1143   21.9800 C   0  0  2  0  0  0  0  0  0  0  0  0
    9.1660  -17.3777   22.3367 N   0  0  0  0  0  0  0  0  0  0  0  0
   11.3244  -18.0185   23.0856 C   0  0  0  0  0  0  0  0  0  0  0  0
   11.4405  -16.9124   23.7263 O   0  0  0  0  0  0  0  0  0  0  0  0
   12.1308  -19.0886   23.4871 N   0  0  0  0  0  0  0  0  0  0  0  0
   12.1457  -20.4463   22.9662 C   0  0  0  0  0  0  0  0  0  0  0  0
   12.3317  -21.2300   24.2404 C   0  0  0  0  0  0  0  0  0  0  0  0
   13.3738  -20.4523   24.9874 C   0  0  0  0  0  0  0  0  0  0  0  0
   13.1340  -19.0288   24.5545 C   0  0  1  0  0  0  0  0  0  0  0  0
   14.4303  -18.5028   24.0685 C   0  0  0  0  0  0  0  0  0  0  0  0
   14.5544  -18.3615   22.8253 O   0  0  0  0  0  0  0  0  0  0  0  0
   15.5016  -18.1608   24.8614 O   0  0  0  0  0  0  0  0  0  0  0  0
  2 13  1  0
  2  1  1  1
  3  2  1  0
  4  3  1  0
  4  5  2  0
  6  5  1  0
  7  6  1  0
  8  7  2  0
  9  8  1  0
 10  9  2  0
 10 11  1  0
 11 12  2  0
 12  7  1  0
 12  4  1  0
 13 14  2  0
 16 15  1  0
 16 17  2  0
 18 16  1  0
 19 18  1  0
 20 19  1  6
 20 22  1  0
 21 20  1  0
 21 13  1  0
 22 23  2  0
 24 22  1  0
 24 28  1  0
 25 26  1  0
 25 24  1  0
 26 27  1  0
 27 28  1  0
 28 29  1  6
 29 30  2  0
 29 31  1  0
M  END
$$$$
