WQP.pdb
     RDKit          3D

 31 33  0  0  1  0  0  0  0  0999 V2000
    5.6199  -18.0587   24.2622 N   0  0  0  0  0  0  0  0  0  0  0  0
    6.2093  -16.7658   24.2130 C   0  0  1  0  0  0  0  0  0  0  0  0
    7.0548  -16.3841   25.3859 C   0  0  0  0  0  0  0  0  0  0  0  0
    6.6218  -15.1333   26.0589 C   0  0  0  0  0  0  0  0  0  0  0  0
    5.4832  -14.9691   26.8521 C   0  0  0  0  0  0  0  0  0  0  0  0
    5.4398  -13.7037   27.2958 N   0  0  0  0  0  0  0  0  0  0  0  0
    6.5076  -13.0012   26.8325 C   0  0  0  0  0  0  0  0  0  0  0  0
    6.8913  -11.6870   27.0082 C   0  0  0  0  0  0  0  0  0  0  0  0
    8.0371  -11.2144   26.4117 C   0  0  0  0  0  0  0  0  0  0  0  0
    8.7825  -12.0812   25.6425 C   0  0  0  0  0  0  0  0  0  0  0  0
    8.3766  -13.4047   25.4783 C   0  0  0  0  0  0  0  0  0  0  0  0
    7.2306  -13.8968   26.0690 C   0  0  0  0  0  0  0  0  0  0  0  0
    7.0421  -16.6123   22.9926 C   0  0  0  0  0  0  0  0  0  0  0  0
    7.7665  -17.5744   22.6429 O   0  0  0  0  0  0  0  0  0  0  0  0
    6.9325  -13.8131   17.9095 N   0  0  0  0  0  0  0  0  0  0  0  0
    8.2789  -14.1020   18.2065 C   0  0  0  0  0  0  0  0  0  0  0  0
    9.0410  -14.7843   17.4858 O   0  0  0  0  0  0  0  0  0  0  0  0
    8.8197  -13.5457   19.4787 C   0  0  0  0  0  0  0  0  0  0  0  0
    7.8657  -13.8153   20.6258 C   0  0  0  0  0  0  0  0  0  0  0  0
    7.9707  -15.2487   21.0743 C   0  0  2  0  0  0  0  0  0  0  0  0
    7.0666  -15.4371   22.1962 N   0  0  0  0  0  0  0  0  0  0  0  0
    9.3172  -15.6631   21.4794 C   0  0  0  0  0  0  0  0  0  0  0  0
    9.7698  -15.3053   22.6259 O   0  0  0  0  0  0  0  0  0  0  0  0
   10.1482  -16.4434   20.6685 N   0  0  0  0  0  0  0  0  0  0  0  0
    9.8387  -17.0440   19.3808 C   0  0  0  0  0  0  0  0  0  0  0  0
   10.5322  -18.3749   19.5219 C   0  0  0  0  0  0  0  0  0  0  0  0
   11.8469  -18.0259   20.1533 C   0  0  0  0  0  0  0  0  0  0  0  0
   11.5279  -16.8167   20.9943 C   0  0  1  0  0  0  0  0  0  0  0  0
   12.4932  -15.7604   20.6128 C   0  0  0  0  0  0  0  0  0  0  0  0
   12.0715  -14.8573   19.8462 O   0  0  0  0  0  0  0  0  0  0  0  0
   13.8041  -15.6894   21.0248 O   0  0  0  0  0  0  0  0  0  0  0  0
  2 13  1  0
  2  1  1  1
  3  2  1  0
  4  3  1  0
  4  5  2  0
  6  5  1  0
  7  6  1  0
  8  7  2  0
  9  8  1  0
 10  9  2  0
 10 11  1  0
 11 12  2  0
 12  7  1  0
 12  4  1  0
 13 14  2  0
 16 15  1  0
 16 17  2  0
 18 16  1  0
 19 18  1  0
 20 19  1  1
 20 22  1  0
 21 20  1  0
 21 13  1  0
 22 23  2  0
 24 22  1  0
 24 28  1  0
 25 26  1  0
 25 24  1  0
 26 27  1  0
 27 28  1  0
 28 29  1  6
 29 30  2  0
 29 31  1  0
M  END
$$$$
