WQP.pdb
     RDKit          3D

 31 33  0  0  1  0  0  0  0  0999 V2000
    9.0631  -17.8243   23.9012 N   0  0  0  0  0  0  0  0  0  0  0  0
    8.7614  -16.4654   24.1905 C   0  0  1  0  0  0  0  0  0  0  0  0
    9.0062  -16.0233   25.5980 C   0  0  0  0  0  0  0  0  0  0  0  0
    7.8224  -15.4089   26.2508 C   0  0  0  0  0  0  0  0  0  0  0  0
    6.8220  -16.0814   26.9573 C   0  0  0  0  0  0  0  0  0  0  0  0
    5.9317  -15.1862   27.4111 N   0  0  0  0  0  0  0  0  0  0  0  0
    6.2903  -13.9289   27.0381 C   0  0  0  0  0  0  0  0  0  0  0  0
    5.7010  -12.7002   27.2575 C   0  0  0  0  0  0  0  0  0  0  0  0
    6.2765  -11.5564   26.7550 C   0  0  0  0  0  0  0  0  0  0  0  0
    7.4453  -11.6714   26.0344 C   0  0  0  0  0  0  0  0  0  0  0  0
    8.0237  -12.9224   25.8247 C   0  0  0  0  0  0  0  0  0  0  0  0
    7.4612  -14.0806   26.3212 C   0  0  0  0  0  0  0  0  0  0  0  0
    9.5226  -15.5548   23.2972 C   0  0  0  0  0  0  0  0  0  0  0  0
    9.4715  -14.3223   23.5222 O   0  0  0  0  0  0  0  0  0  0  0  0
   14.6482  -15.2674   20.3422 N   0  0  0  0  0  0  0  0  0  0  0  0
   13.9088  -14.4823   19.4358 C   0  0  0  0  0  0  0  0  0  0  0  0
   14.3972  -13.6233   18.6681 O   0  0  0  0  0  0  0  0  0  0  0  0
   12.4357  -14.7043   19.4023 C   0  0  0  0  0  0  0  0  0  0  0  0
   12.0027  -15.5799   20.5618 C   0  0  0  0  0  0  0  0  0  0  0  0
   10.6491  -15.1560   21.0671 C   0  0  2  0  0  0  0  0  0  0  0  0
   10.3070  -15.9990   22.2002 N   0  0  0  0  0  0  0  0  0  0  0  0
    9.5741  -15.2418   20.0742 C   0  0  0  0  0  0  0  0  0  0  0  0
    8.9377  -16.3465   19.9266 O   0  0  0  0  0  0  0  0  0  0  0  0
    9.1978  -14.1633   19.2668 N   0  0  0  0  0  0  0  0  0  0  0  0
    9.7502  -12.8182   19.2508 C   0  0  0  0  0  0  0  0  0  0  0  0
    8.4947  -12.0052   19.0639 C   0  0  0  0  0  0  0  0  0  0  0  0
    7.7299  -12.7661   18.0223 C   0  0  0  0  0  0  0  0  0  0  0  0
    8.1295  -14.1991   18.2634 C   0  0  1  0  0  0  0  0  0  0  0  0
    8.6034  -14.7374   16.9677 C   0  0  0  0  0  0  0  0  0  0  0  0
    9.8468  -14.8567   16.8241 O   0  0  0  0  0  0  0  0  0  0  0  0
    7.7990  -15.1128   15.9163 O   0  0  0  0  0  0  0  0  0  0  0  0
  2 13  1  0
  2  1  1  1
  3  2  1  0
  4  3  1  0
  4  5  2  0
  6  5  1  0
  7  6  1  0
  8  7  2  0
  9  8  1  0
 10  9  2  0
 10 11  1  0
 11 12  2  0
 12  7  1  0
 12  4  1  0
 13 14  2  0
 16 15  1  0
 16 17  2  0
 18 16  1  0
 19 18  1  0
 20 19  1  6
 20 22  1  0
 21 20  1  0
 21 13  1  0
 22 23  2  0
 24 22  1  0
 24 28  1  0
 25 26  1  0
 25 24  1  0
 26 27  1  0
 27 28  1  0
 28 29  1  6
 29 30  2  0
 29 31  1  0
M  END
$$$$
