TEK.pdb
     RDKit          3D

 26 25  0  0  1  0  0  0  0  0999 V2000
   20.2208  -13.2457  -15.6375 C   0  0  0  0  0  0  0  0  0  0  0  0
   19.5682  -12.9479  -16.9526 C   0  0  1  0  0  0  0  0  0  0  0  0
   18.8346  -14.0522  -17.3518 O   0  0  0  0  0  0  0  0  0  0  0  0
   18.6838  -11.7074  -16.8568 C   0  0  2  0  0  0  0  0  0  0  0  0
   17.9694  -11.4695  -18.0784 N   0  0  0  0  0  0  0  0  0  0  0  0
   19.5685  -10.5726  -16.5032 C   0  0  0  0  0  0  0  0  0  0  0  0
   20.1781  -10.5436  -15.4135 O   0  0  0  0  0  0  0  0  0  0  0  0
   19.7318   -9.4967  -17.4114 N   0  0  0  0  0  0  0  0  0  0  0  0
   20.3910   -8.3064  -16.9750 C   0  0  1  0  0  0  0  0  0  0  0  0
   20.5190   -7.3528  -18.1710 C   0  0  0  0  0  0  0  0  0  0  0  0
   21.2138   -6.1002  -17.7001 C   0  0  0  0  0  0  0  0  0  0  0  0
   21.3177   -5.1376  -18.8228 C   0  0  0  0  0  0  0  0  0  0  0  0
   21.7888   -3.9924  -18.6343 O   0  0  0  0  0  0  0  0  0  0  0  0
   19.5982   -7.5605  -15.9547 C   0  0  0  0  0  0  0  0  0  0  0  0
   18.3868   -7.3460  -16.2103 O   0  0  0  0  0  0  0  0  0  0  0  0
   20.8859   -5.5204  -20.0894 O   0  0  0  0  0  0  0  0  0  0  0  0
   20.1270   -7.0935  -14.7439 N   0  0  0  0  0  0  0  0  0  0  0  0
   19.3224   -6.3982  -13.7116 C   0  0  1  0  0  0  0  0  0  0  0  0
   18.8471   -7.3622  -12.6867 C   0  0  0  0  0  0  0  0  0  0  0  0
   17.9553   -6.6893  -11.6833 C   0  0  0  0  0  0  0  0  0  0  0  0
   17.4479   -7.6434  -10.6317 C   0  0  0  0  0  0  0  0  0  0  0  0
   16.3623   -7.0500   -9.7859 C   0  0  0  0  0  0  0  0  0  0  0  0
   15.9898   -7.9795   -8.7276 N   0  0  0  0  0  0  0  0  0  0  0  0
   20.2550   -5.4314  -13.1038 C   0  0  0  0  0  0  0  0  0  0  0  0
   21.6083   -5.5381  -13.3400 O   0  0  0  0  0  0  0  0  0  0  0  0
   19.8831   -4.4864  -12.3570 O   0  0  0  0  0  0  0  0  0  0  0  0
  2  1  1  1
  3  2  1  0
  4  2  1  0
  4  5  1  6
  4  6  1  0
  6  7  2  0
  8  6  1  0
  8  9  1  0
  9 14  1  0
  9 10  1  6
 11 10  1  0
 12 11  1  0
 13 12  2  0
 14 15  2  0
 16 12  1  0
 17 18  1  0
 17 14  1  0
 18 24  1  0
 18 19  1  1
 20 19  1  0
 20 21  1  0
 22 23  1  0
 22 21  1  0
 24 26  2  0
 24 25  1  0
M  END
$$$$
