TEK.pdb
     RDKit          3D

 26 25  0  0  1  0  0  0  0  0999 V2000
   18.5061  -12.7065  -18.3774 C   0  0  0  0  0  0  0  0  0  0  0  0
   18.2850  -11.4469  -17.5973 C   0  0  1  0  0  0  0  0  0  0  0  0
   16.9256  -11.1950  -17.5241 O   0  0  0  0  0  0  0  0  0  0  0  0
   18.8994  -11.5508  -16.2037 C   0  0  2  0  0  0  0  0  0  0  0  0
   18.2837  -12.5896  -15.4285 N   0  0  0  0  0  0  0  0  0  0  0  0
   18.7496  -10.2218  -15.5658 C   0  0  0  0  0  0  0  0  0  0  0  0
   17.7248   -9.9295  -14.9144 O   0  0  0  0  0  0  0  0  0  0  0  0
   19.7823   -9.2592  -15.6917 N   0  0  0  0  0  0  0  0  0  0  0  0
   19.7069   -8.0490  -14.9355 C   0  0  1  0  0  0  0  0  0  0  0  0
   21.0968   -7.3977  -14.9169 C   0  0  0  0  0  0  0  0  0  0  0  0
   21.0538   -6.2272  -13.9674 C   0  0  0  0  0  0  0  0  0  0  0  0
   22.3955   -5.6015  -13.8889 C   0  0  0  0  0  0  0  0  0  0  0  0
   22.5954   -4.6234  -13.1324 O   0  0  0  0  0  0  0  0  0  0  0  0
   18.8042   -7.0419  -15.5652 C   0  0  0  0  0  0  0  0  0  0  0  0
   18.8179   -6.9600  -16.8189 O   0  0  0  0  0  0  0  0  0  0  0  0
   23.4312   -6.1129  -14.6654 O   0  0  0  0  0  0  0  0  0  0  0  0
   17.9542   -6.1949  -14.8412 N   0  0  0  0  0  0  0  0  0  0  0  0
   17.0070   -5.2473  -15.4747 C   0  0  1  0  0  0  0  0  0  0  0  0
   15.6131   -5.5523  -15.0623 C   0  0  0  0  0  0  0  0  0  0  0  0
   14.6428   -4.5867  -15.6796 C   0  0  0  0  0  0  0  0  0  0  0  0
   13.2077   -4.9457  -15.3877 C   0  0  0  0  0  0  0  0  0  0  0  0
   12.2321   -4.0914  -16.1387 C   0  0  0  0  0  0  0  0  0  0  0  0
   10.8684   -4.4610  -15.7835 N   0  0  0  0  0  0  0  0  0  0  0  0
   17.4086   -3.9242  -14.9629 C   0  0  0  0  0  0  0  0  0  0  0  0
   17.5558   -2.8652  -15.8322 O   0  0  0  0  0  0  0  0  0  0  0  0
   17.6355   -3.6930  -13.7447 O   0  0  0  0  0  0  0  0  0  0  0  0
  2  1  1  1
  3  2  1  0
  4  2  1  0
  4  5  1  1
  4  6  1  0
  6  7  2  0
  8  6  1  0
  8  9  1  0
  9 14  1  0
  9 10  1  6
 11 10  1  0
 12 11  1  0
 13 12  2  0
 14 15  2  0
 16 12  1  0
 17 18  1  0
 17 14  1  0
 18 24  1  0
 18 19  1  1
 20 19  1  0
 20 21  1  0
 22 23  1  0
 22 21  1  0
 24 26  2  0
 24 25  1  0
M  END
$$$$
