TEK.pdb
     RDKit          3D

 26 25  0  0  1  0  0  0  0  0999 V2000
   20.9641   -9.8714  -20.2649 C   0  0  0  0  0  0  0  0  0  0  0  0
   21.0333  -11.1551  -19.4960 C   0  0  1  0  0  0  0  0  0  0  0  0
   20.9932  -12.2156  -20.3852 O   0  0  0  0  0  0  0  0  0  0  0  0
   22.2917  -11.2098  -18.6336 C   0  0  2  0  0  0  0  0  0  0  0  0
   22.4510  -12.4915  -18.0082 N   0  0  0  0  0  0  0  0  0  0  0  0
   22.1805  -10.1183  -17.6377 C   0  0  0  0  0  0  0  0  0  0  0  0
   21.5149  -10.2641  -16.5909 O   0  0  0  0  0  0  0  0  0  0  0  0
   22.8374   -8.8838  -17.8687 N   0  0  0  0  0  0  0  0  0  0  0  0
   22.6806   -7.8206  -16.9269 C   0  0  1  0  0  0  0  0  0  0  0  0
   23.8494   -6.8405  -17.0981 C   0  0  0  0  0  0  0  0  0  0  0  0
   23.7373   -5.7849  -16.0273 C   0  0  0  0  0  0  0  0  0  0  0  0
   24.8775   -4.8437  -16.1360 C   0  0  0  0  0  0  0  0  0  0  0  0
   25.8020   -4.8679  -15.2912 O   0  0  0  0  0  0  0  0  0  0  0  0
   21.4483   -7.0178  -17.1777 C   0  0  0  0  0  0  0  0  0  0  0  0
   21.2047   -6.6925  -18.3666 O   0  0  0  0  0  0  0  0  0  0  0  0
   24.9098   -3.9324  -17.1875 O   0  0  0  0  0  0  0  0  0  0  0  0
   20.5616   -6.6138  -16.1705 N   0  0  0  0  0  0  0  0  0  0  0  0
   19.3114   -5.8619  -16.4319 C   0  0  1  0  0  0  0  0  0  0  0  0
   18.1333   -6.7601  -16.3268 C   0  0  0  0  0  0  0  0  0  0  0  0
   17.4771   -6.9504  -17.6640 C   0  0  0  0  0  0  0  0  0  0  0  0
   16.2503   -7.8236  -17.5851 C   0  0  0  0  0  0  0  0  0  0  0  0
   15.5743   -7.9948  -18.9115 C   0  0  0  0  0  0  0  0  0  0  0  0
   14.3159   -8.7091  -18.7419 N   0  0  0  0  0  0  0  0  0  0  0  0
   19.2652   -4.8395  -15.3706 C   0  0  0  0  0  0  0  0  0  0  0  0
   19.8535   -5.0873  -14.1495 O   0  0  0  0  0  0  0  0  0  0  0  0
   18.7027   -3.7202  -15.5118 O   0  0  0  0  0  0  0  0  0  0  0  0
  2  1  1  6
  3  2  1  0
  4  2  1  0
  4  5  1  1
  4  6  1  0
  6  7  2  0
  8  6  1  0
  8  9  1  0
  9 14  1  0
  9 10  1  6
 11 10  1  0
 12 11  1  0
 13 12  2  0
 14 15  2  0
 16 12  1  0
 17 18  1  0
 17 14  1  0
 18 24  1  0
 18 19  1  1
 20 19  1  0
 20 21  1  0
 22 23  1  0
 22 21  1  0
 24 26  2  0
 24 25  1  0
M  END
$$$$
