TEK.pdb
     RDKit          3D

 26 25  0  0  1  0  0  0  0  0999 V2000
   14.6059  -13.2527  -13.6422 C   0  0  0  0  0  0  0  0  0  0  0  0
   15.5482  -12.2447  -14.2252 C   0  0  1  0  0  0  0  0  0  0  0  0
   16.6952  -12.8933  -14.6503 O   0  0  0  0  0  0  0  0  0  0  0  0
   14.8924  -11.4816  -15.3732 C   0  0  2  0  0  0  0  0  0  0  0  0
   14.5305  -12.3551  -16.4527 N   0  0  0  0  0  0  0  0  0  0  0  0
   15.8536  -10.4392  -15.8035 C   0  0  0  0  0  0  0  0  0  0  0  0
   16.3831  -10.4757  -16.9341 O   0  0  0  0  0  0  0  0  0  0  0  0
   16.1838   -9.3785  -14.9233 N   0  0  0  0  0  0  0  0  0  0  0  0
   17.0429   -8.3319  -15.3800 C   0  0  1  0  0  0  0  0  0  0  0  0
   16.4039   -6.9836  -15.0195 C   0  0  0  0  0  0  0  0  0  0  0  0
   15.2881   -6.7165  -15.9978 C   0  0  0  0  0  0  0  0  0  0  0  0
   14.6830   -5.3935  -15.7125 C   0  0  0  0  0  0  0  0  0  0  0  0
   14.8085   -4.4502  -16.5270 O   0  0  0  0  0  0  0  0  0  0  0  0
   18.3657   -8.3421  -14.6902 C   0  0  0  0  0  0  0  0  0  0  0  0
   18.3624   -8.4638  -13.4396 O   0  0  0  0  0  0  0  0  0  0  0  0
   13.9736   -5.2108  -14.5290 O   0  0  0  0  0  0  0  0  0  0  0  0
   19.5937   -8.2248  -15.3552 N   0  0  0  0  0  0  0  0  0  0  0  0
   20.8989   -8.1417  -14.6582 C   0  0  1  0  0  0  0  0  0  0  0  0
   21.9996   -8.5564  -15.5651 C   0  0  0  0  0  0  0  0  0  0  0  0
   22.2698  -10.0290  -15.4495 C   0  0  0  0  0  0  0  0  0  0  0  0
   23.4296  -10.4712  -16.3057 C   0  0  0  0  0  0  0  0  0  0  0  0
   23.6087  -11.9590  -16.3157 C   0  0  0  0  0  0  0  0  0  0  0  0
   24.8405  -12.3088  -17.0106 N   0  0  0  0  0  0  0  0  0  0  0  0
   21.0415   -6.7167  -14.3073 C   0  0  0  0  0  0  0  0  0  0  0  0
   20.1028   -5.8043  -14.7374 O   0  0  0  0  0  0  0  0  0  0  0  0
   21.9973   -6.2652  -13.6206 O   0  0  0  0  0  0  0  0  0  0  0  0
  2  1  1  6
  3  2  1  0
  4  2  1  0
  4  5  1  6
  4  6  1  0
  6  7  2  0
  8  6  1  0
  8  9  1  0
  9 14  1  0
  9 10  1  1
 11 10  1  0
 12 11  1  0
 13 12  2  0
 14 15  2  0
 16 12  1  0
 17 18  1  0
 17 14  1  0
 18 24  1  0
 18 19  1  6
 20 19  1  0
 20 21  1  0
 22 23  1  0
 22 21  1  0
 24 26  2  0
 24 25  1  0
M  END
$$$$
