TEK.pdb
     RDKit          3D

 26 25  0  0  1  0  0  0  0  0999 V2000
   21.9055  -11.8808  -18.2084 C   0  0  0  0  0  0  0  0  0  0  0  0
   20.5243  -12.3526  -18.5451 C   0  0  1  0  0  0  0  0  0  0  0  0
   20.5885  -13.6692  -18.9684 O   0  0  0  0  0  0  0  0  0  0  0  0
   19.5885  -12.2065  -17.3479 C   0  0  2  0  0  0  0  0  0  0  0  0
   18.3402  -12.8803  -17.5649 N   0  0  0  0  0  0  0  0  0  0  0  0
   19.4011  -10.7543  -17.1209 C   0  0  0  0  0  0  0  0  0  0  0  0
   19.0918   -9.9885  -18.0578 O   0  0  0  0  0  0  0  0  0  0  0  0
   19.5740  -10.2160  -15.8212 N   0  0  0  0  0  0  0  0  0  0  0  0
   19.3135   -8.8288  -15.5979 C   0  0  1  0  0  0  0  0  0  0  0  0
   18.6415   -8.6728  -14.2267 C   0  0  0  0  0  0  0  0  0  0  0  0
   17.2109   -9.1328  -14.3502 C   0  0  0  0  0  0  0  0  0  0  0  0
   16.5214   -8.9669  -13.0484 C   0  0  0  0  0  0  0  0  0  0  0  0
   15.3355   -8.5660  -13.0059 O   0  0  0  0  0  0  0  0  0  0  0  0
   20.5659   -8.0217  -15.5211 C   0  0  0  0  0  0  0  0  0  0  0  0
   21.5687   -8.5631  -14.9918 O   0  0  0  0  0  0  0  0  0  0  0  0
   17.2064   -9.2616  -11.8732 O   0  0  0  0  0  0  0  0  0  0  0  0
   20.6800   -6.7102  -16.0016 N   0  0  0  0  0  0  0  0  0  0  0  0
   21.9410   -5.9321  -15.9698 C   0  0  1  0  0  0  0  0  0  0  0  0
   21.9310   -4.8833  -17.0214 C   0  0  0  0  0  0  0  0  0  0  0  0
   23.1394   -3.9982  -16.9140 C   0  0  0  0  0  0  0  0  0  0  0  0
   23.1740   -2.9376  -17.9852 C   0  0  0  0  0  0  0  0  0  0  0  0
   24.4272   -2.1167  -17.9480 C   0  0  0  0  0  0  0  0  0  0  0  0
   24.3646   -1.0645  -18.9538 N   0  0  0  0  0  0  0  0  0  0  0  0
   21.9584   -5.3094  -14.6335 C   0  0  0  0  0  0  0  0  0  0  0  0
   20.7873   -5.1782  -13.9194 O   0  0  0  0  0  0  0  0  0  0  0  0
   23.0072   -4.8736  -14.0865 O   0  0  0  0  0  0  0  0  0  0  0  0
  2  1  1  1
  3  2  1  0
  4  2  1  0
  4  5  1  6
  4  6  1  0
  6  7  2  0
  8  6  1  0
  8  9  1  0
  9 14  1  0
  9 10  1  1
 11 10  1  0
 12 11  1  0
 13 12  2  0
 14 15  2  0
 16 12  1  0
 17 18  1  0
 17 14  1  0
 18 24  1  0
 18 19  1  6
 20 19  1  0
 20 21  1  0
 22 23  1  0
 22 21  1  0
 24 26  2  0
 24 25  1  0
M  END
$$$$
