TEK.pdb
     RDKit          3D

 26 25  0  0  1  0  0  0  0  0999 V2000
   21.2801  -12.1925  -15.9653 C   0  0  0  0  0  0  0  0  0  0  0  0
   20.0468  -12.1427  -16.8141 C   0  0  1  0  0  0  0  0  0  0  0  0
   19.3681  -13.3434  -16.6935 O   0  0  0  0  0  0  0  0  0  0  0  0
   19.1566  -10.9675  -16.4184 C   0  0  2  0  0  0  0  0  0  0  0  0
   17.8922  -11.0080  -17.0958 N   0  0  0  0  0  0  0  0  0  0  0  0
   19.9111   -9.7305  -16.7288 C   0  0  0  0  0  0  0  0  0  0  0  0
   20.1590   -9.4037  -17.9085 O   0  0  0  0  0  0  0  0  0  0  0  0
   20.3633   -8.8976  -15.6750 N   0  0  0  0  0  0  0  0  0  0  0  0
   21.0948   -7.7102  -15.9862 C   0  0  1  0  0  0  0  0  0  0  0  0
   21.1847   -6.8464  -14.7205 C   0  0  0  0  0  0  0  0  0  0  0  0
   21.9482   -5.5918  -15.0617 C   0  0  0  0  0  0  0  0  0  0  0  0
   21.9846   -4.6957  -13.8813 C   0  0  0  0  0  0  0  0  0  0  0  0
   21.4938   -5.0650  -12.7897 O   0  0  0  0  0  0  0  0  0  0  0  0
   22.5068   -7.9985  -16.3719 C   0  0  0  0  0  0  0  0  0  0  0  0
   23.0789   -8.9547  -15.7914 O   0  0  0  0  0  0  0  0  0  0  0  0
   22.5706   -3.4387  -13.9992 O   0  0  0  0  0  0  0  0  0  0  0  0
   23.2176   -7.2685  -17.3342 N   0  0  0  0  0  0  0  0  0  0  0  0
   24.5548   -7.6612  -17.8384 C   0  0  1  0  0  0  0  0  0  0  0  0
   24.4601   -8.8997  -18.6526 C   0  0  0  0  0  0  0  0  0  0  0  0
   25.7881   -9.2515  -19.2588 C   0  0  0  0  0  0  0  0  0  0  0  0
   25.7636  -10.5816  -19.9686 C   0  0  0  0  0  0  0  0  0  0  0  0
   27.0918  -10.9491  -20.5573 C   0  0  0  0  0  0  0  0  0  0  0  0
   27.0354  -12.2936  -21.1157 N   0  0  0  0  0  0  0  0  0  0  0  0
   24.9786   -6.5302  -18.6842 C   0  0  0  0  0  0  0  0  0  0  0  0
   26.3195   -6.2627  -18.8552 O   0  0  0  0  0  0  0  0  0  0  0  0
   24.1686   -5.7675  -19.2768 O   0  0  0  0  0  0  0  0  0  0  0  0
  2  1  1  1
  3  2  1  0
  4  2  1  0
  4  5  1  6
  4  6  1  0
  6  7  2  0
  8  6  1  0
  8  9  1  0
  9 14  1  0
  9 10  1  1
 11 10  1  0
 12 11  1  0
 13 12  2  0
 14 15  2  0
 16 12  1  0
 17 18  1  0
 17 14  1  0
 18 24  1  0
 18 19  1  6
 20 19  1  0
 20 21  1  0
 22 23  1  0
 22 21  1  0
 24 26  2  0
 24 25  1  0
M  END
$$$$
