TEK.pdb
     RDKit          3D

 26 25  0  0  1  0  0  0  0  0999 V2000
   19.0866  -12.0650  -17.6273 C   0  0  0  0  0  0  0  0  0  0  0  0
   19.4992  -11.0608  -16.5953 C   0  0  1  0  0  0  0  0  0  0  0  0
   19.8117   -9.8687  -17.2263 O   0  0  0  0  0  0  0  0  0  0  0  0
   18.3989  -10.8593  -15.5565 C   0  0  2  0  0  0  0  0  0  0  0  0
   17.2609  -10.1852  -16.1128 N   0  0  0  0  0  0  0  0  0  0  0  0
   18.9983  -10.0991  -14.4347 C   0  0  0  0  0  0  0  0  0  0  0  0
   19.8953  -10.5975  -13.7227 O   0  0  0  0  0  0  0  0  0  0  0  0
   18.5522   -8.7827  -14.1574 N   0  0  0  0  0  0  0  0  0  0  0  0
   19.1205   -8.0681  -13.0582 C   0  0  1  0  0  0  0  0  0  0  0  0
   20.1436   -7.0633  -13.6057 C   0  0  0  0  0  0  0  0  0  0  0  0
   20.7002   -6.2799  -12.4439 C   0  0  0  0  0  0  0  0  0  0  0  0
   21.6517   -5.2586  -12.9433 C   0  0  0  0  0  0  0  0  0  0  0  0
   22.3359   -5.4778  -13.9693 O   0  0  0  0  0  0  0  0  0  0  0  0
   18.1084   -7.2485  -12.3303 C   0  0  0  0  0  0  0  0  0  0  0  0
   17.4127   -6.4541  -13.0113 O   0  0  0  0  0  0  0  0  0  0  0  0
   21.7765   -4.0529  -12.2594 O   0  0  0  0  0  0  0  0  0  0  0  0
   17.8968   -7.3178  -10.9467 N   0  0  0  0  0  0  0  0  0  0  0  0
   16.7425   -6.6899  -10.2613 C   0  0  1  0  0  0  0  0  0  0  0  0
   15.8003   -7.7288   -9.7727 C   0  0  0  0  0  0  0  0  0  0  0  0
   14.5967   -7.1062   -9.1256 C   0  0  0  0  0  0  0  0  0  0  0  0
   13.6022   -8.1344   -8.6487 C   0  0  0  0  0  0  0  0  0  0  0  0
   12.3707   -7.5188   -8.0568 C   0  0  0  0  0  0  0  0  0  0  0  0
   11.3723   -8.5483   -7.7998 N   0  0  0  0  0  0  0  0  0  0  0  0
   17.3365   -5.9681   -9.1211 C   0  0  0  0  0  0  0  0  0  0  0  0
   16.6527   -4.9256   -8.5342 O   0  0  0  0  0  0  0  0  0  0  0  0
   18.4650   -6.2502   -8.6354 O   0  0  0  0  0  0  0  0  0  0  0  0
  2  1  1  6
  3  2  1  0
  4  2  1  0
  4  5  1  6
  4  6  1  0
  6  7  2  0
  8  6  1  0
  8  9  1  0
  9 14  1  0
  9 10  1  6
 11 10  1  0
 12 11  1  0
 13 12  2  0
 14 15  2  0
 16 12  1  0
 17 18  1  0
 17 14  1  0
 18 24  1  0
 18 19  1  1
 20 19  1  0
 20 21  1  0
 22 23  1  0
 22 21  1  0
 24 26  2  0
 24 25  1  0
M  END
$$$$
