TEK.pdb
     RDKit          3D

 26 25  0  0  1  0  0  0  0  0999 V2000
   21.5771  -10.4037  -19.2131 C   0  0  0  0  0  0  0  0  0  0  0  0
   22.6158  -11.0023  -18.3151 C   0  0  1  0  0  0  0  0  0  0  0  0
   23.6548  -11.4893  -19.0899 O   0  0  0  0  0  0  0  0  0  0  0  0
   23.1206   -9.9778  -17.3023 C   0  0  2  0  0  0  0  0  0  0  0  0
   24.2301  -10.4824  -16.5450 N   0  0  0  0  0  0  0  0  0  0  0  0
   21.9722   -9.6269  -16.4341 C   0  0  0  0  0  0  0  0  0  0  0  0
   21.2554  -10.5120  -15.9216 O   0  0  0  0  0  0  0  0  0  0  0  0
   21.6744   -8.2655  -16.1753 N   0  0  0  0  0  0  0  0  0  0  0  0
   20.5430   -7.9382  -15.3661 C   0  0  1  0  0  0  0  0  0  0  0  0
   21.0053   -7.0130  -14.2320 C   0  0  0  0  0  0  0  0  0  0  0  0
   21.9197   -5.9689  -14.8212 C   0  0  0  0  0  0  0  0  0  0  0  0
   22.4623   -5.1149  -13.7378 C   0  0  0  0  0  0  0  0  0  0  0  0
   22.8025   -5.6197  -12.6430 O   0  0  0  0  0  0  0  0  0  0  0  0
   19.5135   -7.1627  -16.1175 C   0  0  0  0  0  0  0  0  0  0  0  0
   19.9151   -6.4316  -17.0572 O   0  0  0  0  0  0  0  0  0  0  0  0
   22.5898   -3.7453  -13.9502 O   0  0  0  0  0  0  0  0  0  0  0  0
   18.1419   -7.2068  -15.8334 N   0  0  0  0  0  0  0  0  0  0  0  0
   17.1193   -6.4679  -16.6112 C   0  0  1  0  0  0  0  0  0  0  0  0
   15.8284   -7.2023  -16.6017 C   0  0  0  0  0  0  0  0  0  0  0  0
   15.8174   -8.2906  -17.6363 C   0  0  0  0  0  0  0  0  0  0  0  0
   14.5173   -9.0541  -17.6561 C   0  0  0  0  0  0  0  0  0  0  0  0
   14.4551  -10.0644  -18.7612 C   0  0  0  0  0  0  0  0  0  0  0  0
   13.1189  -10.6402  -18.8363 N   0  0  0  0  0  0  0  0  0  0  0  0
   16.9754   -5.1813  -15.9058 C   0  0  0  0  0  0  0  0  0  0  0  0
   17.5586   -5.0044  -14.6699 O   0  0  0  0  0  0  0  0  0  0  0  0
   16.3315   -4.2037  -16.3735 O   0  0  0  0  0  0  0  0  0  0  0  0
  2  1  1  6
  3  2  1  0
  4  2  1  0
  4  5  1  1
  4  6  1  0
  6  7  2  0
  8  6  1  0
  8  9  1  0
  9 14  1  0
  9 10  1  1
 11 10  1  0
 12 11  1  0
 13 12  2  0
 14 15  2  0
 16 12  1  0
 17 18  1  0
 17 14  1  0
 18 24  1  0
 18 19  1  1
 20 19  1  0
 20 21  1  0
 22 23  1  0
 22 21  1  0
 24 26  2  0
 24 25  1  0
M  END
$$$$
