TEK.pdb
     RDKit          3D

 26 25  0  0  1  0  0  0  0  0999 V2000
   25.8702  -10.3025  -15.1940 C   0  0  0  0  0  0  0  0  0  0  0  0
   25.7802  -11.3475  -16.2634 C   0  0  1  0  0  0  0  0  0  0  0  0
   26.7875  -12.2775  -16.0706 O   0  0  0  0  0  0  0  0  0  0  0  0
   24.4082  -12.0167  -16.2612 C   0  0  2  0  0  0  0  0  0  0  0  0
   24.3496  -13.1099  -17.1890 N   0  0  0  0  0  0  0  0  0  0  0  0
   23.4144  -10.9654  -16.5817 C   0  0  0  0  0  0  0  0  0  0  0  0
   23.1765  -10.6398  -17.7638 O   0  0  0  0  0  0  0  0  0  0  0  0
   22.7168  -10.3124  -15.5349 N   0  0  0  0  0  0  0  0  0  0  0  0
   21.7251   -9.3354  -15.8576 C   0  0  1  0  0  0  0  0  0  0  0  0
   20.4547   -9.6454  -15.0537 C   0  0  0  0  0  0  0  0  0  0  0  0
   19.7498  -10.8013  -15.7173 C   0  0  0  0  0  0  0  0  0  0  0  0
   18.4349  -11.0202  -15.0686 C   0  0  0  0  0  0  0  0  0  0  0  0
   18.3470  -11.7229  -14.0354 O   0  0  0  0  0  0  0  0  0  0  0  0
   22.1297   -7.9594  -15.4469 C   0  0  0  0  0  0  0  0  0  0  0  0
   22.7542   -7.8418  -14.3629 O   0  0  0  0  0  0  0  0  0  0  0  0
   17.2984  -10.4359  -15.6202 O   0  0  0  0  0  0  0  0  0  0  0  0
   21.8534   -6.8082  -16.1967 N   0  0  0  0  0  0  0  0  0  0  0  0
   22.4019   -5.4693  -15.8756 C   0  0  1  0  0  0  0  0  0  0  0  0
   22.1279   -4.5167  -16.9817 C   0  0  0  0  0  0  0  0  0  0  0  0
   22.6808   -3.1552  -16.6723 C   0  0  0  0  0  0  0  0  0  0  0  0
   22.4648   -2.1758  -17.7983 C   0  0  0  0  0  0  0  0  0  0  0  0
   23.0570   -0.8284  -17.5163 C   0  0  0  0  0  0  0  0  0  0  0  0
   22.8209    0.0660  -18.6419 N   0  0  0  0  0  0  0  0  0  0  0  0
   21.6789   -5.0547  -14.6593 C   0  0  0  0  0  0  0  0  0  0  0  0
   22.3462   -4.3872  -13.6554 O   0  0  0  0  0  0  0  0  0  0  0  0
   20.4531   -5.2808  -14.4718 O   0  0  0  0  0  0  0  0  0  0  0  0
  2  1  1  1
  3  2  1  0
  4  2  1  0
  4  5  1  6
  4  6  1  0
  6  7  2  0
  8  6  1  0
  8  9  1  0
  9 14  1  0
  9 10  1  1
 11 10  1  0
 12 11  1  0
 13 12  2  0
 14 15  2  0
 16 12  1  0
 17 18  1  0
 17 14  1  0
 18 24  1  0
 18 19  1  6
 20 19  1  0
 20 21  1  0
 22 23  1  0
 22 21  1  0
 24 26  2  0
 24 25  1  0
M  END
$$$$
