TEK.pdb
     RDKit          3D

 26 25  0  0  1  0  0  0  0  0999 V2000
   43.7017   -7.7962   -8.5412 C   0  0  0  0  0  0  0  0  0  0  0  0
   44.1837   -9.2008   -8.3448 C   0  0  1  0  0  0  0  0  0  0  0  0
   45.0643   -9.2299   -7.2768 O   0  0  0  0  0  0  0  0  0  0  0  0
   43.0137  -10.1546   -8.1169 C   0  0  2  0  0  0  0  0  0  0  0  0
   42.2526   -9.7927   -6.9554 N   0  0  0  0  0  0  0  0  0  0  0  0
   43.5838  -11.5175   -8.0022 C   0  0  0  0  0  0  0  0  0  0  0  0
   43.6657  -12.0927   -6.8966 O   0  0  0  0  0  0  0  0  0  0  0  0
   44.0466  -12.1878   -9.1621 N   0  0  0  0  0  0  0  0  0  0  0  0
   44.5095  -13.5354   -9.0538 C   0  0  1  0  0  0  0  0  0  0  0  0
   44.4697  -14.1787  -10.4469 C   0  0  0  0  0  0  0  0  0  0  0  0
   43.0454  -14.5784  -10.7387 C   0  0  0  0  0  0  0  0  0  0  0  0
   42.9736  -15.2247  -12.0709 C   0  0  0  0  0  0  0  0  0  0  0  0
   43.1233  -16.4632  -12.1835 O   0  0  0  0  0  0  0  0  0  0  0  0
   45.9351  -13.6124   -8.6208 C   0  0  0  0  0  0  0  0  0  0  0  0
   46.6725  -12.6309   -8.8887 O   0  0  0  0  0  0  0  0  0  0  0  0
   42.7379  -14.4399  -13.1960 O   0  0  0  0  0  0  0  0  0  0  0  0
   46.4863  -14.7068   -7.9407 N   0  0  0  0  0  0  0  0  0  0  0  0
   47.8886  -14.7540   -7.4634 C   0  0  1  0  0  0  0  0  0  0  0  0
   48.0551  -15.8220   -6.4448 C   0  0  0  0  0  0  0  0  0  0  0  0
   49.4622  -15.8557   -5.9215 C   0  0  0  0  0  0  0  0  0  0  0  0
   49.6625  -16.9224   -4.8748 C   0  0  0  0  0  0  0  0  0  0  0  0
   51.0842  -17.0200   -4.4111 C   0  0  0  0  0  0  0  0  0  0  0  0
   51.1992  -18.0242   -3.3618 N   0  0  0  0  0  0  0  0  0  0  0  0
   48.6788  -15.0737   -8.6664 C   0  0  0  0  0  0  0  0  0  0  0  0
   49.9195  -14.5022   -8.8474 O   0  0  0  0  0  0  0  0  0  0  0  0
   48.2793  -15.8580   -9.5688 O   0  0  0  0  0  0  0  0  0  0  0  0
  2  1  1  1
  3  2  1  0
  4  2  1  0
  4  5  1  1
  4  6  1  0
  6  7  2  0
  8  6  1  0
  8  9  1  0
  9 14  1  0
  9 10  1  6
 11 10  1  0
 12 11  1  0
 13 12  2  0
 14 15  2  0
 16 12  1  0
 17 18  1  0
 17 14  1  0
 18 24  1  0
 18 19  1  1
 20 19  1  0
 20 21  1  0
 22 23  1  0
 22 21  1  0
 24 26  2  0
 24 25  1  0
M  END
$$$$
