TEK.pdb
     RDKit          3D

 26 25  0  0  1  0  0  0  0  0999 V2000
   10.3296  -11.4315   -9.4696 C   0  0  0  0  0  0  0  0  0  0  0  0
   11.1747  -11.1033  -10.6620 C   0  0  1  0  0  0  0  0  0  0  0  0
   12.0953  -12.1192  -10.8552 O   0  0  0  0  0  0  0  0  0  0  0  0
   10.3126  -10.9007  -11.9054 C   0  0  2  0  0  0  0  0  0  0  0  0
    9.6227  -12.1037  -12.2744 N   0  0  0  0  0  0  0  0  0  0  0  0
   11.2130  -10.4268  -12.9826 C   0  0  0  0  0  0  0  0  0  0  0  0
   11.3911  -11.1006  -14.0190 O   0  0  0  0  0  0  0  0  0  0  0  0
   11.8881   -9.1884  -12.8429 N   0  0  0  0  0  0  0  0  0  0  0  0
   12.7202   -8.7211  -13.9065 C   0  0  1  0  0  0  0  0  0  0  0  0
   12.5896   -7.1941  -13.9936 C   0  0  0  0  0  0  0  0  0  0  0  0
   13.3291   -6.7292  -15.2226 C   0  0  0  0  0  0  0  0  0  0  0  0
   13.1674   -5.2635  -15.3751 C   0  0  0  0  0  0  0  0  0  0  0  0
   13.7138   -4.6613  -16.3278 O   0  0  0  0  0  0  0  0  0  0  0  0
   14.1667   -8.9826  -13.6519 C   0  0  0  0  0  0  0  0  0  0  0  0
   14.5878   -8.8015  -12.4820 O   0  0  0  0  0  0  0  0  0  0  0  0
   12.4014   -4.5633  -14.4476 O   0  0  0  0  0  0  0  0  0  0  0  0
   15.0669   -9.4136  -14.6357 N   0  0  0  0  0  0  0  0  0  0  0  0
   16.5170   -9.6017  -14.3944 C   0  0  1  0  0  0  0  0  0  0  0  0
   17.1547  -10.2709  -15.5570 C   0  0  0  0  0  0  0  0  0  0  0  0
   18.6068  -10.5471  -15.2925 C   0  0  0  0  0  0  0  0  0  0  0  0
   19.3124  -11.1225  -16.4945 C   0  0  0  0  0  0  0  0  0  0  0  0
   20.7159  -11.5520  -16.1923 C   0  0  0  0  0  0  0  0  0  0  0  0
   21.3576  -12.0481  -17.4026 N   0  0  0  0  0  0  0  0  0  0  0  0
   17.0478   -8.2346  -14.2430 C   0  0  0  0  0  0  0  0  0  0  0  0
   17.8252   -7.9145  -13.1513 O   0  0  0  0  0  0  0  0  0  0  0  0
   16.8275   -7.3108  -15.0719 O   0  0  0  0  0  0  0  0  0  0  0  0
  2  1  1  1
  3  2  1  0
  4  2  1  0
  4  5  1  6
  4  6  1  0
  6  7  2  0
  8  6  1  0
  8  9  1  0
  9 14  1  0
  9 10  1  1
 11 10  1  0
 12 11  1  0
 13 12  2  0
 14 15  2  0
 16 12  1  0
 17 18  1  0
 17 14  1  0
 18 24  1  0
 18 19  1  6
 20 19  1  0
 20 21  1  0
 22 23  1  0
 22 21  1  0
 24 26  2  0
 24 25  1  0
M  END
$$$$
