TEK.pdb
     RDKit          3D

 26 25  0  0  1  0  0  0  0  0999 V2000
   19.6726  -12.9024  -16.1375 C   0  0  0  0  0  0  0  0  0  0  0  0
   20.3566  -12.6386  -17.4438 C   0  0  1  0  0  0  0  0  0  0  0  0
   19.9712  -13.6049  -18.3574 O   0  0  0  0  0  0  0  0  0  0  0  0
   20.0341  -11.2380  -17.9581 C   0  0  2  0  0  0  0  0  0  0  0  0
   20.4826  -11.0522  -19.3084 N   0  0  0  0  0  0  0  0  0  0  0  0
   20.6719  -10.2784  -17.0263 C   0  0  0  0  0  0  0  0  0  0  0  0
   20.4007  -10.2842  -15.8072 O   0  0  0  0  0  0  0  0  0  0  0  0
   21.6071   -9.3339  -17.5184 N   0  0  0  0  0  0  0  0  0  0  0  0
   22.3071   -8.4964  -16.5962 C   0  0  1  0  0  0  0  0  0  0  0  0
   23.2407   -7.5710  -17.3888 C   0  0  0  0  0  0  0  0  0  0  0  0
   24.1183   -6.8368  -16.4068 C   0  0  0  0  0  0  0  0  0  0  0  0
   25.0209   -5.9163  -17.1386 C   0  0  0  0  0  0  0  0  0  0  0  0
   24.5561   -4.9295  -17.7546 O   0  0  0  0  0  0  0  0  0  0  0  0
   21.3908   -7.5890  -15.8459 C   0  0  0  0  0  0  0  0  0  0  0  0
   20.6252   -6.8564  -16.5212 O   0  0  0  0  0  0  0  0  0  0  0  0
   26.3911   -6.1604  -17.1339 O   0  0  0  0  0  0  0  0  0  0  0  0
   21.3407   -7.5126  -14.4475 N   0  0  0  0  0  0  0  0  0  0  0  0
   20.3435   -6.7052  -13.7057 C   0  0  1  0  0  0  0  0  0  0  0  0
   19.5773   -7.5618  -12.7651 C   0  0  0  0  0  0  0  0  0  0  0  0
   18.5773   -6.7535  -11.9893 C   0  0  0  0  0  0  0  0  0  0  0  0
   17.8102   -7.5869  -10.9940 C   0  0  0  0  0  0  0  0  0  0  0  0
   16.6541   -6.8495  -10.3895 C   0  0  0  0  0  0  0  0  0  0  0  0
   15.9478   -7.7117   -9.4512 N   0  0  0  0  0  0  0  0  0  0  0  0
   21.1468   -5.7221  -12.9557 C   0  0  0  0  0  0  0  0  0  0  0  0
   20.5926   -4.5144  -12.5913 O   0  0  0  0  0  0  0  0  0  0  0  0
   22.3451   -5.9204  -12.6186 O   0  0  0  0  0  0  0  0  0  0  0  0
  2  1  1  1
  3  2  1  0
  4  2  1  0
  4  5  1  6
  4  6  1  0
  6  7  2  0
  8  6  1  0
  8  9  1  0
  9 14  1  0
  9 10  1  6
 11 10  1  0
 12 11  1  0
 13 12  2  0
 14 15  2  0
 16 12  1  0
 17 18  1  0
 17 14  1  0
 18 24  1  0
 18 19  1  1
 20 19  1  0
 20 21  1  0
 22 23  1  0
 22 21  1  0
 24 26  2  0
 24 25  1  0
M  END
$$$$
