TEK.pdb
     RDKit          3D

 26 25  0  0  1  0  0  0  0  0999 V2000
   15.4476   -9.3890  -15.1690 C   0  0  0  0  0  0  0  0  0  0  0  0
   15.8864  -10.8198  -15.1051 C   0  0  1  0  0  0  0  0  0  0  0  0
   15.3052  -11.5165  -16.1508 O   0  0  0  0  0  0  0  0  0  0  0  0
   17.4084  -10.9286  -15.1525 C   0  0  2  0  0  0  0  0  0  0  0  0
   17.8413  -12.2959  -15.1997 N   0  0  0  0  0  0  0  0  0  0  0  0
   17.9290  -10.2244  -13.9573 C   0  0  0  0  0  0  0  0  0  0  0  0
   17.7819  -10.7001  -12.8118 O   0  0  0  0  0  0  0  0  0  0  0  0
   18.6072   -8.9888  -14.1069 N   0  0  0  0  0  0  0  0  0  0  0  0
   19.0576   -8.2923  -12.9433 C   0  0  1  0  0  0  0  0  0  0  0  0
   20.0998   -7.2498  -13.3713 C   0  0  0  0  0  0  0  0  0  0  0  0
   20.6185   -6.5679  -12.1306 C   0  0  0  0  0  0  0  0  0  0  0  0
   21.6568   -5.5781  -12.5046 C   0  0  0  0  0  0  0  0  0  0  0  0
   22.4790   -5.8350  -13.4139 O   0  0  0  0  0  0  0  0  0  0  0  0
   17.9647   -7.5163  -12.2882 C   0  0  0  0  0  0  0  0  0  0  0  0
   17.2832   -6.7528  -13.0172 O   0  0  0  0  0  0  0  0  0  0  0  0
   21.7081   -4.3595  -11.8341 O   0  0  0  0  0  0  0  0  0  0  0  0
   17.6634   -7.5939  -10.9217 N   0  0  0  0  0  0  0  0  0  0  0  0
   16.5280   -6.8803  -10.2907 C   0  0  1  0  0  0  0  0  0  0  0  0
   15.5618   -7.8492   -9.7131 C   0  0  0  0  0  0  0  0  0  0  0  0
   14.3954   -7.1413   -9.0859 C   0  0  0  0  0  0  0  0  0  0  0  0
   13.3941   -8.0975   -8.4888 C   0  0  0  0  0  0  0  0  0  0  0  0
   12.1786   -7.4041   -7.9524 C   0  0  0  0  0  0  0  0  0  0  0  0
   11.2642   -8.3779   -7.3711 N   0  0  0  0  0  0  0  0  0  0  0  0
   17.1444   -6.0788   -9.2177 C   0  0  0  0  0  0  0  0  0  0  0  0
   16.5031   -4.9560   -8.7416 O   0  0  0  0  0  0  0  0  0  0  0  0
   18.2555   -6.3617   -8.6936 O   0  0  0  0  0  0  0  0  0  0  0  0
  2  1  1  6
  3  2  1  0
  4  2  1  0
  4  5  1  1
  4  6  1  0
  6  7  2  0
  8  6  1  0
  8  9  1  0
  9 14  1  0
  9 10  1  6
 11 10  1  0
 12 11  1  0
 13 12  2  0
 14 15  2  0
 16 12  1  0
 17 18  1  0
 17 14  1  0
 18 24  1  0
 18 19  1  1
 20 19  1  0
 20 21  1  0
 22 23  1  0
 22 21  1  0
 24 26  2  0
 24 25  1  0
M  END
$$$$
