IGP.pdb
     RDKit          3D

 20 20  0  0  1  0  0  0  0  0999 V2000
    6.5774  -11.7703   27.2744 C   0  0  0  0  0  0  0  0  0  0  0  0
    7.3612  -12.6453   26.3143 C   0  0  0  0  0  0  0  0  0  0  0  0
    7.0810  -14.0935   26.5254 C   0  0  2  0  0  0  0  0  0  0  0  0
    7.4938  -14.5619   27.9132 C   0  0  0  0  0  0  0  0  0  0  0  0
    7.6145  -15.0154   25.4786 C   0  0  2  0  0  0  0  0  0  0  0  0
    9.0843  -14.9375   25.5855 N   0  0  0  0  0  0  0  0  0  0  0  0
    7.2665  -14.6552   24.0935 C   0  0  0  0  0  0  0  0  0  0  0  0
    6.1690  -15.0338   23.6137 O   0  0  0  0  0  0  0  0  0  0  0  0
    8.0823  -13.8886   23.2086 N   0  0  0  0  0  0  0  0  0  0  0  0
    7.6670  -13.4799   21.8979 C   0  0  0  0  0  0  0  0  0  0  0  0
    7.9202  -14.4940   20.8586 C   0  0  0  0  0  0  0  0  0  0  0  0
    7.7329  -15.6949   21.1447 O   0  0  0  0  0  0  0  0  0  0  0  0
    8.3614  -14.1479   19.5701 N   0  0  0  0  0  0  0  0  0  0  0  0
    8.5794  -12.7934   19.1177 C   0  0  0  0  0  0  0  0  0  0  0  0
    8.3103  -12.7926   17.6324 C   0  0  0  0  0  0  0  0  0  0  0  0
    8.3262  -14.2440   17.2419 C   0  0  0  0  0  0  0  0  0  0  0  0
    8.6753  -15.0357   18.4768 C   0  0  1  0  0  0  0  0  0  0  0  0
   10.0849  -15.4166   18.4217 C   0  0  0  0  0  0  0  0  0  0  0  0
   10.4647  -16.3137   17.6318 O   0  0  0  0  0  0  0  0  0  0  0  0
   11.0283  -14.8047   19.2303 O   0  0  0  0  0  0  0  0  0  0  0  0
  2  3  1  0
  2  1  1  0
  3  4  1  1
  5  7  1  0
  5  3  1  0
  5  6  1  6
  7  8  2  0
  9 10  1  0
  9  7  1  0
 11 10  1  0
 12 11  2  0
 13 11  1  0
 13 14  1  0
 15 14  1  0
 16 15  1  0
 17 16  1  0
 17 13  1  0
 17 18  1  6
 18 20  1  0
 19 18  2  0
M  END
$$$$
