IGP.pdb
     RDKit          3D

 20 20  0  0  1  0  0  0  0  0999 V2000
    7.0444  -13.1733   18.2895 C   0  0  0  0  0  0  0  0  0  0  0  0
    7.9220  -14.1797   19.0096 C   0  0  0  0  0  0  0  0  0  0  0  0
    7.8747  -14.0026   20.4883 C   0  0  2  0  0  0  0  0  0  0  0  0
    8.2146  -12.5796   20.9073 C   0  0  0  0  0  0  0  0  0  0  0  0
    8.6654  -14.9884   21.2840 C   0  0  2  0  0  0  0  0  0  0  0  0
    8.0101  -16.2938   21.0728 N   0  0  0  0  0  0  0  0  0  0  0  0
    8.6817  -14.7481   22.7371 C   0  0  0  0  0  0  0  0  0  0  0  0
    9.4890  -13.9133   23.2162 O   0  0  0  0  0  0  0  0  0  0  0  0
    7.8390  -15.3926   23.6913 N   0  0  0  0  0  0  0  0  0  0  0  0
    7.8832  -15.1249   25.0999 C   0  0  0  0  0  0  0  0  0  0  0  0
    9.1587  -15.5085   25.7310 C   0  0  0  0  0  0  0  0  0  0  0  0
    9.9859  -16.1515   25.0518 O   0  0  0  0  0  0  0  0  0  0  0  0
    9.4636  -15.1732   27.0612 N   0  0  0  0  0  0  0  0  0  0  0  0
    8.5999  -14.4067   27.9289 C   0  0  0  0  0  0  0  0  0  0  0  0
    9.5048  -13.6679   28.8851 C   0  0  0  0  0  0  0  0  0  0  0  0
   10.8347  -14.3570   28.7598 C   0  0  0  0  0  0  0  0  0  0  0  0
   10.6527  -15.5105   27.8058 C   0  0  1  0  0  0  0  0  0  0  0  0
   10.5305  -16.7509   28.5684 C   0  0  0  0  0  0  0  0  0  0  0  0
   11.5299  -17.2312   29.1544 O   0  0  0  0  0  0  0  0  0  0  0  0
    9.3225  -17.4216   28.6636 O   0  0  0  0  0  0  0  0  0  0  0  0
  2  3  1  0
  2  1  1  0
  3  4  1  6
  5  7  1  0
  5  3  1  0
  5  6  1  1
  7  8  2  0
  9 10  1  0
  9  7  1  0
 11 10  1  0
 12 11  2  0
 13 11  1  0
 13 14  1  0
 15 14  1  0
 16 15  1  0
 17 16  1  0
 17 13  1  0
 17 18  1  1
 18 20  1  0
 19 18  2  0
M  END
$$$$
