IGP.pdb
     RDKit          3D

 20 20  0  0  1  0  0  0  0  0999 V2000
    5.7573  -22.6932   23.1857 C   0  0  0  0  0  0  0  0  0  0  0  0
    6.8502  -21.7239   23.5952 C   0  0  0  0  0  0  0  0  0  0  0  0
    6.3909  -20.3078   23.5326 C   0  0  2  0  0  0  0  0  0  0  0  0
    5.7566  -19.9686   22.1916 C   0  0  0  0  0  0  0  0  0  0  0  0
    7.4073  -19.2803   23.9088 C   0  0  2  0  0  0  0  0  0  0  0  0
    8.0324  -19.7696   25.1529 N   0  0  0  0  0  0  0  0  0  0  0  0
    6.8644  -17.9426   24.2002 C   0  0  0  0  0  0  0  0  0  0  0  0
    6.6513  -17.1429   23.2551 O   0  0  0  0  0  0  0  0  0  0  0  0
    6.5426  -17.4456   25.4985 N   0  0  0  0  0  0  0  0  0  0  0  0
    5.9960  -16.1410   25.7374 C   0  0  0  0  0  0  0  0  0  0  0  0
    6.9352  -15.0462   25.4346 C   0  0  0  0  0  0  0  0  0  0  0  0
    7.8235  -15.2469   24.5803 O   0  0  0  0  0  0  0  0  0  0  0  0
    6.8573  -13.7977   26.0749 N   0  0  0  0  0  0  0  0  0  0  0  0
    5.8118  -13.4158   26.9957 C   0  0  0  0  0  0  0  0  0  0  0  0
    5.6550  -11.9202   26.8645 C   0  0  0  0  0  0  0  0  0  0  0  0
    6.8964  -11.4687   26.1476 C   0  0  0  0  0  0  0  0  0  0  0  0
    7.7667  -12.6843   25.9513 C   0  0  1  0  0  0  0  0  0  0  0  0
    8.8275  -12.6840   26.9561 C   0  0  0  0  0  0  0  0  0  0  0  0
    9.7591  -11.8470   26.8885 O   0  0  0  0  0  0  0  0  0  0  0  0
    8.8330  -13.5968   27.9977 O   0  0  0  0  0  0  0  0  0  0  0  0
  2  3  1  0
  2  1  1  0
  3  4  1  6
  5  7  1  0
  5  3  1  0
  5  6  1  1
  7  8  2  0
  9 10  1  0
  9  7  1  0
 11 10  1  0
 12 11  2  0
 13 11  1  0
 13 14  1  0
 15 14  1  0
 16 15  1  0
 17 16  1  0
 17 13  1  0
 17 18  1  1
 18 20  1  0
 19 18  2  0
M  END
$$$$
