IGP.pdb
     RDKit          3D

 20 20  0  0  1  0  0  0  0  0999 V2000
    6.9066  -11.6929   28.5692 C   0  0  0  0  0  0  0  0  0  0  0  0
    6.5392  -12.9849   27.8640 C   0  0  0  0  0  0  0  0  0  0  0  0
    7.1132  -13.0526   26.4905 C   0  0  2  0  0  0  0  0  0  0  0  0
    6.7456  -11.8356   25.6541 C   0  0  0  0  0  0  0  0  0  0  0  0
    6.8395  -14.3118   25.7358 C   0  0  2  0  0  0  0  0  0  0  0  0
    7.3959  -15.4031   26.5589 N   0  0  0  0  0  0  0  0  0  0  0  0
    7.4847  -14.4006   24.4148 C   0  0  0  0  0  0  0  0  0  0  0  0
    8.7142  -14.6485   24.3431 O   0  0  0  0  0  0  0  0  0  0  0  0
    6.8274  -14.2277   23.1601 N   0  0  0  0  0  0  0  0  0  0  0  0
    7.4351  -13.5962   22.0246 C   0  0  0  0  0  0  0  0  0  0  0  0
    7.8441  -14.5452   20.9735 C   0  0  0  0  0  0  0  0  0  0  0  0
    7.6034  -15.7584   21.1446 O   0  0  0  0  0  0  0  0  0  0  0  0
    8.4900  -14.1244   19.7986 N   0  0  0  0  0  0  0  0  0  0  0  0
    8.8641  -12.7579   19.5166 C   0  0  0  0  0  0  0  0  0  0  0  0
    8.8134  -12.6042   18.0158 C   0  0  0  0  0  0  0  0  0  0  0  0
    8.7855  -14.0119   17.4897 C   0  0  0  0  0  0  0  0  0  0  0  0
    8.8968  -14.9353   18.6766 C   0  0  1  0  0  0  0  0  0  0  0  0
   10.2698  -15.4245   18.7785 C   0  0  0  0  0  0  0  0  0  0  0  0
   10.6916  -16.2899   17.9748 O   0  0  0  0  0  0  0  0  0  0  0  0
   11.1322  -14.9516   19.7536 O   0  0  0  0  0  0  0  0  0  0  0  0
  2  3  1  0
  2  1  1  0
  3  4  1  6
  5  7  1  0
  5  3  1  0
  5  6  1  1
  7  8  2  0
  9 10  1  0
  9  7  1  0
 11 10  1  0
 12 11  2  0
 13 11  1  0
 13 14  1  0
 15 14  1  0
 16 15  1  0
 17 16  1  0
 17 13  1  0
 17 18  1  1
 18 20  1  0
 19 18  2  0
M  END
$$$$
