IGP.pdb
     RDKit          3D

 20 20  0  0  1  0  0  0  0  0999 V2000
    7.8049  -11.9272   19.9941 C   0  0  0  0  0  0  0  0  0  0  0  0
    7.2446  -13.1506   20.6946 C   0  0  0  0  0  0  0  0  0  0  0  0
    8.0870  -14.3582   20.4657 C   0  0  2  0  0  0  0  0  0  0  0  0
    8.3485  -14.6039   18.9868 C   0  0  0  0  0  0  0  0  0  0  0  0
    7.6189  -15.6100   21.1322 C   0  0  2  0  0  0  0  0  0  0  0  0
    6.3643  -15.9835   20.4508 N   0  0  0  0  0  0  0  0  0  0  0  0
    7.3037  -15.4740   22.5646 C   0  0  0  0  0  0  0  0  0  0  0  0
    6.2840  -14.8291   22.9144 O   0  0  0  0  0  0  0  0  0  0  0  0
    8.0697  -16.0239   23.6356 N   0  0  0  0  0  0  0  0  0  0  0  0
    8.0814  -15.4829   24.9641 C   0  0  0  0  0  0  0  0  0  0  0  0
    9.4112  -15.5137   25.5992 C   0  0  0  0  0  0  0  0  0  0  0  0
   10.3823  -15.9098   24.9215 O   0  0  0  0  0  0  0  0  0  0  0  0
    9.6112  -15.1137   26.9314 N   0  0  0  0  0  0  0  0  0  0  0  0
    8.6144  -14.4582   27.7459 C   0  0  0  0  0  0  0  0  0  0  0  0
    9.3680  -13.5825   28.7175 C   0  0  0  0  0  0  0  0  0  0  0  0
   10.7844  -14.0822   28.6607 C   0  0  0  0  0  0  0  0  0  0  0  0
   10.8034  -15.2679   27.7294 C   0  0  1  0  0  0  0  0  0  0  0  0
   10.8222  -16.4983   28.5173 C   0  0  0  0  0  0  0  0  0  0  0  0
   11.8543  -16.8254   29.1503 O   0  0  0  0  0  0  0  0  0  0  0  0
    9.7143  -17.3267   28.5855 O   0  0  0  0  0  0  0  0  0  0  0  0
  2  3  1  0
  2  1  1  0
  3  4  1  6
  5  7  1  0
  5  3  1  0
  5  6  1  6
  7  8  2  0
  9 10  1  0
  9  7  1  0
 11 10  1  0
 12 11  2  0
 13 11  1  0
 13 14  1  0
 15 14  1  0
 16 15  1  0
 17 16  1  0
 17 13  1  0
 17 18  1  1
 18 20  1  0
 19 18  2  0
M  END
$$$$
