IGP.pdb
     RDKit          3D

 20 20  0  0  1  0  0  0  0  0999 V2000
    5.5164  -11.7025   27.7350 C   0  0  0  0  0  0  0  0  0  0  0  0
    6.7454  -12.5909   27.7768 C   0  0  0  0  0  0  0  0  0  0  0  0
    7.3395  -12.7840   26.4239 C   0  0  2  0  0  0  0  0  0  0  0  0
    7.0922  -11.5906   25.5127 C   0  0  0  0  0  0  0  0  0  0  0  0
    6.9767  -14.0574   25.7333 C   0  0  2  0  0  0  0  0  0  0  0  0
    7.5723  -15.1379   26.5431 N   0  0  0  0  0  0  0  0  0  0  0  0
    7.5110  -14.2014   24.3684 C   0  0  0  0  0  0  0  0  0  0  0  0
    8.7539  -14.2549   24.1938 O   0  0  0  0  0  0  0  0  0  0  0  0
    6.7278  -14.2908   23.1789 N   0  0  0  0  0  0  0  0  0  0  0  0
    7.1029  -13.6870   21.9329 C   0  0  0  0  0  0  0  0  0  0  0  0
    7.6692  -14.6426   20.9640 C   0  0  0  0  0  0  0  0  0  0  0  0
    7.5894  -15.8623   21.2191 O   0  0  0  0  0  0  0  0  0  0  0  0
    8.2888  -14.2210   19.7753 N   0  0  0  0  0  0  0  0  0  0  0  0
    8.5660  -12.8428   19.4429 C   0  0  0  0  0  0  0  0  0  0  0  0
    8.5114  -12.7492   17.9373 C   0  0  0  0  0  0  0  0  0  0  0  0
    8.5861  -14.1740   17.4643 C   0  0  0  0  0  0  0  0  0  0  0  0
    8.7574  -15.0421   18.6853 C   0  0  1  0  0  0  0  0  0  0  0  0
   10.1613  -15.4280   18.8081 C   0  0  0  0  0  0  0  0  0  0  0  0
   10.9287  -14.7822   19.5610 O   0  0  0  0  0  0  0  0  0  0  0  0
   10.6764  -16.5045   18.1051 O   0  0  0  0  0  0  0  0  0  0  0  0
  2  3  1  0
  2  1  1  0
  3  4  1  6
  5  7  1  0
  5  3  1  0
  5  6  1  1
  7  8  2  0
  9 10  1  0
  9  7  1  0
 11 10  1  0
 12 11  2  0
 13 11  1  0
 13 14  1  0
 15 14  1  0
 16 15  1  0
 17 16  1  0
 17 13  1  0
 17 18  1  1
 18 20  1  0
 19 18  2  0
M  END
$$$$
