IGP.pdb
     RDKit          3D

 20 20  0  0  1  0  0  0  0  0999 V2000
    8.1608  -12.0691   19.9311 C   0  0  0  0  0  0  0  0  0  0  0  0
    7.4630  -13.2143   20.6405 C   0  0  0  0  0  0  0  0  0  0  0  0
    8.2160  -14.4933   20.5077 C   0  0  2  0  0  0  0  0  0  0  0  0
    8.5281  -14.8277   19.0563 C   0  0  0  0  0  0  0  0  0  0  0  0
    7.6175  -15.6720   21.2023 C   0  0  2  0  0  0  0  0  0  0  0  0
    6.3584  -15.9624   20.4892 N   0  0  0  0  0  0  0  0  0  0  0  0
    7.2677  -15.4522   22.6160 C   0  0  0  0  0  0  0  0  0  0  0  0
    6.3748  -14.6185   22.9091 O   0  0  0  0  0  0  0  0  0  0  0  0
    7.8637  -16.1179   23.7285 N   0  0  0  0  0  0  0  0  0  0  0  0
    7.9368  -15.5550   25.0459 C   0  0  0  0  0  0  0  0  0  0  0  0
    9.2970  -15.5630   25.6135 C   0  0  0  0  0  0  0  0  0  0  0  0
   10.2406  -15.9349   24.8852 O   0  0  0  0  0  0  0  0  0  0  0  0
    9.5555  -15.1676   26.9370 N   0  0  0  0  0  0  0  0  0  0  0  0
    8.5772  -14.5728   27.8177 C   0  0  0  0  0  0  0  0  0  0  0  0
    9.3421  -13.6701   28.7553 C   0  0  0  0  0  0  0  0  0  0  0  0
   10.7761  -14.0960   28.6083 C   0  0  0  0  0  0  0  0  0  0  0  0
   10.7994  -15.2691   27.6612 C   0  0  1  0  0  0  0  0  0  0  0  0
   10.9272  -16.5054   28.4296 C   0  0  0  0  0  0  0  0  0  0  0  0
    9.9331  -17.2530   28.5900 O   0  0  0  0  0  0  0  0  0  0  0  0
   12.1348  -16.8804   28.9946 O   0  0  0  0  0  0  0  0  0  0  0  0
  2  3  1  0
  2  1  1  0
  3  4  1  6
  5  7  1  0
  5  3  1  0
  5  6  1  6
  7  8  2  0
  9 10  1  0
  9  7  1  0
 11 10  1  0
 12 11  2  0
 13 11  1  0
 13 14  1  0
 15 14  1  0
 16 15  1  0
 17 16  1  0
 17 13  1  0
 17 18  1  1
 18 20  1  0
 19 18  2  0
M  END
$$$$
