IGP.pdb
     RDKit          3D

 20 20  0  0  1  0  0  0  0  0999 V2000
    6.3965  -11.3842   27.8911 C   0  0  0  0  0  0  0  0  0  0  0  0
    6.2122  -12.8275   27.4614 C   0  0  0  0  0  0  0  0  0  0  0  0
    7.1040  -13.1881   26.3234 C   0  0  2  0  0  0  0  0  0  0  0  0
    6.9755  -12.2132   25.1620 C   0  0  0  0  0  0  0  0  0  0  0  0
    7.0001  -14.5977   25.8410 C   0  0  2  0  0  0  0  0  0  0  0  0
    7.2855  -15.4463   27.0142 N   0  0  0  0  0  0  0  0  0  0  0  0
    7.9680  -14.9727   24.7961 C   0  0  0  0  0  0  0  0  0  0  0  0
    9.1669  -15.1785   25.1095 O   0  0  0  0  0  0  0  0  0  0  0  0
    7.6680  -15.1329   23.4102 N   0  0  0  0  0  0  0  0  0  0  0  0
    8.6528  -15.0587   22.3699 C   0  0  0  0  0  0  0  0  0  0  0  0
    8.1005  -15.2793   21.0213 C   0  0  0  0  0  0  0  0  0  0  0  0
    7.3654  -16.2716   20.8372 O   0  0  0  0  0  0  0  0  0  0  0  0
    8.3769  -14.4118   19.9508 N   0  0  0  0  0  0  0  0  0  0  0  0
    9.1216  -13.1797   20.0691 C   0  0  0  0  0  0  0  0  0  0  0  0
    8.5859  -12.2550   19.0029 C   0  0  0  0  0  0  0  0  0  0  0  0
    7.8197  -13.1517   18.0712 C   0  0  0  0  0  0  0  0  0  0  0  0
    7.9908  -14.5648   18.5689 C   0  0  1  0  0  0  0  0  0  0  0  0
    8.9964  -15.2434   17.7545 C   0  0  0  0  0  0  0  0  0  0  0  0
    8.7048  -15.6531   16.6056 O   0  0  0  0  0  0  0  0  0  0  0  0
   10.2831  -15.4500   18.2235 O   0  0  0  0  0  0  0  0  0  0  0  0
  2  3  1  0
  2  1  1  0
  3  4  1  6
  5  7  1  0
  5  3  1  0
  5  6  1  1
  7  8  2  0
  9 10  1  0
  9  7  1  0
 11 10  1  0
 12 11  2  0
 13 11  1  0
 13 14  1  0
 15 14  1  0
 16 15  1  0
 17 16  1  0
 17 13  1  0
 17 18  1  6
 18 20  1  0
 19 18  2  0
M  END
$$$$
