IGP.pdb
     RDKit          3D

 20 20  0  0  1  0  0  0  0  0999 V2000
    5.9823  -11.5642   28.0258 C   0  0  0  0  0  0  0  0  0  0  0  0
    6.0366  -13.0080   27.5632 C   0  0  0  0  0  0  0  0  0  0  0  0
    6.9145  -13.1783   26.3712 C   0  0  2  0  0  0  0  0  0  0  0  0
    6.5196  -12.2519   25.2303 C   0  0  0  0  0  0  0  0  0  0  0  0
    7.0744  -14.5795   25.8799 C   0  0  2  0  0  0  0  0  0  0  0  0
    7.5683  -15.3563   27.0333 N   0  0  0  0  0  0  0  0  0  0  0  0
    8.0560  -14.7525   24.7955 C   0  0  0  0  0  0  0  0  0  0  0  0
    9.2825  -14.7580   25.0674 O   0  0  0  0  0  0  0  0  0  0  0  0
    7.7409  -14.9223   23.4142 N   0  0  0  0  0  0  0  0  0  0  0  0
    8.7282  -14.9834   22.3753 C   0  0  0  0  0  0  0  0  0  0  0  0
    8.1585  -15.2192   21.0366 C   0  0  0  0  0  0  0  0  0  0  0  0
    7.3699  -16.1759   20.8885 O   0  0  0  0  0  0  0  0  0  0  0  0
    8.4763  -14.4048   19.9363 N   0  0  0  0  0  0  0  0  0  0  0  0
    9.3064  -13.2247   20.0064 C   0  0  0  0  0  0  0  0  0  0  0  0
    8.8184  -12.2964   18.9207 C   0  0  0  0  0  0  0  0  0  0  0  0
    7.9764  -13.1643   18.0279 C   0  0  0  0  0  0  0  0  0  0  0  0
    8.0575  -14.5707   18.5656 C   0  0  1  0  0  0  0  0  0  0  0  0
    8.9999  -15.3412   17.7574 C   0  0  0  0  0  0  0  0  0  0  0  0
   10.1836  -15.4928   18.1432 O   0  0  0  0  0  0  0  0  0  0  0  0
    8.6164  -15.9180   16.5581 O   0  0  0  0  0  0  0  0  0  0  0  0
  2  3  1  0
  2  1  1  0
  3  4  1  6
  5  7  1  0
  5  3  1  0
  5  6  1  1
  7  8  2  0
  9 10  1  0
  9  7  1  0
 11 10  1  0
 12 11  2  0
 13 11  1  0
 13 14  1  0
 15 14  1  0
 16 15  1  0
 17 16  1  0
 17 13  1  0
 17 18  1  6
 18 20  1  0
 19 18  2  0
M  END
$$$$
