IGP.pdb
     RDKit          3D

 20 20  0  0  1  0  0  0  0  0999 V2000
    6.9268  -12.6980   18.4634 C   0  0  0  0  0  0  0  0  0  0  0  0
    7.7323  -13.8440   19.0460 C   0  0  0  0  0  0  0  0  0  0  0  0
    7.7692  -13.7985   20.5350 C   0  0  2  0  0  0  0  0  0  0  0  0
    8.2210  -12.4423   21.0569 C   0  0  0  0  0  0  0  0  0  0  0  0
    8.5322  -14.8981   21.1975 C   0  0  2  0  0  0  0  0  0  0  0  0
    7.7418  -16.1249   20.9782 N   0  0  0  0  0  0  0  0  0  0  0  0
    8.7003  -14.7519   22.6535 C   0  0  0  0  0  0  0  0  0  0  0  0
    9.6164  -14.0168   23.0990 O   0  0  0  0  0  0  0  0  0  0  0  0
    7.8947  -15.3852   23.6466 N   0  0  0  0  0  0  0  0  0  0  0  0
    8.0070  -15.1165   25.0512 C   0  0  0  0  0  0  0  0  0  0  0  0
    9.2926  -15.5456   25.6304 C   0  0  0  0  0  0  0  0  0  0  0  0
   10.0703  -16.2132   24.9172 O   0  0  0  0  0  0  0  0  0  0  0  0
    9.6607  -15.2264   26.9485 N   0  0  0  0  0  0  0  0  0  0  0  0
    8.8540  -14.4426   27.8548 C   0  0  0  0  0  0  0  0  0  0  0  0
    9.8167  -13.7337   28.7765 C   0  0  0  0  0  0  0  0  0  0  0  0
   11.1216  -14.4568   28.5931 C   0  0  0  0  0  0  0  0  0  0  0  0
   10.8699  -15.5994   27.6418 C   0  0  1  0  0  0  0  0  0  0  0  0
   10.7463  -16.8407   28.4027 C   0  0  0  0  0  0  0  0  0  0  0  0
    9.6216  -17.3720   28.5630 O   0  0  0  0  0  0  0  0  0  0  0  0
   11.8541  -17.4566   28.9607 O   0  0  0  0  0  0  0  0  0  0  0  0
  2  3  1  0
  2  1  1  0
  3  4  1  6
  5  7  1  0
  5  3  1  0
  5  6  1  1
  7  8  2  0
  9 10  1  0
  9  7  1  0
 11 10  1  0
 12 11  2  0
 13 11  1  0
 13 14  1  0
 15 14  1  0
 16 15  1  0
 17 16  1  0
 17 13  1  0
 17 18  1  1
 18 20  1  0
 19 18  2  0
M  END
$$$$
