IGP.pdb
     RDKit          3D

 20 20  0  0  1  0  0  0  0  0999 V2000
    7.2552  -12.0397   28.8251 C   0  0  0  0  0  0  0  0  0  0  0  0
    7.0064  -13.2972   28.0137 C   0  0  0  0  0  0  0  0  0  0  0  0
    7.1757  -13.0598   26.5524 C   0  0  2  0  0  0  0  0  0  0  0  0
    6.2560  -11.9614   26.0389 C   0  0  0  0  0  0  0  0  0  0  0  0
    7.0833  -14.2717   25.6847 C   0  0  2  0  0  0  0  0  0  0  0  0
    8.1427  -15.1850   26.1554 N   0  0  0  0  0  0  0  0  0  0  0  0
    7.3289  -14.0339   24.2520 C   0  0  0  0  0  0  0  0  0  0  0  0
    6.3575  -13.8116   23.4872 O   0  0  0  0  0  0  0  0  0  0  0  0
    8.6093  -14.0292   23.6222 N   0  0  0  0  0  0  0  0  0  0  0  0
    8.8349  -13.5668   22.2831 C   0  0  0  0  0  0  0  0  0  0  0  0
    8.4328  -14.5387   21.2505 C   0  0  0  0  0  0  0  0  0  0  0  0
    7.9555  -15.6319   21.6196 O   0  0  0  0  0  0  0  0  0  0  0  0
    8.5713  -14.2695   19.8782 N   0  0  0  0  0  0  0  0  0  0  0  0
    9.0084  -13.0048   19.3339 C   0  0  0  0  0  0  0  0  0  0  0  0
    8.3444  -12.8701   17.9850 C   0  0  0  0  0  0  0  0  0  0  0  0
    7.8607  -14.2553   17.6587 C   0  0  0  0  0  0  0  0  0  0  0  0
    8.3164  -15.1624   18.7738 C   0  0  1  0  0  0  0  0  0  0  0  0
    9.4982  -15.9033   18.3387 C   0  0  0  0  0  0  0  0  0  0  0  0
   10.6452  -15.4829   18.6225 O   0  0  0  0  0  0  0  0  0  0  0  0
    9.3852  -17.0757   17.6100 O   0  0  0  0  0  0  0  0  0  0  0  0
  2  3  1  0
  2  1  1  0
  3  4  1  6
  5  7  1  0
  5  3  1  0
  5  6  1  1
  7  8  2  0
  9 10  1  0
  9  7  1  0
 11 10  1  0
 12 11  2  0
 13 11  1  0
 13 14  1  0
 15 14  1  0
 16 15  1  0
 17 16  1  0
 17 13  1  0
 17 18  1  6
 18 20  1  0
 19 18  2  0
M  END
$$$$
