IGP.pdb
     RDKit          3D

 20 20  0  0  1  0  0  0  0  0999 V2000
    9.8140  -13.7682   28.0416 C   0  0  0  0  0  0  0  0  0  0  0  0
    8.6945  -14.7118   27.6443 C   0  0  0  0  0  0  0  0  0  0  0  0
    8.4819  -14.7340   26.1696 C   0  0  2  0  0  0  0  0  0  0  0  0
    8.2717  -13.3391   25.5987 C   0  0  0  0  0  0  0  0  0  0  0  0
    7.4226  -15.6671   25.6823 C   0  0  2  0  0  0  0  0  0  0  0  0
    7.7809  -16.9959   26.2151 N   0  0  0  0  0  0  0  0  0  0  0  0
    7.3354  -15.8025   24.2182 C   0  0  0  0  0  0  0  0  0  0  0  0
    8.1169  -16.5851   23.6225 O   0  0  0  0  0  0  0  0  0  0  0  0
    6.4157  -15.1079   23.3769 N   0  0  0  0  0  0  0  0  0  0  0  0
    6.3565  -15.2771   21.9537 C   0  0  0  0  0  0  0  0  0  0  0  0
    7.6829  -15.3432   21.3142 C   0  0  0  0  0  0  0  0  0  0  0  0
    8.3004  -16.4282   21.3419 O   0  0  0  0  0  0  0  0  0  0  0  0
    8.2629  -14.2302   20.6822 N   0  0  0  0  0  0  0  0  0  0  0  0
    7.8517  -12.8623   20.8977 C   0  0  0  0  0  0  0  0  0  0  0  0
    8.1314  -12.1263   19.6097 C   0  0  0  0  0  0  0  0  0  0  0  0
    9.0536  -13.0340   18.8451 C   0  0  0  0  0  0  0  0  0  0  0  0
    9.3443  -14.2222   19.7269 C   0  0  1  0  0  0  0  0  0  0  0  0
   10.6610  -14.0569   20.3384 C   0  0  0  0  0  0  0  0  0  0  0  0
   10.7589  -13.7690   21.5551 O   0  0  0  0  0  0  0  0  0  0  0  0
   11.8224  -14.2118   19.6000 O   0  0  0  0  0  0  0  0  0  0  0  0
  2  3  1  0
  2  1  1  0
  3  4  1  1
  5  7  1  0
  5  3  1  0
  5  6  1  1
  7  8  2  0
  9 10  1  0
  9  7  1  0
 11 10  1  0
 12 11  2  0
 13 11  1  0
 13 14  1  0
 15 14  1  0
 16 15  1  0
 17 16  1  0
 17 13  1  0
 17 18  1  1
 18 20  1  0
 19 18  2  0
M  END
$$$$
