IGP.pdb
     RDKit          3D

 20 20  0  0  1  0  0  0  0  0999 V2000
    6.4947  -11.4580   28.1451 C   0  0  0  0  0  0  0  0  0  0  0  0
    6.3196  -12.8685   27.6146 C   0  0  0  0  0  0  0  0  0  0  0  0
    7.1821  -13.1283   26.4276 C   0  0  2  0  0  0  0  0  0  0  0  0
    6.9210  -12.1394   25.3008 C   0  0  0  0  0  0  0  0  0  0  0  0
    7.1684  -14.5296   25.9116 C   0  0  2  0  0  0  0  0  0  0  0  0
    7.5333  -15.3840   27.0582 N   0  0  0  0  0  0  0  0  0  0  0  0
    8.1412  -14.8105   24.8420 C   0  0  0  0  0  0  0  0  0  0  0  0
    9.3672  -14.8407   25.1142 O   0  0  0  0  0  0  0  0  0  0  0  0
    7.8177  -15.0626   23.4753 N   0  0  0  0  0  0  0  0  0  0  0  0
    8.6155  -14.6089   22.3728 C   0  0  0  0  0  0  0  0  0  0  0  0
    8.1156  -15.0592   21.0614 C   0  0  0  0  0  0  0  0  0  0  0  0
    7.4534  -16.1166   21.0111 O   0  0  0  0  0  0  0  0  0  0  0  0
    8.3622  -14.3377   19.8810 N   0  0  0  0  0  0  0  0  0  0  0  0
    9.0218  -13.0535   19.8313 C   0  0  0  0  0  0  0  0  0  0  0  0
    8.4546  -12.3302   18.6339 C   0  0  0  0  0  0  0  0  0  0  0  0
    7.7725  -13.4015   17.8300 C   0  0  0  0  0  0  0  0  0  0  0  0
    8.0224  -14.7134   18.5299 C   0  0  1  0  0  0  0  0  0  0  0  0
    9.0906  -15.4318   17.8386 C   0  0  0  0  0  0  0  0  0  0  0  0
    8.8467  -16.0553   16.7781 O   0  0  0  0  0  0  0  0  0  0  0  0
   10.3855  -15.4436   18.3298 O   0  0  0  0  0  0  0  0  0  0  0  0
  2  3  1  0
  2  1  1  0
  3  4  1  6
  5  7  1  0
  5  3  1  0
  5  6  1  1
  7  8  2  0
  9 10  1  0
  9  7  1  0
 11 10  1  0
 12 11  2  0
 13 11  1  0
 13 14  1  0
 15 14  1  0
 16 15  1  0
 17 16  1  0
 17 13  1  0
 17 18  1  6
 18 20  1  0
 19 18  2  0
M  END
$$$$
