IGP.pdb
     RDKit          3D

 20 20  0  0  1  0  0  0  0  0999 V2000
    8.2297  -18.9636   17.9412 C   0  0  0  0  0  0  0  0  0  0  0  0
    8.7395  -18.9411   19.3699 C   0  0  0  0  0  0  0  0  0  0  0  0
    8.4180  -17.6579   20.0558 C   0  0  2  0  0  0  0  0  0  0  0  0
    8.8520  -16.4474   19.2421 C   0  0  0  0  0  0  0  0  0  0  0  0
    8.8934  -17.5413   21.4667 C   0  0  2  0  0  0  0  0  0  0  0  0
    8.2648  -18.6593   22.1966 N   0  0  0  0  0  0  0  0  0  0  0  0
    8.4977  -16.3026   22.1584 C   0  0  0  0  0  0  0  0  0  0  0  0
    9.2848  -15.3235   22.1710 O   0  0  0  0  0  0  0  0  0  0  0  0
    7.2617  -16.0951   22.8406 N   0  0  0  0  0  0  0  0  0  0  0  0
    6.8622  -14.8344   23.3961 C   0  0  0  0  0  0  0  0  0  0  0  0
    7.7923  -14.3216   24.4182 C   0  0  0  0  0  0  0  0  0  0  0  0
    9.0154  -14.5141   24.2561 O   0  0  0  0  0  0  0  0  0  0  0  0
    7.3431  -13.6301   25.5561 N   0  0  0  0  0  0  0  0  0  0  0  0
    5.9532  -13.4190   25.8879 C   0  0  0  0  0  0  0  0  0  0  0  0
    5.8909  -12.1177   26.6504 C   0  0  0  0  0  0  0  0  0  0  0  0
    7.3131  -11.8433   27.0519 C   0  0  0  0  0  0  0  0  0  0  0  0
    8.1429  -13.0131   26.5865 C   0  0  1  0  0  0  0  0  0  0  0  0
    8.4121  -13.8938   27.7210 C   0  0  0  0  0  0  0  0  0  0  0  0
    9.2245  -13.5449   28.6104 O   0  0  0  0  0  0  0  0  0  0  0  0
    7.7850  -15.1226   27.8433 O   0  0  0  0  0  0  0  0  0  0  0  0
  2  3  1  0
  2  1  1  0
  3  4  1  6
  5  7  1  0
  5  3  1  0
  5  6  1  1
  7  8  2  0
  9 10  1  0
  9  7  1  0
 11 10  1  0
 12 11  2  0
 13 11  1  0
 13 14  1  0
 15 14  1  0
 16 15  1  0
 17 16  1  0
 17 13  1  0
 17 18  1  1
 18 20  1  0
 19 18  2  0
M  END
$$$$
