IGP.pdb
     RDKit          3D

 20 20  0  0  1  0  0  0  0  0999 V2000
   11.4367  -13.4579   28.7960 C   0  0  0  0  0  0  0  0  0  0  0  0
   10.7818  -14.7137   28.2524 C   0  0  0  0  0  0  0  0  0  0  0  0
    9.4866  -14.4189   27.5772 C   0  0  2  0  0  0  0  0  0  0  0  0
    8.3487  -14.2388   28.5716 C   0  0  0  0  0  0  0  0  0  0  0  0
    9.0919  -15.3659   26.4920 C   0  0  2  0  0  0  0  0  0  0  0  0
   10.3181  -15.6137   25.7089 N   0  0  0  0  0  0  0  0  0  0  0  0
    8.0807  -14.8521   25.5524 C   0  0  0  0  0  0  0  0  0  0  0  0
    7.2876  -13.9535   25.9288 O   0  0  0  0  0  0  0  0  0  0  0  0
    7.9061  -15.2889   24.2052 N   0  0  0  0  0  0  0  0  0  0  0  0
    6.9249  -14.7421   23.3131 C   0  0  0  0  0  0  0  0  0  0  0  0
    7.0825  -15.1931   21.9187 C   0  0  0  0  0  0  0  0  0  0  0  0
    6.6000  -16.2985   21.5955 O   0  0  0  0  0  0  0  0  0  0  0  0
    7.7537  -14.4203   20.9559 N   0  0  0  0  0  0  0  0  0  0  0  0
    8.1519  -13.0447   21.1454 C   0  0  0  0  0  0  0  0  0  0  0  0
    8.1282  -12.4031   19.7792 C   0  0  0  0  0  0  0  0  0  0  0  0
    8.0889  -13.5573   18.8172 C   0  0  0  0  0  0  0  0  0  0  0  0
    8.1673  -14.8227   19.6334 C   0  0  1  0  0  0  0  0  0  0  0  0
    9.5314  -15.3441   19.5829 C   0  0  0  0  0  0  0  0  0  0  0  0
   10.2850  -15.2345   20.5794 O   0  0  0  0  0  0  0  0  0  0  0  0
   10.0230  -15.9659   18.4472 O   0  0  0  0  0  0  0  0  0  0  0  0
  2  3  1  0
  2  1  1  0
  3  4  1  1
  5  7  1  0
  5  3  1  0
  5  6  1  6
  7  8  2  0
  9 10  1  0
  9  7  1  0
 11 10  1  0
 12 11  2  0
 13 11  1  0
 13 14  1  0
 15 14  1  0
 16 15  1  0
 17 16  1  0
 17 13  1  0
 17 18  1  1
 18 20  1  0
 19 18  2  0
M  END
$$$$
