IGP.pdb
     RDKit          3D

 20 20  0  0  1  0  0  0  0  0999 V2000
    7.5031  -12.1639   18.7056 C   0  0  0  0  0  0  0  0  0  0  0  0
    7.8475  -13.5925   19.0823 C   0  0  0  0  0  0  0  0  0  0  0  0
    7.5181  -13.8883   20.5052 C   0  0  2  0  0  0  0  0  0  0  0  0
    8.1625  -12.8957   21.4619 C   0  0  0  0  0  0  0  0  0  0  0  0
    7.7737  -15.2905   20.9509 C   0  0  2  0  0  0  0  0  0  0  0  0
    6.9950  -16.1506   20.0388 N   0  0  0  0  0  0  0  0  0  0  0  0
    7.3261  -15.6019   22.3191 C   0  0  0  0  0  0  0  0  0  0  0  0
    6.1109  -15.4819   22.6140 O   0  0  0  0  0  0  0  0  0  0  0  0
    8.1670  -16.0446   23.3836 N   0  0  0  0  0  0  0  0  0  0  0  0
    8.0603  -15.5672   24.7320 C   0  0  0  0  0  0  0  0  0  0  0  0
    9.3627  -15.4078   25.4035 C   0  0  0  0  0  0  0  0  0  0  0  0
   10.3942  -15.7366   24.7813 O   0  0  0  0  0  0  0  0  0  0  0  0
    9.4716  -14.9015   26.7099 N   0  0  0  0  0  0  0  0  0  0  0  0
    8.3844  -14.2989   27.4457 C   0  0  0  0  0  0  0  0  0  0  0  0
    9.0095  -13.2877   28.3761 C   0  0  0  0  0  0  0  0  0  0  0  0
   10.4700  -13.6422   28.3976 C   0  0  0  0  0  0  0  0  0  0  0  0
   10.6426  -14.8791   27.5527 C   0  0  1  0  0  0  0  0  0  0  0  0
   10.7551  -16.0459   28.4251 C   0  0  0  0  0  0  0  0  0  0  0  0
    9.7730  -16.8090   28.5864 O   0  0  0  0  0  0  0  0  0  0  0  0
   11.9350  -16.3373   29.0893 O   0  0  0  0  0  0  0  0  0  0  0  0
  2  3  1  0
  2  1  1  0
  3  4  1  1
  5  7  1  0
  5  3  1  0
  5  6  1  6
  7  8  2  0
  9 10  1  0
  9  7  1  0
 11 10  1  0
 12 11  2  0
 13 11  1  0
 13 14  1  0
 15 14  1  0
 16 15  1  0
 17 16  1  0
 17 13  1  0
 17 18  1  1
 18 20  1  0
 19 18  2  0
M  END
$$$$
