SVD.pdb
     RDKit          3D

 22 21  0  0  1  0  0  0  0  0999 V2000
   25.6589  -13.2927  -15.4117 O   0  0  0  0  0  0  0  0  0  0  0  0
   24.8961  -12.2495  -15.8706 C   0  0  0  0  0  0  0  0  0  0  0  0
   23.6470  -12.7133  -16.5800 C   0  0  2  0  0  0  0  0  0  0  0  0
   24.0805  -13.3201  -17.8406 N   0  0  0  0  0  0  0  0  0  0  0  0
   22.7544  -11.5680  -16.9684 C   0  0  0  0  0  0  0  0  0  0  0  0
   22.9594  -10.8573  -17.9824 O   0  0  0  0  0  0  0  0  0  0  0  0
   19.0776  -11.5875  -17.6155 C   0  0  0  0  0  0  0  0  0  0  0  0
   19.2962  -10.6177  -16.4814 C   0  0  2  0  0  0  0  0  0  0  0  0
   18.3058   -9.4784  -16.5011 C   0  0  0  0  0  0  0  0  0  0  0  0
   20.7302  -10.1314  -16.4946 C   0  0  2  0  0  0  0  0  0  0  0  0
   21.6120  -11.2327  -16.1848 N   0  0  0  0  0  0  0  0  0  0  0  0
   20.8408   -9.0293  -15.5057 C   0  0  0  0  0  0  0  0  0  0  0  0
   20.5899   -9.2985  -14.3036 O   0  0  0  0  0  0  0  0  0  0  0  0
   21.2137   -7.7064  -15.8668 N   0  0  0  0  0  0  0  0  0  0  0  0
   21.4126   -6.6948  -14.8516 C   0  0  1  0  0  0  0  0  0  0  0  0
   22.2820   -5.5647  -15.3552 C   0  0  0  0  0  0  0  0  0  0  0  0
   22.5066   -4.6340  -14.2285 C   0  0  0  0  0  0  0  0  0  0  0  0
   22.7602   -5.1077  -13.0712 O   0  0  0  0  0  0  0  0  0  0  0  0
   20.1041   -6.1665  -14.3598 C   0  0  0  0  0  0  0  0  0  0  0  0
   19.9466   -6.0067  -13.1240 O   0  0  0  0  0  0  0  0  0  0  0  0
   22.4434   -3.2699  -14.4120 O   0  0  0  0  0  0  0  0  0  0  0  0
   19.0713   -5.8526  -15.2162 O   0  0  0  0  0  0  0  0  0  0  0  0
  1  2  1  0
  3  2  1  0
  3  4  1  6
  5  6  2  0
  5  3  1  0
  8  7  1  6
  8 10  1  0
  9  8  1  0
 10 11  1  1
 11  5  1  0
 12 10  1  0
 12 14  1  0
 13 12  2  0
 15 14  1  0
 15 19  1  0
 16 17  1  0
 15 16  1  6
 17 21  1  0
 18 17  2  0
 19 20  2  0
 19 22  1  0
M  END
$$$$
