SVD.pdb
     RDKit          3D

 22 21  0  0  1  0  0  0  0  0999 V2000
   17.3497  -11.5882  -18.6738 O   0  0  0  0  0  0  0  0  0  0  0  0
   17.8299  -11.0444  -17.5101 C   0  0  0  0  0  0  0  0  0  0  0  0
   19.0991  -11.7122  -17.0390 C   0  0  2  0  0  0  0  0  0  0  0  0
   18.7168  -13.0335  -16.5358 N   0  0  0  0  0  0  0  0  0  0  0  0
   19.7182  -10.9979  -15.8703 C   0  0  0  0  0  0  0  0  0  0  0  0
   19.3409  -11.1736  -14.6862 O   0  0  0  0  0  0  0  0  0  0  0  0
   23.5630   -9.2872  -16.0906 C   0  0  0  0  0  0  0  0  0  0  0  0
   22.8119   -9.6288  -14.8281 C   0  0  2  0  0  0  0  0  0  0  0  0
   23.0115  -11.0664  -14.4125 C   0  0  0  0  0  0  0  0  0  0  0  0
   21.3484   -9.2774  -14.9937 C   0  0  2  0  0  0  0  0  0  0  0  0
   20.7835  -10.0703  -16.0608 N   0  0  0  0  0  0  0  0  0  0  0  0
   21.2638   -7.8213  -15.2719 C   0  0  0  0  0  0  0  0  0  0  0  0
   21.4047   -7.4473  -16.4639 O   0  0  0  0  0  0  0  0  0  0  0  0
   21.0332   -6.8561  -14.2549 N   0  0  0  0  0  0  0  0  0  0  0  0
   20.9985   -5.4451  -14.5735 C   0  0  1  0  0  0  0  0  0  0  0  0
   19.6195   -4.8611  -14.3640 C   0  0  0  0  0  0  0  0  0  0  0  0
   19.6632   -3.4437  -14.7825 C   0  0  0  0  0  0  0  0  0  0  0  0
   19.6912   -2.5321  -13.8902 O   0  0  0  0  0  0  0  0  0  0  0  0
   22.0109   -4.6913  -13.7735 C   0  0  0  0  0  0  0  0  0  0  0  0
   22.3929   -5.1743  -12.6788 O   0  0  0  0  0  0  0  0  0  0  0  0
   19.6715   -3.0979  -16.1161 O   0  0  0  0  0  0  0  0  0  0  0  0
   22.5336   -3.4891  -14.1979 O   0  0  0  0  0  0  0  0  0  0  0  0
  1  2  1  0
  3  2  1  0
  3  4  1  1
  5  6  2  0
  5  3  1  0
  8  7  1  6
  8 10  1  0
  9  8  1  0
 10 11  1  6
 11  5  1  0
 12 10  1  0
 12 14  1  0
 13 12  2  0
 15 14  1  0
 15 19  1  0
 16 17  1  0
 15 16  1  1
 17 21  1  0
 18 17  2  0
 19 20  2  0
 19 22  1  0
M  END
$$$$
