SVD.pdb
     RDKit          3D

 22 21  0  0  1  0  0  0  0  0999 V2000
   16.8770  -12.8052  -14.4820 O   0  0  0  0  0  0  0  0  0  0  0  0
   17.8540  -11.9365  -14.8964 C   0  0  0  0  0  0  0  0  0  0  0  0
   18.0768  -11.9844  -16.3886 C   0  0  2  0  0  0  0  0  0  0  0  0
   18.5378  -13.3390  -16.7013 N   0  0  0  0  0  0  0  0  0  0  0  0
   19.1847  -11.0686  -16.8285 C   0  0  0  0  0  0  0  0  0  0  0  0
   20.3694  -11.4550  -16.9787 O   0  0  0  0  0  0  0  0  0  0  0  0
   18.2265   -7.5708  -18.8457 C   0  0  0  0  0  0  0  0  0  0  0  0
   19.5816   -8.2301  -18.9075 C   0  0  2  0  0  0  0  0  0  0  0  0
   19.6556   -9.2909  -19.9792 C   0  0  0  0  0  0  0  0  0  0  0  0
   19.9504   -8.7683  -17.5410 C   0  0  2  0  0  0  0  0  0  0  0  0
   18.9318   -9.6924  -17.0996 N   0  0  0  0  0  0  0  0  0  0  0  0
   20.0914   -7.6092  -16.6238 C   0  0  0  0  0  0  0  0  0  0  0  0
   19.3046   -7.5420  -15.6455 O   0  0  0  0  0  0  0  0  0  0  0  0
   21.0673   -6.5936  -16.8120 N   0  0  0  0  0  0  0  0  0  0  0  0
   21.3116   -5.6076  -15.7817 C   0  0  1  0  0  0  0  0  0  0  0  0
   21.7088   -6.2556  -14.4745 C   0  0  0  0  0  0  0  0  0  0  0  0
   21.8784   -5.1809  -13.4732 C   0  0  0  0  0  0  0  0  0  0  0  0
   20.8456   -4.5855  -13.0186 O   0  0  0  0  0  0  0  0  0  0  0  0
   22.3532   -4.6279  -16.2155 C   0  0  0  0  0  0  0  0  0  0  0  0
   23.0883   -4.9238  -17.1900 O   0  0  0  0  0  0  0  0  0  0  0  0
   23.1308   -4.8157  -13.0300 O   0  0  0  0  0  0  0  0  0  0  0  0
   22.5309   -3.4174  -15.5814 O   0  0  0  0  0  0  0  0  0  0  0  0
  1  2  1  0
  3  2  1  0
  3  4  1  1
  5  6  2  0
  5  3  1  0
  8  7  1  1
  8 10  1  0
  9  8  1  0
 10 11  1  1
 11  5  1  0
 12 10  1  0
 12 14  1  0
 13 12  2  0
 15 14  1  0
 15 19  1  0
 16 17  1  0
 15 16  1  1
 17 21  1  0
 18 17  2  0
 19 20  2  0
 19 22  1  0
M  END
$$$$
