SVD.pdb
     RDKit          3D

 22 21  0  0  1  0  0  0  0  0999 V2000
   14.7622   -8.9956  -16.5725 O   0  0  0  0  0  0  0  0  0  0  0  0
   15.6503   -8.5962  -15.6068 C   0  0  0  0  0  0  0  0  0  0  0  0
   16.5879   -9.7029  -15.1885 C   0  0  2  0  0  0  0  0  0  0  0  0
   15.8819  -10.4910  -14.1757 N   0  0  0  0  0  0  0  0  0  0  0  0
   17.8199   -9.1778  -14.5060 C   0  0  0  0  0  0  0  0  0  0  0  0
   17.8377   -8.8388  -13.2977 O   0  0  0  0  0  0  0  0  0  0  0  0
   21.3438  -10.6538  -14.4278 C   0  0  0  0  0  0  0  0  0  0  0  0
   21.4431   -9.2797  -15.0415 C   0  0  2  0  0  0  0  0  0  0  0  0
   22.7436   -8.5920  -14.7021 C   0  0  0  0  0  0  0  0  0  0  0  0
   20.2372   -8.4546  -14.6442 C   0  0  2  0  0  0  0  0  0  0  0  0
   19.0472   -9.0393  -15.2173 N   0  0  0  0  0  0  0  0  0  0  0  0
   20.4650   -7.0666  -15.1201 C   0  0  0  0  0  0  0  0  0  0  0  0
   20.4778   -6.8718  -16.3621 O   0  0  0  0  0  0  0  0  0  0  0  0
   20.6649   -5.9731  -14.2349 N   0  0  0  0  0  0  0  0  0  0  0  0
   20.8198   -4.6293  -14.7485 C   0  0  1  0  0  0  0  0  0  0  0  0
   19.9079   -3.6539  -14.0389 C   0  0  0  0  0  0  0  0  0  0  0  0
   20.0203   -2.3506  -14.7280 C   0  0  0  0  0  0  0  0  0  0  0  0
   19.4437   -2.1908  -15.8550 O   0  0  0  0  0  0  0  0  0  0  0  0
   22.2416   -4.1799  -14.6500 C   0  0  0  0  0  0  0  0  0  0  0  0
   22.8781   -4.4258  -13.5956 O   0  0  0  0  0  0  0  0  0  0  0  0
   20.7378   -1.3139  -14.1721 O   0  0  0  0  0  0  0  0  0  0  0  0
   22.8707   -3.5068  -15.6747 O   0  0  0  0  0  0  0  0  0  0  0  0
  1  2  1  0
  3  2  1  0
  3  4  1  1
  5  6  2  0
  5  3  1  0
  8  7  1  1
  8 10  1  0
  9  8  1  0
 10 11  1  6
 11  5  1  0
 12 10  1  0
 12 14  1  0
 13 12  2  0
 15 14  1  0
 15 19  1  0
 16 17  1  0
 15 16  1  1
 17 21  1  0
 18 17  2  0
 19 20  2  0
 19 22  1  0
M  END
$$$$
