SVD.pdb
     RDKit          3D

 22 21  0  0  1  0  0  0  0  0999 V2000
   15.4322  -10.2047  -17.2116 O   0  0  0  0  0  0  0  0  0  0  0  0
   16.3449   -9.6122  -16.3770 C   0  0  0  0  0  0  0  0  0  0  0  0
   17.1725  -10.6190  -15.6153 C   0  0  2  0  0  0  0  0  0  0  0  0
   16.2946  -11.2002  -14.5972 N   0  0  0  0  0  0  0  0  0  0  0  0
   18.2987   -9.9734  -14.8575 C   0  0  0  0  0  0  0  0  0  0  0  0
   18.1514   -9.4653  -13.7193 O   0  0  0  0  0  0  0  0  0  0  0  0
   21.9309  -11.3390  -14.6332 C   0  0  0  0  0  0  0  0  0  0  0  0
   22.0049   -9.9071  -15.1008 C   0  0  2  0  0  0  0  0  0  0  0  0
   23.2014   -9.1799  -14.5361 C   0  0  0  0  0  0  0  0  0  0  0  0
   20.7033   -9.1997  -14.7874 C   0  0  2  0  0  0  0  0  0  0  0  0
   19.6105   -9.9093  -15.4110 N   0  0  0  0  0  0  0  0  0  0  0  0
   20.8196   -7.8040  -15.2807 C   0  0  0  0  0  0  0  0  0  0  0  0
   20.2749   -7.5277  -16.3796 O   0  0  0  0  0  0  0  0  0  0  0  0
   21.5124   -6.7905  -14.5651 N   0  0  0  0  0  0  0  0  0  0  0  0
   21.3740   -5.3997  -14.9393 C   0  0  1  0  0  0  0  0  0  0  0  0
   19.9405   -4.9325  -14.8239 C   0  0  0  0  0  0  0  0  0  0  0  0
   19.8909   -3.5212  -15.2618 C   0  0  0  0  0  0  0  0  0  0  0  0
   19.9033   -2.5962  -14.3830 O   0  0  0  0  0  0  0  0  0  0  0  0
   22.2724   -4.5330  -14.1179 C   0  0  0  0  0  0  0  0  0  0  0  0
   22.4468   -3.3409  -14.4726 O   0  0  0  0  0  0  0  0  0  0  0  0
   19.8296   -3.1952  -16.5991 O   0  0  0  0  0  0  0  0  0  0  0  0
   22.9122   -5.0003  -12.9904 O   0  0  0  0  0  0  0  0  0  0  0  0
  1  2  1  0
  3  2  1  0
  3  4  1  1
  5  6  2  0
  5  3  1  0
  8  7  1  1
  8 10  1  0
  9  8  1  0
 10 11  1  6
 11  5  1  0
 12 10  1  0
 12 14  1  0
 13 12  2  0
 15 14  1  0
 15 19  1  0
 16 17  1  0
 15 16  1  1
 17 21  1  0
 18 17  2  0
 19 20  2  0
 19 22  1  0
M  END
$$$$
