SVD.pdb
     RDKit          3D

 22 21  0  0  1  0  0  0  0  0999 V2000
   18.0330  -11.6174  -18.3683 O   0  0  0  0  0  0  0  0  0  0  0  0
   19.1276  -12.1262  -19.0193 C   0  0  0  0  0  0  0  0  0  0  0  0
   19.9998  -12.9654  -18.1173 C   0  0  2  0  0  0  0  0  0  0  0  0
   19.1612  -14.0585  -17.6202 N   0  0  0  0  0  0  0  0  0  0  0  0
   20.4475  -12.2117  -16.8962 C   0  0  0  0  0  0  0  0  0  0  0  0
   19.7979  -12.2061  -15.8223 O   0  0  0  0  0  0  0  0  0  0  0  0
   24.0524  -10.1993  -14.3226 C   0  0  0  0  0  0  0  0  0  0  0  0
   23.5814  -10.9589  -15.5375 C   0  0  2  0  0  0  0  0  0  0  0  0
   24.4279  -10.6761  -16.7552 C   0  0  0  0  0  0  0  0  0  0  0  0
   22.1140  -10.6745  -15.7803 C   0  0  2  0  0  0  0  0  0  0  0  0
   21.6551  -11.4547  -16.9060 N   0  0  0  0  0  0  0  0  0  0  0  0
   21.9711   -9.2151  -16.0139 C   0  0  0  0  0  0  0  0  0  0  0  0
   22.0939   -8.7998  -17.1942 O   0  0  0  0  0  0  0  0  0  0  0  0
   21.7051   -8.2911  -14.9677 N   0  0  0  0  0  0  0  0  0  0  0  0
   21.5260   -6.8845  -15.2558 C   0  0  1  0  0  0  0  0  0  0  0  0
   20.0737   -6.5496  -15.5115 C   0  0  0  0  0  0  0  0  0  0  0  0
   20.0139   -5.1579  -16.0072 C   0  0  0  0  0  0  0  0  0  0  0  0
   21.0954   -4.5697  -16.3423 O   0  0  0  0  0  0  0  0  0  0  0  0
   22.0691   -6.0388  -14.1501 C   0  0  0  0  0  0  0  0  0  0  0  0
   21.9770   -6.4598  -12.9704 O   0  0  0  0  0  0  0  0  0  0  0  0
   18.8118   -4.4921  -16.1086 O   0  0  0  0  0  0  0  0  0  0  0  0
   22.6633   -4.8179  -14.3846 O   0  0  0  0  0  0  0  0  0  0  0  0
  1  2  1  0
  3  2  1  0
  3  4  1  1
  5  6  2  0
  5  3  1  0
  8  7  1  1
  8 10  1  0
  9  8  1  0
 10 11  1  6
 11  5  1  0
 12 10  1  0
 12 14  1  0
 13 12  2  0
 15 14  1  0
 15 19  1  0
 16 17  1  0
 15 16  1  1
 17 21  1  0
 18 17  2  0
 19 20  2  0
 19 22  1  0
M  END
$$$$
