SVD.pdb
     RDKit          3D

 22 21  0  0  1  0  0  0  0  0999 V2000
   16.7862   -9.7065  -19.3473 O   0  0  0  0  0  0  0  0  0  0  0  0
   17.4671   -9.4958  -18.1757 C   0  0  0  0  0  0  0  0  0  0  0  0
   18.2389  -10.7130  -17.7271 C   0  0  2  0  0  0  0  0  0  0  0  0
   17.2540  -11.6726  -17.2227 N   0  0  0  0  0  0  0  0  0  0  0  0
   19.1457  -10.4160  -16.5657 C   0  0  0  0  0  0  0  0  0  0  0  0
   18.7422  -10.3788  -15.3778 O   0  0  0  0  0  0  0  0  0  0  0  0
   22.5890  -11.9497  -15.8598 C   0  0  0  0  0  0  0  0  0  0  0  0
   22.7696  -10.4531  -15.9085 C   0  0  2  0  0  0  0  0  0  0  0  0
   23.8125   -9.9686  -14.9302 C   0  0  0  0  0  0  0  0  0  0  0  0
   21.4330   -9.7706  -15.7070 C   0  0  2  0  0  0  0  0  0  0  0  0
   20.5328  -10.1582  -16.7681 N   0  0  0  0  0  0  0  0  0  0  0  0
   21.6747   -8.3057  -15.6839 C   0  0  0  0  0  0  0  0  0  0  0  0
   21.8567   -7.7284  -16.7857 O   0  0  0  0  0  0  0  0  0  0  0  0
   21.7061   -7.5503  -14.4807 N   0  0  0  0  0  0  0  0  0  0  0  0
   21.7720   -6.1054  -14.5204 C   0  0  1  0  0  0  0  0  0  0  0  0
   20.6511   -5.5199  -15.3494 C   0  0  0  0  0  0  0  0  0  0  0  0
   20.8772   -4.0619  -15.4454 C   0  0  0  0  0  0  0  0  0  0  0  0
   22.0397   -3.6311  -15.7473 O   0  0  0  0  0  0  0  0  0  0  0  0
   21.7549   -5.5314  -13.1409 C   0  0  0  0  0  0  0  0  0  0  0  0
   22.0358   -4.3163  -12.9917 O   0  0  0  0  0  0  0  0  0  0  0  0
   19.8545   -3.1686  -15.2119 O   0  0  0  0  0  0  0  0  0  0  0  0
   21.4433   -6.2910  -12.0342 O   0  0  0  0  0  0  0  0  0  0  0  0
  1  2  1  0
  3  2  1  0
  3  4  1  1
  5  6  2  0
  5  3  1  0
  8  7  1  1
  8 10  1  0
  9  8  1  0
 10 11  1  6
 11  5  1  0
 12 10  1  0
 12 14  1  0
 13 12  2  0
 15 14  1  0
 15 19  1  0
 16 17  1  0
 15 16  1  6
 17 21  1  0
 18 17  2  0
 19 20  2  0
 19 22  1  0
M  END
$$$$
