SVD.pdb
     RDKit          3D

 22 21  0  0  1  0  0  0  0  0999 V2000
   16.0613  -10.7197  -17.9015 O   0  0  0  0  0  0  0  0  0  0  0  0
   16.8453  -10.1650  -16.9225 C   0  0  0  0  0  0  0  0  0  0  0  0
   17.7904  -11.1647  -16.3012 C   0  0  2  0  0  0  0  0  0  0  0  0
   16.9724  -12.0663  -15.4869 N   0  0  0  0  0  0  0  0  0  0  0  0
   18.7543  -10.5190  -15.3455 C   0  0  0  0  0  0  0  0  0  0  0  0
   18.4431  -10.2065  -14.1704 O   0  0  0  0  0  0  0  0  0  0  0  0
   22.4237  -11.5545  -14.6831 C   0  0  0  0  0  0  0  0  0  0  0  0
   22.4173  -10.1058  -15.1026 C   0  0  2  0  0  0  0  0  0  0  0  0
   23.4841   -9.3002  -14.4009 C   0  0  0  0  0  0  0  0  0  0  0  0
   21.0341   -9.5226  -14.9035 C   0  0  2  0  0  0  0  0  0  0  0  0
   20.0922  -10.2277  -15.7414 N   0  0  0  0  0  0  0  0  0  0  0  0
   21.1039   -8.0763  -15.2323 C   0  0  0  0  0  0  0  0  0  0  0  0
   21.3680   -7.7616  -16.4205 O   0  0  0  0  0  0  0  0  0  0  0  0
   20.8861   -7.0566  -14.2669 N   0  0  0  0  0  0  0  0  0  0  0  0
   20.9339   -5.6613  -14.6466 C   0  0  1  0  0  0  0  0  0  0  0  0
   19.6098   -4.9727  -14.4030 C   0  0  0  0  0  0  0  0  0  0  0  0
   19.7388   -3.5741  -14.8650 C   0  0  0  0  0  0  0  0  0  0  0  0
   20.4256   -3.3252  -15.9111 O   0  0  0  0  0  0  0  0  0  0  0  0
   22.0323   -4.9486  -13.9264 C   0  0  0  0  0  0  0  0  0  0  0  0
   22.3734   -3.8083  -14.3275 O   0  0  0  0  0  0  0  0  0  0  0  0
   19.1317   -2.5428  -14.1822 O   0  0  0  0  0  0  0  0  0  0  0  0
   22.6789   -5.5023  -12.8429 O   0  0  0  0  0  0  0  0  0  0  0  0
  1  2  1  0
  3  2  1  0
  3  4  1  1
  5  6  2  0
  5  3  1  0
  8  7  1  1
  8 10  1  0
  9  8  1  0
 10 11  1  6
 11  5  1  0
 12 10  1  0
 12 14  1  0
 13 12  2  0
 15 14  1  0
 15 19  1  0
 16 17  1  0
 15 16  1  1
 17 21  1  0
 18 17  2  0
 19 20  2  0
 19 22  1  0
M  END
$$$$
