SVD.pdb
     RDKit          3D

 22 21  0  0  1  0  0  0  0  0999 V2000
   24.4044  -13.7890  -21.2683 O   0  0  0  0  0  0  0  0  0  0  0  0
   23.8251  -13.1942  -20.1768 C   0  0  0  0  0  0  0  0  0  0  0  0
   24.0269  -11.6984  -20.1569 C   0  0  2  0  0  0  0  0  0  0  0  0
   25.4519  -11.4634  -20.4007 N   0  0  0  0  0  0  0  0  0  0  0  0
   23.7443  -11.1038  -18.8055 C   0  0  0  0  0  0  0  0  0  0  0  0
   22.6368  -11.2215  -18.2270 O   0  0  0  0  0  0  0  0  0  0  0  0
   26.9528   -9.2447  -16.6215 C   0  0  0  0  0  0  0  0  0  0  0  0
   25.8314  -10.0228  -15.9800 C   0  0  2  0  0  0  0  0  0  0  0  0
   26.1782  -11.4800  -15.7914 C   0  0  0  0  0  0  0  0  0  0  0  0
   24.5580   -9.8347  -16.7775 C   0  0  2  0  0  0  0  0  0  0  0  0
   24.7438  -10.3647  -18.1082 N   0  0  0  0  0  0  0  0  0  0  0  0
   24.2454   -8.3832  -16.7905 C   0  0  0  0  0  0  0  0  0  0  0  0
   24.7229   -7.6934  -17.7269 O   0  0  0  0  0  0  0  0  0  0  0  0
   23.4399   -7.7609  -15.7989 N   0  0  0  0  0  0  0  0  0  0  0  0
   23.0407   -6.3770  -15.9370 C   0  0  1  0  0  0  0  0  0  0  0  0
   22.3424   -6.1282  -17.2550 C   0  0  0  0  0  0  0  0  0  0  0  0
   22.0267   -4.6858  -17.3313 C   0  0  0  0  0  0  0  0  0  0  0  0
   20.8415   -4.2935  -17.0679 O   0  0  0  0  0  0  0  0  0  0  0  0
   22.1699   -5.9556  -14.7981 C   0  0  0  0  0  0  0  0  0  0  0  0
   21.9011   -4.7359  -14.6661 O   0  0  0  0  0  0  0  0  0  0  0  0
   22.9906   -3.7664  -17.6834 O   0  0  0  0  0  0  0  0  0  0  0  0
   21.6572   -6.8597  -13.8933 O   0  0  0  0  0  0  0  0  0  0  0  0
  1  2  1  0
  3  2  1  0
  3  4  1  1
  5  6  2  0
  5  3  1  0
  8  7  1  6
  8 10  1  0
  9  8  1  0
 10 11  1  6
 11  5  1  0
 12 10  1  0
 12 14  1  0
 13 12  2  0
 15 14  1  0
 15 19  1  0
 16 17  1  0
 15 16  1  6
 17 21  1  0
 18 17  2  0
 19 20  2  0
 19 22  1  0
M  END
$$$$
