SVD.pdb
     RDKit          3D

 22 21  0  0  1  0  0  0  0  0999 V2000
   27.9557   -9.7103  -16.2910 O   0  0  0  0  0  0  0  0  0  0  0  0
   26.6761   -9.2910  -16.5509 C   0  0  0  0  0  0  0  0  0  0  0  0
   25.6754  -10.4201  -16.5031 C   0  0  2  0  0  0  0  0  0  0  0  0
   25.9700  -11.2911  -17.6432 N   0  0  0  0  0  0  0  0  0  0  0  0
   24.2662   -9.9412  -16.7135 C   0  0  0  0  0  0  0  0  0  0  0  0
   23.7888   -9.7058  -17.8501 O   0  0  0  0  0  0  0  0  0  0  0  0
   21.0223  -11.3757  -16.0708 C   0  0  0  0  0  0  0  0  0  0  0  0
   21.0499  -10.1451  -15.1993 C   0  0  2  0  0  0  0  0  0  0  0  0
   19.6837   -9.5219  -15.0423 C   0  0  0  0  0  0  0  0  0  0  0  0
   22.0703   -9.1629  -15.7348 C   0  0  2  0  0  0  0  0  0  0  0  0
   23.3929   -9.7293  -15.6072 N   0  0  0  0  0  0  0  0  0  0  0  0
   21.9249   -7.8998  -14.9678 C   0  0  0  0  0  0  0  0  0  0  0  0
   22.5481   -7.8043  -13.8802 O   0  0  0  0  0  0  0  0  0  0  0  0
   21.1203   -6.8170  -15.4144 N   0  0  0  0  0  0  0  0  0  0  0  0
   21.0516   -5.5883  -14.6535 C   0  0  1  0  0  0  0  0  0  0  0  0
   22.0258   -4.5559  -15.1747 C   0  0  0  0  0  0  0  0  0  0  0  0
   21.8957   -3.3487  -14.3311 C   0  0  0  0  0  0  0  0  0  0  0  0
   21.2294   -3.4174  -13.2451 O   0  0  0  0  0  0  0  0  0  0  0  0
   19.6620   -5.0387  -14.6497 C   0  0  0  0  0  0  0  0  0  0  0  0
   19.3103   -4.2998  -13.6970 O   0  0  0  0  0  0  0  0  0  0  0  0
   22.4798   -2.1574  -14.7026 O   0  0  0  0  0  0  0  0  0  0  0  0
   18.7603   -5.3177  -15.6536 O   0  0  0  0  0  0  0  0  0  0  0  0
  1  2  1  0
  3  2  1  0
  3  4  1  6
  5  6  2  0
  5  3  1  0
  8  7  1  6
  8 10  1  0
  9  8  1  0
 10 11  1  1
 11  5  1  0
 12 10  1  0
 12 14  1  0
 13 12  2  0
 15 14  1  0
 15 19  1  0
 16 17  1  0
 15 16  1  6
 17 21  1  0
 18 17  2  0
 19 20  2  0
 19 22  1  0
M  END
$$$$
