SVD.pdb
     RDKit          3D

 22 21  0  0  1  0  0  0  0  0999 V2000
   23.9397   -8.8849  -20.6873 O   0  0  0  0  0  0  0  0  0  0  0  0
   22.9757   -8.6208  -19.7483 C   0  0  0  0  0  0  0  0  0  0  0  0
   23.1441   -9.4476  -18.4967 C   0  0  2  0  0  0  0  0  0  0  0  0
   22.8716  -10.8371  -18.8712 N   0  0  0  0  0  0  0  0  0  0  0  0
   22.1250   -9.1046  -17.4463 C   0  0  0  0  0  0  0  0  0  0  0  0
   20.8942   -9.2945  -17.6028 O   0  0  0  0  0  0  0  0  0  0  0  0
   23.0971   -8.9068  -13.4554 C   0  0  0  0  0  0  0  0  0  0  0  0
   21.6790   -8.9099  -13.9690 C   0  0  2  0  0  0  0  0  0  0  0  0
   21.1537  -10.3070  -14.1962 C   0  0  0  0  0  0  0  0  0  0  0  0
   21.5848   -8.0522  -15.2133 C   0  0  2  0  0  0  0  0  0  0  0  0
   22.5213   -8.5365  -16.2007 N   0  0  0  0  0  0  0  0  0  0  0  0
   21.8650   -6.6494  -14.8153 C   0  0  0  0  0  0  0  0  0  0  0  0
   23.0649   -6.2740  -14.8119 O   0  0  0  0  0  0  0  0  0  0  0  0
   20.8415   -5.7356  -14.4456 N   0  0  0  0  0  0  0  0  0  0  0  0
   21.0662   -4.3084  -14.5222 C   0  0  1  0  0  0  0  0  0  0  0  0
   21.5241   -3.8905  -15.9015 C   0  0  0  0  0  0  0  0  0  0  0  0
   21.7152   -2.4244  -15.8867 C   0  0  0  0  0  0  0  0  0  0  0  0
   22.1048   -1.8585  -14.8115 O   0  0  0  0  0  0  0  0  0  0  0  0
   19.8389   -3.5520  -14.1290 C   0  0  0  0  0  0  0  0  0  0  0  0
   18.7356   -3.9005  -14.6176 O   0  0  0  0  0  0  0  0  0  0  0  0
   21.4768   -1.6667  -17.0125 O   0  0  0  0  0  0  0  0  0  0  0  0
   19.8815   -2.4895  -13.2526 O   0  0  0  0  0  0  0  0  0  0  0  0
  1  2  1  0
  3  2  1  0
  3  4  1  6
  5  6  2  0
  5  3  1  0
  8  7  1  6
  8 10  1  0
  9  8  1  0
 10 11  1  6
 11  5  1  0
 12 10  1  0
 12 14  1  0
 13 12  2  0
 15 14  1  0
 15 19  1  0
 16 17  1  0
 15 16  1  6
 17 21  1  0
 18 17  2  0
 19 20  2  0
 19 22  1  0
M  END
$$$$
