SVD.pdb
     RDKit          3D

 22 21  0  0  1  0  0  0  0  0999 V2000
   16.4412  -11.4977  -18.0045 O   0  0  0  0  0  0  0  0  0  0  0  0
   17.3235  -10.9800  -17.0911 C   0  0  0  0  0  0  0  0  0  0  0  0
   18.5487  -11.8440  -16.9149 C   0  0  2  0  0  0  0  0  0  0  0  0
   18.1048  -13.0721  -16.2515 N   0  0  0  0  0  0  0  0  0  0  0  0
   19.5542  -11.2233  -15.9858 C   0  0  0  0  0  0  0  0  0  0  0  0
   19.3598  -11.1050  -14.7515 O   0  0  0  0  0  0  0  0  0  0  0  0
   23.1649  -12.0731  -15.6214 C   0  0  0  0  0  0  0  0  0  0  0  0
   23.1441  -10.5954  -15.9223 C   0  0  2  0  0  0  0  0  0  0  0  0
   24.2187   -9.8422  -15.1757 C   0  0  0  0  0  0  0  0  0  0  0  0
   21.7616  -10.0390  -15.6537 C   0  0  2  0  0  0  0  0  0  0  0  0
   20.7984  -10.7318  -16.4776 N   0  0  0  0  0  0  0  0  0  0  0  0
   21.7994   -8.5824  -15.9397 C   0  0  0  0  0  0  0  0  0  0  0  0
   21.7206   -8.2230  -17.1419 O   0  0  0  0  0  0  0  0  0  0  0  0
   21.9191   -7.6010  -14.9190 N   0  0  0  0  0  0  0  0  0  0  0  0
   21.8111   -6.1932  -15.2352 C   0  0  1  0  0  0  0  0  0  0  0  0
   20.4764   -5.8655  -15.8659 C   0  0  0  0  0  0  0  0  0  0  0  0
   20.4897   -4.4317  -16.2269 C   0  0  0  0  0  0  0  0  0  0  0  0
   21.5728   -3.9068  -16.6504 O   0  0  0  0  0  0  0  0  0  0  0  0
   22.0333   -5.3535  -14.0193 C   0  0  0  0  0  0  0  0  0  0  0  0
   22.0358   -5.9128  -12.8947 O   0  0  0  0  0  0  0  0  0  0  0  0
   19.3542   -3.6603  -16.1098 O   0  0  0  0  0  0  0  0  0  0  0  0
   22.2332   -3.9922  -14.0945 O   0  0  0  0  0  0  0  0  0  0  0  0
  1  2  1  0
  3  2  1  0
  3  4  1  1
  5  6  2  0
  5  3  1  0
  8  7  1  1
  8 10  1  0
  9  8  1  0
 10 11  1  6
 11  5  1  0
 12 10  1  0
 12 14  1  0
 13 12  2  0
 15 14  1  0
 15 19  1  0
 16 17  1  0
 15 16  1  1
 17 21  1  0
 18 17  2  0
 19 20  2  0
 19 22  1  0
M  END
$$$$
