SVD.pdb
     RDKit          3D

 22 21  0  0  1  0  0  0  0  0999 V2000
   16.5556  -10.2740  -19.0590 O   0  0  0  0  0  0  0  0  0  0  0  0
   17.2425   -9.7808  -17.9794 C   0  0  0  0  0  0  0  0  0  0  0  0
   17.8994  -10.8684  -17.1645 C   0  0  2  0  0  0  0  0  0  0  0  0
   16.8240  -11.5830  -16.4732 N   0  0  0  0  0  0  0  0  0  0  0  0
   18.7794  -10.3139  -16.0793 C   0  0  0  0  0  0  0  0  0  0  0  0
   18.3444   -9.9916  -14.9470 O   0  0  0  0  0  0  0  0  0  0  0  0
   22.2871  -11.6626  -15.2138 C   0  0  0  0  0  0  0  0  0  0  0  0
   22.4210  -10.1729  -15.4079 C   0  0  2  0  0  0  0  0  0  0  0  0
   23.4104   -9.5557  -14.4490 C   0  0  0  0  0  0  0  0  0  0  0  0
   21.0565   -9.5221  -15.3220 C   0  0  2  0  0  0  0  0  0  0  0  0
   20.1758  -10.1264  -16.2945 N   0  0  0  0  0  0  0  0  0  0  0  0
   21.2364   -8.0669  -15.5564 C   0  0  0  0  0  0  0  0  0  0  0  0
   21.0097   -7.6314  -16.7138 O   0  0  0  0  0  0  0  0  0  0  0  0
   21.6482   -7.1685  -14.5353 N   0  0  0  0  0  0  0  0  0  0  0  0
   21.6207   -5.7391  -14.7577 C   0  0  1  0  0  0  0  0  0  0  0  0
   20.2191   -5.2467  -15.0401 C   0  0  0  0  0  0  0  0  0  0  0  0
   20.1387   -4.9208  -16.4800 C   0  0  0  0  0  0  0  0  0  0  0  0
   19.2525   -5.4919  -17.1987 O   0  0  0  0  0  0  0  0  0  0  0  0
   22.2065   -5.0058  -13.5949 C   0  0  0  0  0  0  0  0  0  0  0  0
   22.3070   -5.6044  -12.4954 O   0  0  0  0  0  0  0  0  0  0  0  0
   21.0054   -4.0151  -17.0517 O   0  0  0  0  0  0  0  0  0  0  0  0
   22.6359   -3.7000  -13.6922 O   0  0  0  0  0  0  0  0  0  0  0  0
  1  2  1  0
  3  2  1  0
  3  4  1  1
  5  6  2  0
  5  3  1  0
  8  7  1  1
  8 10  1  0
  9  8  1  0
 10 11  1  6
 11  5  1  0
 12 10  1  0
 12 14  1  0
 13 12  2  0
 15 14  1  0
 15 19  1  0
 16 17  1  0
 15 16  1  1
 17 21  1  0
 18 17  2  0
 19 20  2  0
 19 22  1  0
M  END
$$$$
