CMF.pdb
     RDKit          3D

 26 26  0  0  1  0  0  0  0  0999 V2000
    9.2758  -15.4172   19.7686 N   0  0  0  0  0  0  0  0  0  0  0  0
    8.2116  -15.4021   20.7175 C   0  0  1  0  0  0  0  0  0  0  0  0
    7.5681  -16.7937   20.7131 C   0  0  0  0  0  0  0  0  0  0  0  0
    8.6425  -18.0402   21.4198 S   0  0  0  0  0  0  0  0  0  0  0  0
    8.6322  -15.1240   22.0963 C   0  0  0  0  0  0  0  0  0  0  0  0
    9.8207  -15.3499   22.4357 O   0  0  0  0  0  0  0  0  0  0  0  0
    6.4230  -10.3929   26.5440 C   0  0  0  0  0  0  0  0  0  0  0  0
    6.1435  -12.0456   27.1835 S   0  0  0  0  0  0  0  0  0  0  0  0
    7.3613  -13.2444   26.5539 C   0  0  0  0  0  0  0  0  0  0  0  0
    7.1113  -13.5518   25.0969 C   0  0  0  0  0  0  0  0  0  0  0  0
    8.1383  -14.4268   24.4793 C   0  0  2  0  0  0  0  0  0  0  0  0
    7.7501  -14.6067   23.0731 N   0  0  0  0  0  0  0  0  0  0  0  0
    8.3753  -15.7169   25.1325 C   0  0  0  0  0  0  0  0  0  0  0  0
    7.5535  -16.6656   25.0872 O   0  0  0  0  0  0  0  0  0  0  0  0
    9.5716  -15.9982   25.8793 N   0  0  0  0  0  0  0  0  0  0  0  0
    9.7834  -17.3029   26.4669 C   0  0  1  0  0  0  0  0  0  0  0  0
   10.7364  -18.0987   25.6187 C   0  0  0  0  0  0  0  0  0  0  0  0
   11.8804  -17.3216   25.1239 C   0  0  0  0  0  0  0  0  0  0  0  0
   12.5700  -16.4473   25.9539 C   0  0  0  0  0  0  0  0  0  0  0  0
   13.6524  -15.7172   25.4990 C   0  0  0  0  0  0  0  0  0  0  0  0
   14.0882  -15.8315   24.1986 C   0  0  0  0  0  0  0  0  0  0  0  0
   13.4160  -16.6930   23.3645 C   0  0  0  0  0  0  0  0  0  0  0  0
   12.3300  -17.4241   23.8250 C   0  0  0  0  0  0  0  0  0  0  0  0
   10.2520  -17.0803   27.8514 C   0  0  0  0  0  0  0  0  0  0  0  0
   10.5188  -18.0779   28.5565 O   0  0  0  0  0  0  0  0  0  0  0  0
   10.4085  -15.8239   28.4007 O   0  0  0  0  0  0  0  0  0  0  0  0
  2  3  1  0
  2  5  1  0
  2  1  1  6
  4  3  1  0
  5  6  2  0
  7  8  1  0
  8  9  1  0
  9 10  1  0
 11 10  1  1
 11 13  1  0
 12 11  1  0
 12  5  1  0
 13 14  2  0
 15 16  1  0
 15 13  1  0
 16 24  1  0
 16 17  1  6
 18 19  2  0
 18 17  1  0
 20 19  1  0
 21 20  2  0
 22 21  1  0
 22 23  2  0
 23 18  1  0
 24 25  2  0
 24 26  1  0
M  END
$$$$
