CMF.pdb
     RDKit          3D

 26 26  0  0  1  0  0  0  0  0999 V2000
    7.7839  -14.8988   17.6824 N   0  0  0  0  0  0  0  0  0  0  0  0
    8.5023  -14.4066   18.8115 C   0  0  1  0  0  0  0  0  0  0  0  0
    8.0521  -12.9609   19.0519 C   0  0  0  0  0  0  0  0  0  0  0  0
    8.9930  -12.1644   20.3511 S   0  0  0  0  0  0  0  0  0  0  0  0
    8.2597  -15.1482   20.0551 C   0  0  0  0  0  0  0  0  0  0  0  0
    7.0902  -15.2276   20.5074 O   0  0  0  0  0  0  0  0  0  0  0  0
   10.4089  -20.8230   21.2927 C   0  0  0  0  0  0  0  0  0  0  0  0
    8.9970  -20.3224   20.3056 S   0  0  0  0  0  0  0  0  0  0  0  0
    8.4992  -18.6019   20.6358 C   0  0  0  0  0  0  0  0  0  0  0  0
    9.3898  -17.9745   21.6812 C   0  0  0  0  0  0  0  0  0  0  0  0
    9.0489  -16.5656   21.9985 C   0  0  2  0  0  0  0  0  0  0  0  0
    9.2950  -15.7858   20.7772 N   0  0  0  0  0  0  0  0  0  0  0  0
    9.7310  -15.9726   23.1520 C   0  0  0  0  0  0  0  0  0  0  0  0
   10.7092  -15.1929   23.0393 O   0  0  0  0  0  0  0  0  0  0  0  0
    9.3322  -16.2385   24.5078 N   0  0  0  0  0  0  0  0  0  0  0  0
   10.0189  -15.6089   25.6144 C   0  0  1  0  0  0  0  0  0  0  0  0
    9.8177  -14.1197   25.5622 C   0  0  0  0  0  0  0  0  0  0  0  0
    8.4477  -13.6951   25.8786 C   0  0  0  0  0  0  0  0  0  0  0  0
    7.4264  -13.8029   24.9435 C   0  0  0  0  0  0  0  0  0  0  0  0
    6.1324  -13.4126   25.2346 C   0  0  0  0  0  0  0  0  0  0  0  0
    5.8078  -12.8998   26.4699 C   0  0  0  0  0  0  0  0  0  0  0  0
    6.8077  -12.7869   27.4064 C   0  0  0  0  0  0  0  0  0  0  0  0
    8.1053  -13.1798   27.1102 C   0  0  0  0  0  0  0  0  0  0  0  0
    9.5125  -16.2416   26.8510 C   0  0  0  0  0  0  0  0  0  0  0  0
    9.9763  -15.8594   27.9475 O   0  0  0  0  0  0  0  0  0  0  0  0
    8.5527  -17.2334   26.8510 O   0  0  0  0  0  0  0  0  0  0  0  0
  2  3  1  0
  2  5  1  0
  2  1  1  6
  4  3  1  0
  5  6  2  0
  7  8  1  0
  8  9  1  0
  9 10  1  0
 11 10  1  6
 11 13  1  0
 12 11  1  0
 12  5  1  0
 13 14  2  0
 15 16  1  0
 15 13  1  0
 16 24  1  0
 16 17  1  1
 18 19  2  0
 18 17  1  0
 20 19  1  0
 21 20  2  0
 22 21  1  0
 22 23  2  0
 23 18  1  0
 24 25  2  0
 24 26  1  0
M  END
$$$$
