CMF.pdb
     RDKit          3D

 26 26  0  0  1  0  0  0  0  0999 V2000
    7.5229  -15.1868   18.1811 N   0  0  0  0  0  0  0  0  0  0  0  0
    8.0289  -14.7556   19.4426 C   0  0  1  0  0  0  0  0  0  0  0  0
    7.6331  -13.2853   19.6216 C   0  0  0  0  0  0  0  0  0  0  0  0
    8.7005  -12.1787   18.7031 S   0  0  0  0  0  0  0  0  0  0  0  0
    7.4933  -15.4915   20.5946 C   0  0  0  0  0  0  0  0  0  0  0  0
    6.2496  -15.6153   20.7229 O   0  0  0  0  0  0  0  0  0  0  0  0
    9.3751  -21.4505   22.8630 C   0  0  0  0  0  0  0  0  0  0  0  0
    7.6515  -20.9559   22.9163 S   0  0  0  0  0  0  0  0  0  0  0  0
    7.4466  -19.2226   23.4366 C   0  0  0  0  0  0  0  0  0  0  0  0
    7.9410  -18.2772   22.3681 C   0  0  0  0  0  0  0  0  0  0  0  0
    7.7911  -16.8423   22.7148 C   0  0  2  0  0  0  0  0  0  0  0  0
    8.3233  -16.0753   21.5795 N   0  0  0  0  0  0  0  0  0  0  0  0
    8.3965  -16.4089   23.9770 C   0  0  0  0  0  0  0  0  0  0  0  0
    9.5970  -16.0518   24.0705 O   0  0  0  0  0  0  0  0  0  0  0  0
    7.6605  -16.3589   25.2114 N   0  0  0  0  0  0  0  0  0  0  0  0
    8.3303  -16.0525   26.4563 C   0  0  1  0  0  0  0  0  0  0  0  0
    7.3941  -15.3171   27.3749 C   0  0  0  0  0  0  0  0  0  0  0  0
    7.1232  -13.9339   26.9618 C   0  0  0  0  0  0  0  0  0  0  0  0
    8.0327  -12.9154   27.2155 C   0  0  0  0  0  0  0  0  0  0  0  0
    7.7897  -11.6118   26.8240 C   0  0  0  0  0  0  0  0  0  0  0  0
    6.6298  -11.2746   26.1644 C   0  0  0  0  0  0  0  0  0  0  0  0
    5.7194  -12.2716   25.9059 C   0  0  0  0  0  0  0  0  0  0  0  0
    5.9672  -13.5789   26.3004 C   0  0  0  0  0  0  0  0  0  0  0  0
    8.8280  -17.3327   27.0035 C   0  0  0  0  0  0  0  0  0  0  0  0
    8.3361  -18.3967   26.5682 O   0  0  0  0  0  0  0  0  0  0  0  0
    9.8092  -17.4075   27.9712 O   0  0  0  0  0  0  0  0  0  0  0  0
  2  3  1  0
  2  5  1  0
  2  1  1  6
  4  3  1  0
  5  6  2  0
  7  8  1  0
  8  9  1  0
  9 10  1  0
 11 10  1  6
 11 13  1  0
 12 11  1  0
 12  5  1  0
 13 14  2  0
 15 16  1  0
 15 13  1  0
 16 24  1  0
 16 17  1  1
 18 19  2  0
 18 17  1  0
 20 19  1  0
 21 20  2  0
 22 21  1  0
 22 23  2  0
 23 18  1  0
 24 25  2  0
 24 26  1  0
M  END
$$$$
