CMF.pdb
     RDKit          3D

 26 26  0  0  1  0  0  0  0  0999 V2000
    3.5576  -18.3278   22.6870 N   0  0  0  0  0  0  0  0  0  0  0  0
    4.6533  -18.3675   23.5987 C   0  0  1  0  0  0  0  0  0  0  0  0
    5.4847  -19.6127   23.2687 C   0  0  0  0  0  0  0  0  0  0  0  0
    6.6705  -19.3097   21.9611 S   0  0  0  0  0  0  0  0  0  0  0  0
    5.5539  -17.2110   23.5155 C   0  0  0  0  0  0  0  0  0  0  0  0
    5.6891  -16.6125   22.4190 O   0  0  0  0  0  0  0  0  0  0  0  0
    7.6537  -11.7925   26.9889 C   0  0  0  0  0  0  0  0  0  0  0  0
    6.5198  -13.0471   27.5877 S   0  0  0  0  0  0  0  0  0  0  0  0
    6.1202  -14.2824   26.3106 C   0  0  0  0  0  0  0  0  0  0  0  0
    7.3588  -15.0293   25.8771 C   0  0  0  0  0  0  0  0  0  0  0  0
    7.2574  -15.6345   24.5262 C   0  0  2  0  0  0  0  0  0  0  0  0
    6.2860  -16.7330   24.6269 N   0  0  0  0  0  0  0  0  0  0  0  0
    8.5109  -16.0901   23.9190 C   0  0  0  0  0  0  0  0  0  0  0  0
    8.8768  -17.2915   23.9295 O   0  0  0  0  0  0  0  0  0  0  0  0
    9.4231  -15.1936   23.2617 N   0  0  0  0  0  0  0  0  0  0  0  0
   10.5145  -15.7078   22.4636 C   0  0  1  0  0  0  0  0  0  0  0  0
   10.7641  -14.8004   21.2908 C   0  0  0  0  0  0  0  0  0  0  0  0
    9.5374  -14.3171   20.6436 C   0  0  0  0  0  0  0  0  0  0  0  0
    9.0393  -13.0467   20.9022 C   0  0  0  0  0  0  0  0  0  0  0  0
    7.8895  -12.5804   20.2922 C   0  0  0  0  0  0  0  0  0  0  0  0
    7.1926  -13.3639   19.4008 C   0  0  0  0  0  0  0  0  0  0  0  0
    7.6729  -14.6240   19.1342 C   0  0  0  0  0  0  0  0  0  0  0  0
    8.8275  -15.0882   19.7485 C   0  0  0  0  0  0  0  0  0  0  0  0
   11.6753  -15.8566   23.3671 C   0  0  0  0  0  0  0  0  0  0  0  0
   11.5596  -15.4737   24.5518 O   0  0  0  0  0  0  0  0  0  0  0  0
   12.8791  -16.3978   22.9638 O   0  0  0  0  0  0  0  0  0  0  0  0
  2  3  1  0
  2  5  1  0
  2  1  1  6
  4  3  1  0
  5  6  2  0
  7  8  1  0
  8  9  1  0
  9 10  1  0
 11 10  1  1
 11 13  1  0
 12 11  1  0
 12  5  1  0
 13 14  2  0
 15 16  1  0
 15 13  1  0
 16 24  1  0
 16 17  1  6
 18 19  2  0
 18 17  1  0
 20 19  1  0
 21 20  2  0
 22 21  1  0
 22 23  2  0
 23 18  1  0
 24 25  2  0
 24 26  1  0
M  END
$$$$
