CMF.pdb
     RDKit          3D

 26 26  0  0  1  0  0  0  0  0999 V2000
    7.2764  -18.5511   20.0239 N   0  0  0  0  0  0  0  0  0  0  0  0
    6.9933  -18.2054   21.3780 C   0  0  1  0  0  0  0  0  0  0  0  0
    7.3845  -19.4024   22.2524 C   0  0  0  0  0  0  0  0  0  0  0  0
    6.8881  -19.1865   23.9596 S   0  0  0  0  0  0  0  0  0  0  0  0
    7.7394  -17.0432   21.8760 C   0  0  0  0  0  0  0  0  0  0  0  0
    8.9075  -16.8368   21.4618 O   0  0  0  0  0  0  0  0  0  0  0  0
    5.2762  -12.6044   26.5494 C   0  0  0  0  0  0  0  0  0  0  0  0
    7.0524  -12.5163   26.3131 S   0  0  0  0  0  0  0  0  0  0  0  0
    7.5361  -12.8407   24.5875 C   0  0  0  0  0  0  0  0  0  0  0  0
    6.9828  -14.1628   24.1123 C   0  0  0  0  0  0  0  0  0  0  0  0
    7.9355  -14.9593   23.2999 C   0  0  2  0  0  0  0  0  0  0  0  0
    7.1970  -16.1330   22.8126 N   0  0  0  0  0  0  0  0  0  0  0  0
    9.1835  -15.3547   23.9585 C   0  0  0  0  0  0  0  0  0  0  0  0
   10.2175  -14.6418   23.9448 O   0  0  0  0  0  0  0  0  0  0  0  0
    9.3220  -16.5943   24.6740 N   0  0  0  0  0  0  0  0  0  0  0  0
   10.5383  -16.8956   25.3966 C   0  0  1  0  0  0  0  0  0  0  0  0
   10.2432  -17.0262   26.8653 C   0  0  0  0  0  0  0  0  0  0  0  0
   10.2492  -15.7472   27.5872 C   0  0  0  0  0  0  0  0  0  0  0  0
   11.4183  -15.2347   28.1345 C   0  0  0  0  0  0  0  0  0  0  0  0
   11.4351  -14.0280   28.8093 C   0  0  0  0  0  0  0  0  0  0  0  0
   10.2859  -13.2866   28.9640 C   0  0  0  0  0  0  0  0  0  0  0  0
    9.1205  -13.7805   28.4279 C   0  0  0  0  0  0  0  0  0  0  0  0
    9.1079  -14.9920   27.7511 C   0  0  0  0  0  0  0  0  0  0  0  0
   11.1100  -18.1152   24.7870 C   0  0  0  0  0  0  0  0  0  0  0  0
   10.4653  -18.6847   23.8794 O   0  0  0  0  0  0  0  0  0  0  0  0
   12.3209  -18.6534   25.1727 O   0  0  0  0  0  0  0  0  0  0  0  0
  2  3  1  0
  2  5  1  0
  2  1  1  6
  4  3  1  0
  5  6  2  0
  7  8  1  0
  8  9  1  0
  9 10  1  0
 11 10  1  1
 11 13  1  0
 12 11  1  0
 12  5  1  0
 13 14  2  0
 15 16  1  0
 15 13  1  0
 16 24  1  0
 16 17  1  1
 18 19  2  0
 18 17  1  0
 20 19  1  0
 21 20  2  0
 22 21  1  0
 22 23  2  0
 23 18  1  0
 24 25  2  0
 24 26  1  0
M  END
$$$$
