CMF.pdb
     RDKit          3D

 26 26  0  0  1  0  0  0  0  0999 V2000
    8.6668  -15.8989   18.0921 N   0  0  0  0  0  0  0  0  0  0  0  0
    8.6888  -14.8351   19.0412 C   0  0  1  0  0  0  0  0  0  0  0  0
    7.6269  -13.8141   18.6163 C   0  0  0  0  0  0  0  0  0  0  0  0
    7.7989  -12.2559   19.4824 S   0  0  0  0  0  0  0  0  0  0  0  0
    8.3724  -15.2421   20.4159 C   0  0  0  0  0  0  0  0  0  0  0  0
    8.4475  -14.3963   21.3420 O   0  0  0  0  0  0  0  0  0  0  0  0
    6.5503  -17.6985   26.0629 C   0  0  0  0  0  0  0  0  0  0  0  0
    5.8896  -18.0126   24.4249 S   0  0  0  0  0  0  0  0  0  0  0  0
    7.0126  -19.0255   23.4102 C   0  0  0  0  0  0  0  0  0  0  0  0
    7.2390  -18.3902   22.0593 C   0  0  0  0  0  0  0  0  0  0  0  0
    7.6465  -16.9648   22.1229 C   0  0  2  0  0  0  0  0  0  0  0  0
    7.9818  -16.5594   20.7505 N   0  0  0  0  0  0  0  0  0  0  0  0
    8.7313  -16.6367   23.0520 C   0  0  0  0  0  0  0  0  0  0  0  0
    9.9290  -16.9497   22.8400 O   0  0  0  0  0  0  0  0  0  0  0  0
    8.5079  -15.9285   24.2835 N   0  0  0  0  0  0  0  0  0  0  0  0
    9.6220  -15.5214   25.1114 C   0  0  1  0  0  0  0  0  0  0  0  0
    9.7199  -14.0211   25.1378 C   0  0  0  0  0  0  0  0  0  0  0  0
    8.5097  -13.3568   25.6391 C   0  0  0  0  0  0  0  0  0  0  0  0
    8.4170  -12.9283   26.9570 C   0  0  0  0  0  0  0  0  0  0  0  0
    7.2848  -12.2955   27.4359 C   0  0  0  0  0  0  0  0  0  0  0  0
    6.2018  -12.0660   26.6182 C   0  0  0  0  0  0  0  0  0  0  0  0
    6.2783  -12.4842   25.3109 C   0  0  0  0  0  0  0  0  0  0  0  0
    7.4165  -13.1189   24.8341 C   0  0  0  0  0  0  0  0  0  0  0  0
    9.4165  -16.1345   26.4410 C   0  0  0  0  0  0  0  0  0  0  0  0
    8.3392  -16.7299   26.6612 O   0  0  0  0  0  0  0  0  0  0  0  0
   10.3577  -16.0802   27.4490 O   0  0  0  0  0  0  0  0  0  0  0  0
  2  3  1  0
  2  5  1  0
  2  1  1  6
  4  3  1  0
  5  6  2  0
  7  8  1  0
  8  9  1  0
  9 10  1  0
 11 10  1  6
 11 13  1  0
 12 11  1  0
 12  5  1  0
 13 14  2  0
 15 16  1  0
 15 13  1  0
 16 24  1  0
 16 17  1  1
 18 19  2  0
 18 17  1  0
 20 19  1  0
 21 20  2  0
 22 21  1  0
 22 23  2  0
 23 18  1  0
 24 25  2  0
 24 26  1  0
M  END
$$$$
