CMF.pdb
     RDKit          3D

 26 26  0  0  1  0  0  0  0  0999 V2000
    8.7245  -15.5745   18.2863 N   0  0  0  0  0  0  0  0  0  0  0  0
    8.0325  -16.0524   19.4378 C   0  0  1  0  0  0  0  0  0  0  0  0
    8.0335  -17.5843   19.3754 C   0  0  0  0  0  0  0  0  0  0  0  0
    6.9021  -18.3123   20.5577 S   0  0  0  0  0  0  0  0  0  0  0  0
    8.6459  -15.6708   20.7159 C   0  0  0  0  0  0  0  0  0  0  0  0
    9.8815  -15.8303   20.8787 O   0  0  0  0  0  0  0  0  0  0  0  0
    5.4287  -12.5047   26.0411 C   0  0  0  0  0  0  0  0  0  0  0  0
    7.0932  -11.9353   25.6894 S   0  0  0  0  0  0  0  0  0  0  0  0
    8.1556  -13.2656   25.0425 C   0  0  0  0  0  0  0  0  0  0  0  0
    7.6713  -13.7326   23.6908 C   0  0  0  0  0  0  0  0  0  0  0  0
    8.4985  -14.8090   23.0917 C   0  0  2  0  0  0  0  0  0  0  0  0
    7.9007  -15.1248   21.7866 N   0  0  0  0  0  0  0  0  0  0  0  0
    8.6792  -16.0191   23.8982 C   0  0  0  0  0  0  0  0  0  0  0  0
    7.7252  -16.6157   24.4562 O   0  0  0  0  0  0  0  0  0  0  0  0
    9.9677  -16.6199   24.1144 N   0  0  0  0  0  0  0  0  0  0  0  0
   10.6296  -16.5022   25.3952 C   0  0  1  0  0  0  0  0  0  0  0  0
   10.5309  -15.0875   25.8952 C   0  0  0  0  0  0  0  0  0  0  0  0
   10.6372  -14.9659   27.3551 C   0  0  0  0  0  0  0  0  0  0  0  0
   10.3667  -13.7657   27.9993 C   0  0  0  0  0  0  0  0  0  0  0  0
   10.4570  -13.6437   29.3736 C   0  0  0  0  0  0  0  0  0  0  0  0
   10.8207  -14.7147   30.1576 C   0  0  0  0  0  0  0  0  0  0  0  0
   11.0918  -15.9098   29.5348 C   0  0  0  0  0  0  0  0  0  0  0  0
   10.9999  -16.0281   28.1551 C   0  0  0  0  0  0  0  0  0  0  0  0
   10.0119  -17.5020   26.2922 C   0  0  0  0  0  0  0  0  0  0  0  0
   10.7554  -18.1543   27.0573 O   0  0  0  0  0  0  0  0  0  0  0  0
    8.6543  -17.7483   26.3242 O   0  0  0  0  0  0  0  0  0  0  0  0
  2  3  1  0
  2  5  1  0
  2  1  1  6
  4  3  1  0
  5  6  2  0
  7  8  1  0
  8  9  1  0
  9 10  1  0
 11 10  1  1
 11 13  1  0
 12 11  1  0
 12  5  1  0
 13 14  2  0
 15 16  1  0
 15 13  1  0
 16 24  1  0
 16 17  1  1
 18 19  2  0
 18 17  1  0
 20 19  1  0
 21 20  2  0
 22 21  1  0
 22 23  2  0
 23 18  1  0
 24 25  2  0
 24 26  1  0
M  END
$$$$
