CMF.pdb
     RDKit          3D

 26 26  0  0  1  0  0  0  0  0999 V2000
    7.2624  -18.5749   20.0709 N   0  0  0  0  0  0  0  0  0  0  0  0
    7.1040  -18.2471   21.4495 C   0  0  1  0  0  0  0  0  0  0  0  0
    7.6082  -19.4403   22.2696 C   0  0  0  0  0  0  0  0  0  0  0  0
    7.2603  -19.2582   24.0170 S   0  0  0  0  0  0  0  0  0  0  0  0
    7.8658  -17.0699   21.8845 C   0  0  0  0  0  0  0  0  0  0  0  0
    9.0225  -16.8821   21.4312 O   0  0  0  0  0  0  0  0  0  0  0  0
    5.5337  -12.7862   26.4796 C   0  0  0  0  0  0  0  0  0  0  0  0
    6.5774  -11.8013   25.4030 S   0  0  0  0  0  0  0  0  0  0  0  0
    7.8064  -12.8131   24.5186 C   0  0  0  0  0  0  0  0  0  0  0  0
    7.1820  -14.0849   23.9963 C   0  0  0  0  0  0  0  0  0  0  0  0
    8.1287  -14.9701   23.2738 C   0  0  2  0  0  0  0  0  0  0  0  0
    7.3514  -16.1249   22.8022 N   0  0  0  0  0  0  0  0  0  0  0  0
    9.3173  -15.3991   24.0159 C   0  0  0  0  0  0  0  0  0  0  0  0
   10.2941  -14.6411   24.2367 O   0  0  0  0  0  0  0  0  0  0  0  0
    9.4584  -16.7265   24.5509 N   0  0  0  0  0  0  0  0  0  0  0  0
   10.4527  -17.0110   25.5622 C   0  0  1  0  0  0  0  0  0  0  0  0
    9.8029  -17.0746   26.9167 C   0  0  0  0  0  0  0  0  0  0  0  0
   10.0373  -15.8833   27.7433 C   0  0  0  0  0  0  0  0  0  0  0  0
   10.9001  -15.9200   28.8310 C   0  0  0  0  0  0  0  0  0  0  0  0
   11.1327  -14.8018   29.6103 C   0  0  0  0  0  0  0  0  0  0  0  0
   10.5132  -13.6043   29.3341 C   0  0  0  0  0  0  0  0  0  0  0  0
    9.6563  -13.5518   28.2605 C   0  0  0  0  0  0  0  0  0  0  0  0
    9.4256  -14.6764   27.4808 C   0  0  0  0  0  0  0  0  0  0  0  0
   11.1294  -18.2626   25.1601 C   0  0  0  0  0  0  0  0  0  0  0  0
   10.6541  -18.9152   24.2052 O   0  0  0  0  0  0  0  0  0  0  0  0
   12.2599  -18.7432   25.7892 O   0  0  0  0  0  0  0  0  0  0  0  0
  2  3  1  0
  2  5  1  0
  2  1  1  6
  4  3  1  0
  5  6  2  0
  7  8  1  0
  8  9  1  0
  9 10  1  0
 11 10  1  1
 11 13  1  0
 12 11  1  0
 12  5  1  0
 13 14  2  0
 15 16  1  0
 15 13  1  0
 16 24  1  0
 16 17  1  1
 18 19  2  0
 18 17  1  0
 20 19  1  0
 21 20  2  0
 22 21  1  0
 22 23  2  0
 23 18  1  0
 24 25  2  0
 24 26  1  0
M  END
$$$$
