CMF.pdb
     RDKit          3D

 26 26  0  0  1  0  0  0  0  0999 V2000
    6.1112  -19.8665   21.8760 N   0  0  0  0  0  0  0  0  0  0  0  0
    5.8994  -18.4853   22.1600 C   0  0  1  0  0  0  0  0  0  0  0  0
    5.1405  -18.3975   23.4892 C   0  0  0  0  0  0  0  0  0  0  0  0
    6.1562  -18.8788   24.8835 S   0  0  0  0  0  0  0  0  0  0  0  0
    7.1314  -17.7014   22.3122 C   0  0  0  0  0  0  0  0  0  0  0  0
    8.2257  -18.2977   22.4724 O   0  0  0  0  0  0  0  0  0  0  0  0
    8.4019  -11.8487   19.6564 C   0  0  0  0  0  0  0  0  0  0  0  0
    7.0667  -13.0100   19.3611 S   0  0  0  0  0  0  0  0  0  0  0  0
    7.2340  -14.5230   20.3609 C   0  0  0  0  0  0  0  0  0  0  0  0
    8.1869  -14.3056   21.5119 C   0  0  0  0  0  0  0  0  0  0  0  0
    8.3833  -15.5018   22.3676 C   0  0  2  0  0  0  0  0  0  0  0  0
    7.1437  -16.2875   22.2867 N   0  0  0  0  0  0  0  0  0  0  0  0
    8.7623  -15.2526   23.7611 C   0  0  0  0  0  0  0  0  0  0  0  0
    8.5819  -14.1474   24.3298 O   0  0  0  0  0  0  0  0  0  0  0  0
    9.3727  -16.2577   24.5888 N   0  0  0  0  0  0  0  0  0  0  0  0
    9.5349  -16.0426   26.0100 C   0  0  1  0  0  0  0  0  0  0  0  0
    8.1878  -15.9260   26.6680 C   0  0  0  0  0  0  0  0  0  0  0  0
    7.6250  -14.5699   26.6300 C   0  0  0  0  0  0  0  0  0  0  0  0
    8.3648  -13.4712   27.0478 C   0  0  0  0  0  0  0  0  0  0  0  0
    7.8460  -12.1902   27.0088 C   0  0  0  0  0  0  0  0  0  0  0  0
    6.5691  -11.9564   26.5516 C   0  0  0  0  0  0  0  0  0  0  0  0
    5.8241  -13.0337   26.1345 C   0  0  0  0  0  0  0  0  0  0  0  0
    6.3485  -14.3179   26.1751 C   0  0  0  0  0  0  0  0  0  0  0  0
   10.3604  -17.1571   26.5223 C   0  0  0  0  0  0  0  0  0  0  0  0
   10.6174  -18.1091   25.7534 O   0  0  0  0  0  0  0  0  0  0  0  0
   10.8598  -17.1951   27.8083 O   0  0  0  0  0  0  0  0  0  0  0  0
  2  3  1  0
  2  5  1  0
  2  1  1  1
  4  3  1  0
  5  6  2  0
  7  8  1  0
  8  9  1  0
  9 10  1  0
 11 10  1  6
 11 13  1  0
 12 11  1  0
 12  5  1  0
 13 14  2  0
 15 16  1  0
 15 13  1  0
 16 24  1  0
 16 17  1  1
 18 19  2  0
 18 17  1  0
 20 19  1  0
 21 20  2  0
 22 21  1  0
 22 23  2  0
 23 18  1  0
 24 25  2  0
 24 26  1  0
M  END
$$$$
