CMF.pdb
     RDKit          3D

 26 26  0  0  1  0  0  0  0  0999 V2000
    9.2028  -15.6390   18.7004 N   0  0  0  0  0  0  0  0  0  0  0  0
    8.3732  -16.0839   19.7714 C   0  0  1  0  0  0  0  0  0  0  0  0
    8.4434  -17.6151   19.8055 C   0  0  0  0  0  0  0  0  0  0  0  0
   10.0821  -18.2102   20.2157 S   0  0  0  0  0  0  0  0  0  0  0  0
    8.7828  -15.6021   21.0964 C   0  0  0  0  0  0  0  0  0  0  0  0
   10.0059  -15.4815   21.3576 O   0  0  0  0  0  0  0  0  0  0  0  0
    5.7989  -11.3964   26.0088 C   0  0  0  0  0  0  0  0  0  0  0  0
    5.8001  -13.1692   26.2841 S   0  0  0  0  0  0  0  0  0  0  0  0
    7.2782  -13.9746   25.5889 C   0  0  0  0  0  0  0  0  0  0  0  0
    7.0548  -14.3570   24.1454 C   0  0  0  0  0  0  0  0  0  0  0  0
    8.2569  -14.9103   23.4741 C   0  0  2  0  0  0  0  0  0  0  0  0
    7.8523  -15.2629   22.1058 N   0  0  0  0  0  0  0  0  0  0  0  0
    8.9150  -16.0382   24.1391 C   0  0  0  0  0  0  0  0  0  0  0  0
    8.6178  -17.2359   23.9049 O   0  0  0  0  0  0  0  0  0  0  0  0
    9.9558  -15.8610   25.1153 N   0  0  0  0  0  0  0  0  0  0  0  0
   10.6435  -17.0041   25.6745 C   0  0  1  0  0  0  0  0  0  0  0  0
   11.8431  -16.5479   26.4582 C   0  0  0  0  0  0  0  0  0  0  0  0
   11.5192  -15.6265   27.5552 C   0  0  0  0  0  0  0  0  0  0  0  0
   11.3605  -16.0842   28.8569 C   0  0  0  0  0  0  0  0  0  0  0  0
   11.0628  -15.2234   29.8971 C   0  0  0  0  0  0  0  0  0  0  0  0
   10.9121  -13.8730   29.6783 C   0  0  0  0  0  0  0  0  0  0  0  0
   11.0661  -13.4045   28.3953 C   0  0  0  0  0  0  0  0  0  0  0  0
   11.3650  -14.2718   27.3539 C   0  0  0  0  0  0  0  0  0  0  0  0
    9.6517  -17.7539   26.4745 C   0  0  0  0  0  0  0  0  0  0  0  0
    9.9813  -18.8673   26.9386 O   0  0  0  0  0  0  0  0  0  0  0  0
    8.3805  -17.2824   26.7323 O   0  0  0  0  0  0  0  0  0  0  0  0
  2  3  1  0
  2  5  1  0
  2  1  1  6
  4  3  1  0
  5  6  2  0
  7  8  1  0
  8  9  1  0
  9 10  1  0
 11 10  1  1
 11 13  1  0
 12 11  1  0
 12  5  1  0
 13 14  2  0
 15 16  1  0
 15 13  1  0
 16 24  1  0
 16 17  1  1
 18 19  2  0
 18 17  1  0
 20 19  1  0
 21 20  2  0
 22 21  1  0
 22 23  2  0
 23 18  1  0
 24 25  2  0
 24 26  1  0
M  END
$$$$
