CMF.pdb
     RDKit          3D

 26 26  0  0  1  0  0  0  0  0999 V2000
   10.7204  -16.3460   18.4972 N   0  0  0  0  0  0  0  0  0  0  0  0
    9.6859  -16.8119   19.3609 C   0  0  1  0  0  0  0  0  0  0  0  0
    9.8861  -18.3200   19.5508 C   0  0  0  0  0  0  0  0  0  0  0  0
   11.3050  -18.6920   20.5783 S   0  0  0  0  0  0  0  0  0  0  0  0
    9.6908  -16.2029   20.6967 C   0  0  0  0  0  0  0  0  0  0  0  0
   10.7565  -15.7127   21.1469 O   0  0  0  0  0  0  0  0  0  0  0  0
    7.4233  -12.2427   26.2940 C   0  0  0  0  0  0  0  0  0  0  0  0
    7.7071  -13.0056   24.6953 S   0  0  0  0  0  0  0  0  0  0  0  0
    6.9421  -14.6537   24.5715 C   0  0  0  0  0  0  0  0  0  0  0  0
    7.1318  -15.2335   23.1903 C   0  0  0  0  0  0  0  0  0  0  0  0
    8.5428  -15.5484   22.8560 C   0  0  2  0  0  0  0  0  0  0  0  0
    8.5364  -16.1414   21.5111 N   0  0  0  0  0  0  0  0  0  0  0  0
    9.2648  -16.3986   23.8063 C   0  0  0  0  0  0  0  0  0  0  0  0
    9.1719  -17.6512   23.8081 O   0  0  0  0  0  0  0  0  0  0  0  0
   10.1391  -15.8631   24.8147 N   0  0  0  0  0  0  0  0  0  0  0  0
   10.9889  -16.7377   25.5927 C   0  0  1  0  0  0  0  0  0  0  0  0
   11.8154  -15.9282   26.5533 C   0  0  0  0  0  0  0  0  0  0  0  0
   11.0332  -15.3042   27.6285 C   0  0  0  0  0  0  0  0  0  0  0  0
   10.9884  -15.8582   28.9012 C   0  0  0  0  0  0  0  0  0  0  0  0
   10.2608  -15.2739   29.9214 C   0  0  0  0  0  0  0  0  0  0  0  0
    9.5500  -14.1145   29.7107 C   0  0  0  0  0  0  0  0  0  0  0  0
    9.5843  -13.5537   28.4561 C   0  0  0  0  0  0  0  0  0  0  0  0
   10.3159  -14.1432   27.4348 C   0  0  0  0  0  0  0  0  0  0  0  0
   10.1054  -17.7276   26.2450 C   0  0  0  0  0  0  0  0  0  0  0  0
   10.6311  -18.6455   26.9119 O   0  0  0  0  0  0  0  0  0  0  0  0
    8.7291  -17.6854   26.1520 O   0  0  0  0  0  0  0  0  0  0  0  0
  2  3  1  0
  2  5  1  0
  2  1  1  6
  4  3  1  0
  5  6  2  0
  7  8  1  0
  8  9  1  0
  9 10  1  0
 11 10  1  1
 11 13  1  0
 12 11  1  0
 12  5  1  0
 13 14  2  0
 15 16  1  0
 15 13  1  0
 16 24  1  0
 16 17  1  1
 18 19  2  0
 18 17  1  0
 20 19  1  0
 21 20  2  0
 22 21  1  0
 22 23  2  0
 23 18  1  0
 24 25  2  0
 24 26  1  0
M  END
$$$$
