CMF.pdb
     RDKit          3D

 26 26  0  0  1  0  0  0  0  0999 V2000
    8.1917  -15.7827   18.3550 N   0  0  0  0  0  0  0  0  0  0  0  0
    8.6231  -16.6636   19.3899 C   0  0  1  0  0  0  0  0  0  0  0  0
    9.5688  -17.6916   18.7579 C   0  0  0  0  0  0  0  0  0  0  0  0
    8.6911  -18.9131   17.7856 S   0  0  0  0  0  0  0  0  0  0  0  0
    9.3607  -16.0076   20.4766 C   0  0  0  0  0  0  0  0  0  0  0  0
   10.5931  -15.7997   20.3476 O   0  0  0  0  0  0  0  0  0  0  0  0
    7.1464  -12.4925   26.1028 C   0  0  0  0  0  0  0  0  0  0  0  0
    6.3225  -13.2646   24.7086 S   0  0  0  0  0  0  0  0  0  0  0  0
    7.4851  -13.7068   23.3783 C   0  0  0  0  0  0  0  0  0  0  0  0
    8.5038  -14.7098   23.8643 C   0  0  0  0  0  0  0  0  0  0  0  0
    9.4996  -15.1050   22.8377 C   0  0  2  0  0  0  0  0  0  0  0  0
    8.7401  -15.5932   21.6779 N   0  0  0  0  0  0  0  0  0  0  0  0
   10.5149  -16.0767   23.2530 C   0  0  0  0  0  0  0  0  0  0  0  0
   11.6543  -16.1390   22.7283 O   0  0  0  0  0  0  0  0  0  0  0  0
   10.2848  -17.0381   24.2973 N   0  0  0  0  0  0  0  0  0  0  0  0
   10.5795  -16.7131   25.6757 C   0  0  1  0  0  0  0  0  0  0  0  0
    9.7644  -15.5258   26.1081 C   0  0  0  0  0  0  0  0  0  0  0  0
    9.9972  -15.1225   27.5011 C   0  0  0  0  0  0  0  0  0  0  0  0
   10.2406  -13.7968   27.8359 C   0  0  0  0  0  0  0  0  0  0  0  0
   10.4536  -13.4066   29.1451 C   0  0  0  0  0  0  0  0  0  0  0  0
   10.4317  -14.3244   30.1704 C   0  0  0  0  0  0  0  0  0  0  0  0
   10.1919  -15.6408   29.8552 C   0  0  0  0  0  0  0  0  0  0  0  0
    9.9786  -16.0282   28.5399 C   0  0  0  0  0  0  0  0  0  0  0  0
   10.3298  -17.9356   26.4688 C   0  0  0  0  0  0  0  0  0  0  0  0
   11.1521  -18.2456   27.3583 O   0  0  0  0  0  0  0  0  0  0  0  0
    9.2323  -18.7492   26.2731 O   0  0  0  0  0  0  0  0  0  0  0  0
  2  3  1  0
  2  5  1  0
  2  1  1  6
  4  3  1  0
  5  6  2  0
  7  8  1  0
  8  9  1  0
  9 10  1  0
 11 10  1  1
 11 13  1  0
 12 11  1  0
 12  5  1  0
 13 14  2  0
 15 16  1  0
 15 13  1  0
 16 24  1  0
 16 17  1  1
 18 19  2  0
 18 17  1  0
 20 19  1  0
 21 20  2  0
 22 21  1  0
 22 23  2  0
 23 18  1  0
 24 25  2  0
 24 26  1  0
M  END
$$$$
