CMF.pdb
     RDKit          3D

 26 26  0  0  1  0  0  0  0  0999 V2000
    3.5587  -18.5660   22.5498 N   0  0  0  0  0  0  0  0  0  0  0  0
    4.6433  -18.5833   23.4753 C   0  0  1  0  0  0  0  0  0  0  0  0
    5.5230  -19.7917   23.1345 C   0  0  0  0  0  0  0  0  0  0  0  0
    4.8915  -21.3115   23.8410 S   0  0  0  0  0  0  0  0  0  0  0  0
    5.5027  -17.3941   23.4249 C   0  0  0  0  0  0  0  0  0  0  0  0
    5.7802  -16.8807   22.3122 O   0  0  0  0  0  0  0  0  0  0  0  0
    5.8638  -11.9761   27.5626 C   0  0  0  0  0  0  0  0  0  0  0  0
    7.4220  -12.8648   27.5395 S   0  0  0  0  0  0  0  0  0  0  0  0
    7.7084  -13.7148   25.9545 C   0  0  0  0  0  0  0  0  0  0  0  0
    6.8290  -14.9360   25.8314 C   0  0  0  0  0  0  0  0  0  0  0  0
    6.9585  -15.6453   24.5345 C   0  0  2  0  0  0  0  0  0  0  0  0
    6.0399  -16.7916   24.5860 N   0  0  0  0  0  0  0  0  0  0  0  0
    8.3093  -16.0659   24.1524 C   0  0  0  0  0  0  0  0  0  0  0  0
    8.7919  -17.1811   24.4700 O   0  0  0  0  0  0  0  0  0  0  0  0
    9.1908  -15.2313   23.3815 N   0  0  0  0  0  0  0  0  0  0  0  0
   10.3658  -15.7885   22.7479 C   0  0  1  0  0  0  0  0  0  0  0  0
   10.6871  -15.0191   21.4965 C   0  0  0  0  0  0  0  0  0  0  0  0
    9.5052  -14.4753   20.8150 C   0  0  0  0  0  0  0  0  0  0  0  0
    9.1037  -13.1600   21.0090 C   0  0  0  0  0  0  0  0  0  0  0  0
    7.9969  -12.6372   20.3662 C   0  0  0  0  0  0  0  0  0  0  0  0
    7.2483  -13.4068   19.5052 C   0  0  0  0  0  0  0  0  0  0  0  0
    7.6329  -14.7109   19.3025 C   0  0  0  0  0  0  0  0  0  0  0  0
    8.7446  -15.2318   19.9496 C   0  0  0  0  0  0  0  0  0  0  0  0
   11.4462  -15.7746   23.7571 C   0  0  0  0  0  0  0  0  0  0  0  0
   12.5803  -16.1788   23.4196 O   0  0  0  0  0  0  0  0  0  0  0  0
   11.2611  -15.3365   25.0527 O   0  0  0  0  0  0  0  0  0  0  0  0
  2  3  1  0
  2  5  1  0
  2  1  1  6
  4  3  1  0
  5  6  2  0
  7  8  1  0
  8  9  1  0
  9 10  1  0
 11 10  1  1
 11 13  1  0
 12 11  1  0
 12  5  1  0
 13 14  2  0
 15 16  1  0
 15 13  1  0
 16 24  1  0
 16 17  1  6
 18 19  2  0
 18 17  1  0
 20 19  1  0
 21 20  2  0
 22 21  1  0
 22 23  2  0
 23 18  1  0
 24 25  2  0
 24 26  1  0
M  END
$$$$
