CMF.pdb
     RDKit          3D

 26 26  0  0  1  0  0  0  0  0999 V2000
    6.9557  -18.6477   21.9688 N   0  0  0  0  0  0  0  0  0  0  0  0
    7.8360  -18.0768   21.0032 C   0  0  1  0  0  0  0  0  0  0  0  0
    6.9894  -17.6601   19.7948 C   0  0  0  0  0  0  0  0  0  0  0  0
    5.7674  -16.4208   20.2174 S   0  0  0  0  0  0  0  0  0  0  0  0
    8.5493  -16.8798   21.4656 C   0  0  0  0  0  0  0  0  0  0  0  0
    9.4366  -16.3706   20.7361 O   0  0  0  0  0  0  0  0  0  0  0  0
    6.6210  -13.1460   26.4573 C   0  0  0  0  0  0  0  0  0  0  0  0
    6.1225  -12.7539   24.7792 S   0  0  0  0  0  0  0  0  0  0  0  0
    7.1148  -13.6445   23.5385 C   0  0  0  0  0  0  0  0  0  0  0  0
    8.2309  -14.4197   24.1967 C   0  0  0  0  0  0  0  0  0  0  0  0
    9.0930  -15.1630   23.2448 C   0  0  2  0  0  0  0  0  0  0  0  0
    8.2804  -16.2650   22.7104 N   0  0  0  0  0  0  0  0  0  0  0  0
   10.3715  -15.6528   23.7674 C   0  0  0  0  0  0  0  0  0  0  0  0
   11.3979  -14.9330   23.8439 O   0  0  0  0  0  0  0  0  0  0  0  0
   10.5511  -17.0008   24.2349 N   0  0  0  0  0  0  0  0  0  0  0  0
   10.9860  -17.2586   25.5902 C   0  0  1  0  0  0  0  0  0  0  0  0
    9.8358  -17.0761   26.5413 C   0  0  0  0  0  0  0  0  0  0  0  0
    9.9898  -15.9283   27.4447 C   0  0  0  0  0  0  0  0  0  0  0  0
    9.4029  -14.7026   27.1583 C   0  0  0  0  0  0  0  0  0  0  0  0
    9.5363  -13.6187   28.0062 C   0  0  0  0  0  0  0  0  0  0  0  0
   10.2605  -13.7164   29.1725 C   0  0  0  0  0  0  0  0  0  0  0  0
   10.8476  -14.9232   29.4702 C   0  0  0  0  0  0  0  0  0  0  0  0
   10.7112  -16.0087   28.6165 C   0  0  0  0  0  0  0  0  0  0  0  0
   11.5686  -18.6174   25.6040 C   0  0  0  0  0  0  0  0  0  0  0  0
   12.0874  -19.0312   26.6639 O   0  0  0  0  0  0  0  0  0  0  0  0
   11.5663  -19.4491   24.5027 O   0  0  0  0  0  0  0  0  0  0  0  0
  2  3  1  0
  2  5  1  0
  2  1  1  1
  4  3  1  0
  5  6  2  0
  7  8  1  0
  8  9  1  0
  9 10  1  0
 11 10  1  1
 11 13  1  0
 12 11  1  0
 12  5  1  0
 13 14  2  0
 15 16  1  0
 15 13  1  0
 16 24  1  0
 16 17  1  1
 18 19  2  0
 18 17  1  0
 20 19  1  0
 21 20  2  0
 22 21  1  0
 22 23  2  0
 23 18  1  0
 24 25  2  0
 24 26  1  0
M  END
$$$$
