CMF.pdb
     RDKit          3D

 26 26  0  0  1  0  0  0  0  0999 V2000
    9.0242  -16.7594   18.3591 N   0  0  0  0  0  0  0  0  0  0  0  0
    8.7225  -17.3568   19.6182 C   0  0  1  0  0  0  0  0  0  0  0  0
    9.4233  -18.7197   19.6633 C   0  0  0  0  0  0  0  0  0  0  0  0
    9.0478  -19.6265   21.1614 S   0  0  0  0  0  0  0  0  0  0  0  0
    9.1898  -16.5911   20.7804 C   0  0  0  0  0  0  0  0  0  0  0  0
   10.3912  -16.2277   20.8368 O   0  0  0  0  0  0  0  0  0  0  0  0
    6.7010  -12.0331   26.7810 C   0  0  0  0  0  0  0  0  0  0  0  0
    6.3887  -13.0815   25.3590 S   0  0  0  0  0  0  0  0  0  0  0  0
    7.8861  -13.9580   24.8055 C   0  0  0  0  0  0  0  0  0  0  0  0
    7.6053  -14.7756   23.5676 C   0  0  0  0  0  0  0  0  0  0  0  0
    8.7998  -15.4565   23.0096 C   0  0  2  0  0  0  0  0  0  0  0  0
    8.3390  -16.2387   21.8537 N   0  0  0  0  0  0  0  0  0  0  0  0
    9.5709  -16.2876   23.9381 C   0  0  0  0  0  0  0  0  0  0  0  0
    9.1749  -17.4102   24.3386 O   0  0  0  0  0  0  0  0  0  0  0  0
   10.8455  -15.8808   24.4652 N   0  0  0  0  0  0  0  0  0  0  0  0
   11.5338  -16.6978   25.4405 C   0  0  1  0  0  0  0  0  0  0  0  0
   12.2490  -15.8209   26.4308 C   0  0  0  0  0  0  0  0  0  0  0  0
   11.3733  -15.2638   27.4700 C   0  0  0  0  0  0  0  0  0  0  0  0
   10.7336  -14.0436   27.2946 C   0  0  0  0  0  0  0  0  0  0  0  0
    9.9018  -13.5147   28.2641 C   0  0  0  0  0  0  0  0  0  0  0  0
    9.6763  -14.1832   29.4458 C   0  0  0  0  0  0  0  0  0  0  0  0
   10.3023  -15.3924   29.6345 C   0  0  0  0  0  0  0  0  0  0  0  0
   11.1364  -15.9198   28.6588 C   0  0  0  0  0  0  0  0  0  0  0  0
   10.5216  -17.5888   26.0466 C   0  0  0  0  0  0  0  0  0  0  0  0
   10.9161  -18.5804   26.6983 O   0  0  0  0  0  0  0  0  0  0  0  0
    9.1631  -17.3769   25.9266 O   0  0  0  0  0  0  0  0  0  0  0  0
  2  3  1  0
  2  5  1  0
  2  1  1  6
  4  3  1  0
  5  6  2  0
  7  8  1  0
  8  9  1  0
  9 10  1  0
 11 10  1  1
 11 13  1  0
 12 11  1  0
 12  5  1  0
 13 14  2  0
 15 16  1  0
 15 13  1  0
 16 24  1  0
 16 17  1  1
 18 19  2  0
 18 17  1  0
 20 19  1  0
 21 20  2  0
 22 21  1  0
 22 23  2  0
 23 18  1  0
 24 25  2  0
 24 26  1  0
M  END
$$$$
