CMF.pdb
     RDKit          3D

 26 26  0  0  1  0  0  0  0  0999 V2000
    6.7221  -20.4358   19.5559 N   0  0  0  0  0  0  0  0  0  0  0  0
    6.2343  -19.4358   20.4477 C   0  0  1  0  0  0  0  0  0  0  0  0
    5.7884  -20.1410   21.7340 C   0  0  0  0  0  0  0  0  0  0  0  0
    7.1681  -20.8360   22.6400 S   0  0  0  0  0  0  0  0  0  0  0  0
    7.2294  -18.4265   20.8301 C   0  0  0  0  0  0  0  0  0  0  0  0
    8.4465  -18.6452   20.6074 O   0  0  0  0  0  0  0  0  0  0  0  0
    6.9464  -11.1772   22.3597 C   0  0  0  0  0  0  0  0  0  0  0  0
    7.4440  -12.1543   20.9398 S   0  0  0  0  0  0  0  0  0  0  0  0
    8.2572  -13.7104   21.4237 C   0  0  0  0  0  0  0  0  0  0  0  0
    7.3086  -14.8778   21.2916 C   0  0  0  0  0  0  0  0  0  0  0  0
    7.8647  -16.1656   21.7755 C   0  0  2  0  0  0  0  0  0  0  0  0
    6.8771  -17.2030   21.4456 N   0  0  0  0  0  0  0  0  0  0  0  0
    8.2412  -16.2236   23.1905 C   0  0  0  0  0  0  0  0  0  0  0  0
    7.5495  -16.8141   24.0567 O   0  0  0  0  0  0  0  0  0  0  0  0
    9.4363  -15.6065   23.6993 N   0  0  0  0  0  0  0  0  0  0  0  0
    9.7065  -15.5851   25.1202 C   0  0  1  0  0  0  0  0  0  0  0  0
    8.4196  -15.4423   25.8848 C   0  0  0  0  0  0  0  0  0  0  0  0
    7.8330  -14.0977   25.8123 C   0  0  0  0  0  0  0  0  0  0  0  0
    6.4623  -13.9161   25.6827 C   0  0  0  0  0  0  0  0  0  0  0  0
    5.9004  -12.6543   25.6210 C   0  0  0  0  0  0  0  0  0  0  0  0
    6.6849  -11.5254   25.6862 C   0  0  0  0  0  0  0  0  0  0  0  0
    8.0437  -11.6885   25.8146 C   0  0  0  0  0  0  0  0  0  0  0  0
    8.6037  -12.9568   25.8763 C   0  0  0  0  0  0  0  0  0  0  0  0
   10.4589  -16.8186   25.4337 C   0  0  0  0  0  0  0  0  0  0  0  0
   10.7773  -17.0348   26.6234 O   0  0  0  0  0  0  0  0  0  0  0  0
   10.8257  -17.7413   24.4751 O   0  0  0  0  0  0  0  0  0  0  0  0
  2  3  1  0
  2  5  1  0
  2  1  1  6
  4  3  1  0
  5  6  2  0
  7  8  1  0
  8  9  1  0
  9 10  1  0
 11 10  1  1
 11 13  1  0
 12 11  1  0
 12  5  1  0
 13 14  2  0
 15 16  1  0
 15 13  1  0
 16 24  1  0
 16 17  1  1
 18 19  2  0
 18 17  1  0
 20 19  1  0
 21 20  2  0
 22 21  1  0
 22 23  2  0
 23 18  1  0
 24 25  2  0
 24 26  1  0
M  END
$$$$
