LRS.pdb
     RDKit          3D

 26 25  0  0  1  0  0  0  0  0999 V2000
    7.0739  -11.8445   27.7903 C   0  0  0  0  0  0  0  0  0  0  0  0
    6.2649  -12.9023   27.0412 C   0  0  1  0  0  0  0  0  0  0  0  0
    5.1919  -12.2557   26.2106 C   0  0  0  0  0  0  0  0  0  0  0  0
    7.2625  -13.6772   26.2041 C   0  0  0  0  0  0  0  0  0  0  0  0
    6.5429  -14.7099   25.4006 C   0  0  2  0  0  0  0  0  0  0  0  0
    5.9711  -15.6895   26.2761 N   0  0  0  0  0  0  0  0  0  0  0  0
    7.4000  -15.3075   24.3401 C   0  0  0  0  0  0  0  0  0  0  0  0
    7.7248  -16.5289   24.3899 O   0  0  0  0  0  0  0  0  0  0  0  0
    8.4827  -15.6379   16.5376 N   0  0  0  0  0  0  0  0  0  0  0  0
    7.9947  -14.4666   17.1744 C   0  0  0  0  0  0  0  0  0  0  0  0
    8.5230  -13.3217   16.8811 N   0  0  0  0  0  0  0  0  0  0  0  0
    6.9484  -14.4768   18.1277 N   0  0  0  0  0  0  0  0  0  0  0  0
    7.0954  -14.8481   19.5130 C   0  0  0  0  0  0  0  0  0  0  0  0
    7.6090  -13.7414   20.3860 C   0  0  0  0  0  0  0  0  0  0  0  0
    8.8613  -14.2026   21.0661 C   0  0  0  0  0  0  0  0  0  0  0  0
    8.6630  -15.2369   22.1444 C   0  0  2  0  0  0  0  0  0  0  0  0
    7.8917  -14.5619   23.2385 N   0  0  0  0  0  0  0  0  0  0  0  0
    9.9402  -15.7028   22.7270 C   0  0  0  0  0  0  0  0  0  0  0  0
   10.5346  -14.9619   23.5807 O   0  0  0  0  0  0  0  0  0  0  0  0
    8.1934  -12.4242   17.2892 O   0  0  0  0  0  0  0  0  0  0  0  0
   13.0224  -19.1020   24.0349 C   0  0  0  0  0  0  0  0  0  0  0  0
   11.7973  -18.7575   23.4789 C   0  0  1  0  0  0  0  0  0  0  0  0
   11.8141  -17.3043   23.0695 N   0  0  0  0  0  0  0  0  0  0  0  0
   10.5584  -16.9196   22.4116 C   0  0  0  0  0  0  0  0  0  0  0  0
   12.9734  -17.0141   22.1937 O   0  0  0  0  0  0  0  0  0  0  0  0
   12.7622  -16.6321   21.0303 O   0  0  0  0  0  0  0  0  0  0  0  0
  2  1  1  6
  3  2  1  0
  4  2  1  0
  4  5  1  0
  5  6  1  1
  7  8  2  0
  7  5  1  0
  9 10  1  0
 10 12  1  0
 11 10  2  0
 12 13  1  0
 13 14  1  0
 14 15  1  0
 16 15  1  6
 16 17  1  0
 17  7  1  0
 18 16  1  0
 19 18  2  0
 21 20  1  0
 22 21  1  1
 22 23  1  0
 23 18  1  0
 24 22  1  0
 25 24  2  0
 26 24  1  0
M  END
$$$$
