LRS.pdb
     RDKit          3D

 26 25  0  0  1  0  0  0  0  0999 V2000
    7.6710  -11.9009   27.7195 C   0  0  0  0  0  0  0  0  0  0  0  0
    6.7882  -13.0621   27.2644 C   0  0  1  0  0  0  0  0  0  0  0  0
    5.5986  -12.5524   26.5001 C   0  0  0  0  0  0  0  0  0  0  0  0
    7.6769  -13.9608   26.4283 C   0  0  0  0  0  0  0  0  0  0  0  0
    6.8860  -15.1303   25.9418 C   0  0  2  0  0  0  0  0  0  0  0  0
    6.5935  -16.0042   27.0388 N   0  0  0  0  0  0  0  0  0  0  0  0
    7.5411  -15.8278   24.8013 C   0  0  0  0  0  0  0  0  0  0  0  0
    8.1600  -16.9155   24.9844 O   0  0  0  0  0  0  0  0  0  0  0  0
    8.3514  -13.1714   16.4028 N   0  0  0  0  0  0  0  0  0  0  0  0
    8.4010  -13.1812   17.8217 C   0  0  0  0  0  0  0  0  0  0  0  0
    9.2436  -12.4089   18.4294 N   0  0  0  0  0  0  0  0  0  0  0  0
    7.5711  -14.0002   18.6243 N   0  0  0  0  0  0  0  0  0  0  0  0
    7.6050  -15.4414   18.6474 C   0  0  0  0  0  0  0  0  0  0  0  0
    8.3254  -16.0118   19.8332 C   0  0  0  0  0  0  0  0  0  0  0  0
    7.7428  -15.4250   21.0821 C   0  0  0  0  0  0  0  0  0  0  0  0
    8.2081  -16.0594   22.3677 C   0  0  2  0  0  0  0  0  0  0  0  0
    7.5117  -15.3269   23.4748 N   0  0  0  0  0  0  0  0  0  0  0  0
    9.6633  -15.9059   22.5832 C   0  0  0  0  0  0  0  0  0  0  0  0
   10.1222  -14.7550   22.8934 O   0  0  0  0  0  0  0  0  0  0  0  0
    9.3544  -12.3929   19.4629 O   0  0  0  0  0  0  0  0  0  0  0  0
   12.0993  -18.9022   23.6317 C   0  0  0  0  0  0  0  0  0  0  0  0
   12.5218  -17.5989   23.8586 C   0  0  1  0  0  0  0  0  0  0  0  0
   12.0156  -16.6999   22.7563 N   0  0  0  0  0  0  0  0  0  0  0  0
   10.5950  -16.9463   22.4753 C   0  0  0  0  0  0  0  0  0  0  0  0
   12.8271  -16.8604   21.5270 O   0  0  0  0  0  0  0  0  0  0  0  0
   12.2475  -17.1150   20.4577 O   0  0  0  0  0  0  0  0  0  0  0  0
  2  1  1  6
  3  2  1  0
  4  2  1  0
  4  5  1  0
  5  6  1  1
  7  8  2  0
  7  5  1  0
  9 10  1  0
 10 12  1  0
 11 10  2  0
 12 13  1  0
 13 14  1  0
 14 15  1  0
 16 15  1  6
 16 17  1  0
 17  7  1  0
 18 16  1  0
 19 18  2  0
 21 20  1  0
 22 21  1  1
 22 23  1  0
 23 18  1  0
 24 22  1  0
 25 24  2  0
 26 24  1  0
M  END
$$$$
