LRS.pdb
     RDKit          3D

 26 25  0  0  1  0  0  0  0  0999 V2000
    7.6613  -12.0259   27.7527 C   0  0  0  0  0  0  0  0  0  0  0  0
    6.7201  -13.0935   27.1968 C   0  0  1  0  0  0  0  0  0  0  0  0
    5.6168  -12.4595   26.3968 C   0  0  0  0  0  0  0  0  0  0  0  0
    7.5835  -14.0213   26.3659 C   0  0  0  0  0  0  0  0  0  0  0  0
    6.7198  -15.0374   25.6942 C   0  0  2  0  0  0  0  0  0  0  0  0
    6.4592  -16.1201   26.5959 N   0  0  0  0  0  0  0  0  0  0  0  0
    7.2779  -15.4885   24.3898 C   0  0  0  0  0  0  0  0  0  0  0  0
    7.7174  -16.6665   24.2528 O   0  0  0  0  0  0  0  0  0  0  0  0
    9.6489  -15.0905   17.0310 N   0  0  0  0  0  0  0  0  0  0  0  0
    8.4953  -14.3395   16.6828 C   0  0  0  0  0  0  0  0  0  0  0  0
    7.9521  -14.5185   15.5215 N   0  0  0  0  0  0  0  0  0  0  0  0
    7.8950  -13.3901   17.5441 N   0  0  0  0  0  0  0  0  0  0  0  0
    8.4104  -13.0005   18.8330 C   0  0  0  0  0  0  0  0  0  0  0  0
    8.6948  -14.1560   19.7466 C   0  0  0  0  0  0  0  0  0  0  0  0
    7.8989  -13.9863   21.0041 C   0  0  0  0  0  0  0  0  0  0  0  0
    8.0096  -15.1192   21.9921 C   0  0  2  0  0  0  0  0  0  0  0  0
    7.3487  -14.6455   23.2516 N   0  0  0  0  0  0  0  0  0  0  0  0
    9.4126  -15.4474   22.3258 C   0  0  0  0  0  0  0  0  0  0  0  0
   10.0899  -14.6194   23.0236 O   0  0  0  0  0  0  0  0  0  0  0  0
    7.0942  -14.0185   15.2140 O   0  0  0  0  0  0  0  0  0  0  0  0
   10.9389  -19.0881   22.6619 C   0  0  0  0  0  0  0  0  0  0  0  0
   11.6905  -18.0219   23.1383 C   0  0  1  0  0  0  0  0  0  0  0  0
   11.4882  -16.8184   22.2493 N   0  0  0  0  0  0  0  0  0  0  0  0
   10.0677  -16.6211   21.9315 C   0  0  0  0  0  0  0  0  0  0  0  0
   12.2901  -16.9354   21.0088 O   0  0  0  0  0  0  0  0  0  0  0  0
   11.7044  -16.8993   19.9134 O   0  0  0  0  0  0  0  0  0  0  0  0
  2  1  1  6
  3  2  1  0
  4  2  1  0
  4  5  1  0
  5  6  1  1
  7  8  2  0
  7  5  1  0
  9 10  1  0
 10 12  1  0
 11 10  2  0
 12 13  1  0
 13 14  1  0
 14 15  1  0
 16 15  1  6
 16 17  1  0
 17  7  1  0
 18 16  1  0
 19 18  2  0
 21 20  1  0
 22 21  1  1
 22 23  1  0
 23 18  1  0
 24 22  1  0
 25 24  2  0
 26 24  1  0
M  END
$$$$
