LRS.pdb
     RDKit          3D

 26 25  0  0  1  0  0  0  0  0999 V2000
    5.7486  -11.4506   26.1845 C   0  0  0  0  0  0  0  0  0  0  0  0
    6.8965  -12.4469   26.0282 C   0  0  1  0  0  0  0  0  0  0  0  0
    7.9873  -12.1549   27.0202 C   0  0  0  0  0  0  0  0  0  0  0  0
    6.2871  -13.8211   26.2195 C   0  0  0  0  0  0  0  0  0  0  0  0
    7.3267  -14.8653   25.9774 C   0  0  2  0  0  0  0  0  0  0  0  0
    8.5961  -14.4007   26.4525 N   0  0  0  0  0  0  0  0  0  0  0  0
    7.3656  -15.3139   24.5584 C   0  0  0  0  0  0  0  0  0  0  0  0
    6.4510  -16.0537   24.0939 O   0  0  0  0  0  0  0  0  0  0  0  0
    7.7513  -12.4579   16.4902 N   0  0  0  0  0  0  0  0  0  0  0  0
    8.0737  -13.8406   16.4933 C   0  0  0  0  0  0  0  0  0  0  0  0
    7.9159  -14.5281   15.4078 N   0  0  0  0  0  0  0  0  0  0  0  0
    8.5641  -14.5233   17.6321 N   0  0  0  0  0  0  0  0  0  0  0  0
    8.4910  -14.0324   18.9858 C   0  0  0  0  0  0  0  0  0  0  0  0
    9.2464  -14.8692   19.9757 C   0  0  0  0  0  0  0  0  0  0  0  0
    8.8703  -14.4390   21.3602 C   0  0  0  0  0  0  0  0  0  0  0  0
    8.4817  -15.5547   22.2962 C   0  0  2  0  0  0  0  0  0  0  0  0
    8.4047  -14.9482   23.6650 N   0  0  0  0  0  0  0  0  0  0  0  0
    9.4932  -16.6326   22.3468 C   0  0  0  0  0  0  0  0  0  0  0  0
   10.4968  -16.4997   23.1255 O   0  0  0  0  0  0  0  0  0  0  0  0
    8.1699  -15.5333   15.3317 O   0  0  0  0  0  0  0  0  0  0  0  0
    9.0989  -20.3533   20.6140 C   0  0  0  0  0  0  0  0  0  0  0  0
   10.0407  -20.1965   21.6225 C   0  0  1  0  0  0  0  0  0  0  0  0
   10.5436  -18.7729   21.6333 N   0  0  0  0  0  0  0  0  0  0  0  0
    9.4325  -17.8130   21.5950 C   0  0  0  0  0  0  0  0  0  0  0  0
   11.4802  -18.5335   20.5104 O   0  0  0  0  0  0  0  0  0  0  0  0
   11.1821  -17.6828   19.6550 O   0  0  0  0  0  0  0  0  0  0  0  0
  2  1  1  1
  3  2  1  0
  4  2  1  0
  4  5  1  0
  5  6  1  6
  7  8  2  0
  7  5  1  0
  9 10  1  0
 10 12  1  0
 11 10  2  0
 12 13  1  0
 13 14  1  0
 14 15  1  0
 16 15  1  6
 16 17  1  0
 17  7  1  0
 18 16  1  0
 19 18  2  0
 21 20  1  0
 22 21  1  1
 22 23  1  0
 23 18  1  0
 24 22  1  0
 25 24  2  0
 26 24  1  0
M  END
$$$$
