LRS.pdb
     RDKit          3D

 26 25  0  0  1  0  0  0  0  0999 V2000
    4.6835  -11.8326   26.6480 C   0  0  0  0  0  0  0  0  0  0  0  0
    6.1307  -12.0658   26.2168 C   0  0  1  0  0  0  0  0  0  0  0  0
    7.0777  -11.6893   27.3217 C   0  0  0  0  0  0  0  0  0  0  0  0
    6.2250  -13.5312   25.8423 C   0  0  0  0  0  0  0  0  0  0  0  0
    7.6586  -13.9083   25.6626 C   0  0  2  0  0  0  0  0  0  0  0  0
    8.3761  -12.8122   25.0824 N   0  0  0  0  0  0  0  0  0  0  0  0
    7.8241  -15.1784   24.9038 C   0  0  0  0  0  0  0  0  0  0  0  0
    7.2093  -16.2243   25.2612 O   0  0  0  0  0  0  0  0  0  0  0  0
    7.6593  -12.6116   19.0451 N   0  0  0  0  0  0  0  0  0  0  0  0
    8.8753  -13.3407   18.9708 C   0  0  0  0  0  0  0  0  0  0  0  0
    9.9787  -12.7060   18.7353 N   0  0  0  0  0  0  0  0  0  0  0  0
    8.9537  -14.7438   19.1404 N   0  0  0  0  0  0  0  0  0  0  0  0
    7.8536  -15.5932   19.5240 C   0  0  0  0  0  0  0  0  0  0  0  0
    7.6719  -15.7163   21.0081 C   0  0  0  0  0  0  0  0  0  0  0  0
    8.9125  -16.3110   21.6002 C   0  0  0  0  0  0  0  0  0  0  0  0
    8.8409  -16.6089   23.0760 C   0  0  2  0  0  0  0  0  0  0  0  0
    8.6602  -15.2890   23.7635 N   0  0  0  0  0  0  0  0  0  0  0  0
   10.0882  -17.2106   23.5957 C   0  0  0  0  0  0  0  0  0  0  0  0
   11.1159  -16.4669   23.7438 O   0  0  0  0  0  0  0  0  0  0  0  0
   10.9035  -13.1777   18.6816 O   0  0  0  0  0  0  0  0  0  0  0  0
   10.2282  -20.9442   25.0157 C   0  0  0  0  0  0  0  0  0  0  0  0
   11.3941  -20.2482   25.3069 C   0  0  1  0  0  0  0  0  0  0  0  0
   11.5408  -19.0811   24.3603 N   0  0  0  0  0  0  0  0  0  0  0  0
   10.2311  -18.5586   23.9487 C   0  0  0  0  0  0  0  0  0  0  0  0
   12.3490  -19.4573   23.1768 O   0  0  0  0  0  0  0  0  0  0  0  0
   13.5018  -19.8866   23.3528 O   0  0  0  0  0  0  0  0  0  0  0  0
  2  1  1  1
  3  2  1  0
  4  2  1  0
  4  5  1  0
  5  6  1  6
  7  8  2  0
  7  5  1  0
  9 10  1  0
 10 12  1  0
 11 10  2  0
 12 13  1  0
 13 14  1  0
 14 15  1  0
 16 15  1  6
 16 17  1  0
 17  7  1  0
 18 16  1  0
 19 18  2  0
 21 20  1  0
 22 21  1  1
 22 23  1  0
 23 18  1  0
 24 22  1  0
 25 24  2  0
 26 24  1  0
M  END
$$$$
