LRS.pdb
     RDKit          3D

 26 25  0  0  1  0  0  0  0  0999 V2000
    4.8073  -11.4230   26.9532 C   0  0  0  0  0  0  0  0  0  0  0  0
    6.2056  -11.7398   26.4250 C   0  0  1  0  0  0  0  0  0  0  0  0
    7.2493  -11.3761   27.4437 C   0  0  0  0  0  0  0  0  0  0  0  0
    6.2034  -13.2189   26.0952 C   0  0  0  0  0  0  0  0  0  0  0  0
    7.6046  -13.6794   25.8616 C   0  0  2  0  0  0  0  0  0  0  0  0
    8.3400  -12.6574   25.1777 N   0  0  0  0  0  0  0  0  0  0  0  0
    7.6649  -14.9983   25.1737 C   0  0  0  0  0  0  0  0  0  0  0  0
    6.8794  -15.9321   25.5064 O   0  0  0  0  0  0  0  0  0  0  0  0
    8.9752  -13.8445   17.4697 N   0  0  0  0  0  0  0  0  0  0  0  0
    8.3728  -13.7134   18.7487 C   0  0  0  0  0  0  0  0  0  0  0  0
    8.1047  -12.5309   19.2021 N   0  0  0  0  0  0  0  0  0  0  0  0
    8.0439  -14.8172   19.5714 N   0  0  0  0  0  0  0  0  0  0  0  0
    8.8466  -16.0056   19.7207 C   0  0  0  0  0  0  0  0  0  0  0  0
    9.3835  -16.2041   21.1074 C   0  0  0  0  0  0  0  0  0  0  0  0
    8.2357  -16.4254   22.0440 C   0  0  0  0  0  0  0  0  0  0  0  0
    8.6157  -16.6336   23.4877 C   0  0  2  0  0  0  0  0  0  0  0  0
    8.5838  -15.2798   24.1308 N   0  0  0  0  0  0  0  0  0  0  0  0
    9.9873  -17.1646   23.6436 C   0  0  0  0  0  0  0  0  0  0  0  0
   10.9675  -16.3459   23.6540 O   0  0  0  0  0  0  0  0  0  0  0  0
    7.7268  -12.3617   20.1557 O   0  0  0  0  0  0  0  0  0  0  0  0
   11.0648  -20.0840   25.9717 C   0  0  0  0  0  0  0  0  0  0  0  0
   11.7697  -20.2256   24.7836 C   0  0  2  0  0  0  0  0  0  0  0  0
   11.6929  -18.9436   23.9897 N   0  0  0  0  0  0  0  0  0  0  0  0
   10.3003  -18.5224   23.7876 C   0  0  0  0  0  0  0  0  0  0  0  0
   12.3909  -19.0827   22.6902 O   0  0  0  0  0  0  0  0  0  0  0  0
   11.7344  -18.9549   21.6429 O   0  0  0  0  0  0  0  0  0  0  0  0
  2  1  1  1
  3  2  1  0
  4  2  1  0
  4  5  1  0
  5  6  1  6
  7  8  2  0
  7  5  1  0
  9 10  1  0
 10 12  1  0
 11 10  2  0
 12 13  1  0
 13 14  1  0
 14 15  1  0
 16 15  1  6
 16 17  1  0
 17  7  1  0
 18 16  1  0
 19 18  2  0
 21 20  1  0
 22 21  1  1
 22 23  1  0
 23 18  1  0
 24 22  1  0
 25 24  2  0
 26 24  1  0
M  END
$$$$
