LRS.pdb
     RDKit          3D

 26 25  0  0  1  0  0  0  0  0999 V2000
    7.3564  -12.1178   27.9960 C   0  0  0  0  0  0  0  0  0  0  0  0
    6.5989  -12.8575   26.8943 C   0  0  1  0  0  0  0  0  0  0  0  0
    6.4650  -11.9915   25.6731 C   0  0  0  0  0  0  0  0  0  0  0  0
    7.3832  -14.1261   26.6262 C   0  0  0  0  0  0  0  0  0  0  0  0
    6.8142  -14.8209   25.4331 C   0  0  2  0  0  0  0  0  0  0  0  0
    5.5898  -15.4721   25.7933 N   0  0  0  0  0  0  0  0  0  0  0  0
    7.7922  -15.7382   24.7863 C   0  0  0  0  0  0  0  0  0  0  0  0
    7.9373  -16.9219   25.2073 O   0  0  0  0  0  0  0  0  0  0  0  0
    8.1443  -12.2170   18.5012 N   0  0  0  0  0  0  0  0  0  0  0  0
    8.0467  -13.6214   18.3172 C   0  0  0  0  0  0  0  0  0  0  0  0
    6.8986  -14.1412   18.0215 N   0  0  0  0  0  0  0  0  0  0  0  0
    9.1483  -14.5015   18.4414 N   0  0  0  0  0  0  0  0  0  0  0  0
    9.9336  -14.6798   19.6374 C   0  0  0  0  0  0  0  0  0  0  0  0
    9.2453  -15.4847   20.7000 C   0  0  0  0  0  0  0  0  0  0  0  0
   10.1620  -15.6170   21.8772 C   0  0  0  0  0  0  0  0  0  0  0  0
    9.5713  -16.3137   23.0761 C   0  0  2  0  0  0  0  0  0  0  0  0
    8.5998  -15.3493   23.6872 N   0  0  0  0  0  0  0  0  0  0  0  0
   10.5849  -16.6316   24.1054 C   0  0  0  0  0  0  0  0  0  0  0  0
   11.1247  -15.6736   24.7550 O   0  0  0  0  0  0  0  0  0  0  0  0
    6.7453  -15.1659   17.9367 O   0  0  0  0  0  0  0  0  0  0  0  0
   10.9389  -20.0891   26.0860 C   0  0  0  0  0  0  0  0  0  0  0  0
   11.6387  -18.9870   26.5596 C   0  0  1  0  0  0  0  0  0  0  0  0
   12.0900  -18.1328   25.3994 N   0  0  0  0  0  0  0  0  0  0  0  0
   11.0038  -17.9277   24.4320 C   0  0  0  0  0  0  0  0  0  0  0  0
   13.2759  -18.7237   24.7363 O   0  0  0  0  0  0  0  0  0  0  0  0
   13.2202  -18.9673   23.5191 O   0  0  0  0  0  0  0  0  0  0  0  0
  2  1  1  1
  3  2  1  0
  4  2  1  0
  4  5  1  0
  5  6  1  1
  7  8  2  0
  7  5  1  0
  9 10  1  0
 10 12  1  0
 11 10  2  0
 12 13  1  0
 13 14  1  0
 14 15  1  0
 16 15  1  6
 16 17  1  0
 17  7  1  0
 18 16  1  0
 19 18  2  0
 21 20  1  0
 22 21  1  1
 22 23  1  0
 23 18  1  0
 24 22  1  0
 25 24  2  0
 26 24  1  0
M  END
$$$$
