LRS.pdb
     RDKit          3D

 26 25  0  0  1  0  0  0  0  0999 V2000
    6.9950  -12.6362   20.3836 C   0  0  0  0  0  0  0  0  0  0  0  0
    7.9318  -13.3753   19.4293 C   0  0  1  0  0  0  0  0  0  0  0  0
    8.8747  -12.4120   18.7641 C   0  0  0  0  0  0  0  0  0  0  0  0
    8.6527  -14.4108   20.2687 C   0  0  0  0  0  0  0  0  0  0  0  0
    9.5520  -15.2220   19.3951 C   0  0  2  0  0  0  0  0  0  0  0  0
    8.7924  -15.8011   18.3271 N   0  0  0  0  0  0  0  0  0  0  0  0
   10.3375  -16.2277   20.1618 C   0  0  0  0  0  0  0  0  0  0  0  0
    9.8367  -17.3545   20.4431 O   0  0  0  0  0  0  0  0  0  0  0  0
   14.7143  -13.7189   18.2902 N   0  0  0  0  0  0  0  0  0  0  0  0
   15.7125  -14.5739   17.7531 C   0  0  0  0  0  0  0  0  0  0  0  0
   16.2719  -14.2625   16.6279 N   0  0  0  0  0  0  0  0  0  0  0  0
   16.1382  -15.7669   18.3847 N   0  0  0  0  0  0  0  0  0  0  0  0
   15.6882  -16.2253   19.6755 C   0  0  0  0  0  0  0  0  0  0  0  0
   14.1971  -16.3450   19.7902 C   0  0  0  0  0  0  0  0  0  0  0  0
   13.8532  -16.8053   21.1734 C   0  0  0  0  0  0  0  0  0  0  0  0
   12.3833  -17.0127   21.4345 C   0  0  2  0  0  0  0  0  0  0  0  0
   11.6610  -15.9885   20.6118 N   0  0  0  0  0  0  0  0  0  0  0  0
   12.0188  -16.7802   22.8490 C   0  0  0  0  0  0  0  0  0  0  0  0
   12.2696  -15.6418   23.3708 O   0  0  0  0  0  0  0  0  0  0  0  0
   16.9981  -14.8516   16.1738 O   0  0  0  0  0  0  0  0  0  0  0  0
    9.2649  -18.8118   25.0470 C   0  0  0  0  0  0  0  0  0  0  0  0
    9.7532  -17.5911   25.4943 C   0  0  1  0  0  0  0  0  0  0  0  0
   11.2047  -17.4488   25.1037 N   0  0  0  0  0  0  0  0  0  0  0  0
   11.4041  -17.7294   23.6757 C   0  0  0  0  0  0  0  0  0  0  0  0
   12.0648  -18.3245   25.9336 O   0  0  0  0  0  0  0  0  0  0  0  0
   12.7674  -19.1800   25.3691 O   0  0  0  0  0  0  0  0  0  0  0  0
  2  1  1  1
  3  2  1  0
  4  2  1  0
  4  5  1  0
  5  6  1  6
  7  8  2  0
  7  5  1  0
  9 10  1  0
 10 12  1  0
 11 10  2  0
 12 13  1  0
 13 14  1  0
 14 15  1  0
 16 15  1  1
 16 17  1  0
 17  7  1  0
 18 16  1  0
 19 18  2  0
 21 20  1  0
 22 21  1  6
 22 23  1  0
 23 18  1  0
 24 22  1  0
 25 24  2  0
 26 24  1  0
M  END
$$$$
