LRS.pdb
     RDKit          3D

 26 25  0  0  1  0  0  0  0  0999 V2000
    7.2965  -11.4290   27.2807 C   0  0  0  0  0  0  0  0  0  0  0  0
    6.4961  -12.4250   26.4427 C   0  0  1  0  0  0  0  0  0  0  0  0
    5.9492  -11.7589   25.2113 C   0  0  0  0  0  0  0  0  0  0  0  0
    7.4477  -13.5589   26.1183 C   0  0  0  0  0  0  0  0  0  0  0  0
    6.7189  -14.6195   25.3608 C   0  0  2  0  0  0  0  0  0  0  0  0
    5.6431  -15.1286   26.1585 N   0  0  0  0  0  0  0  0  0  0  0  0
    7.6261  -15.6877   24.8582 C   0  0  0  0  0  0  0  0  0  0  0  0
    7.8547  -16.7167   25.5570 O   0  0  0  0  0  0  0  0  0  0  0  0
   13.3168  -18.2417   19.9031 N   0  0  0  0  0  0  0  0  0  0  0  0
   12.3923  -18.6490   18.9055 C   0  0  0  0  0  0  0  0  0  0  0  0
   12.7288  -19.5854   18.0774 N   0  0  0  0  0  0  0  0  0  0  0  0
   11.1038  -18.0815   18.7596 N   0  0  0  0  0  0  0  0  0  0  0  0
   10.5665  -17.0270   19.5829 C   0  0  0  0  0  0  0  0  0  0  0  0
   10.4101  -17.4049   21.0263 C   0  0  0  0  0  0  0  0  0  0  0  0
    9.4575  -16.4493   21.6766 C   0  0  0  0  0  0  0  0  0  0  0  0
    9.1346  -16.7458   23.1188 C   0  0  2  0  0  0  0  0  0  0  0  0
    8.2722  -15.6169   23.5977 N   0  0  0  0  0  0  0  0  0  0  0  0
   10.3392  -16.7761   23.9764 C   0  0  0  0  0  0  0  0  0  0  0  0
   10.9461  -15.6803   24.2254 O   0  0  0  0  0  0  0  0  0  0  0  0
   12.0934  -19.9412   17.3356 O   0  0  0  0  0  0  0  0  0  0  0  0
   11.2076  -19.6672   26.6383 C   0  0  0  0  0  0  0  0  0  0  0  0
   11.8521  -18.4423   26.7512 C   0  0  1  0  0  0  0  0  0  0  0  0
   12.0865  -17.8614   25.3775 N   0  0  0  0  0  0  0  0  0  0  0  0
   10.8743  -17.9361   24.5513 C   0  0  0  0  0  0  0  0  0  0  0  0
   13.2208  -18.5358   24.7036 O   0  0  0  0  0  0  0  0  0  0  0  0
   13.0274  -19.0679   23.5975 O   0  0  0  0  0  0  0  0  0  0  0  0
  2  1  1  1
  3  2  1  0
  4  2  1  0
  4  5  1  0
  5  6  1  1
  7  8  2  0
  7  5  1  0
  9 10  1  0
 10 12  1  0
 11 10  2  0
 12 13  1  0
 13 14  1  0
 14 15  1  0
 16 15  1  6
 16 17  1  0
 17  7  1  0
 18 16  1  0
 19 18  2  0
 21 20  1  0
 22 21  1  1
 22 23  1  0
 23 18  1  0
 24 22  1  0
 25 24  2  0
 26 24  1  0
M  END
$$$$
