LRS.pdb
     RDKit          3D

 26 25  0  0  1  0  0  0  0  0999 V2000
    7.8057  -12.2559   27.8475 C   0  0  0  0  0  0  0  0  0  0  0  0
    6.7897  -13.0973   27.0766 C   0  0  1  0  0  0  0  0  0  0  0  0
    5.7241  -12.2215   26.4793 C   0  0  0  0  0  0  0  0  0  0  0  0
    7.5809  -13.8511   26.0268 C   0  0  0  0  0  0  0  0  0  0  0  0
    6.6706  -14.7715   25.2824 C   0  0  2  0  0  0  0  0  0  0  0  0
    6.0531  -15.6837   26.1986 N   0  0  0  0  0  0  0  0  0  0  0  0
    7.3527  -15.4568   24.1504 C   0  0  0  0  0  0  0  0  0  0  0  0
    7.4077  -16.7195   24.1039 O   0  0  0  0  0  0  0  0  0  0  0  0
    7.0143  -14.3346   16.7199 N   0  0  0  0  0  0  0  0  0  0  0  0
    8.3426  -14.0219   17.1116 C   0  0  0  0  0  0  0  0  0  0  0  0
    9.3265  -14.3827   16.3517 N   0  0  0  0  0  0  0  0  0  0  0  0
    8.6601  -13.3289   18.3043 N   0  0  0  0  0  0  0  0  0  0  0  0
    7.6989  -12.8789   19.2802 C   0  0  0  0  0  0  0  0  0  0  0  0
    7.4072  -13.8863   20.3530 C   0  0  0  0  0  0  0  0  0  0  0  0
    8.6969  -14.4995   20.8050 C   0  0  0  0  0  0  0  0  0  0  0  0
    8.5754  -15.4938   21.9312 C   0  0  2  0  0  0  0  0  0  0  0  0
    7.9667  -14.7526   23.0833 N   0  0  0  0  0  0  0  0  0  0  0  0
    9.8878  -16.0074   22.3802 C   0  0  0  0  0  0  0  0  0  0  0  0
   10.6356  -16.6082   21.5369 O   0  0  0  0  0  0  0  0  0  0  0  0
   10.3163  -14.1341   16.5496 O   0  0  0  0  0  0  0  0  0  0  0  0
   11.0665  -16.3884   26.3378 C   0  0  0  0  0  0  0  0  0  0  0  0
   12.0892  -16.0975   25.4445 C   0  0  1  0  0  0  0  0  0  0  0  0
   11.6719  -16.4885   24.0472 N   0  0  0  0  0  0  0  0  0  0  0  0
   10.3856  -15.8797   23.6833 C   0  0  0  0  0  0  0  0  0  0  0  0
   11.6117  -17.9621   23.9051 O   0  0  0  0  0  0  0  0  0  0  0  0
   10.5435  -18.4841   23.5439 O   0  0  0  0  0  0  0  0  0  0  0  0
  2  1  1  6
  3  2  1  0
  4  2  1  0
  4  5  1  0
  5  6  1  1
  7  8  2  0
  7  5  1  0
  9 10  1  0
 10 12  1  0
 11 10  2  0
 12 13  1  0
 13 14  1  0
 14 15  1  0
 16 15  1  6
 16 17  1  0
 17  7  1  0
 18 16  1  0
 19 18  2  0
 21 20  1  0
 22 21  1  6
 22 23  1  0
 23 18  1  0
 24 22  1  0
 25 24  2  0
 26 24  1  0
M  END
$$$$
