LRS.pdb
     RDKit          3D

 26 25  0  0  1  0  0  0  0  0999 V2000
    7.8818  -12.4378   27.9332 C   0  0  0  0  0  0  0  0  0  0  0  0
    6.8896  -13.3853   27.2604 C   0  0  1  0  0  0  0  0  0  0  0  0
    5.9711  -12.6247   26.3454 C   0  0  0  0  0  0  0  0  0  0  0  0
    7.7254  -14.4131   26.5247 C   0  0  0  0  0  0  0  0  0  0  0  0
    6.8350  -15.2761   25.6926 C   0  0  2  0  0  0  0  0  0  0  0  0
    6.4658  -16.4447   26.4348 N   0  0  0  0  0  0  0  0  0  0  0  0
    7.4271  -15.5939   24.3641 C   0  0  0  0  0  0  0  0  0  0  0  0
    7.9645  -16.7193   24.1537 O   0  0  0  0  0  0  0  0  0  0  0  0
    7.4889  -15.5676   17.1299 N   0  0  0  0  0  0  0  0  0  0  0  0
    7.9703  -14.3405   16.6024 C   0  0  0  0  0  0  0  0  0  0  0  0
    8.3620  -14.2936   15.3695 N   0  0  0  0  0  0  0  0  0  0  0  0
    8.0499  -13.1461   17.3578 N   0  0  0  0  0  0  0  0  0  0  0  0
    7.6900  -13.0214   18.7484 C   0  0  0  0  0  0  0  0  0  0  0  0
    8.2122  -14.1318   19.6115 C   0  0  0  0  0  0  0  0  0  0  0  0
    7.6519  -13.9764   20.9919 C   0  0  0  0  0  0  0  0  0  0  0  0
    8.0770  -15.0321   21.9802 C   0  0  2  0  0  0  0  0  0  0  0  0
    7.4245  -14.6768   23.2823 N   0  0  0  0  0  0  0  0  0  0  0  0
    9.5385  -15.0430   22.2069 C   0  0  0  0  0  0  0  0  0  0  0  0
   10.0094  -14.4258   23.2212 O   0  0  0  0  0  0  0  0  0  0  0  0
    8.6184  -13.4078   14.8896 O   0  0  0  0  0  0  0  0  0  0  0  0
   12.4699  -17.9691   23.4473 C   0  0  0  0  0  0  0  0  0  0  0  0
   11.3128  -17.3583   22.9818 C   0  0  1  0  0  0  0  0  0  0  0  0
   11.6680  -16.3068   21.9583 N   0  0  0  0  0  0  0  0  0  0  0  0
   10.4642  -15.6939   21.3813 C   0  0  0  0  0  0  0  0  0  0  0  0
   12.5279  -16.8735   20.8930 O   0  0  0  0  0  0  0  0  0  0  0  0
   11.9879  -17.3571   19.8837 O   0  0  0  0  0  0  0  0  0  0  0  0
  2  1  1  6
  3  2  1  0
  4  2  1  0
  4  5  1  0
  5  6  1  1
  7  8  2  0
  7  5  1  0
  9 10  1  0
 10 12  1  0
 11 10  2  0
 12 13  1  0
 13 14  1  0
 14 15  1  0
 16 15  1  6
 16 17  1  0
 17  7  1  0
 18 16  1  0
 19 18  2  0
 21 20  1  0
 22 21  1  1
 22 23  1  0
 23 18  1  0
 24 22  1  0
 25 24  2  0
 26 24  1  0
M  END
$$$$
