LRS.pdb
     RDKit          3D

 26 25  0  0  1  0  0  0  0  0999 V2000
    8.0462  -12.2394   27.8929 C   0  0  0  0  0  0  0  0  0  0  0  0
    6.9638  -13.1088   27.2548 C   0  0  1  0  0  0  0  0  0  0  0  0
    6.0028  -12.2621   26.4681 C   0  0  0  0  0  0  0  0  0  0  0  0
    7.6928  -14.1184   26.3913 C   0  0  0  0  0  0  0  0  0  0  0  0
    6.6987  -14.9847   25.6905 C   0  0  2  0  0  0  0  0  0  0  0  0
    6.2944  -16.0521   26.5565 N   0  0  0  0  0  0  0  0  0  0  0  0
    7.1895  -15.4625   24.3686 C   0  0  0  0  0  0  0  0  0  0  0  0
    7.4887  -16.6793   24.1968 O   0  0  0  0  0  0  0  0  0  0  0  0
    9.6258  -15.2179   17.1771 N   0  0  0  0  0  0  0  0  0  0  0  0
    8.5859  -14.3776   16.6993 C   0  0  0  0  0  0  0  0  0  0  0  0
    8.1549  -14.5326   15.4885 N   0  0  0  0  0  0  0  0  0  0  0  0
    7.9836  -13.3627   17.4809 N   0  0  0  0  0  0  0  0  0  0  0  0
    8.3847  -13.0006   18.8175 C   0  0  0  0  0  0  0  0  0  0  0  0
    8.6272  -14.1765   19.7171 C   0  0  0  0  0  0  0  0  0  0  0  0
    7.8343  -13.9956   20.9749 C   0  0  0  0  0  0  0  0  0  0  0  0
    7.9645  -15.1094   21.9821 C   0  0  2  0  0  0  0  0  0  0  0  0
    7.3472  -14.6036   23.2512 N   0  0  0  0  0  0  0  0  0  0  0  0
    9.3740  -15.4449   22.2795 C   0  0  0  0  0  0  0  0  0  0  0  0
   10.0804  -14.6096   22.9386 O   0  0  0  0  0  0  0  0  0  0  0  0
    7.4439  -13.9097   15.0558 O   0  0  0  0  0  0  0  0  0  0  0  0
   11.0195  -18.5482   23.7902 C   0  0  0  0  0  0  0  0  0  0  0  0
   11.6922  -18.2743   22.6065 C   0  0  2  0  0  0  0  0  0  0  0  0
   11.4275  -16.8479   22.1883 N   0  0  0  0  0  0  0  0  0  0  0  0
   10.0053  -16.6332   21.8901 C   0  0  0  0  0  0  0  0  0  0  0  0
   12.2677  -16.4717   21.0273 O   0  0  0  0  0  0  0  0  0  0  0  0
   11.7090  -16.1101   19.9779 O   0  0  0  0  0  0  0  0  0  0  0  0
  2  1  1  6
  3  2  1  0
  4  2  1  0
  4  5  1  0
  5  6  1  1
  7  8  2  0
  7  5  1  0
  9 10  1  0
 10 12  1  0
 11 10  2  0
 12 13  1  0
 13 14  1  0
 14 15  1  0
 16 15  1  6
 16 17  1  0
 17  7  1  0
 18 16  1  0
 19 18  2  0
 21 20  1  0
 22 21  1  1
 22 23  1  0
 23 18  1  0
 24 22  1  0
 25 24  2  0
 26 24  1  0
M  END
$$$$
