LRS.pdb
     RDKit          3D

 26 25  0  0  1  0  0  0  0  0999 V2000
    5.9470  -11.2183   26.2564 C   0  0  0  0  0  0  0  0  0  0  0  0
    6.8663  -12.4165   26.4884 C   0  0  1  0  0  0  0  0  0  0  0  0
    7.2782  -12.4938   27.9319 C   0  0  0  0  0  0  0  0  0  0  0  0
    6.0867  -13.6356   26.0386 C   0  0  0  0  0  0  0  0  0  0  0  0
    6.9926  -14.8222   26.0055 C   0  0  2  0  0  0  0  0  0  0  0  0
    8.1487  -14.5684   26.8131 N   0  0  0  0  0  0  0  0  0  0  0  0
    7.3331  -15.2421   24.6184 C   0  0  0  0  0  0  0  0  0  0  0  0
    6.4405  -15.7033   23.8502 O   0  0  0  0  0  0  0  0  0  0  0  0
    7.0192  -13.1903   19.0125 N   0  0  0  0  0  0  0  0  0  0  0  0
    8.0590  -13.4884   18.0929 C   0  0  0  0  0  0  0  0  0  0  0  0
    7.7555  -13.7738   16.8673 N   0  0  0  0  0  0  0  0  0  0  0  0
    9.4305  -13.4935   18.4431 N   0  0  0  0  0  0  0  0  0  0  0  0
    9.9413  -13.3864   19.7871 C   0  0  0  0  0  0  0  0  0  0  0  0
    9.8855  -14.6704   20.5609 C   0  0  0  0  0  0  0  0  0  0  0  0
    9.1821  -14.4227   21.8599 C   0  0  0  0  0  0  0  0  0  0  0  0
    8.9448  -15.6476   22.7056 C   0  0  2  0  0  0  0  0  0  0  0  0
    8.6456  -15.1527   24.0887 N   0  0  0  0  0  0  0  0  0  0  0  0
   10.1387  -16.5161   22.7958 C   0  0  0  0  0  0  0  0  0  0  0  0
   11.2046  -16.0458   23.3191 O   0  0  0  0  0  0  0  0  0  0  0  0
    8.4688  -13.9852   16.1412 O   0  0  0  0  0  0  0  0  0  0  0  0
   10.2392  -20.5207   23.1627 C   0  0  0  0  0  0  0  0  0  0  0  0
   11.1956  -20.0854   22.2547 C   0  0  2  0  0  0  0  0  0  0  0  0
   11.4406  -18.6074   22.4420 N   0  0  0  0  0  0  0  0  0  0  0  0
   10.1906  -17.8418   22.3465 C   0  0  0  0  0  0  0  0  0  0  0  0
   12.4358  -18.1074   21.4648 O   0  0  0  0  0  0  0  0  0  0  0  0
   12.0791  -17.2587   20.6301 O   0  0  0  0  0  0  0  0  0  0  0  0
  2  1  1  1
  3  2  1  0
  4  2  1  0
  4  5  1  0
  5  6  1  1
  7  8  2  0
  7  5  1  0
  9 10  1  0
 10 12  1  0
 11 10  2  0
 12 13  1  0
 13 14  1  0
 14 15  1  0
 16 15  1  6
 16 17  1  0
 17  7  1  0
 18 16  1  0
 19 18  2  0
 21 20  1  0
 22 21  1  1
 22 23  1  0
 23 18  1  0
 24 22  1  0
 25 24  2  0
 26 24  1  0
M  END
$$$$
