LRS.pdb
     RDKit          3D

 26 25  0  0  1  0  0  0  0  0999 V2000
    7.1305  -12.2991   20.0599 C   0  0  0  0  0  0  0  0  0  0  0  0
    7.4732  -13.6597   19.4549 C   0  0  1  0  0  0  0  0  0  0  0  0
    8.2025  -13.4892   18.1517 C   0  0  0  0  0  0  0  0  0  0  0  0
    8.3021  -14.3841   20.4964 C   0  0  0  0  0  0  0  0  0  0  0  0
    8.6558  -15.7449   19.9934 C   0  0  2  0  0  0  0  0  0  0  0  0
    7.4825  -16.5667   19.9611 N   0  0  0  0  0  0  0  0  0  0  0  0
    9.7768  -16.3614   20.7547 C   0  0  0  0  0  0  0  0  0  0  0  0
    9.5441  -17.0928   21.7599 O   0  0  0  0  0  0  0  0  0  0  0  0
   17.9968  -15.4669   21.7772 N   0  0  0  0  0  0  0  0  0  0  0  0
   17.2549  -14.8648   20.7270 C   0  0  0  0  0  0  0  0  0  0  0  0
   17.4959  -13.6333   20.4091 N   0  0  0  0  0  0  0  0  0  0  0  0
   16.2496  -15.5421   19.9961 N   0  0  0  0  0  0  0  0  0  0  0  0
   15.9033  -16.9322   20.1588 C   0  0  0  0  0  0  0  0  0  0  0  0
   14.7383  -17.1633   21.0753 C   0  0  0  0  0  0  0  0  0  0  0  0
   13.5110  -16.5662   20.4584 C   0  0  0  0  0  0  0  0  0  0  0  0
   12.2277  -16.8187   21.2076 C   0  0  2  0  0  0  0  0  0  0  0  0
   11.1385  -16.1700   20.4074 N   0  0  0  0  0  0  0  0  0  0  0  0
   12.2209  -16.1960   22.5493 C   0  0  0  0  0  0  0  0  0  0  0  0
   11.8453  -14.9806   22.6626 O   0  0  0  0  0  0  0  0  0  0  0  0
   16.9699  -13.1253   19.6702 O   0  0  0  0  0  0  0  0  0  0  0  0
    9.8055  -16.6342   26.0979 C   0  0  0  0  0  0  0  0  0  0  0  0
   10.4136  -16.7882   24.8589 C   0  0  1  0  0  0  0  0  0  0  0  0
   11.9009  -16.5637   24.9898 N   0  0  0  0  0  0  0  0  0  0  0  0
   12.5980  -16.8504   23.7290 C   0  0  0  0  0  0  0  0  0  0  0  0
   12.4639  -17.3748   26.0946 O   0  0  0  0  0  0  0  0  0  0  0  0
   12.0271  -17.2019   27.2450 O   0  0  0  0  0  0  0  0  0  0  0  0
  2  1  1  1
  3  2  1  0
  4  2  1  0
  4  5  1  0
  5  6  1  1
  7  8  2  0
  7  5  1  0
  9 10  1  0
 10 12  1  0
 11 10  2  0
 12 13  1  0
 13 14  1  0
 14 15  1  0
 16 15  1  6
 16 17  1  0
 17  7  1  0
 18 16  1  0
 19 18  2  0
 21 20  1  0
 22 21  1  6
 22 23  1  0
 23 18  1  0
 24 22  1  0
 25 24  2  0
 26 24  1  0
M  END
$$$$
