LYD.pdb
     RDKit          3D

 29 29  0  0  1  0  0  0  0  0999 V2000
   28.3743  -18.5459  -15.2431 C   0  0  0  0  0  0  0  0  0  0  0  0
   27.9896  -19.6561  -16.2410 C   0  0  2  0  0  0  0  0  0  0  0  0
   28.1344  -19.0567  -17.6167 C   0  0  0  0  0  0  0  0  0  0  0  0
   26.5647  -20.0043  -15.9148 C   0  0  0  0  0  0  0  0  0  0  0  0
   26.3278  -20.5156  -14.5364 C   0  0  2  0  0  0  0  0  0  0  0  0
   27.0134  -21.8301  -14.4880 N   0  0  0  0  0  0  0  0  0  0  0  0
   24.9218  -20.7858  -14.1876 C   0  0  0  0  0  0  0  0  0  0  0  0
   24.4683  -21.9734  -14.3163 O   0  0  0  0  0  0  0  0  0  0  0  0
   22.3403  -22.2203   -7.3315 O   0  0  0  0  0  0  0  0  0  0  0  0
   22.3577  -21.5074   -8.5127 C   0  0  0  0  0  0  0  0  0  0  0  0
   23.4431  -20.7381   -8.8851 C   0  0  0  0  0  0  0  0  0  0  0  0
   23.4211  -20.0388  -10.0770 C   0  0  0  0  0  0  0  0  0  0  0  0
   22.3505  -20.0734  -10.9245 C   0  0  0  0  0  0  0  0  0  0  0  0
   22.2335  -19.3636  -12.1964 C   0  0  0  0  0  0  0  0  0  0  0  0
   22.5972  -20.1811  -13.4017 C   0  0  2  0  0  0  0  0  0  0  0  0
   23.9759  -19.8621  -13.7076 N   0  0  0  0  0  0  0  0  0  0  0  0
   21.7800  -19.8742  -14.5857 C   0  0  0  0  0  0  0  0  0  0  0  0
   21.9455  -18.7705  -15.1650 O   0  0  0  0  0  0  0  0  0  0  0  0
   21.2715  -20.8569  -10.5234 C   0  0  0  0  0  0  0  0  0  0  0  0
   21.2705  -21.5643   -9.3374 C   0  0  0  0  0  0  0  0  0  0  0  0
   20.8082  -20.7734  -15.1060 N   0  0  0  0  0  0  0  0  0  0  0  0
   20.1187  -20.3677  -16.3384 C   0  0  1  0  0  0  0  0  0  0  0  0
   20.0929  -21.4965  -17.3142 C   0  0  0  0  0  0  0  0  0  0  0  0
   20.9775  -21.2473  -18.4585 C   0  0  0  0  0  0  0  0  0  0  0  0
   21.1307  -22.0919  -19.3710 O   0  0  0  0  0  0  0  0  0  0  0  0
   18.7211  -20.0406  -15.9221 C   0  0  0  0  0  0  0  0  0  0  0  0
   18.0260  -18.9685  -16.4185 O   0  0  0  0  0  0  0  0  0  0  0  0
   21.6958  -20.0463  -18.5839 O   0  0  0  0  0  0  0  0  0  0  0  0
   18.1657  -20.8002  -15.0683 O   0  0  0  0  0  0  0  0  0  0  0  0
  2  1  1  1
  2  4  1  0
  3  2  1  0
  5  4  1  0
  5  6  1  6
  7  5  1  0
  7  8  2  0
  9 10  1  0
 10 20  2  0
 10 11  1  0
 11 12  2  0
 12 13  1  0
 13 14  1  0
 15 14  1  1
 15 16  1  0
 16  7  1  0
 17 21  1  0
 17 15  1  0
 18 17  2  0
 19 13  2  0
 20 19  1  0
 22 21  1  0
 22 26  1  0
 23 24  1  0
 22 23  1  6
 24 28  1  0
 25 24  2  0
 26 27  1  0
 29 26  2  0
M  END
$$$$
