LYD.pdb
     RDKit          3D

 29 29  0  0  1  0  0  0  0  0999 V2000
   28.6864  -23.1686  -19.3080 C   0  0  0  0  0  0  0  0  0  0  0  0
   29.4251  -22.9014  -17.9816 C   0  0  2  0  0  0  0  0  0  0  0  0
   30.5798  -23.8699  -17.9382 C   0  0  0  0  0  0  0  0  0  0  0  0
   28.4123  -23.1689  -16.9043 C   0  0  0  0  0  0  0  0  0  0  0  0
   27.2359  -22.2560  -16.8878 C   0  0  2  0  0  0  0  0  0  0  0  0
   27.7976  -20.8972  -17.0849 N   0  0  0  0  0  0  0  0  0  0  0  0
   26.4888  -22.1988  -15.6188 C   0  0  0  0  0  0  0  0  0  0  0  0
   25.9541  -23.2670  -15.1655 O   0  0  0  0  0  0  0  0  0  0  0  0
   25.6625  -20.6877   -7.1476 O   0  0  0  0  0  0  0  0  0  0  0  0
   25.8300  -20.5300   -8.5080 C   0  0  0  0  0  0  0  0  0  0  0  0
   27.0196  -20.8407   -9.1379 C   0  0  0  0  0  0  0  0  0  0  0  0
   27.1468  -20.6683  -10.5033 C   0  0  0  0  0  0  0  0  0  0  0  0
   26.1269  -20.1935  -11.2779 C   0  0  0  0  0  0  0  0  0  0  0  0
   26.1709  -19.9711  -12.7213 C   0  0  0  0  0  0  0  0  0  0  0  0
   25.5818  -21.0820  -13.5411 C   0  0  2  0  0  0  0  0  0  0  0  0
   26.2835  -21.0684  -14.8073 N   0  0  0  0  0  0  0  0  0  0  0  0
   24.1452  -20.9136  -13.8091 C   0  0  0  0  0  0  0  0  0  0  0  0
   23.7882  -20.1136  -14.7111 O   0  0  0  0  0  0  0  0  0  0  0  0
   24.9401  -19.8891  -10.6159 C   0  0  0  0  0  0  0  0  0  0  0  0
   24.7894  -20.0531   -9.2531 C   0  0  0  0  0  0  0  0  0  0  0  0
   23.1392  -21.6180  -13.0912 N   0  0  0  0  0  0  0  0  0  0  0  0
   21.7491  -21.4153  -13.5219 C   0  0  1  0  0  0  0  0  0  0  0  0
   20.9766  -22.6859  -13.3967 C   0  0  0  0  0  0  0  0  0  0  0  0
   19.5588  -22.4957  -13.7249 C   0  0  0  0  0  0  0  0  0  0  0  0
   19.1204  -21.4018  -14.1499 O   0  0  0  0  0  0  0  0  0  0  0  0
   21.1864  -20.3987  -12.5819 C   0  0  0  0  0  0  0  0  0  0  0  0
   20.2145  -19.5030  -12.9457 O   0  0  0  0  0  0  0  0  0  0  0  0
   18.6247  -23.5348  -13.5771 O   0  0  0  0  0  0  0  0  0  0  0  0
   21.6400  -20.3761  -11.3953 O   0  0  0  0  0  0  0  0  0  0  0  0
  2  1  1  6
  2  4  1  0
  3  2  1  0
  5  4  1  0
  5  6  1  1
  7  5  1  0
  7  8  2  0
  9 10  1  0
 10 20  2  0
 10 11  1  0
 11 12  2  0
 12 13  1  0
 13 14  1  0
 15 14  1  1
 15 16  1  0
 16  7  1  0
 17 21  1  0
 17 15  1  0
 18 17  2  0
 19 13  2  0
 20 19  1  0
 22 21  1  0
 22 26  1  0
 23 24  1  0
 22 23  1  1
 24 28  1  0
 25 24  2  0
 26 27  1  0
 29 26  2  0
M  END
$$$$
