LYD.pdb
     RDKit          3D

 29 29  0  0  1  0  0  0  0  0999 V2000
   27.3188  -13.4731  -14.7805 C   0  0  0  0  0  0  0  0  0  0  0  0
   27.3573  -13.2017  -16.2975 C   0  0  2  0  0  0  0  0  0  0  0  0
   28.7266  -12.6442  -16.5926 C   0  0  0  0  0  0  0  0  0  0  0  0
   26.2650  -12.2005  -16.5477 C   0  0  0  0  0  0  0  0  0  0  0  0
   24.8901  -12.6471  -16.1901 C   0  0  2  0  0  0  0  0  0  0  0  0
   24.6370  -13.8375  -17.0382 N   0  0  0  0  0  0  0  0  0  0  0  0
   23.8078  -11.6971  -16.5026 C   0  0  0  0  0  0  0  0  0  0  0  0
   23.5910  -11.3836  -17.7222 O   0  0  0  0  0  0  0  0  0  0  0  0
   16.2240   -7.0951  -15.5730 O   0  0  0  0  0  0  0  0  0  0  0  0
   17.3095   -7.9462  -15.5410 C   0  0  0  0  0  0  0  0  0  0  0  0
   17.8331   -8.5049  -16.6909 C   0  0  0  0  0  0  0  0  0  0  0  0
   18.9218   -9.3530  -16.6161 C   0  0  0  0  0  0  0  0  0  0  0  0
   19.5187   -9.6727  -15.4298 C   0  0  0  0  0  0  0  0  0  0  0  0
   20.6637  -10.5628  -15.2522 C   0  0  0  0  0  0  0  0  0  0  0  0
   21.9144  -10.1164  -15.9521 C   0  0  2  0  0  0  0  0  0  0  0  0
   22.9443  -11.0667  -15.5887 N   0  0  0  0  0  0  0  0  0  0  0  0
   22.3634   -8.7746  -15.5498 C   0  0  0  0  0  0  0  0  0  0  0  0
   23.0290   -8.6523  -14.4901 O   0  0  0  0  0  0  0  0  0  0  0  0
   18.9698   -9.0948  -14.2880 C   0  0  0  0  0  0  0  0  0  0  0  0
   17.8828   -8.2446  -14.3378 C   0  0  0  0  0  0  0  0  0  0  0  0
   22.0773   -7.6060  -16.3088 N   0  0  0  0  0  0  0  0  0  0  0  0
   22.6221   -6.3369  -15.8072 C   0  0  1  0  0  0  0  0  0  0  0  0
   22.9983   -5.4479  -16.9453 C   0  0  0  0  0  0  0  0  0  0  0  0
   23.5752   -4.1815  -16.4791 C   0  0  0  0  0  0  0  0  0  0  0  0
   23.7415   -3.9403  -15.2611 O   0  0  0  0  0  0  0  0  0  0  0  0
   21.5106   -5.7063  -15.0324 C   0  0  0  0  0  0  0  0  0  0  0  0
   21.6790   -5.1841  -13.7762 O   0  0  0  0  0  0  0  0  0  0  0  0
   23.9688   -3.1778  -17.3801 O   0  0  0  0  0  0  0  0  0  0  0  0
   20.3632   -5.6600  -15.5761 O   0  0  0  0  0  0  0  0  0  0  0  0
  2  1  1  1
  2  4  1  0
  3  2  1  0
  5  4  1  0
  5  6  1  6
  7  5  1  0
  7  8  2  0
  9 10  1  0
 10 20  2  0
 10 11  1  0
 11 12  2  0
 12 13  1  0
 13 14  1  0
 15 14  1  1
 15 16  1  0
 16  7  1  0
 17 21  1  0
 17 15  1  0
 18 17  2  0
 19 13  2  0
 20 19  1  0
 22 21  1  0
 22 26  1  0
 23 24  1  0
 22 23  1  6
 24 28  1  0
 25 24  2  0
 26 27  1  0
 29 26  2  0
M  END
$$$$
