LYD.pdb
     RDKit          3D

 29 29  0  0  1  0  0  0  0  0999 V2000
   27.9519  -17.5588  -19.0268 C   0  0  0  0  0  0  0  0  0  0  0  0
   27.7589  -16.8402  -17.6767 C   0  0  2  0  0  0  0  0  0  0  0  0
   29.0721  -16.1691  -17.3635 C   0  0  0  0  0  0  0  0  0  0  0  0
   27.4225  -17.9270  -16.6950 C   0  0  0  0  0  0  0  0  0  0  0  0
   26.1822  -18.6969  -16.9892 C   0  0  2  0  0  0  0  0  0  0  0  0
   25.1697  -17.6756  -17.3527 N   0  0  0  0  0  0  0  0  0  0  0  0
   25.6080  -19.4420  -15.8548 C   0  0  0  0  0  0  0  0  0  0  0  0
   26.2203  -20.4748  -15.4178 O   0  0  0  0  0  0  0  0  0  0  0  0
   22.6845  -21.2688   -7.8687 O   0  0  0  0  0  0  0  0  0  0  0  0
   23.0154  -20.7051   -9.0838 C   0  0  0  0  0  0  0  0  0  0  0  0
   22.0716  -20.0924   -9.8853 C   0  0  0  0  0  0  0  0  0  0  0  0
   22.4439  -19.5394  -11.0960 C   0  0  0  0  0  0  0  0  0  0  0  0
   23.7324  -19.5713  -11.5483 C   0  0  0  0  0  0  0  0  0  0  0  0
   24.2167  -19.0231  -12.8131 C   0  0  0  0  0  0  0  0  0  0  0  0
   23.9347  -19.8806  -14.0125 C   0  0  2  0  0  0  0  0  0  0  0  0
   24.4212  -19.1453  -15.1608 N   0  0  0  0  0  0  0  0  0  0  0  0
   22.5033  -20.1538  -14.2134 C   0  0  0  0  0  0  0  0  0  0  0  0
   21.7792  -19.2522  -14.7071 O   0  0  0  0  0  0  0  0  0  0  0  0
   24.6615  -20.1950  -10.7195 C   0  0  0  0  0  0  0  0  0  0  0  0
   24.3134  -20.7543   -9.5059 C   0  0  0  0  0  0  0  0  0  0  0  0
   21.9004  -21.3966  -13.8733 N   0  0  0  0  0  0  0  0  0  0  0  0
   20.4598  -21.5295  -14.1301 C   0  0  1  0  0  0  0  0  0  0  0  0
   20.1598  -22.8651  -14.7246 C   0  0  0  0  0  0  0  0  0  0  0  0
   18.7246  -23.0384  -14.9778 C   0  0  0  0  0  0  0  0  0  0  0  0
   17.8990  -22.1237  -14.7518 O   0  0  0  0  0  0  0  0  0  0  0  0
   19.8063  -21.4256  -12.7901 C   0  0  0  0  0  0  0  0  0  0  0  0
   18.6825  -20.6740  -12.5640 O   0  0  0  0  0  0  0  0  0  0  0  0
   18.2085  -24.2420  -15.4867 O   0  0  0  0  0  0  0  0  0  0  0  0
   20.3282  -22.0688  -11.8266 O   0  0  0  0  0  0  0  0  0  0  0  0
  2  1  1  6
  2  4  1  0
  3  2  1  0
  5  4  1  0
  5  6  1  1
  7  5  1  0
  7  8  2  0
  9 10  1  0
 10 20  2  0
 10 11  1  0
 11 12  2  0
 12 13  1  0
 13 14  1  0
 15 14  1  1
 15 16  1  0
 16  7  1  0
 17 21  1  0
 17 15  1  0
 18 17  2  0
 19 13  2  0
 20 19  1  0
 22 21  1  0
 22 26  1  0
 23 24  1  0
 22 23  1  1
 24 28  1  0
 25 24  2  0
 26 27  1  0
 29 26  2  0
M  END
$$$$
