LYD.pdb
     RDKit          3D

 29 29  0  0  1  0  0  0  0  0999 V2000
   24.3381  -18.8228  -22.6498 C   0  0  0  0  0  0  0  0  0  0  0  0
   24.7538  -19.8448  -21.5732 C   0  0  2  0  0  0  0  0  0  0  0  0
   25.2123  -21.0756  -22.3133 C   0  0  0  0  0  0  0  0  0  0  0  0
   23.5126  -20.0926  -20.7632 C   0  0  0  0  0  0  0  0  0  0  0  0
   23.0156  -18.9293  -19.9776 C   0  0  2  0  0  0  0  0  0  0  0  0
   24.2362  -18.2336  -19.5017 N   0  0  0  0  0  0  0  0  0  0  0  0
   22.2457  -19.2588  -18.7650 C   0  0  0  0  0  0  0  0  0  0  0  0
   21.2134  -20.0046  -18.8696 O   0  0  0  0  0  0  0  0  0  0  0  0
   19.7837  -18.9113  -10.1656 O   0  0  0  0  0  0  0  0  0  0  0  0
   20.4589  -18.9389  -11.3686 C   0  0  0  0  0  0  0  0  0  0  0  0
   20.8988  -20.1212  -11.9318 C   0  0  0  0  0  0  0  0  0  0  0  0
   21.5717  -20.1060  -13.1389 C   0  0  0  0  0  0  0  0  0  0  0  0
   21.8284  -18.9488  -13.8177 C   0  0  0  0  0  0  0  0  0  0  0  0
   22.5369  -18.8339  -15.0903 C   0  0  0  0  0  0  0  0  0  0  0  0
   21.7133  -19.1831  -16.2957 C   0  0  2  0  0  0  0  0  0  0  0  0
   22.5169  -18.8400  -17.4499 N   0  0  0  0  0  0  0  0  0  0  0  0
   20.4485  -18.4363  -16.3769 C   0  0  0  0  0  0  0  0  0  0  0  0
   20.4869  -17.2104  -16.6537 O   0  0  0  0  0  0  0  0  0  0  0  0
   21.3731  -17.7732  -13.2263 C   0  0  0  0  0  0  0  0  0  0  0  0
   20.6988  -17.7634  -12.0213 C   0  0  0  0  0  0  0  0  0  0  0  0
   19.1802  -19.0415  -16.1560 N   0  0  0  0  0  0  0  0  0  0  0  0
   18.0069  -18.1575  -16.1860 C   0  0  1  0  0  0  0  0  0  0  0  0
   17.2627  -18.3265  -17.4684 C   0  0  0  0  0  0  0  0  0  0  0  0
   16.0454  -17.5074  -17.5035 C   0  0  0  0  0  0  0  0  0  0  0  0
   15.7028  -16.7918  -16.5339 O   0  0  0  0  0  0  0  0  0  0  0  0
   17.1443  -18.6038  -15.0501 C   0  0  0  0  0  0  0  0  0  0  0  0
   17.4906  -19.6281  -14.2075 O   0  0  0  0  0  0  0  0  0  0  0  0
   15.2052  -17.4878  -18.6294 O   0  0  0  0  0  0  0  0  0  0  0  0
   16.0428  -17.9965  -14.8705 O   0  0  0  0  0  0  0  0  0  0  0  0
  2  1  1  6
  2  4  1  0
  3  2  1  0
  5  4  1  0
  5  6  1  1
  7  5  1  0
  7  8  2  0
  9 10  1  0
 10 20  2  0
 10 11  1  0
 11 12  2  0
 12 13  1  0
 13 14  1  0
 15 14  1  1
 15 16  1  0
 16  7  1  0
 17 21  1  0
 17 15  1  0
 18 17  2  0
 19 13  2  0
 20 19  1  0
 22 21  1  0
 22 26  1  0
 23 24  1  0
 22 23  1  6
 24 28  1  0
 25 24  2  0
 26 27  1  0
 29 26  2  0
M  END
$$$$
