LYD.pdb
     RDKit          3D

 29 29  0  0  1  0  0  0  0  0999 V2000
   29.2476  -18.8325  -17.6657 C   0  0  0  0  0  0  0  0  0  0  0  0
   28.4455  -19.8015  -18.5569 C   0  0  2  0  0  0  0  0  0  0  0  0
   27.8603  -18.9676  -19.6682 C   0  0  0  0  0  0  0  0  0  0  0  0
   27.3895  -20.3818  -17.6591 C   0  0  0  0  0  0  0  0  0  0  0  0
   27.8885  -21.0209  -16.4101 C   0  0  2  0  0  0  0  0  0  0  0  0
   28.4226  -22.3377  -16.8358 N   0  0  0  0  0  0  0  0  0  0  0  0
   26.8665  -21.3156  -15.3902 C   0  0  0  0  0  0  0  0  0  0  0  0
   26.1820  -22.3899  -15.4908 O   0  0  0  0  0  0  0  0  0  0  0  0
   22.3941  -20.8552   -7.6689 O   0  0  0  0  0  0  0  0  0  0  0  0
   23.2012  -20.6369   -8.7665 C   0  0  0  0  0  0  0  0  0  0  0  0
   22.7339  -20.0029   -9.9015 C   0  0  0  0  0  0  0  0  0  0  0  0
   23.5747  -19.8033  -10.9801 C   0  0  0  0  0  0  0  0  0  0  0  0
   24.8776  -20.2135  -10.9764 C   0  0  0  0  0  0  0  0  0  0  0  0
   25.8354  -20.0544  -12.0683 C   0  0  0  0  0  0  0  0  0  0  0  0
   25.5402  -20.8865  -13.2823 C   0  0  2  0  0  0  0  0  0  0  0  0
   26.5369  -20.5311  -14.2703 N   0  0  0  0  0  0  0  0  0  0  0  0
   24.2105  -20.6319  -13.8575 C   0  0  0  0  0  0  0  0  0  0  0  0
   24.0310  -19.5806  -14.5235 O   0  0  0  0  0  0  0  0  0  0  0  0
   25.3206  -20.8491   -9.8194 C   0  0  0  0  0  0  0  0  0  0  0  0
   24.4994  -21.0597   -8.7294 C   0  0  0  0  0  0  0  0  0  0  0  0
   23.1155  -21.5251  -13.6933 N   0  0  0  0  0  0  0  0  0  0  0  0
   21.8455  -21.1442  -14.3265 C   0  0  1  0  0  0  0  0  0  0  0  0
   21.5837  -22.0002  -15.5205 C   0  0  0  0  0  0  0  0  0  0  0  0
   21.5399  -21.2110  -16.7571 C   0  0  0  0  0  0  0  0  0  0  0  0
   21.6439  -19.9626  -16.7478 O   0  0  0  0  0  0  0  0  0  0  0  0
   20.7951  -21.3990  -13.2943 C   0  0  0  0  0  0  0  0  0  0  0  0
   19.6314  -20.6784  -13.2199 O   0  0  0  0  0  0  0  0  0  0  0  0
   21.3787  -21.8209  -18.0126 O   0  0  0  0  0  0  0  0  0  0  0  0
   21.0052  -22.3290  -12.4545 O   0  0  0  0  0  0  0  0  0  0  0  0
  2  1  1  1
  2  4  1  0
  3  2  1  0
  5  4  1  0
  5  6  1  6
  7  5  1  0
  7  8  2  0
  9 10  1  0
 10 20  2  0
 10 11  1  0
 11 12  2  0
 12 13  1  0
 13 14  1  0
 15 14  1  1
 15 16  1  0
 16  7  1  0
 17 21  1  0
 17 15  1  0
 18 17  2  0
 19 13  2  0
 20 19  1  0
 22 21  1  0
 22 26  1  0
 23 24  1  0
 22 23  1  6
 24 28  1  0
 25 24  2  0
 26 27  1  0
 29 26  2  0
M  END
$$$$
