LYD.pdb
     RDKit          3D

 29 29  0  0  1  0  0  0  0  0999 V2000
   27.7296  -13.0636  -15.0052 C   0  0  0  0  0  0  0  0  0  0  0  0
   27.5816  -13.0132  -16.5388 C   0  0  2  0  0  0  0  0  0  0  0  0
   28.8598  -12.4135  -17.0674 C   0  0  0  0  0  0  0  0  0  0  0  0
   26.3890  -12.1348  -16.7921 C   0  0  0  0  0  0  0  0  0  0  0  0
   25.0842  -12.6694  -16.3133 C   0  0  2  0  0  0  0  0  0  0  0  0
   24.9125  -13.9619  -17.0206 N   0  0  0  0  0  0  0  0  0  0  0  0
   23.8985  -11.8652  -16.6581 C   0  0  0  0  0  0  0  0  0  0  0  0
   23.4527  -11.8995  -17.8551 O   0  0  0  0  0  0  0  0  0  0  0  0
   18.7535  -15.3235  -18.5216 O   0  0  0  0  0  0  0  0  0  0  0  0
   19.2862  -14.2962  -17.7702 C   0  0  0  0  0  0  0  0  0  0  0  0
   20.2335  -14.5236  -16.7907 C   0  0  0  0  0  0  0  0  0  0  0  0
   20.7426  -13.4669  -16.0597 C   0  0  0  0  0  0  0  0  0  0  0  0
   20.3431  -12.1769  -16.2652 C   0  0  0  0  0  0  0  0  0  0  0  0
   20.8168  -11.0008  -15.5390 C   0  0  0  0  0  0  0  0  0  0  0  0
   21.9753  -10.2960  -16.1827 C   0  0  2  0  0  0  0  0  0  0  0  0
   23.1621  -11.0306  -15.7981 N   0  0  0  0  0  0  0  0  0  0  0  0
   22.1326   -8.9023  -15.7391 C   0  0  0  0  0  0  0  0  0  0  0  0
   22.6610   -8.6801  -14.6199 O   0  0  0  0  0  0  0  0  0  0  0  0
   19.3877  -11.9781  -17.2585 C   0  0  0  0  0  0  0  0  0  0  0  0
   18.8648  -13.0179  -18.0017 C   0  0  0  0  0  0  0  0  0  0  0  0
   21.7126   -7.7917  -16.5225 N   0  0  0  0  0  0  0  0  0  0  0  0
   21.9916   -6.4537  -15.9834 C   0  0  1  0  0  0  0  0  0  0  0  0
   21.9154   -5.4312  -17.0677 C   0  0  0  0  0  0  0  0  0  0  0  0
   22.2257   -4.0858  -16.5700 C   0  0  0  0  0  0  0  0  0  0  0  0
   22.6140   -3.8895  -15.3952 O   0  0  0  0  0  0  0  0  0  0  0  0
   20.9122   -6.1958  -14.9825 C   0  0  0  0  0  0  0  0  0  0  0  0
   20.9935   -5.2091  -14.0345 O   0  0  0  0  0  0  0  0  0  0  0  0
   22.1010   -2.9521  -17.3906 O   0  0  0  0  0  0  0  0  0  0  0  0
   19.8785   -6.9335  -15.0249 O   0  0  0  0  0  0  0  0  0  0  0  0
  2  1  1  1
  2  4  1  0
  3  2  1  0
  5  4  1  0
  5  6  1  6
  7  5  1  0
  7  8  2  0
  9 10  1  0
 10 20  2  0
 10 11  1  0
 11 12  2  0
 12 13  1  0
 13 14  1  0
 15 14  1  1
 15 16  1  0
 16  7  1  0
 17 21  1  0
 17 15  1  0
 18 17  2  0
 19 13  2  0
 20 19  1  0
 22 21  1  0
 22 26  1  0
 23 24  1  0
 22 23  1  6
 24 28  1  0
 25 24  2  0
 26 27  1  0
 29 26  2  0
M  END
$$$$
