LYD.pdb
     RDKit          3D

 29 29  0  0  1  0  0  0  0  0999 V2000
   26.4977  -21.0257   -6.7286 C   0  0  0  0  0  0  0  0  0  0  0  0
   27.3638  -20.2224   -7.7191 C   0  0  2  0  0  0  0  0  0  0  0  0
   27.9855  -19.1019   -6.9247 C   0  0  0  0  0  0  0  0  0  0  0  0
   26.4074  -19.7215   -8.7643 C   0  0  0  0  0  0  0  0  0  0  0  0
   25.7830  -20.7694   -9.6185 C   0  0  2  0  0  0  0  0  0  0  0  0
   26.9208  -21.5114  -10.2147 N   0  0  0  0  0  0  0  0  0  0  0  0
   24.9879  -20.2761  -10.7570 C   0  0  0  0  0  0  0  0  0  0  0  0
   24.0567  -19.4280  -10.5417 O   0  0  0  0  0  0  0  0  0  0  0  0
   23.2370  -17.5451  -19.0269 O   0  0  0  0  0  0  0  0  0  0  0  0
   23.7139  -18.1331  -17.8734 C   0  0  0  0  0  0  0  0  0  0  0  0
   23.8063  -17.4370  -16.6837 C   0  0  0  0  0  0  0  0  0  0  0  0
   24.2896  -18.0626  -15.5500 C   0  0  0  0  0  0  0  0  0  0  0  0
   24.6900  -19.3685  -15.5507 C   0  0  0  0  0  0  0  0  0  0  0  0
   25.2199  -20.1093  -14.4082 C   0  0  0  0  0  0  0  0  0  0  0  0
   24.3393  -20.0932  -13.1927 C   0  0  2  0  0  0  0  0  0  0  0  0
   25.1326  -20.6345  -12.1094 N   0  0  0  0  0  0  0  0  0  0  0  0
   23.1300  -20.9186  -13.3347 C   0  0  0  0  0  0  0  0  0  0  0  0
   23.0549  -21.7197  -14.3010 O   0  0  0  0  0  0  0  0  0  0  0  0
   24.5854  -20.0448  -16.7635 C   0  0  0  0  0  0  0  0  0  0  0  0
   24.1057  -19.4410  -17.9090 C   0  0  0  0  0  0  0  0  0  0  0  0
   22.0388  -20.8507  -12.4246 N   0  0  0  0  0  0  0  0  0  0  0  0
   20.8373  -21.6239  -12.7675 C   0  0  1  0  0  0  0  0  0  0  0  0
   20.0550  -21.9401  -11.5366 C   0  0  0  0  0  0  0  0  0  0  0  0
   18.8143  -22.6587  -11.8497 C   0  0  0  0  0  0  0  0  0  0  0  0
   18.5301  -23.0072  -13.0191 O   0  0  0  0  0  0  0  0  0  0  0  0
   20.0294  -20.7307  -13.6523 C   0  0  0  0  0  0  0  0  0  0  0  0
   19.5026  -21.1433  -14.8486 O   0  0  0  0  0  0  0  0  0  0  0  0
   17.8848  -22.9901  -10.8496 O   0  0  0  0  0  0  0  0  0  0  0  0
   19.8308  -19.5372  -13.2642 O   0  0  0  0  0  0  0  0  0  0  0  0
  2  1  1  1
  2  4  1  0
  3  2  1  0
  5  4  1  0
  5  6  1  6
  7  5  1  0
  7  8  2  0
  9 10  1  0
 10 20  2  0
 10 11  1  0
 11 12  2  0
 12 13  1  0
 13 14  1  0
 15 14  1  6
 15 16  1  0
 16  7  1  0
 17 21  1  0
 17 15  1  0
 18 17  2  0
 19 13  2  0
 20 19  1  0
 22 21  1  0
 22 26  1  0
 23 24  1  0
 22 23  1  1
 24 28  1  0
 25 24  2  0
 26 27  1  0
 29 26  2  0
M  END
$$$$
