LYD.pdb
     RDKit          3D

 29 29  0  0  1  0  0  0  0  0999 V2000
   33.5394  -37.5285   -4.7741 C   0  0  0  0  0  0  0  0  0  0  0  0
   34.0398  -36.0922   -5.0251 C   0  0  2  0  0  0  0  0  0  0  0  0
   35.1155  -35.8342   -4.0008 C   0  0  0  0  0  0  0  0  0  0  0  0
   32.8368  -35.2141   -4.8261 C   0  0  0  0  0  0  0  0  0  0  0  0
   31.6929  -35.4740   -5.7436 C   0  0  2  0  0  0  0  0  0  0  0  0
   32.0495  -34.7895   -7.0103 N   0  0  0  0  0  0  0  0  0  0  0  0
   30.3994  -34.9013   -5.3309 C   0  0  0  0  0  0  0  0  0  0  0  0
   30.2373  -33.6349   -5.3824 O   0  0  0  0  0  0  0  0  0  0  0  0
   25.4017  -31.3903   -9.2583 O   0  0  0  0  0  0  0  0  0  0  0  0
   25.7803  -32.3658   -8.3589 C   0  0  0  0  0  0  0  0  0  0  0  0
   25.2654  -32.4171   -7.0780 C   0  0  0  0  0  0  0  0  0  0  0  0
   25.6707  -33.4109   -6.2071 C   0  0  0  0  0  0  0  0  0  0  0  0
   26.5785  -34.3677   -6.5621 C   0  0  0  0  0  0  0  0  0  0  0  0
   27.0715  -35.4478   -5.7104 C   0  0  0  0  0  0  0  0  0  0  0  0
   27.9814  -35.0020   -4.6029 C   0  0  2  0  0  0  0  0  0  0  0  0
   29.2710  -35.6033   -4.8701 N   0  0  0  0  0  0  0  0  0  0  0  0
   27.5378  -35.4373   -3.2696 C   0  0  0  0  0  0  0  0  0  0  0  0
   27.5214  -36.6674   -3.0097 O   0  0  0  0  0  0  0  0  0  0  0  0
   27.0800  -34.2910   -7.8589 C   0  0  0  0  0  0  0  0  0  0  0  0
   26.6902  -33.3077   -8.7466 C   0  0  0  0  0  0  0  0  0  0  0  0
   27.1259  -34.5256   -2.2583 N   0  0  0  0  0  0  0  0  0  0  0  0
   26.6689  -35.1039   -0.9872 C   0  0  1  0  0  0  0  0  0  0  0  0
   26.8347  -34.1179    0.1207 C   0  0  0  0  0  0  0  0  0  0  0  0
   27.5847  -34.6857    1.2472 C   0  0  0  0  0  0  0  0  0  0  0  0
   27.9212  -35.8922    1.2754 O   0  0  0  0  0  0  0  0  0  0  0  0
   25.2152  -35.3911   -1.1814 C   0  0  0  0  0  0  0  0  0  0  0  0
   24.4973  -34.9190   -2.2495 O   0  0  0  0  0  0  0  0  0  0  0  0
   27.9612  -33.9003    2.3496 O   0  0  0  0  0  0  0  0  0  0  0  0
   24.6324  -36.1066   -0.3081 O   0  0  0  0  0  0  0  0  0  0  0  0
  2  1  1  1
  2  4  1  0
  3  2  1  0
  5  4  1  0
  5  6  1  6
  7  5  1  0
  7  8  2  0
  9 10  1  0
 10 20  2  0
 10 11  1  0
 11 12  2  0
 12 13  1  0
 13 14  1  0
 15 14  1  6
 15 16  1  0
 16  7  1  0
 17 21  1  0
 17 15  1  0
 18 17  2  0
 19 13  2  0
 20 19  1  0
 22 21  1  0
 22 26  1  0
 23 24  1  0
 22 23  1  1
 24 28  1  0
 25 24  2  0
 26 27  1  0
 29 26  2  0
M  END
$$$$
