LYD.pdb
     RDKit          3D

 29 29  0  0  1  0  0  0  0  0999 V2000
   26.4292  -18.5458  -16.9646 C   0  0  0  0  0  0  0  0  0  0  0  0
   26.7127  -18.7162  -15.4589 C   0  0  2  0  0  0  0  0  0  0  0  0
   27.4424  -17.4712  -15.0226 C   0  0  0  0  0  0  0  0  0  0  0  0
   27.5676  -19.9475  -15.3546 C   0  0  0  0  0  0  0  0  0  0  0  0
   27.7160  -20.5122  -13.9847 C   0  0  2  0  0  0  0  0  0  0  0  0
   28.4284  -21.7998  -14.1719 N   0  0  0  0  0  0  0  0  0  0  0  0
   26.4594  -20.8484  -13.2922 C   0  0  0  0  0  0  0  0  0  0  0  0
   25.8398  -21.9179  -13.6163 O   0  0  0  0  0  0  0  0  0  0  0  0
   28.0660  -20.7620   -6.1141 O   0  0  0  0  0  0  0  0  0  0  0  0
   27.1942  -20.5377   -7.1598 C   0  0  0  0  0  0  0  0  0  0  0  0
   26.6589  -21.5747   -7.8991 C   0  0  0  0  0  0  0  0  0  0  0  0
   25.7887  -21.3078   -8.9392 C   0  0  0  0  0  0  0  0  0  0  0  0
   25.4245  -20.0359   -9.2787 C   0  0  0  0  0  0  0  0  0  0  0  0
   24.5214  -19.6573  -10.3631 C   0  0  0  0  0  0  0  0  0  0  0  0
   24.6226  -20.5193  -11.5878 C   0  0  2  0  0  0  0  0  0  0  0  0
   25.8302  -20.1102  -12.2736 N   0  0  0  0  0  0  0  0  0  0  0  0
   23.4905  -20.3575  -12.5130 C   0  0  0  0  0  0  0  0  0  0  0  0
   23.4632  -19.3498  -13.2646 O   0  0  0  0  0  0  0  0  0  0  0  0
   25.9794  -19.0112   -8.5162 C   0  0  0  0  0  0  0  0  0  0  0  0
   26.8506  -19.2534   -7.4726 C   0  0  0  0  0  0  0  0  0  0  0  0
   22.4224  -21.2934  -12.5956 N   0  0  0  0  0  0  0  0  0  0  0  0
   21.3671  -21.0135  -13.5790 C   0  0  1  0  0  0  0  0  0  0  0  0
   20.8454  -22.2867  -14.1568 C   0  0  0  0  0  0  0  0  0  0  0  0
   20.2488  -23.1471  -13.1283 C   0  0  0  0  0  0  0  0  0  0  0  0
   20.1388  -22.7738  -11.9375 O   0  0  0  0  0  0  0  0  0  0  0  0
   20.2788  -20.3352  -12.8114 C   0  0  0  0  0  0  0  0  0  0  0  0
   20.3937  -20.0066  -11.4856 O   0  0  0  0  0  0  0  0  0  0  0  0
   19.7719  -24.4332  -13.4325 O   0  0  0  0  0  0  0  0  0  0  0  0
   19.2042  -20.0574  -13.4299 O   0  0  0  0  0  0  0  0  0  0  0  0
  2  1  1  6
  2  4  1  0
  3  2  1  0
  5  4  1  0
  5  6  1  6
  7  5  1  0
  7  8  2  0
  9 10  1  0
 10 20  2  0
 10 11  1  0
 11 12  2  0
 12 13  1  0
 13 14  1  0
 15 14  1  1
 15 16  1  0
 16  7  1  0
 17 21  1  0
 17 15  1  0
 18 17  2  0
 19 13  2  0
 20 19  1  0
 22 21  1  0
 22 26  1  0
 23 24  1  0
 22 23  1  1
 24 28  1  0
 25 24  2  0
 26 27  1  0
 29 26  2  0
M  END
$$$$
