LYD.pdb
     RDKit          3D

 29 29  0  0  1  0  0  0  0  0999 V2000
   20.3103  -12.7118  -19.5924 C   0  0  0  0  0  0  0  0  0  0  0  0
   20.9250  -13.2264  -18.2757 C   0  0  2  0  0  0  0  0  0  0  0  0
   20.3400  -14.5962  -18.0429 C   0  0  0  0  0  0  0  0  0  0  0  0
   20.5003  -12.2365  -17.2279 C   0  0  0  0  0  0  0  0  0  0  0  0
   20.9070  -10.8254  -17.4751 C   0  0  2  0  0  0  0  0  0  0  0  0
   22.3811  -10.8128  -17.3096 N   0  0  0  0  0  0  0  0  0  0  0  0
   20.3892   -9.8335  -16.5161 C   0  0  0  0  0  0  0  0  0  0  0  0
   19.1254   -9.7079  -16.3756 O   0  0  0  0  0  0  0  0  0  0  0  0
   18.8138   -5.5767   -9.1089 O   0  0  0  0  0  0  0  0  0  0  0  0
   19.4202   -6.2239  -10.1658 C   0  0  0  0  0  0  0  0  0  0  0  0
   20.5203   -5.6942  -10.8120 C   0  0  0  0  0  0  0  0  0  0  0  0
   21.0989   -6.3743  -11.8669 C   0  0  0  0  0  0  0  0  0  0  0  0
   20.6223   -7.5746  -12.3115 C   0  0  0  0  0  0  0  0  0  0  0  0
   21.1607   -8.3598  -13.4200 C   0  0  0  0  0  0  0  0  0  0  0  0
   20.5781   -8.0240  -14.7620 C   0  0  2  0  0  0  0  0  0  0  0  0
   21.1432   -8.9722  -15.6987 N   0  0  0  0  0  0  0  0  0  0  0  0
   20.9118   -6.6673  -15.2224 C   0  0  0  0  0  0  0  0  0  0  0  0
   22.0355   -6.4673  -15.7500 O   0  0  0  0  0  0  0  0  0  0  0  0
   19.5131   -8.0841  -11.6413 C   0  0  0  0  0  0  0  0  0  0  0  0
   18.9182   -7.4230  -10.5849 C   0  0  0  0  0  0  0  0  0  0  0  0
   20.0169   -5.5686  -15.0971 N   0  0  0  0  0  0  0  0  0  0  0  0
   20.4542   -4.2862  -15.6655 C   0  0  1  0  0  0  0  0  0  0  0  0
   19.2743   -3.4796  -16.0947 C   0  0  0  0  0  0  0  0  0  0  0  0
   19.1300   -3.4604  -17.5551 C   0  0  0  0  0  0  0  0  0  0  0  0
   20.0194   -3.9129  -18.3125 O   0  0  0  0  0  0  0  0  0  0  0  0
   21.1597   -3.5792  -14.5538 C   0  0  0  0  0  0  0  0  0  0  0  0
   21.1110   -4.0016  -13.2507 O   0  0  0  0  0  0  0  0  0  0  0  0
   17.9843   -2.9319  -18.1733 O   0  0  0  0  0  0  0  0  0  0  0  0
   21.8309   -2.5406  -14.8459 O   0  0  0  0  0  0  0  0  0  0  0  0
  2  1  1  6
  2  4  1  0
  3  2  1  0
  5  4  1  0
  5  6  1  1
  7  5  1  0
  7  8  2  0
  9 10  1  0
 10 20  2  0
 10 11  1  0
 11 12  2  0
 12 13  1  0
 13 14  1  0
 15 14  1  1
 15 16  1  0
 16  7  1  0
 17 21  1  0
 17 15  1  0
 18 17  2  0
 19 13  2  0
 20 19  1  0
 22 21  1  0
 22 26  1  0
 23 24  1  0
 22 23  1  1
 24 28  1  0
 25 24  2  0
 26 27  1  0
 29 26  2  0
M  END
$$$$
