LYD.pdb
     RDKit          3D

 29 29  0  0  1  0  0  0  0  0999 V2000
   38.4070  -10.2764  -16.3690 C   0  0  0  0  0  0  0  0  0  0  0  0
   38.0774  -10.2887  -14.8631 C   0  0  2  0  0  0  0  0  0  0  0  0
   38.3154  -11.7001  -14.3898 C   0  0  0  0  0  0  0  0  0  0  0  0
   36.6314   -9.8900  -14.7718 C   0  0  0  0  0  0  0  0  0  0  0  0
   36.3187   -8.5023  -15.2124 C   0  0  2  0  0  0  0  0  0  0  0  0
   36.8365   -7.6274  -14.1321 N   0  0  0  0  0  0  0  0  0  0  0  0
   34.8865   -8.1783  -15.3363 C   0  0  0  0  0  0  0  0  0  0  0  0
   34.1289   -8.3174  -14.3168 O   0  0  0  0  0  0  0  0  0  0  0  0
   34.0316   -2.5574  -12.5467 O   0  0  0  0  0  0  0  0  0  0  0  0
   33.6607   -3.3875  -13.5845 C   0  0  0  0  0  0  0  0  0  0  0  0
   32.3715   -3.8679  -13.7100 C   0  0  0  0  0  0  0  0  0  0  0  0
   32.0402   -4.6974  -14.7647 C   0  0  0  0  0  0  0  0  0  0  0  0
   32.9498   -5.0738  -15.7116 C   0  0  0  0  0  0  0  0  0  0  0  0
   32.6950   -5.9501  -16.8527 C   0  0  0  0  0  0  0  0  0  0  0  0
   32.8044   -7.4161  -16.5490 C   0  0  2  0  0  0  0  0  0  0  0  0
   34.2199   -7.7128  -16.4840 N   0  0  0  0  0  0  0  0  0  0  0  0
   32.2010   -8.2744  -17.5801 C   0  0  0  0  0  0  0  0  0  0  0  0
   32.9536   -8.9982  -18.2806 O   0  0  0  0  0  0  0  0  0  0  0  0
   34.2407   -4.5743  -15.5596 C   0  0  0  0  0  0  0  0  0  0  0  0
   34.5952   -3.7442  -14.5146 C   0  0  0  0  0  0  0  0  0  0  0  0
   30.7997   -8.3221  -17.8203 N   0  0  0  0  0  0  0  0  0  0  0  0
   30.3256   -9.3106  -18.7986 C   0  0  1  0  0  0  0  0  0  0  0  0
   30.6487  -10.6928  -18.3378 C   0  0  0  0  0  0  0  0  0  0  0  0
   30.1097  -11.7100  -19.2481 C   0  0  0  0  0  0  0  0  0  0  0  0
   29.8941  -11.4661  -20.4578 O   0  0  0  0  0  0  0  0  0  0  0  0
   28.8419   -9.1393  -18.8491 C   0  0  0  0  0  0  0  0  0  0  0  0
   28.1090   -9.3133  -19.9944 O   0  0  0  0  0  0  0  0  0  0  0  0
   29.8095  -13.0086  -18.8035 O   0  0  0  0  0  0  0  0  0  0  0  0
   28.2472   -8.8174  -17.7735 O   0  0  0  0  0  0  0  0  0  0  0  0
  2  1  1  6
  2  4  1  0
  3  2  1  0
  5  4  1  0
  5  6  1  1
  7  5  1  0
  7  8  2  0
  9 10  1  0
 10 20  2  0
 10 11  1  0
 11 12  2  0
 12 13  1  0
 13 14  1  0
 15 14  1  6
 15 16  1  0
 16  7  1  0
 17 21  1  0
 17 15  1  0
 18 17  2  0
 19 13  2  0
 20 19  1  0
 22 21  1  0
 22 26  1  0
 23 24  1  0
 22 23  1  1
 24 28  1  0
 25 24  2  0
 26 27  1  0
 29 26  2  0
M  END
$$$$
