LYD.pdb
     RDKit          3D

 29 29  0  0  1  0  0  0  0  0999 V2000
   26.1712  -26.7824  -19.3859 C   0  0  0  0  0  0  0  0  0  0  0  0
   26.8496  -27.1642  -18.0553 C   0  0  2  0  0  0  0  0  0  0  0  0
   26.6979  -28.6577  -17.9166 C   0  0  0  0  0  0  0  0  0  0  0  0
   26.0947  -26.4109  -16.9965 C   0  0  0  0  0  0  0  0  0  0  0  0
   26.2159  -24.9278  -17.0537 C   0  0  2  0  0  0  0  0  0  0  0  0
   27.6738  -24.6568  -17.0159 N   0  0  0  0  0  0  0  0  0  0  0  0
   25.6441  -24.1951  -15.9102 C   0  0  0  0  0  0  0  0  0  0  0  0
   24.4413  -24.4405  -15.5554 O   0  0  0  0  0  0  0  0  0  0  0  0
   25.0351  -19.6852   -8.3616 O   0  0  0  0  0  0  0  0  0  0  0  0
   25.4614  -20.1518   -9.5880 C   0  0  0  0  0  0  0  0  0  0  0  0
   25.8561  -19.2956  -10.5978 C   0  0  0  0  0  0  0  0  0  0  0  0
   26.2768  -19.8032  -11.8125 C   0  0  0  0  0  0  0  0  0  0  0  0
   26.3215  -21.1443  -12.0677 C   0  0  0  0  0  0  0  0  0  0  0  0
   26.7422  -21.7711  -13.3188 C   0  0  0  0  0  0  0  0  0  0  0  0
   25.6420  -22.4635  -14.0694 C   0  0  2  0  0  0  0  0  0  0  0  0
   26.2836  -23.2195  -15.1243 N   0  0  0  0  0  0  0  0  0  0  0  0
   24.6807  -21.5367  -14.6864 C   0  0  0  0  0  0  0  0  0  0  0  0
   25.0673  -20.8079  -15.6353 O   0  0  0  0  0  0  0  0  0  0  0  0
   25.9182  -21.9829  -11.0318 C   0  0  0  0  0  0  0  0  0  0  0  0
   25.4942  -21.4991   -9.8099 C   0  0  0  0  0  0  0  0  0  0  0  0
   23.3291  -21.4284  -14.2561 N   0  0  0  0  0  0  0  0  0  0  0  0
   22.5268  -20.3493  -14.8484 C   0  0  1  0  0  0  0  0  0  0  0  0
   21.3952  -20.9177  -15.6380 C   0  0  0  0  0  0  0  0  0  0  0  0
   21.7639  -21.1298  -17.0427 C   0  0  0  0  0  0  0  0  0  0  0  0
   22.8849  -20.7929  -17.4893 O   0  0  0  0  0  0  0  0  0  0  0  0
   21.9837  -19.5766  -13.6901 C   0  0  0  0  0  0  0  0  0  0  0  0
   21.9882  -20.0552  -12.4056 O   0  0  0  0  0  0  0  0  0  0  0  0
   20.8740  -21.7221  -17.9545 O   0  0  0  0  0  0  0  0  0  0  0  0
   21.4989  -18.4254  -13.9230 O   0  0  0  0  0  0  0  0  0  0  0  0
  2  1  1  6
  2  4  1  0
  3  2  1  0
  5  4  1  0
  5  6  1  1
  7  5  1  0
  7  8  2  0
  9 10  1  0
 10 20  2  0
 10 11  1  0
 11 12  2  0
 12 13  1  0
 13 14  1  0
 15 14  1  6
 15 16  1  0
 16  7  1  0
 17 21  1  0
 17 15  1  0
 18 17  2  0
 19 13  2  0
 20 19  1  0
 22 21  1  0
 22 26  1  0
 23 24  1  0
 22 23  1  1
 24 28  1  0
 25 24  2  0
 26 27  1  0
 29 26  2  0
M  END
$$$$
