LYD.pdb
     RDKit          3D

 29 29  0  0  1  0  0  0  0  0999 V2000
   29.7744  -23.3196  -17.9845 C   0  0  0  0  0  0  0  0  0  0  0  0
   28.4519  -23.7845  -18.6257 C   0  0  2  0  0  0  0  0  0  0  0  0
   28.4682  -23.2754  -20.0447 C   0  0  0  0  0  0  0  0  0  0  0  0
   27.3682  -23.1487  -17.8015 C   0  0  0  0  0  0  0  0  0  0  0  0
   27.3209  -23.5642  -16.3722 C   0  0  2  0  0  0  0  0  0  0  0  0
   26.9107  -24.9895  -16.3968 N   0  0  0  0  0  0  0  0  0  0  0  0
   26.3198  -22.8751  -15.5389 C   0  0  0  0  0  0  0  0  0  0  0  0
   25.1756  -23.4179  -15.3683 O   0  0  0  0  0  0  0  0  0  0  0  0
   23.8362  -20.9394   -7.8959 O   0  0  0  0  0  0  0  0  0  0  0  0
   24.4496  -20.7914   -9.1229 C   0  0  0  0  0  0  0  0  0  0  0  0
   25.7847  -21.0913   -9.3125 C   0  0  0  0  0  0  0  0  0  0  0  0
   26.3617  -20.9293  -10.5579 C   0  0  0  0  0  0  0  0  0  0  0  0
   25.6567  -20.4755  -11.6362 C   0  0  0  0  0  0  0  0  0  0  0  0
   26.1811  -20.2653  -12.9837 C   0  0  0  0  0  0  0  0  0  0  0  0
   25.4538  -21.0180  -14.0597 C   0  0  2  0  0  0  0  0  0  0  0  0
   26.4721  -21.6436  -14.8768 N   0  0  0  0  0  0  0  0  0  0  0  0
   24.6341  -20.1563  -14.9254 C   0  0  0  0  0  0  0  0  0  0  0  0
   25.1337  -19.7235  -15.9950 O   0  0  0  0  0  0  0  0  0  0  0  0
   24.3136  -20.1816  -11.4154 C   0  0  0  0  0  0  0  0  0  0  0  0
   23.7152  -20.3355  -10.1805 C   0  0  0  0  0  0  0  0  0  0  0  0
   23.2973  -19.7901  -14.6052 N   0  0  0  0  0  0  0  0  0  0  0  0
   22.4052  -19.4786  -15.7304 C   0  0  1  0  0  0  0  0  0  0  0  0
   22.5787  -20.4803  -16.8229 C   0  0  0  0  0  0  0  0  0  0  0  0
   21.6566  -20.2350  -17.9380 C   0  0  0  0  0  0  0  0  0  0  0  0
   21.5229  -19.0979  -18.4465 O   0  0  0  0  0  0  0  0  0  0  0  0
   21.0199  -19.5817  -15.1792 C   0  0  0  0  0  0  0  0  0  0  0  0
   19.9603  -18.8751  -15.6862 O   0  0  0  0  0  0  0  0  0  0  0  0
   20.8784  -21.2673  -18.4884 O   0  0  0  0  0  0  0  0  0  0  0  0
   20.8319  -20.3638  -14.1957 O   0  0  0  0  0  0  0  0  0  0  0  0
  2  1  1  1
  2  4  1  0
  3  2  1  0
  5  4  1  0
  5  6  1  6
  7  5  1  0
  7  8  2  0
  9 10  1  0
 10 20  2  0
 10 11  1  0
 11 12  2  0
 12 13  1  0
 13 14  1  0
 15 14  1  1
 15 16  1  0
 16  7  1  0
 17 21  1  0
 17 15  1  0
 18 17  2  0
 19 13  2  0
 20 19  1  0
 22 21  1  0
 22 26  1  0
 23 24  1  0
 22 23  1  6
 24 28  1  0
 25 24  2  0
 26 27  1  0
 29 26  2  0
M  END
$$$$
