KES.pdb
     RDKit          3D

 25 24  0  0  1  0  0  0  0  0999 V2000
   25.1161  -23.2073  -13.1676 N   0  0  0  0  0  0  0  0  0  0  0  0
   24.7063  -21.8260  -13.1164 C   0  0  1  0  0  0  0  0  0  0  0  0
   25.8477  -20.8565  -13.1669 C   0  0  0  0  0  0  0  0  0  0  0  0
   26.1282  -20.1231  -11.9108 C   0  0  0  0  0  0  0  0  0  0  0  0
   25.8674  -20.8098  -10.6311 C   0  0  0  0  0  0  0  0  0  0  0  0
   26.0410  -19.9976   -9.3946 C   0  0  0  0  0  0  0  0  0  0  0  0
   25.6977  -20.8755   -8.2627 N   0  0  0  0  0  0  0  0  0  0  0  0
   23.7348  -21.5852  -14.2277 C   0  0  0  0  0  0  0  0  0  0  0  0
   24.0156  -21.8834  -15.4227 O   0  0  0  0  0  0  0  0  0  0  0  0
   22.4625  -21.0148  -13.9797 N   0  0  0  0  0  0  0  0  0  0  0  0
   21.4480  -20.8206  -15.0079 C   0  0  1  0  0  0  0  0  0  0  0  0
   20.0693  -20.7795  -14.4377 C   0  0  0  0  0  0  0  0  0  0  0  0
   19.5251  -22.0688  -13.9417 C   0  0  0  0  0  0  0  0  0  0  0  0
   18.1677  -22.0281  -13.3930 C   0  0  0  0  0  0  0  0  0  0  0  0
   17.5144  -20.9671  -13.2168 O   0  0  0  0  0  0  0  0  0  0  0  0
   21.7085  -19.4757  -15.6569 C   0  0  0  0  0  0  0  0  0  0  0  0
   22.2419  -18.5673  -14.9697 O   0  0  0  0  0  0  0  0  0  0  0  0
   17.4850  -23.2035  -13.0162 O   0  0  0  0  0  0  0  0  0  0  0  0
   24.4308  -18.4568  -18.8457 O   0  0  0  0  0  0  0  0  0  0  0  0
   23.7093  -18.9634  -17.7422 C   0  0  0  0  0  0  0  0  0  0  0  0
   22.2544  -18.8952  -18.0497 C   0  0  2  0  0  0  0  0  0  0  0  0
   21.3635  -19.2401  -17.0015 N   0  0  0  0  0  0  0  0  0  0  0  0
   21.9070  -19.5397  -19.3698 C   0  0  0  0  0  0  0  0  0  0  0  0
   22.5918  -19.1845  -20.4854 O   0  0  0  0  0  0  0  0  0  0  0  0
   20.9979  -20.3994  -19.4476 O   0  0  0  0  0  0  0  0  0  0  0  0
  2  8  1  0
  2  1  1  6
  3  2  1  0
  4  3  1  0
  5  4  1  0
  6  5  1  0
  6  7  1  0
  8  9  2  0
 10 11  1  0
 10  8  1  0
 12 13  1  0
 11 12  1  1
 13 14  1  0
 14 18  1  0
 14 15  2  0
 16 17  2  0
 16 11  1  0
 19 20  1  0
 21 20  1  1
 21 22  1  0
 21 23  1  0
 22 16  1  0
 23 24  1  0
 25 23  2  0
M  END
$$$$
