KES.pdb
     RDKit          3D

 25 24  0  0  1  0  0  0  0  0999 V2000
   27.8513  -34.8077   -5.8597 N   0  0  0  0  0  0  0  0  0  0  0  0
   27.1163  -33.7283   -5.2487 C   0  0  1  0  0  0  0  0  0  0  0  0
   25.8244  -33.4125   -5.9388 C   0  0  0  0  0  0  0  0  0  0  0  0
   25.9180  -33.1411   -7.3921 C   0  0  0  0  0  0  0  0  0  0  0  0
   24.7163  -32.6377   -8.0847 C   0  0  0  0  0  0  0  0  0  0  0  0
   24.8904  -32.2353   -9.5082 C   0  0  0  0  0  0  0  0  0  0  0  0
   23.6275  -31.6012   -9.9238 N   0  0  0  0  0  0  0  0  0  0  0  0
   26.8982  -34.0678   -3.8086 C   0  0  0  0  0  0  0  0  0  0  0  0
   26.3253  -33.2618   -3.0225 O   0  0  0  0  0  0  0  0  0  0  0  0
   27.3254  -35.3077   -3.2739 N   0  0  0  0  0  0  0  0  0  0  0  0
   27.0696  -35.7290   -1.9023 C   0  0  1  0  0  0  0  0  0  0  0  0
   26.5417  -37.1232   -1.8310 C   0  0  0  0  0  0  0  0  0  0  0  0
   25.0908  -37.2906   -2.0990 C   0  0  0  0  0  0  0  0  0  0  0  0
   24.1840  -36.8693   -1.0287 C   0  0  0  0  0  0  0  0  0  0  0  0
   24.3850  -37.1002    0.1919 O   0  0  0  0  0  0  0  0  0  0  0  0
   28.3939  -35.7095   -1.1650 C   0  0  0  0  0  0  0  0  0  0  0  0
   29.4430  -35.9859   -1.8015 O   0  0  0  0  0  0  0  0  0  0  0  0
   22.9958  -36.1595   -1.3007 O   0  0  0  0  0  0  0  0  0  0  0  0
   28.9921  -33.4268    2.2466 O   0  0  0  0  0  0  0  0  0  0  0  0
   29.4840  -34.7456    2.3631 C   0  0  0  0  0  0  0  0  0  0  0  0
   29.6298  -35.3243    0.9994 C   0  0  2  0  0  0  0  0  0  0  0  0
   28.4570  -35.3891    0.2046 N   0  0  0  0  0  0  0  0  0  0  0  0
   30.4321  -36.6030    0.9918 C   0  0  0  0  0  0  0  0  0  0  0  0
   31.6399  -36.6355    1.6079 O   0  0  0  0  0  0  0  0  0  0  0  0
   29.9959  -37.6339    0.4274 O   0  0  0  0  0  0  0  0  0  0  0  0
  2  8  1  0
  2  1  1  6
  3  2  1  0
  4  3  1  0
  5  4  1  0
  6  5  1  0
  6  7  1  0
  8  9  2  0
 10 11  1  0
 10  8  1  0
 12 13  1  0
 11 12  1  6
 13 14  1  0
 14 18  1  0
 14 15  2  0
 16 17  2  0
 16 11  1  0
 19 20  1  0
 21 20  1  1
 21 22  1  0
 21 23  1  0
 22 16  1  0
 23 24  1  0
 25 23  2  0
M  END
$$$$
