KES.pdb
     RDKit          3D

 25 24  0  0  1  0  0  0  0  0999 V2000
   24.8148  -20.5592  -15.8251 N   0  0  0  0  0  0  0  0  0  0  0  0
   24.2570  -19.4466  -16.5530 C   0  0  1  0  0  0  0  0  0  0  0  0
   23.6658  -19.8278  -17.8760 C   0  0  0  0  0  0  0  0  0  0  0  0
   22.6306  -20.8868  -17.8399 C   0  0  0  0  0  0  0  0  0  0  0  0
   21.9720  -21.2594  -19.1066 C   0  0  0  0  0  0  0  0  0  0  0  0
   20.8693  -22.2564  -19.0130 C   0  0  0  0  0  0  0  0  0  0  0  0
   20.2913  -22.3727  -20.3629 N   0  0  0  0  0  0  0  0  0  0  0  0
   23.2487  -18.7735  -15.6772 C   0  0  0  0  0  0  0  0  0  0  0  0
   23.1811  -19.0228  -14.4406 O   0  0  0  0  0  0  0  0  0  0  0  0
   22.3332  -17.8298  -16.2032 N   0  0  0  0  0  0  0  0  0  0  0  0
   21.4160  -17.0479  -15.3835 C   0  0  1  0  0  0  0  0  0  0  0  0
   21.2328  -15.6629  -15.9088 C   0  0  0  0  0  0  0  0  0  0  0  0
   20.3072  -14.7882  -15.1455 C   0  0  0  0  0  0  0  0  0  0  0  0
   20.1179  -13.4342  -15.6711 C   0  0  0  0  0  0  0  0  0  0  0  0
   19.2609  -12.6247  -15.2307 O   0  0  0  0  0  0  0  0  0  0  0  0
   20.0642  -17.7321  -15.4332 C   0  0  0  0  0  0  0  0  0  0  0  0
   19.6394  -18.1493  -16.5411 O   0  0  0  0  0  0  0  0  0  0  0  0
   20.9021  -12.9347  -16.7319 O   0  0  0  0  0  0  0  0  0  0  0  0
   17.8494  -18.9522  -11.8508 O   0  0  0  0  0  0  0  0  0  0  0  0
   17.9317  -19.6072  -13.0994 C   0  0  0  0  0  0  0  0  0  0  0  0
   18.0526  -18.5811  -14.1711 C   0  0  2  0  0  0  0  0  0  0  0  0
   19.2935  -17.9013  -14.2671 N   0  0  0  0  0  0  0  0  0  0  0  0
   16.8572  -17.6613  -14.2346 C   0  0  0  0  0  0  0  0  0  0  0  0
   15.6096  -18.1918  -14.2737 O   0  0  0  0  0  0  0  0  0  0  0  0
   17.0024  -16.4162  -14.2483 O   0  0  0  0  0  0  0  0  0  0  0  0
  2  8  1  0
  2  1  1  1
  3  2  1  0
  4  3  1  0
  5  4  1  0
  6  5  1  0
  6  7  1  0
  8  9  2  0
 10 11  1  0
 10  8  1  0
 12 13  1  0
 11 12  1  6
 13 14  1  0
 14 18  1  0
 14 15  2  0
 16 17  2  0
 16 11  1  0
 19 20  1  0
 21 20  1  1
 21 22  1  0
 21 23  1  0
 22 16  1  0
 23 24  1  0
 25 23  2  0
M  END
$$$$
