KES.pdb
     RDKit          3D

 25 24  0  0  1  0  0  0  0  0999 V2000
   34.6818  -35.5604  -14.7434 N   0  0  0  0  0  0  0  0  0  0  0  0
   34.3974  -34.1759  -14.4593 C   0  0  1  0  0  0  0  0  0  0  0  0
   35.5677  -33.4217  -13.9053 C   0  0  0  0  0  0  0  0  0  0  0  0
   35.7911  -33.5565  -12.4471 C   0  0  0  0  0  0  0  0  0  0  0  0
   36.5883  -34.7022  -11.9683 C   0  0  0  0  0  0  0  0  0  0  0  0
   36.7132  -34.8530  -10.4918 C   0  0  0  0  0  0  0  0  0  0  0  0
   37.5111  -36.0692  -10.2589 N   0  0  0  0  0  0  0  0  0  0  0  0
   33.8788  -33.5393  -15.7092 C   0  0  0  0  0  0  0  0  0  0  0  0
   34.1595  -34.0047  -16.8496 O   0  0  0  0  0  0  0  0  0  0  0  0
   33.0516  -32.3908  -15.6593 N   0  0  0  0  0  0  0  0  0  0  0  0
   32.4194  -31.7969  -16.8305 C   0  0  1  0  0  0  0  0  0  0  0  0
   30.9842  -31.4663  -16.5886 C   0  0  0  0  0  0  0  0  0  0  0  0
   30.0142  -32.5749  -16.7756 C   0  0  0  0  0  0  0  0  0  0  0  0
   28.6162  -32.2689  -16.4640 C   0  0  0  0  0  0  0  0  0  0  0  0
   27.6788  -33.1035  -16.5550 O   0  0  0  0  0  0  0  0  0  0  0  0
   33.1387  -30.4958  -17.1264 C   0  0  0  0  0  0  0  0  0  0  0  0
   33.8626  -29.9895  -16.2310 O   0  0  0  0  0  0  0  0  0  0  0  0
   28.2169  -30.9872  -16.0308 O   0  0  0  0  0  0  0  0  0  0  0  0
   35.7908  -27.5884  -19.0804 O   0  0  0  0  0  0  0  0  0  0  0  0
   35.2310  -28.8319  -18.7128 C   0  0  0  0  0  0  0  0  0  0  0  0
   33.7500  -28.7451  -18.8356 C   0  0  2  0  0  0  0  0  0  0  0  0
   33.0048  -29.8607  -18.3758 N   0  0  0  0  0  0  0  0  0  0  0  0
   33.3060  -28.2421  -20.1879 C   0  0  0  0  0  0  0  0  0  0  0  0
   33.1391  -26.9102  -20.3816 O   0  0  0  0  0  0  0  0  0  0  0  0
   33.0931  -29.0378  -21.1331 O   0  0  0  0  0  0  0  0  0  0  0  0
  2  8  1  0
  2  1  1  6
  3  2  1  0
  4  3  1  0
  5  4  1  0
  6  5  1  0
  6  7  1  0
  8  9  2  0
 10 11  1  0
 10  8  1  0
 12 13  1  0
 11 12  1  1
 13 14  1  0
 14 18  1  0
 14 15  2  0
 16 17  2  0
 16 11  1  0
 19 20  1  0
 21 20  1  6
 21 22  1  0
 21 23  1  0
 22 16  1  0
 23 24  1  0
 25 23  2  0
M  END
$$$$
