KES.pdb
     RDKit          3D

 25 24  0  0  1  0  0  0  0  0999 V2000
   14.4667  -11.5606  -14.7454 N   0  0  0  0  0  0  0  0  0  0  0  0
   15.7345  -11.5967  -14.0598 C   0  0  1  0  0  0  0  0  0  0  0  0
   16.7903  -12.3730  -14.7862 C   0  0  0  0  0  0  0  0  0  0  0  0
   16.5718  -13.8356  -14.8730 C   0  0  0  0  0  0  0  0  0  0  0  0
   17.0255  -14.6749  -13.7473 C   0  0  0  0  0  0  0  0  0  0  0  0
   16.8537  -16.1460  -13.9051 C   0  0  0  0  0  0  0  0  0  0  0  0
   17.2379  -16.7548  -12.6198 N   0  0  0  0  0  0  0  0  0  0  0  0
   16.1687  -10.1884  -13.8058 C   0  0  0  0  0  0  0  0  0  0  0  0
   16.1093   -9.3086  -14.7104 O   0  0  0  0  0  0  0  0  0  0  0  0
   16.6615   -9.7893  -12.5394 N   0  0  0  0  0  0  0  0  0  0  0  0
   17.0607   -8.4246  -12.2195 C   0  0  1  0  0  0  0  0  0  0  0  0
   16.7295   -8.0567  -10.8114 C   0  0  0  0  0  0  0  0  0  0  0  0
   17.0586   -6.6684  -10.4005 C   0  0  0  0  0  0  0  0  0  0  0  0
   16.6684   -6.2879   -9.0410 C   0  0  0  0  0  0  0  0  0  0  0  0
   16.9289   -5.1708   -8.5236 O   0  0  0  0  0  0  0  0  0  0  0  0
   18.5675   -8.3445  -12.3645 C   0  0  0  0  0  0  0  0  0  0  0  0
   19.2806   -9.1394  -11.7001 O   0  0  0  0  0  0  0  0  0  0  0  0
   15.9572   -7.1692   -8.2000 O   0  0  0  0  0  0  0  0  0  0  0  0
   20.6089   -9.0219  -15.0402 O   0  0  0  0  0  0  0  0  0  0  0  0
   21.0394   -7.6960  -14.8133 C   0  0  0  0  0  0  0  0  0  0  0  0
   20.5523   -7.2567  -13.4769 C   0  0  2  0  0  0  0  0  0  0  0  0
   19.1645   -7.4023  -13.2238 N   0  0  0  0  0  0  0  0  0  0  0  0
   21.0988   -5.9092  -13.0717 C   0  0  0  0  0  0  0  0  0  0  0  0
   22.4411   -5.7273  -13.0043 O   0  0  0  0  0  0  0  0  0  0  0  0
   20.3296   -4.9571  -12.8003 O   0  0  0  0  0  0  0  0  0  0  0  0
  2  8  1  0
  2  1  1  6
  3  2  1  0
  4  3  1  0
  5  4  1  0
  6  5  1  0
  6  7  1  0
  8  9  2  0
 10 11  1  0
 10  8  1  0
 12 13  1  0
 11 12  1  1
 13 14  1  0
 14 18  1  0
 14 15  2  0
 16 17  2  0
 16 11  1  0
 19 20  1  0
 21 20  1  6
 21 22  1  0
 21 23  1  0
 22 16  1  0
 23 24  1  0
 25 23  2  0
M  END
$$$$
