KES.pdb
     RDKit          3D

 25 24  0  0  1  0  0  0  0  0999 V2000
   16.1106  -11.1320  -17.0026 N   0  0  0  0  0  0  0  0  0  0  0  0
   17.0081  -10.8388  -15.9131 C   0  0  1  0  0  0  0  0  0  0  0  0
   18.1030  -11.8479  -15.7461 C   0  0  0  0  0  0  0  0  0  0  0  0
   18.2405  -12.8386  -16.8388 C   0  0  0  0  0  0  0  0  0  0  0  0
   19.3412  -13.8177  -16.7559 C   0  0  0  0  0  0  0  0  0  0  0  0
   19.4163  -14.8260  -17.8496 C   0  0  0  0  0  0  0  0  0  0  0  0
   20.5134  -15.7449  -17.5003 N   0  0  0  0  0  0  0  0  0  0  0  0
   17.5587   -9.4635  -16.1184 C   0  0  0  0  0  0  0  0  0  0  0  0
   18.3359   -9.2031  -17.0796 O   0  0  0  0  0  0  0  0  0  0  0  0
   17.2268   -8.4017  -15.2420 N   0  0  0  0  0  0  0  0  0  0  0  0
   17.7019   -7.0342  -15.4108 C   0  0  1  0  0  0  0  0  0  0  0  0
   16.6880   -6.0284  -14.9771 C   0  0  0  0  0  0  0  0  0  0  0  0
   17.0650   -4.6019  -15.1435 C   0  0  0  0  0  0  0  0  0  0  0  0
   16.0459   -3.6175  -14.7728 C   0  0  0  0  0  0  0  0  0  0  0  0
   14.9461   -3.9144  -14.2380 O   0  0  0  0  0  0  0  0  0  0  0  0
   18.9180   -6.8613  -14.5224 C   0  0  0  0  0  0  0  0  0  0  0  0
   18.9387   -7.4437  -13.4079 O   0  0  0  0  0  0  0  0  0  0  0  0
   16.2329   -2.2373  -14.9957 O   0  0  0  0  0  0  0  0  0  0  0  0
   23.4740   -6.5466  -13.8432 O   0  0  0  0  0  0  0  0  0  0  0  0
   22.3708   -6.7636  -14.6980 C   0  0  0  0  0  0  0  0  0  0  0  0
   21.2377   -5.9122  -14.2425 C   0  0  2  0  0  0  0  0  0  0  0  0
   20.0067   -6.0667  -14.9296 N   0  0  0  0  0  0  0  0  0  0  0  0
   21.6366   -4.4703  -14.0413 C   0  0  0  0  0  0  0  0  0  0  0  0
   22.4185   -4.1364  -12.9845 O   0  0  0  0  0  0  0  0  0  0  0  0
   21.2580   -3.5798  -14.8384 O   0  0  0  0  0  0  0  0  0  0  0  0
  2  8  1  0
  2  1  1  6
  3  2  1  0
  4  3  1  0
  5  4  1  0
  6  5  1  0
  6  7  1  0
  8  9  2  0
 10 11  1  0
 10  8  1  0
 12 13  1  0
 11 12  1  1
 13 14  1  0
 14 18  1  0
 14 15  2  0
 16 17  2  0
 16 11  1  0
 19 20  1  0
 21 20  1  6
 21 22  1  0
 21 23  1  0
 22 16  1  0
 23 24  1  0
 25 23  2  0
M  END
$$$$
