KES.pdb
     RDKit          3D

 25 24  0  0  1  0  0  0  0  0999 V2000
   28.8980  -35.1267   -5.9800 N   0  0  0  0  0  0  0  0  0  0  0  0
   28.5455  -33.9467   -5.2304 C   0  0  1  0  0  0  0  0  0  0  0  0
   27.1918  -33.4002   -5.5682 C   0  0  0  0  0  0  0  0  0  0  0  0
   26.8967  -33.2533   -7.0124 C   0  0  0  0  0  0  0  0  0  0  0  0
   25.6533  -32.5605   -7.4015 C   0  0  0  0  0  0  0  0  0  0  0  0
   25.3688  -32.4775   -8.8612 C   0  0  0  0  0  0  0  0  0  0  0  0
   24.1672  -31.6383   -9.0086 N   0  0  0  0  0  0  0  0  0  0  0  0
   28.6578  -34.2673   -3.7739 C   0  0  0  0  0  0  0  0  0  0  0  0
   28.4009  -33.4036   -2.8887 O   0  0  0  0  0  0  0  0  0  0  0  0
   29.0554  -35.5535   -3.3341 N   0  0  0  0  0  0  0  0  0  0  0  0
   29.0750  -35.9602   -1.9347 C   0  0  1  0  0  0  0  0  0  0  0  0
   28.3288  -37.2328   -1.7080 C   0  0  0  0  0  0  0  0  0  0  0  0
   26.8563  -37.1133   -1.5600 C   0  0  0  0  0  0  0  0  0  0  0  0
   26.1439  -38.3368   -1.1845 C   0  0  0  0  0  0  0  0  0  0  0  0
   26.6010  -39.1980   -0.3888 O   0  0  0  0  0  0  0  0  0  0  0  0
   30.5205  -36.2103   -1.5529 C   0  0  0  0  0  0  0  0  0  0  0  0
   31.3291  -36.5630   -2.4494 O   0  0  0  0  0  0  0  0  0  0  0  0
   24.8670  -38.6393   -1.7019 O   0  0  0  0  0  0  0  0  0  0  0  0
   32.2750  -34.4276    1.7250 O   0  0  0  0  0  0  0  0  0  0  0  0
   32.5645  -35.8076    1.6432 C   0  0  0  0  0  0  0  0  0  0  0  0
   32.2711  -36.2770    0.2613 C   0  0  2  0  0  0  0  0  0  0  0  0
   30.9574  -36.0528   -0.2237 N   0  0  0  0  0  0  0  0  0  0  0  0
   32.7770  -37.6753    0.0013 C   0  0  0  0  0  0  0  0  0  0  0  0
   34.0533  -37.9943    0.3313 O   0  0  0  0  0  0  0  0  0  0  0  0
   32.0334  -38.5445   -0.5117 O   0  0  0  0  0  0  0  0  0  0  0  0
  2  8  1  0
  2  1  1  6
  3  2  1  0
  4  3  1  0
  5  4  1  0
  6  5  1  0
  6  7  1  0
  8  9  2  0
 10 11  1  0
 10  8  1  0
 12 13  1  0
 11 12  1  6
 13 14  1  0
 14 18  1  0
 14 15  2  0
 16 17  2  0
 16 11  1  0
 19 20  1  0
 21 20  1  1
 21 22  1  0
 21 23  1  0
 22 16  1  0
 23 24  1  0
 25 23  2  0
M  END
$$$$
