KES.pdb
     RDKit          3D

 25 24  0  0  1  0  0  0  0  0999 V2000
   40.8040  -10.9140   -8.5178 N   0  0  0  0  0  0  0  0  0  0  0  0
   41.5335  -11.5360   -9.5947 C   0  0  1  0  0  0  0  0  0  0  0  0
   42.3694  -10.5785  -10.3882 C   0  0  0  0  0  0  0  0  0  0  0  0
   42.8843   -9.4034   -9.6475 C   0  0  0  0  0  0  0  0  0  0  0  0
   43.7050   -8.4223  -10.3830 C   0  0  0  0  0  0  0  0  0  0  0  0
   44.2086   -7.2591   -9.6007 C   0  0  0  0  0  0  0  0  0  0  0  0
   44.9992   -6.4361  -10.5321 N   0  0  0  0  0  0  0  0  0  0  0  0
   42.3630  -12.6401   -9.0207 C   0  0  0  0  0  0  0  0  0  0  0  0
   42.8981  -12.5364   -7.8811 O   0  0  0  0  0  0  0  0  0  0  0  0
   42.5776  -13.8442   -9.7347 N   0  0  0  0  0  0  0  0  0  0  0  0
   43.3760  -14.9538   -9.2292 C   0  0  1  0  0  0  0  0  0  0  0  0
   43.1489  -16.2094  -10.0036 C   0  0  0  0  0  0  0  0  0  0  0  0
   43.9805  -17.3777   -9.6190 C   0  0  0  0  0  0  0  0  0  0  0  0
   43.7209  -18.6223  -10.3463 C   0  0  0  0  0  0  0  0  0  0  0  0
   44.1822  -18.8755  -11.4894 O   0  0  0  0  0  0  0  0  0  0  0  0
   44.8352  -14.5784   -9.3959 C   0  0  0  0  0  0  0  0  0  0  0  0
   45.1970  -14.0224  -10.4646 O   0  0  0  0  0  0  0  0  0  0  0  0
   42.9168  -19.6452   -9.8015 O   0  0  0  0  0  0  0  0  0  0  0  0
   47.7525  -15.1381   -6.2016 O   0  0  0  0  0  0  0  0  0  0  0  0
   47.7089  -14.0258   -7.0709 C   0  0  0  0  0  0  0  0  0  0  0  0
   47.1385  -14.4600   -8.3755 C   0  0  2  0  0  0  0  0  0  0  0  0
   45.7729  -14.8429   -8.3795 N   0  0  0  0  0  0  0  0  0  0  0  0
   48.0355  -15.4262   -9.1109 C   0  0  0  0  0  0  0  0  0  0  0  0
   47.5123  -16.5744   -9.6083 O   0  0  0  0  0  0  0  0  0  0  0  0
   49.2543  -15.1799   -9.2702 O   0  0  0  0  0  0  0  0  0  0  0  0
  2  8  1  0
  2  1  1  1
  3  2  1  0
  4  3  1  0
  5  4  1  0
  6  5  1  0
  6  7  1  0
  8  9  2  0
 10 11  1  0
 10  8  1  0
 12 13  1  0
 11 12  1  6
 13 14  1  0
 14 18  1  0
 14 15  2  0
 16 17  2  0
 16 11  1  0
 19 20  1  0
 21 20  1  1
 21 22  1  0
 21 23  1  0
 22 16  1  0
 23 24  1  0
 25 23  2  0
M  END
$$$$
