KES.pdb
     RDKit          3D

 25 24  0  0  1  0  0  0  0  0999 V2000
   19.2434  -12.3470  -15.8313 N   0  0  0  0  0  0  0  0  0  0  0  0
   18.6211  -11.1958  -16.4364 C   0  0  1  0  0  0  0  0  0  0  0  0
   17.2304  -11.4531  -16.9314 C   0  0  0  0  0  0  0  0  0  0  0  0
   17.0855  -12.5619  -17.9030 C   0  0  0  0  0  0  0  0  0  0  0  0
   15.7254  -12.9303  -18.3406 C   0  0  0  0  0  0  0  0  0  0  0  0
   15.6277  -13.9909  -19.3818 C   0  0  0  0  0  0  0  0  0  0  0  0
   14.1944  -14.2886  -19.5461 N   0  0  0  0  0  0  0  0  0  0  0  0
   18.6506  -10.0745  -15.4472 C   0  0  0  0  0  0  0  0  0  0  0  0
   18.2819  -10.2432  -14.2508 O   0  0  0  0  0  0  0  0  0  0  0  0
   19.0952   -8.7816  -15.8164 N   0  0  0  0  0  0  0  0  0  0  0  0
   19.0942   -7.6369  -14.9141 C   0  0  1  0  0  0  0  0  0  0  0  0
   20.4696   -7.1106  -14.6711 C   0  0  0  0  0  0  0  0  0  0  0  0
   20.5688   -5.9051  -13.8100 C   0  0  0  0  0  0  0  0  0  0  0  0
   21.9210   -5.4024  -13.5567 C   0  0  0  0  0  0  0  0  0  0  0  0
   22.2060   -4.1815  -13.4473 O   0  0  0  0  0  0  0  0  0  0  0  0
   18.2992   -6.5318  -15.5808 C   0  0  0  0  0  0  0  0  0  0  0  0
   18.5679   -6.2293  -16.7718 O   0  0  0  0  0  0  0  0  0  0  0  0
   23.0212   -6.2737  -13.4150 O   0  0  0  0  0  0  0  0  0  0  0  0
   14.8371   -5.7481  -13.9830 O   0  0  0  0  0  0  0  0  0  0  0  0
   15.0241   -4.8442  -15.0520 C   0  0  0  0  0  0  0  0  0  0  0  0
   16.4716   -4.8037  -15.3969 C   0  0  2  0  0  0  0  0  0  0  0  0
   17.2788   -5.8529  -14.8879 N   0  0  0  0  0  0  0  0  0  0  0  0
   17.0775   -3.4340  -15.2082 C   0  0  0  0  0  0  0  0  0  0  0  0
   16.4246   -2.3451  -15.6854 O   0  0  0  0  0  0  0  0  0  0  0  0
   18.1723   -3.2899  -14.6146 O   0  0  0  0  0  0  0  0  0  0  0  0
  2  8  1  0
  2  1  1  1
  3  2  1  0
  4  3  1  0
  5  4  1  0
  6  5  1  0
  6  7  1  0
  8  9  2  0
 10 11  1  0
 10  8  1  0
 12 13  1  0
 11 12  1  6
 13 14  1  0
 14 18  1  0
 14 15  2  0
 16 17  2  0
 16 11  1  0
 19 20  1  0
 21 20  1  1
 21 22  1  0
 21 23  1  0
 22 16  1  0
 23 24  1  0
 25 23  2  0
M  END
$$$$
