KES.pdb
     RDKit          3D

 25 24  0  0  1  0  0  0  0  0999 V2000
   19.5229  -24.6560   -8.7298 N   0  0  0  0  0  0  0  0  0  0  0  0
   18.2866  -25.2559   -8.2934 C   0  0  1  0  0  0  0  0  0  0  0  0
   18.1044  -26.6680   -8.7602 C   0  0  0  0  0  0  0  0  0  0  0  0
   18.2596  -26.8920  -10.2163 C   0  0  0  0  0  0  0  0  0  0  0  0
   19.5909  -27.2772  -10.7229 C   0  0  0  0  0  0  0  0  0  0  0  0
   19.6997  -27.5146  -12.1893 C   0  0  0  0  0  0  0  0  0  0  0  0
   21.1312  -27.7054  -12.4797 N   0  0  0  0  0  0  0  0  0  0  0  0
   18.2215  -25.1602   -6.8023 C   0  0  0  0  0  0  0  0  0  0  0  0
   19.2700  -25.0834   -6.1019 O   0  0  0  0  0  0  0  0  0  0  0  0
   16.9800  -25.1507   -6.1210 N   0  0  0  0  0  0  0  0  0  0  0  0
   16.8498  -24.9955   -4.6776 C   0  0  1  0  0  0  0  0  0  0  0  0
   15.6488  -24.1921   -4.3040 C   0  0  0  0  0  0  0  0  0  0  0  0
   15.4965  -23.8702   -2.8625 C   0  0  0  0  0  0  0  0  0  0  0  0
   14.3292  -23.0625   -2.5014 C   0  0  0  0  0  0  0  0  0  0  0  0
   13.4227  -22.7388   -3.3121 O   0  0  0  0  0  0  0  0  0  0  0  0
   16.6698  -26.3790   -4.0849 C   0  0  0  0  0  0  0  0  0  0  0  0
   16.4756  -27.3481   -4.8627 O   0  0  0  0  0  0  0  0  0  0  0  0
   14.1379  -22.5816   -1.1892 O   0  0  0  0  0  0  0  0  0  0  0  0
   19.5734  -28.6443   -1.6735 O   0  0  0  0  0  0  0  0  0  0  0  0
   18.9528  -27.6099   -2.4081 C   0  0  0  0  0  0  0  0  0  0  0  0
   17.5204  -27.5332   -2.0101 C   0  0  2  0  0  0  0  0  0  0  0  0
   16.7181  -26.5836   -2.6927 N   0  0  0  0  0  0  0  0  0  0  0  0
   17.3321  -27.5131   -0.5125 C   0  0  0  0  0  0  0  0  0  0  0  0
   16.6385  -26.4969    0.0583 O   0  0  0  0  0  0  0  0  0  0  0  0
   17.8047  -28.4232    0.2086 O   0  0  0  0  0  0  0  0  0  0  0  0
  2  8  1  0
  2  1  1  1
  3  2  1  0
  4  3  1  0
  5  4  1  0
  6  5  1  0
  6  7  1  0
  8  9  2  0
 10 11  1  0
 10  8  1  0
 12 13  1  0
 11 12  1  6
 13 14  1  0
 14 18  1  0
 14 15  2  0
 16 17  2  0
 16 11  1  0
 19 20  1  0
 21 20  1  1
 21 22  1  0
 21 23  1  0
 22 16  1  0
 23 24  1  0
 25 23  2  0
M  END
$$$$
