KES.pdb
     RDKit          3D

 25 24  0  0  1  0  0  0  0  0999 V2000
   27.3625  -22.1750  -16.0410 N   0  0  0  0  0  0  0  0  0  0  0  0
   26.0280  -22.6498  -16.3101 C   0  0  1  0  0  0  0  0  0  0  0  0
   25.8940  -24.1407  -16.2431 C   0  0  0  0  0  0  0  0  0  0  0  0
   26.7066  -24.9066  -17.2164 C   0  0  0  0  0  0  0  0  0  0  0  0
   27.9464  -25.5468  -16.7365 C   0  0  0  0  0  0  0  0  0  0  0  0
   28.7627  -26.2608  -17.7574 C   0  0  0  0  0  0  0  0  0  0  0  0
   29.9761  -26.7347  -17.0697 N   0  0  0  0  0  0  0  0  0  0  0  0
   25.0911  -21.9733  -15.3609 C   0  0  0  0  0  0  0  0  0  0  0  0
   25.3825  -21.8286  -14.1403 O   0  0  0  0  0  0  0  0  0  0  0  0
   23.8420  -21.4684  -15.7973 N   0  0  0  0  0  0  0  0  0  0  0  0
   22.8825  -20.8117  -14.9185 C   0  0  1  0  0  0  0  0  0  0  0  0
   22.5155  -19.4489  -15.4040 C   0  0  0  0  0  0  0  0  0  0  0  0
   21.4168  -18.7659  -14.6753 C   0  0  0  0  0  0  0  0  0  0  0  0
   21.0667  -17.4238  -15.1459 C   0  0  0  0  0  0  0  0  0  0  0  0
   21.8815  -16.6400  -15.6986 O   0  0  0  0  0  0  0  0  0  0  0  0
   21.6176  -21.6471  -14.9193 C   0  0  0  0  0  0  0  0  0  0  0  0
   21.1143  -21.9788  -16.0233 O   0  0  0  0  0  0  0  0  0  0  0  0
   19.7615  -16.9070  -15.0079 O   0  0  0  0  0  0  0  0  0  0  0  0
   20.0692  -23.4858  -11.2965 O   0  0  0  0  0  0  0  0  0  0  0  0
   20.0332  -24.0302  -12.5992 C   0  0  0  0  0  0  0  0  0  0  0  0
   19.9000  -22.9177  -13.5794 C   0  0  2  0  0  0  0  0  0  0  0  0
   21.0122  -22.0480  -13.7130 N   0  0  0  0  0  0  0  0  0  0  0  0
   18.5811  -22.1927  -13.4621 C   0  0  0  0  0  0  0  0  0  0  0  0
   17.4247  -22.8989  -13.5230 O   0  0  0  0  0  0  0  0  0  0  0  0
   18.5409  -20.9494  -13.3062 O   0  0  0  0  0  0  0  0  0  0  0  0
  2  8  1  0
  2  1  1  1
  3  2  1  0
  4  3  1  0
  5  4  1  0
  6  5  1  0
  6  7  1  0
  8  9  2  0
 10 11  1  0
 10  8  1  0
 12 13  1  0
 11 12  1  6
 13 14  1  0
 14 18  1  0
 14 15  2  0
 16 17  2  0
 16 11  1  0
 19 20  1  0
 21 20  1  1
 21 22  1  0
 21 23  1  0
 22 16  1  0
 23 24  1  0
 25 23  2  0
M  END
$$$$
