KES.pdb
     RDKit          3D

 25 24  0  0  1  0  0  0  0  0999 V2000
   22.8917  -15.5157  -20.3637 N   0  0  0  0  0  0  0  0  0  0  0  0
   23.7072  -15.6511  -19.1825 C   0  0  1  0  0  0  0  0  0  0  0  0
   23.5504  -14.5223  -18.2096 C   0  0  0  0  0  0  0  0  0  0  0  0
   22.5502  -13.4915  -18.5719 C   0  0  0  0  0  0  0  0  0  0  0  0
   21.3928  -13.3001  -17.6768 C   0  0  0  0  0  0  0  0  0  0  0  0
   20.3699  -12.3109  -18.1170 C   0  0  0  0  0  0  0  0  0  0  0  0
   19.3311  -12.2868  -17.0729 N   0  0  0  0  0  0  0  0  0  0  0  0
   23.3943  -16.9682  -18.5470 C   0  0  0  0  0  0  0  0  0  0  0  0
   22.2420  -17.4797  -18.6269 O   0  0  0  0  0  0  0  0  0  0  0  0
   24.3806  -17.6913  -17.8329 N   0  0  0  0  0  0  0  0  0  0  0  0
   24.1474  -18.9959  -17.2264 C   0  0  1  0  0  0  0  0  0  0  0  0
   25.4185  -19.7410  -16.9879 C   0  0  0  0  0  0  0  0  0  0  0  0
   25.2987  -21.0258  -16.2533 C   0  0  0  0  0  0  0  0  0  0  0  0
   26.5309  -21.8043  -16.1092 C   0  0  0  0  0  0  0  0  0  0  0  0
   27.6600  -21.4083  -16.4991 O   0  0  0  0  0  0  0  0  0  0  0  0
   23.5012  -18.7615  -15.8754 C   0  0  0  0  0  0  0  0  0  0  0  0
   23.8278  -17.7392  -15.2195 O   0  0  0  0  0  0  0  0  0  0  0  0
   26.5351  -23.0809  -15.5093 O   0  0  0  0  0  0  0  0  0  0  0  0
   19.8758  -17.9413  -13.5414 O   0  0  0  0  0  0  0  0  0  0  0  0
   20.8074  -18.0854  -14.5932 C   0  0  0  0  0  0  0  0  0  0  0  0
   21.5392  -19.3690  -14.4119 C   0  0  2  0  0  0  0  0  0  0  0  0
   22.5532  -19.6650  -15.3582 N   0  0  0  0  0  0  0  0  0  0  0  0
   20.6167  -20.5317  -14.1362 C   0  0  0  0  0  0  0  0  0  0  0  0
   19.6816  -20.4235  -13.1599 O   0  0  0  0  0  0  0  0  0  0  0  0
   20.7015  -21.5925  -14.7989 O   0  0  0  0  0  0  0  0  0  0  0  0
  2  8  1  0
  2  1  1  6
  3  2  1  0
  4  3  1  0
  5  4  1  0
  6  5  1  0
  6  7  1  0
  8  9  2  0
 10 11  1  0
 10  8  1  0
 12 13  1  0
 11 12  1  1
 13 14  1  0
 14 18  1  0
 14 15  2  0
 16 17  2  0
 16 11  1  0
 19 20  1  0
 21 20  1  6
 21 22  1  0
 21 23  1  0
 22 16  1  0
 23 24  1  0
 25 23  2  0
M  END
$$$$
