KES.pdb
     RDKit          3D

 25 24  0  0  1  0  0  0  0  0999 V2000
   16.9231  -14.3734  -15.2039 N   0  0  0  0  0  0  0  0  0  0  0  0
   16.2701  -13.2539  -15.8355 C   0  0  1  0  0  0  0  0  0  0  0  0
   14.8520  -13.0560  -15.3938 C   0  0  0  0  0  0  0  0  0  0  0  0
   14.1193  -14.2834  -15.0049 C   0  0  0  0  0  0  0  0  0  0  0  0
   12.7124  -14.1490  -14.5810 C   0  0  0  0  0  0  0  0  0  0  0  0
   12.0212  -15.4021  -14.1681 C   0  0  0  0  0  0  0  0  0  0  0  0
   10.6842  -15.0078  -13.6917 N   0  0  0  0  0  0  0  0  0  0  0  0
   17.0953  -12.0314  -15.5887 C   0  0  0  0  0  0  0  0  0  0  0  0
   17.3628  -11.6442  -14.4164 O   0  0  0  0  0  0  0  0  0  0  0  0
   17.6087  -11.2635  -16.6622 N   0  0  0  0  0  0  0  0  0  0  0  0
   18.5525  -10.1657  -16.4935 C   0  0  1  0  0  0  0  0  0  0  0  0
   19.5386  -10.0943  -17.6116 C   0  0  0  0  0  0  0  0  0  0  0  0
   20.5602  -11.1709  -17.6561 C   0  0  0  0  0  0  0  0  0  0  0  0
   21.5279  -11.0975  -18.7531 C   0  0  0  0  0  0  0  0  0  0  0  0
   22.6498  -10.5349  -18.6618 O   0  0  0  0  0  0  0  0  0  0  0  0
   17.7578   -8.8749  -16.5093 C   0  0  0  0  0  0  0  0  0  0  0  0
   16.6983   -8.8269  -17.1854 O   0  0  0  0  0  0  0  0  0  0  0  0
   21.2609  -11.6662  -20.0161 O   0  0  0  0  0  0  0  0  0  0  0  0
   15.7969   -5.2682  -14.5348 O   0  0  0  0  0  0  0  0  0  0  0  0
   16.3463   -6.5658  -14.6305 C   0  0  0  0  0  0  0  0  0  0  0  0
   17.4719   -6.5384  -15.6043 C   0  0  2  0  0  0  0  0  0  0  0  0
   18.1900   -7.7480  -15.7842 N   0  0  0  0  0  0  0  0  0  0  0  0
   18.3619   -5.3313  -15.4322 C   0  0  0  0  0  0  0  0  0  0  0  0
   17.8055   -4.0956  -15.3771 O   0  0  0  0  0  0  0  0  0  0  0  0
   19.6057   -5.4562  -15.3365 O   0  0  0  0  0  0  0  0  0  0  0  0
  2  8  1  0
  2  1  1  1
  3  2  1  0
  4  3  1  0
  5  4  1  0
  6  5  1  0
  6  7  1  0
  8  9  2  0
 10 11  1  0
 10  8  1  0
 12 13  1  0
 11 12  1  6
 13 14  1  0
 14 18  1  0
 14 15  2  0
 16 17  2  0
 16 11  1  0
 19 20  1  0
 21 20  1  1
 21 22  1  0
 21 23  1  0
 22 16  1  0
 23 24  1  0
 25 23  2  0
M  END
$$$$
