VAN.pdb
     RDKit          3D

 21 20  0  0  1  0  0  0  0  0999 V2000
    6.9465  -14.1502   19.5804 C   0  0  0  0  0  0  0  0  0  0  0  0
    8.1036  -13.2182   19.7257 C   0  0  2  0  0  0  0  0  0  0  0  0
    7.8908  -12.0020   18.8859 C   0  0  0  0  0  0  0  0  0  0  0  0
    9.4339  -13.8875   19.3622 C   0  0  2  0  0  0  0  0  0  0  0  0
    9.4042  -14.2803   17.9655 N   0  0  0  0  0  0  0  0  0  0  0  0
    9.6741  -15.0276   20.2591 C   0  0  0  0  0  0  0  0  0  0  0  0
    9.6546  -14.8303   21.5013 O   0  0  0  0  0  0  0  0  0  0  0  0
   10.4833  -18.7391   20.0441 C   0  0  0  0  0  0  0  0  0  0  0  0
   10.2297  -17.4331   20.7544 C   0  0  2  0  0  0  0  0  0  0  0  0
    9.9313  -16.3587   19.8368 N   0  0  0  0  0  0  0  0  0  0  0  0
   11.3698  -17.1193   21.6455 C   0  0  0  0  0  0  0  0  0  0  0  0
   12.3240  -16.3490   21.3028 O   0  0  0  0  0  0  0  0  0  0  0  0
   10.6325  -15.5692   24.8169 N   0  0  0  0  0  0  0  0  0  0  0  0
   10.9884  -16.6590   25.7105 C   0  0  0  0  0  0  0  0  0  0  0  0
   10.3637  -16.6367   26.7956 O   0  0  0  0  0  0  0  0  0  0  0  0
   11.9980  -17.6544   25.3032 C   0  0  0  0  0  0  0  0  0  0  0  0
   12.4586  -17.4966   23.9024 C   0  0  2  0  0  0  0  0  0  0  0  0
   11.4065  -17.6946   22.9288 N   0  0  0  0  0  0  0  0  0  0  0  0
   13.5522  -18.4380   23.6084 C   0  0  0  0  0  0  0  0  0  0  0  0
   14.7753  -18.2380   23.7378 O   0  0  0  0  0  0  0  0  0  0  0  0
   13.1802  -19.7173   23.1233 O   0  0  0  0  0  0  0  0  0  0  0  0
  2  4  1  0
  2  1  1  6
  3  2  1  0
  4  6  1  0
  4  5  1  6
  6  7  2  0
  9  8  1  6
  9 11  1  0
 10  9  1  0
 10  6  1  0
 11 12  2  0
 11 18  1  0
 13 14  1  0
 14 16  1  0
 14 15  2  0
 17 16  1  1
 17 19  1  0
 18 17  1  0
 19 20  2  0
 19 21  1  0
M  END
$$$$
