VAN.pdb
     RDKit          3D

 21 20  0  0  1  0  0  0  0  0999 V2000
    8.4546  -13.4236   20.7563 C   0  0  0  0  0  0  0  0  0  0  0  0
    8.8838  -12.8710   19.4376 C   0  0  2  0  0  0  0  0  0  0  0  0
    7.8130  -11.9951   18.8757 C   0  0  0  0  0  0  0  0  0  0  0  0
    9.2442  -13.9757   18.4378 C   0  0  2  0  0  0  0  0  0  0  0  0
    8.0834  -14.8188   18.2196 N   0  0  0  0  0  0  0  0  0  0  0  0
   10.4010  -14.7342   18.9361 C   0  0  0  0  0  0  0  0  0  0  0  0
   10.1928  -15.7509   19.6471 O   0  0  0  0  0  0  0  0  0  0  0  0
   14.1854  -14.7629   18.5813 C   0  0  0  0  0  0  0  0  0  0  0  0
   12.8624  -15.2247   19.1391 C   0  0  2  0  0  0  0  0  0  0  0  0
   11.7601  -14.4129   18.6795 N   0  0  0  0  0  0  0  0  0  0  0  0
   12.9399  -15.2943   20.6161 C   0  0  0  0  0  0  0  0  0  0  0  0
   12.7746  -14.2787   21.3661 O   0  0  0  0  0  0  0  0  0  0  0  0
   11.5036  -19.2375   24.9471 N   0  0  0  0  0  0  0  0  0  0  0  0
   12.1716  -18.0561   24.4265 C   0  0  0  0  0  0  0  0  0  0  0  0
   12.1740  -17.0929   25.2268 O   0  0  0  0  0  0  0  0  0  0  0  0
   12.7638  -18.0718   23.0756 C   0  0  0  0  0  0  0  0  0  0  0  0
   13.3099  -16.7604   22.6496 C   0  0  2  0  0  0  0  0  0  0  0  0
   13.2078  -16.5345   21.2239 N   0  0  0  0  0  0  0  0  0  0  0  0
   14.7234  -16.6361   23.0435 C   0  0  0  0  0  0  0  0  0  0  0  0
   15.7188  -16.6403   22.2938 O   0  0  0  0  0  0  0  0  0  0  0  0
   14.9901  -16.4957   24.4289 O   0  0  0  0  0  0  0  0  0  0  0  0
  2  4  1  0
  2  1  1  1
  3  2  1  0
  4  6  1  0
  4  5  1  1
  6  7  2  0
  9  8  1  1
  9 11  1  0
 10  9  1  0
 10  6  1  0
 11 12  2  0
 11 18  1  0
 13 14  1  0
 14 16  1  0
 14 15  2  0
 17 16  1  6
 17 19  1  0
 18 17  1  0
 19 20  2  0
 19 21  1  0
M  END
$$$$
