VAN.pdb
     RDKit          3D

 21 20  0  0  1  0  0  0  0  0999 V2000
    8.0935  -14.9837   16.5308 C   0  0  0  0  0  0  0  0  0  0  0  0
    8.6613  -14.9142   17.9097 C   0  0  2  0  0  0  0  0  0  0  0  0
    8.7029  -16.2780   18.5163 C   0  0  0  0  0  0  0  0  0  0  0  0
    7.8739  -13.9566   18.8112 C   0  0  2  0  0  0  0  0  0  0  0  0
    7.8862  -12.6297   18.2237 N   0  0  0  0  0  0  0  0  0  0  0  0
    8.4440  -13.9736   20.1665 C   0  0  0  0  0  0  0  0  0  0  0  0
    9.6193  -13.5560   20.3301 O   0  0  0  0  0  0  0  0  0  0  0  0
    7.4384  -14.8468   23.7239 C   0  0  0  0  0  0  0  0  0  0  0  0
    8.4199  -14.5751   22.6115 C   0  0  2  0  0  0  0  0  0  0  0  0
    7.7700  -14.4295   21.3302 N   0  0  0  0  0  0  0  0  0  0  0  0
    9.4669  -15.6220   22.6021 C   0  0  0  0  0  0  0  0  0  0  0  0
    9.4229  -16.6374   21.8350 O   0  0  0  0  0  0  0  0  0  0  0  0
   14.8473  -16.7394   22.0702 N   0  0  0  0  0  0  0  0  0  0  0  0
   14.2371  -16.2999   23.3141 C   0  0  0  0  0  0  0  0  0  0  0  0
   14.8614  -16.6733   24.3334 O   0  0  0  0  0  0  0  0  0  0  0  0
   13.0015  -15.4944   23.2919 C   0  0  0  0  0  0  0  0  0  0  0  0
   11.7636  -16.2991   23.4315 C   0  0  2  0  0  0  0  0  0  0  0  0
   10.5612  -15.4954   23.4771 N   0  0  0  0  0  0  0  0  0  0  0  0
   11.8197  -17.1276   24.6477 C   0  0  0  0  0  0  0  0  0  0  0  0
   12.2412  -18.2961   24.7460 O   0  0  0  0  0  0  0  0  0  0  0  0
   11.3426  -16.5369   25.8450 O   0  0  0  0  0  0  0  0  0  0  0  0
  2  4  1  0
  2  1  1  6
  3  2  1  0
  4  6  1  0
  4  5  1  6
  6  7  2  0
  9  8  1  1
  9 11  1  0
 10  9  1  0
 10  6  1  0
 11 12  2  0
 11 18  1  0
 13 14  1  0
 14 16  1  0
 14 15  2  0
 17 16  1  1
 17 19  1  0
 18 17  1  0
 19 20  2  0
 19 21  1  0
M  END
$$$$
