VAN.pdb
     RDKit          3D

 21 20  0  0  1  0  0  0  0  0999 V2000
    9.0251  -13.3851   21.0589 C   0  0  0  0  0  0  0  0  0  0  0  0
    8.8576  -13.5869   19.5893 C   0  0  2  0  0  0  0  0  0  0  0  0
    8.4311  -12.3107   18.9420 C   0  0  0  0  0  0  0  0  0  0  0  0
    7.8576  -14.7037   19.2696 C   0  0  2  0  0  0  0  0  0  0  0  0
    6.5455  -14.3239   19.7597 N   0  0  0  0  0  0  0  0  0  0  0  0
    8.3278  -15.9691   19.8525 C   0  0  0  0  0  0  0  0  0  0  0  0
    7.8247  -16.3546   20.9390 O   0  0  0  0  0  0  0  0  0  0  0  0
    9.9308  -19.1574   18.9166 C   0  0  0  0  0  0  0  0  0  0  0  0
    9.7690  -18.0331   19.9088 C   0  0  2  0  0  0  0  0  0  0  0  0
    9.3202  -16.8109   19.2843 N   0  0  0  0  0  0  0  0  0  0  0  0
   11.0261  -17.8540   20.6703 C   0  0  0  0  0  0  0  0  0  0  0  0
   11.6548  -18.8233   21.2056 O   0  0  0  0  0  0  0  0  0  0  0  0
   12.8767  -13.9447   18.8030 N   0  0  0  0  0  0  0  0  0  0  0  0
   13.6345  -14.8598   19.6405 C   0  0  0  0  0  0  0  0  0  0  0  0
   14.4846  -15.5259   19.0066 O   0  0  0  0  0  0  0  0  0  0  0  0
   13.3667  -14.9364   21.0890 C   0  0  0  0  0  0  0  0  0  0  0  0
   12.7740  -16.2266   21.5176 C   0  0  2  0  0  0  0  0  0  0  0  0
   11.5546  -16.5580   20.8125 N   0  0  0  0  0  0  0  0  0  0  0  0
   12.4900  -16.2106   22.9625 C   0  0  0  0  0  0  0  0  0  0  0  0
   11.3768  -16.3090   23.5138 O   0  0  0  0  0  0  0  0  0  0  0  0
   13.6022  -16.0677   23.8302 O   0  0  0  0  0  0  0  0  0  0  0  0
  2  4  1  0
  2  1  1  1
  3  2  1  0
  4  6  1  0
  4  5  1  1
  6  7  2  0
  9  8  1  6
  9 11  1  0
 10  9  1  0
 10  6  1  0
 11 12  2  0
 11 18  1  0
 13 14  1  0
 14 16  1  0
 14 15  2  0
 17 16  1  6
 17 19  1  0
 18 17  1  0
 19 20  2  0
 19 21  1  0
M  END
$$$$
