VAN.pdb
     RDKit          3D

 21 20  0  0  1  0  0  0  0  0999 V2000
    6.7507  -17.2169   19.0832 C   0  0  0  0  0  0  0  0  0  0  0  0
    7.2407  -16.8771   20.4518 C   0  0  2  0  0  0  0  0  0  0  0  0
    6.1773  -17.1586   21.4616 C   0  0  0  0  0  0  0  0  0  0  0  0
    7.6981  -15.4178   20.5561 C   0  0  2  0  0  0  0  0  0  0  0  0
    8.7451  -15.1752   19.5810 N   0  0  0  0  0  0  0  0  0  0  0  0
    8.1372  -15.1352   21.9306 C   0  0  0  0  0  0  0  0  0  0  0  0
    9.2012  -15.6646   22.3431 O   0  0  0  0  0  0  0  0  0  0  0  0
    7.0192  -13.1256   24.9607 C   0  0  0  0  0  0  0  0  0  0  0  0
    7.8630  -14.1371   24.2261 C   0  0  2  0  0  0  0  0  0  0  0  0
    7.4513  -14.3000   22.8516 N   0  0  0  0  0  0  0  0  0  0  0  0
    7.8724  -15.4160   24.9719 C   0  0  0  0  0  0  0  0  0  0  0  0
    6.9429  -16.2808   24.8741 O   0  0  0  0  0  0  0  0  0  0  0  0
   10.3830  -20.0789   24.3233 N   0  0  0  0  0  0  0  0  0  0  0  0
   10.6992  -18.9755   25.2152 C   0  0  0  0  0  0  0  0  0  0  0  0
   11.4316  -19.3065   26.1755 O   0  0  0  0  0  0  0  0  0  0  0  0
   10.1688  -17.6259   24.9448 C   0  0  0  0  0  0  0  0  0  0  0  0
    9.4799  -17.0132   26.1064 C   0  0  2  0  0  0  0  0  0  0  0  0
    8.9532  -15.6943   25.8284 N   0  0  0  0  0  0  0  0  0  0  0  0
   10.3922  -16.9199   27.2586 C   0  0  0  0  0  0  0  0  0  0  0  0
   10.3499  -17.5869   28.3104 O   0  0  0  0  0  0  0  0  0  0  0  0
   11.4384  -15.9673   27.1691 O   0  0  0  0  0  0  0  0  0  0  0  0
  2  4  1  0
  2  1  1  6
  3  2  1  0
  4  6  1  0
  4  5  1  6
  6  7  2  0
  9  8  1  1
  9 11  1  0
 10  9  1  0
 10  6  1  0
 11 12  2  0
 11 18  1  0
 13 14  1  0
 14 16  1  0
 14 15  2  0
 17 16  1  6
 17 19  1  0
 18 17  1  0
 19 20  2  0
 19 21  1  0
M  END
$$$$
