VAN.pdb
     RDKit          3D

 21 20  0  0  1  0  0  0  0  0999 V2000
    6.2872  -10.9605   26.7005 C   0  0  0  0  0  0  0  0  0  0  0  0
    7.0499  -12.1552   26.2320 C   0  0  2  0  0  0  0  0  0  0  0  0
    8.1208  -11.7382   25.2786 C   0  0  0  0  0  0  0  0  0  0  0  0
    6.1397  -13.2033   25.5817 C   0  0  2  0  0  0  0  0  0  0  0  0
    5.1972  -13.6953   26.5693 N   0  0  0  0  0  0  0  0  0  0  0  0
    6.9594  -14.2795   25.0056 C   0  0  0  0  0  0  0  0  0  0  0  0
    7.4846  -15.1175   25.7829 O   0  0  0  0  0  0  0  0  0  0  0  0
    8.1987  -15.4472   21.6030 C   0  0  0  0  0  0  0  0  0  0  0  0
    8.0989  -15.4793   23.1076 C   0  0  2  0  0  0  0  0  0  0  0  0
    7.2149  -14.4590   23.6204 N   0  0  0  0  0  0  0  0  0  0  0  0
    9.4540  -15.4073   23.6998 C   0  0  0  0  0  0  0  0  0  0  0  0
   10.2067  -14.3869   23.5830 O   0  0  0  0  0  0  0  0  0  0  0  0
   10.8617  -15.1131   27.5407 N   0  0  0  0  0  0  0  0  0  0  0  0
   10.9153  -16.5638   27.6144 C   0  0  0  0  0  0  0  0  0  0  0  0
   10.7744  -17.0082   28.7766 O   0  0  0  0  0  0  0  0  0  0  0  0
   11.1194  -17.3630   26.3915 C   0  0  0  0  0  0  0  0  0  0  0  0
   11.1872  -16.5498   25.1531 C   0  0  2  0  0  0  0  0  0  0  0  0
    9.9374  -16.5118   24.4248 N   0  0  0  0  0  0  0  0  0  0  0  0
   12.2370  -17.0610   24.2556 C   0  0  0  0  0  0  0  0  0  0  0  0
   12.0982  -17.8626   23.3118 O   0  0  0  0  0  0  0  0  0  0  0  0
   13.5558  -16.5936   24.4844 O   0  0  0  0  0  0  0  0  0  0  0  0
  2  4  1  0
  2  1  1  6
  3  2  1  0
  4  6  1  0
  4  5  1  1
  6  7  2  0
  9  8  1  6
  9 11  1  0
 10  9  1  0
 10  6  1  0
 11 12  2  0
 11 18  1  0
 13 14  1  0
 14 16  1  0
 14 15  2  0
 17 16  1  1
 17 19  1  0
 18 17  1  0
 19 20  2  0
 19 21  1  0
M  END
$$$$
