VAN.pdb
     RDKit          3D

 21 20  0  0  1  0  0  0  0  0999 V2000
    9.5987  -15.7896   16.0361 C   0  0  0  0  0  0  0  0  0  0  0  0
    8.1421  -15.7816   16.3631 C   0  0  2  0  0  0  0  0  0  0  0  0
    7.3430  -16.1351   15.1523 C   0  0  0  0  0  0  0  0  0  0  0  0
    7.6835  -14.4314   16.9256 C   0  0  2  0  0  0  0  0  0  0  0  0
    7.9371  -13.3943   15.9427 N   0  0  0  0  0  0  0  0  0  0  0  0
    8.3652  -14.1713   18.2021 C   0  0  0  0  0  0  0  0  0  0  0  0
    9.5670  -13.8005   18.1777 O   0  0  0  0  0  0  0  0  0  0  0  0
    7.6359  -14.1878   21.9317 C   0  0  0  0  0  0  0  0  0  0  0  0
    8.5264  -14.2122   20.7147 C   0  0  2  0  0  0  0  0  0  0  0  0
    7.7734  -14.3047   19.4859 N   0  0  0  0  0  0  0  0  0  0  0  0
    9.5281  -15.2941   20.8501 C   0  0  0  0  0  0  0  0  0  0  0  0
    9.3198  -16.4842   20.4478 O   0  0  0  0  0  0  0  0  0  0  0  0
   13.3739  -14.1605   19.2216 N   0  0  0  0  0  0  0  0  0  0  0  0
   13.2988  -15.4605   19.8674 C   0  0  0  0  0  0  0  0  0  0  0  0
   13.3747  -16.4193   19.0655 O   0  0  0  0  0  0  0  0  0  0  0  0
   13.1478  -15.5553   21.3317 C   0  0  0  0  0  0  0  0  0  0  0  0
   11.7920  -15.9723   21.7647 C   0  0  2  0  0  0  0  0  0  0  0  0
   10.7669  -15.0009   21.4490 N   0  0  0  0  0  0  0  0  0  0  0  0
   11.7672  -16.2248   23.2153 C   0  0  0  0  0  0  0  0  0  0  0  0
   11.0476  -15.6669   24.0661 O   0  0  0  0  0  0  0  0  0  0  0  0
   12.6589  -17.2114   23.7069 O   0  0  0  0  0  0  0  0  0  0  0  0
  2  4  1  0
  2  1  1  6
  3  2  1  0
  4  6  1  0
  4  5  1  6
  6  7  2  0
  9  8  1  1
  9 11  1  0
 10  9  1  0
 10  6  1  0
 11 12  2  0
 11 18  1  0
 13 14  1  0
 14 16  1  0
 14 15  2  0
 17 16  1  1
 17 19  1  0
 18 17  1  0
 19 20  2  0
 19 21  1  0
M  END
$$$$
