VAN.pdb
     RDKit          3D

 21 20  0  0  1  0  0  0  0  0999 V2000
    9.6356  -12.8779   20.2728 C   0  0  0  0  0  0  0  0  0  0  0  0
    8.3256  -13.2716   19.6749 C   0  0  2  0  0  0  0  0  0  0  0  0
    7.2038  -12.7803   20.5292 C   0  0  0  0  0  0  0  0  0  0  0  0
    8.2143  -14.7871   19.4736 C   0  0  2  0  0  0  0  0  0  0  0  0
    6.9637  -15.0886   18.8022 N   0  0  0  0  0  0  0  0  0  0  0  0
    8.3305  -15.4673   20.7719 C   0  0  0  0  0  0  0  0  0  0  0  0
    7.3487  -15.4356   21.5577 O   0  0  0  0  0  0  0  0  0  0  0  0
   10.2453  -18.1893   22.3879 C   0  0  0  0  0  0  0  0  0  0  0  0
    9.5264  -16.8673   22.4896 C   0  0  2  0  0  0  0  0  0  0  0  0
    9.4774  -16.1711   21.2254 N   0  0  0  0  0  0  0  0  0  0  0  0
   10.1329  -16.0502   23.5651 C   0  0  0  0  0  0  0  0  0  0  0  0
   11.0962  -15.2429   23.3610 O   0  0  0  0  0  0  0  0  0  0  0  0
    9.2356  -12.7445   28.2440 N   0  0  0  0  0  0  0  0  0  0  0  0
    9.5492  -14.1512   28.0546 C   0  0  0  0  0  0  0  0  0  0  0  0
   10.2509  -14.6324   28.9734 O   0  0  0  0  0  0  0  0  0  0  0  0
    9.0505  -14.8704   26.8672 C   0  0  0  0  0  0  0  0  0  0  0  0
   10.1262  -15.4508   26.0273 C   0  0  2  0  0  0  0  0  0  0  0  0
    9.6271  -16.1663   24.8728 N   0  0  0  0  0  0  0  0  0  0  0  0
   10.9638  -16.3668   26.8199 C   0  0  0  0  0  0  0  0  0  0  0  0
   12.1150  -16.1566   27.2481 O   0  0  0  0  0  0  0  0  0  0  0  0
   10.4052  -17.6311   27.1353 O   0  0  0  0  0  0  0  0  0  0  0  0
  2  4  1  0
  2  1  1  1
  3  2  1  0
  4  6  1  0
  4  5  1  1
  6  7  2  0
  9  8  1  6
  9 11  1  0
 10  9  1  0
 10  6  1  0
 11 12  2  0
 11 18  1  0
 13 14  1  0
 14 16  1  0
 14 15  2  0
 17 16  1  1
 17 19  1  0
 18 17  1  0
 19 20  2  0
 19 21  1  0
M  END
$$$$
