VAN.pdb
     RDKit          3D

 21 20  0  0  1  0  0  0  0  0999 V2000
    8.2781  -15.6471   19.8153 C   0  0  0  0  0  0  0  0  0  0  0  0
    7.1556  -14.6648   19.8764 C   0  0  2  0  0  0  0  0  0  0  0  0
    6.6145  -14.4189   18.5066 C   0  0  0  0  0  0  0  0  0  0  0  0
    7.5800  -13.3419   20.5242 C   0  0  2  0  0  0  0  0  0  0  0  0
    8.5755  -12.6985   19.6871 N   0  0  0  0  0  0  0  0  0  0  0  0
    8.0733  -13.5952   21.8860 C   0  0  0  0  0  0  0  0  0  0  0  0
    9.2850  -13.8956   22.0409 O   0  0  0  0  0  0  0  0  0  0  0  0
    6.7963  -13.5900   25.4678 C   0  0  0  0  0  0  0  0  0  0  0  0
    7.7896  -13.8831   24.3714 C   0  0  2  0  0  0  0  0  0  0  0  0
    7.2853  -13.5288   23.0655 N   0  0  0  0  0  0  0  0  0  0  0  0
    8.2180  -15.2982   24.4505 C   0  0  0  0  0  0  0  0  0  0  0  0
    7.5182  -16.2594   23.9947 O   0  0  0  0  0  0  0  0  0  0  0  0
   13.1958  -18.7108   25.3552 N   0  0  0  0  0  0  0  0  0  0  0  0
   11.8456  -18.5029   24.8586 C   0  0  0  0  0  0  0  0  0  0  0  0
   11.2339  -19.5692   24.6197 O   0  0  0  0  0  0  0  0  0  0  0  0
   11.3212  -17.1356   24.6813 C   0  0  0  0  0  0  0  0  0  0  0  0
    9.9731  -16.9344   25.2655 C   0  0  2  0  0  0  0  0  0  0  0  0
    9.4517  -15.6010   25.0550 N   0  0  0  0  0  0  0  0  0  0  0  0
    9.9905  -17.2075   26.7125 C   0  0  0  0  0  0  0  0  0  0  0  0
    9.8090  -16.3914   27.6366 O   0  0  0  0  0  0  0  0  0  0  0  0
   10.2412  -18.5461   27.1066 O   0  0  0  0  0  0  0  0  0  0  0  0
  2  4  1  0
  2  1  1  6
  3  2  1  0
  4  6  1  0
  4  5  1  6
  6  7  2  0
  9  8  1  1
  9 11  1  0
 10  9  1  0
 10  6  1  0
 11 12  2  0
 11 18  1  0
 13 14  1  0
 14 16  1  0
 14 15  2  0
 17 16  1  1
 17 19  1  0
 18 17  1  0
 19 20  2  0
 19 21  1  0
M  END
$$$$
