VAN.pdb
     RDKit          3D

 21 20  0  0  1  0  0  0  0  0999 V2000
    8.2864  -12.9832   27.0420 C   0  0  0  0  0  0  0  0  0  0  0  0
    7.1910  -12.5448   26.1273 C   0  0  2  0  0  0  0  0  0  0  0  0
    6.3447  -11.5137   26.7983 C   0  0  0  0  0  0  0  0  0  0  0  0
    6.3243  -13.7194   25.6592 C   0  0  2  0  0  0  0  0  0  0  0  0
    5.8972  -14.4871   26.8142 N   0  0  0  0  0  0  0  0  0  0  0  0
    7.0765  -14.5335   24.6932 C   0  0  0  0  0  0  0  0  0  0  0  0
    7.7598  -15.4984   25.1227 O   0  0  0  0  0  0  0  0  0  0  0  0
    7.6894  -14.7204   20.9426 C   0  0  0  0  0  0  0  0  0  0  0  0
    7.8201  -15.1753   22.3746 C   0  0  2  0  0  0  0  0  0  0  0  0
    7.0993  -14.3215   23.2893 N   0  0  0  0  0  0  0  0  0  0  0  0
    9.2519  -15.3068   22.7284 C   0  0  0  0  0  0  0  0  0  0  0  0
    9.8615  -14.4685   23.4680 O   0  0  0  0  0  0  0  0  0  0  0  0
   10.8246  -17.7306   26.2368 N   0  0  0  0  0  0  0  0  0  0  0  0
   11.5697  -17.2649   25.0789 C   0  0  0  0  0  0  0  0  0  0  0  0
   12.4258  -16.3940   25.3557 O   0  0  0  0  0  0  0  0  0  0  0  0
   11.2840  -17.8157   23.7406 C   0  0  0  0  0  0  0  0  0  0  0  0
   11.2996  -16.7980   22.6621 C   0  0  2  0  0  0  0  0  0  0  0  0
    9.9765  -16.4040   22.2283 N   0  0  0  0  0  0  0  0  0  0  0  0
   12.0472  -17.2937   21.4941 C   0  0  0  0  0  0  0  0  0  0  0  0
   11.7264  -18.2272   20.7336 O   0  0  0  0  0  0  0  0  0  0  0  0
   13.2698  -16.6411   21.1947 O   0  0  0  0  0  0  0  0  0  0  0  0
  2  4  1  0
  2  1  1  1
  3  2  1  0
  4  6  1  0
  4  5  1  1
  6  7  2  0
  9  8  1  6
  9 11  1  0
 10  9  1  0
 10  6  1  0
 11 12  2  0
 11 18  1  0
 13 14  1  0
 14 16  1  0
 14 15  2  0
 17 16  1  1
 17 19  1  0
 18 17  1  0
 19 20  2  0
 19 21  1  0
M  END
$$$$
