VQW.pdb
     RDKit          3D

 31 32  0  0  1  0  0  0  0  0999 V2000
   22.6271  -18.9959  -17.0014 C   0  0  0  0  0  0  0  0  0  0  0  0
   23.9772  -18.3054  -16.9612 C   0  0  2  0  0  0  0  0  0  0  0  0
   24.6037  -18.4602  -18.3304 C   0  0  0  0  0  0  0  0  0  0  0  0
   24.7980  -18.9434  -15.8962 C   0  0  2  0  0  0  0  0  0  0  0  0
   25.0399  -20.3589  -16.2231 N   0  0  0  0  0  0  0  0  0  0  0  0
   24.2599  -18.8956  -14.5491 C   0  0  0  0  0  0  0  0  0  0  0  0
   24.0889  -17.7401  -14.0309 O   0  0  0  0  0  0  0  0  0  0  0  0
   20.0887  -22.4940  -12.5435 N   0  0  0  0  0  0  0  0  0  0  0  0
   20.3432  -21.9522  -11.2684 C   0  0  0  0  0  0  0  0  0  0  0  0
   19.5653  -22.2726  -10.3378 O   0  0  0  0  0  0  0  0  0  0  0  0
   21.5069  -21.0439  -11.1121 C   0  0  0  0  0  0  0  0  0  0  0  0
   22.2139  -20.8642  -12.4008 C   0  0  0  0  0  0  0  0  0  0  0  0
   23.4131  -19.9567  -12.4016 C   0  0  2  0  0  0  0  0  0  0  0  0
   23.9229  -20.0468  -13.7991 N   0  0  0  0  0  0  0  0  0  0  0  0
   24.4497  -20.5038  -11.4910 C   0  0  0  0  0  0  0  0  0  0  0  0
   25.0257  -21.6110  -11.7764 O   0  0  0  0  0  0  0  0  0  0  0  0
   24.8774  -19.8857  -10.2930 N   0  0  0  0  0  0  0  0  0  0  0  0
   25.9022  -20.5120   -9.4254 C   0  0  1  0  0  0  0  0  0  0  0  0
   26.9535  -19.5000   -9.1303 C   0  0  0  0  0  0  0  0  0  0  0  0
   28.0663  -20.0062   -8.3103 C   0  0  0  0  0  0  0  0  0  0  0  0
   28.9093  -21.0763   -8.6607 C   0  0  0  0  0  0  0  0  0  0  0  0
   29.7917  -21.3095   -7.6932 N   0  0  0  0  0  0  0  0  0  0  0  0
   29.5666  -20.4301   -6.7084 C   0  0  0  0  0  0  0  0  0  0  0  0
   30.2027  -20.2233   -5.4862 C   0  0  0  0  0  0  0  0  0  0  0  0
   29.7776  -19.2193   -4.6531 C   0  0  0  0  0  0  0  0  0  0  0  0
   28.7256  -18.3991   -4.9959 C   0  0  0  0  0  0  0  0  0  0  0  0
   28.1128  -18.6210   -6.2046 C   0  0  0  0  0  0  0  0  0  0  0  0
   28.5243  -19.6259   -7.0569 C   0  0  0  0  0  0  0  0  0  0  0  0
   25.2619  -21.1063   -8.2739 C   0  0  0  0  0  0  0  0  0  0  0  0
   24.1108  -20.7455   -7.8707 O   0  0  0  0  0  0  0  0  0  0  0  0
   25.8447  -22.1182   -7.5114 O   0  0  0  0  0  0  0  0  0  0  0  0
  2  3  1  6
  2  1  1  0
  4  2  1  0
  4  5  1  6
  6  4  1  0
  6  7  2  0
  8  9  1  0
  9 10  2  0
 11 12  1  0
 11  9  1  0
 13 14  1  0
 13 12  1  6
 14  6  1  0
 15 13  1  0
 16 15  2  0
 17 15  1  0
 18 17  1  0
 18 19  1  1
 20 19  1  0
 20 28  1  0
 21 22  1  0
 21 20  2  0
 22 23  1  0
 23 28  2  0
 23 24  1  0
 24 25  2  0
 25 26  1  0
 27 26  2  0
 28 27  1  0
 29 18  1  0
 29 31  1  0
 30 29  2  0
M  END
$$$$
