VQW.pdb
     RDKit          3D

 31 32  0  0  1  0  0  0  0  0999 V2000
   27.3222  -21.0925  -10.1493 C   0  0  0  0  0  0  0  0  0  0  0  0
   26.6540  -19.7992   -9.7226 C   0  0  2  0  0  0  0  0  0  0  0  0
   26.7829  -19.7003   -8.2177 C   0  0  0  0  0  0  0  0  0  0  0  0
   25.2319  -19.8405  -10.1596 C   0  0  2  0  0  0  0  0  0  0  0  0
   24.5330  -20.9589   -9.5041 N   0  0  0  0  0  0  0  0  0  0  0  0
   24.9972  -19.9596  -11.5869 C   0  0  0  0  0  0  0  0  0  0  0  0
   25.3147  -18.9586  -12.3150 O   0  0  0  0  0  0  0  0  0  0  0  0
   25.0554  -25.1387  -14.5766 N   0  0  0  0  0  0  0  0  0  0  0  0
   24.6765  -24.3637  -15.6902 C   0  0  0  0  0  0  0  0  0  0  0  0
   24.6457  -24.9330  -16.8077 O   0  0  0  0  0  0  0  0  0  0  0  0
   24.3418  -22.9346  -15.4687 C   0  0  0  0  0  0  0  0  0  0  0  0
   24.4599  -22.5801  -14.0357 C   0  0  0  0  0  0  0  0  0  0  0  0
   24.1382  -21.1616  -13.6538 C   0  0  2  0  0  0  0  0  0  0  0  0
   24.4442  -21.1104  -12.1962 N   0  0  0  0  0  0  0  0  0  0  0  0
   22.6854  -20.9168  -13.8341 C   0  0  0  0  0  0  0  0  0  0  0  0
   21.9723  -20.5593  -12.8327 O   0  0  0  0  0  0  0  0  0  0  0  0
   21.9930  -21.0436  -15.0608 N   0  0  0  0  0  0  0  0  0  0  0  0
   21.1215  -19.9590  -15.5700 C   0  0  1  0  0  0  0  0  0  0  0  0
   21.8999  -18.6899  -15.5729 C   0  0  0  0  0  0  0  0  0  0  0  0
   21.1633  -17.5304  -16.1019 C   0  0  0  0  0  0  0  0  0  0  0  0
   20.0297  -16.9497  -15.5047 C   0  0  0  0  0  0  0  0  0  0  0  0
   19.5784  -15.9418  -16.2458 N   0  0  0  0  0  0  0  0  0  0  0  0
   20.3733  -15.8293  -17.3179 C   0  0  0  0  0  0  0  0  0  0  0  0
   20.3626  -14.9411  -18.3913 C   0  0  0  0  0  0  0  0  0  0  0  0
   21.3235  -15.0326  -19.3666 C   0  0  0  0  0  0  0  0  0  0  0  0
   22.3115  -15.9907  -19.3133 C   0  0  0  0  0  0  0  0  0  0  0  0
   22.3027  -16.8560  -18.2470 C   0  0  0  0  0  0  0  0  0  0  0  0
   21.3448  -16.7815  -17.2558 C   0  0  0  0  0  0  0  0  0  0  0  0
   20.5552  -20.3511  -16.8407 C   0  0  0  0  0  0  0  0  0  0  0  0
   19.3367  -20.1417  -17.1389 O   0  0  0  0  0  0  0  0  0  0  0  0
   21.2887  -20.9874  -17.8419 O   0  0  0  0  0  0  0  0  0  0  0  0
  2  3  1  1
  2  1  1  0
  4  2  1  0
  4  5  1  1
  6  4  1  0
  6  7  2  0
  8  9  1  0
  9 10  2  0
 11 12  1  0
 11  9  1  0
 13 14  1  0
 13 12  1  1
 14  6  1  0
 15 13  1  0
 16 15  2  0
 17 15  1  0
 18 17  1  0
 18 19  1  6
 20 19  1  0
 20 28  1  0
 21 22  1  0
 21 20  2  0
 22 23  1  0
 23 28  2  0
 23 24  1  0
 24 25  2  0
 25 26  1  0
 27 26  2  0
 28 27  1  0
 29 18  1  0
 29 31  1  0
 30 29  2  0
M  END
$$$$
