VQW.pdb
     RDKit          3D

 31 32  0  0  1  0  0  0  0  0999 V2000
   25.3975  -18.2366  -17.0793 C   0  0  0  0  0  0  0  0  0  0  0  0
   25.1531  -19.7092  -16.8097 C   0  0  2  0  0  0  0  0  0  0  0  0
   24.9671  -20.3881  -18.1497 C   0  0  0  0  0  0  0  0  0  0  0  0
   23.9456  -19.8336  -15.9485 C   0  0  2  0  0  0  0  0  0  0  0  0
   22.7992  -19.1622  -16.5840 N   0  0  0  0  0  0  0  0  0  0  0  0
   24.0582  -19.3139  -14.5981 C   0  0  0  0  0  0  0  0  0  0  0  0
   24.2711  -18.0601  -14.4723 O   0  0  0  0  0  0  0  0  0  0  0  0
   20.1768  -19.0032  -10.6604 N   0  0  0  0  0  0  0  0  0  0  0  0
   20.5938  -20.3481  -10.7010 C   0  0  0  0  0  0  0  0  0  0  0  0
   19.8024  -21.2129  -10.2542 O   0  0  0  0  0  0  0  0  0  0  0  0
   21.9331  -20.6503  -11.2655 C   0  0  0  0  0  0  0  0  0  0  0  0
   22.6596  -19.4036  -11.5986 C   0  0  0  0  0  0  0  0  0  0  0  0
   24.0811  -19.5458  -12.0681 C   0  0  2  0  0  0  0  0  0  0  0  0
   23.9449  -20.1160  -13.4383 N   0  0  0  0  0  0  0  0  0  0  0  0
   24.7872  -20.5373  -11.2186 C   0  0  0  0  0  0  0  0  0  0  0  0
   24.5096  -21.7821  -11.3306 O   0  0  0  0  0  0  0  0  0  0  0  0
   25.7801  -20.2181  -10.2634 N   0  0  0  0  0  0  0  0  0  0  0  0
   26.4262  -21.2685   -9.4423 C   0  0  1  0  0  0  0  0  0  0  0  0
   27.7653  -20.7774   -9.0157 C   0  0  0  0  0  0  0  0  0  0  0  0
   27.7307  -19.8268   -7.8923 C   0  0  0  0  0  0  0  0  0  0  0  0
   27.0274  -18.6086   -7.8833 C   0  0  0  0  0  0  0  0  0  0  0  0
   27.2263  -17.9651   -6.7365 N   0  0  0  0  0  0  0  0  0  0  0  0
   28.0386  -18.7133   -5.9787 C   0  0  0  0  0  0  0  0  0  0  0  0
   28.5473  -18.5220   -4.6958 C   0  0  0  0  0  0  0  0  0  0  0  0
   29.3593  -19.4731   -4.1313 C   0  0  0  0  0  0  0  0  0  0  0  0
   29.6899  -20.6272   -4.8063 C   0  0  0  0  0  0  0  0  0  0  0  0
   29.1781  -20.7949   -6.0695 C   0  0  0  0  0  0  0  0  0  0  0  0
   28.3602  -19.8501   -6.6560 C   0  0  0  0  0  0  0  0  0  0  0  0
   25.5340  -21.6649   -8.3764 C   0  0  0  0  0  0  0  0  0  0  0  0
   25.8624  -22.5195   -7.4935 O   0  0  0  0  0  0  0  0  0  0  0  0
   24.2469  -21.1498   -8.2242 O   0  0  0  0  0  0  0  0  0  0  0  0
  2  3  1  6
  2  1  1  0
  4  2  1  0
  4  5  1  6
  6  4  1  0
  6  7  2  0
  8  9  1  0
  9 10  2  0
 11 12  1  0
 11  9  1  0
 13 14  1  0
 13 12  1  1
 14  6  1  0
 15 13  1  0
 16 15  2  0
 17 15  1  0
 18 17  1  0
 18 19  1  1
 20 19  1  0
 20 28  1  0
 21 22  1  0
 21 20  2  0
 22 23  1  0
 23 28  2  0
 23 24  1  0
 24 25  2  0
 25 26  1  0
 27 26  2  0
 28 27  1  0
 29 18  1  0
 29 31  1  0
 30 29  2  0
M  END
$$$$
