VQW.pdb
     RDKit          3D

 31 32  0  0  1  0  0  0  0  0999 V2000
   20.4688  -19.1569  -16.5558 C   0  0  0  0  0  0  0  0  0  0  0  0
   21.4417  -18.0292  -16.8433 C   0  0  2  0  0  0  0  0  0  0  0  0
   21.5480  -17.8979  -18.3475 C   0  0  0  0  0  0  0  0  0  0  0  0
   22.7494  -18.3682  -16.2186 C   0  0  2  0  0  0  0  0  0  0  0  0
   23.2948  -19.5965  -16.8208 N   0  0  0  0  0  0  0  0  0  0  0  0
   22.7497  -18.5540  -14.7793 C   0  0  0  0  0  0  0  0  0  0  0  0
   22.4542  -17.5393  -14.0608 O   0  0  0  0  0  0  0  0  0  0  0  0
   21.2135  -20.7980   -9.9205 N   0  0  0  0  0  0  0  0  0  0  0  0
   20.2721  -20.6537  -10.9583 C   0  0  0  0  0  0  0  0  0  0  0  0
   19.0935  -20.3704  -10.6351 O   0  0  0  0  0  0  0  0  0  0  0  0
   20.7342  -20.8457  -12.3559 C   0  0  0  0  0  0  0  0  0  0  0  0
   22.1921  -21.1021  -12.3999 C   0  0  0  0  0  0  0  0  0  0  0  0
   23.0857  -19.9220  -12.6648 C   0  0  2  0  0  0  0  0  0  0  0  0
   23.0559  -19.7826  -14.1483 N   0  0  0  0  0  0  0  0  0  0  0  0
   24.4742  -20.2494  -12.2551 C   0  0  0  0  0  0  0  0  0  0  0  0
   25.1849  -21.0266  -12.9832 O   0  0  0  0  0  0  0  0  0  0  0  0
   25.1080  -19.7575  -11.0905 N   0  0  0  0  0  0  0  0  0  0  0  0
   26.5381  -20.0313  -10.8167 C   0  0  1  0  0  0  0  0  0  0  0  0
   26.9462  -19.2531   -9.6149 C   0  0  0  0  0  0  0  0  0  0  0  0
   26.7283  -19.9535   -8.3387 C   0  0  0  0  0  0  0  0  0  0  0  0
   25.7659  -20.9555   -8.1186 C   0  0  0  0  0  0  0  0  0  0  0  0
   25.7985  -21.3619   -6.8526 N   0  0  0  0  0  0  0  0  0  0  0  0
   26.7514  -20.6651   -6.2198 C   0  0  0  0  0  0  0  0  0  0  0  0
   27.2094  -20.7031   -4.9045 C   0  0  0  0  0  0  0  0  0  0  0  0
   28.2337  -19.8794   -4.5111 C   0  0  0  0  0  0  0  0  0  0  0  0
   28.8300  -19.0043   -5.3918 C   0  0  0  0  0  0  0  0  0  0  0  0
   28.3625  -18.9829   -6.6828 C   0  0  0  0  0  0  0  0  0  0  0  0
   27.3327  -19.8026   -7.0988 C   0  0  0  0  0  0  0  0  0  0  0  0
   26.7506  -21.4590  -10.7421 C   0  0  0  0  0  0  0  0  0  0  0  0
   25.7941  -22.2851  -10.5997 O   0  0  0  0  0  0  0  0  0  0  0  0
   28.0113  -22.0504  -10.8192 O   0  0  0  0  0  0  0  0  0  0  0  0
  2  3  1  6
  2  1  1  0
  4  2  1  0
  4  5  1  6
  6  4  1  0
  6  7  2  0
  8  9  1  0
  9 10  2  0
 11 12  1  0
 11  9  1  0
 13 14  1  0
 13 12  1  6
 14  6  1  0
 15 13  1  0
 16 15  2  0
 17 15  1  0
 18 17  1  0
 18 19  1  1
 20 19  1  0
 20 28  1  0
 21 22  1  0
 21 20  2  0
 22 23  1  0
 23 28  2  0
 23 24  1  0
 24 25  2  0
 25 26  1  0
 27 26  2  0
 28 27  1  0
 29 18  1  0
 29 31  1  0
 30 29  2  0
M  END
$$$$
