VQW.pdb
     RDKit          3D

 31 32  0  0  1  0  0  0  0  0999 V2000
   26.1896  -17.4056  -16.9828 C   0  0  0  0  0  0  0  0  0  0  0  0
   27.4617  -17.2275  -16.1759 C   0  0  2  0  0  0  0  0  0  0  0  0
   28.6212  -17.2656  -17.1481 C   0  0  0  0  0  0  0  0  0  0  0  0
   27.5377  -18.3245  -15.1730 C   0  0  2  0  0  0  0  0  0  0  0  0
   27.5458  -19.6314  -15.8518 N   0  0  0  0  0  0  0  0  0  0  0  0
   26.4854  -18.3615  -14.1741 C   0  0  0  0  0  0  0  0  0  0  0  0
   26.3370  -17.3221  -13.4456 O   0  0  0  0  0  0  0  0  0  0  0  0
   21.7828  -18.3125  -14.8192 N   0  0  0  0  0  0  0  0  0  0  0  0
   22.5010  -19.1329  -15.7111 C   0  0  0  0  0  0  0  0  0  0  0  0
   22.3091  -18.9597  -16.9387 O   0  0  0  0  0  0  0  0  0  0  0  0
   23.4305  -20.1411  -15.1427 C   0  0  0  0  0  0  0  0  0  0  0  0
   23.3916  -20.1205  -13.6624 C   0  0  0  0  0  0  0  0  0  0  0  0
   24.5444  -19.4604  -12.9577 C   0  0  2  0  0  0  0  0  0  0  0  0
   25.6339  -19.4734  -13.9746 N   0  0  0  0  0  0  0  0  0  0  0  0
   24.9691  -20.2988  -11.8088 C   0  0  0  0  0  0  0  0  0  0  0  0
   25.1514  -21.5554  -11.9724 O   0  0  0  0  0  0  0  0  0  0  0  0
   25.2035  -19.8144  -10.5009 N   0  0  0  0  0  0  0  0  0  0  0  0
   25.5174  -20.7342   -9.3826 C   0  0  1  0  0  0  0  0  0  0  0  0
   26.7615  -20.2603   -8.7164 C   0  0  0  0  0  0  0  0  0  0  0  0
   26.9052  -20.7025   -7.3197 C   0  0  0  0  0  0  0  0  0  0  0  0
   26.2654  -21.8203   -6.7540 C   0  0  0  0  0  0  0  0  0  0  0  0
   26.5738  -21.9299   -5.4649 N   0  0  0  0  0  0  0  0  0  0  0  0
   27.3990  -20.9227   -5.1508 C   0  0  0  0  0  0  0  0  0  0  0  0
   28.0292  -20.5780   -3.9570 C   0  0  0  0  0  0  0  0  0  0  0  0
   28.8580  -19.4855   -3.9097 C   0  0  0  0  0  0  0  0  0  0  0  0
   29.0875  -18.7097   -5.0243 C   0  0  0  0  0  0  0  0  0  0  0  0
   28.4557  -19.0672   -6.1901 C   0  0  0  0  0  0  0  0  0  0  0  0
   27.6177  -20.1619   -6.2588 C   0  0  0  0  0  0  0  0  0  0  0  0
   24.3594  -20.8681   -8.5281 C   0  0  0  0  0  0  0  0  0  0  0  0
   23.3931  -20.0414   -8.5531 O   0  0  0  0  0  0  0  0  0  0  0  0
   24.2015  -21.9059   -7.6099 O   0  0  0  0  0  0  0  0  0  0  0  0
  2  3  1  6
  2  1  1  0
  4  2  1  0
  4  5  1  6
  6  4  1  0
  6  7  2  0
  8  9  1  0
  9 10  2  0
 11 12  1  0
 11  9  1  0
 13 14  1  0
 13 12  1  6
 14  6  1  0
 15 13  1  0
 16 15  2  0
 17 15  1  0
 18 17  1  0
 18 19  1  1
 20 19  1  0
 20 28  1  0
 21 22  1  0
 21 20  2  0
 22 23  1  0
 23 28  2  0
 23 24  1  0
 24 25  2  0
 25 26  1  0
 27 26  2  0
 28 27  1  0
 29 18  1  0
 29 31  1  0
 30 29  2  0
M  END
$$$$
