VQW.pdb
     RDKit          3D

 31 32  0  0  1  0  0  0  0  0999 V2000
   20.4983  -22.2569  -17.7868 C   0  0  0  0  0  0  0  0  0  0  0  0
   19.5396  -21.9412  -16.6544 C   0  0  2  0  0  0  0  0  0  0  0  0
   18.4546  -21.0487  -17.2179 C   0  0  0  0  0  0  0  0  0  0  0  0
   20.3038  -21.2722  -15.5665 C   0  0  2  0  0  0  0  0  0  0  0  0
   20.6694  -19.9044  -15.9718 N   0  0  0  0  0  0  0  0  0  0  0  0
   21.5190  -21.9339  -15.1286 C   0  0  0  0  0  0  0  0  0  0  0  0
   21.3921  -23.0798  -14.5772 O   0  0  0  0  0  0  0  0  0  0  0  0
   26.8455  -21.6165  -17.7654 N   0  0  0  0  0  0  0  0  0  0  0  0
   27.0976  -22.6950  -16.8950 C   0  0  0  0  0  0  0  0  0  0  0  0
   28.1257  -23.3818  -17.1075 O   0  0  0  0  0  0  0  0  0  0  0  0
   26.1361  -22.9456  -15.7922 C   0  0  0  0  0  0  0  0  0  0  0  0
   25.0253  -21.9668  -15.8269 C   0  0  0  0  0  0  0  0  0  0  0  0
   24.0227  -22.0310  -14.7079 C   0  0  2  0  0  0  0  0  0  0  0  0
   22.8114  -21.3792  -15.2815 N   0  0  0  0  0  0  0  0  0  0  0  0
   24.4989  -21.2087  -13.5676 C   0  0  0  0  0  0  0  0  0  0  0  0
   24.1943  -19.9665  -13.5093 O   0  0  0  0  0  0  0  0  0  0  0  0
   25.2850  -21.6941  -12.4969 N   0  0  0  0  0  0  0  0  0  0  0  0
   25.7659  -20.7936  -11.4231 C   0  0  1  0  0  0  0  0  0  0  0  0
   26.0407  -21.6107  -10.2094 C   0  0  0  0  0  0  0  0  0  0  0  0
   26.5031  -20.8322   -9.0488 C   0  0  0  0  0  0  0  0  0  0  0  0
   25.6855  -20.0254   -8.2367 C   0  0  0  0  0  0  0  0  0  0  0  0
   26.4100  -19.4281   -7.2948 N   0  0  0  0  0  0  0  0  0  0  0  0
   27.6844  -19.8097   -7.4501 C   0  0  0  0  0  0  0  0  0  0  0  0
   28.8391  -19.4999   -6.7347 C   0  0  0  0  0  0  0  0  0  0  0  0
   30.0406  -20.0538   -7.0986 C   0  0  0  0  0  0  0  0  0  0  0  0
   30.1383  -20.9191   -8.1657 C   0  0  0  0  0  0  0  0  0  0  0  0
   28.9881  -21.2100   -8.8571 C   0  0  0  0  0  0  0  0  0  0  0  0
   27.7697  -20.6631   -8.5079 C   0  0  0  0  0  0  0  0  0  0  0  0
   26.8739  -20.0058  -11.9139 C   0  0  0  0  0  0  0  0  0  0  0  0
   27.7941  -20.4997  -12.6398 O   0  0  0  0  0  0  0  0  0  0  0  0
   27.0294  -18.6478  -11.6371 O   0  0  0  0  0  0  0  0  0  0  0  0
  2  3  1  6
  2  1  1  0
  4  2  1  0
  4  5  1  6
  6  4  1  0
  6  7  2  0
  8  9  1  0
  9 10  2  0
 11 12  1  0
 11  9  1  0
 13 14  1  0
 13 12  1  6
 14  6  1  0
 15 13  1  0
 16 15  2  0
 17 15  1  0
 18 17  1  0
 18 19  1  1
 20 19  1  0
 20 28  1  0
 21 22  1  0
 21 20  2  0
 22 23  1  0
 23 28  2  0
 23 24  1  0
 24 25  2  0
 25 26  1  0
 27 26  2  0
 28 27  1  0
 29 18  1  0
 29 31  1  0
 30 29  2  0
M  END
$$$$
