VQW.pdb
     RDKit          3D

 31 32  0  0  1  0  0  0  0  0999 V2000
   26.5045  -26.0503  -17.2819 C   0  0  0  0  0  0  0  0  0  0  0  0
   25.7023  -25.3400  -16.2082 C   0  0  2  0  0  0  0  0  0  0  0  0
   24.3434  -26.0040  -16.1472 C   0  0  0  0  0  0  0  0  0  0  0  0
   25.6043  -23.9002  -16.5722 C   0  0  2  0  0  0  0  0  0  0  0  0
   26.0702  -23.6945  -17.9540 N   0  0  0  0  0  0  0  0  0  0  0  0
   26.3290  -22.9688  -15.7273 C   0  0  0  0  0  0  0  0  0  0  0  0
   27.5839  -23.1651  -15.5867 O   0  0  0  0  0  0  0  0  0  0  0  0
   28.6255  -18.9838  -14.2825 N   0  0  0  0  0  0  0  0  0  0  0  0
   28.0594  -18.7300  -15.5472 C   0  0  0  0  0  0  0  0  0  0  0  0
   28.8167  -18.2796  -16.4402 O   0  0  0  0  0  0  0  0  0  0  0  0
   26.6140  -19.0101  -15.7374 C   0  0  0  0  0  0  0  0  0  0  0  0
   26.0262  -19.6066  -14.5161 C   0  0  0  0  0  0  0  0  0  0  0  0
   26.4844  -20.9893  -14.1423 C   0  0  2  0  0  0  0  0  0  0  0  0
   25.7215  -21.8757  -15.0661 N   0  0  0  0  0  0  0  0  0  0  0  0
   26.0634  -21.2923  -12.7516 C   0  0  0  0  0  0  0  0  0  0  0  0
   24.8275  -21.5055  -12.4942 O   0  0  0  0  0  0  0  0  0  0  0  0
   26.9392  -21.3742  -11.6442 N   0  0  0  0  0  0  0  0  0  0  0  0
   26.4356  -21.2791  -10.2541 C   0  0  1  0  0  0  0  0  0  0  0  0
   27.5976  -21.0893   -9.3429 C   0  0  0  0  0  0  0  0  0  0  0  0
   27.2310  -20.7381   -7.9612 C   0  0  0  0  0  0  0  0  0  0  0  0
   25.9305  -20.7975   -7.4281 C   0  0  0  0  0  0  0  0  0  0  0  0
   25.9264  -20.3829   -6.1644 N   0  0  0  0  0  0  0  0  0  0  0  0
   27.1811  -20.0491   -5.8353 C   0  0  0  0  0  0  0  0  0  0  0  0
   27.7337  -19.5766   -4.6468 C   0  0  0  0  0  0  0  0  0  0  0  0
   29.0807  -19.3271   -4.5685 C   0  0  0  0  0  0  0  0  0  0  0  0
   29.9129  -19.5336   -5.6463 C   0  0  0  0  0  0  0  0  0  0  0  0
   29.3471  -19.9989   -6.8078 C   0  0  0  0  0  0  0  0  0  0  0  0
   27.9944  -20.2555   -6.9078 C   0  0  0  0  0  0  0  0  0  0  0  0
   25.4082  -20.2652  -10.1811 C   0  0  0  0  0  0  0  0  0  0  0  0
   25.5436  -19.1166  -10.7104 O   0  0  0  0  0  0  0  0  0  0  0  0
   24.1896  -20.4557   -9.5301 O   0  0  0  0  0  0  0  0  0  0  0  0
  2  3  1  6
  2  1  1  0
  4  2  1  0
  4  5  1  6
  6  4  1  0
  6  7  2  0
  8  9  1  0
  9 10  2  0
 11 12  1  0
 11  9  1  0
 13 14  1  0
 13 12  1  6
 14  6  1  0
 15 13  1  0
 16 15  2  0
 17 15  1  0
 18 17  1  0
 18 19  1  1
 20 19  1  0
 20 28  1  0
 21 22  1  0
 21 20  2  0
 22 23  1  0
 23 28  2  0
 23 24  1  0
 24 25  2  0
 25 26  1  0
 27 26  2  0
 28 27  1  0
 29 18  1  0
 29 31  1  0
 30 29  2  0
M  END
$$$$
