VQW.pdb
     RDKit          3D

 31 32  0  0  1  0  0  0  0  0999 V2000
   29.9769  -22.9710  -18.8168 C   0  0  0  0  0  0  0  0  0  0  0  0
   29.4217  -22.3035  -17.5729 C   0  0  2  0  0  0  0  0  0  0  0  0
   28.7655  -23.3817  -16.7374 C   0  0  0  0  0  0  0  0  0  0  0  0
   28.4516  -21.2573  -17.9961 C   0  0  2  0  0  0  0  0  0  0  0  0
   29.1207  -20.2628  -18.8518 N   0  0  0  0  0  0  0  0  0  0  0  0
   27.7780  -20.5323  -16.9344 C   0  0  0  0  0  0  0  0  0  0  0  0
   28.4523  -19.6356  -16.3227 O   0  0  0  0  0  0  0  0  0  0  0  0
   22.3198  -19.5396  -14.3368 N   0  0  0  0  0  0  0  0  0  0  0  0
   22.8246  -18.2934  -14.7569 C   0  0  0  0  0  0  0  0  0  0  0  0
   22.2771  -17.2627  -14.2968 O   0  0  0  0  0  0  0  0  0  0  0  0
   23.9627  -18.2831  -15.7098 C   0  0  0  0  0  0  0  0  0  0  0  0
   24.4414  -19.6589  -15.9763 C   0  0  0  0  0  0  0  0  0  0  0  0
   25.7927  -20.0299  -15.4307 C   0  0  2  0  0  0  0  0  0  0  0  0
   26.4361  -20.7686  -16.5539 N   0  0  0  0  0  0  0  0  0  0  0  0
   25.6275  -20.9663  -14.2910 C   0  0  0  0  0  0  0  0  0  0  0  0
   25.2084  -22.1573  -14.5029 O   0  0  0  0  0  0  0  0  0  0  0  0
   25.9065  -20.6498  -12.9411 N   0  0  0  0  0  0  0  0  0  0  0  0
   25.6827  -21.6337  -11.8562 C   0  0  1  0  0  0  0  0  0  0  0  0
   26.8843  -21.6490  -10.9774 C   0  0  0  0  0  0  0  0  0  0  0  0
   26.7918  -20.7550   -9.8116 C   0  0  0  0  0  0  0  0  0  0  0  0
   25.7241  -19.8786   -9.5455 C   0  0  0  0  0  0  0  0  0  0  0  0
   25.9577  -19.1843   -8.4355 N   0  0  0  0  0  0  0  0  0  0  0  0
   27.1457  -19.5684   -7.9506 C   0  0  0  0  0  0  0  0  0  0  0  0
   27.8541  -19.1790   -6.8158 C   0  0  0  0  0  0  0  0  0  0  0  0
   29.0665  -19.7559   -6.5329 C   0  0  0  0  0  0  0  0  0  0  0  0
   29.6100  -20.7221   -7.3501 C   0  0  0  0  0  0  0  0  0  0  0  0
   28.8952  -21.0903   -8.4634 C   0  0  0  0  0  0  0  0  0  0  0  0
   27.6743  -20.5220   -8.7665 C   0  0  0  0  0  0  0  0  0  0  0  0
   24.4274  -21.3499  -11.1985 C   0  0  0  0  0  0  0  0  0  0  0  0
   23.7257  -22.2559  -10.6465 O   0  0  0  0  0  0  0  0  0  0  0  0
   23.8806  -20.0698  -11.1122 O   0  0  0  0  0  0  0  0  0  0  0  0
  2  3  1  1
  2  1  1  0
  4  2  1  0
  4  5  1  1
  6  4  1  0
  6  7  2  0
  8  9  1  0
  9 10  2  0
 11 12  1  0
 11  9  1  0
 13 14  1  0
 13 12  1  6
 14  6  1  0
 15 13  1  0
 16 15  2  0
 17 15  1  0
 18 17  1  0
 18 19  1  1
 20 19  1  0
 20 28  1  0
 21 22  1  0
 21 20  2  0
 22 23  1  0
 23 28  2  0
 23 24  1  0
 24 25  2  0
 25 26  1  0
 27 26  2  0
 28 27  1  0
 29 18  1  0
 29 31  1  0
 30 29  2  0
M  END
$$$$
