VQW.pdb
     RDKit          3D

 31 32  0  0  1  0  0  0  0  0999 V2000
   26.2019  -17.9805  -16.3796 C   0  0  0  0  0  0  0  0  0  0  0  0
   27.4603  -17.6060  -15.6198 C   0  0  2  0  0  0  0  0  0  0  0  0
   28.6097  -17.6460  -16.6038 C   0  0  0  0  0  0  0  0  0  0  0  0
   27.6429  -18.5783  -14.5080 C   0  0  2  0  0  0  0  0  0  0  0  0
   27.7839  -19.9420  -15.0460 N   0  0  0  0  0  0  0  0  0  0  0  0
   26.5968  -18.6151  -13.5026 C   0  0  0  0  0  0  0  0  0  0  0  0
   26.3399  -17.5239  -12.8891 O   0  0  0  0  0  0  0  0  0  0  0  0
   21.8255  -22.3441  -13.5805 N   0  0  0  0  0  0  0  0  0  0  0  0
   21.7144  -21.0166  -14.0383 C   0  0  0  0  0  0  0  0  0  0  0  0
   20.7250  -20.7329  -14.7556 O   0  0  0  0  0  0  0  0  0  0  0  0
   22.7685  -20.0484  -13.6444 C   0  0  0  0  0  0  0  0  0  0  0  0
   23.7343  -20.6701  -12.7097 C   0  0  0  0  0  0  0  0  0  0  0  0
   24.7995  -19.7779  -12.1343 C   0  0  2  0  0  0  0  0  0  0  0  0
   25.8635  -19.7805  -13.1778 N   0  0  0  0  0  0  0  0  0  0  0  0
   25.3523  -20.3959  -10.9032 C   0  0  0  0  0  0  0  0  0  0  0  0
   26.1267  -21.4113  -10.9947 O   0  0  0  0  0  0  0  0  0  0  0  0
   25.0939  -19.9433   -9.5885 N   0  0  0  0  0  0  0  0  0  0  0  0
   25.6221  -20.6644   -8.4069 C   0  0  1  0  0  0  0  0  0  0  0  0
   25.6237  -19.7318   -7.2464 C   0  0  0  0  0  0  0  0  0  0  0  0
   26.9644  -19.2930   -6.8257 C   0  0  0  0  0  0  0  0  0  0  0  0
   27.7253  -18.2934   -7.4587 C   0  0  0  0  0  0  0  0  0  0  0  0
   28.9046  -18.1568   -6.8592 N   0  0  0  0  0  0  0  0  0  0  0  0
   28.9565  -19.0314   -5.8461 C   0  0  0  0  0  0  0  0  0  0  0  0
   29.9419  -19.2936   -4.8967 C   0  0  0  0  0  0  0  0  0  0  0  0
   29.7301  -20.2482   -3.9342 C   0  0  0  0  0  0  0  0  0  0  0  0
   28.5547  -20.9641   -3.8795 C   0  0  0  0  0  0  0  0  0  0  0  0
   27.5976  -20.6900   -4.8252 C   0  0  0  0  0  0  0  0  0  0  0  0
   27.7910  -19.7343   -5.8023 C   0  0  0  0  0  0  0  0  0  0  0  0
   24.8856  -21.8944   -8.2229 C   0  0  0  0  0  0  0  0  0  0  0  0
   23.6784  -22.0302   -8.5998 O   0  0  0  0  0  0  0  0  0  0  0  0
   25.4291  -23.0295   -7.6219 O   0  0  0  0  0  0  0  0  0  0  0  0
  2  3  1  6
  2  1  1  0
  4  2  1  0
  4  5  1  6
  6  4  1  0
  6  7  2  0
  8  9  1  0
  9 10  2  0
 11 12  1  0
 11  9  1  0
 13 14  1  0
 13 12  1  6
 14  6  1  0
 15 13  1  0
 16 15  2  0
 17 15  1  0
 18 17  1  0
 18 19  1  1
 20 19  1  0
 20 28  1  0
 21 22  1  0
 21 20  2  0
 22 23  1  0
 23 28  2  0
 23 24  1  0
 24 25  2  0
 25 26  1  0
 27 26  2  0
 28 27  1  0
 29 18  1  0
 29 31  1  0
 30 29  2  0
M  END
$$$$
