VQW.pdb
     RDKit          3D

 31 32  0  0  1  0  0  0  0  0999 V2000
   28.7708  -18.4620  -13.5697 C   0  0  0  0  0  0  0  0  0  0  0  0
   28.7810  -19.9222  -13.9807 C   0  0  2  0  0  0  0  0  0  0  0  0
   29.8269  -20.0783  -15.0637 C   0  0  0  0  0  0  0  0  0  0  0  0
   27.4199  -20.2826  -14.4629 C   0  0  2  0  0  0  0  0  0  0  0  0
   27.1245  -19.5753  -15.7204 N   0  0  0  0  0  0  0  0  0  0  0  0
   26.3210  -20.0229  -13.5510 C   0  0  0  0  0  0  0  0  0  0  0  0
   25.5891  -19.0043  -13.7960 O   0  0  0  0  0  0  0  0  0  0  0  0
   21.4186  -18.8117  -11.2300 N   0  0  0  0  0  0  0  0  0  0  0  0
   21.6811  -19.9542  -12.0111 C   0  0  0  0  0  0  0  0  0  0  0  0
   21.2574  -19.9576  -13.1919 O   0  0  0  0  0  0  0  0  0  0  0  0
   22.4359  -21.0707  -11.3888 C   0  0  0  0  0  0  0  0  0  0  0  0
   23.7443  -21.2606  -12.0560 C   0  0  0  0  0  0  0  0  0  0  0  0
   24.9156  -20.5060  -11.4904 C   0  0  2  0  0  0  0  0  0  0  0  0
   26.0293  -20.8298  -12.4263 N   0  0  0  0  0  0  0  0  0  0  0  0
   25.2575  -21.0508  -10.1527 C   0  0  0  0  0  0  0  0  0  0  0  0
   25.6514  -22.2641  -10.0426 O   0  0  0  0  0  0  0  0  0  0  0  0
   25.1886  -20.3206   -8.9435 N   0  0  0  0  0  0  0  0  0  0  0  0
   25.3104  -20.9927   -7.6288 C   0  0  1  0  0  0  0  0  0  0  0  0
   25.4610  -19.9495   -6.5773 C   0  0  0  0  0  0  0  0  0  0  0  0
   26.8316  -19.4330   -6.4304 C   0  0  0  0  0  0  0  0  0  0  0  0
   27.3390  -18.2883   -7.0714 C   0  0  0  0  0  0  0  0  0  0  0  0
   28.6193  -18.1093   -6.7591 N   0  0  0  0  0  0  0  0  0  0  0  0
   28.9839  -19.0960   -5.9301 C   0  0  0  0  0  0  0  0  0  0  0  0
   30.1923  -19.3749   -5.2950 C   0  0  0  0  0  0  0  0  0  0  0  0
   30.2950  -20.4612   -4.4631 C   0  0  0  0  0  0  0  0  0  0  0  0
   29.2226  -21.2947   -4.2350 C   0  0  0  0  0  0  0  0  0  0  0  0
   28.0416  -21.0016   -4.8716 C   0  0  0  0  0  0  0  0  0  0  0  0
   27.9173  -19.9144   -5.7129 C   0  0  0  0  0  0  0  0  0  0  0  0
   24.2068  -21.9089   -7.4508 C   0  0  0  0  0  0  0  0  0  0  0  0
   23.1318  -21.8220   -8.1251 O   0  0  0  0  0  0  0  0  0  0  0  0
   24.2238  -22.9587   -6.5329 O   0  0  0  0  0  0  0  0  0  0  0  0
  2  3  1  6
  2  1  1  0
  4  2  1  0
  4  5  1  6
  6  4  1  0
  6  7  2  0
  8  9  1  0
  9 10  2  0
 11 12  1  0
 11  9  1  0
 13 14  1  0
 13 12  1  6
 14  6  1  0
 15 13  1  0
 16 15  2  0
 17 15  1  0
 18 17  1  0
 18 19  1  1
 20 19  1  0
 20 28  1  0
 21 22  1  0
 21 20  2  0
 22 23  1  0
 23 28  2  0
 23 24  1  0
 24 25  2  0
 25 26  1  0
 27 26  2  0
 28 27  1  0
 29 18  1  0
 29 31  1  0
 30 29  2  0
M  END
$$$$
