VQW.pdb
     RDKit          3D

 31 32  0  0  1  0  0  0  0  0999 V2000
   28.6637  -17.1864  -16.7707 C   0  0  0  0  0  0  0  0  0  0  0  0
   27.3787  -17.9922  -16.7474 C   0  0  2  0  0  0  0  0  0  0  0  0
   26.9724  -18.1512  -15.2980 C   0  0  0  0  0  0  0  0  0  0  0  0
   27.6364  -19.3037  -17.4021 C   0  0  2  0  0  0  0  0  0  0  0  0
   28.1338  -19.0964  -18.7726 N   0  0  0  0  0  0  0  0  0  0  0  0
   26.5122  -20.2182  -17.4827 C   0  0  0  0  0  0  0  0  0  0  0  0
   25.5931  -19.9385  -18.3254 O   0  0  0  0  0  0  0  0  0  0  0  0
   25.3539  -24.7466  -14.3033 N   0  0  0  0  0  0  0  0  0  0  0  0
   24.5686  -25.3102  -15.3280 C   0  0  0  0  0  0  0  0  0  0  0  0
   23.8720  -26.3124  -15.0383 O   0  0  0  0  0  0  0  0  0  0  0  0
   24.6178  -24.6849  -16.6735 C   0  0  0  0  0  0  0  0  0  0  0  0
   25.6379  -23.6124  -16.7208 C   0  0  0  0  0  0  0  0  0  0  0  0
   25.1413  -22.1940  -16.6633 C   0  0  2  0  0  0  0  0  0  0  0  0
   26.3905  -21.3816  -16.6871 N   0  0  0  0  0  0  0  0  0  0  0  0
   24.4576  -21.9601  -15.3668 C   0  0  0  0  0  0  0  0  0  0  0  0
   25.1390  -21.9442  -14.2830 O   0  0  0  0  0  0  0  0  0  0  0  0
   23.0686  -21.7404  -15.2164 N   0  0  0  0  0  0  0  0  0  0  0  0
   22.4590  -21.5455  -13.8802 C   0  0  1  0  0  0  0  0  0  0  0  0
   22.7064  -20.1424  -13.4484 C   0  0  0  0  0  0  0  0  0  0  0  0
   21.9109  -19.1379  -14.1731 C   0  0  0  0  0  0  0  0  0  0  0  0
   20.6056  -18.7390  -13.8328 C   0  0  0  0  0  0  0  0  0  0  0  0
   20.1514  -17.8420  -14.7035 N   0  0  0  0  0  0  0  0  0  0  0  0
   21.1104  -17.6279  -15.6137 C   0  0  0  0  0  0  0  0  0  0  0  0
   21.1662  -16.7844  -16.7212 C   0  0  0  0  0  0  0  0  0  0  0  0
   22.2995  -16.7407  -17.4934 C   0  0  0  0  0  0  0  0  0  0  0  0
   23.3983  -17.5177  -17.2004 C   0  0  0  0  0  0  0  0  0  0  0  0
   23.3213  -18.3422  -16.1049 C   0  0  0  0  0  0  0  0  0  0  0  0
   22.1905  -18.4017  -15.3155 C   0  0  0  0  0  0  0  0  0  0  0  0
   21.0736  -21.9561  -13.9171 C   0  0  0  0  0  0  0  0  0  0  0  0
   20.4433  -22.1348  -15.0073 O   0  0  0  0  0  0  0  0  0  0  0  0
   20.3139  -22.1903  -12.7712 O   0  0  0  0  0  0  0  0  0  0  0  0
  2  3  1  1
  2  1  1  0
  4  2  1  0
  4  5  1  6
  6  4  1  0
  6  7  2  0
  8  9  1  0
  9 10  2  0
 11 12  1  0
 11  9  1  0
 13 14  1  0
 13 12  1  1
 14  6  1  0
 15 13  1  0
 16 15  2  0
 17 15  1  0
 18 17  1  0
 18 19  1  6
 20 19  1  0
 20 28  1  0
 21 22  1  0
 21 20  2  0
 22 23  1  0
 23 28  2  0
 23 24  1  0
 24 25  2  0
 25 26  1  0
 27 26  2  0
 28 27  1  0
 29 18  1  0
 29 31  1  0
 30 29  2  0
M  END
$$$$
