FKN.pdb
     RDKit          3D

 29 29  0  0  1  0  0  0  0  0999 V2000
    6.4114  -16.4172   25.4691 N   0  0  0  0  0  0  0  0  0  0  0  0
    7.4203  -15.7669   24.6618 C   0  0  1  0  0  0  0  0  0  0  0  0
    8.1871  -14.7333   25.4561 C   0  0  0  0  0  0  0  0  0  0  0  0
    7.3630  -13.5972   25.8640 C   0  0  0  0  0  0  0  0  0  0  0  0
    6.9257  -12.6925   24.9117 C   0  0  0  0  0  0  0  0  0  0  0  0
    6.1505  -11.6327   25.3306 C   0  0  0  0  0  0  0  0  0  0  0  0
    5.8065  -11.4607   26.6719 C   0  0  0  0  0  0  0  0  0  0  0  0
    6.2549  -12.3760   27.6018 C   0  0  0  0  0  0  0  0  0  0  0  0
    7.0319  -13.4459   27.2111 C   0  0  0  0  0  0  0  0  0  0  0  0
    8.3464  -16.8542   24.1814 C   0  0  0  0  0  0  0  0  0  0  0  0
    7.9760  -18.0533   24.0985 O   0  0  0  0  0  0  0  0  0  0  0  0
    9.6853  -16.5602   23.8008 N   0  0  0  0  0  0  0  0  0  0  0  0
   10.2967  -16.9825   22.5543 C   0  0  1  0  0  0  0  0  0  0  0  0
    9.4925  -16.4175   21.4146 C   0  0  0  0  0  0  0  0  0  0  0  0
    9.1017  -17.5204   20.4764 C   0  0  0  0  0  0  0  0  0  0  0  0
    9.6642  -17.2520   19.1141 C   0  0  0  0  0  0  0  0  0  0  0  0
    9.1407  -18.3872   18.2162 C   0  0  0  0  0  0  0  0  0  0  0  0
    9.6816  -18.1502   16.8981 N   0  0  0  0  0  0  0  0  0  0  0  0
   11.6825  -16.4229   22.4356 C   0  0  0  0  0  0  0  0  0  0  0  0
   12.2818  -16.6450   21.3587 O   0  0  0  0  0  0  0  0  0  0  0  0
   14.7420  -18.0248   25.9833 N   0  0  0  0  0  0  0  0  0  0  0  0
   13.3602  -18.3754   25.7955 C   0  0  0  0  0  0  0  0  0  0  0  0
   12.9074  -19.3815   26.3689 O   0  0  0  0  0  0  0  0  0  0  0  0
   12.5222  -17.5439   24.9379 C   0  0  0  0  0  0  0  0  0  0  0  0
   13.2352  -16.3748   24.3461 C   0  0  2  0  0  0  0  0  0  0  0  0
   12.2514  -15.6962   23.4854 N   0  0  0  0  0  0  0  0  0  0  0  0
   14.4012  -16.7056   23.5089 C   0  0  0  0  0  0  0  0  0  0  0  0
   15.6019  -16.5396   23.8324 O   0  0  0  0  0  0  0  0  0  0  0  0
   14.2149  -17.2608   22.2190 O   0  0  0  0  0  0  0  0  0  0  0  0
  2  1  1  1
  3  2  1  0
  3  4  1  0
  4  9  2  0
  4  5  1  0
  5  6  2  0
  6  7  1  0
  8  7  2  0
  9  8  1  0
 10 12  1  0
 10  2  1  0
 11 10  2  0
 13 14  1  6
 13 12  1  0
 14 15  1  0
 15 16  1  0
 16 17  1  0
 17 18  1  0
 19 13  1  0
 20 19  2  0
 21 22  1  0
 22 24  1  0
 22 23  2  0
 25 24  1  6
 25 27  1  0
 25 26  1  0
 26 19  1  0
 27 29  1  0
 28 27  2  0
M  END
$$$$
