FKN.pdb
     RDKit          3D

 29 29  0  0  1  0  0  0  0  0999 V2000
    6.4044  -17.3196   25.9863 N   0  0  0  0  0  0  0  0  0  0  0  0
    6.7730  -16.0502   25.3986 C   0  0  1  0  0  0  0  0  0  0  0  0
    7.7165  -15.2766   26.2923 C   0  0  0  0  0  0  0  0  0  0  0  0
    7.2207  -13.9442   26.6318 C   0  0  0  0  0  0  0  0  0  0  0  0
    6.0366  -13.4926   26.0748 C   0  0  0  0  0  0  0  0  0  0  0  0
    5.5978  -12.2314   26.4162 C   0  0  0  0  0  0  0  0  0  0  0  0
    6.3138  -11.4192   27.2965 C   0  0  0  0  0  0  0  0  0  0  0  0
    7.4912  -11.8921   27.8381 C   0  0  0  0  0  0  0  0  0  0  0  0
    7.9539  -13.1500   27.5143 C   0  0  0  0  0  0  0  0  0  0  0  0
    7.4360  -16.3670   24.0831 C   0  0  0  0  0  0  0  0  0  0  0  0
    7.9032  -17.5077   23.8328 O   0  0  0  0  0  0  0  0  0  0  0  0
    7.5582  -15.3780   23.0679 N   0  0  0  0  0  0  0  0  0  0  0  0
    8.1686  -15.6031   21.7707 C   0  0  1  0  0  0  0  0  0  0  0  0
    7.9730  -14.3689   20.9323 C   0  0  0  0  0  0  0  0  0  0  0  0
    8.4230  -14.6362   19.5268 C   0  0  0  0  0  0  0  0  0  0  0  0
    8.0354  -13.4907   18.6424 C   0  0  0  0  0  0  0  0  0  0  0  0
    8.3940  -13.9294   17.2113 C   0  0  0  0  0  0  0  0  0  0  0  0
    7.9832  -12.8550   16.3379 N   0  0  0  0  0  0  0  0  0  0  0  0
    9.6468  -15.8070   21.9166 C   0  0  0  0  0  0  0  0  0  0  0  0
   10.2438  -15.0192   22.6855 O   0  0  0  0  0  0  0  0  0  0  0  0
   11.2374  -18.2006   23.8643 N   0  0  0  0  0  0  0  0  0  0  0  0
   11.6650  -19.0533   22.7883 C   0  0  0  0  0  0  0  0  0  0  0  0
   11.7511  -20.2781   22.9839 O   0  0  0  0  0  0  0  0  0  0  0  0
   11.9876  -18.4627   21.4936 C   0  0  0  0  0  0  0  0  0  0  0  0
   11.7483  -16.9919   21.4235 C   0  0  2  0  0  0  0  0  0  0  0  0
   10.2987  -16.8288   21.2203 N   0  0  0  0  0  0  0  0  0  0  0  0
   12.4306  -16.2943   20.3200 C   0  0  0  0  0  0  0  0  0  0  0  0
   12.0882  -16.3279   19.1136 O   0  0  0  0  0  0  0  0  0  0  0  0
   13.5764  -15.5031   20.5805 O   0  0  0  0  0  0  0  0  0  0  0  0
  2  1  1  1
  3  2  1  0
  3  4  1  0
  4  9  2  0
  4  5  1  0
  5  6  2  0
  6  7  1  0
  8  7  2  0
  9  8  1  0
 10 12  1  0
 10  2  1  0
 11 10  2  0
 13 14  1  6
 13 12  1  0
 14 15  1  0
 15 16  1  0
 16 17  1  0
 17 18  1  0
 19 13  1  0
 20 19  2  0
 21 22  1  0
 22 24  1  0
 22 23  2  0
 25 24  1  6
 25 27  1  0
 25 26  1  0
 26 19  1  0
 27 29  1  0
 28 27  2  0
M  END
$$$$
