FKN.pdb
     RDKit          3D

 29 29  0  0  1  0  0  0  0  0999 V2000
    7.7687  -13.6898   21.0923 N   0  0  0  0  0  0  0  0  0  0  0  0
    7.9288  -13.7340   22.5293 C   0  0  1  0  0  0  0  0  0  0  0  0
    6.8773  -12.9045   23.2319 C   0  0  0  0  0  0  0  0  0  0  0  0
    7.0480  -12.8730   24.6832 C   0  0  0  0  0  0  0  0  0  0  0  0
    8.2132  -12.3566   25.2238 C   0  0  0  0  0  0  0  0  0  0  0  0
    8.3416  -12.3419   26.5960 C   0  0  0  0  0  0  0  0  0  0  0  0
    7.3362  -12.8294   27.4318 C   0  0  0  0  0  0  0  0  0  0  0  0
    6.1844  -13.3391   26.8686 C   0  0  0  0  0  0  0  0  0  0  0  0
    6.0290  -13.3662   25.4989 C   0  0  0  0  0  0  0  0  0  0  0  0
    7.8078  -15.1825   22.9265 C   0  0  0  0  0  0  0  0  0  0  0  0
    6.7004  -15.6988   23.2252 O   0  0  0  0  0  0  0  0  0  0  0  0
    8.9525  -16.0256   22.9781 N   0  0  0  0  0  0  0  0  0  0  0  0
    8.9100  -17.4544   23.2284 C   0  0  1  0  0  0  0  0  0  0  0  0
    9.3692  -18.1688   21.9861 C   0  0  0  0  0  0  0  0  0  0  0  0
    9.2834  -19.6515   22.1950 C   0  0  0  0  0  0  0  0  0  0  0  0
    9.7145  -20.3659   20.9507 C   0  0  0  0  0  0  0  0  0  0  0  0
    9.5565  -21.8663   21.2558 C   0  0  0  0  0  0  0  0  0  0  0  0
   10.0359  -22.5742   20.0917 N   0  0  0  0  0  0  0  0  0  0  0  0
    9.8633  -17.8217   24.3258 C   0  0  0  0  0  0  0  0  0  0  0  0
    9.9004  -19.0310   24.6488 O   0  0  0  0  0  0  0  0  0  0  0  0
   13.4796  -15.3000   23.7920 N   0  0  0  0  0  0  0  0  0  0  0  0
   13.4141  -16.4814   24.6091 C   0  0  0  0  0  0  0  0  0  0  0  0
   13.9115  -17.5391   24.1853 O   0  0  0  0  0  0  0  0  0  0  0  0
   12.7666  -16.4119   25.9149 C   0  0  0  0  0  0  0  0  0  0  0  0
   11.5492  -17.2661   26.0323 C   0  0  2  0  0  0  0  0  0  0  0  0
   10.6561  -16.8472   24.9386 N   0  0  0  0  0  0  0  0  0  0  0  0
   10.8002  -17.1258   27.2929 C   0  0  0  0  0  0  0  0  0  0  0  0
    9.6014  -16.7703   27.3932 O   0  0  0  0  0  0  0  0  0  0  0  0
   11.4335  -17.4015   28.5298 O   0  0  0  0  0  0  0  0  0  0  0  0
  2  1  1  6
  3  2  1  0
  3  4  1  0
  4  9  2  0
  4  5  1  0
  5  6  2  0
  6  7  1  0
  8  7  2  0
  9  8  1  0
 10 12  1  0
 10  2  1  0
 11 10  2  0
 13 14  1  6
 13 12  1  0
 14 15  1  0
 15 16  1  0
 16 17  1  0
 17 18  1  0
 19 13  1  0
 20 19  2  0
 21 22  1  0
 22 24  1  0
 22 23  2  0
 25 24  1  1
 25 27  1  0
 25 26  1  0
 26 19  1  0
 27 29  1  0
 28 27  2  0
M  END
$$$$
