FKN.pdb
     RDKit          3D

 29 29  0  0  1  0  0  0  0  0999 V2000
    5.7574  -16.9131   25.1157 N   0  0  0  0  0  0  0  0  0  0  0  0
    6.5465  -15.7291   24.8552 C   0  0  1  0  0  0  0  0  0  0  0  0
    7.1402  -15.1654   26.1268 C   0  0  0  0  0  0  0  0  0  0  0  0
    6.9185  -13.7283   26.2746 C   0  0  0  0  0  0  0  0  0  0  0  0
    7.9017  -12.8398   25.8743 C   0  0  0  0  0  0  0  0  0  0  0  0
    7.6601  -11.4915   26.0278 C   0  0  0  0  0  0  0  0  0  0  0  0
    6.4645  -11.0178   26.5693 C   0  0  0  0  0  0  0  0  0  0  0  0
    5.5003  -11.9235   26.9607 C   0  0  0  0  0  0  0  0  0  0  0  0
    5.7150  -13.2781   26.8188 C   0  0  0  0  0  0  0  0  0  0  0  0
    7.6389  -16.1466   23.9049 C   0  0  0  0  0  0  0  0  0  0  0  0
    8.1625  -17.2891   23.9559 O   0  0  0  0  0  0  0  0  0  0  0  0
    8.1214  -15.2550   22.9069 N   0  0  0  0  0  0  0  0  0  0  0  0
    9.1768  -15.5722   21.9628 C   0  0  1  0  0  0  0  0  0  0  0  0
    9.3294  -14.4146   21.0133 C   0  0  0  0  0  0  0  0  0  0  0  0
    8.3220  -14.5312   19.9084 C   0  0  0  0  0  0  0  0  0  0  0  0
    8.7339  -13.6718   18.7523 C   0  0  0  0  0  0  0  0  0  0  0  0
    7.6436  -13.8620   17.6827 C   0  0  0  0  0  0  0  0  0  0  0  0
    8.0131  -13.0228   16.5667 N   0  0  0  0  0  0  0  0  0  0  0  0
   10.4858  -15.7324   22.6760 C   0  0  0  0  0  0  0  0  0  0  0  0
   10.8814  -14.7476   23.3407 O   0  0  0  0  0  0  0  0  0  0  0  0
   11.0688  -20.1366   24.4201 N   0  0  0  0  0  0  0  0  0  0  0  0
   11.8892  -18.9789   24.6536 C   0  0  0  0  0  0  0  0  0  0  0  0
   11.8763  -18.4439   25.7758 O   0  0  0  0  0  0  0  0  0  0  0  0
   12.7168  -18.4594   23.5699 C   0  0  0  0  0  0  0  0  0  0  0  0
   12.5002  -17.0113   23.2846 C   0  0  2  0  0  0  0  0  0  0  0  0
   11.2057  -16.9272   22.5870 N   0  0  0  0  0  0  0  0  0  0  0  0
   13.5111  -16.3817   22.4178 C   0  0  0  0  0  0  0  0  0  0  0  0
   13.3808  -16.1556   21.1907 O   0  0  0  0  0  0  0  0  0  0  0  0
   14.7562  -15.9755   22.9578 O   0  0  0  0  0  0  0  0  0  0  0  0
  2  1  1  1
  3  2  1  0
  3  4  1  0
  4  9  2  0
  4  5  1  0
  5  6  2  0
  6  7  1  0
  8  7  2  0
  9  8  1  0
 10 12  1  0
 10  2  1  0
 11 10  2  0
 13 14  1  6
 13 12  1  0
 14 15  1  0
 15 16  1  0
 16 17  1  0
 17 18  1  0
 19 13  1  0
 20 19  2  0
 21 22  1  0
 22 24  1  0
 22 23  2  0
 25 24  1  6
 25 27  1  0
 25 26  1  0
 26 19  1  0
 27 29  1  0
 28 27  2  0
M  END
$$$$
