FKN.pdb
     RDKit          3D

 29 29  0  0  1  0  0  0  0  0999 V2000
    6.0095  -17.2248   25.6102 N   0  0  0  0  0  0  0  0  0  0  0  0
    6.4986  -15.9539   25.1224 C   0  0  1  0  0  0  0  0  0  0  0  0
    7.3671  -15.2612   26.1487 C   0  0  0  0  0  0  0  0  0  0  0  0
    7.0561  -13.8408   26.2974 C   0  0  0  0  0  0  0  0  0  0  0  0
    7.8615  -12.8964   25.6844 C   0  0  0  0  0  0  0  0  0  0  0  0
    7.5399  -11.5658   25.8452 C   0  0  0  0  0  0  0  0  0  0  0  0
    6.4377  -11.1640   26.6007 C   0  0  0  0  0  0  0  0  0  0  0  0
    5.6506  -12.1245   27.2018 C   0  0  0  0  0  0  0  0  0  0  0  0
    5.9488  -13.4629   27.0578 C   0  0  0  0  0  0  0  0  0  0  0  0
    7.2929  -16.2532   23.8774 C   0  0  0  0  0  0  0  0  0  0  0  0
    7.9794  -17.3010   23.7637 O   0  0  0  0  0  0  0  0  0  0  0  0
    7.2945  -15.3530   22.7758 N   0  0  0  0  0  0  0  0  0  0  0  0
    8.0275  -15.5662   21.5417 C   0  0  1  0  0  0  0  0  0  0  0  0
    7.8290  -14.3651   20.6570 C   0  0  0  0  0  0  0  0  0  0  0  0
    8.5121  -14.5886   19.3407 C   0  0  0  0  0  0  0  0  0  0  0  0
    8.2003  -13.4585   18.4078 C   0  0  0  0  0  0  0  0  0  0  0  0
    8.7632  -13.8810   17.0389 C   0  0  0  0  0  0  0  0  0  0  0  0
    8.3713  -12.8556   16.1002 N   0  0  0  0  0  0  0  0  0  0  0  0
    9.4973  -15.6718   21.8179 C   0  0  0  0  0  0  0  0  0  0  0  0
    9.9414  -14.9590   22.7468 O   0  0  0  0  0  0  0  0  0  0  0  0
   11.4021  -17.4685   25.0177 N   0  0  0  0  0  0  0  0  0  0  0  0
   12.0982  -17.0140   23.8443 C   0  0  0  0  0  0  0  0  0  0  0  0
   12.9510  -16.1162   23.9559 O   0  0  0  0  0  0  0  0  0  0  0  0
   11.7884  -17.6161   22.5518 C   0  0  0  0  0  0  0  0  0  0  0  0
   11.7287  -16.6372   21.4276 C   0  0  2  0  0  0  0  0  0  0  0  0
   10.3057  -16.5274   21.0640 N   0  0  0  0  0  0  0  0  0  0  0  0
   12.4665  -17.0263   20.2135 C   0  0  0  0  0  0  0  0  0  0  0  0
   13.5958  -16.5960   19.8771 O   0  0  0  0  0  0  0  0  0  0  0  0
   11.9046  -17.9617   19.3100 O   0  0  0  0  0  0  0  0  0  0  0  0
  2  1  1  1
  3  2  1  0
  3  4  1  0
  4  9  2  0
  4  5  1  0
  5  6  2  0
  6  7  1  0
  8  7  2  0
  9  8  1  0
 10 12  1  0
 10  2  1  0
 11 10  2  0
 13 14  1  6
 13 12  1  0
 14 15  1  0
 15 16  1  0
 16 17  1  0
 17 18  1  0
 19 13  1  0
 20 19  2  0
 21 22  1  0
 22 24  1  0
 22 23  2  0
 25 24  1  1
 25 27  1  0
 25 26  1  0
 26 19  1  0
 27 29  1  0
 28 27  2  0
M  END
$$$$
