FKN.pdb
     RDKit          3D

 29 29  0  0  1  0  0  0  0  0999 V2000
    5.5318  -17.3077   25.1294 N   0  0  0  0  0  0  0  0  0  0  0  0
    6.2402  -16.0553   24.9802 C   0  0  1  0  0  0  0  0  0  0  0  0
    6.8375  -15.5946   26.2910 C   0  0  0  0  0  0  0  0  0  0  0  0
    6.7949  -14.1435   26.4614 C   0  0  0  0  0  0  0  0  0  0  0  0
    7.9626  -13.4077   26.3545 C   0  0  0  0  0  0  0  0  0  0  0  0
    7.8868  -12.0416   26.5208 C   0  0  0  0  0  0  0  0  0  0  0  0
    6.6763  -11.4017   26.7896 C   0  0  0  0  0  0  0  0  0  0  0  0
    5.5265  -12.1572   26.8914 C   0  0  0  0  0  0  0  0  0  0  0  0
    5.5728  -13.5257   26.7296 C   0  0  0  0  0  0  0  0  0  0  0  0
    7.3261  -16.2994   23.9644 C   0  0  0  0  0  0  0  0  0  0  0  0
    7.9563  -17.3868   23.9144 O   0  0  0  0  0  0  0  0  0  0  0  0
    7.6806  -15.2991   23.0170 N   0  0  0  0  0  0  0  0  0  0  0  0
    8.7293  -15.4425   22.0243 C   0  0  1  0  0  0  0  0  0  0  0  0
    8.7958  -14.1749   21.2159 C   0  0  0  0  0  0  0  0  0  0  0  0
    7.9849  -14.3309   19.9639 C   0  0  0  0  0  0  0  0  0  0  0  0
    8.5704  -13.4899   18.8710 C   0  0  0  0  0  0  0  0  0  0  0  0
    7.6632  -13.7072   17.6468 C   0  0  0  0  0  0  0  0  0  0  0  0
    8.2161  -12.9066   16.5793 N   0  0  0  0  0  0  0  0  0  0  0  0
   10.0615  -15.6100   22.6914 C   0  0  0  0  0  0  0  0  0  0  0  0
   10.3642  -14.7525   23.5525 O   0  0  0  0  0  0  0  0  0  0  0  0
   11.0833  -17.9009   25.1137 N   0  0  0  0  0  0  0  0  0  0  0  0
   11.9063  -18.7286   24.2739 C   0  0  0  0  0  0  0  0  0  0  0  0
   12.0149  -19.9390   24.5364 O   0  0  0  0  0  0  0  0  0  0  0  0
   12.5940  -18.1300   23.1347 C   0  0  0  0  0  0  0  0  0  0  0  0
   12.2620  -16.6923   22.9152 C   0  0  2  0  0  0  0  0  0  0  0  0
   10.9013  -16.6745   22.3518 N   0  0  0  0  0  0  0  0  0  0  0  0
   13.1404  -15.9796   21.9717 C   0  0  0  0  0  0  0  0  0  0  0  0
   12.8364  -15.6479   20.8007 O   0  0  0  0  0  0  0  0  0  0  0  0
   14.4513  -15.6107   22.3619 O   0  0  0  0  0  0  0  0  0  0  0  0
  2  1  1  1
  3  2  1  0
  3  4  1  0
  4  9  2  0
  4  5  1  0
  5  6  2  0
  6  7  1  0
  8  7  2  0
  9  8  1  0
 10 12  1  0
 10  2  1  0
 11 10  2  0
 13 14  1  6
 13 12  1  0
 14 15  1  0
 15 16  1  0
 16 17  1  0
 17 18  1  0
 19 13  1  0
 20 19  2  0
 21 22  1  0
 22 24  1  0
 22 23  2  0
 25 24  1  6
 25 27  1  0
 25 26  1  0
 26 19  1  0
 27 29  1  0
 28 27  2  0
M  END
$$$$
