FKN.pdb
     RDKit          3D

 29 29  0  0  1  0  0  0  0  0999 V2000
    6.0878  -17.1064   25.5409 N   0  0  0  0  0  0  0  0  0  0  0  0
    6.5165  -15.8072   25.0709 C   0  0  1  0  0  0  0  0  0  0  0  0
    7.4711  -15.1512   26.0434 C   0  0  0  0  0  0  0  0  0  0  0  0
    7.0192  -13.8349   26.4900 C   0  0  0  0  0  0  0  0  0  0  0  0
    5.7382  -13.4105   26.1811 C   0  0  0  0  0  0  0  0  0  0  0  0
    5.3443  -12.1639   26.6176 C   0  0  0  0  0  0  0  0  0  0  0  0
    6.1988  -11.3398   27.3508 C   0  0  0  0  0  0  0  0  0  0  0  0
    7.4707  -11.7856   27.6457 C   0  0  0  0  0  0  0  0  0  0  0  0
    7.8915  -13.0283   27.2218 C   0  0  0  0  0  0  0  0  0  0  0  0
    7.1929  -16.0368   23.7441 C   0  0  0  0  0  0  0  0  0  0  0  0
    7.8113  -17.1021   23.4896 O   0  0  0  0  0  0  0  0  0  0  0  0
    7.1557  -15.0474   22.7225 N   0  0  0  0  0  0  0  0  0  0  0  0
    8.0210  -15.0364   21.5576 C   0  0  1  0  0  0  0  0  0  0  0  0
    7.7764  -13.7621   20.7954 C   0  0  0  0  0  0  0  0  0  0  0  0
    8.6852  -13.7037   19.6038 C   0  0  0  0  0  0  0  0  0  0  0  0
    7.9776  -14.2422   18.3980 C   0  0  0  0  0  0  0  0  0  0  0  0
    8.9862  -14.1345   17.2404 C   0  0  0  0  0  0  0  0  0  0  0  0
    8.3708  -14.7716   16.0996 N   0  0  0  0  0  0  0  0  0  0  0  0
    9.4608  -15.0303   21.9757 C   0  0  0  0  0  0  0  0  0  0  0  0
    9.7061  -14.5830   23.1193 O   0  0  0  0  0  0  0  0  0  0  0  0
   13.9701  -17.1361   22.7877 N   0  0  0  0  0  0  0  0  0  0  0  0
   12.6783  -17.6481   23.1577 C   0  0  0  0  0  0  0  0  0  0  0  0
   12.6109  -18.6251   23.9237 O   0  0  0  0  0  0  0  0  0  0  0  0
   11.4781  -17.0102   22.6268 C   0  0  0  0  0  0  0  0  0  0  0  0
   11.7565  -15.8766   21.6979 C   0  0  2  0  0  0  0  0  0  0  0  0
   10.4558  -15.5040   21.1158 N   0  0  0  0  0  0  0  0  0  0  0  0
   12.6678  -16.1851   20.5825 C   0  0  0  0  0  0  0  0  0  0  0  0
   13.8520  -15.7850   20.4764 O   0  0  0  0  0  0  0  0  0  0  0  0
   12.2271  -16.9975   19.5090 O   0  0  0  0  0  0  0  0  0  0  0  0
  2  1  1  1
  3  2  1  0
  3  4  1  0
  4  9  2  0
  4  5  1  0
  5  6  2  0
  6  7  1  0
  8  7  2  0
  9  8  1  0
 10 12  1  0
 10  2  1  0
 11 10  2  0
 13 14  1  1
 13 12  1  0
 14 15  1  0
 15 16  1  0
 16 17  1  0
 17 18  1  0
 19 13  1  0
 20 19  2  0
 21 22  1  0
 22 24  1  0
 22 23  2  0
 25 24  1  1
 25 27  1  0
 25 26  1  0
 26 19  1  0
 27 29  1  0
 28 27  2  0
M  END
$$$$
