FKN.pdb
     RDKit          3D

 29 29  0  0  1  0  0  0  0  0999 V2000
    7.0129  -16.6652   26.1239 N   0  0  0  0  0  0  0  0  0  0  0  0
    7.3103  -15.5258   25.2838 C   0  0  1  0  0  0  0  0  0  0  0  0
    8.1986  -14.5283   25.9932 C   0  0  0  0  0  0  0  0  0  0  0  0
    7.4585  -13.4001   26.5551 C   0  0  0  0  0  0  0  0  0  0  0  0
    6.0781  -13.3696   26.4545 C   0  0  0  0  0  0  0  0  0  0  0  0
    5.4114  -12.2911   26.9950 C   0  0  0  0  0  0  0  0  0  0  0  0
    6.0919  -11.2509   27.6289 C   0  0  0  0  0  0  0  0  0  0  0  0
    7.4677  -11.3047   27.7162 C   0  0  0  0  0  0  0  0  0  0  0  0
    8.1607  -12.3715   27.1844 C   0  0  0  0  0  0  0  0  0  0  0  0
    8.0020  -16.0686   24.0601 C   0  0  0  0  0  0  0  0  0  0  0  0
    8.5457  -17.2028   24.0529 O   0  0  0  0  0  0  0  0  0  0  0  0
    8.0652  -15.3105   22.8580 N   0  0  0  0  0  0  0  0  0  0  0  0
    8.6456  -15.7864   21.6160 C   0  0  1  0  0  0  0  0  0  0  0  0
    7.9213  -15.1319   20.4708 C   0  0  0  0  0  0  0  0  0  0  0  0
    8.8987  -14.3768   19.6201 C   0  0  0  0  0  0  0  0  0  0  0  0
    8.1721  -13.6678   18.5184 C   0  0  0  0  0  0  0  0  0  0  0  0
    9.2639  -13.0135   17.6529 C   0  0  0  0  0  0  0  0  0  0  0  0
    8.5829  -12.3538   16.5632 N   0  0  0  0  0  0  0  0  0  0  0  0
   10.0843  -15.3755   21.5198 C   0  0  0  0  0  0  0  0  0  0  0  0
   10.3423  -14.1830   21.8018 O   0  0  0  0  0  0  0  0  0  0  0  0
   13.6684  -15.6162   23.6840 N   0  0  0  0  0  0  0  0  0  0  0  0
   13.8506  -16.8661   22.9968 C   0  0  0  0  0  0  0  0  0  0  0  0
   14.5310  -17.7581   23.5326 O   0  0  0  0  0  0  0  0  0  0  0  0
   13.2336  -17.0588   21.6886 C   0  0  0  0  0  0  0  0  0  0  0  0
   12.4745  -15.8722   21.1975 C   0  0  2  0  0  0  0  0  0  0  0  0
   11.0647  -16.2939   21.1336 N   0  0  0  0  0  0  0  0  0  0  0  0
   12.8534  -15.3922   19.8574 C   0  0  0  0  0  0  0  0  0  0  0  0
   13.5741  -14.3938   19.6172 O   0  0  0  0  0  0  0  0  0  0  0  0
   12.3959  -16.0740   18.7030 O   0  0  0  0  0  0  0  0  0  0  0  0
  2  1  1  1
  3  2  1  0
  3  4  1  0
  4  9  2  0
  4  5  1  0
  5  6  2  0
  6  7  1  0
  8  7  2  0
  9  8  1  0
 10 12  1  0
 10  2  1  0
 11 10  2  0
 13 14  1  6
 13 12  1  0
 14 15  1  0
 15 16  1  0
 16 17  1  0
 17 18  1  0
 19 13  1  0
 20 19  2  0
 21 22  1  0
 22 24  1  0
 22 23  2  0
 25 24  1  6
 25 27  1  0
 25 26  1  0
 26 19  1  0
 27 29  1  0
 28 27  2  0
M  END
$$$$
