FKN.pdb
     RDKit          3D

 29 29  0  0  1  0  0  0  0  0999 V2000
    6.9764  -16.1257   25.7786 N   0  0  0  0  0  0  0  0  0  0  0  0
    6.8618  -15.1372   24.7287 C   0  0  1  0  0  0  0  0  0  0  0  0
    7.7434  -13.9377   24.9955 C   0  0  0  0  0  0  0  0  0  0  0  0
    7.3049  -13.1488   26.1451 C   0  0  0  0  0  0  0  0  0  0  0  0
    6.1016  -12.4668   26.0877 C   0  0  0  0  0  0  0  0  0  0  0  0
    5.7182  -11.7324   27.1893 C   0  0  0  0  0  0  0  0  0  0  0  0
    6.5077  -11.6670   28.3380 C   0  0  0  0  0  0  0  0  0  0  0  0
    7.7028  -12.3556   28.3704 C   0  0  0  0  0  0  0  0  0  0  0  0
    8.1113  -13.0982   27.2828 C   0  0  0  0  0  0  0  0  0  0  0  0
    7.2777  -15.8220   23.4525 C   0  0  0  0  0  0  0  0  0  0  0  0
    8.0273  -16.8320   23.4548 O   0  0  0  0  0  0  0  0  0  0  0  0
    6.8330  -15.3461   22.1878 N   0  0  0  0  0  0  0  0  0  0  0  0
    7.6890  -15.1685   21.0295 C   0  0  1  0  0  0  0  0  0  0  0  0
    7.4324  -13.8022   20.4533 C   0  0  0  0  0  0  0  0  0  0  0  0
    8.2550  -13.6140   19.2135 C   0  0  0  0  0  0  0  0  0  0  0  0
    7.5609  -14.2405   18.0429 C   0  0  0  0  0  0  0  0  0  0  0  0
    8.4792  -13.9931   16.8328 C   0  0  0  0  0  0  0  0  0  0  0  0
    7.8154  -14.5733   15.6887 N   0  0  0  0  0  0  0  0  0  0  0  0
    9.1320  -15.2122   21.4340 C   0  0  0  0  0  0  0  0  0  0  0  0
    9.4134  -14.7100   22.5461 O   0  0  0  0  0  0  0  0  0  0  0  0
   13.1680  -17.2651   23.0483 N   0  0  0  0  0  0  0  0  0  0  0  0
   11.8479  -17.8315   23.1150 C   0  0  0  0  0  0  0  0  0  0  0  0
   11.5933  -18.6717   23.9954 O   0  0  0  0  0  0  0  0  0  0  0  0
   10.8391  -17.4080   22.1496 C   0  0  0  0  0  0  0  0  0  0  0  0
   11.3070  -16.3453   21.2130 C   0  0  2  0  0  0  0  0  0  0  0  0
   10.0912  -15.7881   20.5961 N   0  0  0  0  0  0  0  0  0  0  0  0
   12.1838  -16.8073   20.1232 C   0  0  0  0  0  0  0  0  0  0  0  0
   12.0311  -17.8624   19.4620 O   0  0  0  0  0  0  0  0  0  0  0  0
   13.3111  -16.0379   19.7439 O   0  0  0  0  0  0  0  0  0  0  0  0
  2  1  1  1
  3  2  1  0
  3  4  1  0
  4  9  2  0
  4  5  1  0
  5  6  2  0
  6  7  1  0
  8  7  2  0
  9  8  1  0
 10 12  1  0
 10  2  1  0
 11 10  2  0
 13 14  1  1
 13 12  1  0
 14 15  1  0
 15 16  1  0
 16 17  1  0
 17 18  1  0
 19 13  1  0
 20 19  2  0
 21 22  1  0
 22 24  1  0
 22 23  2  0
 25 24  1  1
 25 27  1  0
 25 26  1  0
 26 19  1  0
 27 29  1  0
 28 27  2  0
M  END
$$$$
