FKN.pdb
     RDKit          3D

 29 29  0  0  1  0  0  0  0  0999 V2000
    5.8954  -17.5571   24.7100 N   0  0  0  0  0  0  0  0  0  0  0  0
    6.4395  -16.2188   24.6366 C   0  0  1  0  0  0  0  0  0  0  0  0
    7.2617  -15.8847   25.8612 C   0  0  0  0  0  0  0  0  0  0  0  0
    7.1746  -14.4765   26.2430 C   0  0  0  0  0  0  0  0  0  0  0  0
    8.3343  -13.7357   26.3936 C   0  0  0  0  0  0  0  0  0  0  0  0
    8.2162  -12.4107   26.7544 C   0  0  0  0  0  0  0  0  0  0  0  0
    6.9715  -11.8165   26.9660 C   0  0  0  0  0  0  0  0  0  0  0  0
    5.8305  -12.5761   26.8097 C   0  0  0  0  0  0  0  0  0  0  0  0
    5.9188  -13.9040   26.4493 C   0  0  0  0  0  0  0  0  0  0  0  0
    7.2982  -16.1760   23.3991 C   0  0  0  0  0  0  0  0  0  0  0  0
    7.8137  -17.2150   22.9124 O   0  0  0  0  0  0  0  0  0  0  0  0
    7.5589  -14.9474   22.7310 N   0  0  0  0  0  0  0  0  0  0  0  0
    8.0309  -14.8401   21.3629 C   0  0  1  0  0  0  0  0  0  0  0  0
    7.9340  -13.3998   20.9378 C   0  0  0  0  0  0  0  0  0  0  0  0
    8.5676  -13.2272   19.5894 C   0  0  0  0  0  0  0  0  0  0  0  0
    7.6646  -13.7793   18.5291 C   0  0  0  0  0  0  0  0  0  0  0  0
    8.4239  -13.6028   17.2019 C   0  0  0  0  0  0  0  0  0  0  0  0
    7.5670  -14.1304   16.1658 N   0  0  0  0  0  0  0  0  0  0  0  0
    9.4764  -15.2287   21.2765 C   0  0  0  0  0  0  0  0  0  0  0  0
    9.8860  -15.6014   20.1533 O   0  0  0  0  0  0  0  0  0  0  0  0
   12.8597  -15.4977   19.7537 N   0  0  0  0  0  0  0  0  0  0  0  0
   12.7547  -14.5731   20.8499 C   0  0  0  0  0  0  0  0  0  0  0  0
   12.7494  -13.3524   20.6140 O   0  0  0  0  0  0  0  0  0  0  0  0
   12.6569  -15.0877   22.2118 C   0  0  0  0  0  0  0  0  0  0  0  0
   11.5070  -16.0133   22.4273 C   0  0  2  0  0  0  0  0  0  0  0  0
   10.3003  -15.1692   22.4040 N   0  0  0  0  0  0  0  0  0  0  0  0
   11.5141  -16.7393   23.7090 C   0  0  0  0  0  0  0  0  0  0  0  0
   12.3950  -17.5504   24.0828 O   0  0  0  0  0  0  0  0  0  0  0  0
   10.4638  -16.5471   24.6400 O   0  0  0  0  0  0  0  0  0  0  0  0
  2  1  1  1
  3  2  1  0
  3  4  1  0
  4  9  2  0
  4  5  1  0
  5  6  2  0
  6  7  1  0
  8  7  2  0
  9  8  1  0
 10 12  1  0
 10  2  1  0
 11 10  2  0
 13 14  1  1
 13 12  1  0
 14 15  1  0
 15 16  1  0
 16 17  1  0
 17 18  1  0
 19 13  1  0
 20 19  2  0
 21 22  1  0
 22 24  1  0
 22 23  2  0
 25 24  1  1
 25 27  1  0
 25 26  1  0
 26 19  1  0
 27 29  1  0
 28 27  2  0
M  END
$$$$
