FKN.pdb
     RDKit          3D

 29 29  0  0  1  0  0  0  0  0999 V2000
    6.1269  -17.7203   25.6387 N   0  0  0  0  0  0  0  0  0  0  0  0
    6.5334  -16.3975   25.2172 C   0  0  1  0  0  0  0  0  0  0  0  0
    7.4532  -15.7498   26.2280 C   0  0  0  0  0  0  0  0  0  0  0  0
    7.1794  -14.3273   26.4228 C   0  0  0  0  0  0  0  0  0  0  0  0
    8.2335  -13.4358   26.5259 C   0  0  0  0  0  0  0  0  0  0  0  0
    7.9400  -12.1017   26.7091 C   0  0  0  0  0  0  0  0  0  0  0  0
    6.6241  -11.6448   26.7907 C   0  0  0  0  0  0  0  0  0  0  0  0
    5.5911  -12.5532   26.6851 C   0  0  0  0  0  0  0  0  0  0  0  0
    5.8554  -13.8939   26.5014 C   0  0  0  0  0  0  0  0  0  0  0  0
    7.2404  -16.5701   23.8978 C   0  0  0  0  0  0  0  0  0  0  0  0
    7.8356  -17.6368   23.5980 O   0  0  0  0  0  0  0  0  0  0  0  0
    7.2599  -15.5228   22.9351 N   0  0  0  0  0  0  0  0  0  0  0  0
    7.7018  -15.6776   21.5616 C   0  0  1  0  0  0  0  0  0  0  0  0
    7.5507  -14.3542   20.8613 C   0  0  0  0  0  0  0  0  0  0  0  0
    7.9375  -14.4984   19.4194 C   0  0  0  0  0  0  0  0  0  0  0  0
    7.7146  -13.2026   18.7013 C   0  0  0  0  0  0  0  0  0  0  0  0
    8.0445  -13.4827   17.2243 C   0  0  0  0  0  0  0  0  0  0  0  0
    7.8159  -12.2475   16.5115 N   0  0  0  0  0  0  0  0  0  0  0  0
    9.1570  -16.0357   21.5175 C   0  0  0  0  0  0  0  0  0  0  0  0
    9.6088  -16.3920   20.4053 O   0  0  0  0  0  0  0  0  0  0  0  0
   14.0749  -16.8518   22.5346 N   0  0  0  0  0  0  0  0  0  0  0  0
   13.6160  -15.4897   22.4905 C   0  0  0  0  0  0  0  0  0  0  0  0
   14.4516  -14.5707   22.4352 O   0  0  0  0  0  0  0  0  0  0  0  0
   12.1826  -15.2178   22.5114 C   0  0  0  0  0  0  0  0  0  0  0  0
   11.3357  -16.4433   22.5901 C   0  0  2  0  0  0  0  0  0  0  0  0
    9.9443  -15.9672   22.6705 N   0  0  0  0  0  0  0  0  0  0  0  0
   11.5774  -17.3022   23.7622 C   0  0  0  0  0  0  0  0  0  0  0  0
   12.3607  -18.2814   23.7996 O   0  0  0  0  0  0  0  0  0  0  0  0
   10.8971  -17.0511   24.9792 O   0  0  0  0  0  0  0  0  0  0  0  0
  2  1  1  1
  3  2  1  0
  3  4  1  0
  4  9  2  0
  4  5  1  0
  5  6  2  0
  6  7  1  0
  8  7  2  0
  9  8  1  0
 10 12  1  0
 10  2  1  0
 11 10  2  0
 13 14  1  6
 13 12  1  0
 14 15  1  0
 15 16  1  0
 16 17  1  0
 17 18  1  0
 19 13  1  0
 20 19  2  0
 21 22  1  0
 22 24  1  0
 22 23  2  0
 25 24  1  1
 25 27  1  0
 25 26  1  0
 26 19  1  0
 27 29  1  0
 28 27  2  0
M  END
$$$$
