FKN.pdb
     RDKit          3D

 29 29  0  0  1  0  0  0  0  0999 V2000
    6.3678  -16.2842   25.1544 N   0  0  0  0  0  0  0  0  0  0  0  0
    7.1132  -15.2827   24.4237 C   0  0  1  0  0  0  0  0  0  0  0  0
    8.1167  -14.5795   25.3102 C   0  0  0  0  0  0  0  0  0  0  0  0
    7.5237  -13.5097   26.1103 C   0  0  0  0  0  0  0  0  0  0  0  0
    8.0382  -13.2279   27.3642 C   0  0  0  0  0  0  0  0  0  0  0  0
    7.4554  -12.2129   28.0921 C   0  0  0  0  0  0  0  0  0  0  0  0
    6.3771  -11.4799   27.5952 C   0  0  0  0  0  0  0  0  0  0  0  0
    5.8825  -11.7801   26.3427 C   0  0  0  0  0  0  0  0  0  0  0  0
    6.4460  -12.7904   25.5924 C   0  0  0  0  0  0  0  0  0  0  0  0
    7.8165  -16.0075   23.3054 C   0  0  0  0  0  0  0  0  0  0  0  0
    7.8884  -17.2627   23.2696 O   0  0  0  0  0  0  0  0  0  0  0  0
    8.4298  -15.2911   22.2404 N   0  0  0  0  0  0  0  0  0  0  0  0
    9.1295  -15.9099   21.1298 C   0  0  1  0  0  0  0  0  0  0  0  0
    9.3510  -14.8676   20.0670 C   0  0  0  0  0  0  0  0  0  0  0  0
    8.1311  -14.7620   19.2009 C   0  0  0  0  0  0  0  0  0  0  0  0
    8.4081  -13.8547   18.0413 C   0  0  0  0  0  0  0  0  0  0  0  0
    7.1178  -13.8455   17.2022 C   0  0  0  0  0  0  0  0  0  0  0  0
    7.3935  -13.0409   16.0348 N   0  0  0  0  0  0  0  0  0  0  0  0
   10.4817  -16.3891   21.5653 C   0  0  0  0  0  0  0  0  0  0  0  0
   11.1001  -17.1190   20.7573 O   0  0  0  0  0  0  0  0  0  0  0  0
   13.4038  -15.9489   20.7465 N   0  0  0  0  0  0  0  0  0  0  0  0
   13.7820  -15.1260   21.8635 C   0  0  0  0  0  0  0  0  0  0  0  0
   14.5463  -14.1636   21.6754 O   0  0  0  0  0  0  0  0  0  0  0  0
   13.2608  -15.4388   23.1901 C   0  0  0  0  0  0  0  0  0  0  0  0
   12.3044  -16.5835   23.2095 C   0  0  2  0  0  0  0  0  0  0  0  0
   11.0006  -16.0261   22.8115 N   0  0  0  0  0  0  0  0  0  0  0  0
   12.1261  -17.2334   24.5194 C   0  0  0  0  0  0  0  0  0  0  0  0
   11.0727  -17.2242   25.2006 O   0  0  0  0  0  0  0  0  0  0  0  0
   13.1989  -17.9441   25.1117 O   0  0  0  0  0  0  0  0  0  0  0  0
  2  1  1  1
  3  2  1  0
  3  4  1  0
  4  9  2  0
  4  5  1  0
  5  6  2  0
  6  7  1  0
  8  7  2  0
  9  8  1  0
 10 12  1  0
 10  2  1  0
 11 10  2  0
 13 14  1  6
 13 12  1  0
 14 15  1  0
 15 16  1  0
 16 17  1  0
 17 18  1  0
 19 13  1  0
 20 19  2  0
 21 22  1  0
 22 24  1  0
 22 23  2  0
 25 24  1  1
 25 27  1  0
 25 26  1  0
 26 19  1  0
 27 29  1  0
 28 27  2  0
M  END
$$$$
