FKN.pdb
     RDKit          3D

 29 29  0  0  1  0  0  0  0  0999 V2000
    6.8314  -16.4014   25.4431 N   0  0  0  0  0  0  0  0  0  0  0  0
    7.0775  -15.2687   24.5776 C   0  0  1  0  0  0  0  0  0  0  0  0
    8.2291  -14.4259   25.0785 C   0  0  0  0  0  0  0  0  0  0  0  0
    7.8103  -13.3771   26.0063 C   0  0  0  0  0  0  0  0  0  0  0  0
    8.4398  -13.2581   27.2335 C   0  0  0  0  0  0  0  0  0  0  0  0
    8.0202  -12.2582   28.0843 C   0  0  0  0  0  0  0  0  0  0  0  0
    6.9918  -11.3821   27.7354 C   0  0  0  0  0  0  0  0  0  0  0  0
    6.3801  -11.5214   26.5067 C   0  0  0  0  0  0  0  0  0  0  0  0
    6.7795  -12.5127   25.6355 C   0  0  0  0  0  0  0  0  0  0  0  0
    7.3926  -15.8339   23.2167 C   0  0  0  0  0  0  0  0  0  0  0  0
    7.5167  -17.0706   23.0238 O   0  0  0  0  0  0  0  0  0  0  0  0
    7.5623  -14.9807   22.0911 N   0  0  0  0  0  0  0  0  0  0  0  0
    7.8165  -15.4443   20.7397 C   0  0  1  0  0  0  0  0  0  0  0  0
    7.5477  -14.3093   19.7889 C   0  0  0  0  0  0  0  0  0  0  0  0
    7.8351  -14.7482   18.3839 C   0  0  0  0  0  0  0  0  0  0  0  0
    8.0057  -13.5494   17.5017 C   0  0  0  0  0  0  0  0  0  0  0  0
    8.1881  -14.1030   16.0771 C   0  0  0  0  0  0  0  0  0  0  0  0
    8.1306  -12.9681   15.1856 N   0  0  0  0  0  0  0  0  0  0  0  0
    9.2586  -15.8216   20.5788 C   0  0  0  0  0  0  0  0  0  0  0  0
    9.5780  -16.3462   19.4875 O   0  0  0  0  0  0  0  0  0  0  0  0
   14.2122  -14.4142   19.8859 N   0  0  0  0  0  0  0  0  0  0  0  0
   13.7150  -14.5499   21.2283 C   0  0  0  0  0  0  0  0  0  0  0  0
   14.5231  -14.7001   22.1611 O   0  0  0  0  0  0  0  0  0  0  0  0
   12.2757  -14.5082   21.4646 C   0  0  0  0  0  0  0  0  0  0  0  0
   11.6027  -15.8330   21.3329 C   0  0  2  0  0  0  0  0  0  0  0  0
   10.1763  -15.5895   21.6073 N   0  0  0  0  0  0  0  0  0  0  0  0
   12.0629  -16.8698   22.2726 C   0  0  0  0  0  0  0  0  0  0  0  0
   12.9582  -17.7177   22.0418 O   0  0  0  0  0  0  0  0  0  0  0  0
   11.4833  -16.9681   23.5615 O   0  0  0  0  0  0  0  0  0  0  0  0
  2  1  1  1
  3  2  1  0
  3  4  1  0
  4  9  2  0
  4  5  1  0
  5  6  2  0
  6  7  1  0
  8  7  2  0
  9  8  1  0
 10 12  1  0
 10  2  1  0
 11 10  2  0
 13 14  1  6
 13 12  1  0
 14 15  1  0
 15 16  1  0
 16 17  1  0
 17 18  1  0
 19 13  1  0
 20 19  2  0
 21 22  1  0
 22 24  1  0
 22 23  2  0
 25 24  1  1
 25 27  1  0
 25 26  1  0
 26 19  1  0
 27 29  1  0
 28 27  2  0
M  END
$$$$
