LNW.pdb
     RDKit          3D

 31 32  0  0  1  0  0  0  0  0999 V2000
    6.2882  -12.5026   18.1898 C   0  0  0  0  0  0  0  0  0  0  0  0
    7.5466  -13.0602   18.8013 C   0  0  1  0  0  0  0  0  0  0  0  0
    8.4263  -11.9078   19.3173 C   0  0  0  0  0  0  0  0  0  0  0  0
    7.3014  -13.9537   19.9808 C   0  0  0  0  0  0  0  0  0  0  0  0
    8.5243  -14.4106   20.6975 C   0  0  2  0  0  0  0  0  0  0  0  0
    9.4980  -14.8942   19.7283 N   0  0  0  0  0  0  0  0  0  0  0  0
    8.2568  -15.5291   21.6734 C   0  0  0  0  0  0  0  0  0  0  0  0
    7.3775  -15.3938   22.5488 O   0  0  0  0  0  0  0  0  0  0  0  0
    7.5924  -20.7736   23.0343 N   0  0  0  0  0  0  0  0  0  0  0  0
    8.9577  -20.2963   22.9089 C   0  0  0  0  0  0  0  0  0  0  0  0
    9.7796  -20.8771   23.6433 O   0  0  0  0  0  0  0  0  0  0  0  0
    9.1952  -19.2066   21.9417 C   0  0  0  0  0  0  0  0  0  0  0  0
    8.8855  -17.8303   22.4942 C   0  0  2  0  0  0  0  0  0  0  0  0
    8.9890  -16.7329   21.6132 N   0  0  0  0  0  0  0  0  0  0  0  0
    9.3615  -17.6089   23.8739 C   0  0  0  0  0  0  0  0  0  0  0  0
    9.2093  -18.4940   24.7872 O   0  0  0  0  0  0  0  0  0  0  0  0
   10.0129  -16.4299   24.3118 N   0  0  0  0  0  0  0  0  0  0  0  0
   10.2019  -16.1077   25.7292 C   0  0  1  0  0  0  0  0  0  0  0  0
    8.8839  -16.3476   26.4081 C   0  0  0  0  0  0  0  0  0  0  0  0
    7.7785  -15.4656   25.9922 C   0  0  0  0  0  0  0  0  0  0  0  0
    6.5555  -15.9374   25.5049 C   0  0  0  0  0  0  0  0  0  0  0  0
    5.8316  -14.8517   25.2117 N   0  0  0  0  0  0  0  0  0  0  0  0
    6.5163  -13.7298   25.4818 C   0  0  0  0  0  0  0  0  0  0  0  0
    6.1798  -12.4006   25.3588 C   0  0  0  0  0  0  0  0  0  0  0  0
    7.0902  -11.4267   25.7367 C   0  0  0  0  0  0  0  0  0  0  0  0
    8.3306  -11.7514   26.2351 C   0  0  0  0  0  0  0  0  0  0  0  0
    8.6444  -13.0959   26.3492 C   0  0  0  0  0  0  0  0  0  0  0  0
    7.7510  -14.0877   25.9776 C   0  0  0  0  0  0  0  0  0  0  0  0
   11.3416  -16.8673   26.2100 C   0  0  0  0  0  0  0  0  0  0  0  0
   11.7341  -16.7772   27.4316 O   0  0  0  0  0  0  0  0  0  0  0  0
   12.1134  -17.7506   25.4486 O   0  0  0  0  0  0  0  0  0  0  0  0
  2  1  1  1
  2  3  1  0
  4  2  1  0
  5  4  1  0
  5  6  1  6
  7  8  2  0
  7  5  1  0
 10 12  1  0
 10  9  1  0
 11 10  2  0
 13 12  1  6
 13 14  1  0
 14  7  1  0
 15 13  1  0
 15 17  1  0
 16 15  2  0
 18 17  1  0
 18 29  1  0
 19 20  1  0
 18 19  1  1
 20 28  1  0
 21 22  1  0
 21 20  2  0
 22 23  1  0
 23 28  2  0
 23 24  1  0
 24 25  2  0
 25 26  1  0
 27 26  2  0
 28 27  1  0
 29 30  2  0
 29 31  1  0
M  END
$$$$
