LNW.pdb
     RDKit          3D

 31 32  0  0  1  0  0  0  0  0999 V2000
    6.1290  -12.9944   20.1094 C   0  0  0  0  0  0  0  0  0  0  0  0
    7.4117  -13.4688   19.4785 C   0  0  1  0  0  0  0  0  0  0  0  0
    8.5102  -12.4098   19.6791 C   0  0  0  0  0  0  0  0  0  0  0  0
    7.9459  -14.7372   20.0745 C   0  0  0  0  0  0  0  0  0  0  0  0
    9.1169  -15.3276   19.3687 C   0  0  2  0  0  0  0  0  0  0  0  0
    8.7372  -15.6628   18.0031 N   0  0  0  0  0  0  0  0  0  0  0  0
    9.6305  -16.5862   20.0221 C   0  0  0  0  0  0  0  0  0  0  0  0
    9.5550  -17.6760   19.4183 O   0  0  0  0  0  0  0  0  0  0  0  0
   11.8773  -20.9565   21.7087 N   0  0  0  0  0  0  0  0  0  0  0  0
   12.3807  -19.6041   21.8675 C   0  0  0  0  0  0  0  0  0  0  0  0
   13.3484  -19.4989   22.6451 O   0  0  0  0  0  0  0  0  0  0  0  0
   11.6977  -18.5455   21.0981 C   0  0  0  0  0  0  0  0  0  0  0  0
   10.8891  -17.5980   21.9604 C   0  0  2  0  0  0  0  0  0  0  0  0
   10.1977  -16.5521   21.3129 N   0  0  0  0  0  0  0  0  0  0  0  0
   11.5212  -17.2633   23.2518 C   0  0  0  0  0  0  0  0  0  0  0  0
   12.5124  -16.4553   23.3252 O   0  0  0  0  0  0  0  0  0  0  0  0
   11.1076  -17.7885   24.5006 N   0  0  0  0  0  0  0  0  0  0  0  0
   10.6352  -16.9419   25.6000 C   0  0  1  0  0  0  0  0  0  0  0  0
    9.6723  -15.9549   25.0047 C   0  0  0  0  0  0  0  0  0  0  0  0
    8.9011  -15.1499   25.9690 C   0  0  0  0  0  0  0  0  0  0  0  0
    8.6445  -15.5552   27.2826 C   0  0  0  0  0  0  0  0  0  0  0  0
    7.9026  -14.5860   27.8294 N   0  0  0  0  0  0  0  0  0  0  0  0
    7.6757  -13.5992   26.9489 C   0  0  0  0  0  0  0  0  0  0  0  0
    6.9890  -12.4116   27.0628 C   0  0  0  0  0  0  0  0  0  0  0  0
    6.9265  -11.5510   25.9785 C   0  0  0  0  0  0  0  0  0  0  0  0
    7.5352  -11.8508   24.7819 C   0  0  0  0  0  0  0  0  0  0  0  0
    8.2201  -13.0518   24.6935 C   0  0  0  0  0  0  0  0  0  0  0  0
    8.2962  -13.9286   25.7637 C   0  0  0  0  0  0  0  0  0  0  0  0
   10.1287  -17.8121   26.6456 C   0  0  0  0  0  0  0  0  0  0  0  0
   10.2437  -17.4973   27.8874 O   0  0  0  0  0  0  0  0  0  0  0  0
    9.4810  -19.0354   26.4466 O   0  0  0  0  0  0  0  0  0  0  0  0
  2  1  1  1
  2  3  1  0
  4  2  1  0
  5  4  1  0
  5  6  1  6
  7  8  2  0
  7  5  1  0
 10 12  1  0
 10  9  1  0
 11 10  2  0
 13 12  1  6
 13 14  1  0
 14  7  1  0
 15 13  1  0
 15 17  1  0
 16 15  2  0
 18 17  1  0
 18 29  1  0
 19 20  1  0
 18 19  1  6
 20 28  1  0
 21 22  1  0
 21 20  2  0
 22 23  1  0
 23 28  2  0
 23 24  1  0
 24 25  2  0
 25 26  1  0
 27 26  2  0
 28 27  1  0
 29 30  2  0
 29 31  1  0
M  END
$$$$
