LNW.pdb
     RDKit          3D

 31 32  0  0  1  0  0  0  0  0999 V2000
    8.5856  -12.8706   20.1538 C   0  0  0  0  0  0  0  0  0  0  0  0
    7.7213  -13.6683   19.2128 C   0  0  1  0  0  0  0  0  0  0  0  0
    7.6953  -12.9892   17.8321 C   0  0  0  0  0  0  0  0  0  0  0  0
    8.2130  -15.0656   18.9777 C   0  0  0  0  0  0  0  0  0  0  0  0
    8.1995  -15.9540   20.1729 C   0  0  2  0  0  0  0  0  0  0  0  0
    7.4979  -15.2867   21.2609 N   0  0  0  0  0  0  0  0  0  0  0  0
    9.5808  -16.3044   20.6670 C   0  0  0  0  0  0  0  0  0  0  0  0
   10.1761  -17.2962   20.1983 O   0  0  0  0  0  0  0  0  0  0  0  0
   12.7680  -13.8975   19.4636 N   0  0  0  0  0  0  0  0  0  0  0  0
   12.8561  -15.1104   20.2567 C   0  0  0  0  0  0  0  0  0  0  0  0
   13.0984  -16.1419   19.6014 O   0  0  0  0  0  0  0  0  0  0  0  0
   12.6556  -14.9693   21.7124 C   0  0  0  0  0  0  0  0  0  0  0  0
   11.4778  -15.7630   22.2397 C   0  0  2  0  0  0  0  0  0  0  0  0
   10.2147  -15.5253   21.6571 N   0  0  0  0  0  0  0  0  0  0  0  0
   11.4948  -15.9764   23.7004 C   0  0  0  0  0  0  0  0  0  0  0  0
   12.3399  -15.3806   24.4565 O   0  0  0  0  0  0  0  0  0  0  0  0
   10.6057  -16.8369   24.3898 N   0  0  0  0  0  0  0  0  0  0  0  0
   10.4974  -16.8599   25.8513 C   0  0  1  0  0  0  0  0  0  0  0  0
   10.1206  -15.4708   26.2803 C   0  0  0  0  0  0  0  0  0  0  0  0
    8.6882  -15.1366   26.1851 C   0  0  0  0  0  0  0  0  0  0  0  0
    7.7079  -16.0476   25.7790 C   0  0  0  0  0  0  0  0  0  0  0  0
    6.5515  -15.3758   25.7927 N   0  0  0  0  0  0  0  0  0  0  0  0
    6.7384  -14.1047   26.1800 C   0  0  0  0  0  0  0  0  0  0  0  0
    5.8560  -13.0627   26.3554 C   0  0  0  0  0  0  0  0  0  0  0  0
    6.3263  -11.8340   26.7905 C   0  0  0  0  0  0  0  0  0  0  0  0
    7.6598  -11.6229   27.0542 C   0  0  0  0  0  0  0  0  0  0  0  0
    8.5268  -12.6876   26.8700 C   0  0  0  0  0  0  0  0  0  0  0  0
    8.0803  -13.9252   26.4356 C   0  0  0  0  0  0  0  0  0  0  0  0
    9.5896  -17.9332   26.2133 C   0  0  0  0  0  0  0  0  0  0  0  0
    8.8839  -18.5368   25.3233 O   0  0  0  0  0  0  0  0  0  0  0  0
    9.3818  -18.4251   27.5058 O   0  0  0  0  0  0  0  0  0  0  0  0
  2  1  1  1
  2  3  1  0
  4  2  1  0
  5  4  1  0
  5  6  1  1
  7  8  2  0
  7  5  1  0
 10 12  1  0
 10  9  1  0
 11 10  2  0
 13 12  1  1
 13 14  1  0
 14  7  1  0
 15 13  1  0
 15 17  1  0
 16 15  2  0
 18 17  1  0
 18 29  1  0
 19 20  1  0
 18 19  1  6
 20 28  1  0
 21 22  1  0
 21 20  2  0
 22 23  1  0
 23 28  2  0
 23 24  1  0
 24 25  2  0
 25 26  1  0
 27 26  2  0
 28 27  1  0
 29 30  2  0
 29 31  1  0
M  END
$$$$
