LNW.pdb
     RDKit          3D

 31 32  0  0  1  0  0  0  0  0999 V2000
    7.2081  -11.8495   20.3204 C   0  0  0  0  0  0  0  0  0  0  0  0
    7.5965  -13.2007   19.7801 C   0  0  1  0  0  0  0  0  0  0  0  0
    8.8300  -13.0599   18.8708 C   0  0  0  0  0  0  0  0  0  0  0  0
    7.9756  -14.1903   20.8416 C   0  0  0  0  0  0  0  0  0  0  0  0
    8.2443  -15.5723   20.3557 C   0  0  2  0  0  0  0  0  0  0  0  0
    7.0341  -16.1147   19.7538 N   0  0  0  0  0  0  0  0  0  0  0  0
    8.6704  -16.5145   21.4536 C   0  0  0  0  0  0  0  0  0  0  0  0
    7.8087  -17.1274   22.1167 O   0  0  0  0  0  0  0  0  0  0  0  0
   11.7449  -20.4934   23.6814 N   0  0  0  0  0  0  0  0  0  0  0  0
   12.2607  -19.1371   23.6344 C   0  0  0  0  0  0  0  0  0  0  0  0
   13.0276  -18.8413   24.5705 O   0  0  0  0  0  0  0  0  0  0  0  0
   11.8227  -18.2978   22.5017 C   0  0  0  0  0  0  0  0  0  0  0  0
   10.5699  -17.4970   22.7922 C   0  0  2  0  0  0  0  0  0  0  0  0
   10.0354  -16.7153   21.7460 N   0  0  0  0  0  0  0  0  0  0  0  0
   10.5309  -16.8990   24.1413 C   0  0  0  0  0  0  0  0  0  0  0  0
   11.0597  -15.7582   24.3861 O   0  0  0  0  0  0  0  0  0  0  0  0
    9.9244  -17.5102   25.2659 N   0  0  0  0  0  0  0  0  0  0  0  0
    9.9185  -16.8950   26.5963 C   0  0  1  0  0  0  0  0  0  0  0  0
    8.4827  -16.8112   27.0291 C   0  0  0  0  0  0  0  0  0  0  0  0
    7.6484  -15.8402   26.2986 C   0  0  0  0  0  0  0  0  0  0  0  0
    6.6471  -16.2083   25.3944 C   0  0  0  0  0  0  0  0  0  0  0  0
    6.1387  -15.0654   24.9213 N   0  0  0  0  0  0  0  0  0  0  0  0
    6.7523  -14.0040   25.4668 C   0  0  0  0  0  0  0  0  0  0  0  0
    6.5613  -12.6510   25.2993 C   0  0  0  0  0  0  0  0  0  0  0  0
    7.3391  -11.7565   26.0170 C   0  0  0  0  0  0  0  0  0  0  0  0
    8.3045  -12.1839   26.8988 C   0  0  0  0  0  0  0  0  0  0  0  0
    8.4765  -13.5503   27.0492 C   0  0  0  0  0  0  0  0  0  0  0  0
    7.7113  -14.4640   26.3425 C   0  0  0  0  0  0  0  0  0  0  0  0
   10.8211  -17.6547   27.4419 C   0  0  0  0  0  0  0  0  0  0  0  0
   11.3690  -18.7408   27.0239 O   0  0  0  0  0  0  0  0  0  0  0  0
   11.1944  -17.3179   28.7468 O   0  0  0  0  0  0  0  0  0  0  0  0
  2  1  1  1
  2  3  1  0
  4  2  1  0
  5  4  1  0
  5  6  1  1
  7  8  2  0
  7  5  1  0
 10 12  1  0
 10  9  1  0
 11 10  2  0
 13 12  1  6
 13 14  1  0
 14  7  1  0
 15 13  1  0
 15 17  1  0
 16 15  2  0
 18 17  1  0
 18 29  1  0
 19 20  1  0
 18 19  1  1
 20 28  1  0
 21 22  1  0
 21 20  2  0
 22 23  1  0
 23 28  2  0
 23 24  1  0
 24 25  2  0
 25 26  1  0
 27 26  2  0
 28 27  1  0
 29 30  2  0
 29 31  1  0
M  END
$$$$
