LNW.pdb
     RDKit          3D

 31 32  0  0  1  0  0  0  0  0999 V2000
    6.2831  -12.9379   21.1500 C   0  0  0  0  0  0  0  0  0  0  0  0
    7.2039  -13.7655   20.2922 C   0  0  1  0  0  0  0  0  0  0  0  0
    8.3218  -12.8742   19.7229 C   0  0  0  0  0  0  0  0  0  0  0  0
    7.8937  -14.8700   21.0363 C   0  0  0  0  0  0  0  0  0  0  0  0
    8.7386  -15.7683   20.2013 C   0  0  2  0  0  0  0  0  0  0  0  0
    7.9328  -16.3200   19.1207 N   0  0  0  0  0  0  0  0  0  0  0  0
    9.3187  -16.9255   20.9754 C   0  0  0  0  0  0  0  0  0  0  0  0
    9.4669  -18.0334   20.4202 O   0  0  0  0  0  0  0  0  0  0  0  0
   13.8918  -17.8739   22.6280 N   0  0  0  0  0  0  0  0  0  0  0  0
   13.4689  -16.4865   22.5661 C   0  0  0  0  0  0  0  0  0  0  0  0
   14.3107  -15.6686   22.9840 O   0  0  0  0  0  0  0  0  0  0  0  0
   12.1218  -16.2253   22.0217 C   0  0  0  0  0  0  0  0  0  0  0  0
   11.0078  -16.8359   22.8472 C   0  0  2  0  0  0  0  0  0  0  0  0
    9.6981  -16.7757   22.3255 N   0  0  0  0  0  0  0  0  0  0  0  0
   11.1431  -16.6224   24.3017 C   0  0  0  0  0  0  0  0  0  0  0  0
   12.2691  -16.7540   24.8980 O   0  0  0  0  0  0  0  0  0  0  0  0
   10.0725  -16.2633   25.1567 N   0  0  0  0  0  0  0  0  0  0  0  0
   10.1471  -16.3853   26.6155 C   0  0  1  0  0  0  0  0  0  0  0  0
    8.7333  -16.4080   27.1218 C   0  0  0  0  0  0  0  0  0  0  0  0
    7.7920  -15.5047   26.4359 C   0  0  0  0  0  0  0  0  0  0  0  0
    6.7487  -15.9519   25.6190 C   0  0  0  0  0  0  0  0  0  0  0  0
    6.1413  -14.8519   25.1610 N   0  0  0  0  0  0  0  0  0  0  0  0
    6.7317  -13.7440   25.6345 C   0  0  0  0  0  0  0  0  0  0  0  0
    6.4510  -12.4086   25.4523 C   0  0  0  0  0  0  0  0  0  0  0  0
    7.2275  -11.4534   26.0886 C   0  0  0  0  0  0  0  0  0  0  0  0
    8.2794  -11.8029   26.9035 C   0  0  0  0  0  0  0  0  0  0  0  0
    8.5406  -13.1532   27.0704 C   0  0  0  0  0  0  0  0  0  0  0  0
    7.7786  -14.1265   26.4445 C   0  0  0  0  0  0  0  0  0  0  0  0
   10.9788  -17.5343   26.9239 C   0  0  0  0  0  0  0  0  0  0  0  0
   11.2869  -18.3952   26.0192 O   0  0  0  0  0  0  0  0  0  0  0  0
   11.5265  -17.8328   28.1755 O   0  0  0  0  0  0  0  0  0  0  0  0
  2  1  1  1
  2  3  1  0
  4  2  1  0
  5  4  1  0
  5  6  1  6
  7  8  2  0
  7  5  1  0
 10 12  1  0
 10  9  1  0
 11 10  2  0
 13 12  1  6
 13 14  1  0
 14  7  1  0
 15 13  1  0
 15 17  1  0
 16 15  2  0
 18 17  1  0
 18 29  1  0
 19 20  1  0
 18 19  1  6
 20 28  1  0
 21 22  1  0
 21 20  2  0
 22 23  1  0
 23 28  2  0
 23 24  1  0
 24 25  2  0
 25 26  1  0
 27 26  2  0
 28 27  1  0
 29 30  2  0
 29 31  1  0
M  END
$$$$
