LNW.pdb
     RDKit          3D

 31 32  0  0  1  0  0  0  0  0999 V2000
    7.1620  -12.3616   19.5907 C   0  0  0  0  0  0  0  0  0  0  0  0
    8.0439  -13.5622   19.3688 C   0  0  1  0  0  0  0  0  0  0  0  0
    9.5074  -13.1097   19.2209 C   0  0  0  0  0  0  0  0  0  0  0  0
    8.0268  -14.5431   20.5034 C   0  0  0  0  0  0  0  0  0  0  0  0
    8.8767  -15.7512   20.3124 C   0  0  2  0  0  0  0  0  0  0  0  0
    8.4748  -16.4343   19.0905 N   0  0  0  0  0  0  0  0  0  0  0  0
    8.7657  -16.7396   21.4461 C   0  0  0  0  0  0  0  0  0  0  0  0
    8.0642  -17.7633   21.3126 O   0  0  0  0  0  0  0  0  0  0  0  0
   12.3618  -19.9268   23.0834 N   0  0  0  0  0  0  0  0  0  0  0  0
   12.6600  -18.5323   22.8109 C   0  0  0  0  0  0  0  0  0  0  0  0
   13.8076  -18.1739   23.1376 O   0  0  0  0  0  0  0  0  0  0  0  0
   11.5870  -17.7319   22.1886 C   0  0  0  0  0  0  0  0  0  0  0  0
   10.5281  -17.2737   23.1705 C   0  0  2  0  0  0  0  0  0  0  0  0
    9.4452  -16.5246   22.6631 N   0  0  0  0  0  0  0  0  0  0  0  0
   11.0584  -16.8514   24.4818 C   0  0  0  0  0  0  0  0  0  0  0  0
   12.0398  -17.4593   25.0370 O   0  0  0  0  0  0  0  0  0  0  0  0
   10.5486  -15.7652   25.2345 N   0  0  0  0  0  0  0  0  0  0  0  0
   10.1856  -15.8818   26.6499 C   0  0  1  0  0  0  0  0  0  0  0  0
    8.7766  -16.3997   26.6951 C   0  0  0  0  0  0  0  0  0  0  0  0
    7.7466  -15.5055   26.1364 C   0  0  0  0  0  0  0  0  0  0  0  0
    6.6182  -15.9622   25.4480 C   0  0  0  0  0  0  0  0  0  0  0  0
    5.9445  -14.8681   25.0768 N   0  0  0  0  0  0  0  0  0  0  0  0
    6.5726  -13.7549   25.4851 C   0  0  0  0  0  0  0  0  0  0  0  0
    6.2535  -12.4226   25.3502 C   0  0  0  0  0  0  0  0  0  0  0  0
    7.0881  -11.4606   25.8962 C   0  0  0  0  0  0  0  0  0  0  0  0
    8.2357  -11.8003   26.5745 C   0  0  0  0  0  0  0  0  0  0  0  0
    8.5340  -13.1477   26.6964 C   0  0  0  0  0  0  0  0  0  0  0  0
    7.7152  -14.1277   26.1589 C   0  0  0  0  0  0  0  0  0  0  0  0
   11.2051  -16.6798   27.3063 C   0  0  0  0  0  0  0  0  0  0  0  0
   11.2933  -16.7230   28.5888 O   0  0  0  0  0  0  0  0  0  0  0  0
   12.1662  -17.4657   26.6627 O   0  0  0  0  0  0  0  0  0  0  0  0
  2  1  1  1
  2  3  1  0
  4  2  1  0
  5  4  1  0
  5  6  1  6
  7  8  2  0
  7  5  1  0
 10 12  1  0
 10  9  1  0
 11 10  2  0
 13 12  1  6
 13 14  1  0
 14  7  1  0
 15 13  1  0
 15 17  1  0
 16 15  2  0
 18 17  1  0
 18 29  1  0
 19 20  1  0
 18 19  1  6
 20 28  1  0
 21 22  1  0
 21 20  2  0
 22 23  1  0
 23 28  2  0
 23 24  1  0
 24 25  2  0
 25 26  1  0
 27 26  2  0
 28 27  1  0
 29 30  2  0
 29 31  1  0
M  END
$$$$
