LNW.pdb
     RDKit          3D

 31 32  0  0  1  0  0  0  0  0999 V2000
  -76.8837  -61.3085  -23.5409 C   0  0  0  0  0  0  0  0  0  0  0  0
  -77.4505  -62.4618  -24.3265 C   0  0  1  0  0  0  0  0  0  0  0  0
  -78.0283  -63.5117  -23.3611 C   0  0  0  0  0  0  0  0  0  0  0  0
  -78.5757  -62.0762  -25.2402 C   0  0  0  0  0  0  0  0  0  0  0  0
  -78.7024  -60.6174  -25.5123 C   0  0  2  0  0  0  0  0  0  0  0  0
  -77.7941  -59.8844  -24.6411 N   0  0  0  0  0  0  0  0  0  0  0  0
  -80.0939  -60.0878  -25.2710 C   0  0  0  0  0  0  0  0  0  0  0  0
  -80.3633  -59.5138  -24.1959 O   0  0  0  0  0  0  0  0  0  0  0  0
  -84.4635  -61.5978  -28.7323 N   0  0  0  0  0  0  0  0  0  0  0  0
  -83.6944  -62.3876  -27.7876 C   0  0  0  0  0  0  0  0  0  0  0  0
  -83.6105  -63.5979  -28.0708 O   0  0  0  0  0  0  0  0  0  0  0  0
  -83.1162  -61.6687  -26.6351 C   0  0  0  0  0  0  0  0  0  0  0  0
  -81.6227  -61.4426  -26.7516 C   0  0  2  0  0  0  0  0  0  0  0  0
  -81.1026  -60.2321  -26.2460 N   0  0  0  0  0  0  0  0  0  0  0  0
  -81.0310  -61.9331  -28.0120 C   0  0  0  0  0  0  0  0  0  0  0  0
  -81.3235  -61.4049  -29.1417 O   0  0  0  0  0  0  0  0  0  0  0  0
  -80.1098  -63.0059  -28.0946 N   0  0  0  0  0  0  0  0  0  0  0  0
  -78.7262  -62.8305  -28.5455 C   0  0  1  0  0  0  0  0  0  0  0  0
  -78.5084  -61.3539  -28.7130 C   0  0  0  0  0  0  0  0  0  0  0  0
  -77.1321  -60.8787  -28.4838 C   0  0  0  0  0  0  0  0  0  0  0  0
  -75.9948  -61.5683  -28.9162 C   0  0  0  0  0  0  0  0  0  0  0  0
  -74.9469  -60.8475  -28.5028 N   0  0  0  0  0  0  0  0  0  0  0  0
  -75.3480  -59.7519  -27.8403 C   0  0  0  0  0  0  0  0  0  0  0  0
  -74.6404  -58.7258  -27.2557 C   0  0  0  0  0  0  0  0  0  0  0  0
  -75.3224  -57.6878  -26.6414 C   0  0  0  0  0  0  0  0  0  0  0  0
  -76.6969  -57.6519  -26.5977 C   0  0  0  0  0  0  0  0  0  0  0  0
  -77.3853  -58.6962  -27.1935 C   0  0  0  0  0  0  0  0  0  0  0  0
  -76.7256  -59.7451  -27.8135 C   0  0  0  0  0  0  0  0  0  0  0  0
  -77.8616  -63.5247  -27.6088 C   0  0  0  0  0  0  0  0  0  0  0  0
  -78.0733  -63.4698  -26.3412 O   0  0  0  0  0  0  0  0  0  0  0  0
  -76.7512  -64.3045  -27.9471 O   0  0  0  0  0  0  0  0  0  0  0  0
  2  1  1  1
  2  3  1  0
  4  2  1  0
  5  4  1  0
  5  6  1  1
  7  8  2  0
  7  5  1  0
 10 12  1  0
 10  9  1  0
 11 10  2  0
 13 12  1  6
 13 14  1  0
 14  7  1  0
 15 13  1  0
 15 17  1  0
 16 15  2  0
 18 17  1  0
 18 29  1  0
 19 20  1  0
 18 19  1  1
 20 28  1  0
 21 22  1  0
 21 20  2  0
 22 23  1  0
 23 28  2  0
 23 24  1  0
 24 25  2  0
 25 26  1  0
 27 26  2  0
 28 27  1  0
 29 30  2  0
 29 31  1  0
M  END
$$$$
