LNW.pdb
     RDKit          3D

 31 32  0  0  1  0  0  0  0  0999 V2000
    8.4060  -12.5650   18.2202 C   0  0  0  0  0  0  0  0  0  0  0  0
    8.0716  -13.4397   19.3998 C   0  0  1  0  0  0  0  0  0  0  0  0
    6.5691  -13.3322   19.7149 C   0  0  0  0  0  0  0  0  0  0  0  0
    8.3426  -14.8967   19.1685 C   0  0  0  0  0  0  0  0  0  0  0  0
    8.2289  -15.7638   20.3740 C   0  0  2  0  0  0  0  0  0  0  0  0
    7.6992  -14.9809   21.4820 N   0  0  0  0  0  0  0  0  0  0  0  0
    9.5499  -16.3433   20.8144 C   0  0  0  0  0  0  0  0  0  0  0  0
    9.9217  -17.4502   20.3735 O   0  0  0  0  0  0  0  0  0  0  0  0
   12.9134  -13.8450   20.1478 N   0  0  0  0  0  0  0  0  0  0  0  0
   12.7907  -15.2753   20.3648 C   0  0  0  0  0  0  0  0  0  0  0  0
   12.6264  -15.9449   19.3271 O   0  0  0  0  0  0  0  0  0  0  0  0
   12.8791  -15.7463   21.7610 C   0  0  0  0  0  0  0  0  0  0  0  0
   11.5412  -16.1432   22.3506 C   0  0  2  0  0  0  0  0  0  0  0  0
   10.3773  -15.6508   21.7228 N   0  0  0  0  0  0  0  0  0  0  0  0
   11.5183  -16.1914   23.8259 C   0  0  0  0  0  0  0  0  0  0  0  0
   12.2732  -15.4371   24.5344 O   0  0  0  0  0  0  0  0  0  0  0  0
   10.6852  -17.0523   24.5815 N   0  0  0  0  0  0  0  0  0  0  0  0
   10.5353  -16.9366   26.0350 C   0  0  1  0  0  0  0  0  0  0  0  0
   10.2094  -15.4993   26.3245 C   0  0  0  0  0  0  0  0  0  0  0  0
    8.7895  -15.1252   26.1955 C   0  0  0  0  0  0  0  0  0  0  0  0
    7.7906  -16.0144   25.7863 C   0  0  0  0  0  0  0  0  0  0  0  0
    6.6546  -15.3090   25.7656 N   0  0  0  0  0  0  0  0  0  0  0  0
    6.8715  -14.0371   26.1341 C   0  0  0  0  0  0  0  0  0  0  0  0
    6.0171  -12.9667   26.2739 C   0  0  0  0  0  0  0  0  0  0  0  0
    6.5152  -11.7446   26.6965 C   0  0  0  0  0  0  0  0  0  0  0  0
    7.8491  -11.5678   26.9825 C   0  0  0  0  0  0  0  0  0  0  0  0
    8.6876  -12.6606   26.8340 C   0  0  0  0  0  0  0  0  0  0  0  0
    8.2131  -13.8923   26.4127 C   0  0  0  0  0  0  0  0  0  0  0  0
    9.5705  -17.9330   26.4635 C   0  0  0  0  0  0  0  0  0  0  0  0
    8.8453  -18.5670   25.6111 O   0  0  0  0  0  0  0  0  0  0  0  0
    9.3239  -18.3141   27.7861 O   0  0  0  0  0  0  0  0  0  0  0  0
  2  1  1  6
  2  3  1  0
  4  2  1  0
  5  4  1  0
  5  6  1  1
  7  8  2  0
  7  5  1  0
 10 12  1  0
 10  9  1  0
 11 10  2  0
 13 12  1  1
 13 14  1  0
 14  7  1  0
 15 13  1  0
 15 17  1  0
 16 15  2  0
 18 17  1  0
 18 29  1  0
 19 20  1  0
 18 19  1  6
 20 28  1  0
 21 22  1  0
 21 20  2  0
 22 23  1  0
 23 28  2  0
 23 24  1  0
 24 25  2  0
 25 26  1  0
 27 26  2  0
 28 27  1  0
 29 30  2  0
 29 31  1  0
M  END
$$$$
