LNW.pdb
     RDKit          3D

 31 32  0  0  1  0  0  0  0  0999 V2000
    6.4923  -13.0983   17.9085 C   0  0  0  0  0  0  0  0  0  0  0  0
    7.8554  -13.4611   18.4366 C   0  0  1  0  0  0  0  0  0  0  0  0
    8.7546  -12.2123   18.4505 C   0  0  0  0  0  0  0  0  0  0  0  0
    7.8408  -13.9762   19.8452 C   0  0  0  0  0  0  0  0  0  0  0  0
    9.1803  -14.2492   20.4363 C   0  0  2  0  0  0  0  0  0  0  0  0
   10.0951  -14.6675   19.3830 N   0  0  0  0  0  0  0  0  0  0  0  0
    9.1572  -15.3375   21.4802 C   0  0  0  0  0  0  0  0  0  0  0  0
    8.2873  -15.3227   22.3752 O   0  0  0  0  0  0  0  0  0  0  0  0
   10.2768  -20.8437   23.1827 N   0  0  0  0  0  0  0  0  0  0  0  0
   11.1132  -19.6636   23.0583 C   0  0  0  0  0  0  0  0  0  0  0  0
   12.0180  -19.5772   23.9103 O   0  0  0  0  0  0  0  0  0  0  0  0
   10.7942  -18.7354   21.9557 C   0  0  0  0  0  0  0  0  0  0  0  0
   10.2676  -17.3954   22.4273 C   0  0  2  0  0  0  0  0  0  0  0  0
   10.1090  -16.3781   21.4623 N   0  0  0  0  0  0  0  0  0  0  0  0
   10.7787  -16.9724   23.7460 C   0  0  0  0  0  0  0  0  0  0  0  0
   11.8189  -16.2333   23.8578 O   0  0  0  0  0  0  0  0  0  0  0  0
   10.1879  -17.3328   24.9819 N   0  0  0  0  0  0  0  0  0  0  0  0
   10.4434  -16.6018   26.2264 C   0  0  1  0  0  0  0  0  0  0  0  0
    9.9728  -15.1926   26.0064 C   0  0  0  0  0  0  0  0  0  0  0  0
    8.5208  -14.9741   26.1347 C   0  0  0  0  0  0  0  0  0  0  0  0
    7.5671  -15.9736   25.9177 C   0  0  0  0  0  0  0  0  0  0  0  0
    6.3761  -15.3931   26.0995 N   0  0  0  0  0  0  0  0  0  0  0  0
    6.5164  -14.0967   26.4162 C   0  0  0  0  0  0  0  0  0  0  0  0
    5.5900  -13.1196   26.7030 C   0  0  0  0  0  0  0  0  0  0  0  0
    6.0203  -11.8416   27.0222 C   0  0  0  0  0  0  0  0  0  0  0  0
    7.3568  -11.5178   27.0610 C   0  0  0  0  0  0  0  0  0  0  0  0
    8.2684  -12.5191   26.7687 C   0  0  0  0  0  0  0  0  0  0  0  0
    7.8624  -13.8040   26.4465 C   0  0  0  0  0  0  0  0  0  0  0  0
    9.8277  -17.3430   27.3121 C   0  0  0  0  0  0  0  0  0  0  0  0
    9.0354  -18.3292   27.0795 O   0  0  0  0  0  0  0  0  0  0  0  0
   10.0121  -17.0961   28.6762 O   0  0  0  0  0  0  0  0  0  0  0  0
  2  1  1  1
  2  3  1  0
  4  2  1  0
  5  4  1  0
  5  6  1  6
  7  8  2  0
  7  5  1  0
 10 12  1  0
 10  9  1  0
 11 10  2  0
 13 12  1  6
 13 14  1  0
 14  7  1  0
 15 13  1  0
 15 17  1  0
 16 15  2  0
 18 17  1  0
 18 29  1  0
 19 20  1  0
 18 19  1  6
 20 28  1  0
 21 22  1  0
 21 20  2  0
 22 23  1  0
 23 28  2  0
 23 24  1  0
 24 25  2  0
 25 26  1  0
 27 26  2  0
 28 27  1  0
 29 30  2  0
 29 31  1  0
M  END
$$$$
