LNW.pdb
     RDKit          3D

 31 32  0  0  1  0  0  0  0  0999 V2000
    6.9174  -12.2855   19.7597 C   0  0  0  0  0  0  0  0  0  0  0  0
    7.7828  -13.4078   19.2497 C   0  0  1  0  0  0  0  0  0  0  0  0
    9.1002  -12.8358   18.6968 C   0  0  0  0  0  0  0  0  0  0  0  0
    8.1728  -14.3986   20.3059 C   0  0  0  0  0  0  0  0  0  0  0  0
    8.9133  -15.5937   19.8144 C   0  0  2  0  0  0  0  0  0  0  0  0
    8.1535  -16.2240   18.7436 N   0  0  0  0  0  0  0  0  0  0  0  0
    9.1417  -16.6315   20.8847 C   0  0  0  0  0  0  0  0  0  0  0  0
    8.1685  -17.2234   21.3951 O   0  0  0  0  0  0  0  0  0  0  0  0
   14.0190  -18.8866   21.1202 N   0  0  0  0  0  0  0  0  0  0  0  0
   12.5809  -18.7024   21.0451 C   0  0  0  0  0  0  0  0  0  0  0  0
   12.1429  -18.5035   19.8959 O   0  0  0  0  0  0  0  0  0  0  0  0
   11.8335  -18.7773   22.3159 C   0  0  0  0  0  0  0  0  0  0  0  0
   10.7961  -17.6842   22.4720 C   0  0  2  0  0  0  0  0  0  0  0  0
   10.4452  -16.9458   21.3218 N   0  0  0  0  0  0  0  0  0  0  0  0
   10.9025  -16.9219   23.7317 C   0  0  0  0  0  0  0  0  0  0  0  0
   11.7274  -15.9507   23.8615 O   0  0  0  0  0  0  0  0  0  0  0  0
   10.1269  -17.1825   24.8879 N   0  0  0  0  0  0  0  0  0  0  0  0
   10.4404  -16.6082   26.1995 C   0  0  1  0  0  0  0  0  0  0  0  0
   10.1141  -15.1442   26.1212 C   0  0  0  0  0  0  0  0  0  0  0  0
    8.6859  -14.8128   25.9694 C   0  0  0  0  0  0  0  0  0  0  0  0
    7.6974  -15.7633   25.6951 C   0  0  0  0  0  0  0  0  0  0  0  0
    6.5485  -15.0848   25.6033 N   0  0  0  0  0  0  0  0  0  0  0  0
    6.7477  -13.7728   25.8015 C   0  0  0  0  0  0  0  0  0  0  0  0
    5.8762  -12.7072   25.8172 C   0  0  0  0  0  0  0  0  0  0  0  0
    6.3581  -11.4330   26.0705 C   0  0  0  0  0  0  0  0  0  0  0  0
    7.6927  -11.1993   26.3086 C   0  0  0  0  0  0  0  0  0  0  0  0
    8.5487  -12.2884   26.2875 C   0  0  0  0  0  0  0  0  0  0  0  0
    8.0904  -13.5716   26.0362 C   0  0  0  0  0  0  0  0  0  0  0  0
    9.7429  -17.3886   27.2052 C   0  0  0  0  0  0  0  0  0  0  0  0
    8.9476  -18.3435   26.8733 O   0  0  0  0  0  0  0  0  0  0  0  0
    9.8455  -17.2149   28.5890 O   0  0  0  0  0  0  0  0  0  0  0  0
  2  1  1  1
  2  3  1  0
  4  2  1  0
  5  4  1  0
  5  6  1  6
  7  8  2  0
  7  5  1  0
 10 12  1  0
 10  9  1  0
 11 10  2  0
 13 12  1  6
 13 14  1  0
 14  7  1  0
 15 13  1  0
 15 17  1  0
 16 15  2  0
 18 17  1  0
 18 29  1  0
 19 20  1  0
 18 19  1  6
 20 28  1  0
 21 22  1  0
 21 20  2  0
 22 23  1  0
 23 28  2  0
 23 24  1  0
 24 25  2  0
 25 26  1  0
 27 26  2  0
 28 27  1  0
 29 30  2  0
 29 31  1  0
M  END
$$$$
