LNW.pdb
     RDKit          3D

 31 32  0  0  1  0  0  0  0  0999 V2000
    8.4836  -12.3008   19.0159 C   0  0  0  0  0  0  0  0  0  0  0  0
    7.8248  -13.5907   19.4290 C   0  0  1  0  0  0  0  0  0  0  0  0
    6.3441  -13.5733   19.0101 C   0  0  0  0  0  0  0  0  0  0  0  0
    8.4222  -14.8076   18.7873 C   0  0  0  0  0  0  0  0  0  0  0  0
    8.3048  -16.0652   19.5765 C   0  0  2  0  0  0  0  0  0  0  0  0
    7.5435  -15.8026   20.7901 N   0  0  0  0  0  0  0  0  0  0  0  0
    9.6396  -16.6336   19.9886 C   0  0  0  0  0  0  0  0  0  0  0  0
   10.4030  -17.1160   19.1270 O   0  0  0  0  0  0  0  0  0  0  0  0
   12.8986  -14.5027   20.0679 N   0  0  0  0  0  0  0  0  0  0  0  0
   12.9579  -15.3454   21.2486 C   0  0  0  0  0  0  0  0  0  0  0  0
   13.3665  -14.7708   22.2758 O   0  0  0  0  0  0  0  0  0  0  0  0
   12.5301  -16.7489   21.0864 C   0  0  0  0  0  0  0  0  0  0  0  0
   11.2715  -17.0899   21.8577 C   0  0  2  0  0  0  0  0  0  0  0  0
   10.0419  -16.6298   21.3403 N   0  0  0  0  0  0  0  0  0  0  0  0
   11.4253  -17.0356   23.3249 C   0  0  0  0  0  0  0  0  0  0  0  0
   12.5174  -17.3796   23.8991 O   0  0  0  0  0  0  0  0  0  0  0  0
   10.4098  -16.6118   24.2168 N   0  0  0  0  0  0  0  0  0  0  0  0
   10.5703  -16.6413   25.6734 C   0  0  1  0  0  0  0  0  0  0  0  0
   10.1501  -15.2927   26.1836 C   0  0  0  0  0  0  0  0  0  0  0  0
    8.7008  -15.0243   26.1679 C   0  0  0  0  0  0  0  0  0  0  0  0
    7.7391  -15.9930   25.8640 C   0  0  0  0  0  0  0  0  0  0  0  0
    6.5567  -15.3712   25.9252 N   0  0  0  0  0  0  0  0  0  0  0  0
    6.7098  -14.0775   26.2470 C   0  0  0  0  0  0  0  0  0  0  0  0
    5.7940  -13.0673   26.4365 C   0  0  0  0  0  0  0  0  0  0  0  0
    6.2347  -11.8019   26.7894 C   0  0  0  0  0  0  0  0  0  0  0  0
    7.5713  -11.5228   26.9571 C   0  0  0  0  0  0  0  0  0  0  0  0
    8.4722  -12.5567   26.7609 C   0  0  0  0  0  0  0  0  0  0  0  0
    8.0557  -13.8300   26.4074 C   0  0  0  0  0  0  0  0  0  0  0  0
    9.8466  -17.7943   26.1775 C   0  0  0  0  0  0  0  0  0  0  0  0
    9.1198  -18.5162   25.3996 O   0  0  0  0  0  0  0  0  0  0  0  0
    9.8516  -18.2461   27.5009 O   0  0  0  0  0  0  0  0  0  0  0  0
  2  1  1  6
  2  3  1  0
  4  2  1  0
  5  4  1  0
  5  6  1  1
  7  8  2  0
  7  5  1  0
 10 12  1  0
 10  9  1  0
 11 10  2  0
 13 12  1  6
 13 14  1  0
 14  7  1  0
 15 13  1  0
 15 17  1  0
 16 15  2  0
 18 17  1  0
 18 29  1  0
 19 20  1  0
 18 19  1  1
 20 28  1  0
 21 22  1  0
 21 20  2  0
 22 23  1  0
 23 28  2  0
 23 24  1  0
 24 25  2  0
 25 26  1  0
 27 26  2  0
 28 27  1  0
 29 30  2  0
 29 31  1  0
M  END
$$$$
