HDQ.pdb
     RDKit          3D

 28 28  0  0  1  0  0  0  0  0999 V2000
   24.7033  -14.1798  -17.8579 N   0  0  0  0  0  0  0  0  0  0  0  0
   24.8521  -13.2528  -16.7374 C   0  0  1  0  0  0  0  0  0  0  0  0
   26.3390  -13.0993  -16.5094 C   0  0  0  0  0  0  0  0  0  0  0  0
   26.9429  -14.4521  -16.2497 C   0  0  0  0  0  0  0  0  0  0  0  0
   26.7162  -15.2439  -15.1254 C   0  0  0  0  0  0  0  0  0  0  0  0
   27.4379  -16.3673  -15.2846 N   0  0  0  0  0  0  0  0  0  0  0  0
   28.1060  -16.3070  -16.4645 C   0  0  0  0  0  0  0  0  0  0  0  0
   27.7873  -15.1463  -17.0179 N   0  0  0  0  0  0  0  0  0  0  0  0
   24.2089  -11.9676  -17.0773 C   0  0  0  0  0  0  0  0  0  0  0  0
   24.8610  -10.8938  -17.2668 O   0  0  0  0  0  0  0  0  0  0  0  0
   22.7986  -11.8694  -17.2125 N   0  0  0  0  0  0  0  0  0  0  0  0
   22.1195  -10.6540  -17.5700 C   0  0  1  0  0  0  0  0  0  0  0  0
   20.7349  -10.9404  -18.1097 C   0  0  0  0  0  0  0  0  0  0  0  0
   20.7426  -11.7351  -19.3573 C   0  0  0  0  0  0  0  0  0  0  0  0
   20.1041  -12.8109  -19.4116 O   0  0  0  0  0  0  0  0  0  0  0  0
   22.1315   -9.6339  -16.5264 C   0  0  0  0  0  0  0  0  0  0  0  0
   22.1090  -10.0273  -15.3281 O   0  0  0  0  0  0  0  0  0  0  0  0
   21.4341  -11.3433  -20.4915 O   0  0  0  0  0  0  0  0  0  0  0  0
   23.0955   -3.2247  -17.2866 N   0  0  0  0  0  0  0  0  0  0  0  0
   22.8550   -3.4361  -15.9047 C   0  0  0  0  0  0  0  0  0  0  0  0
   22.8565   -2.4129  -15.1557 O   0  0  0  0  0  0  0  0  0  0  0  0
   22.6000   -4.7477  -15.2895 C   0  0  0  0  0  0  0  0  0  0  0  0
   22.5207   -5.9064  -16.2055 C   0  0  0  0  0  0  0  0  0  0  0  0
   22.2272   -7.2415  -15.6546 C   0  0  2  0  0  0  0  0  0  0  0  0
   22.1653   -8.2447  -16.7397 N   0  0  0  0  0  0  0  0  0  0  0  0
   21.1268   -7.3754  -14.7294 C   0  0  0  0  0  0  0  0  0  0  0  0
   19.9526   -7.6578  -15.0634 O   0  0  0  0  0  0  0  0  0  0  0  0
   21.3212   -7.1883  -13.3412 O   0  0  0  0  0  0  0  0  0  0  0  0
  2  1  1  6
  3  4  1  0
  3  2  1  0
  4  5  2  0
  4  8  1  0
  5  6  1  0
  6  7  1  0
  8  7  2  0
  9 11  1  0
  9  2  1  0
 10  9  2  0
 12 11  1  0
 13 14  1  0
 12 13  1  1
 14 15  2  0
 16 17  2  0
 16 12  1  0
 18 14  1  0
 19 20  1  0
 20 22  1  0
 21 20  2  0
 23 22  1  0
 24 25  1  0
 24 23  1  6
 25 16  1  0
 26 24  1  0
 27 26  2  0
 28 26  1  0
M  END
$$$$
