HDQ.pdb
     RDKit          3D

 28 28  0  0  1  0  0  0  0  0999 V2000
   28.8324  -20.2718  -15.3025 N   0  0  0  0  0  0  0  0  0  0  0  0
   27.6757  -20.8479  -14.6189 C   0  0  1  0  0  0  0  0  0  0  0  0
   27.5971  -20.1658  -13.2716 C   0  0  0  0  0  0  0  0  0  0  0  0
   28.7305  -20.6449  -12.4066 C   0  0  0  0  0  0  0  0  0  0  0  0
   29.7520  -21.5056  -12.8042 C   0  0  0  0  0  0  0  0  0  0  0  0
   30.5563  -21.6780  -11.7404 N   0  0  0  0  0  0  0  0  0  0  0  0
   30.0760  -20.9583  -10.6947 C   0  0  0  0  0  0  0  0  0  0  0  0
   28.9812  -20.3510  -11.1278 N   0  0  0  0  0  0  0  0  0  0  0  0
   26.4629  -20.6148  -15.4286 C   0  0  0  0  0  0  0  0  0  0  0  0
   26.2594  -19.5438  -16.0812 O   0  0  0  0  0  0  0  0  0  0  0  0
   25.4440  -21.5999  -15.5189 N   0  0  0  0  0  0  0  0  0  0  0  0
   24.2578  -21.4424  -16.3154 C   0  0  1  0  0  0  0  0  0  0  0  0
   23.8716  -22.7443  -16.9835 C   0  0  0  0  0  0  0  0  0  0  0  0
   22.6571  -22.6380  -17.8212 C   0  0  0  0  0  0  0  0  0  0  0  0
   21.5477  -22.9798  -17.3516 O   0  0  0  0  0  0  0  0  0  0  0  0
   23.1486  -20.8030  -15.6151 C   0  0  0  0  0  0  0  0  0  0  0  0
   22.8886  -21.2046  -14.4480 O   0  0  0  0  0  0  0  0  0  0  0  0
   22.6839  -22.1710  -19.1247 O   0  0  0  0  0  0  0  0  0  0  0  0
   18.9043  -16.0594  -16.6144 N   0  0  0  0  0  0  0  0  0  0  0  0
   19.9620  -16.4388  -17.4801 C   0  0  0  0  0  0  0  0  0  0  0  0
   19.8939  -16.0419  -18.6825 O   0  0  0  0  0  0  0  0  0  0  0  0
   21.1235  -17.2476  -17.0796 C   0  0  0  0  0  0  0  0  0  0  0  0
   21.1608  -17.7051  -15.6735 C   0  0  0  0  0  0  0  0  0  0  0  0
   21.2232  -19.1495  -15.3873 C   0  0  2  0  0  0  0  0  0  0  0  0
   22.3397  -19.7743  -16.1292 N   0  0  0  0  0  0  0  0  0  0  0  0
   20.0074  -19.9219  -15.4863 C   0  0  0  0  0  0  0  0  0  0  0  0
   19.7509  -20.7206  -16.4172 O   0  0  0  0  0  0  0  0  0  0  0  0
   18.9998  -19.8160  -14.4996 O   0  0  0  0  0  0  0  0  0  0  0  0
  2  1  1  6
  3  4  1  0
  3  2  1  0
  4  5  2  0
  4  8  1  0
  5  6  1  0
  6  7  1  0
  8  7  2  0
  9 11  1  0
  9  2  1  0
 10  9  2  0
 12 11  1  0
 13 14  1  0
 12 13  1  1
 14 15  2  0
 16 17  2  0
 16 12  1  0
 18 14  1  0
 19 20  1  0
 20 22  1  0
 21 20  2  0
 23 22  1  0
 24 25  1  0
 24 23  1  6
 25 16  1  0
 26 24  1  0
 27 26  2  0
 28 26  1  0
M  END
$$$$
