HDQ.pdb
     RDKit          3D

 28 28  0  0  1  0  0  0  0  0999 V2000
   25.6894  -20.6129  -15.6523 N   0  0  0  0  0  0  0  0  0  0  0  0
   24.7149  -19.8457  -14.8783 C   0  0  1  0  0  0  0  0  0  0  0  0
   25.4530  -19.3245  -13.6658 C   0  0  0  0  0  0  0  0  0  0  0  0
   25.7162  -20.4627  -12.7185 C   0  0  0  0  0  0  0  0  0  0  0  0
   25.3053  -21.7826  -12.8960 C   0  0  0  0  0  0  0  0  0  0  0  0
   25.7428  -22.4765  -11.8303 N   0  0  0  0  0  0  0  0  0  0  0  0
   26.4105  -21.6405  -10.9951 C   0  0  0  0  0  0  0  0  0  0  0  0
   26.3760  -20.4414  -11.5571 N   0  0  0  0  0  0  0  0  0  0  0  0
   24.1798  -18.7513  -15.7131 C   0  0  0  0  0  0  0  0  0  0  0  0
   24.8917  -18.0928  -16.5339 O   0  0  0  0  0  0  0  0  0  0  0  0
   22.8124  -18.3755  -15.6367 N   0  0  0  0  0  0  0  0  0  0  0  0
   22.2077  -17.4041  -16.5067 C   0  0  1  0  0  0  0  0  0  0  0  0
   20.7946  -17.8034  -16.8727 C   0  0  0  0  0  0  0  0  0  0  0  0
   20.1720  -16.9109  -17.8748 C   0  0  0  0  0  0  0  0  0  0  0  0
   20.1491  -15.6749  -17.6754 O   0  0  0  0  0  0  0  0  0  0  0  0
   22.3129  -16.0285  -16.0309 C   0  0  0  0  0  0  0  0  0  0  0  0
   21.8372  -15.7690  -14.8918 O   0  0  0  0  0  0  0  0  0  0  0  0
   19.6009  -17.3811  -19.0455 O   0  0  0  0  0  0  0  0  0  0  0  0
   26.6301  -10.0240  -15.6922 N   0  0  0  0  0  0  0  0  0  0  0  0
   26.1105  -11.2752  -16.1125 C   0  0  0  0  0  0  0  0  0  0  0  0
   26.8840  -12.0263  -16.7799 O   0  0  0  0  0  0  0  0  0  0  0  0
   24.7513  -11.7578  -15.8237 C   0  0  0  0  0  0  0  0  0  0  0  0
   24.4079  -13.1094  -16.3168 C   0  0  0  0  0  0  0  0  0  0  0  0
   23.0179  -13.5860  -16.2035 C   0  0  2  0  0  0  0  0  0  0  0  0
   22.8998  -14.9617  -16.7337 N   0  0  0  0  0  0  0  0  0  0  0  0
   21.9577  -12.7290  -16.6791 C   0  0  0  0  0  0  0  0  0  0  0  0
   21.4724  -12.7786  -17.8334 O   0  0  0  0  0  0  0  0  0  0  0  0
   21.3856  -11.7486  -15.8355 O   0  0  0  0  0  0  0  0  0  0  0  0
  2  1  1  6
  3  4  1  0
  3  2  1  0
  4  5  2  0
  4  8  1  0
  5  6  1  0
  6  7  1  0
  8  7  2  0
  9 11  1  0
  9  2  1  0
 10  9  2  0
 12 11  1  0
 13 14  1  0
 12 13  1  1
 14 15  2  0
 16 17  2  0
 16 12  1  0
 18 14  1  0
 19 20  1  0
 20 22  1  0
 21 20  2  0
 23 22  1  0
 24 25  1  0
 24 23  1  6
 25 16  1  0
 26 24  1  0
 27 26  2  0
 28 26  1  0
M  END
$$$$
