HDQ.pdb
     RDKit          3D

 28 28  0  0  1  0  0  0  0  0999 V2000
   23.0666  -14.4213  -16.8265 N   0  0  0  0  0  0  0  0  0  0  0  0
   23.4140  -13.2238  -16.0632 C   0  0  1  0  0  0  0  0  0  0  0  0
   24.8020  -12.8243  -16.5109 C   0  0  0  0  0  0  0  0  0  0  0  0
   25.7878  -13.8668  -16.0594 C   0  0  0  0  0  0  0  0  0  0  0  0
   26.5296  -14.7023  -16.8925 C   0  0  0  0  0  0  0  0  0  0  0  0
   27.2860  -15.4788  -16.0967 N   0  0  0  0  0  0  0  0  0  0  0  0
   27.0446  -15.1601  -14.7996 C   0  0  0  0  0  0  0  0  0  0  0  0
   26.1419  -14.1905  -14.8127 N   0  0  0  0  0  0  0  0  0  0  0  0
   22.4196  -12.1660  -16.3335 C   0  0  0  0  0  0  0  0  0  0  0  0
   21.9932  -11.8959  -17.4994 O   0  0  0  0  0  0  0  0  0  0  0  0
   21.8799  -11.3836  -15.2784 N   0  0  0  0  0  0  0  0  0  0  0  0
   20.8959  -10.3549  -15.4779 C   0  0  1  0  0  0  0  0  0  0  0  0
   19.8841  -10.3412  -14.3524 C   0  0  0  0  0  0  0  0  0  0  0  0
   18.8177   -9.3320  -14.5325 C   0  0  0  0  0  0  0  0  0  0  0  0
   18.4999   -8.9644  -15.6866 O   0  0  0  0  0  0  0  0  0  0  0  0
   21.4573   -9.0386  -15.7640 C   0  0  0  0  0  0  0  0  0  0  0  0
   22.3490   -8.6046  -14.9845 O   0  0  0  0  0  0  0  0  0  0  0  0
   18.1390   -8.7605  -13.4692 O   0  0  0  0  0  0  0  0  0  0  0  0
   21.1948   -5.7195  -21.3236 N   0  0  0  0  0  0  0  0  0  0  0  0
   21.8919   -4.8994  -20.3996 C   0  0  0  0  0  0  0  0  0  0  0  0
   22.3825   -3.8179  -20.8441 O   0  0  0  0  0  0  0  0  0  0  0  0
   22.0762   -5.2125  -18.9743 C   0  0  0  0  0  0  0  0  0  0  0  0
   21.4844   -6.4790  -18.4909 C   0  0  0  0  0  0  0  0  0  0  0  0
   21.6662   -6.8672  -17.0808 C   0  0  2  0  0  0  0  0  0  0  0  0
   21.0899   -8.2072  -16.8365 N   0  0  0  0  0  0  0  0  0  0  0  0
   21.2932   -5.9217  -16.0552 C   0  0  0  0  0  0  0  0  0  0  0  0
   20.1736   -5.8931  -15.4933 O   0  0  0  0  0  0  0  0  0  0  0  0
   22.2067   -4.9379  -15.6106 O   0  0  0  0  0  0  0  0  0  0  0  0
  2  1  1  6
  3  4  1  0
  3  2  1  0
  4  5  2  0
  4  8  1  0
  5  6  1  0
  6  7  1  0
  8  7  2  0
  9 11  1  0
  9  2  1  0
 10  9  2  0
 12 11  1  0
 13 14  1  0
 12 13  1  1
 14 15  2  0
 16 17  2  0
 16 12  1  0
 18 14  1  0
 19 20  1  0
 20 22  1  0
 21 20  2  0
 23 22  1  0
 24 25  1  0
 24 23  1  6
 25 16  1  0
 26 24  1  0
 27 26  2  0
 28 26  1  0
M  END
$$$$
