HDQ.pdb
     RDKit          3D

 28 28  0  0  1  0  0  0  0  0999 V2000
   15.0284  -23.4832   -5.1809 N   0  0  0  0  0  0  0  0  0  0  0  0
   15.2509  -24.9275   -5.1417 C   0  0  1  0  0  0  0  0  0  0  0  0
   16.1269  -25.2533   -6.3305 C   0  0  0  0  0  0  0  0  0  0  0  0
   15.3718  -24.9601   -7.5978 C   0  0  0  0  0  0  0  0  0  0  0  0
   14.4207  -25.7888   -8.1903 C   0  0  0  0  0  0  0  0  0  0  0  0
   13.9878  -25.1603   -9.2976 N   0  0  0  0  0  0  0  0  0  0  0  0
   14.6321  -23.9718   -9.4187 C   0  0  0  0  0  0  0  0  0  0  0  0
   15.4543  -23.8830   -8.3837 N   0  0  0  0  0  0  0  0  0  0  0  0
   15.8963  -25.2885   -3.8634 C   0  0  0  0  0  0  0  0  0  0  0  0
   17.1380  -25.1319   -3.6443 O   0  0  0  0  0  0  0  0  0  0  0  0
   15.1418  -25.8391   -2.7937 N   0  0  0  0  0  0  0  0  0  0  0  0
   15.7268  -26.2867   -1.5594 C   0  0  1  0  0  0  0  0  0  0  0  0
   14.9852  -25.7220   -0.3671 C   0  0  0  0  0  0  0  0  0  0  0  0
   15.5832  -26.1022    0.9315 C   0  0  0  0  0  0  0  0  0  0  0  0
   16.6023  -26.8294    0.9560 O   0  0  0  0  0  0  0  0  0  0  0  0
   15.9276  -27.7301   -1.4823 C   0  0  0  0  0  0  0  0  0  0  0  0
   15.0030  -28.4701   -1.9170 O   0  0  0  0  0  0  0  0  0  0  0  0
   15.0634  -25.6876    2.1463 O   0  0  0  0  0  0  0  0  0  0  0  0
   18.8569  -31.6497   -4.5173 N   0  0  0  0  0  0  0  0  0  0  0  0
   19.2243  -32.1061   -3.2254 C   0  0  0  0  0  0  0  0  0  0  0  0
   20.0025  -33.1056   -3.1664 O   0  0  0  0  0  0  0  0  0  0  0  0
   18.7734  -31.5005   -1.9631 C   0  0  0  0  0  0  0  0  0  0  0  0
   17.7814  -30.4083   -2.0679 C   0  0  0  0  0  0  0  0  0  0  0  0
   17.2038  -29.8392   -0.8372 C   0  0  2  0  0  0  0  0  0  0  0  0
   17.0656  -28.3720   -0.9631 N   0  0  0  0  0  0  0  0  0  0  0  0
   17.7774  -30.2225    0.4311 C   0  0  0  0  0  0  0  0  0  0  0  0
   17.4157  -31.2196    1.0984 O   0  0  0  0  0  0  0  0  0  0  0  0
   18.8201  -29.4646    1.0129 O   0  0  0  0  0  0  0  0  0  0  0  0
  2  1  1  1
  3  4  1  0
  3  2  1  0
  4  5  2  0
  4  8  1  0
  5  6  1  0
  6  7  1  0
  8  7  2  0
  9 11  1  0
  9  2  1  0
 10  9  2  0
 12 11  1  0
 13 14  1  0
 12 13  1  1
 14 15  2  0
 16 17  2  0
 16 12  1  0
 18 14  1  0
 19 20  1  0
 20 22  1  0
 21 20  2  0
 23 22  1  0
 24 25  1  0
 24 23  1  6
 25 16  1  0
 26 24  1  0
 27 26  2  0
 28 26  1  0
M  END
$$$$
