HDQ.pdb
     RDKit          3D

 28 28  0  0  1  0  0  0  0  0999 V2000
   23.5015  -13.0416  -17.6438 N   0  0  0  0  0  0  0  0  0  0  0  0
   23.5290  -12.1963  -16.4514 C   0  0  1  0  0  0  0  0  0  0  0  0
   24.9751  -11.8068  -16.2419 C   0  0  0  0  0  0  0  0  0  0  0  0
   25.7634  -13.0239  -15.8425 C   0  0  0  0  0  0  0  0  0  0  0  0
   25.2518  -14.3106  -15.6839 C   0  0  0  0  0  0  0  0  0  0  0  0
   26.2799  -15.1003  -15.3263 N   0  0  0  0  0  0  0  0  0  0  0  0
   27.4127  -14.3560  -15.2556 C   0  0  0  0  0  0  0  0  0  0  0  0
   27.0681  -13.1163  -15.5708 N   0  0  0  0  0  0  0  0  0  0  0  0
   22.6644  -11.0185  -16.6667 C   0  0  0  0  0  0  0  0  0  0  0  0
   22.7918  -10.2363  -17.6597 O   0  0  0  0  0  0  0  0  0  0  0  0
   21.6252  -10.6981  -15.7534 N   0  0  0  0  0  0  0  0  0  0  0  0
   20.7087   -9.6078  -15.9465 C   0  0  1  0  0  0  0  0  0  0  0  0
   19.3096   -9.9868  -15.5115 C   0  0  0  0  0  0  0  0  0  0  0  0
   18.7010  -11.0463  -16.3453 C   0  0  0  0  0  0  0  0  0  0  0  0
   18.5684  -12.2017  -15.8810 O   0  0  0  0  0  0  0  0  0  0  0  0
   21.1627   -8.3393  -15.3857 C   0  0  0  0  0  0  0  0  0  0  0  0
   21.6443   -8.3578  -14.2200 O   0  0  0  0  0  0  0  0  0  0  0  0
   18.2619  -10.8223  -17.6395 O   0  0  0  0  0  0  0  0  0  0  0  0
   24.0583   -3.5475  -18.2938 N   0  0  0  0  0  0  0  0  0  0  0  0
   23.7710   -3.0558  -16.9946 C   0  0  0  0  0  0  0  0  0  0  0  0
   24.2167   -1.9054  -16.7016 O   0  0  0  0  0  0  0  0  0  0  0  0
   22.9934   -3.7801  -15.9775 C   0  0  0  0  0  0  0  0  0  0  0  0
   22.4080   -5.0752  -16.3873 C   0  0  0  0  0  0  0  0  0  0  0  0
   21.5768   -5.8254  -15.4290 C   0  0  2  0  0  0  0  0  0  0  0  0
   21.1099   -7.0923  -16.0329 N   0  0  0  0  0  0  0  0  0  0  0  0
   20.5132   -5.1255  -14.7481 C   0  0  0  0  0  0  0  0  0  0  0  0
   20.6523   -4.5073  -13.6670 O   0  0  0  0  0  0  0  0  0  0  0  0
   19.2051   -5.0975  -15.2847 O   0  0  0  0  0  0  0  0  0  0  0  0
  2  1  1  6
  3  4  1  0
  3  2  1  0
  4  5  2  0
  4  8  1  0
  5  6  1  0
  6  7  1  0
  8  7  2  0
  9 11  1  0
  9  2  1  0
 10  9  2  0
 12 11  1  0
 13 14  1  0
 12 13  1  1
 14 15  2  0
 16 17  2  0
 16 12  1  0
 18 14  1  0
 19 20  1  0
 20 22  1  0
 21 20  2  0
 23 22  1  0
 24 25  1  0
 24 23  1  6
 25 16  1  0
 26 24  1  0
 27 26  2  0
 28 26  1  0
M  END
$$$$
