HDQ.pdb
     RDKit          3D

 28 28  0  0  1  0  0  0  0  0999 V2000
   17.2634  -12.5330  -15.7229 N   0  0  0  0  0  0  0  0  0  0  0  0
   16.9456  -11.1084  -15.6399 C   0  0  1  0  0  0  0  0  0  0  0  0
   16.0190  -10.9497  -14.4555 C   0  0  0  0  0  0  0  0  0  0  0  0
   14.6836  -11.5576  -14.7860 C   0  0  0  0  0  0  0  0  0  0  0  0
   13.5666  -10.8672  -15.2530 C   0  0  0  0  0  0  0  0  0  0  0  0
   12.5883  -11.7738  -15.4247 N   0  0  0  0  0  0  0  0  0  0  0  0
   13.0517  -13.0028  -15.0829 C   0  0  0  0  0  0  0  0  0  0  0  0
   14.3106  -12.8379  -14.7047 N   0  0  0  0  0  0  0  0  0  0  0  0
   18.1943  -10.3378  -15.4726 C   0  0  0  0  0  0  0  0  0  0  0  0
   19.0700  -10.6170  -14.5955 O   0  0  0  0  0  0  0  0  0  0  0  0
   18.4821   -9.2232  -16.3043 N   0  0  0  0  0  0  0  0  0  0  0  0
   19.6778   -8.4343  -16.1864 C   0  0  1  0  0  0  0  0  0  0  0  0
   19.9921   -7.7215  -17.4840 C   0  0  0  0  0  0  0  0  0  0  0  0
   21.2745   -6.9848  -17.4547 C   0  0  0  0  0  0  0  0  0  0  0  0
   21.3167   -5.7967  -17.8482 O   0  0  0  0  0  0  0  0  0  0  0  0
   19.6989   -7.5516  -15.0244 C   0  0  0  0  0  0  0  0  0  0  0  0
   18.6505   -6.8970  -14.7721 O   0  0  0  0  0  0  0  0  0  0  0  0
   22.4553   -7.5526  -17.0061 O   0  0  0  0  0  0  0  0  0  0  0  0
   18.1689   -6.7923  -10.4483 N   0  0  0  0  0  0  0  0  0  0  0  0
   19.3818   -6.3580   -9.8546 C   0  0  0  0  0  0  0  0  0  0  0  0
   19.2961   -5.7555   -8.7421 O   0  0  0  0  0  0  0  0  0  0  0  0
   20.7185   -6.5631  -10.4331 C   0  0  0  0  0  0  0  0  0  0  0  0
   20.7781   -7.2626  -11.7351 C   0  0  0  0  0  0  0  0  0  0  0  0
   20.7678   -6.4719  -12.9788 C   0  0  2  0  0  0  0  0  0  0  0  0
   20.7899   -7.3649  -14.1576 N   0  0  0  0  0  0  0  0  0  0  0  0
   21.7061   -5.3821  -13.1070 C   0  0  0  0  0  0  0  0  0  0  0  0
   22.8832   -5.5071  -13.5182 O   0  0  0  0  0  0  0  0  0  0  0  0
   21.3340   -4.0619  -12.7625 O   0  0  0  0  0  0  0  0  0  0  0  0
  2  1  1  1
  3  4  1  0
  3  2  1  0
  4  5  2  0
  4  8  1  0
  5  6  1  0
  6  7  1  0
  8  7  2  0
  9 11  1  0
  9  2  1  0
 10  9  2  0
 12 11  1  0
 13 14  1  0
 12 13  1  6
 14 15  2  0
 16 17  2  0
 16 12  1  0
 18 14  1  0
 19 20  1  0
 20 22  1  0
 21 20  2  0
 23 22  1  0
 24 25  1  0
 24 23  1  1
 25 16  1  0
 26 24  1  0
 27 26  2  0
 28 26  1  0
M  END
$$$$
