HDQ.pdb
     RDKit          3D

 28 28  0  0  1  0  0  0  0  0999 V2000
   18.6691  -14.4463  -16.7705 N   0  0  0  0  0  0  0  0  0  0  0  0
   18.8842  -13.2128  -17.5251 C   0  0  1  0  0  0  0  0  0  0  0  0
   17.7767  -13.1465  -18.5526 C   0  0  0  0  0  0  0  0  0  0  0  0
   17.9594  -14.2567  -19.5507 C   0  0  0  0  0  0  0  0  0  0  0  0
   18.2360  -14.0961  -20.9072 C   0  0  0  0  0  0  0  0  0  0  0  0
   18.3251  -15.3284  -21.4381 N   0  0  0  0  0  0  0  0  0  0  0  0
   18.1147  -16.2513  -20.4654 C   0  0  0  0  0  0  0  0  0  0  0  0
   17.8986  -15.5755  -19.3466 N   0  0  0  0  0  0  0  0  0  0  0  0
   18.8507  -12.0617  -16.6005 C   0  0  0  0  0  0  0  0  0  0  0  0
   17.9291  -11.8863  -15.7437 O   0  0  0  0  0  0  0  0  0  0  0  0
   19.8713  -11.0745  -16.6253 N   0  0  0  0  0  0  0  0  0  0  0  0
   19.8536   -9.8955  -15.8033 C   0  0  1  0  0  0  0  0  0  0  0  0
   21.1169   -9.7866  -14.9771 C   0  0  0  0  0  0  0  0  0  0  0  0
   21.0849   -8.6794  -13.9966 C   0  0  0  0  0  0  0  0  0  0  0  0
   20.0797   -7.9352  -13.9339 O   0  0  0  0  0  0  0  0  0  0  0  0
   19.5294   -8.6691  -16.5248 C   0  0  0  0  0  0  0  0  0  0  0  0
   20.1574   -8.4402  -17.5946 O   0  0  0  0  0  0  0  0  0  0  0  0
   22.1305   -8.4175  -13.1271 O   0  0  0  0  0  0  0  0  0  0  0  0
   14.4357   -4.7178  -15.6244 N   0  0  0  0  0  0  0  0  0  0  0  0
   15.2903   -4.0652  -16.5496 C   0  0  0  0  0  0  0  0  0  0  0  0
   14.8602   -2.9949  -17.0765 O   0  0  0  0  0  0  0  0  0  0  0  0
   16.6303   -4.5378  -16.9299 C   0  0  0  0  0  0  0  0  0  0  0  0
   17.0617   -5.8351  -16.3654 C   0  0  0  0  0  0  0  0  0  0  0  0
   18.2858   -6.4737  -16.8809 C   0  0  2  0  0  0  0  0  0  0  0  0
   18.5749   -7.7151  -16.1305 N   0  0  0  0  0  0  0  0  0  0  0  0
   19.4647   -5.6582  -17.0539 C   0  0  0  0  0  0  0  0  0  0  0  0
   19.9815   -5.3887  -18.1632 O   0  0  0  0  0  0  0  0  0  0  0  0
   20.1266   -5.0963  -15.9376 O   0  0  0  0  0  0  0  0  0  0  0  0
  2  1  1  1
  3  4  1  0
  3  2  1  0
  4  5  2  0
  4  8  1  0
  5  6  1  0
  6  7  1  0
  8  7  2  0
  9 11  1  0
  9  2  1  0
 10  9  2  0
 12 11  1  0
 13 14  1  0
 12 13  1  6
 14 15  2  0
 16 17  2  0
 16 12  1  0
 18 14  1  0
 19 20  1  0
 20 22  1  0
 21 20  2  0
 23 22  1  0
 24 25  1  0
 24 23  1  1
 25 16  1  0
 26 24  1  0
 27 26  2  0
 28 26  1  0
M  END
$$$$
