HDQ.pdb
     RDKit          3D

 28 28  0  0  1  0  0  0  0  0999 V2000
   22.0685  -12.5882  -18.2066 N   0  0  0  0  0  0  0  0  0  0  0  0
   22.4494  -11.9432  -16.9512 C   0  0  1  0  0  0  0  0  0  0  0  0
   23.9447  -11.7297  -17.0216 C   0  0  0  0  0  0  0  0  0  0  0  0
   24.6404  -13.0599  -16.9265 C   0  0  0  0  0  0  0  0  0  0  0  0
   25.0206  -13.6986  -15.7476 C   0  0  0  0  0  0  0  0  0  0  0  0
   25.6056  -14.8571  -16.1000 N   0  0  0  0  0  0  0  0  0  0  0  0
   25.6050  -14.9656  -17.4529 C   0  0  0  0  0  0  0  0  0  0  0  0
   25.0192  -13.8719  -17.9174 N   0  0  0  0  0  0  0  0  0  0  0  0
   21.7146  -10.6696  -16.8131 C   0  0  0  0  0  0  0  0  0  0  0  0
   21.6084   -9.8240  -17.7553 O   0  0  0  0  0  0  0  0  0  0  0  0
   21.0764  -10.3228  -15.5928 N   0  0  0  0  0  0  0  0  0  0  0  0
   20.3043   -9.1235  -15.4152 C   0  0  1  0  0  0  0  0  0  0  0  0
   19.1325   -9.3606  -14.4872 C   0  0  0  0  0  0  0  0  0  0  0  0
   18.1821  -10.3775  -14.9879 C   0  0  0  0  0  0  0  0  0  0  0  0
   17.6877  -10.2547  -16.1319 O   0  0  0  0  0  0  0  0  0  0  0  0
   21.0957   -7.9512  -15.0560 C   0  0  0  0  0  0  0  0  0  0  0  0
   21.9915   -8.1001  -14.1805 O   0  0  0  0  0  0  0  0  0  0  0  0
   17.8024  -11.4806  -14.2417 O   0  0  0  0  0  0  0  0  0  0  0  0
   21.6481   -2.3067  -18.2324 N   0  0  0  0  0  0  0  0  0  0  0  0
   22.1729   -2.0797  -16.9341 C   0  0  0  0  0  0  0  0  0  0  0  0
   22.6114   -0.9164  -16.6844 O   0  0  0  0  0  0  0  0  0  0  0  0
   22.2360   -3.0905  -15.8673 C   0  0  0  0  0  0  0  0  0  0  0  0
   21.6419   -4.4113  -16.1683 C   0  0  0  0  0  0  0  0  0  0  0  0
   21.7181   -5.4824  -15.1588 C   0  0  2  0  0  0  0  0  0  0  0  0
   20.9467   -6.6641  -15.6016 N   0  0  0  0  0  0  0  0  0  0  0  0
   21.4511   -5.1464  -13.7802 C   0  0  0  0  0  0  0  0  0  0  0  0
   22.2169   -4.4682  -13.0565 O   0  0  0  0  0  0  0  0  0  0  0  0
   20.2640   -5.5808  -13.1460 O   0  0  0  0  0  0  0  0  0  0  0  0
  2  1  1  6
  3  4  1  0
  3  2  1  0
  4  5  2  0
  4  8  1  0
  5  6  1  0
  6  7  1  0
  8  7  2  0
  9 11  1  0
  9  2  1  0
 10  9  2  0
 12 11  1  0
 13 14  1  0
 12 13  1  1
 14 15  2  0
 16 17  2  0
 16 12  1  0
 18 14  1  0
 19 20  1  0
 20 22  1  0
 21 20  2  0
 23 22  1  0
 24 25  1  0
 24 23  1  6
 25 16  1  0
 26 24  1  0
 27 26  2  0
 28 26  1  0
M  END
$$$$
