HDQ.pdb
     RDKit          3D

 28 28  0  0  1  0  0  0  0  0999 V2000
   17.7263  -14.9468  -15.9705 N   0  0  0  0  0  0  0  0  0  0  0  0
   17.9116  -13.7861  -16.8399 C   0  0  1  0  0  0  0  0  0  0  0  0
   16.6431  -12.9701  -16.7329 C   0  0  0  0  0  0  0  0  0  0  0  0
   15.5125  -13.7247  -17.3767 C   0  0  0  0  0  0  0  0  0  0  0  0
   15.6206  -14.5714  -18.4786 C   0  0  0  0  0  0  0  0  0  0  0  0
   14.3875  -15.0440  -18.7327 N   0  0  0  0  0  0  0  0  0  0  0  0
   13.5146  -14.5250  -17.8322 C   0  0  0  0  0  0  0  0  0  0  0  0
   14.2214  -13.7386  -17.0340 N   0  0  0  0  0  0  0  0  0  0  0  0
   19.0974  -13.0264  -16.3951 C   0  0  0  0  0  0  0  0  0  0  0  0
   19.2675  -12.6454  -15.1950 O   0  0  0  0  0  0  0  0  0  0  0  0
   20.1276  -12.6788  -17.3086 N   0  0  0  0  0  0  0  0  0  0  0  0
   21.2657  -11.8767  -16.9519 C   0  0  1  0  0  0  0  0  0  0  0  0
   22.4919  -12.2882  -17.7378 C   0  0  0  0  0  0  0  0  0  0  0  0
   23.7008  -11.5086  -17.3925 C   0  0  0  0  0  0  0  0  0  0  0  0
   24.1045  -10.6134  -18.1695 O   0  0  0  0  0  0  0  0  0  0  0  0
   21.0168  -10.4391  -16.9835 C   0  0  0  0  0  0  0  0  0  0  0  0
   20.4285   -9.9727  -17.9972 O   0  0  0  0  0  0  0  0  0  0  0  0
   24.4243  -11.7222  -16.2312 O   0  0  0  0  0  0  0  0  0  0  0  0
   16.4090   -8.2987  -16.4511 N   0  0  0  0  0  0  0  0  0  0  0  0
   17.0613   -7.1449  -15.9455 C   0  0  0  0  0  0  0  0  0  0  0  0
   16.3319   -6.1461  -15.6657 O   0  0  0  0  0  0  0  0  0  0  0  0
   18.5105   -7.0326  -15.7202 C   0  0  0  0  0  0  0  0  0  0  0  0
   19.3208   -8.2388  -15.9970 C   0  0  0  0  0  0  0  0  0  0  0  0
   20.7844   -8.1760  -15.8357 C   0  0  2  0  0  0  0  0  0  0  0  0
   21.3772   -9.5234  -15.9793 N   0  0  0  0  0  0  0  0  0  0  0  0
   21.3196   -7.4671  -14.6974 C   0  0  0  0  0  0  0  0  0  0  0  0
   21.0781   -6.2658  -14.4351 O   0  0  0  0  0  0  0  0  0  0  0  0
   22.1791   -8.1146  -13.7798 O   0  0  0  0  0  0  0  0  0  0  0  0
  2  1  1  1
  3  4  1  0
  3  2  1  0
  4  5  2  0
  4  8  1  0
  5  6  1  0
  6  7  1  0
  8  7  2  0
  9 11  1  0
  9  2  1  0
 10  9  2  0
 12 11  1  0
 13 14  1  0
 12 13  1  6
 14 15  2  0
 16 17  2  0
 16 12  1  0
 18 14  1  0
 19 20  1  0
 20 22  1  0
 21 20  2  0
 23 22  1  0
 24 25  1  0
 24 23  1  1
 25 16  1  0
 26 24  1  0
 27 26  2  0
 28 26  1  0
M  END
$$$$
