HDQ.pdb
     RDKit          3D

 28 28  0  0  1  0  0  0  0  0999 V2000
   44.9191   -9.9940   -9.5062 N   0  0  0  0  0  0  0  0  0  0  0  0
   43.7027  -10.4621  -10.1684 C   0  0  1  0  0  0  0  0  0  0  0  0
   43.0893  -11.4928   -9.2476 C   0  0  0  0  0  0  0  0  0  0  0  0
   44.0064  -12.6812   -9.1528 C   0  0  0  0  0  0  0  0  0  0  0  0
   44.6926  -13.0924   -8.0115 C   0  0  0  0  0  0  0  0  0  0  0  0
   45.3939  -14.1890   -8.3491 N   0  0  0  0  0  0  0  0  0  0  0  0
   45.1718  -14.4777   -9.6566 C   0  0  0  0  0  0  0  0  0  0  0  0
   44.3358  -13.5546  -10.1084 N   0  0  0  0  0  0  0  0  0  0  0  0
   42.7988   -9.3170  -10.3974 C   0  0  0  0  0  0  0  0  0  0  0  0
   42.6662   -8.3613   -9.5707 O   0  0  0  0  0  0  0  0  0  0  0  0
   42.0180   -9.2273  -11.5802 N   0  0  0  0  0  0  0  0  0  0  0  0
   40.9624   -8.2689  -11.7622 C   0  0  1  0  0  0  0  0  0  0  0  0
   40.6199   -8.1051  -13.2272 C   0  0  0  0  0  0  0  0  0  0  0  0
   39.6080   -7.0564  -13.4811 C   0  0  0  0  0  0  0  0  0  0  0  0
   38.3935   -7.3601  -13.5101 O   0  0  0  0  0  0  0  0  0  0  0  0
   39.7935   -8.5004  -10.9196 C   0  0  0  0  0  0  0  0  0  0  0  0
   39.4650   -9.6978  -10.6967 O   0  0  0  0  0  0  0  0  0  0  0  0
   39.9410   -5.7290  -13.6932 O   0  0  0  0  0  0  0  0  0  0  0  0
   40.5065  -10.7178   -6.6258 N   0  0  0  0  0  0  0  0  0  0  0  0
   39.5033   -9.8951   -6.0522 C   0  0  0  0  0  0  0  0  0  0  0  0
   39.2084  -10.1070   -4.8372 O   0  0  0  0  0  0  0  0  0  0  0  0
   38.7943   -8.8196   -6.7624 C   0  0  0  0  0  0  0  0  0  0  0  0
   39.1617   -8.6049   -8.1790 C   0  0  0  0  0  0  0  0  0  0  0  0
   38.4460   -7.5817   -8.9618 C   0  0  2  0  0  0  0  0  0  0  0  0
   38.9969   -7.5020  -10.3321 N   0  0  0  0  0  0  0  0  0  0  0  0
   38.2598   -6.2752   -8.3759 C   0  0  0  0  0  0  0  0  0  0  0  0
   37.1725   -5.8549   -7.9162 O   0  0  0  0  0  0  0  0  0  0  0  0
   39.3362   -5.3625   -8.2845 O   0  0  0  0  0  0  0  0  0  0  0  0
  2  1  1  1
  3  4  1  0
  3  2  1  0
  4  5  2  0
  4  8  1  0
  5  6  1  0
  6  7  1  0
  8  7  2  0
  9 11  1  0
  9  2  1  0
 10  9  2  0
 12 11  1  0
 13 14  1  0
 12 13  1  6
 14 15  2  0
 16 17  2  0
 16 12  1  0
 18 14  1  0
 19 20  1  0
 20 22  1  0
 21 20  2  0
 23 22  1  0
 24 25  1  0
 24 23  1  1
 25 16  1  0
 26 24  1  0
 27 26  2  0
 28 26  1  0
M  END
$$$$
