HDQ.pdb
     RDKit          3D

 28 28  0  0  1  0  0  0  0  0999 V2000
   24.5454  -34.6537   -7.3021 N   0  0  0  0  0  0  0  0  0  0  0  0
   25.0382  -33.7345   -6.2777 C   0  0  1  0  0  0  0  0  0  0  0  0
   23.9362  -32.7244   -6.0498 C   0  0  0  0  0  0  0  0  0  0  0  0
   23.8778  -31.7820   -7.2206 C   0  0  0  0  0  0  0  0  0  0  0  0
   23.3471  -32.0735   -8.4759 C   0  0  0  0  0  0  0  0  0  0  0  0
   23.4868  -30.9671   -9.2275 N   0  0  0  0  0  0  0  0  0  0  0  0
   24.0842  -29.9970   -8.4897 C   0  0  0  0  0  0  0  0  0  0  0  0
   24.3050  -30.5183   -7.2920 N   0  0  0  0  0  0  0  0  0  0  0  0
   25.3552  -34.4936   -5.0512 C   0  0  0  0  0  0  0  0  0  0  0  0
   24.6088  -35.4135   -4.5919 O   0  0  0  0  0  0  0  0  0  0  0  0
   26.5371  -34.2256   -4.3109 N   0  0  0  0  0  0  0  0  0  0  0  0
   26.9389  -34.9836   -3.1576 C   0  0  1  0  0  0  0  0  0  0  0  0
   28.4195  -34.8241   -2.8878 C   0  0  0  0  0  0  0  0  0  0  0  0
   29.2736  -35.2793   -4.0064 C   0  0  0  0  0  0  0  0  0  0  0  0
   29.0615  -36.3945   -4.5350 O   0  0  0  0  0  0  0  0  0  0  0  0
   26.1106  -34.7594   -1.9771 C   0  0  0  0  0  0  0  0  0  0  0  0
   25.7731  -33.5714   -1.7205 O   0  0  0  0  0  0  0  0  0  0  0  0
   30.3175  -34.5208   -4.5094 O   0  0  0  0  0  0  0  0  0  0  0  0
   21.9988  -38.9026    0.6600 N   0  0  0  0  0  0  0  0  0  0  0  0
   21.9407  -37.7385    1.4685 C   0  0  0  0  0  0  0  0  0  0  0  0
   21.0778  -37.7238    2.3975 O   0  0  0  0  0  0  0  0  0  0  0  0
   22.8093  -36.5623    1.3077 C   0  0  0  0  0  0  0  0  0  0  0  0
   23.8117  -36.6208    0.2215 C   0  0  0  0  0  0  0  0  0  0  0  0
   24.7516  -35.4991    0.0475 C   0  0  2  0  0  0  0  0  0  0  0  0
   25.6540  -35.7553   -1.0961 N   0  0  0  0  0  0  0  0  0  0  0  0
   25.4674  -35.0175    1.2052 C   0  0  0  0  0  0  0  0  0  0  0  0
   24.9699  -34.2804    2.0880 O   0  0  0  0  0  0  0  0  0  0  0  0
   26.8221  -35.3651    1.4153 O   0  0  0  0  0  0  0  0  0  0  0  0
  2  1  1  6
  3  4  1  0
  3  2  1  0
  4  5  2  0
  4  8  1  0
  5  6  1  0
  6  7  1  0
  8  7  2  0
  9 11  1  0
  9  2  1  0
 10  9  2  0
 12 11  1  0
 13 14  1  0
 12 13  1  1
 14 15  2  0
 16 17  2  0
 16 12  1  0
 18 14  1  0
 19 20  1  0
 20 22  1  0
 21 20  2  0
 23 22  1  0
 24 25  1  0
 24 23  1  1
 25 16  1  0
 26 24  1  0
 27 26  2  0
 28 26  1  0
M  END
$$$$
