HDQ.pdb
     RDKit          3D

 28 28  0  0  1  0  0  0  0  0999 V2000
   20.1032  -14.1524  -17.1938 N   0  0  0  0  0  0  0  0  0  0  0  0
   19.3683  -12.8887  -17.1879 C   0  0  1  0  0  0  0  0  0  0  0  0
   18.4788  -12.9220  -15.9655 C   0  0  0  0  0  0  0  0  0  0  0  0
   17.4032  -13.9546  -16.1631 C   0  0  0  0  0  0  0  0  0  0  0  0
   16.2020  -13.7607  -16.8429 C   0  0  0  0  0  0  0  0  0  0  0  0
   15.5303  -14.9246  -16.7926 N   0  0  0  0  0  0  0  0  0  0  0  0
   16.2659  -15.8369  -16.1078 C   0  0  0  0  0  0  0  0  0  0  0  0
   17.3823  -15.2231  -15.7445 N   0  0  0  0  0  0  0  0  0  0  0  0
   20.3265  -11.7658  -17.1444 C   0  0  0  0  0  0  0  0  0  0  0  0
   21.1996  -11.6335  -16.2309 O   0  0  0  0  0  0  0  0  0  0  0  0
   20.3178  -10.7585  -18.1454 N   0  0  0  0  0  0  0  0  0  0  0  0
   21.2174   -9.6374  -18.1493 C   0  0  1  0  0  0  0  0  0  0  0  0
   21.8873   -9.4793  -19.4971 C   0  0  0  0  0  0  0  0  0  0  0  0
   22.8467   -8.3546  -19.5488 C   0  0  0  0  0  0  0  0  0  0  0  0
   22.6351   -7.3938  -20.3235 O   0  0  0  0  0  0  0  0  0  0  0  0
   20.6302   -8.3986  -17.6489 C   0  0  0  0  0  0  0  0  0  0  0  0
   19.5146   -8.0504  -18.1236 O   0  0  0  0  0  0  0  0  0  0  0  0
   23.9904   -8.3083  -18.7694 O   0  0  0  0  0  0  0  0  0  0  0  0
   21.9225   -8.3245  -13.1000 N   0  0  0  0  0  0  0  0  0  0  0  0
   20.5086   -8.2615  -13.1949 C   0  0  0  0  0  0  0  0  0  0  0  0
   19.8478   -9.1303  -12.5496 O   0  0  0  0  0  0  0  0  0  0  0  0
   19.7650   -7.2627  -13.9781 C   0  0  0  0  0  0  0  0  0  0  0  0
   20.5696   -6.2701  -14.7231 C   0  0  0  0  0  0  0  0  0  0  0  0
   20.5736   -6.3057  -16.1965 C   0  0  2  0  0  0  0  0  0  0  0  0
   21.2012   -7.5546  -16.6803 N   0  0  0  0  0  0  0  0  0  0  0  0
   21.0545   -5.1461  -16.9097 C   0  0  0  0  0  0  0  0  0  0  0  0
   21.9665   -5.1722  -17.7687 O   0  0  0  0  0  0  0  0  0  0  0  0
   20.5010   -3.8671  -16.6692 O   0  0  0  0  0  0  0  0  0  0  0  0
  2  1  1  1
  3  4  1  0
  3  2  1  0
  4  5  2  0
  4  8  1  0
  5  6  1  0
  6  7  1  0
  8  7  2  0
  9 11  1  0
  9  2  1  0
 10  9  2  0
 12 11  1  0
 13 14  1  0
 12 13  1  6
 14 15  2  0
 16 17  2  0
 16 12  1  0
 18 14  1  0
 19 20  1  0
 20 22  1  0
 21 20  2  0
 23 22  1  0
 24 25  1  0
 24 23  1  1
 25 16  1  0
 26 24  1  0
 27 26  2  0
 28 26  1  0
M  END
$$$$
