HDQ.pdb
     RDKit          3D

 28 28  0  0  1  0  0  0  0  0999 V2000
   28.2672  -21.3362  -15.0942 N   0  0  0  0  0  0  0  0  0  0  0  0
   27.3727  -20.7734  -16.1042 C   0  0  1  0  0  0  0  0  0  0  0  0
   26.4566  -21.8978  -16.5322 C   0  0  0  0  0  0  0  0  0  0  0  0
   27.2826  -23.0274  -17.0836 C   0  0  0  0  0  0  0  0  0  0  0  0
   27.5432  -24.2362  -16.4406 C   0  0  0  0  0  0  0  0  0  0  0  0
   28.3118  -24.9641  -17.2700 N   0  0  0  0  0  0  0  0  0  0  0  0
   28.5407  -24.2563  -18.4052 C   0  0  0  0  0  0  0  0  0  0  0  0
   27.9098  -23.1003  -18.2609 N   0  0  0  0  0  0  0  0  0  0  0  0
   26.6244  -19.6425  -15.5192 C   0  0  0  0  0  0  0  0  0  0  0  0
   25.9613  -19.7336  -14.4394 O   0  0  0  0  0  0  0  0  0  0  0  0
   26.6116  -18.3703  -16.1501 N   0  0  0  0  0  0  0  0  0  0  0  0
   25.8729  -17.2441  -15.6481 C   0  0  1  0  0  0  0  0  0  0  0  0
   26.5432  -15.9401  -16.0232 C   0  0  0  0  0  0  0  0  0  0  0  0
   25.8498  -14.7475  -15.4893 C   0  0  0  0  0  0  0  0  0  0  0  0
   25.3463  -14.7837  -14.3433 O   0  0  0  0  0  0  0  0  0  0  0  0
   24.4493  -17.2730  -15.9676 C   0  0  0  0  0  0  0  0  0  0  0  0
   24.1267  -17.4950  -17.1667 O   0  0  0  0  0  0  0  0  0  0  0  0
   25.7254  -13.5690  -16.2059 O   0  0  0  0  0  0  0  0  0  0  0  0
   19.6866  -18.4675  -11.7964 N   0  0  0  0  0  0  0  0  0  0  0  0
   19.0572  -18.2676  -13.0519 C   0  0  0  0  0  0  0  0  0  0  0  0
   17.8068  -18.4708  -13.1092 O   0  0  0  0  0  0  0  0  0  0  0  0
   19.7488  -17.8386  -14.2771 C   0  0  0  0  0  0  0  0  0  0  0  0
   21.2059  -17.6072  -14.1706 C   0  0  0  0  0  0  0  0  0  0  0  0
   21.9697  -17.2548  -15.3808 C   0  0  2  0  0  0  0  0  0  0  0  0
   23.4005  -17.0736  -15.0528 N   0  0  0  0  0  0  0  0  0  0  0  0
   21.4688  -16.1955  -16.2243 C   0  0  0  0  0  0  0  0  0  0  0  0
   20.3832  -16.2419  -16.8484 O   0  0  0  0  0  0  0  0  0  0  0  0
   22.2041  -15.0002  -16.3992 O   0  0  0  0  0  0  0  0  0  0  0  0
  2  1  1  1
  3  4  1  0
  3  2  1  0
  4  5  2  0
  4  8  1  0
  5  6  1  0
  6  7  1  0
  8  7  2  0
  9 11  1  0
  9  2  1  0
 10  9  2  0
 12 11  1  0
 13 14  1  0
 12 13  1  6
 14 15  2  0
 16 17  2  0
 16 12  1  0
 18 14  1  0
 19 20  1  0
 20 22  1  0
 21 20  2  0
 23 22  1  0
 24 25  1  0
 24 23  1  1
 25 16  1  0
 26 24  1  0
 27 26  2  0
 28 26  1  0
M  END
$$$$
