WAD.pdb
     RDKit          3D

 28 29  0  0  1  0  0  0  0  0999 V2000
   27.6378  -21.5805  -14.7918 N   0  0  0  0  0  0  0  0  0  0  0  0
   26.3189  -22.0629  -15.1559 C   0  0  1  0  0  0  0  0  0  0  0  0
   25.7214  -22.8006  -14.0047 C   0  0  0  0  0  0  0  0  0  0  0  0
   25.5234  -21.9694  -12.7947 C   0  0  0  0  0  0  0  0  0  0  0  0
   26.4688  -21.4660  -11.9328 C   0  0  0  0  0  0  0  0  0  0  0  0
   25.8780  -20.7791  -10.9344 N   0  0  0  0  0  0  0  0  0  0  0  0
   24.5302  -20.8176  -11.1216 C   0  0  0  0  0  0  0  0  0  0  0  0
   23.5077  -20.2692  -10.3757 C   0  0  0  0  0  0  0  0  0  0  0  0
   22.2097  -20.4579  -10.7875 C   0  0  0  0  0  0  0  0  0  0  0  0
   21.9398  -21.1855  -11.9305 C   0  0  0  0  0  0  0  0  0  0  0  0
   22.9919  -21.7107  -12.6398 C   0  0  0  0  0  0  0  0  0  0  0  0
   24.3181  -21.5545  -12.2734 C   0  0  0  0  0  0  0  0  0  0  0  0
   25.5503  -20.9743  -15.7306 C   0  0  0  0  0  0  0  0  0  0  0  0
   25.7344  -19.7793  -15.3854 O   0  0  0  0  0  0  0  0  0  0  0  0
   23.7438  -20.2018  -18.7517 C   0  0  0  0  0  0  0  0  0  0  0  0
   23.7338  -20.0358  -17.2091 C   0  0  2  0  0  0  0  0  0  0  0  0
   24.5273  -21.1424  -16.7298 N   0  0  0  0  0  0  0  0  0  0  0  0
   22.2943  -20.1162  -16.8545 C   0  0  0  0  0  0  0  0  0  0  0  0
   21.8971  -21.2330  -16.4340 O   0  0  0  0  0  0  0  0  0  0  0  0
   21.3671  -19.0600  -16.9494 N   0  0  0  0  0  0  0  0  0  0  0  0
   19.9642  -19.1047  -16.7051 C   0  0  1  0  0  0  0  0  0  0  0  0
   19.3140  -17.7556  -16.4323 C   0  0  0  0  0  0  0  0  0  0  0  0
   17.8801  -17.8470  -16.1587 C   0  0  0  0  0  0  0  0  0  0  0  0
   17.3000  -18.8539  -15.7177 O   0  0  0  0  0  0  0  0  0  0  0  0
   19.1590  -19.8099  -17.7119 C   0  0  0  0  0  0  0  0  0  0  0  0
   18.1552  -20.7037  -17.3989 O   0  0  0  0  0  0  0  0  0  0  0  0
   17.0743  -16.7178  -16.4078 O   0  0  0  0  0  0  0  0  0  0  0  0
   19.3774  -19.6047  -18.9260 O   0  0  0  0  0  0  0  0  0  0  0  0
  2  3  1  0
  2  1  1  1
  3  4  1  0
  4 12  1  0
  5  6  1  0
  5  4  2  0
  6  7  1  0
  7 12  2  0
  7  8  1  0
  8  9  2  0
  9 10  1  0
 11 10  2  0
 12 11  1  0
 13  2  1  0
 13 14  2  0
 16 15  1  6
 16 18  1  0
 16 17  1  0
 17 13  1  0
 18 19  2  0
 20 18  1  0
 20 21  1  0
 21 22  1  6
 22 23  1  0
 23 24  2  0
 25 21  1  0
 26 25  1  0
 27 23  1  0
 28 25  2  0
M  END
$$$$
