WAD.pdb
     RDKit          3D

 28 29  0  0  1  0  0  0  0  0999 V2000
   22.7369  -20.1055  -13.1928 N   0  0  0  0  0  0  0  0  0  0  0  0
   21.4777  -20.0772  -12.4727 C   0  0  1  0  0  0  0  0  0  0  0  0
   20.3459  -20.0956  -13.4449 C   0  0  0  0  0  0  0  0  0  0  0  0
   20.3096  -18.9226  -14.3487 C   0  0  0  0  0  0  0  0  0  0  0  0
   20.6773  -18.8439  -15.6710 C   0  0  0  0  0  0  0  0  0  0  0  0
   20.5188  -17.5862  -16.1301 N   0  0  0  0  0  0  0  0  0  0  0  0
   20.0427  -16.8127  -15.1162 C   0  0  0  0  0  0  0  0  0  0  0  0
   19.7235  -15.4710  -15.0890 C   0  0  0  0  0  0  0  0  0  0  0  0
   19.2548  -14.9230  -13.9185 C   0  0  0  0  0  0  0  0  0  0  0  0
   19.1078  -15.7081  -12.7912 C   0  0  0  0  0  0  0  0  0  0  0  0
   19.4381  -17.0387  -12.8685 C   0  0  0  0  0  0  0  0  0  0  0  0
   19.9154  -17.6451  -14.0183 C   0  0  0  0  0  0  0  0  0  0  0  0
   21.4930  -21.0937  -11.4371 C   0  0  0  0  0  0  0  0  0  0  0  0
   21.6403  -22.3128  -11.7079 O   0  0  0  0  0  0  0  0  0  0  0  0
   21.6863  -21.1678   -7.7172 C   0  0  0  0  0  0  0  0  0  0  0  0
   21.3083  -21.8754   -9.0453 C   0  0  2  0  0  0  0  0  0  0  0  0
   21.3482  -20.8214  -10.0308 N   0  0  0  0  0  0  0  0  0  0  0  0
   19.9510  -22.4169   -8.7830 C   0  0  0  0  0  0  0  0  0  0  0  0
   19.0026  -21.6016   -8.9161 O   0  0  0  0  0  0  0  0  0  0  0  0
   19.6562  -23.7427   -8.4092 N   0  0  0  0  0  0  0  0  0  0  0  0
   18.3795  -24.3055   -8.1205 C   0  0  1  0  0  0  0  0  0  0  0  0
   18.2961  -25.8191   -8.2584 C   0  0  0  0  0  0  0  0  0  0  0  0
   18.7240  -26.3071   -9.5691 C   0  0  0  0  0  0  0  0  0  0  0  0
   18.8637  -25.6018  -10.5831 O   0  0  0  0  0  0  0  0  0  0  0  0
   17.7871  -23.9262   -6.8303 C   0  0  0  0  0  0  0  0  0  0  0  0
   16.4332  -23.9728   -6.5676 O   0  0  0  0  0  0  0  0  0  0  0  0
   19.0042  -27.6805   -9.7172 O   0  0  0  0  0  0  0  0  0  0  0  0
   18.5316  -23.5366   -5.9042 O   0  0  0  0  0  0  0  0  0  0  0  0
  2  3  1  0
  2  1  1  6
  3  4  1  0
  4 12  1  0
  5  6  1  0
  5  4  2  0
  6  7  1  0
  7 12  2  0
  7  8  1  0
  8  9  2  0
  9 10  1  0
 11 10  2  0
 12 11  1  0
 13  2  1  0
 13 14  2  0
 16 15  1  1
 16 18  1  0
 16 17  1  0
 17 13  1  0
 18 19  2  0
 20 18  1  0
 20 21  1  0
 21 22  1  1
 22 23  1  0
 23 24  2  0
 25 21  1  0
 26 25  1  0
 27 23  1  0
 28 25  2  0
M  END
$$$$
