WAD.pdb
     RDKit          3D

 28 29  0  0  1  0  0  0  0  0999 V2000
   28.2656  -20.8154   -9.4524 N   0  0  0  0  0  0  0  0  0  0  0  0
   26.9106  -21.3327   -9.4201 C   0  0  1  0  0  0  0  0  0  0  0  0
   26.2589  -20.9461   -8.1346 C   0  0  0  0  0  0  0  0  0  0  0  0
   27.0371  -19.9725   -7.3343 C   0  0  0  0  0  0  0  0  0  0  0  0
   27.3085  -18.6535   -7.6108 C   0  0  0  0  0  0  0  0  0  0  0  0
   28.0755  -18.1168   -6.6405 N   0  0  0  0  0  0  0  0  0  0  0  0
   28.3230  -19.0747   -5.7056 C   0  0  0  0  0  0  0  0  0  0  0  0
   29.0524  -19.0158   -4.5362 C   0  0  0  0  0  0  0  0  0  0  0  0
   29.1501  -20.1438   -3.7565 C   0  0  0  0  0  0  0  0  0  0  0  0
   28.5258  -21.3143   -4.1426 C   0  0  0  0  0  0  0  0  0  0  0  0
   27.8105  -21.3226   -5.3148 C   0  0  0  0  0  0  0  0  0  0  0  0
   27.6780  -20.2190   -6.1404 C   0  0  0  0  0  0  0  0  0  0  0  0
   26.2313  -20.9793  -10.6528 C   0  0  0  0  0  0  0  0  0  0  0  0
   26.2262  -19.8011  -11.0919 O   0  0  0  0  0  0  0  0  0  0  0  0
   24.7643  -22.8172  -13.5323 C   0  0  0  0  0  0  0  0  0  0  0  0
   24.8565  -21.5106  -12.7007 C   0  0  2  0  0  0  0  0  0  0  0  0
   25.5146  -21.9140  -11.4809 N   0  0  0  0  0  0  0  0  0  0  0  0
   23.4397  -21.1027  -12.5256 C   0  0  0  0  0  0  0  0  0  0  0  0
   22.8457  -21.6028  -11.5362 O   0  0  0  0  0  0  0  0  0  0  0  0
   22.7327  -20.2176  -13.3628 N   0  0  0  0  0  0  0  0  0  0  0  0
   21.3583  -19.8504  -13.2838 C   0  0  1  0  0  0  0  0  0  0  0  0
   20.9478  -18.6918  -14.1815 C   0  0  0  0  0  0  0  0  0  0  0  0
   19.8324  -17.9107  -13.6478 C   0  0  0  0  0  0  0  0  0  0  0  0
   19.2475  -18.1414  -12.5755 O   0  0  0  0  0  0  0  0  0  0  0  0
   20.3906  -20.9411  -13.4663 C   0  0  0  0  0  0  0  0  0  0  0  0
   19.4112  -21.2560  -12.5465 O   0  0  0  0  0  0  0  0  0  0  0  0
   19.3675  -16.8068  -14.3907 O   0  0  0  0  0  0  0  0  0  0  0  0
   20.4378  -21.6360  -14.5049 O   0  0  0  0  0  0  0  0  0  0  0  0
  2  3  1  0
  2  1  1  6
  3  4  1  0
  4 12  1  0
  5  6  1  0
  5  4  2  0
  6  7  1  0
  7 12  2  0
  7  8  1  0
  8  9  2  0
  9 10  1  0
 11 10  2  0
 12 11  1  0
 13  2  1  0
 13 14  2  0
 16 15  1  6
 16 18  1  0
 16 17  1  0
 17 13  1  0
 18 19  2  0
 20 18  1  0
 20 21  1  0
 21 22  1  6
 22 23  1  0
 23 24  2  0
 25 21  1  0
 26 25  1  0
 27 23  1  0
 28 25  2  0
M  END
$$$$
