WAD.pdb
     RDKit          3D

 28 29  0  0  1  0  0  0  0  0999 V2000
   28.4343  -19.9282  -10.6802 N   0  0  0  0  0  0  0  0  0  0  0  0
   27.5378  -21.0336  -10.9613 C   0  0  1  0  0  0  0  0  0  0  0  0
   27.2725  -21.7935   -9.7048 C   0  0  0  0  0  0  0  0  0  0  0  0
   26.9786  -20.9358   -8.5334 C   0  0  0  0  0  0  0  0  0  0  0  0
   25.8244  -20.2502   -8.2373 C   0  0  0  0  0  0  0  0  0  0  0  0
   25.9677  -19.5607   -7.0876 N   0  0  0  0  0  0  0  0  0  0  0  0
   27.2214  -19.7807   -6.6050 C   0  0  0  0  0  0  0  0  0  0  0  0
   27.8390  -19.3013   -5.4686 C   0  0  0  0  0  0  0  0  0  0  0  0
   29.1338  -19.6813   -5.2054 C   0  0  0  0  0  0  0  0  0  0  0  0
   29.8003  -20.5296   -6.0684 C   0  0  0  0  0  0  0  0  0  0  0  0
   29.1425  -20.9808   -7.1862 C   0  0  0  0  0  0  0  0  0  0  0  0
   27.8406  -20.6317   -7.5033 C   0  0  0  0  0  0  0  0  0  0  0  0
   26.3931  -20.5464  -11.7085 C   0  0  0  0  0  0  0  0  0  0  0  0
   25.6929  -19.5868  -11.2963 O   0  0  0  0  0  0  0  0  0  0  0  0
   25.0846  -20.9881  -15.1618 C   0  0  0  0  0  0  0  0  0  0  0  0
   24.8418  -20.5331  -13.6984 C   0  0  2  0  0  0  0  0  0  0  0  0
   25.9527  -21.0926  -12.9658 N   0  0  0  0  0  0  0  0  0  0  0  0
   23.5237  -21.1258  -13.3583 C   0  0  0  0  0  0  0  0  0  0  0  0
   23.5567  -22.2773  -12.8536 O   0  0  0  0  0  0  0  0  0  0  0  0
   22.2731  -20.5072  -13.5518 N   0  0  0  0  0  0  0  0  0  0  0  0
   20.9796  -21.0768  -13.3714 C   0  0  1  0  0  0  0  0  0  0  0  0
   19.8407  -20.0718  -13.2722 C   0  0  0  0  0  0  0  0  0  0  0  0
   19.5678  -19.6368  -11.9027 C   0  0  0  0  0  0  0  0  0  0  0  0
   20.1133  -20.0972  -10.8851 O   0  0  0  0  0  0  0  0  0  0  0  0
   20.5952  -22.1163  -14.3363 C   0  0  0  0  0  0  0  0  0  0  0  0
   19.8233  -23.2131  -14.0115 O   0  0  0  0  0  0  0  0  0  0  0  0
   18.6154  -18.6185  -11.6973 O   0  0  0  0  0  0  0  0  0  0  0  0
   20.9772  -22.0230  -15.5235 O   0  0  0  0  0  0  0  0  0  0  0  0
  2  3  1  0
  2  1  1  1
  3  4  1  0
  4 12  1  0
  5  6  1  0
  5  4  2  0
  6  7  1  0
  7 12  2  0
  7  8  1  0
  8  9  2  0
  9 10  1  0
 11 10  2  0
 12 11  1  0
 13  2  1  0
 13 14  2  0
 16 15  1  6
 16 18  1  0
 16 17  1  0
 17 13  1  0
 18 19  2  0
 20 18  1  0
 20 21  1  0
 21 22  1  6
 22 23  1  0
 23 24  2  0
 25 21  1  0
 26 25  1  0
 27 23  1  0
 28 25  2  0
M  END
$$$$
