WAD.pdb
     RDKit          3D

 28 29  0  0  1  0  0  0  0  0999 V2000
   26.0879  -22.9384  -13.2832 N   0  0  0  0  0  0  0  0  0  0  0  0
   25.2629  -21.9121  -12.6741 C   0  0  1  0  0  0  0  0  0  0  0  0
   26.0102  -20.6208  -12.6480 C   0  0  0  0  0  0  0  0  0  0  0  0
   27.1710  -20.6157  -11.7279 C   0  0  0  0  0  0  0  0  0  0  0  0
   28.5103  -20.6746  -12.0324 C   0  0  0  0  0  0  0  0  0  0  0  0
   29.2503  -20.6738  -10.9054 N   0  0  0  0  0  0  0  0  0  0  0  0
   28.4098  -20.6139   -9.8364 C   0  0  0  0  0  0  0  0  0  0  0  0
   28.6827  -20.5901   -8.4845 C   0  0  0  0  0  0  0  0  0  0  0  0
   27.6353  -20.5276   -7.5962 C   0  0  0  0  0  0  0  0  0  0  0  0
   26.3330  -20.4893   -8.0557 C   0  0  0  0  0  0  0  0  0  0  0  0
   26.1124  -20.5143   -9.4109 C   0  0  0  0  0  0  0  0  0  0  0  0
   27.1262  -20.5779  -10.3519 C   0  0  0  0  0  0  0  0  0  0  0  0
   23.9509  -21.9188  -13.2942 C   0  0  0  0  0  0  0  0  0  0  0  0
   23.7758  -22.3314  -14.4691 O   0  0  0  0  0  0  0  0  0  0  0  0
   20.4556  -21.2568  -12.1018 C   0  0  0  0  0  0  0  0  0  0  0  0
   21.4392  -21.6907  -13.2206 C   0  0  2  0  0  0  0  0  0  0  0  0
   22.7455  -21.4694  -12.6476 N   0  0  0  0  0  0  0  0  0  0  0  0
   21.1066  -20.7892  -14.3524 C   0  0  0  0  0  0  0  0  0  0  0  0
   19.9843  -20.9766  -14.8882 O   0  0  0  0  0  0  0  0  0  0  0  0
   21.9334  -19.7649  -14.8538 N   0  0  0  0  0  0  0  0  0  0  0  0
   21.6767  -18.8941  -15.9519 C   0  0  1  0  0  0  0  0  0  0  0  0
   22.0227  -17.4317  -15.7096 C   0  0  0  0  0  0  0  0  0  0  0  0
   21.1769  -16.7944  -14.7008 C   0  0  0  0  0  0  0  0  0  0  0  0
   20.2733  -17.3628  -14.0640 O   0  0  0  0  0  0  0  0  0  0  0  0
   22.2555  -19.2979  -17.2408 C   0  0  0  0  0  0  0  0  0  0  0  0
   21.6115  -19.1400  -18.4511 O   0  0  0  0  0  0  0  0  0  0  0  0
   21.3843  -15.4304  -14.4130 O   0  0  0  0  0  0  0  0  0  0  0  0
   23.3936  -19.8155  -17.2672 O   0  0  0  0  0  0  0  0  0  0  0  0
  2  3  1  0
  2  1  1  6
  3  4  1  0
  4 12  1  0
  5  6  1  0
  5  4  2  0
  6  7  1  0
  7 12  2  0
  7  8  1  0
  8  9  2  0
  9 10  1  0
 11 10  2  0
 12 11  1  0
 13  2  1  0
 13 14  2  0
 16 15  1  1
 16 18  1  0
 16 17  1  0
 17 13  1  0
 18 19  2  0
 20 18  1  0
 20 21  1  0
 21 22  1  1
 22 23  1  0
 23 24  2  0
 25 21  1  0
 26 25  1  0
 27 23  1  0
 28 25  2  0
M  END
$$$$
