WAD.pdb
     RDKit          3D

 28 29  0  0  1  0  0  0  0  0999 V2000
   27.9465  -21.9776  -13.2998 N   0  0  0  0  0  0  0  0  0  0  0  0
   26.7312  -21.7432  -12.5429 C   0  0  1  0  0  0  0  0  0  0  0  0
   26.8969  -20.5257  -11.6964 C   0  0  0  0  0  0  0  0  0  0  0  0
   27.9182  -20.6665  -10.6328 C   0  0  0  0  0  0  0  0  0  0  0  0
   29.2595  -20.9402  -10.7590 C   0  0  0  0  0  0  0  0  0  0  0  0
   29.8417  -21.0137   -9.5452 N   0  0  0  0  0  0  0  0  0  0  0  0
   28.8922  -20.7890   -8.5960 C   0  0  0  0  0  0  0  0  0  0  0  0
   28.9919  -20.7606   -7.2205 C   0  0  0  0  0  0  0  0  0  0  0  0
   27.8632  -20.5079   -6.4775 C   0  0  0  0  0  0  0  0  0  0  0  0
   26.6517  -20.2867   -7.1036 C   0  0  0  0  0  0  0  0  0  0  0  0
   26.6035  -20.3244   -8.4755 C   0  0  0  0  0  0  0  0  0  0  0  0
   27.7059  -20.5748   -9.2751 C   0  0  0  0  0  0  0  0  0  0  0  0
   25.5901  -21.7911  -13.4383 C   0  0  0  0  0  0  0  0  0  0  0  0
   25.4109  -20.9225  -14.3297 O   0  0  0  0  0  0  0  0  0  0  0  0
   22.8996  -24.1947  -14.3349 C   0  0  0  0  0  0  0  0  0  0  0  0
   23.3723  -22.7231  -14.1991 C   0  0  2  0  0  0  0  0  0  0  0  0
   24.5737  -22.8102  -13.4035 N   0  0  0  0  0  0  0  0  0  0  0  0
   22.2368  -22.0485  -13.5209 C   0  0  0  0  0  0  0  0  0  0  0  0
   22.5066  -21.4951  -12.4242 O   0  0  0  0  0  0  0  0  0  0  0  0
   20.9157  -21.9826  -14.0053 N   0  0  0  0  0  0  0  0  0  0  0  0
   20.0442  -20.8555  -14.0152 C   0  0  1  0  0  0  0  0  0  0  0  0
   20.6540  -19.5738  -14.5650 C   0  0  0  0  0  0  0  0  0  0  0  0
   19.7473  -18.4276  -14.5060 C   0  0  0  0  0  0  0  0  0  0  0  0
   19.5273  -17.7425  -13.4924 O   0  0  0  0  0  0  0  0  0  0  0  0
   18.7387  -21.0585  -14.6585 C   0  0  0  0  0  0  0  0  0  0  0  0
   18.5838  -21.5905  -15.9223 O   0  0  0  0  0  0  0  0  0  0  0  0
   19.0584  -18.0536  -15.6773 O   0  0  0  0  0  0  0  0  0  0  0  0
   17.6964  -20.7390  -14.0458 O   0  0  0  0  0  0  0  0  0  0  0  0
  2  3  1  0
  2  1  1  6
  3  4  1  0
  4 12  1  0
  5  6  1  0
  5  4  2  0
  6  7  1  0
  7 12  2  0
  7  8  1  0
  8  9  2  0
  9 10  1  0
 11 10  2  0
 12 11  1  0
 13  2  1  0
 13 14  2  0
 16 15  1  1
 16 18  1  0
 16 17  1  0
 17 13  1  0
 18 19  2  0
 20 18  1  0
 20 21  1  0
 21 22  1  6
 22 23  1  0
 23 24  2  0
 25 21  1  0
 26 25  1  0
 27 23  1  0
 28 25  2  0
M  END
$$$$
