WAD.pdb
     RDKit          3D

 28 29  0  0  1  0  0  0  0  0999 V2000
   26.5567  -22.5036  -12.3275 N   0  0  0  0  0  0  0  0  0  0  0  0
   25.8149  -21.5160  -11.5665 C   0  0  1  0  0  0  0  0  0  0  0  0
   26.6428  -20.2851  -11.4046 C   0  0  0  0  0  0  0  0  0  0  0  0
   27.8380  -20.4718  -10.5499 C   0  0  0  0  0  0  0  0  0  0  0  0
   29.1139  -20.8250  -10.9205 C   0  0  0  0  0  0  0  0  0  0  0  0
   29.9109  -20.9169   -9.8370 N   0  0  0  0  0  0  0  0  0  0  0  0
   29.1727  -20.6250   -8.7312 C   0  0  0  0  0  0  0  0  0  0  0  0
   29.5330  -20.5849   -7.4003 C   0  0  0  0  0  0  0  0  0  0  0  0
   28.5814  -20.2573   -6.4638 C   0  0  0  0  0  0  0  0  0  0  0  0
   27.2871  -19.9736   -6.8550 C   0  0  0  0  0  0  0  0  0  0  0  0
   26.9775  -20.0260   -8.1919 C   0  0  0  0  0  0  0  0  0  0  0  0
   27.8926  -20.3506   -9.1791 C   0  0  0  0  0  0  0  0  0  0  0  0
   24.4889  -21.3659  -12.1368 C   0  0  0  0  0  0  0  0  0  0  0  0
   24.3068  -21.2914  -13.3787 O   0  0  0  0  0  0  0  0  0  0  0  0
   21.0269  -20.8701  -10.7741 C   0  0  0  0  0  0  0  0  0  0  0  0
   21.9887  -21.0672  -11.9755 C   0  0  2  0  0  0  0  0  0  0  0  0
   23.2767  -21.2916  -11.3635 N   0  0  0  0  0  0  0  0  0  0  0  0
   21.8820  -19.7908  -12.7264 C   0  0  0  0  0  0  0  0  0  0  0  0
   22.7210  -18.9052  -12.4200 O   0  0  0  0  0  0  0  0  0  0  0  0
   20.9370  -19.5087  -13.7321 N   0  0  0  0  0  0  0  0  0  0  0  0
   21.1831  -19.2140  -15.1042 C   0  0  1  0  0  0  0  0  0  0  0  0
   22.4842  -19.7746  -15.6607 C   0  0  0  0  0  0  0  0  0  0  0  0
   22.7364  -19.3880  -17.0485 C   0  0  0  0  0  0  0  0  0  0  0  0
   22.7455  -18.2202  -17.4742 O   0  0  0  0  0  0  0  0  0  0  0  0
   20.0991  -19.5500  -16.0377 C   0  0  0  0  0  0  0  0  0  0  0  0
   19.3703  -18.6076  -16.7341 O   0  0  0  0  0  0  0  0  0  0  0  0
   22.9902  -20.4020  -17.9940 O   0  0  0  0  0  0  0  0  0  0  0  0
   19.8029  -20.7501  -16.2278 O   0  0  0  0  0  0  0  0  0  0  0  0
  2  3  1  0
  2  1  1  6
  3  4  1  0
  4 12  1  0
  5  6  1  0
  5  4  2  0
  6  7  1  0
  7 12  2  0
  7  8  1  0
  8  9  2  0
  9 10  1  0
 11 10  2  0
 12 11  1  0
 13  2  1  0
 13 14  2  0
 16 15  1  1
 16 18  1  0
 16 17  1  0
 17 13  1  0
 18 19  2  0
 20 18  1  0
 20 21  1  0
 21 22  1  6
 22 23  1  0
 23 24  2  0
 25 21  1  0
 26 25  1  0
 27 23  1  0
 28 25  2  0
M  END
$$$$
