WAD.pdb
     RDKit          3D

 28 29  0  0  1  0  0  0  0  0999 V2000
   13.9152  -17.4626    6.0004 N   0  0  0  0  0  0  0  0  0  0  0  0
   14.6149  -18.7243    5.8470 C   0  0  1  0  0  0  0  0  0  0  0  0
   15.6890  -18.5783    4.8216 C   0  0  0  0  0  0  0  0  0  0  0  0
   15.1853  -18.4782    3.4323 C   0  0  0  0  0  0  0  0  0  0  0  0
   14.4676  -17.4611    2.8487 C   0  0  0  0  0  0  0  0  0  0  0  0
   14.1760  -17.7648    1.5679 N   0  0  0  0  0  0  0  0  0  0  0  0
   14.6977  -18.9897    1.2845 C   0  0  0  0  0  0  0  0  0  0  0  0
   14.6655  -19.7278    0.1196 C   0  0  0  0  0  0  0  0  0  0  0  0
   15.2791  -20.9578    0.0950 C   0  0  0  0  0  0  0  0  0  0  0  0
   15.9161  -21.4415    1.2214 C   0  0  0  0  0  0  0  0  0  0  0  0
   15.9218  -20.6692    2.3569 C   0  0  0  0  0  0  0  0  0  0  0  0
   15.3205  -19.4247    2.4410 C   0  0  0  0  0  0  0  0  0  0  0  0
   14.9954  -19.2253    7.1547 C   0  0  0  0  0  0  0  0  0  0  0  0
   15.3617  -18.4547    8.0783 O   0  0  0  0  0  0  0  0  0  0  0  0
   15.6298  -22.6125    8.6175 C   0  0  0  0  0  0  0  0  0  0  0  0
   15.5004  -21.0763    8.7933 C   0  0  2  0  0  0  0  0  0  0  0  0
   14.9910  -20.6172    7.5230 N   0  0  0  0  0  0  0  0  0  0  0  0
   16.8869  -20.6370    9.0915 C   0  0  0  0  0  0  0  0  0  0  0  0
   17.4548  -19.9707    8.1885 O   0  0  0  0  0  0  0  0  0  0  0  0
   17.5921  -20.9024   10.2817 N   0  0  0  0  0  0  0  0  0  0  0  0
   18.5497  -20.0727   10.9332 C   0  0  1  0  0  0  0  0  0  0  0  0
   18.1366  -18.6167   11.0960 C   0  0  0  0  0  0  0  0  0  0  0  0
   19.1659  -17.7878   11.7226 C   0  0  0  0  0  0  0  0  0  0  0  0
   20.2958  -18.1835   12.0570 O   0  0  0  0  0  0  0  0  0  0  0  0
   19.0460  -20.5591   12.2280 C   0  0  0  0  0  0  0  0  0  0  0  0
   20.2991  -21.1080   12.4090 O   0  0  0  0  0  0  0  0  0  0  0  0
   18.8755  -16.4323   11.9772 O   0  0  0  0  0  0  0  0  0  0  0  0
   18.3097  -20.4816   13.2358 O   0  0  0  0  0  0  0  0  0  0  0  0
  2  3  1  0
  2  1  1  1
  3  4  1  0
  4 12  1  0
  5  6  1  0
  5  4  2  0
  6  7  1  0
  7 12  2  0
  7  8  1  0
  8  9  2  0
  9 10  1  0
 11 10  2  0
 12 11  1  0
 13  2  1  0
 13 14  2  0
 16 15  1  6
 16 18  1  0
 16 17  1  0
 17 13  1  0
 18 19  2  0
 20 18  1  0
 20 21  1  0
 21 22  1  1
 22 23  1  0
 23 24  2  0
 25 21  1  0
 26 25  1  0
 27 23  1  0
 28 25  2  0
M  END
$$$$
