WAD.pdb
     RDKit          3D

 28 29  0  0  1  0  0  0  0  0999 V2000
   29.1162  -36.1558   -6.8894 N   0  0  0  0  0  0  0  0  0  0  0  0
   29.9861  -35.4397   -5.9755 C   0  0  1  0  0  0  0  0  0  0  0  0
   29.3406  -34.1557   -5.5742 C   0  0  0  0  0  0  0  0  0  0  0  0
   29.3572  -33.1177   -6.6307 C   0  0  0  0  0  0  0  0  0  0  0  0
   28.3147  -32.6541   -7.3975 C   0  0  0  0  0  0  0  0  0  0  0  0
   28.7491  -31.7218   -8.2693 N   0  0  0  0  0  0  0  0  0  0  0  0
   30.0882  -31.5543   -8.0914 C   0  0  0  0  0  0  0  0  0  0  0  0
   30.9789  -30.7222   -8.7372 C   0  0  0  0  0  0  0  0  0  0  0  0
   32.3015  -30.7457   -8.3626 C   0  0  0  0  0  0  0  0  0  0  0  0
   32.7257  -31.5906   -7.3552 C   0  0  0  0  0  0  0  0  0  0  0  0
   31.8008  -32.3994   -6.7418 C   0  0  0  0  0  0  0  0  0  0  0  0
   30.4574  -32.4198   -7.0770 C   0  0  0  0  0  0  0  0  0  0  0  0
   30.4165  -36.3366   -4.9190 C   0  0  0  0  0  0  0  0  0  0  0  0
   29.5944  -37.0058   -4.2426 O   0  0  0  0  0  0  0  0  0  0  0  0
   33.7130  -37.3688   -3.4406 C   0  0  0  0  0  0  0  0  0  0  0  0
   32.1617  -37.3990   -3.4386 C   0  0  2  0  0  0  0  0  0  0  0  0
   31.7905  -36.5510   -4.5462 N   0  0  0  0  0  0  0  0  0  0  0  0
   31.7997  -36.8568   -2.1046 C   0  0  0  0  0  0  0  0  0  0  0  0
   31.6461  -35.6099   -2.0454 O   0  0  0  0  0  0  0  0  0  0  0  0
   31.6176  -37.6176   -0.9332 N   0  0  0  0  0  0  0  0  0  0  0  0
   31.2940  -37.1474    0.3722 C   0  0  1  0  0  0  0  0  0  0  0  0
   30.4966  -38.1206    1.2288 C   0  0  0  0  0  0  0  0  0  0  0  0
   29.9157  -37.5035    2.4209 C   0  0  0  0  0  0  0  0  0  0  0  0
   30.0235  -36.3040    2.7286 O   0  0  0  0  0  0  0  0  0  0  0  0
   32.4202  -36.6448    1.1714 C   0  0  0  0  0  0  0  0  0  0  0  0
   32.3780  -35.4738    1.9002 O   0  0  0  0  0  0  0  0  0  0  0  0
   29.1730  -38.3130    3.3037 O   0  0  0  0  0  0  0  0  0  0  0  0
   33.4861  -37.2978    1.2081 O   0  0  0  0  0  0  0  0  0  0  0  0
  2  3  1  0
  2  1  1  6
  3  4  1  0
  4 12  1  0
  5  6  1  0
  5  4  2  0
  6  7  1  0
  7 12  2  0
  7  8  1  0
  8  9  2  0
  9 10  1  0
 11 10  2  0
 12 11  1  0
 13  2  1  0
 13 14  2  0
 16 15  1  1
 16 18  1  0
 16 17  1  0
 17 13  1  0
 18 19  2  0
 20 18  1  0
 20 21  1  0
 21 22  1  1
 22 23  1  0
 23 24  2  0
 25 21  1  0
 26 25  1  0
 27 23  1  0
 28 25  2  0
M  END
$$$$
