WAD.pdb
     RDKit          3D

 28 29  0  0  1  0  0  0  0  0999 V2000
   30.1321  -36.3079   -7.9116 N   0  0  0  0  0  0  0  0  0  0  0  0
   29.5561  -35.6565   -6.7503 C   0  0  1  0  0  0  0  0  0  0  0  0
   28.0794  -35.8704   -6.7387 C   0  0  0  0  0  0  0  0  0  0  0  0
   27.3336  -34.9690   -7.6472 C   0  0  0  0  0  0  0  0  0  0  0  0
   27.0979  -35.1083   -8.9944 C   0  0  0  0  0  0  0  0  0  0  0  0
   26.3991  -34.0543   -9.4620 N   0  0  0  0  0  0  0  0  0  0  0  0
   26.1615  -33.2005   -8.4288 C   0  0  0  0  0  0  0  0  0  0  0  0
   25.4934  -31.9940   -8.4013 C   0  0  0  0  0  0  0  0  0  0  0  0
   25.3927  -31.3173   -7.2089 C   0  0  0  0  0  0  0  0  0  0  0  0
   25.9531  -31.8418   -6.0602 C   0  0  0  0  0  0  0  0  0  0  0  0
   26.6074  -33.0466   -6.1384 C   0  0  0  0  0  0  0  0  0  0  0  0
   26.7414  -33.7721   -7.3101 C   0  0  0  0  0  0  0  0  0  0  0  0
   30.3016  -36.0387   -5.5653 C   0  0  0  0  0  0  0  0  0  0  0  0
   30.4326  -37.2420   -5.2248 O   0  0  0  0  0  0  0  0  0  0  0  0
   32.2501  -34.2487   -2.9016 C   0  0  0  0  0  0  0  0  0  0  0  0
   31.5220  -35.5172   -3.4194 C   0  0  2  0  0  0  0  0  0  0  0  0
   30.9535  -35.1076   -4.6815 N   0  0  0  0  0  0  0  0  0  0  0  0
   30.5205  -35.8058   -2.3620 C   0  0  0  0  0  0  0  0  0  0  0  0
   29.3958  -35.2634   -2.5125 O   0  0  0  0  0  0  0  0  0  0  0  0
   30.7320  -36.6238   -1.2349 N   0  0  0  0  0  0  0  0  0  0  0  0
   29.8680  -36.8120   -0.1177 C   0  0  1  0  0  0  0  0  0  0  0  0
   30.4641  -37.6143    1.0303 C   0  0  0  0  0  0  0  0  0  0  0  0
   30.8673  -38.9666    0.6458 C   0  0  0  0  0  0  0  0  0  0  0  0
   30.7138  -39.4637   -0.4831 O   0  0  0  0  0  0  0  0  0  0  0  0
   29.2603  -35.5944    0.4367 C   0  0  0  0  0  0  0  0  0  0  0  0
   27.9589  -35.5281    0.8909 O   0  0  0  0  0  0  0  0  0  0  0  0
   31.4783  -39.7878    1.6147 O   0  0  0  0  0  0  0  0  0  0  0  0
   29.9410  -34.5480    0.5111 O   0  0  0  0  0  0  0  0  0  0  0  0
  2  3  1  0
  2  1  1  6
  3  4  1  0
  4 12  1  0
  5  6  1  0
  5  4  2  0
  6  7  1  0
  7 12  2  0
  7  8  1  0
  8  9  2  0
  9 10  1  0
 11 10  2  0
 12 11  1  0
 13  2  1  0
 13 14  2  0
 16 15  1  1
 16 18  1  0
 16 17  1  0
 17 13  1  0
 18 19  2  0
 20 18  1  0
 20 21  1  0
 21 22  1  1
 22 23  1  0
 23 24  2  0
 25 21  1  0
 26 25  1  0
 27 23  1  0
 28 25  2  0
M  END
$$$$
