WAD.pdb
     RDKit          3D

 28 29  0  0  1  0  0  0  0  0999 V2000
   26.8747  -21.9431  -10.8012 N   0  0  0  0  0  0  0  0  0  0  0  0
   26.2395  -20.6942  -10.4247 C   0  0  1  0  0  0  0  0  0  0  0  0
   27.2730  -19.7365   -9.9336 C   0  0  0  0  0  0  0  0  0  0  0  0
   28.1649  -20.2955   -8.8916 C   0  0  0  0  0  0  0  0  0  0  0  0
   29.3002  -21.0548   -9.0480 C   0  0  0  0  0  0  0  0  0  0  0  0
   29.8123  -21.3899   -7.8466 N   0  0  0  0  0  0  0  0  0  0  0  0
   29.0218  -20.8558   -6.8756 C   0  0  0  0  0  0  0  0  0  0  0  0
   29.1270  -20.9189   -5.5017 C   0  0  0  0  0  0  0  0  0  0  0  0
   28.1811  -20.2829   -4.7330 C   0  0  0  0  0  0  0  0  0  0  0  0
   27.1447  -19.5934   -5.3321 C   0  0  0  0  0  0  0  0  0  0  0  0
   27.0836  -19.5587   -6.7036 C   0  0  0  0  0  0  0  0  0  0  0  0
   28.0058  -20.1805   -7.5284 C   0  0  0  0  0  0  0  0  0  0  0  0
   25.3695  -20.2540  -11.4995 C   0  0  0  0  0  0  0  0  0  0  0  0
   24.5306  -19.3316  -11.3368 O   0  0  0  0  0  0  0  0  0  0  0  0
   24.9308  -21.1230  -15.1280 C   0  0  0  0  0  0  0  0  0  0  0  0
   24.5261  -20.2990  -13.8771 C   0  0  2  0  0  0  0  0  0  0  0  0
   25.3766  -20.8089  -12.8281 N   0  0  0  0  0  0  0  0  0  0  0  0
   23.0848  -20.6089  -13.7013 C   0  0  0  0  0  0  0  0  0  0  0  0
   22.3299  -20.2465  -14.6397 O   0  0  0  0  0  0  0  0  0  0  0  0
   22.5174  -21.2645  -12.5911 N   0  0  0  0  0  0  0  0  0  0  0  0
   21.1378  -21.5073  -12.3312 C   0  0  1  0  0  0  0  0  0  0  0  0
   20.8570  -22.4635  -11.1807 C   0  0  0  0  0  0  0  0  0  0  0  0
   19.4426  -22.8110  -11.0466 C   0  0  0  0  0  0  0  0  0  0  0  0
   18.5382  -22.4302  -11.8096 O   0  0  0  0  0  0  0  0  0  0  0  0
   20.2977  -20.3145  -12.1556 C   0  0  0  0  0  0  0  0  0  0  0  0
   20.8027  -19.0502  -11.9297 O   0  0  0  0  0  0  0  0  0  0  0  0
   19.0519  -23.6401   -9.9759 O   0  0  0  0  0  0  0  0  0  0  0  0
   19.0533  -20.4269  -12.2098 O   0  0  0  0  0  0  0  0  0  0  0  0
  2  3  1  0
  2  1  1  6
  3  4  1  0
  4 12  1  0
  5  6  1  0
  5  4  2  0
  6  7  1  0
  7 12  2  0
  7  8  1  0
  8  9  2  0
  9 10  1  0
 11 10  2  0
 12 11  1  0
 13  2  1  0
 13 14  2  0
 16 15  1  6
 16 18  1  0
 16 17  1  0
 17 13  1  0
 18 19  2  0
 20 18  1  0
 20 21  1  0
 21 22  1  1
 22 23  1  0
 23 24  2  0
 25 21  1  0
 26 25  1  0
 27 23  1  0
 28 25  2  0
M  END
$$$$
