TII.pdb
     RDKit          3D

 24 23  0  0  1  0  0  0  0  0999 V2000
   28.8213  -18.1993  -15.8831 C   0  0  0  0  0  0  0  0  0  0  0  0
   27.5977  -18.8630  -15.2791 C   0  0  1  0  0  0  0  0  0  0  0  0
   26.6879  -19.0814  -16.2904 O   0  0  0  0  0  0  0  0  0  0  0  0
   27.9908  -20.2054  -14.6546 C   0  0  2  0  0  0  0  0  0  0  0  0
   28.3074  -21.0645  -15.7879 N   0  0  0  0  0  0  0  0  0  0  0  0
   26.8850  -20.7771  -13.8540 C   0  0  0  0  0  0  0  0  0  0  0  0
   26.2167  -21.7255  -14.3901 O   0  0  0  0  0  0  0  0  0  0  0  0
   27.0306  -20.2530   -8.4737 C   0  0  0  0  0  0  0  0  0  0  0  0
   26.7019  -20.9763   -9.7361 C   0  0  0  0  0  0  0  0  0  0  0  0
   25.4472  -20.4598  -10.4001 C   0  0  2  0  0  0  0  0  0  0  0  0
   24.2045  -20.8907   -9.6704 C   0  0  0  0  0  0  0  0  0  0  0  0
   25.3984  -20.7914  -11.8665 C   0  0  2  0  0  0  0  0  0  0  0  0
   26.5618  -20.3105  -12.5463 N   0  0  0  0  0  0  0  0  0  0  0  0
   24.1328  -20.2514  -12.4445 C   0  0  0  0  0  0  0  0  0  0  0  0
   23.9482  -19.0075  -12.4808 O   0  0  0  0  0  0  0  0  0  0  0  0
   20.7819  -20.2972  -17.2050 C   0  0  0  0  0  0  0  0  0  0  0  0
   20.6052  -20.1399  -15.6955 C   0  0  0  0  0  0  0  0  0  0  0  0
   21.8421  -20.7323  -15.0596 C   0  0  2  0  0  0  0  0  0  0  0  0
   21.7184  -22.2458  -15.2348 C   0  0  0  0  0  0  0  0  0  0  0  0
   21.9272  -20.4680  -13.5789 C   0  0  2  0  0  0  0  0  0  0  0  0
   23.0920  -21.0645  -12.9709 N   0  0  0  0  0  0  0  0  0  0  0  0
   20.7167  -21.0536  -12.9604 C   0  0  0  0  0  0  0  0  0  0  0  0
   19.6206  -20.5057  -13.1146 O   0  0  0  0  0  0  0  0  0  0  0  0
   20.7859  -22.2205  -12.2008 O   0  0  0  0  0  0  0  0  0  0  0  0
  2  1  1  6
  3  2  1  0
  4  2  1  0
  4  5  1  6
  6  4  1  0
  6  7  2  0
  9 10  1  0
  9  8  1  0
 10 12  1  0
 10 11  1  1
 12 13  1  6
 13  6  1  0
 14 12  1  0
 15 14  2  0
 16 17  1  0
 17 18  1  0
 18 19  1  1
 18 20  1  0
 20 21  1  1
 20 22  1  0
 21 14  1  0
 22 24  1  0
 23 22  2  0
M  END
$$$$
