TII.pdb
     RDKit          3D

 24 23  0  0  1  0  0  0  0  0999 V2000
   22.8099  -22.0053  -12.9008 C   0  0  0  0  0  0  0  0  0  0  0  0
   22.5274  -21.2000  -11.6461 C   0  0  1  0  0  0  0  0  0  0  0  0
   21.4670  -21.7880  -10.9916 O   0  0  0  0  0  0  0  0  0  0  0  0
   23.7565  -21.2153  -10.7321 C   0  0  2  0  0  0  0  0  0  0  0  0
   23.3368  -20.5037   -9.5321 N   0  0  0  0  0  0  0  0  0  0  0  0
   24.9131  -20.5427  -11.3651 C   0  0  0  0  0  0  0  0  0  0  0  0
   24.9074  -19.2647  -11.3634 O   0  0  0  0  0  0  0  0  0  0  0  0
   29.9070  -21.7895  -10.4023 C   0  0  0  0  0  0  0  0  0  0  0  0
   28.6284  -21.1250  -10.7874 C   0  0  0  0  0  0  0  0  0  0  0  0
   28.3904  -21.1275  -12.2791 C   0  0  2  0  0  0  0  0  0  0  0  0
   29.5092  -20.4589  -13.0299 C   0  0  0  0  0  0  0  0  0  0  0  0
   27.0403  -20.5736  -12.6436 C   0  0  2  0  0  0  0  0  0  0  0  0
   25.9931  -21.2629  -11.9542 N   0  0  0  0  0  0  0  0  0  0  0  0
   26.8794  -20.6230  -14.1265 C   0  0  0  0  0  0  0  0  0  0  0  0
   26.8563  -21.7365  -14.7115 O   0  0  0  0  0  0  0  0  0  0  0  0
   22.9065  -18.3243  -16.7086 C   0  0  0  0  0  0  0  0  0  0  0  0
   23.9842  -19.3067  -16.2522 C   0  0  0  0  0  0  0  0  0  0  0  0
   25.2920  -18.7893  -16.8065 C   0  0  2  0  0  0  0  0  0  0  0  0
   25.1930  -18.9431  -18.3241 C   0  0  0  0  0  0  0  0  0  0  0  0
   26.4818  -19.5986  -16.3606 C   0  0  2  0  0  0  0  0  0  0  0  0
   26.7473  -19.4701  -14.9480 N   0  0  0  0  0  0  0  0  0  0  0  0
   27.6557  -19.0994  -17.1113 C   0  0  0  0  0  0  0  0  0  0  0  0
   28.0754  -17.9558  -16.9075 O   0  0  0  0  0  0  0  0  0  0  0  0
   28.3046  -19.8978  -18.0520 O   0  0  0  0  0  0  0  0  0  0  0  0
  2  1  1  6
  3  2  1  0
  4  2  1  0
  4  5  1  1
  6  4  1  0
  6  7  2  0
  9 10  1  0
  9  8  1  0
 10 12  1  0
 10 11  1  6
 12 13  1  1
 13  6  1  0
 14 12  1  0
 15 14  2  0
 16 17  1  0
 17 18  1  0
 18 19  1  6
 18 20  1  0
 20 21  1  1
 20 22  1  0
 21 14  1  0
 22 24  1  0
 23 22  2  0
M  END
$$$$
