TII.pdb
     RDKit          3D

 24 23  0  0  1  0  0  0  0  0999 V2000
   19.2429  -12.2956  -19.0890 C   0  0  0  0  0  0  0  0  0  0  0  0
   18.7040  -13.5066  -18.3503 C   0  0  1  0  0  0  0  0  0  0  0  0
   18.0532  -14.3081  -19.2626 O   0  0  0  0  0  0  0  0  0  0  0  0
   19.8620  -14.2903  -17.7248 C   0  0  2  0  0  0  0  0  0  0  0  0
   19.2450  -15.4899  -17.1743 N   0  0  0  0  0  0  0  0  0  0  0  0
   20.5354  -13.5102  -16.6624 C   0  0  0  0  0  0  0  0  0  0  0  0
   19.8317  -13.2014  -15.6412 O   0  0  0  0  0  0  0  0  0  0  0  0
   25.7029  -14.2337  -15.2175 C   0  0  0  0  0  0  0  0  0  0  0  0
   24.2416  -13.9382  -15.2662 C   0  0  0  0  0  0  0  0  0  0  0  0
   23.9442  -12.4958  -15.6023 C   0  0  2  0  0  0  0  0  0  0  0  0
   24.5875  -11.5458  -14.6296 C   0  0  0  0  0  0  0  0  0  0  0  0
   22.4715  -12.2396  -15.7694 C   0  0  2  0  0  0  0  0  0  0  0  0
   21.9011  -13.1112  -16.7503 N   0  0  0  0  0  0  0  0  0  0  0  0
   22.2632  -10.7978  -16.0936 C   0  0  0  0  0  0  0  0  0  0  0  0
   22.7466  -10.3240  -17.1540 O   0  0  0  0  0  0  0  0  0  0  0  0
   18.1937   -6.8400  -17.1000 C   0  0  0  0  0  0  0  0  0  0  0  0
   19.5921   -6.8692  -16.4850 C   0  0  0  0  0  0  0  0  0  0  0  0
   19.9000   -8.3215  -16.2001 C   0  0  2  0  0  0  0  0  0  0  0  0
   18.9488   -8.7383  -15.0783 C   0  0  0  0  0  0  0  0  0  0  0  0
   21.3008   -8.5374  -15.6897 C   0  0  2  0  0  0  0  0  0  0  0  0
   21.5381   -9.8965  -15.2669 N   0  0  0  0  0  0  0  0  0  0  0  0
   21.4855   -7.6398  -14.5275 C   0  0  0  0  0  0  0  0  0  0  0  0
   21.4813   -8.1055  -13.3836 O   0  0  0  0  0  0  0  0  0  0  0  0
   21.6657   -6.2676  -14.6958 O   0  0  0  0  0  0  0  0  0  0  0  0
  2  1  1  6
  3  2  1  0
  4  2  1  0
  4  5  1  1
  6  4  1  0
  6  7  2  0
  9 10  1  0
  9  8  1  0
 10 12  1  0
 10 11  1  1
 12 13  1  6
 13  6  1  0
 14 12  1  0
 15 14  2  0
 16 17  1  0
 17 18  1  0
 18 19  1  1
 18 20  1  0
 20 21  1  1
 20 22  1  0
 21 14  1  0
 22 24  1  0
 23 22  2  0
M  END
$$$$
