TII.pdb
     RDKit          3D

 24 23  0  0  1  0  0  0  0  0999 V2000
   29.0113  -18.2768  -15.8450 C   0  0  0  0  0  0  0  0  0  0  0  0
   27.7350  -18.9356  -15.3553 C   0  0  1  0  0  0  0  0  0  0  0  0
   26.9474  -19.2078  -16.4525 O   0  0  0  0  0  0  0  0  0  0  0  0
   28.0704  -20.2460  -14.6365 C   0  0  2  0  0  0  0  0  0  0  0  0
   28.5274  -21.1421  -15.6904 N   0  0  0  0  0  0  0  0  0  0  0  0
   26.8866  -20.8060  -13.9466 C   0  0  0  0  0  0  0  0  0  0  0  0
   26.2700  -21.7552  -14.5401 O   0  0  0  0  0  0  0  0  0  0  0  0
   26.6109  -20.7140   -8.5047 C   0  0  0  0  0  0  0  0  0  0  0  0
   26.4673  -21.1775   -9.9151 C   0  0  0  0  0  0  0  0  0  0  0  0
   25.2392  -20.6195  -10.5953 C   0  0  2  0  0  0  0  0  0  0  0  0
   23.9691  -21.0961   -9.9457 C   0  0  0  0  0  0  0  0  0  0  0  0
   25.2508  -20.8566  -12.0806 C   0  0  2  0  0  0  0  0  0  0  0  0
   26.4366  -20.3275  -12.6814 N   0  0  0  0  0  0  0  0  0  0  0  0
   24.0051  -20.2869  -12.6730 C   0  0  0  0  0  0  0  0  0  0  0  0
   23.8132  -19.0440  -12.6377 O   0  0  0  0  0  0  0  0  0  0  0  0
   20.5738  -20.3210  -17.4718 C   0  0  0  0  0  0  0  0  0  0  0  0
   20.4784  -20.0787  -15.9662 C   0  0  0  0  0  0  0  0  0  0  0  0
   21.7367  -20.6595  -15.3625 C   0  0  2  0  0  0  0  0  0  0  0  0
   21.6503  -22.1690  -15.5878 C   0  0  0  0  0  0  0  0  0  0  0  0
   21.8302  -20.4431  -13.8746 C   0  0  2  0  0  0  0  0  0  0  0  0
   22.9917  -21.0696  -13.2908 N   0  0  0  0  0  0  0  0  0  0  0  0
   20.6166  -21.0365  -13.2698 C   0  0  0  0  0  0  0  0  0  0  0  0
   20.6926  -22.1114  -12.6662 O   0  0  0  0  0  0  0  0  0  0  0  0
   19.3780  -20.4040  -13.3665 O   0  0  0  0  0  0  0  0  0  0  0  0
  2  1  1  6
  3  2  1  0
  4  2  1  0
  4  5  1  6
  6  4  1  0
  6  7  2  0
  9 10  1  0
  9  8  1  0
 10 12  1  0
 10 11  1  1
 12 13  1  6
 13  6  1  0
 14 12  1  0
 15 14  2  0
 16 17  1  0
 17 18  1  0
 18 19  1  1
 18 20  1  0
 20 21  1  1
 20 22  1  0
 21 14  1  0
 22 24  1  0
 23 22  2  0
M  END
$$$$
