TII.pdb
     RDKit          3D

 24 23  0  0  1  0  0  0  0  0999 V2000
   27.1623  -17.9970  -14.8112 C   0  0  0  0  0  0  0  0  0  0  0  0
   27.7171  -19.1592  -15.6137 C   0  0  1  0  0  0  0  0  0  0  0  0
   28.8287  -18.7146  -16.2957 O   0  0  0  0  0  0  0  0  0  0  0  0
   28.1244  -20.2943  -14.6692 C   0  0  2  0  0  0  0  0  0  0  0  0
   28.6894  -21.3175  -15.5389 N   0  0  0  0  0  0  0  0  0  0  0  0
   26.9616  -20.8229  -13.9214 C   0  0  0  0  0  0  0  0  0  0  0  0
   26.3106  -21.7768  -14.4688 O   0  0  0  0  0  0  0  0  0  0  0  0
   26.9113  -20.4056   -8.4900 C   0  0  0  0  0  0  0  0  0  0  0  0
   26.6729  -21.0324   -9.8224 C   0  0  0  0  0  0  0  0  0  0  0  0
   25.4417  -20.4950  -10.5132 C   0  0  2  0  0  0  0  0  0  0  0  0
   24.1768  -20.9002   -9.8073 C   0  0  0  0  0  0  0  0  0  0  0  0
   25.4162  -20.8308  -11.9792 C   0  0  2  0  0  0  0  0  0  0  0  0
   26.5673  -20.3105  -12.6510 N   0  0  0  0  0  0  0  0  0  0  0  0
   24.1370  -20.3369  -12.5683 C   0  0  0  0  0  0  0  0  0  0  0  0
   23.9202  -19.0994  -12.6323 O   0  0  0  0  0  0  0  0  0  0  0  0
   20.5744  -21.1459  -17.2478 C   0  0  0  0  0  0  0  0  0  0  0  0
   20.5510  -20.6018  -15.8202 C   0  0  0  0  0  0  0  0  0  0  0  0
   21.7708  -21.1685  -15.1301 C   0  0  2  0  0  0  0  0  0  0  0  0
   21.5200  -22.6712  -15.0049 C   0  0  0  0  0  0  0  0  0  0  0  0
   21.9570  -20.6373  -13.7328 C   0  0  2  0  0  0  0  0  0  0  0  0
   23.1176  -21.1883  -13.0756 N   0  0  0  0  0  0  0  0  0  0  0  0
   20.7517  -21.0108  -12.9593 C   0  0  0  0  0  0  0  0  0  0  0  0
   20.8125  -21.9213  -12.1270 O   0  0  0  0  0  0  0  0  0  0  0  0
   19.5379  -20.3522  -13.1503 O   0  0  0  0  0  0  0  0  0  0  0  0
  2  1  1  1
  3  2  1  0
  4  2  1  0
  4  5  1  6
  6  4  1  0
  6  7  2  0
  9 10  1  0
  9  8  1  0
 10 12  1  0
 10 11  1  1
 12 13  1  6
 13  6  1  0
 14 12  1  0
 15 14  2  0
 16 17  1  0
 17 18  1  0
 18 19  1  1
 18 20  1  0
 20 21  1  1
 20 22  1  0
 21 14  1  0
 22 24  1  0
 23 22  2  0
M  END
$$$$
