TII.pdb
     RDKit          3D

 24 23  0  0  1  0  0  0  0  0999 V2000
   26.2753  -17.4342  -15.6660 C   0  0  0  0  0  0  0  0  0  0  0  0
   26.7363  -18.2526  -16.8578 C   0  0  1  0  0  0  0  0  0  0  0  0
   27.0957  -17.3795  -17.8614 O   0  0  0  0  0  0  0  0  0  0  0  0
   27.9508  -19.1001  -16.4667 C   0  0  2  0  0  0  0  0  0  0  0  0
   28.2828  -19.8520  -17.6695 N   0  0  0  0  0  0  0  0  0  0  0  0
   27.6376  -20.0137  -15.3449 C   0  0  0  0  0  0  0  0  0  0  0  0
   26.9257  -21.0390  -15.6192 O   0  0  0  0  0  0  0  0  0  0  0  0
   31.2536  -21.3140  -11.6456 C   0  0  0  0  0  0  0  0  0  0  0  0
   30.0916  -21.3311  -12.5807 C   0  0  0  0  0  0  0  0  0  0  0  0
   28.8196  -20.8187  -11.9473 C   0  0  2  0  0  0  0  0  0  0  0  0
   28.4076  -21.6456  -10.7603 C   0  0  0  0  0  0  0  0  0  0  0  0
   27.7087  -20.6539  -12.9480 C   0  0  2  0  0  0  0  0  0  0  0  0
   28.0964  -19.7832  -14.0151 N   0  0  0  0  0  0  0  0  0  0  0  0
   26.4831  -20.1815  -12.2395 C   0  0  0  0  0  0  0  0  0  0  0  0
   26.4518  -19.0180  -11.7621 O   0  0  0  0  0  0  0  0  0  0  0  0
   21.4786  -21.1002  -13.9352 C   0  0  0  0  0  0  0  0  0  0  0  0
   22.6585  -20.3303  -13.3438 C   0  0  0  0  0  0  0  0  0  0  0  0
   22.8644  -20.8753  -11.9489 C   0  0  2  0  0  0  0  0  0  0  0  0
   21.7601  -20.2573  -11.0913 C   0  0  0  0  0  0  0  0  0  0  0  0
   24.1776  -20.4566  -11.3409 C   0  0  2  0  0  0  0  0  0  0  0  0
   25.3165  -20.9742  -12.0601 N   0  0  0  0  0  0  0  0  0  0  0  0
   24.2079  -20.9866   -9.9593 C   0  0  0  0  0  0  0  0  0  0  0  0
   24.6543  -22.1178   -9.7439 O   0  0  0  0  0  0  0  0  0  0  0  0
   23.7398  -20.2310   -8.8852 O   0  0  0  0  0  0  0  0  0  0  0  0
  2  1  1  1
  3  2  1  0
  4  2  1  0
  4  5  1  6
  6  4  1  0
  6  7  2  0
  9 10  1  0
  9  8  1  0
 10 12  1  0
 10 11  1  1
 12 13  1  6
 13  6  1  0
 14 12  1  0
 15 14  2  0
 16 17  1  0
 17 18  1  0
 18 19  1  1
 18 20  1  0
 20 21  1  6
 20 22  1  0
 21 14  1  0
 22 24  1  0
 23 22  2  0
M  END
$$$$
