TII.pdb
     RDKit          3D

 24 23  0  0  1  0  0  0  0  0999 V2000
   16.5903   -7.0085  -16.6085 C   0  0  0  0  0  0  0  0  0  0  0  0
   16.5420   -8.4074  -17.1946 C   0  0  1  0  0  0  0  0  0  0  0  0
   16.2367   -8.2985  -18.5337 O   0  0  0  0  0  0  0  0  0  0  0  0
   17.9089   -9.0815  -17.0413 C   0  0  2  0  0  0  0  0  0  0  0  0
   17.7375  -10.4067  -17.6219 N   0  0  0  0  0  0  0  0  0  0  0  0
   18.3113   -9.1779  -15.6202 C   0  0  0  0  0  0  0  0  0  0  0  0
   17.6770  -10.0204  -14.8982 O   0  0  0  0  0  0  0  0  0  0  0  0
   23.1943   -9.8343  -13.8193 C   0  0  0  0  0  0  0  0  0  0  0  0
   21.7276   -9.7241  -14.0674 C   0  0  0  0  0  0  0  0  0  0  0  0
   21.1060   -8.5232  -13.3942 C   0  0  2  0  0  0  0  0  0  0  0  0
   21.4354   -8.4652  -11.9278 C   0  0  0  0  0  0  0  0  0  0  0  0
   19.6284   -8.4215  -13.6572 C   0  0  2  0  0  0  0  0  0  0  0  0
   19.3525   -8.3813  -15.0605 N   0  0  0  0  0  0  0  0  0  0  0  0
   19.0869   -7.2346  -12.9325 C   0  0  0  0  0  0  0  0  0  0  0  0
   19.5227   -6.0871  -13.2081 O   0  0  0  0  0  0  0  0  0  0  0  0
   14.3926   -4.1150  -11.8298 C   0  0  0  0  0  0  0  0  0  0  0  0
   15.7041   -4.4559  -11.1238 C   0  0  0  0  0  0  0  0  0  0  0  0
   16.2232   -5.7158  -11.7783 C   0  0  2  0  0  0  0  0  0  0  0  0
   15.2610   -6.8291  -11.3642 C   0  0  0  0  0  0  0  0  0  0  0  0
   17.5909   -6.1137  -11.2880 C   0  0  2  0  0  0  0  0  0  0  0  0
   18.0866   -7.3099  -11.9249 N   0  0  0  0  0  0  0  0  0  0  0  0
   17.4781   -6.3625   -9.8333 C   0  0  0  0  0  0  0  0  0  0  0  0
   17.4825   -7.5210   -9.4052 O   0  0  0  0  0  0  0  0  0  0  0  0
   17.3660   -5.3093   -8.9268 O   0  0  0  0  0  0  0  0  0  0  0  0
  2  1  1  6
  3  2  1  0
  4  2  1  0
  4  5  1  1
  6  4  1  0
  6  7  2  0
  9 10  1  0
  9  8  1  0
 10 12  1  0
 10 11  1  1
 12 13  1  6
 13  6  1  0
 14 12  1  0
 15 14  2  0
 16 17  1  0
 17 18  1  0
 18 19  1  1
 18 20  1  0
 20 21  1  6
 20 22  1  0
 21 14  1  0
 22 24  1  0
 23 22  2  0
M  END
$$$$
