TII.pdb
     RDKit          3D

 24 23  0  0  1  0  0  0  0  0999 V2000
   26.7267  -17.5202  -14.7400 C   0  0  0  0  0  0  0  0  0  0  0  0
   27.3524  -18.6132  -15.5865 C   0  0  1  0  0  0  0  0  0  0  0  0
   28.3959  -18.0591  -16.2952 O   0  0  0  0  0  0  0  0  0  0  0  0
   27.8907  -19.7259  -14.6818 C   0  0  2  0  0  0  0  0  0  0  0  0
   28.5738  -20.6423  -15.5852 N   0  0  0  0  0  0  0  0  0  0  0  0
   26.7982  -20.4158  -13.9598 C   0  0  0  0  0  0  0  0  0  0  0  0
   26.3428  -21.4854  -14.4909 O   0  0  0  0  0  0  0  0  0  0  0  0
   26.8029  -20.6361   -8.5981 C   0  0  0  0  0  0  0  0  0  0  0  0
   26.6130  -20.9604  -10.0415 C   0  0  0  0  0  0  0  0  0  0  0  0
   25.2864  -20.4811  -10.5823 C   0  0  2  0  0  0  0  0  0  0  0  0
   24.1241  -21.1177   -9.8709 C   0  0  0  0  0  0  0  0  0  0  0  0
   25.1940  -20.6217  -12.0771 C   0  0  2  0  0  0  0  0  0  0  0  0
   26.2634  -19.9313  -12.7304 N   0  0  0  0  0  0  0  0  0  0  0  0
   23.8503  -20.1531  -12.5266 C   0  0  0  0  0  0  0  0  0  0  0  0
   23.4995  -18.9661  -12.3013 O   0  0  0  0  0  0  0  0  0  0  0  0
   20.7364  -19.7196  -17.4010 C   0  0  0  0  0  0  0  0  0  0  0  0
   20.4730  -19.8523  -15.9018 C   0  0  0  0  0  0  0  0  0  0  0  0
   21.7525  -20.3764  -15.2910 C   0  0  2  0  0  0  0  0  0  0  0  0
   21.8780  -21.8253  -15.7620 C   0  0  0  0  0  0  0  0  0  0  0  0
   21.7171  -20.4066  -13.7852 C   0  0  2  0  0  0  0  0  0  0  0  0
   22.9122  -20.9747  -13.2095 N   0  0  0  0  0  0  0  0  0  0  0  0
   20.5587  -21.2399  -13.3922 C   0  0  0  0  0  0  0  0  0  0  0  0
   19.4110  -20.8128  -13.5525 O   0  0  0  0  0  0  0  0  0  0  0  0
   20.7351  -22.5079  -12.8402 O   0  0  0  0  0  0  0  0  0  0  0  0
  2  1  1  1
  3  2  1  0
  4  2  1  0
  4  5  1  6
  6  4  1  0
  6  7  2  0
  9 10  1  0
  9  8  1  0
 10 12  1  0
 10 11  1  1
 12 13  1  6
 13  6  1  0
 14 12  1  0
 15 14  2  0
 16 17  1  0
 17 18  1  0
 18 19  1  6
 18 20  1  0
 20 21  1  6
 20 22  1  0
 21 14  1  0
 22 24  1  0
 23 22  2  0
M  END
$$$$
