TII.pdb
     RDKit          3D

 24 23  0  0  1  0  0  0  0  0999 V2000
   20.3506  -10.8629  -21.9172 C   0  0  0  0  0  0  0  0  0  0  0  0
   20.4597  -10.3620  -20.4890 C   0  0  1  0  0  0  0  0  0  0  0  0
   19.3136   -9.6557  -20.1959 O   0  0  0  0  0  0  0  0  0  0  0  0
   20.5799  -11.5504  -19.5301 C   0  0  2  0  0  0  0  0  0  0  0  0
   19.2960  -12.2330  -19.6209 N   0  0  0  0  0  0  0  0  0  0  0  0
   20.8422  -11.1055  -18.1430 C   0  0  0  0  0  0  0  0  0  0  0  0
   19.8277  -10.9872  -17.3749 O   0  0  0  0  0  0  0  0  0  0  0  0
   24.2805  -13.5683  -15.1390 C   0  0  0  0  0  0  0  0  0  0  0  0
   23.1655  -12.7432  -15.6876 C   0  0  0  0  0  0  0  0  0  0  0  0
   23.4694  -11.2635  -15.6784 C   0  0  2  0  0  0  0  0  0  0  0  0
   23.8472  -10.7738  -14.3073 C   0  0  0  0  0  0  0  0  0  0  0  0
   22.3663  -10.4494  -16.2972 C   0  0  2  0  0  0  0  0  0  0  0  0
   22.1533  -10.8174  -17.6633 N   0  0  0  0  0  0  0  0  0  0  0  0
   22.6841   -9.0000  -16.1371 C   0  0  0  0  0  0  0  0  0  0  0  0
   23.7118   -8.5256  -16.6861 O   0  0  0  0  0  0  0  0  0  0  0  0
   20.7238   -3.6509  -17.0636 C   0  0  0  0  0  0  0  0  0  0  0  0
   21.6407   -4.3589  -16.0673 C   0  0  0  0  0  0  0  0  0  0  0  0
   21.3304   -5.8342  -16.1794 C   0  0  2  0  0  0  0  0  0  0  0  0
   19.9093   -6.0046  -15.6427 C   0  0  0  0  0  0  0  0  0  0  0  0
   22.2274   -6.6913  -15.3248 C   0  0  2  0  0  0  0  0  0  0  0  0
   21.8869   -8.0922  -15.3876 N   0  0  0  0  0  0  0  0  0  0  0  0
   22.0729   -6.2276  -13.9277 C   0  0  0  0  0  0  0  0  0  0  0  0
   21.3707   -6.8697  -13.1405 O   0  0  0  0  0  0  0  0  0  0  0  0
   22.7080   -5.0717  -13.4758 O   0  0  0  0  0  0  0  0  0  0  0  0
  2  1  1  6
  3  2  1  0
  4  2  1  0
  4  5  1  1
  6  4  1  0
  6  7  2  0
  9 10  1  0
  9  8  1  0
 10 12  1  0
 10 11  1  1
 12 13  1  6
 13  6  1  0
 14 12  1  0
 15 14  2  0
 16 17  1  0
 17 18  1  0
 18 19  1  1
 18 20  1  0
 20 21  1  1
 20 22  1  0
 21 14  1  0
 22 24  1  0
 23 22  2  0
M  END
$$$$
