TII.pdb
     RDKit          3D

 24 23  0  0  1  0  0  0  0  0999 V2000
   21.4217   -8.4296  -20.5097 C   0  0  0  0  0  0  0  0  0  0  0  0
   20.4211   -9.5611  -20.6546 C   0  0  1  0  0  0  0  0  0  0  0  0
   20.3342   -9.8851  -21.9910 O   0  0  0  0  0  0  0  0  0  0  0  0
   20.9036  -10.7841  -19.8686 C   0  0  2  0  0  0  0  0  0  0  0  0
   19.9127  -11.8166  -20.1417 N   0  0  0  0  0  0  0  0  0  0  0  0
   20.9827  -10.5015  -18.4179 C   0  0  0  0  0  0  0  0  0  0  0  0
   19.8753  -10.3276  -17.8041 O   0  0  0  0  0  0  0  0  0  0  0  0
   24.0412  -13.2172  -15.1043 C   0  0  0  0  0  0  0  0  0  0  0  0
   22.9789  -12.3715  -15.7217 C   0  0  0  0  0  0  0  0  0  0  0  0
   23.2434  -10.8919  -15.5705 C   0  0  2  0  0  0  0  0  0  0  0  0
   23.3511  -10.4828  -14.1271 C   0  0  0  0  0  0  0  0  0  0  0  0
   22.2557  -10.0536  -16.3348 C   0  0  2  0  0  0  0  0  0  0  0  0
   22.2214  -10.4225  -17.7167 N   0  0  0  0  0  0  0  0  0  0  0  0
   22.5852   -8.6118  -16.1346 C   0  0  0  0  0  0  0  0  0  0  0  0
   23.7086   -8.1759  -16.4961 O   0  0  0  0  0  0  0  0  0  0  0  0
   19.9630   -4.4746  -17.9326 C   0  0  0  0  0  0  0  0  0  0  0  0
   21.0599   -5.4380  -17.4815 C   0  0  0  0  0  0  0  0  0  0  0  0
   21.1392   -5.3159  -15.9769 C   0  0  2  0  0  0  0  0  0  0  0  0
   21.6917   -3.9179  -15.6993 C   0  0  0  0  0  0  0  0  0  0  0  0
   22.0988   -6.2975  -15.3561 C   0  0  2  0  0  0  0  0  0  0  0  0
   21.6962   -7.6699  -15.5481 N   0  0  0  0  0  0  0  0  0  0  0  0
   22.1365   -6.0128  -13.9042 C   0  0  0  0  0  0  0  0  0  0  0  0
   21.3535   -6.5904  -13.1434 O   0  0  0  0  0  0  0  0  0  0  0  0
   23.0441   -5.0991  -13.3705 O   0  0  0  0  0  0  0  0  0  0  0  0
  2  1  1  6
  3  2  1  0
  4  2  1  0
  4  5  1  1
  6  4  1  0
  6  7  2  0
  9 10  1  0
  9  8  1  0
 10 12  1  0
 10 11  1  1
 12 13  1  6
 13  6  1  0
 14 12  1  0
 15 14  2  0
 16 17  1  0
 17 18  1  0
 18 19  1  6
 18 20  1  0
 20 21  1  1
 20 22  1  0
 21 14  1  0
 22 24  1  0
 23 22  2  0
M  END
$$$$
