TII.pdb
     RDKit          3D

 24 23  0  0  1  0  0  0  0  0999 V2000
   18.5687  -10.8240  -19.8835 C   0  0  0  0  0  0  0  0  0  0  0  0
   18.0548  -12.2231  -19.5988 C   0  0  1  0  0  0  0  0  0  0  0  0
   17.6046  -12.7616  -20.7844 O   0  0  0  0  0  0  0  0  0  0  0  0
   19.1908  -13.0911  -19.0488 C   0  0  2  0  0  0  0  0  0  0  0  0
   18.5859  -14.3974  -18.8247 N   0  0  0  0  0  0  0  0  0  0  0  0
   19.7345  -12.5397  -17.7874 C   0  0  0  0  0  0  0  0  0  0  0  0
   18.9933  -12.6354  -16.7507 O   0  0  0  0  0  0  0  0  0  0  0  0
   24.4242  -13.5988  -15.8148 C   0  0  0  0  0  0  0  0  0  0  0  0
   23.0085  -13.1797  -16.0274 C   0  0  0  0  0  0  0  0  0  0  0  0
   22.8491  -11.6816  -16.1377 C   0  0  2  0  0  0  0  0  0  0  0  0
   23.3498  -10.9692  -14.9112 C   0  0  0  0  0  0  0  0  0  0  0  0
   21.4461  -11.2814  -16.5039 C   0  0  2  0  0  0  0  0  0  0  0  0
   21.0193  -11.9275  -17.7070 N   0  0  0  0  0  0  0  0  0  0  0  0
   21.3739   -9.7936  -16.5958 C   0  0  0  0  0  0  0  0  0  0  0  0
   22.0589   -9.1914  -17.4624 O   0  0  0  0  0  0  0  0  0  0  0  0
   17.6002   -6.9996  -18.3061 C   0  0  0  0  0  0  0  0  0  0  0  0
   18.9783   -7.5263  -17.9083 C   0  0  0  0  0  0  0  0  0  0  0  0
   19.2117   -7.0715  -16.4857 C   0  0  2  0  0  0  0  0  0  0  0  0
   19.2856   -5.5456  -16.5412 C   0  0  0  0  0  0  0  0  0  0  0  0
   20.5226   -7.5534  -15.9209 C   0  0  2  0  0  0  0  0  0  0  0  0
   20.5647   -8.9858  -15.7508 N   0  0  0  0  0  0  0  0  0  0  0  0
   20.6894   -6.9133  -14.5968 C   0  0  0  0  0  0  0  0  0  0  0  0
   20.3382   -7.5120  -13.5753 O   0  0  0  0  0  0  0  0  0  0  0  0
   21.2391   -5.6379  -14.4751 O   0  0  0  0  0  0  0  0  0  0  0  0
  2  1  1  6
  3  2  1  0
  4  2  1  0
  4  5  1  1
  6  4  1  0
  6  7  2  0
  9 10  1  0
  9  8  1  0
 10 12  1  0
 10 11  1  1
 12 13  1  6
 13  6  1  0
 14 12  1  0
 15 14  2  0
 16 17  1  0
 17 18  1  0
 18 19  1  6
 18 20  1  0
 20 21  1  1
 20 22  1  0
 21 14  1  0
 22 24  1  0
 23 22  2  0
M  END
$$$$
