TII.pdb
     RDKit          3D

 24 23  0  0  1  0  0  0  0  0999 V2000
   20.0810  -13.9265  -18.6001 C   0  0  0  0  0  0  0  0  0  0  0  0
   19.7700  -15.1850  -17.8114 C   0  0  1  0  0  0  0  0  0  0  0  0
   19.2732  -16.1254  -18.6872 O   0  0  0  0  0  0  0  0  0  0  0  0
   21.0508  -15.7226  -17.1659 C   0  0  2  0  0  0  0  0  0  0  0  0
   20.6297  -16.9123  -16.4380 N   0  0  0  0  0  0  0  0  0  0  0  0
   21.6549  -14.7307  -16.2482 C   0  0  0  0  0  0  0  0  0  0  0  0
   20.9960  -14.4499  -15.1897 O   0  0  0  0  0  0  0  0  0  0  0  0
   26.9451  -14.4905  -15.2054 C   0  0  0  0  0  0  0  0  0  0  0  0
   25.4574  -14.4164  -15.1269 C   0  0  0  0  0  0  0  0  0  0  0  0
   24.9093  -13.0889  -15.5952 C   0  0  2  0  0  0  0  0  0  0  0  0
   25.4667  -11.9376  -14.8037 C   0  0  0  0  0  0  0  0  0  0  0  0
   23.4061  -13.0775  -15.6478 C   0  0  2  0  0  0  0  0  0  0  0  0
   22.9091  -14.1057  -16.5097 N   0  0  0  0  0  0  0  0  0  0  0  0
   22.9447  -11.7174  -16.0533 C   0  0  0  0  0  0  0  0  0  0  0  0
   23.3050  -11.2447  -17.1621 O   0  0  0  0  0  0  0  0  0  0  0  0
   18.2549   -8.2543  -16.7009 C   0  0  0  0  0  0  0  0  0  0  0  0
   19.7435   -8.1342  -16.3779 C   0  0  0  0  0  0  0  0  0  0  0  0
   20.1996   -9.5137  -15.9605 C   0  0  2  0  0  0  0  0  0  0  0  0
   19.5179   -9.7919  -14.6209 C   0  0  0  0  0  0  0  0  0  0  0  0
   21.6848   -9.5957  -15.7218 C   0  0  2  0  0  0  0  0  0  0  0  0
   22.1046  -10.8947  -15.2540 N   0  0  0  0  0  0  0  0  0  0  0  0
   22.0174   -8.5891  -14.6889 C   0  0  0  0  0  0  0  0  0  0  0  0
   22.0201   -7.3885  -14.9782 O   0  0  0  0  0  0  0  0  0  0  0  0
   22.3307   -8.9688  -13.3845 O   0  0  0  0  0  0  0  0  0  0  0  0
  2  1  1  6
  3  2  1  0
  4  2  1  0
  4  5  1  1
  6  4  1  0
  6  7  2  0
  9 10  1  0
  9  8  1  0
 10 12  1  0
 10 11  1  1
 12 13  1  6
 13  6  1  0
 14 12  1  0
 15 14  2  0
 16 17  1  0
 17 18  1  0
 18 19  1  1
 18 20  1  0
 20 21  1  1
 20 22  1  0
 21 14  1  0
 22 24  1  0
 23 22  2  0
M  END
$$$$
