TII.pdb
     RDKit          3D

 24 23  0  0  1  0  0  0  0  0999 V2000
   12.4615  -10.6570  -12.4493 C   0  0  0  0  0  0  0  0  0  0  0  0
   12.8755  -12.1052  -12.6340 C   0  0  1  0  0  0  0  0  0  0  0  0
   11.9313  -12.7209  -13.4264 O   0  0  0  0  0  0  0  0  0  0  0  0
   14.2388  -12.1704  -13.3293 C   0  0  2  0  0  0  0  0  0  0  0  0
   14.5681  -13.5890  -13.3703 N   0  0  0  0  0  0  0  0  0  0  0  0
   15.2673  -11.4131  -12.5813 C   0  0  0  0  0  0  0  0  0  0  0  0
   15.7680  -11.9836  -11.5531 O   0  0  0  0  0  0  0  0  0  0  0  0
   19.7019   -9.5255  -14.4206 C   0  0  0  0  0  0  0  0  0  0  0  0
   18.5131   -9.9969  -13.6529 C   0  0  0  0  0  0  0  0  0  0  0  0
   17.7802   -8.8745  -12.9564 C   0  0  2  0  0  0  0  0  0  0  0  0
   18.7088   -8.0104  -12.1482 C   0  0  0  0  0  0  0  0  0  0  0  0
   16.6082   -9.3687  -12.1535 C   0  0  2  0  0  0  0  0  0  0  0  0
   15.6958  -10.1100  -12.9691 N   0  0  0  0  0  0  0  0  0  0  0  0
   15.9587   -8.2076  -11.4772 C   0  0  0  0  0  0  0  0  0  0  0  0
   15.3913   -7.3239  -12.1698 O   0  0  0  0  0  0  0  0  0  0  0  0
   12.4339   -8.5837   -7.5056 C   0  0  0  0  0  0  0  0  0  0  0  0
   13.1412   -8.1294   -8.7816 C   0  0  0  0  0  0  0  0  0  0  0  0
   14.3387   -7.3205   -8.3379 C   0  0  2  0  0  0  0  0  0  0  0  0
   13.7740   -6.0363   -7.7305 C   0  0  0  0  0  0  0  0  0  0  0  0
   15.2287   -6.9098   -9.4819 C   0  0  2  0  0  0  0  0  0  0  0  0
   15.9353   -8.0233  -10.0676 N   0  0  0  0  0  0  0  0  0  0  0  0
   16.2184   -5.9505   -8.9426 C   0  0  0  0  0  0  0  0  0  0  0  0
   15.9062   -4.7654   -8.7891 O   0  0  0  0  0  0  0  0  0  0  0  0
   17.5071   -6.3577   -8.6006 O   0  0  0  0  0  0  0  0  0  0  0  0
  2  1  1  6
  3  2  1  0
  4  2  1  0
  4  5  1  1
  6  4  1  0
  6  7  2  0
  9 10  1  0
  9  8  1  0
 10 12  1  0
 10 11  1  1
 12 13  1  6
 13  6  1  0
 14 12  1  0
 15 14  2  0
 16 17  1  0
 17 18  1  0
 18 19  1  6
 18 20  1  0
 20 21  1  1
 20 22  1  0
 21 14  1  0
 22 24  1  0
 23 22  2  0
M  END
$$$$
