LLH.pdb
     RDKit          3D

 27 27  0  0  1  0  0  0  0  0999 V2000
   26.9447  -17.2146  -17.8336 C   0  0  0  0  0  0  0  0  0  0  0  0
   27.5463  -18.2293  -16.8665 C   0  0  1  0  0  0  0  0  0  0  0  0
   28.4435  -17.5450  -15.8725 C   0  0  0  0  0  0  0  0  0  0  0  0
   26.4031  -18.8777  -16.1436 C   0  0  0  0  0  0  0  0  0  0  0  0
   26.9721  -19.8975  -15.1789 C   0  0  2  0  0  0  0  0  0  0  0  0
   27.7627  -20.8915  -15.8168 N   0  0  0  0  0  0  0  0  0  0  0  0
   25.8475  -20.4966  -14.4499 C   0  0  0  0  0  0  0  0  0  0  0  0
   25.2022  -21.4239  -15.0095 O   0  0  0  0  0  0  0  0  0  0  0  0
   26.1562  -20.4771   -8.9824 C   0  0  0  0  0  0  0  0  0  0  0  0
   25.9834  -20.8244  -10.4494 C   0  0  1  0  0  0  0  0  0  0  0  0
   26.1116  -22.3458  -10.5641 C   0  0  0  0  0  0  0  0  0  0  0  0
   24.6192  -20.4008  -10.9517 C   0  0  0  0  0  0  0  0  0  0  0  0
   24.4314  -20.6464  -12.3984 C   0  0  2  0  0  0  0  0  0  0  0  0
   25.5082  -20.0371  -13.1569 N   0  0  0  0  0  0  0  0  0  0  0  0
   23.1558  -20.1970  -12.9668 C   0  0  0  0  0  0  0  0  0  0  0  0
   23.0849  -19.0032  -13.3643 O   0  0  0  0  0  0  0  0  0  0  0  0
   22.0058  -20.9840  -13.1059 N   0  0  0  0  0  0  0  0  0  0  0  0
   20.9568  -20.5518  -13.9973 C   0  0  1  0  0  0  0  0  0  0  0  0
   21.5605  -20.4943  -15.3817 C   0  0  0  0  0  0  0  0  0  0  0  0
   20.5677  -20.1169  -16.4147 C   0  0  0  0  0  0  0  0  0  0  0  0
   19.2400  -19.8596  -16.1586 C   0  0  0  0  0  0  0  0  0  0  0  0
   18.6596  -19.5571  -17.3326 N   0  0  0  0  0  0  0  0  0  0  0  0
   19.6070  -19.6234  -18.3084 C   0  0  0  0  0  0  0  0  0  0  0  0
   20.7837  -19.9667  -17.7556 N   0  0  0  0  0  0  0  0  0  0  0  0
   19.7745  -21.4101  -13.8901 C   0  0  0  0  0  0  0  0  0  0  0  0
   18.7076  -21.0812  -14.4694 O   0  0  0  0  0  0  0  0  0  0  0  0
   19.7820  -22.5879  -13.1665 O   0  0  0  0  0  0  0  0  0  0  0  0
  2  4  1  0
  2  1  1  6
  3  2  1  0
  5  4  1  0
  5  6  1  6
  7  8  2  0
  7  5  1  0
 10  9  1  1
 10 12  1  0
 11 10  1  0
 13 12  1  1
 13 14  1  0
 14  7  1  0
 15 13  1  0
 15 17  1  0
 16 15  2  0
 18 17  1  0
 18 25  1  0
 18 19  1  6
 19 20  1  0
 20 21  2  0
 21 22  1  0
 23 22  1  0
 24 20  1  0
 24 23  2  0
 25 27  1  0
 26 25  2  0
M  END
$$$$
