LLH.pdb
     RDKit          3D

 27 27  0  0  1  0  0  0  0  0999 V2000
   26.2589  -32.1681   -8.5299 C   0  0  0  0  0  0  0  0  0  0  0  0
   26.0759  -32.5230   -7.0577 C   0  0  1  0  0  0  0  0  0  0  0  0
   24.7747  -33.2463   -6.8459 C   0  0  0  0  0  0  0  0  0  0  0  0
   27.2148  -33.4226   -6.6783 C   0  0  0  0  0  0  0  0  0  0  0  0
   27.1055  -33.7237   -5.1979 C   0  0  2  0  0  0  0  0  0  0  0  0
   26.9916  -32.5560   -4.3958 N   0  0  0  0  0  0  0  0  0  0  0  0
   28.2788  -34.5200   -4.8178 C   0  0  0  0  0  0  0  0  0  0  0  0
   28.4155  -35.6618   -5.3345 O   0  0  0  0  0  0  0  0  0  0  0  0
   33.6248  -34.2005   -5.3840 C   0  0  0  0  0  0  0  0  0  0  0  0
   32.6105  -35.0043   -4.5918 C   0  0  1  0  0  0  0  0  0  0  0  0
   33.3943  -35.8017   -3.5458 C   0  0  0  0  0  0  0  0  0  0  0  0
   31.6252  -34.0948   -3.8885 C   0  0  0  0  0  0  0  0  0  0  0  0
   30.3784  -34.7856   -3.4923 C   0  0  2  0  0  0  0  0  0  0  0  0
   29.2215  -34.0087   -3.8970 N   0  0  0  0  0  0  0  0  0  0  0  0
   30.2444  -35.1031   -2.0662 C   0  0  0  0  0  0  0  0  0  0  0  0
   29.6172  -34.2822   -1.3444 O   0  0  0  0  0  0  0  0  0  0  0  0
   30.7556  -36.2446   -1.4362 N   0  0  0  0  0  0  0  0  0  0  0  0
   30.5052  -36.4479   -0.0300 C   0  0  1  0  0  0  0  0  0  0  0  0
   29.0063  -36.3920    0.1561 C   0  0  0  0  0  0  0  0  0  0  0  0
   28.5978  -36.7137    1.5434 C   0  0  0  0  0  0  0  0  0  0  0  0
   29.3602  -36.4496    2.6586 C   0  0  0  0  0  0  0  0  0  0  0  0
   28.6676  -36.8829    3.7260 N   0  0  0  0  0  0  0  0  0  0  0  0
   27.4908  -37.4098    3.2878 C   0  0  0  0  0  0  0  0  0  0  0  0
   27.4372  -37.3111    1.9479 N   0  0  0  0  0  0  0  0  0  0  0  0
   31.1270  -37.6835    0.4523 C   0  0  0  0  0  0  0  0  0  0  0  0
   31.7619  -38.4182   -0.3472 O   0  0  0  0  0  0  0  0  0  0  0  0
   31.0443  -38.0834    1.7730 O   0  0  0  0  0  0  0  0  0  0  0  0
  2  4  1  0
  2  1  1  6
  3  2  1  0
  5  4  1  0
  5  6  1  1
  7  8  2  0
  7  5  1  0
 10  9  1  1
 10 12  1  0
 11 10  1  0
 13 12  1  1
 13 14  1  0
 14  7  1  0
 15 13  1  0
 15 17  1  0
 16 15  2  0
 18 17  1  0
 18 25  1  0
 18 19  1  6
 19 20  1  0
 20 21  2  0
 21 22  1  0
 23 22  1  0
 24 20  1  0
 24 23  2  0
 25 27  1  0
 26 25  2  0
M  END
$$$$
