LLH.pdb
     RDKit          3D

 27 27  0  0  1  0  0  0  0  0999 V2000
   15.7818  -12.4045  -19.7961 C   0  0  0  0  0  0  0  0  0  0  0  0
   16.7284  -13.2485  -18.9485 C   0  0  1  0  0  0  0  0  0  0  0  0
   17.7410  -13.9415  -19.8177 C   0  0  0  0  0  0  0  0  0  0  0  0
   17.4321  -12.3116  -18.0119 C   0  0  0  0  0  0  0  0  0  0  0  0
   18.3564  -13.1287  -17.1331 C   0  0  2  0  0  0  0  0  0  0  0  0
   17.6743  -14.1063  -16.3593 N   0  0  0  0  0  0  0  0  0  0  0  0
   19.0991  -12.1944  -16.2783 C   0  0  0  0  0  0  0  0  0  0  0  0
   18.5293  -11.7531  -15.2439 O   0  0  0  0  0  0  0  0  0  0  0  0
   23.0180  -10.1269  -13.5515 C   0  0  0  0  0  0  0  0  0  0  0  0
   23.4010  -10.1469  -15.0197 C   0  0  1  0  0  0  0  0  0  0  0  0
   24.8784  -10.5425  -15.0885 C   0  0  0  0  0  0  0  0  0  0  0  0
   22.5777  -11.1630  -15.7829 C   0  0  0  0  0  0  0  0  0  0  0  0
   21.1386  -10.8236  -15.8337 C   0  0  2  0  0  0  0  0  0  0  0  0
   20.4160  -11.8084  -16.6173 N   0  0  0  0  0  0  0  0  0  0  0  0
   20.8100   -9.4911  -16.3521 C   0  0  0  0  0  0  0  0  0  0  0  0
   20.7670   -9.3486  -17.6035 O   0  0  0  0  0  0  0  0  0  0  0  0
   20.5391   -8.3598  -15.5724 N   0  0  0  0  0  0  0  0  0  0  0  0
   20.1711   -7.1251  -16.2219 C   0  0  1  0  0  0  0  0  0  0  0  0
   18.6685   -7.1511  -16.3830 C   0  0  0  0  0  0  0  0  0  0  0  0
   18.2529   -7.6362  -17.7198 C   0  0  0  0  0  0  0  0  0  0  0  0
   17.4190   -8.7107  -17.9314 C   0  0  0  0  0  0  0  0  0  0  0  0
   17.2765   -8.8481  -19.2610 N   0  0  0  0  0  0  0  0  0  0  0  0
   18.0085   -7.8763  -19.8728 C   0  0  0  0  0  0  0  0  0  0  0  0
   18.6128   -7.1256  -18.9352 N   0  0  0  0  0  0  0  0  0  0  0  0
   20.6791   -5.9621  -15.4902 C   0  0  0  0  0  0  0  0  0  0  0  0
   21.3367   -6.1274  -14.4308 O   0  0  0  0  0  0  0  0  0  0  0  0
   20.4628   -4.6672  -15.9229 O   0  0  0  0  0  0  0  0  0  0  0  0
  2  4  1  0
  2  1  1  6
  3  2  1  0
  5  4  1  0
  5  6  1  1
  7  8  2  0
  7  5  1  0
 10  9  1  1
 10 12  1  0
 11 10  1  0
 13 12  1  6
 13 14  1  0
 14  7  1  0
 15 13  1  0
 15 17  1  0
 16 15  2  0
 18 17  1  0
 18 25  1  0
 18 19  1  1
 19 20  1  0
 20 21  2  0
 21 22  1  0
 23 22  1  0
 24 20  1  0
 24 23  2  0
 25 27  1  0
 26 25  2  0
M  END
$$$$
