LLH.pdb
     RDKit          3D

 27 27  0  0  1  0  0  0  0  0999 V2000
   29.1642  -19.1917  -19.0737 C   0  0  0  0  0  0  0  0  0  0  0  0
   28.2406  -18.3684  -18.1816 C   0  0  1  0  0  0  0  0  0  0  0  0
   27.3857  -17.4499  -19.0102 C   0  0  0  0  0  0  0  0  0  0  0  0
   27.3640  -19.3372  -17.4448 C   0  0  0  0  0  0  0  0  0  0  0  0
   26.3804  -18.5434  -16.6101 C   0  0  2  0  0  0  0  0  0  0  0  0
   26.9859  -17.4717  -15.8997 N   0  0  0  0  0  0  0  0  0  0  0  0
   25.7138  -19.4799  -15.6971 C   0  0  0  0  0  0  0  0  0  0  0  0
   25.1381  -20.4860  -16.1929 O   0  0  0  0  0  0  0  0  0  0  0  0
   25.5289  -22.4454  -11.2777 C   0  0  0  0  0  0  0  0  0  0  0  0
   25.1054  -21.0102  -11.0259 C   0  0  1  0  0  0  0  0  0  0  0  0
   25.6083  -20.6368   -9.6288 C   0  0  0  0  0  0  0  0  0  0  0  0
   25.7227  -20.0743  -12.0436 C   0  0  0  0  0  0  0  0  0  0  0  0
   25.0946  -20.1737  -13.3795 C   0  0  2  0  0  0  0  0  0  0  0  0
   25.7248  -19.2483  -14.3027 N   0  0  0  0  0  0  0  0  0  0  0  0
   23.6446  -19.9555  -13.4262 C   0  0  0  0  0  0  0  0  0  0  0  0
   23.2067  -18.8615  -12.9795 O   0  0  0  0  0  0  0  0  0  0  0  0
   22.7020  -20.8624  -13.9266 N   0  0  0  0  0  0  0  0  0  0  0  0
   21.3016  -20.5165  -13.8941 C   0  0  1  0  0  0  0  0  0  0  0  0
   20.7128  -20.9678  -15.2109 C   0  0  0  0  0  0  0  0  0  0  0  0
   20.8614  -19.9471  -16.2745 C   0  0  0  0  0  0  0  0  0  0  0  0
   21.3331  -18.6709  -16.0658 C   0  0  0  0  0  0  0  0  0  0  0  0
   21.3209  -18.0429  -17.2542 N   0  0  0  0  0  0  0  0  0  0  0  0
   20.8497  -18.9102  -18.1922 C   0  0  0  0  0  0  0  0  0  0  0  0
   20.5641  -20.0838  -17.6013 N   0  0  0  0  0  0  0  0  0  0  0  0
   20.6384  -21.0758  -12.7137 C   0  0  0  0  0  0  0  0  0  0  0  0
   19.4540  -20.7472  -12.4466 O   0  0  0  0  0  0  0  0  0  0  0  0
   21.2704  -21.9660  -11.8658 O   0  0  0  0  0  0  0  0  0  0  0  0
  2  4  1  0
  2  1  1  6
  3  2  1  0
  5  4  1  0
  5  6  1  1
  7  8  2  0
  7  5  1  0
 10  9  1  6
 10 12  1  0
 11 10  1  0
 13 12  1  1
 13 14  1  0
 14  7  1  0
 15 13  1  0
 15 17  1  0
 16 15  2  0
 18 17  1  0
 18 25  1  0
 18 19  1  6
 19 20  1  0
 20 21  2  0
 21 22  1  0
 23 22  1  0
 24 20  1  0
 24 23  2  0
 25 27  1  0
 26 25  2  0
M  END
$$$$
