LLH.pdb
     RDKit          3D

 27 27  0  0  1  0  0  0  0  0999 V2000
   32.4723  -29.4760  -18.5606 C   0  0  0  0  0  0  0  0  0  0  0  0
   31.0065  -29.5907  -18.9673 C   0  0  1  0  0  0  0  0  0  0  0  0
   30.8798  -30.2727  -20.3014 C   0  0  0  0  0  0  0  0  0  0  0  0
   30.3232  -30.4160  -17.9176 C   0  0  0  0  0  0  0  0  0  0  0  0
   28.8377  -30.4201  -18.2133 C   0  0  2  0  0  0  0  0  0  0  0  0
   28.2563  -29.1237  -18.1789 N   0  0  0  0  0  0  0  0  0  0  0  0
   28.1941  -31.3194  -17.2478 C   0  0  0  0  0  0  0  0  0  0  0  0
   28.9079  -32.1867  -16.6753 O   0  0  0  0  0  0  0  0  0  0  0  0
   24.8728  -32.5891  -13.3144 C   0  0  0  0  0  0  0  0  0  0  0  0
   24.1265  -32.4246  -14.6253 C   0  0  1  0  0  0  0  0  0  0  0  0
   22.7754  -31.7868  -14.2908 C   0  0  0  0  0  0  0  0  0  0  0  0
   24.8839  -31.5179  -15.5724 C   0  0  0  0  0  0  0  0  0  0  0  0
   26.1439  -32.1162  -16.0655 C   0  0  2  0  0  0  0  0  0  0  0  0
   26.8114  -31.2053  -16.9768 N   0  0  0  0  0  0  0  0  0  0  0  0
   26.0212  -33.4207  -16.7255 C   0  0  0  0  0  0  0  0  0  0  0  0
   26.1578  -33.4536  -17.9779 O   0  0  0  0  0  0  0  0  0  0  0  0
   25.7643  -34.6369  -16.0805 N   0  0  0  0  0  0  0  0  0  0  0  0
   25.6988  -35.8500  -16.8589 C   0  0  1  0  0  0  0  0  0  0  0  0
   27.0351  -35.9942  -17.5503 C   0  0  0  0  0  0  0  0  0  0  0  0
   27.1682  -37.2903  -18.2556 C   0  0  0  0  0  0  0  0  0  0  0  0
   26.1622  -38.2237  -18.3617 C   0  0  0  0  0  0  0  0  0  0  0  0
   26.6537  -39.2608  -19.0615 N   0  0  0  0  0  0  0  0  0  0  0  0
   27.9459  -38.9826  -19.3888 C   0  0  0  0  0  0  0  0  0  0  0  0
   28.2728  -37.7740  -18.8985 N   0  0  0  0  0  0  0  0  0  0  0  0
   25.3209  -36.9983  -16.0316 C   0  0  0  0  0  0  0  0  0  0  0  0
   24.6433  -37.9332  -16.5303 O   0  0  0  0  0  0  0  0  0  0  0  0
   25.6845  -37.1000  -14.7018 O   0  0  0  0  0  0  0  0  0  0  0  0
  2  4  1  0
  2  1  1  1
  3  2  1  0
  5  4  1  0
  5  6  1  1
  7  8  2  0
  7  5  1  0
 10  9  1  1
 10 12  1  0
 11 10  1  0
 13 12  1  6
 13 14  1  0
 14  7  1  0
 15 13  1  0
 15 17  1  0
 16 15  2  0
 18 17  1  0
 18 25  1  0
 18 19  1  1
 19 20  1  0
 20 21  2  0
 21 22  1  0
 23 22  1  0
 24 20  1  0
 24 23  2  0
 25 27  1  0
 26 25  2  0
M  END
$$$$
