LLH.pdb
     RDKit          3D

 27 27  0  0  1  0  0  0  0  0999 V2000
   17.9786  -11.1400  -20.6037 C   0  0  0  0  0  0  0  0  0  0  0  0
   18.8937  -11.8707  -19.6263 C   0  0  1  0  0  0  0  0  0  0  0  0
   20.1233  -12.3754  -20.3295 C   0  0  0  0  0  0  0  0  0  0  0  0
   19.2920  -10.8793  -18.5734 C   0  0  0  0  0  0  0  0  0  0  0  0
   20.2306  -11.5699  -17.6056 C   0  0  2  0  0  0  0  0  0  0  0  0
   19.6114  -12.6241  -16.8810 N   0  0  0  0  0  0  0  0  0  0  0  0
   20.7706  -10.5465  -16.7023 C   0  0  0  0  0  0  0  0  0  0  0  0
   20.1041  -10.2489  -15.6743 O   0  0  0  0  0  0  0  0  0  0  0  0
   25.9371  -10.4407  -15.2283 C   0  0  0  0  0  0  0  0  0  0  0  0
   24.4309  -10.2577  -15.2032 C   0  0  1  0  0  0  0  0  0  0  0  0
   24.0322  -10.0533  -13.7391 C   0  0  0  0  0  0  0  0  0  0  0  0
   24.0171   -9.0423  -16.0059 C   0  0  0  0  0  0  0  0  0  0  0  0
   22.5496   -8.8938  -16.1192 C   0  0  2  0  0  0  0  0  0  0  0  0
   22.0049   -9.9199  -16.9888 N   0  0  0  0  0  0  0  0  0  0  0  0
   22.0695   -7.5894  -16.5888 C   0  0  0  0  0  0  0  0  0  0  0  0
   22.2014   -7.3284  -17.8147 O   0  0  0  0  0  0  0  0  0  0  0  0
   21.4751   -6.6059  -15.7884 N   0  0  0  0  0  0  0  0  0  0  0  0
   21.0675   -5.3581  -16.3873 C   0  0  1  0  0  0  0  0  0  0  0  0
   19.5831   -5.2217  -16.1374 C   0  0  0  0  0  0  0  0  0  0  0  0
   18.7739   -5.9848  -17.1162 C   0  0  0  0  0  0  0  0  0  0  0  0
   19.2997   -6.7073  -18.1632 C   0  0  0  0  0  0  0  0  0  0  0  0
   18.2669   -7.2533  -18.8282 N   0  0  0  0  0  0  0  0  0  0  0  0
   17.1132   -6.8796  -18.2089 C   0  0  0  0  0  0  0  0  0  0  0  0
   17.4128   -6.0997  -17.1554 N   0  0  0  0  0  0  0  0  0  0  0  0
   21.8684   -4.2373  -15.8891 C   0  0  0  0  0  0  0  0  0  0  0  0
   22.5297   -4.3639  -14.8267 O   0  0  0  0  0  0  0  0  0  0  0  0
   21.9296   -3.0243  -16.5493 O   0  0  0  0  0  0  0  0  0  0  0  0
  2  4  1  0
  2  1  1  6
  3  2  1  0
  5  4  1  0
  5  6  1  1
  7  8  2  0
  7  5  1  0
 10  9  1  1
 10 12  1  0
 11 10  1  0
 13 12  1  6
 13 14  1  0
 14  7  1  0
 15 13  1  0
 15 17  1  0
 16 15  2  0
 18 17  1  0
 18 25  1  0
 18 19  1  1
 19 20  1  0
 20 21  2  0
 21 22  1  0
 23 22  1  0
 24 20  1  0
 24 23  2  0
 25 27  1  0
 26 25  2  0
M  END
$$$$
