LLH.pdb
     RDKit          3D

 27 27  0  0  1  0  0  0  0  0999 V2000
   15.2738  -21.9931    3.5055 C   0  0  0  0  0  0  0  0  0  0  0  0
   15.4709  -20.6922    2.7338 C   0  0  1  0  0  0  0  0  0  0  0  0
   14.1474  -20.0306    2.4658 C   0  0  0  0  0  0  0  0  0  0  0  0
   16.3125  -19.7956    3.5930 C   0  0  0  0  0  0  0  0  0  0  0  0
   16.8183  -18.6562    2.7327 C   0  0  2  0  0  0  0  0  0  0  0  0
   17.6481  -19.0880    1.6627 N   0  0  0  0  0  0  0  0  0  0  0  0
   17.5253  -17.7156    3.6104 C   0  0  0  0  0  0  0  0  0  0  0  0
   18.7324  -17.9523    3.8867 O   0  0  0  0  0  0  0  0  0  0  0  0
   17.8056  -12.2645    3.1059 C   0  0  0  0  0  0  0  0  0  0  0  0
   18.2371  -13.6398    3.5800 C   0  0  1  0  0  0  0  0  0  0  0  0
   19.5635  -13.4581    4.3228 C   0  0  0  0  0  0  0  0  0  0  0  0
   17.2149  -14.2349    4.5254 C   0  0  0  0  0  0  0  0  0  0  0  0
   17.5517  -15.6104    4.9534 C   0  0  2  0  0  0  0  0  0  0  0  0
   16.8593  -16.5797    4.1247 N   0  0  0  0  0  0  0  0  0  0  0  0
   17.2824  -15.9305    6.3596 C   0  0  0  0  0  0  0  0  0  0  0  0
   16.1087  -16.2747    6.6629 O   0  0  0  0  0  0  0  0  0  0  0  0
   18.2216  -15.8860    7.3975 N   0  0  0  0  0  0  0  0  0  0  0  0
   17.8151  -16.2447    8.7346 C   0  0  1  0  0  0  0  0  0  0  0  0
   18.4864  -17.5608    9.0536 C   0  0  0  0  0  0  0  0  0  0  0  0
   17.7423  -18.7201    8.5082 C   0  0  0  0  0  0  0  0  0  0  0  0
   16.6646  -19.3120    9.1270 C   0  0  0  0  0  0  0  0  0  0  0  0
   16.2616  -20.3252    8.3410 N   0  0  0  0  0  0  0  0  0  0  0  0
   17.0726  -20.3682    7.2480 C   0  0  0  0  0  0  0  0  0  0  0  0
   17.9864  -19.3862    7.3403 N   0  0  0  0  0  0  0  0  0  0  0  0
   18.1062  -15.1724    9.6893 C   0  0  0  0  0  0  0  0  0  0  0  0
   17.8505  -15.3346   10.9101 O   0  0  0  0  0  0  0  0  0  0  0  0
   18.6605  -13.9679    9.2983 O   0  0  0  0  0  0  0  0  0  0  0  0
  2  4  1  0
  2  1  1  1
  3  2  1  0
  5  4  1  0
  5  6  1  6
  7  8  2  0
  7  5  1  0
 10  9  1  1
 10 12  1  0
 11 10  1  0
 13 12  1  6
 13 14  1  0
 14  7  1  0
 15 13  1  0
 15 17  1  0
 16 15  2  0
 18 17  1  0
 18 25  1  0
 18 19  1  1
 19 20  1  0
 20 21  2  0
 21 22  1  0
 23 22  1  0
 24 20  1  0
 24 23  2  0
 25 27  1  0
 26 25  2  0
M  END
$$$$
