LLH.pdb
     RDKit          3D

 27 27  0  0  1  0  0  0  0  0999 V2000
   20.4303  -18.7447  -18.7315 C   0  0  0  0  0  0  0  0  0  0  0  0
   21.6517  -19.1596  -17.9174 C   0  0  1  0  0  0  0  0  0  0  0  0
   22.3857  -17.9489  -17.4108 C   0  0  0  0  0  0  0  0  0  0  0  0
   21.1512  -19.9632  -16.7539 C   0  0  0  0  0  0  0  0  0  0  0  0
   22.3452  -20.3839  -15.9222 C   0  0  2  0  0  0  0  0  0  0  0  0
   23.2462  -21.2299  -16.6238 N   0  0  0  0  0  0  0  0  0  0  0  0
   21.8355  -21.0357  -14.7095 C   0  0  0  0  0  0  0  0  0  0  0  0
   21.7930  -22.2954  -14.6844 O   0  0  0  0  0  0  0  0  0  0  0  0
   21.3328  -21.8220   -9.4635 C   0  0  0  0  0  0  0  0  0  0  0  0
   20.5652  -20.6061   -9.9484 C   0  0  1  0  0  0  0  0  0  0  0  0
   20.6653  -19.5484   -8.8459 C   0  0  0  0  0  0  0  0  0  0  0  0
   21.1685  -20.0547  -11.2232 C   0  0  0  0  0  0  0  0  0  0  0  0
   20.8682  -20.8819  -12.4124 C   0  0  2  0  0  0  0  0  0  0  0  0
   21.4077  -20.2604  -13.6077 N   0  0  0  0  0  0  0  0  0  0  0  0
   19.4509  -21.1795  -12.6475 C   0  0  0  0  0  0  0  0  0  0  0  0
   18.7403  -20.2665  -13.1470 O   0  0  0  0  0  0  0  0  0  0  0  0
   18.8180  -22.3960  -12.3632 N   0  0  0  0  0  0  0  0  0  0  0  0
   17.4113  -22.5444  -12.6477 C   0  0  1  0  0  0  0  0  0  0  0  0
   17.1401  -24.0290  -12.7309 C   0  0  0  0  0  0  0  0  0  0  0  0
   17.3481  -24.5647  -14.0966 C   0  0  0  0  0  0  0  0  0  0  0  0
   17.6725  -23.7959  -15.1913 C   0  0  0  0  0  0  0  0  0  0  0  0
   17.7739  -24.6254  -16.2441 N   0  0  0  0  0  0  0  0  0  0  0  0
   17.5176  -25.8928  -15.8171 C   0  0  0  0  0  0  0  0  0  0  0  0
   17.2547  -25.8673  -14.4987 N   0  0  0  0  0  0  0  0  0  0  0  0
   16.5878  -21.8352  -11.6654 C   0  0  0  0  0  0  0  0  0  0  0  0
   15.5201  -21.2785  -12.0289 O   0  0  0  0  0  0  0  0  0  0  0  0
   16.9407  -21.7506  -10.3316 O   0  0  0  0  0  0  0  0  0  0  0  0
  2  4  1  0
  2  1  1  6
  3  2  1  0
  5  4  1  0
  5  6  1  6
  7  8  2  0
  7  5  1  0
 10  9  1  1
 10 12  1  0
 11 10  1  0
 13 12  1  1
 13 14  1  0
 14  7  1  0
 15 13  1  0
 15 17  1  0
 16 15  2  0
 18 17  1  0
 18 25  1  0
 18 19  1  1
 19 20  1  0
 20 21  2  0
 21 22  1  0
 23 22  1  0
 24 20  1  0
 24 23  2  0
 25 27  1  0
 26 25  2  0
M  END
$$$$
