LLH.pdb
     RDKit          3D

 27 27  0  0  1  0  0  0  0  0999 V2000
   23.3943   -6.1832  -23.2274 C   0  0  0  0  0  0  0  0  0  0  0  0
   23.3696   -5.5010  -21.8633 C   0  0  1  0  0  0  0  0  0  0  0  0
   22.4165   -4.3380  -21.8709 C   0  0  0  0  0  0  0  0  0  0  0  0
   22.9022   -6.5232  -20.8699 C   0  0  0  0  0  0  0  0  0  0  0  0
   22.8055   -5.8544  -19.5143 C   0  0  2  0  0  0  0  0  0  0  0  0
   24.0691   -5.4760  -18.9852 N   0  0  0  0  0  0  0  0  0  0  0  0
   22.1033   -6.7756  -18.6125 C   0  0  0  0  0  0  0  0  0  0  0  0
   20.9496   -7.1646  -18.9397 O   0  0  0  0  0  0  0  0  0  0  0  0
   21.4823  -10.9469  -15.5901 C   0  0  0  0  0  0  0  0  0  0  0  0
   22.4359   -9.9962  -14.8907 C   0  0  1  0  0  0  0  0  0  0  0  0
   23.5420  -10.8532  -14.2692 C   0  0  0  0  0  0  0  0  0  0  0  0
   23.0530   -9.0236  -15.8737 C   0  0  0  0  0  0  0  0  0  0  0  0
   22.0559   -8.1465  -16.5257 C   0  0  2  0  0  0  0  0  0  0  0  0
   22.7153   -7.2069  -17.4135 N   0  0  0  0  0  0  0  0  0  0  0  0
   21.1776   -7.3910  -15.6255 C   0  0  0  0  0  0  0  0  0  0  0  0
   21.7004   -6.4729  -14.9385 O   0  0  0  0  0  0  0  0  0  0  0  0
   19.8029   -7.6037  -15.4637 N   0  0  0  0  0  0  0  0  0  0  0  0
   19.0412   -6.7034  -14.6325 C   0  0  1  0  0  0  0  0  0  0  0  0
   19.2716   -5.3119  -15.1759 C   0  0  0  0  0  0  0  0  0  0  0  0
   18.3431   -4.9771  -16.2808 C   0  0  0  0  0  0  0  0  0  0  0  0
   17.3559   -5.8155  -16.7468 C   0  0  0  0  0  0  0  0  0  0  0  0
   16.7279   -5.1735  -17.7470 N   0  0  0  0  0  0  0  0  0  0  0  0
   17.3112   -3.9533  -17.9056 C   0  0  0  0  0  0  0  0  0  0  0  0
   18.3052   -3.8218  -17.0097 N   0  0  0  0  0  0  0  0  0  0  0  0
   17.6322   -7.0986  -14.5647 C   0  0  0  0  0  0  0  0  0  0  0  0
   17.2241   -8.0796  -15.2378 O   0  0  0  0  0  0  0  0  0  0  0  0
   16.7155   -6.4270  -13.7777 O   0  0  0  0  0  0  0  0  0  0  0  0
  2  4  1  0
  2  1  1  6
  3  2  1  0
  5  4  1  0
  5  6  1  1
  7  8  2  0
  7  5  1  0
 10  9  1  6
 10 12  1  0
 11 10  1  0
 13 12  1  1
 13 14  1  0
 14  7  1  0
 15 13  1  0
 15 17  1  0
 16 15  2  0
 18 17  1  0
 18 25  1  0
 18 19  1  6
 19 20  1  0
 20 21  2  0
 21 22  1  0
 23 22  1  0
 24 20  1  0
 24 23  2  0
 25 27  1  0
 26 25  2  0
M  END
$$$$
