LLH.pdb
     RDKit          3D

 27 27  0  0  1  0  0  0  0  0999 V2000
   12.0013  -23.8473   -6.8030 C   0  0  0  0  0  0  0  0  0  0  0  0
   12.5201  -23.0615   -5.6029 C   0  0  1  0  0  0  0  0  0  0  0  0
   11.3803  -22.4358   -4.8477 C   0  0  0  0  0  0  0  0  0  0  0  0
   13.2320  -24.0377   -4.7138 C   0  0  0  0  0  0  0  0  0  0  0  0
   13.8212  -23.2713   -3.5477 C   0  0  2  0  0  0  0  0  0  0  0  0
   14.8278  -22.3464   -3.9367 N   0  0  0  0  0  0  0  0  0  0  0  0
   14.3403  -24.2524   -2.5869 C   0  0  0  0  0  0  0  0  0  0  0  0
   13.5251  -25.0550   -2.0571 O   0  0  0  0  0  0  0  0  0  0  0  0
   18.2903  -27.6461   -3.4069 C   0  0  0  0  0  0  0  0  0  0  0  0
   17.0502  -26.9794   -2.8409 C   0  0  1  0  0  0  0  0  0  0  0  0
   16.2275  -28.0762   -2.1594 C   0  0  0  0  0  0  0  0  0  0  0  0
   17.4181  -25.9252   -1.8180 C   0  0  0  0  0  0  0  0  0  0  0  0
   16.2440  -25.2036   -1.2802 C   0  0  2  0  0  0  0  0  0  0  0  0
   15.7183  -24.2855   -2.2736 N   0  0  0  0  0  0  0  0  0  0  0  0
   16.4615  -24.4596   -0.0346 C   0  0  0  0  0  0  0  0  0  0  0  0
   17.4106  -23.6309   -0.0106 O   0  0  0  0  0  0  0  0  0  0  0  0
   15.7017  -24.5920    1.1344 N   0  0  0  0  0  0  0  0  0  0  0  0
   16.0542  -23.8157    2.2983 C   0  0  1  0  0  0  0  0  0  0  0  0
   15.9525  -22.3620    1.8971 C   0  0  0  0  0  0  0  0  0  0  0  0
   14.5486  -21.9221    1.7222 C   0  0  0  0  0  0  0  0  0  0  0  0
   13.4609  -22.7651    1.7532 C   0  0  0  0  0  0  0  0  0  0  0  0
   12.3666  -22.0102    1.5548 N   0  0  0  0  0  0  0  0  0  0  0  0
   12.7611  -20.7159    1.4020 C   0  0  0  0  0  0  0  0  0  0  0  0
   14.1003  -20.6499    1.5031 N   0  0  0  0  0  0  0  0  0  0  0  0
   15.2330  -24.1807    3.4552 C   0  0  0  0  0  0  0  0  0  0  0  0
   15.3891  -23.5790    4.5486 O   0  0  0  0  0  0  0  0  0  0  0  0
   14.2759  -25.1764    3.3949 O   0  0  0  0  0  0  0  0  0  0  0  0
  2  4  1  0
  2  1  1  6
  3  2  1  0
  5  4  1  0
  5  6  1  6
  7  8  2  0
  7  5  1  0
 10  9  1  1
 10 12  1  0
 11 10  1  0
 13 12  1  6
 13 14  1  0
 14  7  1  0
 15 13  1  0
 15 17  1  0
 16 15  2  0
 18 17  1  0
 18 25  1  0
 18 19  1  6
 19 20  1  0
 20 21  2  0
 21 22  1  0
 23 22  1  0
 24 20  1  0
 24 23  2  0
 25 27  1  0
 26 25  2  0
M  END
$$$$
