LLH.pdb
     RDKit          3D

 27 27  0  0  1  0  0  0  0  0999 V2000
   11.8831  -20.8197   -4.9614 C   0  0  0  0  0  0  0  0  0  0  0  0
   12.9249  -21.8172   -4.4649 C   0  0  1  0  0  0  0  0  0  0  0  0
   14.3114  -21.3513   -4.8137 C   0  0  0  0  0  0  0  0  0  0  0  0
   12.7840  -21.8930   -2.9734 C   0  0  0  0  0  0  0  0  0  0  0  0
   13.8022  -22.8863   -2.4530 C   0  0  2  0  0  0  0  0  0  0  0  0
   13.6070  -24.2022   -2.9530 N   0  0  0  0  0  0  0  0  0  0  0  0
   13.7423  -22.8581   -0.9864 C   0  0  0  0  0  0  0  0  0  0  0  0
   12.7977  -23.4696   -0.4178 O   0  0  0  0  0  0  0  0  0  0  0  0
   16.6732  -25.3643    1.7489 C   0  0  0  0  0  0  0  0  0  0  0  0
   15.4286  -24.5074    1.6102 C   0  0  1  0  0  0  0  0  0  0  0  0
   14.4831  -24.9096    2.7452 C   0  0  0  0  0  0  0  0  0  0  0  0
   15.7638  -23.0364    1.7394 C   0  0  0  0  0  0  0  0  0  0  0  0
   14.7052  -22.1509    1.2065 C   0  0  2  0  0  0  0  0  0  0  0  0
   14.7230  -22.1610   -0.2445 N   0  0  0  0  0  0  0  0  0  0  0  0
   14.7461  -20.7557    1.6581 C   0  0  0  0  0  0  0  0  0  0  0  0
   15.4581  -19.9518    0.9985 O   0  0  0  0  0  0  0  0  0  0  0  0
   14.0591  -20.2388    2.7636 N   0  0  0  0  0  0  0  0  0  0  0  0
   14.1717  -18.8339    3.0723 C   0  0  1  0  0  0  0  0  0  0  0  0
   12.7632  -18.3137    3.2451 C   0  0  0  0  0  0  0  0  0  0  0  0
   12.1015  -18.0362    1.9488 C   0  0  0  0  0  0  0  0  0  0  0  0
   12.7156  -18.1535    0.7225 C   0  0  0  0  0  0  0  0  0  0  0  0
   11.8083  -17.8175   -0.2106 N   0  0  0  0  0  0  0  0  0  0  0  0
   10.6450  -17.4949    0.4196 C   0  0  0  0  0  0  0  0  0  0  0  0
   10.8137  -17.6258    1.7471 N   0  0  0  0  0  0  0  0  0  0  0  0
   15.0442  -18.6069    4.2269 C   0  0  0  0  0  0  0  0  0  0  0  0
   15.2100  -17.4401    4.6664 O   0  0  0  0  0  0  0  0  0  0  0  0
   15.7048  -19.6395    4.8658 O   0  0  0  0  0  0  0  0  0  0  0  0
  2  4  1  0
  2  1  1  1
  3  2  1  0
  5  4  1  0
  5  6  1  6
  7  8  2  0
  7  5  1  0
 10  9  1  1
 10 12  1  0
 11 10  1  0
 13 12  1  1
 13 14  1  0
 14  7  1  0
 15 13  1  0
 15 17  1  0
 16 15  2  0
 18 17  1  0
 18 25  1  0
 18 19  1  1
 19 20  1  0
 20 21  2  0
 21 22  1  0
 23 22  1  0
 24 20  1  0
 24 23  2  0
 25 27  1  0
 26 25  2  0
M  END
$$$$
