GTQ.pdb
     RDKit          3D

 21 20  0  0  1  0  0  0  0  0999 V2000
    8.0594  -12.5000   18.2766 N   0  0  0  0  0  0  0  0  0  0  0  0
    9.1326  -13.2720   18.8742 C   0  0  0  0  0  0  0  0  0  0  0  0
    8.6034  -13.8711   20.1264 C   0  0  0  0  0  0  0  0  0  0  0  0
    7.6323  -13.3739   20.7473 O   0  0  0  0  0  0  0  0  0  0  0  0
    7.3971  -17.2700   20.1920 C   0  0  0  0  0  0  0  0  0  0  0  0
    8.3284  -17.1812   21.3459 C   0  0  1  0  0  0  0  0  0  0  0  0
    9.5618  -17.7142   20.9438 O   0  0  0  0  0  0  0  0  0  0  0  0
    8.6000  -15.7633   21.7931 C   0  0  2  0  0  0  0  0  0  0  0  0
    9.1847  -15.0465   20.6765 N   0  0  0  0  0  0  0  0  0  0  0  0
    9.5828  -15.7193   22.9057 C   0  0  0  0  0  0  0  0  0  0  0  0
   10.8299  -15.5723   22.6986 O   0  0  0  0  0  0  0  0  0  0  0  0
    8.9011  -13.4347   28.6200 N   0  0  0  0  0  0  0  0  0  0  0  0
    9.9387  -14.3831   28.8562 C   0  0  0  0  0  0  0  0  0  0  0  0
   10.2619  -14.5545   30.0707 O   0  0  0  0  0  0  0  0  0  0  0  0
   10.5949  -15.1203   27.7423 C   0  0  0  0  0  0  0  0  0  0  0  0
    9.6587  -15.0857   26.5697 C   0  0  0  0  0  0  0  0  0  0  0  0
   10.1806  -15.7949   25.3506 C   0  0  2  0  0  0  0  0  0  0  0  0
    9.2083  -15.8371   24.2761 N   0  0  0  0  0  0  0  0  0  0  0  0
   10.7110  -17.1319   25.6294 C   0  0  0  0  0  0  0  0  0  0  0  0
   10.0459  -18.1573   25.3922 O   0  0  0  0  0  0  0  0  0  0  0  0
   11.9696  -17.2851   26.1653 O   0  0  0  0  0  0  0  0  0  0  0  0
  1  2  1  0
  2  3  1  0
  3  4  2  0
  6  5  1  6
  6  8  1  0
  7  6  1  0
  8 10  1  0
  8  9  1  6
  9  3  1  0
 10 11  2  0
 10 18  1  0
 12 13  1  0
 13 14  2  0
 13 15  1  0
 15 16  1  0
 17 16  1  1
 17 19  1  0
 18 17  1  0
 19 20  2  0
 19 21  1  0
M  END
$$$$
