GTQ.pdb
     RDKit          3D

 21 20  0  0  1  0  0  0  0  0999 V2000
    3.3575  -18.5777   21.3686 N   0  0  0  0  0  0  0  0  0  0  0  0
    4.0686  -17.6447   22.2223 C   0  0  0  0  0  0  0  0  0  0  0  0
    5.4421  -17.5013   21.6746 C   0  0  0  0  0  0  0  0  0  0  0  0
    5.8049  -18.0771   20.6199 O   0  0  0  0  0  0  0  0  0  0  0  0
    6.6365  -14.5847   20.3923 C   0  0  0  0  0  0  0  0  0  0  0  0
    7.7115  -14.9377   21.3550 C   0  0  1  0  0  0  0  0  0  0  0  0
    7.4945  -14.2019   22.5292 O   0  0  0  0  0  0  0  0  0  0  0  0
    7.7064  -16.3949   21.7559 C   0  0  2  0  0  0  0  0  0  0  0  0
    6.4109  -16.6954   22.3334 N   0  0  0  0  0  0  0  0  0  0  0  0
    8.7273  -16.6797   22.7963 C   0  0  0  0  0  0  0  0  0  0  0  0
    8.4616  -16.6092   24.0389 O   0  0  0  0  0  0  0  0  0  0  0  0
   11.4763  -20.6423   26.4987 N   0  0  0  0  0  0  0  0  0  0  0  0
   11.5857  -19.3076   26.0102 C   0  0  0  0  0  0  0  0  0  0  0  0
   10.9584  -18.4259   26.6721 O   0  0  0  0  0  0  0  0  0  0  0  0
   12.3872  -18.9794   24.7999 C   0  0  0  0  0  0  0  0  0  0  0  0
   11.4215  -18.7129   23.6823 C   0  0  0  0  0  0  0  0  0  0  0  0
   11.0706  -17.2604   23.5121 C   0  0  2  0  0  0  0  0  0  0  0  0
   10.0684  -17.0497   22.4858 N   0  0  0  0  0  0  0  0  0  0  0  0
   12.2330  -16.3957   23.2940 C   0  0  0  0  0  0  0  0  0  0  0  0
   12.4111  -15.8070   22.2115 O   0  0  0  0  0  0  0  0  0  0  0  0
   13.1635  -16.2133   24.2918 O   0  0  0  0  0  0  0  0  0  0  0  0
  1  2  1  0
  2  3  1  0
  3  4  2  0
  6  5  1  6
  6  8  1  0
  7  6  1  0
  8 10  1  0
  8  9  1  1
  9  3  1  0
 10 11  2  0
 10 18  1  0
 12 13  1  0
 13 14  2  0
 13 15  1  0
 15 16  1  0
 17 16  1  6
 17 19  1  0
 18 17  1  0
 19 20  2  0
 19 21  1  0
M  END
$$$$
