GTQ.pdb
     RDKit          3D

 21 20  0  0  1  0  0  0  0  0999 V2000
   13.3229  -14.2165   18.6310 N   0  0  0  0  0  0  0  0  0  0  0  0
   12.2444  -15.1124   19.0043 C   0  0  0  0  0  0  0  0  0  0  0  0
   11.4603  -14.4410   20.0726 C   0  0  0  0  0  0  0  0  0  0  0  0
   11.8917  -13.4350   20.6869 O   0  0  0  0  0  0  0  0  0  0  0  0
    7.5891  -13.5439   20.1283 C   0  0  0  0  0  0  0  0  0  0  0  0
    7.9685  -14.4420   21.2491 C   0  0  1  0  0  0  0  0  0  0  0  0
    7.6880  -15.7592   20.8572 O   0  0  0  0  0  0  0  0  0  0  0  0
    9.4418  -14.3992   21.5832 C   0  0  2  0  0  0  0  0  0  0  0  0
   10.1738  -14.9191   20.4447 N   0  0  0  0  0  0  0  0  0  0  0  0
    9.7647  -15.2658   22.7453 C   0  0  0  0  0  0  0  0  0  0  0  0
   10.3542  -16.3853   22.6085 O   0  0  0  0  0  0  0  0  0  0  0  0
    9.7371  -13.2202   28.6299 N   0  0  0  0  0  0  0  0  0  0  0  0
   10.3547  -14.5037   28.6861 C   0  0  0  0  0  0  0  0  0  0  0  0
   10.6227  -14.9353   29.8485 O   0  0  0  0  0  0  0  0  0  0  0  0
   10.6615  -15.2803   27.4543 C   0  0  0  0  0  0  0  0  0  0  0  0
    9.4850  -15.1411   26.5327 C   0  0  0  0  0  0  0  0  0  0  0  0
    9.6697  -15.8149   25.2009 C   0  0  2  0  0  0  0  0  0  0  0  0
    9.4424  -14.9134   24.0884 N   0  0  0  0  0  0  0  0  0  0  0  0
    8.8851  -17.0427   25.0486 C   0  0  0  0  0  0  0  0  0  0  0  0
    9.2428  -18.1122   25.5761 O   0  0  0  0  0  0  0  0  0  0  0  0
    7.7227  -17.0407   24.3111 O   0  0  0  0  0  0  0  0  0  0  0  0
  1  2  1  0
  2  3  1  0
  3  4  2  0
  6  5  1  6
  6  8  1  0
  7  6  1  0
  8 10  1  0
  8  9  1  6
  9  3  1  0
 10 11  2  0
 10 18  1  0
 12 13  1  0
 13 14  2  0
 13 15  1  0
 15 16  1  0
 17 16  1  1
 17 19  1  0
 18 17  1  0
 19 20  2  0
 19 21  1  0
M  END
$$$$
