GTQ.pdb
     RDKit          3D

 21 20  0  0  1  0  0  0  0  0999 V2000
   11.0072  -17.0152   18.2103 N   0  0  0  0  0  0  0  0  0  0  0  0
   10.1684  -17.5359   19.2735 C   0  0  0  0  0  0  0  0  0  0  0  0
   10.0251  -16.4627   20.2907 C   0  0  0  0  0  0  0  0  0  0  0  0
   11.0179  -15.9070   20.8208 O   0  0  0  0  0  0  0  0  0  0  0  0
    6.9316  -13.6719   20.4430 C   0  0  0  0  0  0  0  0  0  0  0  0
    7.1470  -14.5018   21.6562 C   0  0  1  0  0  0  0  0  0  0  0  0
    6.2929  -15.6113   21.5742 O   0  0  0  0  0  0  0  0  0  0  0  0
    8.5509  -15.0496   21.7699 C   0  0  2  0  0  0  0  0  0  0  0  0
    8.7403  -16.0185   20.7080 N   0  0  0  0  0  0  0  0  0  0  0  0
    8.7575  -15.7626   23.0563 C   0  0  0  0  0  0  0  0  0  0  0  0
    8.8028  -17.0327   23.1236 O   0  0  0  0  0  0  0  0  0  0  0  0
   10.4229  -14.8647   30.3310 N   0  0  0  0  0  0  0  0  0  0  0  0
   10.0850  -14.5297   28.9872 C   0  0  0  0  0  0  0  0  0  0  0  0
   10.0449  -13.2898   28.7224 O   0  0  0  0  0  0  0  0  0  0  0  0
    9.7992  -15.5750   27.9673 C   0  0  0  0  0  0  0  0  0  0  0  0
    9.4874  -14.8703   26.6793 C   0  0  0  0  0  0  0  0  0  0  0  0
    9.1479  -15.7960   25.5436 C   0  0  2  0  0  0  0  0  0  0  0  0
    8.9190  -15.0860   24.3005 N   0  0  0  0  0  0  0  0  0  0  0  0
    8.0389  -16.7069   25.8381 C   0  0  0  0  0  0  0  0  0  0  0  0
    6.8607  -16.4029   25.5744 O   0  0  0  0  0  0  0  0  0  0  0  0
    8.2778  -17.9317   26.4191 O   0  0  0  0  0  0  0  0  0  0  0  0
  1  2  1  0
  2  3  1  0
  3  4  2  0
  6  5  1  6
  6  8  1  0
  7  6  1  0
  8 10  1  0
  8  9  1  6
  9  3  1  0
 10 11  2  0
 10 18  1  0
 12 13  1  0
 13 14  2  0
 13 15  1  0
 15 16  1  0
 17 16  1  1
 17 19  1  0
 18 17  1  0
 19 20  2  0
 19 21  1  0
M  END
$$$$
