GTQ.pdb
     RDKit          3D

 21 20  0  0  1  0  0  0  0  0999 V2000
   13.6597  -14.5661   18.5242 N   0  0  0  0  0  0  0  0  0  0  0  0
   12.3839  -15.2394   18.6795 C   0  0  0  0  0  0  0  0  0  0  0  0
   11.6570  -14.5621   19.7841 C   0  0  0  0  0  0  0  0  0  0  0  0
   12.2504  -13.8862   20.6595 O   0  0  0  0  0  0  0  0  0  0  0  0
    8.0196  -12.7456   19.3062 C   0  0  0  0  0  0  0  0  0  0  0  0
    8.0870  -13.7436   20.4046 C   0  0  1  0  0  0  0  0  0  0  0  0
    7.6467  -14.9736   19.8942 O   0  0  0  0  0  0  0  0  0  0  0  0
    9.4872  -13.9726   20.9253 C   0  0  2  0  0  0  0  0  0  0  0  0
   10.2422  -14.6554   19.8928 N   0  0  0  0  0  0  0  0  0  0  0  0
    9.4886  -14.8506   22.1232 C   0  0  0  0  0  0  0  0  0  0  0  0
    9.7950  -16.0839   22.0549 O   0  0  0  0  0  0  0  0  0  0  0  0
    9.5982  -14.9507   29.5862 N   0  0  0  0  0  0  0  0  0  0  0  0
    9.2876  -14.4553   28.2861 C   0  0  0  0  0  0  0  0  0  0  0  0
    9.0863  -13.2054   28.2068 O   0  0  0  0  0  0  0  0  0  0  0  0
    9.2070  -15.3550   27.1034 C   0  0  0  0  0  0  0  0  0  0  0  0
    9.2270  -14.4875   25.8789 C   0  0  0  0  0  0  0  0  0  0  0  0
    9.1581  -15.2538   24.5866 C   0  0  2  0  0  0  0  0  0  0  0  0
    9.1506  -14.3838   23.4269 N   0  0  0  0  0  0  0  0  0  0  0  0
    8.0516  -16.2124   24.5291 C   0  0  0  0  0  0  0  0  0  0  0  0
    8.1262  -17.3250   25.0830 O   0  0  0  0  0  0  0  0  0  0  0  0
    6.8931  -15.9007   23.8542 O   0  0  0  0  0  0  0  0  0  0  0  0
  1  2  1  0
  2  3  1  0
  3  4  2  0
  6  5  1  6
  6  8  1  0
  7  6  1  0
  8 10  1  0
  8  9  1  6
  9  3  1  0
 10 11  2  0
 10 18  1  0
 12 13  1  0
 13 14  2  0
 13 15  1  0
 15 16  1  0
 17 16  1  1
 17 19  1  0
 18 17  1  0
 19 20  2  0
 19 21  1  0
M  END
$$$$
