GTQ.pdb
     RDKit          3D

 21 20  0  0  1  0  0  0  0  0999 V2000
    1.1379  -20.0417   21.1029 N   0  0  0  0  0  0  0  0  0  0  0  0
    1.8209  -18.8330   21.5240 C   0  0  0  0  0  0  0  0  0  0  0  0
    3.2675  -19.1550   21.6285 C   0  0  0  0  0  0  0  0  0  0  0  0
    3.7056  -20.3212   21.4757 O   0  0  0  0  0  0  0  0  0  0  0  0
    5.9662  -17.7224   19.6088 C   0  0  0  0  0  0  0  0  0  0  0  0
    6.3524  -17.4907   21.0244 C   0  0  1  0  0  0  0  0  0  0  0  0
    5.9767  -16.1825   21.3630 O   0  0  0  0  0  0  0  0  0  0  0  0
    5.6461  -18.4048   21.9989 C   0  0  2  0  0  0  0  0  0  0  0  0
    4.2233  -18.1403   21.9094 N   0  0  0  0  0  0  0  0  0  0  0  0
    6.0557  -18.1320   23.4002 C   0  0  0  0  0  0  0  0  0  0  0  0
    5.4963  -17.2304   24.1030 O   0  0  0  0  0  0  0  0  0  0  0  0
    7.1675  -21.8032   27.9423 N   0  0  0  0  0  0  0  0  0  0  0  0
    7.6315  -20.5942   28.5382 C   0  0  0  0  0  0  0  0  0  0  0  0
    8.0412  -20.6920   29.7347 O   0  0  0  0  0  0  0  0  0  0  0  0
    7.6315  -19.3044   27.7958 C   0  0  0  0  0  0  0  0  0  0  0  0
    7.1681  -19.5927   26.3976 C   0  0  0  0  0  0  0  0  0  0  0  0
    7.5318  -18.5261   25.4017 C   0  0  2  0  0  0  0  0  0  0  0  0
    7.0957  -18.8515   24.0580 N   0  0  0  0  0  0  0  0  0  0  0  0
    8.9516  -18.1650   25.4183 C   0  0  0  0  0  0  0  0  0  0  0  0
    9.6981  -18.4191   24.4547 O   0  0  0  0  0  0  0  0  0  0  0  0
    9.4972  -17.5302   26.5110 O   0  0  0  0  0  0  0  0  0  0  0  0
  1  2  1  0
  2  3  1  0
  3  4  2  0
  6  5  1  6
  6  8  1  0
  7  6  1  0
  8 10  1  0
  8  9  1  1
  9  3  1  0
 10 11  2  0
 10 18  1  0
 12 13  1  0
 13 14  2  0
 13 15  1  0
 15 16  1  0
 17 16  1  1
 17 19  1  0
 18 17  1  0
 19 20  2  0
 19 21  1  0
M  END
$$$$
