GTQ.pdb
     RDKit          3D

 21 20  0  0  1  0  0  0  0  0999 V2000
    2.0579  -19.6005   20.5470 N   0  0  0  0  0  0  0  0  0  0  0  0
    2.5063  -18.4855   21.3600 C   0  0  0  0  0  0  0  0  0  0  0  0
    3.9558  -18.6817   21.6203 C   0  0  0  0  0  0  0  0  0  0  0  0
    4.5700  -19.7091   21.2425 O   0  0  0  0  0  0  0  0  0  0  0  0
    6.4278  -16.5228   20.3164 C   0  0  0  0  0  0  0  0  0  0  0  0
    6.7610  -16.5885   21.7626 C   0  0  1  0  0  0  0  0  0  0  0  0
    6.2277  -15.4466   22.3781 O   0  0  0  0  0  0  0  0  0  0  0  0
    6.1523  -17.7787   22.4676 C   0  0  2  0  0  0  0  0  0  0  0  0
    4.7124  -17.6995   22.3167 N   0  0  0  0  0  0  0  0  0  0  0  0
    6.4425  -17.7592   23.9240 C   0  0  0  0  0  0  0  0  0  0  0  0
    5.7408  -17.0829   24.7425 O   0  0  0  0  0  0  0  0  0  0  0  0
    8.2746  -22.5086   26.1613 N   0  0  0  0  0  0  0  0  0  0  0  0
    6.9165  -22.0760   26.1413 C   0  0  0  0  0  0  0  0  0  0  0  0
    6.0532  -22.9816   25.9327 O   0  0  0  0  0  0  0  0  0  0  0  0
    6.5451  -20.6505   26.3527 C   0  0  0  0  0  0  0  0  0  0  0  0
    7.8199  -19.8749   26.5140 C   0  0  0  0  0  0  0  0  0  0  0  0
    7.7669  -18.4865   25.9383 C   0  0  2  0  0  0  0  0  0  0  0  0
    7.5178  -18.4887   24.5101 N   0  0  0  0  0  0  0  0  0  0  0  0
    8.9383  -17.6692   26.2641 C   0  0  0  0  0  0  0  0  0  0  0  0
    9.6115  -17.1147   25.3755 O   0  0  0  0  0  0  0  0  0  0  0  0
    9.3244  -17.4944   27.5738 O   0  0  0  0  0  0  0  0  0  0  0  0
  1  2  1  0
  2  3  1  0
  3  4  2  0
  6  5  1  6
  6  8  1  0
  7  6  1  0
  8 10  1  0
  8  9  1  1
  9  3  1  0
 10 11  2  0
 10 18  1  0
 12 13  1  0
 13 14  2  0
 13 15  1  0
 15 16  1  0
 17 16  1  6
 17 19  1  0
 18 17  1  0
 19 20  2  0
 19 21  1  0
M  END
$$$$
