GTQ.pdb
     RDKit          3D

 21 20  0  0  1  0  0  0  0  0999 V2000
    4.0645  -17.9923   20.0093 N   0  0  0  0  0  0  0  0  0  0  0  0
    4.3462  -16.6669   20.5280 C   0  0  0  0  0  0  0  0  0  0  0  0
    5.8207  -16.4867   20.5062 C   0  0  0  0  0  0  0  0  0  0  0  0
    6.6053  -17.4277   20.2334 O   0  0  0  0  0  0  0  0  0  0  0  0
    7.1930  -13.6104   18.6675 C   0  0  0  0  0  0  0  0  0  0  0  0
    8.0079  -13.6808   19.9077 C   0  0  1  0  0  0  0  0  0  0  0  0
    7.5826  -12.6510   20.7595 O   0  0  0  0  0  0  0  0  0  0  0  0
    7.8291  -14.9714   20.6735 C   0  0  2  0  0  0  0  0  0  0  0  0
    6.4068  -15.2243   20.7976 N   0  0  0  0  0  0  0  0  0  0  0  0
    8.3787  -14.8716   22.0497 C   0  0  0  0  0  0  0  0  0  0  0  0
    7.7224  -14.3387   23.0009 O   0  0  0  0  0  0  0  0  0  0  0  0
    7.1554  -16.6115   25.9667 N   0  0  0  0  0  0  0  0  0  0  0  0
    8.3956  -17.2096   26.3356 C   0  0  0  0  0  0  0  0  0  0  0  0
    8.6517  -17.2245   27.5779 O   0  0  0  0  0  0  0  0  0  0  0  0
    9.3241  -17.7777   25.3208 C   0  0  0  0  0  0  0  0  0  0  0  0
    9.0280  -17.1008   24.0144 C   0  0  0  0  0  0  0  0  0  0  0  0
    9.9433  -15.9490   23.7023 C   0  0  2  0  0  0  0  0  0  0  0  0
    9.6695  -15.3600   22.4062 N   0  0  0  0  0  0  0  0  0  0  0  0
   11.3654  -16.2733   23.8401 C   0  0  0  0  0  0  0  0  0  0  0  0
   11.8687  -16.5310   24.9494 O   0  0  0  0  0  0  0  0  0  0  0  0
   12.1849  -16.3005   22.7345 O   0  0  0  0  0  0  0  0  0  0  0  0
  1  2  1  0
  2  3  1  0
  3  4  2  0
  6  5  1  6
  6  8  1  0
  7  6  1  0
  8 10  1  0
  8  9  1  1
  9  3  1  0
 10 11  2  0
 10 18  1  0
 12 13  1  0
 13 14  2  0
 13 15  1  0
 15 16  1  0
 17 16  1  6
 17 19  1  0
 18 17  1  0
 19 20  2  0
 19 21  1  0
M  END
$$$$
