GTQ.pdb
     RDKit          3D

 21 20  0  0  1  0  0  0  0  0999 V2000
    3.4146  -18.4153   20.7420 N   0  0  0  0  0  0  0  0  0  0  0  0
    3.8403  -17.1091   21.2085 C   0  0  0  0  0  0  0  0  0  0  0  0
    5.3019  -17.0056   20.9632 C   0  0  0  0  0  0  0  0  0  0  0  0
    6.0095  -18.0099   20.7058 O   0  0  0  0  0  0  0  0  0  0  0  0
    7.1553  -13.0826   20.7067 C   0  0  0  0  0  0  0  0  0  0  0  0
    7.4914  -14.2798   19.8939 C   0  0  1  0  0  0  0  0  0  0  0  0
    8.8379  -14.1768   19.5151 O   0  0  0  0  0  0  0  0  0  0  0  0
    7.3584  -15.5799   20.6528 C   0  0  2  0  0  0  0  0  0  0  0  0
    5.9635  -15.7478   21.0112 N   0  0  0  0  0  0  0  0  0  0  0  0
    8.1367  -15.5573   21.9176 C   0  0  0  0  0  0  0  0  0  0  0  0
    7.7111  -14.9655   22.9608 O   0  0  0  0  0  0  0  0  0  0  0  0
    7.9808  -15.2013   26.2140 N   0  0  0  0  0  0  0  0  0  0  0  0
    8.7370  -16.4010   26.0692 C   0  0  0  0  0  0  0  0  0  0  0  0
    9.5378  -16.6648   27.0169 O   0  0  0  0  0  0  0  0  0  0  0  0
    8.5893  -17.2814   24.8784 C   0  0  0  0  0  0  0  0  0  0  0  0
    9.9171  -17.3155   24.1795 C   0  0  0  0  0  0  0  0  0  0  0  0
   10.1691  -16.1297   23.2893 C   0  0  2  0  0  0  0  0  0  0  0  0
    9.4063  -16.1900   22.0580 N   0  0  0  0  0  0  0  0  0  0  0  0
   11.5883  -15.8910   23.0148 C   0  0  0  0  0  0  0  0  0  0  0  0
   12.0449  -15.9475   21.8579 O   0  0  0  0  0  0  0  0  0  0  0  0
   12.4571  -15.5957   24.0409 O   0  0  0  0  0  0  0  0  0  0  0  0
  1  2  1  0
  2  3  1  0
  3  4  2  0
  6  5  1  1
  6  8  1  0
  7  6  1  0
  8 10  1  0
  8  9  1  1
  9  3  1  0
 10 11  2  0
 10 18  1  0
 12 13  1  0
 13 14  2  0
 13 15  1  0
 15 16  1  0
 17 16  1  6
 17 19  1  0
 18 17  1  0
 19 20  2  0
 19 21  1  0
M  END
$$$$
