GTQ.pdb
     RDKit          3D

 21 20  0  0  1  0  0  0  0  0999 V2000
    8.5211  -14.7872   15.5489 N   0  0  0  0  0  0  0  0  0  0  0  0
    8.1534  -15.5327   16.7380 C   0  0  0  0  0  0  0  0  0  0  0  0
    8.7657  -14.8412   17.9016 C   0  0  0  0  0  0  0  0  0  0  0  0
    9.6312  -13.9423   17.7656 O   0  0  0  0  0  0  0  0  0  0  0  0
    7.0185  -13.0283   20.6649 C   0  0  0  0  0  0  0  0  0  0  0  0
    7.8707  -14.0708   21.2924 C   0  0  1  0  0  0  0  0  0  0  0  0
    7.0612  -15.1854   21.5557 O   0  0  0  0  0  0  0  0  0  0  0  0
    8.9878  -14.5549   20.3969 C   0  0  2  0  0  0  0  0  0  0  0  0
    8.3894  -15.1760   19.2314 N   0  0  0  0  0  0  0  0  0  0  0  0
    9.8176  -15.5883   21.0674 C   0  0  0  0  0  0  0  0  0  0  0  0
    9.6816  -16.8287   20.8176 O   0  0  0  0  0  0  0  0  0  0  0  0
   16.4513  -17.4928   22.9876 N   0  0  0  0  0  0  0  0  0  0  0  0
   15.3802  -16.5602   23.1096 C   0  0  0  0  0  0  0  0  0  0  0  0
   15.7092  -15.3357   23.0710 O   0  0  0  0  0  0  0  0  0  0  0  0
   13.9691  -17.0044   23.2716 C   0  0  0  0  0  0  0  0  0  0  0  0
   13.1014  -16.0069   22.5612 C   0  0  0  0  0  0  0  0  0  0  0  0
   11.6288  -16.2929   22.6684 C   0  0  2  0  0  0  0  0  0  0  0  0
   10.8190  -15.2729   22.0315 N   0  0  0  0  0  0  0  0  0  0  0  0
   11.1756  -16.5406   24.0395 C   0  0  0  0  0  0  0  0  0  0  0  0
   10.4324  -15.7374   24.6334 O   0  0  0  0  0  0  0  0  0  0  0  0
   11.5658  -17.6787   24.7082 O   0  0  0  0  0  0  0  0  0  0  0  0
  1  2  1  0
  2  3  1  0
  3  4  2  0
  6  5  1  6
  6  8  1  0
  7  6  1  0
  8 10  1  0
  8  9  1  6
  9  3  1  0
 10 11  2  0
 10 18  1  0
 12 13  1  0
 13 14  2  0
 13 15  1  0
 15 16  1  0
 17 16  1  1
 17 19  1  0
 18 17  1  0
 19 20  2  0
 19 21  1  0
M  END
$$$$
