GTQ.pdb
     RDKit          3D

 21 20  0  0  1  0  0  0  0  0999 V2000
    9.1725  -14.8038   14.3261 N   0  0  0  0  0  0  0  0  0  0  0  0
    8.3436  -15.1383   15.4689 C   0  0  0  0  0  0  0  0  0  0  0  0
    9.0607  -14.6787   16.6861 C   0  0  0  0  0  0  0  0  0  0  0  0
   10.2755  -14.3632   16.6675 O   0  0  0  0  0  0  0  0  0  0  0  0
    6.9752  -12.8083   19.7295 C   0  0  0  0  0  0  0  0  0  0  0  0
    7.9682  -13.8220   20.1693 C   0  0  1  0  0  0  0  0  0  0  0  0
    7.2862  -15.0309   20.3716 O   0  0  0  0  0  0  0  0  0  0  0  0
    9.0395  -14.1017   19.1407 C   0  0  2  0  0  0  0  0  0  0  0  0
    8.3889  -14.5773   17.9353 N   0  0  0  0  0  0  0  0  0  0  0  0
    9.9647  -15.1725   19.5916 C   0  0  0  0  0  0  0  0  0  0  0  0
    9.8596  -16.3720   19.1798 O   0  0  0  0  0  0  0  0  0  0  0  0
   15.3783  -16.2493   18.6117 N   0  0  0  0  0  0  0  0  0  0  0  0
   15.0537  -14.9633   19.1340 C   0  0  0  0  0  0  0  0  0  0  0  0
   15.8107  -14.0134   18.7684 O   0  0  0  0  0  0  0  0  0  0  0  0
   13.8983  -14.7582   20.0493 C   0  0  0  0  0  0  0  0  0  0  0  0
   13.1818  -16.0717   20.1671 C   0  0  0  0  0  0  0  0  0  0  0  0
   11.9070  -16.0027   20.9621 C   0  0  2  0  0  0  0  0  0  0  0  0
   11.0297  -14.9406   20.5102 N   0  0  0  0  0  0  0  0  0  0  0  0
   12.1196  -15.9258   22.4096 C   0  0  0  0  0  0  0  0  0  0  0  0
   12.8182  -16.7640   23.0093 O   0  0  0  0  0  0  0  0  0  0  0  0
   11.5456  -14.9145   23.1462 O   0  0  0  0  0  0  0  0  0  0  0  0
  1  2  1  0
  2  3  1  0
  3  4  2  0
  6  5  1  6
  6  8  1  0
  7  6  1  0
  8 10  1  0
  8  9  1  6
  9  3  1  0
 10 11  2  0
 10 18  1  0
 12 13  1  0
 13 14  2  0
 13 15  1  0
 15 16  1  0
 17 16  1  6
 17 19  1  0
 18 17  1  0
 19 20  2  0
 19 21  1  0
M  END
$$$$
