SHW.pdb
     RDKit          3D

 31 33  0  0  1  0  0  0  0  0999 V2000
    8.2854  -19.9263   22.3149 O   0  0  0  0  0  0  0  0  0  0  0  0
    7.0528  -19.6164   21.7260 C   0  0  0  0  0  0  0  0  0  0  0  0
    7.3379  -18.7642   20.5119 C   0  0  2  0  0  0  0  0  0  0  0  0
    7.9791  -19.4748   19.4446 N   0  0  0  0  0  0  0  0  0  0  0  0
    8.1496  -17.5679   20.8740 C   0  0  0  0  0  0  0  0  0  0  0  0
    9.3729  -17.5920   20.5267 O   0  0  0  0  0  0  0  0  0  0  0  0
    7.6490  -16.4504   21.5584 N   0  0  0  0  0  0  0  0  0  0  0  0
    8.5173  -15.3614   21.9062 C   0  0  1  0  0  0  0  0  0  0  0  0
    8.0254  -14.0303   21.4348 C   0  0  0  0  0  0  0  0  0  0  0  0
    8.0780  -13.9382   19.9685 C   0  0  0  0  0  0  0  0  0  0  0  0
    6.9671  -13.7638   19.1541 C   0  0  0  0  0  0  0  0  0  0  0  0
    7.4144  -13.7276   17.8936 N   0  0  0  0  0  0  0  0  0  0  0  0
    8.7480  -13.8700   17.8699 C   0  0  0  0  0  0  0  0  0  0  0  0
    9.1452  -13.9997   19.1677 N   0  0  0  0  0  0  0  0  0  0  0  0
    8.6950  -15.3606   23.3958 C   0  0  0  0  0  0  0  0  0  0  0  0
    7.9763  -14.6323   24.1260 O   0  0  0  0  0  0  0  0  0  0  0  0
    9.6641  -16.1678   24.0397 N   0  0  0  0  0  0  0  0  0  0  0  0
    9.8983  -16.0445   25.4697 C   0  0  1  0  0  0  0  0  0  0  0  0
    8.5883  -16.4018   26.1201 C   0  0  0  0  0  0  0  0  0  0  0  0
    7.5658  -15.3714   25.9929 C   0  0  0  0  0  0  0  0  0  0  0  0
    6.2921  -15.5021   25.4292 C   0  0  0  0  0  0  0  0  0  0  0  0
    5.6846  -14.3233   25.4816 N   0  0  0  0  0  0  0  0  0  0  0  0
    6.4870  -13.4024   26.0545 C   0  0  0  0  0  0  0  0  0  0  0  0
    6.2362  -12.0555   26.3167 C   0  0  0  0  0  0  0  0  0  0  0  0
    7.2356  -11.3388   26.9387 C   0  0  0  0  0  0  0  0  0  0  0  0
    8.4332  -11.9541   27.2801 C   0  0  0  0  0  0  0  0  0  0  0  0
    8.6368  -13.2855   27.0010 C   0  0  0  0  0  0  0  0  0  0  0  0
    7.6492  -14.0364   26.3741 C   0  0  0  0  0  0  0  0  0  0  0  0
   11.0374  -16.7746   25.9674 C   0  0  0  0  0  0  0  0  0  0  0  0
   11.7335  -17.4769   25.1935 O   0  0  0  0  0  0  0  0  0  0  0  0
   11.4393  -16.7513   27.2917 O   0  0  0  0  0  0  0  0  0  0  0  0
  1  2  1  0
  3  2  1  0
  3  4  1  6
  5  7  1  0
  5  3  1  0
  6  5  2  0
  8  7  1  0
  8  9  1  1
 10  9  1  0
 11 10  2  0
 12 13  1  0
 12 11  1  0
 13 14  2  0
 14 10  1  0
 15 17  1  0
 15  8  1  0
 16 15  2  0
 18 17  1  0
 18 29  1  0
 18 19  1  1
 20 19  1  0
 21 20  2  0
 22 23  1  0
 22 21  1  0
 23 28  2  0
 24 23  1  0
 24 25  2  0
 25 26  1  0
 26 27  2  0
 28 20  1  0
 28 27  1  0
 29 31  1  0
 30 29  2  0
M  END
$$$$
