SHW.pdb
     RDKit          3D

 31 33  0  0  1  0  0  0  0  0999 V2000
    9.5152  -14.1698   20.4124 O   0  0  0  0  0  0  0  0  0  0  0  0
    9.1924  -15.2708   19.6088 C   0  0  0  0  0  0  0  0  0  0  0  0
    7.7479  -15.6174   19.8827 C   0  0  2  0  0  0  0  0  0  0  0  0
    6.8498  -14.5099   19.7346 N   0  0  0  0  0  0  0  0  0  0  0  0
    7.5866  -16.2134   21.2392 C   0  0  0  0  0  0  0  0  0  0  0  0
    6.8740  -15.5552   22.0618 O   0  0  0  0  0  0  0  0  0  0  0  0
    8.1636  -17.4264   21.6435 N   0  0  0  0  0  0  0  0  0  0  0  0
    7.9271  -17.9403   22.9629 C   0  0  1  0  0  0  0  0  0  0  0  0
    8.0698  -19.4256   23.0608 C   0  0  0  0  0  0  0  0  0  0  0  0
    7.7593  -19.8963   24.4184 C   0  0  0  0  0  0  0  0  0  0  0  0
    8.6728  -20.5156   25.2610 C   0  0  0  0  0  0  0  0  0  0  0  0
    8.0231  -20.7936   26.3971 N   0  0  0  0  0  0  0  0  0  0  0  0
    6.7488  -20.3828   26.3158 C   0  0  0  0  0  0  0  0  0  0  0  0
    6.6009  -19.8271   25.0795 N   0  0  0  0  0  0  0  0  0  0  0  0
    8.8698  -17.2565   23.9085 C   0  0  0  0  0  0  0  0  0  0  0  0
    9.9851  -16.8365   23.5087 O   0  0  0  0  0  0  0  0  0  0  0  0
    8.5530  -17.0539   25.2737 N   0  0  0  0  0  0  0  0  0  0  0  0
    9.5064  -16.4170   26.1682 C   0  0  1  0  0  0  0  0  0  0  0  0
    8.6744  -15.7835   27.2514 C   0  0  0  0  0  0  0  0  0  0  0  0
    7.5928  -14.9451   26.7507 C   0  0  0  0  0  0  0  0  0  0  0  0
    6.3143  -15.3523   26.3551 C   0  0  0  0  0  0  0  0  0  0  0  0
    5.6434  -14.2871   25.9351 N   0  0  0  0  0  0  0  0  0  0  0  0
    6.4075  -13.1792   26.0287 C   0  0  0  0  0  0  0  0  0  0  0  0
    6.0886  -11.8590   25.7112 C   0  0  0  0  0  0  0  0  0  0  0  0
    7.0620  -10.9073   25.9261 C   0  0  0  0  0  0  0  0  0  0  0  0
    8.3007  -11.2724   26.4378 C   0  0  0  0  0  0  0  0  0  0  0  0
    8.5711  -12.5877   26.7357 C   0  0  0  0  0  0  0  0  0  0  0  0
    7.6113  -13.5720   26.5303 C   0  0  0  0  0  0  0  0  0  0  0  0
   10.5643  -17.2733   26.6437 C   0  0  0  0  0  0  0  0  0  0  0  0
   10.5566  -18.5018   26.3842 O   0  0  0  0  0  0  0  0  0  0  0  0
   11.6360  -16.8182   27.3921 O   0  0  0  0  0  0  0  0  0  0  0  0
  1  2  1  0
  3  2  1  0
  3  4  1  1
  5  7  1  0
  5  3  1  0
  6  5  2  0
  8  7  1  0
  8  9  1  6
 10  9  1  0
 11 10  2  0
 12 13  1  0
 12 11  1  0
 13 14  2  0
 14 10  1  0
 15 17  1  0
 15  8  1  0
 16 15  2  0
 18 17  1  0
 18 29  1  0
 18 19  1  1
 20 19  1  0
 21 20  2  0
 22 23  1  0
 22 21  1  0
 23 28  2  0
 24 23  1  0
 24 25  2  0
 25 26  1  0
 26 27  2  0
 28 20  1  0
 28 27  1  0
 29 31  1  0
 30 29  2  0
M  END
$$$$
