SHW.pdb
     RDKit          3D

 31 33  0  0  1  0  0  0  0  0999 V2000
   10.5841  -12.7471   18.9160 O   0  0  0  0  0  0  0  0  0  0  0  0
   10.2751  -13.9342   18.2397 C   0  0  0  0  0  0  0  0  0  0  0  0
    8.7757  -14.1064   18.2988 C   0  0  2  0  0  0  0  0  0  0  0  0
    8.0559  -12.8713   18.4063 N   0  0  0  0  0  0  0  0  0  0  0  0
    8.3827  -15.0124   19.4150 C   0  0  0  0  0  0  0  0  0  0  0  0
    7.6514  -14.5029   20.3223 O   0  0  0  0  0  0  0  0  0  0  0  0
    8.7672  -16.3578   19.5140 N   0  0  0  0  0  0  0  0  0  0  0  0
    8.4221  -17.1294   20.6743 C   0  0  1  0  0  0  0  0  0  0  0  0
    8.5411  -18.6057   20.4680 C   0  0  0  0  0  0  0  0  0  0  0  0
    8.2986  -19.3341   21.7217 C   0  0  0  0  0  0  0  0  0  0  0  0
    9.2816  -19.9932   22.4476 C   0  0  0  0  0  0  0  0  0  0  0  0
    8.6791  -20.5292   23.5153 N   0  0  0  0  0  0  0  0  0  0  0  0
    7.3686  -20.2432   23.5011 C   0  0  0  0  0  0  0  0  0  0  0  0
    7.1482  -19.4997   22.3797 N   0  0  0  0  0  0  0  0  0  0  0  0
    9.2946  -16.6838   21.8103 C   0  0  0  0  0  0  0  0  0  0  0  0
   10.4970  -16.3760   21.6117 O   0  0  0  0  0  0  0  0  0  0  0  0
    8.8128  -16.5890   23.1385 N   0  0  0  0  0  0  0  0  0  0  0  0
    9.6880  -16.1507   24.2140 C   0  0  1  0  0  0  0  0  0  0  0  0
    9.3272  -14.7096   24.4589 C   0  0  0  0  0  0  0  0  0  0  0  0
    8.0373  -14.5269   25.1116 C   0  0  0  0  0  0  0  0  0  0  0  0
    7.0123  -15.4691   25.2488 C   0  0  0  0  0  0  0  0  0  0  0  0
    5.9944  -14.8964   25.8788 N   0  0  0  0  0  0  0  0  0  0  0  0
    6.2829  -13.6122   26.1746 C   0  0  0  0  0  0  0  0  0  0  0  0
    5.5054  -12.6649   26.8409 C   0  0  0  0  0  0  0  0  0  0  0  0
    6.0589  -11.4170   27.0301 C   0  0  0  0  0  0  0  0  0  0  0  0
    7.3387  -11.1387   26.5673 C   0  0  0  0  0  0  0  0  0  0  0  0
    8.0688  -12.1043   25.9143 C   0  0  0  0  0  0  0  0  0  0  0  0
    7.5394  -13.3727   25.7069 C   0  0  0  0  0  0  0  0  0  0  0  0
    9.6747  -16.9838   25.3905 C   0  0  0  0  0  0  0  0  0  0  0  0
    8.7744  -17.8437   25.5539 O   0  0  0  0  0  0  0  0  0  0  0  0
   10.6266  -16.9046   26.3923 O   0  0  0  0  0  0  0  0  0  0  0  0
  1  2  1  0
  3  2  1  0
  3  4  1  1
  5  7  1  0
  5  3  1  0
  6  5  2  0
  8  7  1  0
  8  9  1  6
 10  9  1  0
 11 10  2  0
 12 13  1  0
 12 11  1  0
 13 14  2  0
 14 10  1  0
 15 17  1  0
 15  8  1  0
 16 15  2  0
 18 17  1  0
 18 29  1  0
 18 19  1  1
 20 19  1  0
 21 20  2  0
 22 23  1  0
 22 21  1  0
 23 28  2  0
 24 23  1  0
 24 25  2  0
 25 26  1  0
 26 27  2  0
 28 20  1  0
 28 27  1  0
 29 31  1  0
 30 29  2  0
M  END
$$$$
