SHW.pdb
     RDKit          3D

 31 33  0  0  1  0  0  0  0  0999 V2000
    9.8569  -11.9481   18.9935 O   0  0  0  0  0  0  0  0  0  0  0  0
   10.0577  -13.3205   19.1897 C   0  0  0  0  0  0  0  0  0  0  0  0
    8.7158  -13.9964   19.0350 C   0  0  2  0  0  0  0  0  0  0  0  0
    7.6097  -13.0849   19.0039 N   0  0  0  0  0  0  0  0  0  0  0  0
    8.4981  -15.0097   20.1060 C   0  0  0  0  0  0  0  0  0  0  0  0
    7.6484  -14.7069   21.0026 O   0  0  0  0  0  0  0  0  0  0  0  0
    9.1630  -16.2430   20.1745 N   0  0  0  0  0  0  0  0  0  0  0  0
    8.8398  -17.1872   21.2063 C   0  0  1  0  0  0  0  0  0  0  0  0
    9.0206  -18.6124   20.7910 C   0  0  0  0  0  0  0  0  0  0  0  0
    8.1224  -18.9550   19.6787 C   0  0  0  0  0  0  0  0  0  0  0  0
    6.7399  -19.0291   19.7825 C   0  0  0  0  0  0  0  0  0  0  0  0
    6.2793  -19.3640   18.5717 N   0  0  0  0  0  0  0  0  0  0  0  0
    7.2978  -19.5050   17.7102 C   0  0  0  0  0  0  0  0  0  0  0  0
    8.4367  -19.2473   18.4140 N   0  0  0  0  0  0  0  0  0  0  0  0
    9.6837  -16.8768   22.4071 C   0  0  0  0  0  0  0  0  0  0  0  0
   10.7867  -16.2875   22.2796 O   0  0  0  0  0  0  0  0  0  0  0  0
    9.2840  -17.2261   23.7199 N   0  0  0  0  0  0  0  0  0  0  0  0
    9.8712  -16.5632   24.8735 C   0  0  1  0  0  0  0  0  0  0  0  0
    9.5223  -15.1070   24.7165 C   0  0  0  0  0  0  0  0  0  0  0  0
    8.2146  -14.7523   25.2527 C   0  0  0  0  0  0  0  0  0  0  0  0
    7.0818  -15.5684   25.3415 C   0  0  0  0  0  0  0  0  0  0  0  0
    6.0895  -14.8575   25.8622 N   0  0  0  0  0  0  0  0  0  0  0  0
    6.4980  -13.5999   26.1302 C   0  0  0  0  0  0  0  0  0  0  0  0
    5.7837  -12.5419   26.6923 C   0  0  0  0  0  0  0  0  0  0  0  0
    6.4588  -11.3548   26.8775 C   0  0  0  0  0  0  0  0  0  0  0  0
    7.7940  -11.2415   26.5115 C   0  0  0  0  0  0  0  0  0  0  0  0
    8.4584  -12.3119   25.9594 C   0  0  0  0  0  0  0  0  0  0  0  0
    7.8062  -13.5230   25.7590 C   0  0  0  0  0  0  0  0  0  0  0  0
    9.5195  -17.1330   26.1503 C   0  0  0  0  0  0  0  0  0  0  0  0
    8.5647  -17.9428   26.2468 O   0  0  0  0  0  0  0  0  0  0  0  0
   10.1908  -16.8441   27.3257 O   0  0  0  0  0  0  0  0  0  0  0  0
  1  2  1  0
  3  2  1  0
  3  4  1  1
  5  7  1  0
  5  3  1  0
  6  5  2  0
  8  7  1  0
  8  9  1  6
 10  9  1  0
 11 10  2  0
 12 13  1  0
 12 11  1  0
 13 14  2  0
 14 10  1  0
 15 17  1  0
 15  8  1  0
 16 15  2  0
 18 17  1  0
 18 29  1  0
 18 19  1  1
 20 19  1  0
 21 20  2  0
 22 23  1  0
 22 21  1  0
 23 28  2  0
 24 23  1  0
 24 25  2  0
 25 26  1  0
 26 27  2  0
 28 20  1  0
 28 27  1  0
 29 31  1  0
 30 29  2  0
M  END
$$$$
