SHW.pdb
     RDKit          3D

 31 33  0  0  1  0  0  0  0  0999 V2000
    9.5134  -19.2428   21.6822 O   0  0  0  0  0  0  0  0  0  0  0  0
    8.6379  -19.4401   20.6068 C   0  0  0  0  0  0  0  0  0  0  0  0
    9.1197  -18.5689   19.4708 C   0  0  2  0  0  0  0  0  0  0  0  0
   10.2464  -19.1078   18.7671 N   0  0  0  0  0  0  0  0  0  0  0  0
    9.4394  -17.1935   19.9472 C   0  0  0  0  0  0  0  0  0  0  0  0
   10.6696  -16.9384   20.1452 O   0  0  0  0  0  0  0  0  0  0  0  0
    8.4819  -16.1956   20.1822 N   0  0  0  0  0  0  0  0  0  0  0  0
    8.8898  -14.8560   20.4980 C   0  0  1  0  0  0  0  0  0  0  0  0
    8.0309  -13.8053   19.8699 C   0  0  0  0  0  0  0  0  0  0  0  0
    8.0792  -13.8928   18.4031 C   0  0  0  0  0  0  0  0  0  0  0  0
    8.8936  -14.7679   17.6969 C   0  0  0  0  0  0  0  0  0  0  0  0
    8.6570  -14.5522   16.3978 N   0  0  0  0  0  0  0  0  0  0  0  0
    7.7369  -13.5877   16.2474 C   0  0  0  0  0  0  0  0  0  0  0  0
    7.3879  -13.1883   17.5034 N   0  0  0  0  0  0  0  0  0  0  0  0
    8.8976  -14.7077   21.9907 C   0  0  0  0  0  0  0  0  0  0  0  0
    8.1480  -13.8711   22.5550 O   0  0  0  0  0  0  0  0  0  0  0  0
    9.7351  -15.4909   22.8217 N   0  0  0  0  0  0  0  0  0  0  0  0
    9.4116  -15.6851   24.2262 C   0  0  1  0  0  0  0  0  0  0  0  0
    7.9366  -15.9857   24.2573 C   0  0  0  0  0  0  0  0  0  0  0  0
    7.1881  -15.1706   25.2053 C   0  0  0  0  0  0  0  0  0  0  0  0
    6.0871  -15.5580   25.9766 C   0  0  0  0  0  0  0  0  0  0  0  0
    5.6805  -14.5128   26.6863 N   0  0  0  0  0  0  0  0  0  0  0  0
    6.4548  -13.4377   26.4318 C   0  0  0  0  0  0  0  0  0  0  0  0
    6.3844  -12.1532   26.9709 C   0  0  0  0  0  0  0  0  0  0  0  0
    7.3247  -11.2398   26.5456 C   0  0  0  0  0  0  0  0  0  0  0  0
    8.2915  -11.6069   25.6182 C   0  0  0  0  0  0  0  0  0  0  0  0
    8.3220  -12.8858   25.1127 C   0  0  0  0  0  0  0  0  0  0  0  0
    7.3877  -13.8307   25.5206 C   0  0  0  0  0  0  0  0  0  0  0  0
   10.2371  -16.6447   24.9162 C   0  0  0  0  0  0  0  0  0  0  0  0
   10.4459  -16.5373   26.1498 O   0  0  0  0  0  0  0  0  0  0  0  0
   10.8362  -17.7248   24.2915 O   0  0  0  0  0  0  0  0  0  0  0  0
  1  2  1  0
  3  2  1  0
  3  4  1  1
  5  7  1  0
  5  3  1  0
  6  5  2  0
  8  7  1  0
  8  9  1  6
 10  9  1  0
 11 10  2  0
 12 13  1  0
 12 11  1  0
 13 14  2  0
 14 10  1  0
 15 17  1  0
 15  8  1  0
 16 15  2  0
 18 17  1  0
 18 29  1  0
 18 19  1  6
 20 19  1  0
 21 20  2  0
 22 23  1  0
 22 21  1  0
 23 28  2  0
 24 23  1  0
 24 25  2  0
 25 26  1  0
 26 27  2  0
 28 20  1  0
 28 27  1  0
 29 31  1  0
 30 29  2  0
M  END
$$$$
