SHW.pdb
     RDKit          3D

 31 33  0  0  1  0  0  0  0  0999 V2000
   10.0153  -19.1820   21.7511 O   0  0  0  0  0  0  0  0  0  0  0  0
    8.9338  -19.3410   20.8752 C   0  0  0  0  0  0  0  0  0  0  0  0
    9.1709  -18.4234   19.6990 C   0  0  2  0  0  0  0  0  0  0  0  0
   10.2659  -18.8242   18.8650 N   0  0  0  0  0  0  0  0  0  0  0  0
    9.3735  -17.0167   20.1476 C   0  0  0  0  0  0  0  0  0  0  0  0
   10.5491  -16.5489   20.0189 O   0  0  0  0  0  0  0  0  0  0  0  0
    8.3645  -16.2065   20.6891 N   0  0  0  0  0  0  0  0  0  0  0  0
    8.6711  -14.8921   21.1780 C   0  0  1  0  0  0  0  0  0  0  0  0
    7.7014  -13.8458   20.7296 C   0  0  0  0  0  0  0  0  0  0  0  0
    7.7586  -13.6646   19.2718 C   0  0  0  0  0  0  0  0  0  0  0  0
    8.3964  -12.6065   18.6383 C   0  0  0  0  0  0  0  0  0  0  0  0
    8.2323  -12.7887   17.3229 N   0  0  0  0  0  0  0  0  0  0  0  0
    7.5250  -13.9051   17.0935 C   0  0  0  0  0  0  0  0  0  0  0  0
    7.2383  -14.4380   18.3152 N   0  0  0  0  0  0  0  0  0  0  0  0
    8.7286  -14.9505   22.6759 C   0  0  0  0  0  0  0  0  0  0  0  0
    7.8737  -14.3482   23.3735 O   0  0  0  0  0  0  0  0  0  0  0  0
    9.7313  -15.6758   23.3641 N   0  0  0  0  0  0  0  0  0  0  0  0
    9.7334  -15.7398   24.8170 C   0  0  1  0  0  0  0  0  0  0  0  0
    8.4158  -16.3656   25.1900 C   0  0  0  0  0  0  0  0  0  0  0  0
    7.4049  -15.4052   25.6130 C   0  0  0  0  0  0  0  0  0  0  0  0
    6.0158  -15.5704   25.5989 C   0  0  0  0  0  0  0  0  0  0  0  0
    5.4533  -14.4507   26.0359 N   0  0  0  0  0  0  0  0  0  0  0  0
    6.3962  -13.5367   26.3453 C   0  0  0  0  0  0  0  0  0  0  0  0
    6.2406  -12.2455   26.8494 C   0  0  0  0  0  0  0  0  0  0  0  0
    7.3885  -11.5248   27.0990 C   0  0  0  0  0  0  0  0  0  0  0  0
    8.6361  -12.0825   26.8505 C   0  0  0  0  0  0  0  0  0  0  0  0
    8.7414  -13.3601   26.3520 C   0  0  0  0  0  0  0  0  0  0  0  0
    7.6032  -14.1134   26.0890 C   0  0  0  0  0  0  0  0  0  0  0  0
   10.8890  -16.3757   25.3989 C   0  0  0  0  0  0  0  0  0  0  0  0
   11.7389  -16.9451   24.6708 O   0  0  0  0  0  0  0  0  0  0  0  0
   11.1426  -16.3993   26.7594 O   0  0  0  0  0  0  0  0  0  0  0  0
  1  2  1  0
  3  2  1  0
  3  4  1  1
  5  7  1  0
  5  3  1  0
  6  5  2  0
  8  7  1  0
  8  9  1  1
 10  9  1  0
 11 10  2  0
 12 13  1  0
 12 11  1  0
 13 14  2  0
 14 10  1  0
 15 17  1  0
 15  8  1  0
 16 15  2  0
 18 17  1  0
 18 29  1  0
 18 19  1  6
 20 19  1  0
 21 20  2  0
 22 23  1  0
 22 21  1  0
 23 28  2  0
 24 23  1  0
 24 25  2  0
 25 26  1  0
 26 27  2  0
 28 20  1  0
 28 27  1  0
 29 31  1  0
 30 29  2  0
M  END
$$$$
