SHW.pdb
     RDKit          3D

 31 33  0  0  1  0  0  0  0  0999 V2000
    8.8346  -19.8243   21.8288 O   0  0  0  0  0  0  0  0  0  0  0  0
    7.6393  -19.4780   21.1860 C   0  0  0  0  0  0  0  0  0  0  0  0
    8.0084  -18.7600   19.9094 C   0  0  2  0  0  0  0  0  0  0  0  0
    8.6882  -19.5878   18.9566 N   0  0  0  0  0  0  0  0  0  0  0  0
    8.8280  -17.5479   20.1927 C   0  0  0  0  0  0  0  0  0  0  0  0
   10.0440  -17.5919   19.8226 O   0  0  0  0  0  0  0  0  0  0  0  0
    8.3420  -16.3958   20.8285 N   0  0  0  0  0  0  0  0  0  0  0  0
    9.1970  -15.2601   21.0288 C   0  0  1  0  0  0  0  0  0  0  0  0
    8.5093  -13.9491   20.8178 C   0  0  0  0  0  0  0  0  0  0  0  0
    8.1540  -13.7622   19.4036 C   0  0  0  0  0  0  0  0  0  0  0  0
    8.7638  -12.8461   18.5570 C   0  0  0  0  0  0  0  0  0  0  0  0
    8.1741  -12.9722   17.3626 N   0  0  0  0  0  0  0  0  0  0  0  0
    7.2249  -13.9189   17.4111 C   0  0  0  0  0  0  0  0  0  0  0  0
    7.2251  -14.4002   18.6867 N   0  0  0  0  0  0  0  0  0  0  0  0
    9.7660  -15.3401   22.4146 C   0  0  0  0  0  0  0  0  0  0  0  0
   10.6394  -14.5207   22.7964 O   0  0  0  0  0  0  0  0  0  0  0  0
    9.3522  -16.3254   23.3436 N   0  0  0  0  0  0  0  0  0  0  0  0
    9.8693  -16.3249   24.7028 C   0  0  1  0  0  0  0  0  0  0  0  0
    9.5401  -14.9629   25.2538 C   0  0  0  0  0  0  0  0  0  0  0  0
    8.1237  -14.7665   25.5345 C   0  0  0  0  0  0  0  0  0  0  0  0
    7.0912  -15.6997   25.3933 C   0  0  0  0  0  0  0  0  0  0  0  0
    5.9464  -15.1156   25.7243 N   0  0  0  0  0  0  0  0  0  0  0  0
    6.1563  -13.8322   26.0832 C   0  0  0  0  0  0  0  0  0  0  0  0
    5.2369  -12.8753   26.5129 C   0  0  0  0  0  0  0  0  0  0  0  0
    5.7304  -11.6309   26.8405 C   0  0  0  0  0  0  0  0  0  0  0  0
    7.0900  -11.3652   26.7386 C   0  0  0  0  0  0  0  0  0  0  0  0
    7.9601  -12.3400   26.3091 C   0  0  0  0  0  0  0  0  0  0  0  0
    7.4945  -13.6052   25.9704 C   0  0  0  0  0  0  0  0  0  0  0  0
    9.4341  -17.4281   25.5226 C   0  0  0  0  0  0  0  0  0  0  0  0
    8.5607  -18.2280   25.1054 O   0  0  0  0  0  0  0  0  0  0  0  0
    9.9354  -17.6830   26.7873 O   0  0  0  0  0  0  0  0  0  0  0  0
  1  2  1  0
  3  2  1  0
  3  4  1  6
  5  7  1  0
  5  3  1  0
  6  5  2  0
  8  7  1  0
  8  9  1  1
 10  9  1  0
 11 10  2  0
 12 13  1  0
 12 11  1  0
 13 14  2  0
 14 10  1  0
 15 17  1  0
 15  8  1  0
 16 15  2  0
 18 17  1  0
 18 29  1  0
 18 19  1  1
 20 19  1  0
 21 20  2  0
 22 23  1  0
 22 21  1  0
 23 28  2  0
 24 23  1  0
 24 25  2  0
 25 26  1  0
 26 27  2  0
 28 20  1  0
 28 27  1  0
 29 31  1  0
 30 29  2  0
M  END
$$$$
