SHW.pdb
     RDKit          3D

 31 33  0  0  1  0  0  0  0  0999 V2000
    9.3067  -12.6565   21.0729 O   0  0  0  0  0  0  0  0  0  0  0  0
    9.2986  -12.9458   19.7024 C   0  0  0  0  0  0  0  0  0  0  0  0
    8.3113  -14.0685   19.4870 C   0  0  2  0  0  0  0  0  0  0  0  0
    6.9413  -13.6472   19.5187 N   0  0  0  0  0  0  0  0  0  0  0  0
    8.5199  -15.1642   20.4754 C   0  0  0  0  0  0  0  0  0  0  0  0
    7.6213  -15.2976   21.3655 O   0  0  0  0  0  0  0  0  0  0  0  0
    9.6239  -16.0297   20.4750 N   0  0  0  0  0  0  0  0  0  0  0  0
    9.6867  -17.1288   21.3962 C   0  0  1  0  0  0  0  0  0  0  0  0
   10.4310  -18.3123   20.8655 C   0  0  0  0  0  0  0  0  0  0  0  0
    9.6814  -18.9630   19.7810 C   0  0  0  0  0  0  0  0  0  0  0  0
    8.5229  -19.7057   19.9653 C   0  0  0  0  0  0  0  0  0  0  0  0
    8.1399  -20.1302   18.7556 N   0  0  0  0  0  0  0  0  0  0  0  0
    8.9953  -19.6948   17.8185 C   0  0  0  0  0  0  0  0  0  0  0  0
    9.9478  -18.9707   18.4723 N   0  0  0  0  0  0  0  0  0  0  0  0
   10.3130  -16.6393   22.6685 C   0  0  0  0  0  0  0  0  0  0  0  0
   11.5204  -16.2907   22.6950 O   0  0  0  0  0  0  0  0  0  0  0  0
    9.5855  -16.5470   23.8798 N   0  0  0  0  0  0  0  0  0  0  0  0
   10.2502  -16.1632   25.1151 C   0  0  1  0  0  0  0  0  0  0  0  0
    9.8454  -14.7335   25.3576 C   0  0  0  0  0  0  0  0  0  0  0  0
    8.4225  -14.5592   25.6188 C   0  0  0  0  0  0  0  0  0  0  0  0
    7.4319  -15.5470   25.6271 C   0  0  0  0  0  0  0  0  0  0  0  0
    6.2632  -14.9704   25.8780 N   0  0  0  0  0  0  0  0  0  0  0  0
    6.4170  -13.6399   26.0403 C   0  0  0  0  0  0  0  0  0  0  0  0
    5.4571  -12.6706   26.3313 C   0  0  0  0  0  0  0  0  0  0  0  0
    5.8958  -11.3710   26.4660 C   0  0  0  0  0  0  0  0  0  0  0  0
    7.2421  -11.0647   26.3135 C   0  0  0  0  0  0  0  0  0  0  0  0
    8.1534  -12.0539   26.0257 C   0  0  0  0  0  0  0  0  0  0  0  0
    7.7435  -13.3744   25.8830 C   0  0  0  0  0  0  0  0  0  0  0  0
   10.0276  -17.0501   26.2297 C   0  0  0  0  0  0  0  0  0  0  0  0
   10.5575  -16.8199   27.3446 O   0  0  0  0  0  0  0  0  0  0  0  0
    9.2335  -18.1815   26.1578 O   0  0  0  0  0  0  0  0  0  0  0  0
  1  2  1  0
  3  2  1  0
  3  4  1  1
  5  7  1  0
  5  3  1  0
  6  5  2  0
  8  7  1  0
  8  9  1  6
 10  9  1  0
 11 10  2  0
 12 13  1  0
 12 11  1  0
 13 14  2  0
 14 10  1  0
 15 17  1  0
 15  8  1  0
 16 15  2  0
 18 17  1  0
 18 29  1  0
 18 19  1  1
 20 19  1  0
 21 20  2  0
 22 23  1  0
 22 21  1  0
 23 28  2  0
 24 23  1  0
 24 25  2  0
 25 26  1  0
 26 27  2  0
 28 20  1  0
 28 27  1  0
 29 31  1  0
 30 29  2  0
M  END
$$$$
