SHW.pdb
     RDKit          3D

 31 33  0  0  1  0  0  0  0  0999 V2000
    6.4616  -18.5409   23.2896 O   0  0  0  0  0  0  0  0  0  0  0  0
    5.5291  -17.7107   22.6546 C   0  0  0  0  0  0  0  0  0  0  0  0
    5.9816  -17.5407   21.2235 C   0  0  2  0  0  0  0  0  0  0  0  0
    5.7436  -18.6909   20.4017 N   0  0  0  0  0  0  0  0  0  0  0  0
    7.4232  -17.1687   21.1567 C   0  0  0  0  0  0  0  0  0  0  0  0
    8.2352  -18.1097   20.8870 O   0  0  0  0  0  0  0  0  0  0  0  0
    7.9161  -15.8728   21.3705 N   0  0  0  0  0  0  0  0  0  0  0  0
    9.3294  -15.6212   21.3601 C   0  0  1  0  0  0  0  0  0  0  0  0
    9.7049  -14.3459   20.6756 C   0  0  0  0  0  0  0  0  0  0  0  0
    8.9471  -14.1749   19.4274 C   0  0  0  0  0  0  0  0  0  0  0  0
    8.0255  -15.0912   18.9387 C   0  0  0  0  0  0  0  0  0  0  0  0
    7.5502  -14.5875   17.7939 N   0  0  0  0  0  0  0  0  0  0  0  0
    8.1232  -13.4026   17.5348 C   0  0  0  0  0  0  0  0  0  0  0  0
    8.9890  -13.1604   18.5598 N   0  0  0  0  0  0  0  0  0  0  0  0
    9.8161  -15.6212   22.7791 C   0  0  0  0  0  0  0  0  0  0  0  0
   10.5501  -14.6934   23.2042 O   0  0  0  0  0  0  0  0  0  0  0  0
    9.4766  -16.6486   23.6925 N   0  0  0  0  0  0  0  0  0  0  0  0
   10.0606  -16.6780   25.0241 C   0  0  1  0  0  0  0  0  0  0  0  0
    9.8112  -15.3089   25.5987 C   0  0  0  0  0  0  0  0  0  0  0  0
    8.4012  -14.9497   25.6772 C   0  0  0  0  0  0  0  0  0  0  0  0
    7.2979  -15.7826   25.4620 C   0  0  0  0  0  0  0  0  0  0  0  0
    6.1921  -15.0622   25.6008 N   0  0  0  0  0  0  0  0  0  0  0  0
    6.4955  -13.7822   25.9005 C   0  0  0  0  0  0  0  0  0  0  0  0
    5.6405  -12.7071   26.1425 C   0  0  0  0  0  0  0  0  0  0  0  0
    6.2231  -11.4968   26.4511 C   0  0  0  0  0  0  0  0  0  0  0  0
    7.6057  -11.3780   26.5121 C   0  0  0  0  0  0  0  0  0  0  0  0
    8.4101  -12.4660   26.2649 C   0  0  0  0  0  0  0  0  0  0  0  0
    7.8541  -13.7005   25.9505 C   0  0  0  0  0  0  0  0  0  0  0  0
    9.6252  -17.7704   25.8582 C   0  0  0  0  0  0  0  0  0  0  0  0
    8.7227  -18.5514   25.4679 O   0  0  0  0  0  0  0  0  0  0  0  0
   10.1571  -18.0347   27.1083 O   0  0  0  0  0  0  0  0  0  0  0  0
  1  2  1  0
  3  2  1  0
  3  4  1  6
  5  7  1  0
  5  3  1  0
  6  5  2  0
  8  7  1  0
  8  9  1  1
 10  9  1  0
 11 10  2  0
 12 13  1  0
 12 11  1  0
 13 14  2  0
 14 10  1  0
 15 17  1  0
 15  8  1  0
 16 15  2  0
 18 17  1  0
 18 29  1  0
 18 19  1  1
 20 19  1  0
 21 20  2  0
 22 23  1  0
 22 21  1  0
 23 28  2  0
 24 23  1  0
 24 25  2  0
 25 26  1  0
 26 27  2  0
 28 20  1  0
 28 27  1  0
 29 31  1  0
 30 29  2  0
M  END
$$$$
