SHW.pdb
     RDKit          3D

 31 33  0  0  1  0  0  0  0  0999 V2000
   12.7511  -19.1124   21.0248 O   0  0  0  0  0  0  0  0  0  0  0  0
   11.8802  -19.1602   19.9288 C   0  0  0  0  0  0  0  0  0  0  0  0
   11.8655  -17.7834   19.3076 C   0  0  2  0  0  0  0  0  0  0  0  0
   13.1515  -17.3396   18.8556 N   0  0  0  0  0  0  0  0  0  0  0  0
   11.2909  -16.7774   20.2450 C   0  0  0  0  0  0  0  0  0  0  0  0
   12.1241  -16.0251   20.8428 O   0  0  0  0  0  0  0  0  0  0  0  0
    9.9192  -16.6226   20.4951 N   0  0  0  0  0  0  0  0  0  0  0  0
    9.4619  -15.7014   21.4966 C   0  0  1  0  0  0  0  0  0  0  0  0
    8.0422  -15.2705   21.3093 C   0  0  0  0  0  0  0  0  0  0  0  0
    7.8743  -14.5466   20.0409 C   0  0  0  0  0  0  0  0  0  0  0  0
    8.1786  -13.2042   19.8587 C   0  0  0  0  0  0  0  0  0  0  0  0
    7.8946  -12.9136   18.5838 N   0  0  0  0  0  0  0  0  0  0  0  0
    7.4274  -14.0011   17.9527 C   0  0  0  0  0  0  0  0  0  0  0  0
    7.4210  -15.0078   18.8722 N   0  0  0  0  0  0  0  0  0  0  0  0
    9.6459  -16.3408   22.8411 C   0  0  0  0  0  0  0  0  0  0  0  0
    9.8315  -17.5801   22.9407 O   0  0  0  0  0  0  0  0  0  0  0  0
    9.6210  -15.5911   24.0421 N   0  0  0  0  0  0  0  0  0  0  0  0
    9.6912  -16.2578   25.3326 C   0  0  1  0  0  0  0  0  0  0  0  0
    9.3294  -15.2043   26.3455 C   0  0  0  0  0  0  0  0  0  0  0  0
    8.0011  -14.6356   26.1568 C   0  0  0  0  0  0  0  0  0  0  0  0
    6.8426  -15.3002   25.7405 C   0  0  0  0  0  0  0  0  0  0  0  0
    5.8536  -14.4183   25.6672 N   0  0  0  0  0  0  0  0  0  0  0  0
    6.2885  -13.1894   26.0149 C   0  0  0  0  0  0  0  0  0  0  0  0
    5.5782  -11.9912   26.0891 C   0  0  0  0  0  0  0  0  0  0  0  0
    6.2718  -10.8728   26.4982 C   0  0  0  0  0  0  0  0  0  0  0  0
    7.6208  -10.9605   26.8175 C   0  0  0  0  0  0  0  0  0  0  0  0
    8.2809  -12.1640   26.7287 C   0  0  0  0  0  0  0  0  0  0  0  0
    7.6105  -13.3106   26.3189 C   0  0  0  0  0  0  0  0  0  0  0  0
    8.9286  -17.4773   25.4326 C   0  0  0  0  0  0  0  0  0  0  0  0
    8.0302  -17.7390   24.5952 O   0  0  0  0  0  0  0  0  0  0  0  0
    9.1281  -18.4228   26.4235 O   0  0  0  0  0  0  0  0  0  0  0  0
  1  2  1  0
  3  2  1  0
  3  4  1  1
  5  7  1  0
  5  3  1  0
  6  5  2  0
  8  7  1  0
  8  9  1  6
 10  9  1  0
 11 10  2  0
 12 13  1  0
 12 11  1  0
 13 14  2  0
 14 10  1  0
 15 17  1  0
 15  8  1  0
 16 15  2  0
 18 17  1  0
 18 29  1  0
 18 19  1  1
 20 19  1  0
 21 20  2  0
 22 23  1  0
 22 21  1  0
 23 28  2  0
 24 23  1  0
 24 25  2  0
 25 26  1  0
 26 27  2  0
 28 20  1  0
 28 27  1  0
 29 31  1  0
 30 29  2  0
M  END
$$$$
