SHW.pdb
     RDKit          3D

 31 33  0  0  1  0  0  0  0  0999 V2000
    5.9136  -15.3575   21.6793 O   0  0  0  0  0  0  0  0  0  0  0  0
    6.0543  -15.6096   20.3087 C   0  0  0  0  0  0  0  0  0  0  0  0
    7.5042  -15.3749   19.9562 C   0  0  2  0  0  0  0  0  0  0  0  0
    7.7978  -15.5588   18.5651 N   0  0  0  0  0  0  0  0  0  0  0  0
    8.4023  -16.2378   20.7747 C   0  0  0  0  0  0  0  0  0  0  0  0
    8.3031  -17.4917   20.5860 O   0  0  0  0  0  0  0  0  0  0  0  0
    9.3234  -15.7528   21.7150 N   0  0  0  0  0  0  0  0  0  0  0  0
   10.1513  -16.6606   22.4574 C   0  0  1  0  0  0  0  0  0  0  0  0
   11.5463  -16.7662   21.9295 C   0  0  0  0  0  0  0  0  0  0  0  0
   12.3228  -17.7581   22.6873 C   0  0  0  0  0  0  0  0  0  0  0  0
   13.4339  -17.4565   23.4635 C   0  0  0  0  0  0  0  0  0  0  0  0
   13.8614  -18.6098   23.9902 N   0  0  0  0  0  0  0  0  0  0  0  0
   13.0792  -19.6223   23.5874 C   0  0  0  0  0  0  0  0  0  0  0  0
   12.1275  -19.0762   22.7781 N   0  0  0  0  0  0  0  0  0  0  0  0
   10.1620  -16.2197   23.8913 C   0  0  0  0  0  0  0  0  0  0  0  0
   10.5903  -15.0811   24.2078 O   0  0  0  0  0  0  0  0  0  0  0  0
    9.6969  -17.0510   24.9390 N   0  0  0  0  0  0  0  0  0  0  0  0
    9.8541  -16.6495   26.3279 C   0  0  1  0  0  0  0  0  0  0  0  0
    8.4643  -16.6649   26.9067 C   0  0  0  0  0  0  0  0  0  0  0  0
    7.5472  -15.7323   26.2645 C   0  0  0  0  0  0  0  0  0  0  0  0
    6.5378  -16.0305   25.3428 C   0  0  0  0  0  0  0  0  0  0  0  0
    5.9513  -14.8973   24.9782 N   0  0  0  0  0  0  0  0  0  0  0  0
    6.5157  -13.8474   25.6102 C   0  0  0  0  0  0  0  0  0  0  0  0
    6.1946  -12.4925   25.5281 C   0  0  0  0  0  0  0  0  0  0  0  0
    6.9274  -11.6238   26.3077 C   0  0  0  0  0  0  0  0  0  0  0  0
    7.9382  -12.1016   27.1319 C   0  0  0  0  0  0  0  0  0  0  0  0
    8.2206  -13.4469   27.1798 C   0  0  0  0  0  0  0  0  0  0  0  0
    7.5005  -14.3494   26.4058 C   0  0  0  0  0  0  0  0  0  0  0  0
   10.8271  -17.4057   27.0762 C   0  0  0  0  0  0  0  0  0  0  0  0
   11.3519  -18.4348   26.5840 O   0  0  0  0  0  0  0  0  0  0  0  0
   11.2466  -17.0607   28.3493 O   0  0  0  0  0  0  0  0  0  0  0  0
  1  2  1  0
  3  2  1  0
  3  4  1  6
  5  7  1  0
  5  3  1  0
  6  5  2  0
  8  7  1  0
  8  9  1  6
 10  9  1  0
 11 10  2  0
 12 13  1  0
 12 11  1  0
 13 14  2  0
 14 10  1  0
 15 17  1  0
 15  8  1  0
 16 15  2  0
 18 17  1  0
 18 29  1  0
 18 19  1  1
 20 19  1  0
 21 20  2  0
 22 23  1  0
 22 21  1  0
 23 28  2  0
 24 23  1  0
 24 25  2  0
 25 26  1  0
 26 27  2  0
 28 20  1  0
 28 27  1  0
 29 31  1  0
 30 29  2  0
M  END
$$$$
