SHW.pdb
     RDKit          3D

 31 33  0  0  1  0  0  0  0  0999 V2000
    6.3657  -18.6841   23.5676 O   0  0  0  0  0  0  0  0  0  0  0  0
    5.4434  -18.2058   22.6281 C   0  0  0  0  0  0  0  0  0  0  0  0
    6.1372  -18.1905   21.2864 C   0  0  2  0  0  0  0  0  0  0  0  0
    6.4713  -19.4947   20.7938 N   0  0  0  0  0  0  0  0  0  0  0  0
    7.3619  -17.3421   21.3248 C   0  0  0  0  0  0  0  0  0  0  0  0
    8.4741  -17.9572   21.2781 O   0  0  0  0  0  0  0  0  0  0  0  0
    7.3513  -15.9418   21.4080 N   0  0  0  0  0  0  0  0  0  0  0  0
    8.5830  -15.2046   21.4197 C   0  0  1  0  0  0  0  0  0  0  0  0
    8.4892  -13.8724   20.7469 C   0  0  0  0  0  0  0  0  0  0  0  0
    8.3848  -14.0249   19.2884 C   0  0  0  0  0  0  0  0  0  0  0  0
    8.4759  -15.2380   18.6190 C   0  0  0  0  0  0  0  0  0  0  0  0
    8.3331  -14.9713   17.3157 N   0  0  0  0  0  0  0  0  0  0  0  0
    8.1569  -13.6549   17.1277 C   0  0  0  0  0  0  0  0  0  0  0  0
    8.1915  -13.0807   18.3638 N   0  0  0  0  0  0  0  0  0  0  0  0
    9.0209  -15.0455   22.8456 C   0  0  0  0  0  0  0  0  0  0  0  0
    8.9355  -13.9312   23.4211 O   0  0  0  0  0  0  0  0  0  0  0  0
    9.5417  -16.1253   23.5991 N   0  0  0  0  0  0  0  0  0  0  0  0
   10.0751  -15.9071   24.9344 C   0  0  1  0  0  0  0  0  0  0  0  0
    9.0015  -16.3859   25.8752 C   0  0  0  0  0  0  0  0  0  0  0  0
    7.7685  -15.6124   25.8064 C   0  0  0  0  0  0  0  0  0  0  0  0
    6.5316  -16.0267   25.3008 C   0  0  0  0  0  0  0  0  0  0  0  0
    5.6777  -15.0151   25.3937 N   0  0  0  0  0  0  0  0  0  0  0  0
    6.2784  -13.9371   25.9387 C   0  0  0  0  0  0  0  0  0  0  0  0
    5.7437  -12.6814   26.2265 C   0  0  0  0  0  0  0  0  0  0  0  0
    6.5844  -11.7578   26.8093 C   0  0  0  0  0  0  0  0  0  0  0  0
    7.9046  -12.0875   27.0884 C   0  0  0  0  0  0  0  0  0  0  0  0
    8.3891  -13.3388   26.7861 C   0  0  0  0  0  0  0  0  0  0  0  0
    7.5674  -14.2929   26.1975 C   0  0  0  0  0  0  0  0  0  0  0  0
   11.3800  -16.4724   25.1710 C   0  0  0  0  0  0  0  0  0  0  0  0
   11.9573  -17.1415   24.2790 O   0  0  0  0  0  0  0  0  0  0  0  0
   12.0740  -16.3190   26.3588 O   0  0  0  0  0  0  0  0  0  0  0  0
  1  2  1  0
  3  2  1  0
  3  4  1  1
  5  7  1  0
  5  3  1  0
  6  5  2  0
  8  7  1  0
  8  9  1  1
 10  9  1  0
 11 10  2  0
 12 13  1  0
 12 11  1  0
 13 14  2  0
 14 10  1  0
 15 17  1  0
 15  8  1  0
 16 15  2  0
 18 17  1  0
 18 29  1  0
 18 19  1  1
 20 19  1  0
 21 20  2  0
 22 23  1  0
 22 21  1  0
 23 28  2  0
 24 23  1  0
 24 25  2  0
 25 26  1  0
 26 27  2  0
 28 20  1  0
 28 27  1  0
 29 31  1  0
 30 29  2  0
M  END
$$$$
