SHW.pdb
     RDKit          3D

 31 33  0  0  1  0  0  0  0  0999 V2000
    8.9814  -19.7881   21.7732 O   0  0  0  0  0  0  0  0  0  0  0  0
    7.6602  -19.4080   21.5048 C   0  0  0  0  0  0  0  0  0  0  0  0
    7.6810  -18.5727   20.2464 C   0  0  2  0  0  0  0  0  0  0  0  0
    8.1711  -19.2733   19.0957 N   0  0  0  0  0  0  0  0  0  0  0  0
    8.4695  -17.3235   20.4440 C   0  0  0  0  0  0  0  0  0  0  0  0
    9.5669  -17.2441   19.8060 O   0  0  0  0  0  0  0  0  0  0  0  0
    8.0757  -16.2628   21.2732 N   0  0  0  0  0  0  0  0  0  0  0  0
    8.9184  -15.1115   21.4312 C   0  0  1  0  0  0  0  0  0  0  0  0
    8.2328  -13.8205   21.1158 C   0  0  0  0  0  0  0  0  0  0  0  0
    8.0346  -13.6694   19.6670 C   0  0  0  0  0  0  0  0  0  0  0  0
    8.7866  -12.8293   18.8568 C   0  0  0  0  0  0  0  0  0  0  0  0
    8.3127  -12.9664   17.6131 N   0  0  0  0  0  0  0  0  0  0  0  0
    7.3018  -13.8481   17.5961 C   0  0  0  0  0  0  0  0  0  0  0  0
    7.1415  -14.2759   18.8806 N   0  0  0  0  0  0  0  0  0  0  0  0
    9.4402  -15.1016   22.8376 C   0  0  0  0  0  0  0  0  0  0  0  0
   10.1894  -14.1742   23.2361 O   0  0  0  0  0  0  0  0  0  0  0  0
    9.1181  -16.1191   23.7683 N   0  0  0  0  0  0  0  0  0  0  0  0
    9.7890  -16.1830   25.0569 C   0  0  1  0  0  0  0  0  0  0  0  0
    8.6944  -16.4122   26.0650 C   0  0  0  0  0  0  0  0  0  0  0  0
    7.6070  -15.4455   25.9854 C   0  0  0  0  0  0  0  0  0  0  0  0
    6.3193  -15.6534   25.4799 C   0  0  0  0  0  0  0  0  0  0  0  0
    5.6450  -14.5132   25.5612 N   0  0  0  0  0  0  0  0  0  0  0  0
    6.4156  -13.5449   26.0983 C   0  0  0  0  0  0  0  0  0  0  0  0
    6.0963  -12.2152   26.3733 C   0  0  0  0  0  0  0  0  0  0  0  0
    7.0778  -11.4386   26.9504 C   0  0  0  0  0  0  0  0  0  0  0  0
    8.3245  -11.9803   27.2363 C   0  0  0  0  0  0  0  0  0  0  0  0
    8.5950  -13.2974   26.9467 C   0  0  0  0  0  0  0  0  0  0  0  0
    7.6271  -14.1074   26.3642 C   0  0  0  0  0  0  0  0  0  0  0  0
   10.8823  -17.1200   25.1307 C   0  0  0  0  0  0  0  0  0  0  0  0
   11.1306  -17.8885   24.1692 O   0  0  0  0  0  0  0  0  0  0  0  0
   11.7167  -17.2338   26.2292 O   0  0  0  0  0  0  0  0  0  0  0  0
  1  2  1  0
  3  2  1  0
  3  4  1  6
  5  7  1  0
  5  3  1  0
  6  5  2  0
  8  7  1  0
  8  9  1  1
 10  9  1  0
 11 10  2  0
 12 13  1  0
 12 11  1  0
 13 14  2  0
 14 10  1  0
 15 17  1  0
 15  8  1  0
 16 15  2  0
 18 17  1  0
 18 29  1  0
 18 19  1  1
 20 19  1  0
 21 20  2  0
 22 23  1  0
 22 21  1  0
 23 28  2  0
 24 23  1  0
 24 25  2  0
 25 26  1  0
 26 27  2  0
 28 20  1  0
 28 27  1  0
 29 31  1  0
 30 29  2  0
M  END
$$$$
