VLL.pdb
     RDKit          3D

 24 23  0  0  1  0  0  0  0  0999 V2000
   20.2010  -23.0432  -17.1912 C   0  0  0  0  0  0  0  0  0  0  0  0
   21.2912  -22.9632  -16.1515 C   0  0  2  0  0  0  0  0  0  0  0  0
   21.0412  -21.7340  -15.2997 C   0  0  0  0  0  0  0  0  0  0  0  0
   22.6449  -22.7895  -16.8158 C   0  0  2  0  0  0  0  0  0  0  0  0
   22.9023  -23.9795  -17.5987 N   0  0  0  0  0  0  0  0  0  0  0  0
   23.7330  -22.5692  -15.8539 C   0  0  0  0  0  0  0  0  0  0  0  0
   24.1242  -23.5064  -15.1270 O   0  0  0  0  0  0  0  0  0  0  0  0
   28.4194  -20.7523  -14.2209 C   0  0  0  0  0  0  0  0  0  0  0  0
   27.3872  -19.5989  -14.1619 C   0  0  1  0  0  0  0  0  0  0  0  0
   28.1757  -18.3826  -14.6322 C   0  0  0  0  0  0  0  0  0  0  0  0
   26.3054  -19.9857  -15.0968 C   0  0  0  0  0  0  0  0  0  0  0  0
   25.3540  -21.0426  -14.6780 C   0  0  2  0  0  0  0  0  0  0  0  0
   24.3957  -21.3199  -15.6861 N   0  0  0  0  0  0  0  0  0  0  0  0
   24.7844  -20.8475  -13.3316 C   0  0  0  0  0  0  0  0  0  0  0  0
   23.7666  -20.1510  -13.0806 O   0  0  0  0  0  0  0  0  0  0  0  0
   26.9383  -19.3809   -8.1346 C   0  0  0  0  0  0  0  0  0  0  0  0
   25.6988  -20.0702   -8.7049 C   0  0  2  0  0  0  0  0  0  0  0  0
   25.0241  -20.8282   -7.5941 C   0  0  0  0  0  0  0  0  0  0  0  0
   26.0690  -20.9766   -9.8425 C   0  0  0  0  0  0  0  0  0  0  0  0
   25.0097  -21.2363  -10.8409 C   0  0  2  0  0  0  0  0  0  0  0  0
   25.3911  -21.4718  -12.1861 N   0  0  0  0  0  0  0  0  0  0  0  0
   23.9748  -20.1734  -10.7047 C   0  0  0  0  0  0  0  0  0  0  0  0
   22.7382  -20.3901  -10.1304 O   0  0  0  0  0  0  0  0  0  0  0  0
   24.2423  -19.0265  -11.1333 O   0  0  0  0  0  0  0  0  0  0  0  0
  2  1  1  6
  3  2  1  0
  4  6  1  0
  4  2  1  0
  4  5  1  1
  6  7  2  0
  9  8  1  6
  9 11  1  0
  9 10  1  0
 12 11  1  6
 13 12  1  0
 13  6  1  0
 14 12  1  0
 14 15  2  0
 17 16  1  1
 17 19  1  0
 18 17  1  0
 20 19  1  1
 20 21  1  0
 20 22  1  0
 21 14  1  0
 22 24  2  0
 22 23  1  0
M  END
$$$$
