VLL.pdb
     RDKit          3D

 24 23  0  0  1  0  0  0  0  0999 V2000
   26.3641  -19.4912  -17.3501 C   0  0  0  0  0  0  0  0  0  0  0  0
   27.5494  -19.2182  -16.4575 C   0  0  2  0  0  0  0  0  0  0  0  0
   28.7095  -18.7869  -17.3331 C   0  0  0  0  0  0  0  0  0  0  0  0
   27.9706  -20.4846  -15.7343 C   0  0  2  0  0  0  0  0  0  0  0  0
   28.2101  -21.5004  -16.7373 N   0  0  0  0  0  0  0  0  0  0  0  0
   26.9705  -20.9530  -14.7659 C   0  0  0  0  0  0  0  0  0  0  0  0
   26.0684  -21.7370  -15.1283 O   0  0  0  0  0  0  0  0  0  0  0  0
   25.1709  -22.1028   -9.7939 C   0  0  0  0  0  0  0  0  0  0  0  0
   25.1890  -20.5775  -10.0636 C   0  0  1  0  0  0  0  0  0  0  0  0
   25.5944  -19.9773   -8.7229 C   0  0  0  0  0  0  0  0  0  0  0  0
   26.2055  -20.3733  -11.1215 C   0  0  0  0  0  0  0  0  0  0  0  0
   25.8636  -20.7545  -12.5128 C   0  0  2  0  0  0  0  0  0  0  0  0
   26.9564  -20.5629  -13.3963 N   0  0  0  0  0  0  0  0  0  0  0  0
   24.5840  -20.2030  -12.9961 C   0  0  0  0  0  0  0  0  0  0  0  0
   24.3475  -18.9765  -13.1501 O   0  0  0  0  0  0  0  0  0  0  0  0
   22.3591  -19.3076  -16.5846 C   0  0  0  0  0  0  0  0  0  0  0  0
   22.4775  -20.7890  -16.2264 C   0  0  2  0  0  0  0  0  0  0  0  0
   22.0421  -21.6008  -17.4160 C   0  0  0  0  0  0  0  0  0  0  0  0
   21.6568  -21.1108  -15.0117 C   0  0  0  0  0  0  0  0  0  0  0  0
   22.1987  -20.6467  -13.7166 C   0  0  2  0  0  0  0  0  0  0  0  0
   23.4929  -21.0790  -13.3309 N   0  0  0  0  0  0  0  0  0  0  0  0
   21.1663  -20.8878  -12.6700 C   0  0  0  0  0  0  0  0  0  0  0  0
   21.3979  -21.6439  -11.5383 O   0  0  0  0  0  0  0  0  0  0  0  0
   20.0322  -20.3779  -12.8267 O   0  0  0  0  0  0  0  0  0  0  0  0
  2  1  1  6
  3  2  1  0
  4  6  1  0
  4  2  1  0
  4  5  1  6
  6  7  2  0
  9  8  1  1
  9 11  1  0
  9 10  1  0
 12 11  1  1
 13 12  1  0
 13  6  1  0
 14 12  1  0
 14 15  2  0
 17 16  1  6
 17 19  1  0
 18 17  1  0
 20 19  1  6
 20 21  1  0
 20 22  1  0
 21 14  1  0
 22 24  2  0
 22 23  1  0
M  END
$$$$
