VLL.pdb
     RDKit          3D

 24 23  0  0  1  0  0  0  0  0999 V2000
   23.9110  -25.7248  -18.1001 C   0  0  0  0  0  0  0  0  0  0  0  0
   24.6100  -25.0880  -16.9246 C   0  0  2  0  0  0  0  0  0  0  0  0
   23.6083  -24.2111  -16.1990 C   0  0  0  0  0  0  0  0  0  0  0  0
   25.7388  -24.1920  -17.4013 C   0  0  2  0  0  0  0  0  0  0  0  0
   26.7478  -25.0416  -17.9972 N   0  0  0  0  0  0  0  0  0  0  0  0
   26.3261  -23.3852  -16.3235 C   0  0  0  0  0  0  0  0  0  0  0  0
   27.1435  -23.8996  -15.5317 O   0  0  0  0  0  0  0  0  0  0  0  0
   28.1775  -17.7603  -15.5778 C   0  0  0  0  0  0  0  0  0  0  0  0
   27.4206  -18.8187  -14.7374 C   0  0  1  0  0  0  0  0  0  0  0  0
   26.1419  -18.1027  -14.3195 C   0  0  0  0  0  0  0  0  0  0  0  0
   27.1755  -19.9543  -15.6562 C   0  0  0  0  0  0  0  0  0  0  0  0
   26.5969  -21.2009  -15.1002 C   0  0  2  0  0  0  0  0  0  0  0  0
   26.0188  -22.0110  -16.1106 N   0  0  0  0  0  0  0  0  0  0  0  0
   25.7406  -20.9973  -13.9168 C   0  0  0  0  0  0  0  0  0  0  0  0
   24.5455  -20.6048  -13.9588 O   0  0  0  0  0  0  0  0  0  0  0  0
   26.4872  -19.2144   -8.0743 C   0  0  0  0  0  0  0  0  0  0  0  0
   25.6001  -20.0082   -9.0334 C   0  0  2  0  0  0  0  0  0  0  0  0
   25.0407  -21.1921   -8.2921 C   0  0  0  0  0  0  0  0  0  0  0  0
   26.3748  -20.4354  -10.2458 C   0  0  0  0  0  0  0  0  0  0  0  0
   25.5769  -20.9202  -11.3923 C   0  0  2  0  0  0  0  0  0  0  0  0
   26.2516  -21.2484  -12.5955 N   0  0  0  0  0  0  0  0  0  0  0  0
   24.4418  -19.9774  -11.5976 C   0  0  0  0  0  0  0  0  0  0  0  0
   23.1374  -20.2781  -11.2598 O   0  0  0  0  0  0  0  0  0  0  0  0
   24.6855  -18.8563  -12.1022 O   0  0  0  0  0  0  0  0  0  0  0  0
  2  1  1  6
  3  2  1  0
  4  6  1  0
  4  2  1  0
  4  5  1  1
  6  7  2  0
  9  8  1  6
  9 11  1  0
  9 10  1  0
 12 11  1  6
 13 12  1  0
 13  6  1  0
 14 12  1  0
 14 15  2  0
 17 16  1  1
 17 19  1  0
 18 17  1  0
 20 19  1  1
 20 21  1  0
 20 22  1  0
 21 14  1  0
 22 24  2  0
 22 23  1  0
M  END
$$$$
