VLL.pdb
     RDKit          3D

 24 23  0  0  1  0  0  0  0  0999 V2000
   23.3641  -20.8176  -13.2910 C   0  0  0  0  0  0  0  0  0  0  0  0
   22.9588  -21.9426  -12.3713 C   0  0  2  0  0  0  0  0  0  0  0  0
   21.8457  -22.7229  -13.0429 C   0  0  0  0  0  0  0  0  0  0  0  0
   22.4068  -21.3900  -11.0698 C   0  0  2  0  0  0  0  0  0  0  0  0
   21.1849  -20.6793  -11.3812 N   0  0  0  0  0  0  0  0  0  0  0  0
   23.3490  -20.5009  -10.3775 C   0  0  0  0  0  0  0  0  0  0  0  0
   23.2980  -19.2673  -10.5658 O   0  0  0  0  0  0  0  0  0  0  0  0
   26.4920  -18.7747   -6.2850 C   0  0  0  0  0  0  0  0  0  0  0  0
   27.0472  -20.0238   -7.0137 C   0  0  1  0  0  0  0  0  0  0  0  0
   27.6622  -20.8535   -5.8931 C   0  0  0  0  0  0  0  0  0  0  0  0
   25.8723  -20.6739   -7.6388 C   0  0  0  0  0  0  0  0  0  0  0  0
   25.3888  -20.1571   -8.9415 C   0  0  2  0  0  0  0  0  0  0  0  0
   24.3506  -20.9619   -9.4762 N   0  0  0  0  0  0  0  0  0  0  0  0
   26.4608  -19.8281   -9.8995 C   0  0  0  0  0  0  0  0  0  0  0  0
   27.4008  -19.0230   -9.6709 O   0  0  0  0  0  0  0  0  0  0  0  0
   31.1440  -22.1394  -11.6989 C   0  0  0  0  0  0  0  0  0  0  0  0
   30.0366  -21.3054  -12.3429 C   0  0  2  0  0  0  0  0  0  0  0  0
   30.5676  -19.9188  -12.5863 C   0  0  0  0  0  0  0  0  0  0  0  0
   28.8138  -21.2803  -11.4729 C   0  0  0  0  0  0  0  0  0  0  0  0
   27.6422  -20.5593  -12.0149 C   0  0  2  0  0  0  0  0  0  0  0  0
   26.4867  -20.4385  -11.2020 N   0  0  0  0  0  0  0  0  0  0  0  0
   27.3490  -21.1055  -13.3696 C   0  0  0  0  0  0  0  0  0  0  0  0
   27.8603  -20.5628  -14.5315 O   0  0  0  0  0  0  0  0  0  0  0  0
   26.6007  -22.1072  -13.4563 O   0  0  0  0  0  0  0  0  0  0  0  0
  2  1  1  6
  3  2  1  0
  4  6  1  0
  4  2  1  0
  4  5  1  6
  6  7  2  0
  9  8  1  1
  9 11  1  0
  9 10  1  0
 12 11  1  1
 13 12  1  0
 13  6  1  0
 14 12  1  0
 14 15  2  0
 17 16  1  1
 17 19  1  0
 18 17  1  0
 20 19  1  1
 20 21  1  0
 20 22  1  0
 21 14  1  0
 22 24  2  0
 22 23  1  0
M  END
$$$$
