VLL.pdb
     RDKit          3D

 24 23  0  0  1  0  0  0  0  0999 V2000
   28.6786  -18.5497  -15.8909 C   0  0  0  0  0  0  0  0  0  0  0  0
   27.5299  -19.1210  -15.0972 C   0  0  2  0  0  0  0  0  0  0  0  0
   26.7855  -17.9698  -14.4496 C   0  0  0  0  0  0  0  0  0  0  0  0
   28.0476  -20.0129  -13.9833 C   0  0  2  0  0  0  0  0  0  0  0  0
   28.8242  -21.0695  -14.5961 N   0  0  0  0  0  0  0  0  0  0  0  0
   26.9744  -20.5841  -13.1589 C   0  0  0  0  0  0  0  0  0  0  0  0
   26.3366  -21.5785  -13.5642 O   0  0  0  0  0  0  0  0  0  0  0  0
   26.4167  -19.6038   -7.5503 C   0  0  0  0  0  0  0  0  0  0  0  0
   26.6116  -20.4003   -8.8645 C   0  0  1  0  0  0  0  0  0  0  0  0
   26.5096  -21.8557   -8.4247 C   0  0  0  0  0  0  0  0  0  0  0  0
   25.5004  -19.9828   -9.7505 C   0  0  0  0  0  0  0  0  0  0  0  0
   25.4722  -20.4996  -11.1397 C   0  0  2  0  0  0  0  0  0  0  0  0
   26.5971  -20.0664  -11.8870 N   0  0  0  0  0  0  0  0  0  0  0  0
   24.1789  -20.3238  -11.8264 C   0  0  0  0  0  0  0  0  0  0  0  0
   23.6508  -19.2101  -12.0811 O   0  0  0  0  0  0  0  0  0  0  0  0
   22.8715  -21.2281  -15.9788 C   0  0  0  0  0  0  0  0  0  0  0  0
   22.9160  -22.4887  -15.1154 C   0  0  2  0  0  0  0  0  0  0  0  0
   22.6618  -23.6788  -16.0002 C   0  0  0  0  0  0  0  0  0  0  0  0
   21.9128  -22.4078  -14.0019 C   0  0  0  0  0  0  0  0  0  0  0  0
   22.1853  -21.4051  -12.9500 C   0  0  2  0  0  0  0  0  0  0  0  0
   23.4220  -21.4683  -12.2592 N   0  0  0  0  0  0  0  0  0  0  0  0
   21.0083  -21.3600  -12.0378 C   0  0  0  0  0  0  0  0  0  0  0  0
   19.7209  -21.1195  -12.4746 O   0  0  0  0  0  0  0  0  0  0  0  0
   21.1987  -21.5500  -10.8137 O   0  0  0  0  0  0  0  0  0  0  0  0
  2  1  1  1
  3  2  1  0
  4  6  1  0
  4  2  1  0
  4  5  1  6
  6  7  2  0
  9  8  1  1
  9 11  1  0
  9 10  1  0
 12 11  1  1
 13 12  1  0
 13  6  1  0
 14 12  1  0
 14 15  2  0
 17 16  1  6
 17 19  1  0
 18 17  1  0
 20 19  1  6
 20 21  1  0
 20 22  1  0
 21 14  1  0
 22 24  2  0
 22 23  1  0
M  END
$$$$
