VLL.pdb
     RDKit          3D

 24 23  0  0  1  0  0  0  0  0999 V2000
   26.0541  -19.3761  -15.1286 C   0  0  0  0  0  0  0  0  0  0  0  0
   27.3339  -18.9545  -14.4503 C   0  0  2  0  0  0  0  0  0  0  0  0
   28.2863  -18.4457  -15.5147 C   0  0  0  0  0  0  0  0  0  0  0  0
   27.9947  -20.1448  -13.7790 C   0  0  2  0  0  0  0  0  0  0  0  0
   28.1951  -21.1602  -14.7910 N   0  0  0  0  0  0  0  0  0  0  0  0
   27.2061  -20.6870  -12.6647 C   0  0  0  0  0  0  0  0  0  0  0  0
   26.4199  -21.6377  -12.8594 O   0  0  0  0  0  0  0  0  0  0  0  0
   25.9969  -21.6596   -7.4833 C   0  0  0  0  0  0  0  0  0  0  0  0
   25.8877  -20.1527   -7.8252 C   0  0  1  0  0  0  0  0  0  0  0  0
   26.3933  -19.4580   -6.5666 C   0  0  0  0  0  0  0  0  0  0  0  0
   26.7710  -19.9462   -8.9962 C   0  0  0  0  0  0  0  0  0  0  0  0
   26.3365  -20.4755  -10.3110 C   0  0  2  0  0  0  0  0  0  0  0  0
   27.2772  -20.1880  -11.3327 N   0  0  0  0  0  0  0  0  0  0  0  0
   24.9393  -20.1587  -10.6611 C   0  0  0  0  0  0  0  0  0  0  0  0
   24.5000  -18.9973  -10.8663 O   0  0  0  0  0  0  0  0  0  0  0  0
   22.4119  -19.8383  -14.0165 C   0  0  0  0  0  0  0  0  0  0  0  0
   22.7456  -21.2901  -13.6738 C   0  0  2  0  0  0  0  0  0  0  0  0
   22.2839  -22.1635  -14.8087 C   0  0  0  0  0  0  0  0  0  0  0  0
   22.1067  -21.6919  -12.3765 C   0  0  0  0  0  0  0  0  0  0  0  0
   22.6104  -21.0128  -11.1635 C   0  0  2  0  0  0  0  0  0  0  0  0
   23.9645  -21.2089  -10.7914 N   0  0  0  0  0  0  0  0  0  0  0  0
   21.6547  -21.2810  -10.0526 C   0  0  0  0  0  0  0  0  0  0  0  0
   20.3065  -20.9930  -10.1278 O   0  0  0  0  0  0  0  0  0  0  0  0
   22.0987  -21.7934   -8.9986 O   0  0  0  0  0  0  0  0  0  0  0  0
  2  1  1  6
  3  2  1  0
  4  6  1  0
  4  2  1  0
  4  5  1  6
  6  7  2  0
  9  8  1  1
  9 11  1  0
  9 10  1  0
 12 11  1  1
 13 12  1  0
 13  6  1  0
 14 12  1  0
 14 15  2  0
 17 16  1  6
 17 19  1  0
 18 17  1  0
 20 19  1  6
 20 21  1  0
 20 22  1  0
 21 14  1  0
 22 24  2  0
 22 23  1  0
M  END
$$$$
