VLL.pdb
     RDKit          3D

 24 23  0  0  1  0  0  0  0  0999 V2000
   22.9321  -19.0628  -16.1611 C   0  0  0  0  0  0  0  0  0  0  0  0
   22.0975  -20.1807  -15.5869 C   0  0  2  0  0  0  0  0  0  0  0  0
   20.6471  -19.7389  -15.5962 C   0  0  0  0  0  0  0  0  0  0  0  0
   22.4846  -20.4428  -14.1427 C   0  0  2  0  0  0  0  0  0  0  0  0
   22.1555  -19.2568  -13.3810 N   0  0  0  0  0  0  0  0  0  0  0  0
   23.9067  -20.7725  -13.9798 C   0  0  0  0  0  0  0  0  0  0  0  0
   24.3573  -21.8421  -14.4411 O   0  0  0  0  0  0  0  0  0  0  0  0
   28.3053  -17.8360  -15.0830 C   0  0  0  0  0  0  0  0  0  0  0  0
   27.2500  -18.9618  -14.9480 C   0  0  1  0  0  0  0  0  0  0  0  0
   27.8653  -20.1287  -15.7108 C   0  0  0  0  0  0  0  0  0  0  0  0
   27.1276  -19.2192  -13.4945 C   0  0  0  0  0  0  0  0  0  0  0  0
   26.1889  -20.2730  -13.0402 C   0  0  2  0  0  0  0  0  0  0  0  0
   24.8395  -19.9300  -13.3104 N   0  0  0  0  0  0  0  0  0  0  0  0
   26.4334  -20.7527  -11.6672 C   0  0  0  0  0  0  0  0  0  0  0  0
   27.1879  -21.7154  -11.3706 O   0  0  0  0  0  0  0  0  0  0  0  0
   28.1652  -20.9006   -7.3142 C   0  0  0  0  0  0  0  0  0  0  0  0
   27.5827  -19.5726   -7.7975 C   0  0  2  0  0  0  0  0  0  0  0  0
   27.8179  -18.5359   -6.7326 C   0  0  0  0  0  0  0  0  0  0  0  0
   26.1221  -19.7145   -8.1128 C   0  0  0  0  0  0  0  0  0  0  0  0
   25.7806  -20.6268   -9.2251 C   0  0  2  0  0  0  0  0  0  0  0  0
   25.7929  -20.1154  -10.5476 N   0  0  0  0  0  0  0  0  0  0  0  0
   24.5091  -21.3221   -8.8795 C   0  0  0  0  0  0  0  0  0  0  0  0
   24.3578  -22.1080   -7.7546 O   0  0  0  0  0  0  0  0  0  0  0  0
   23.5298  -21.1852   -9.6495 O   0  0  0  0  0  0  0  0  0  0  0  0
  2  1  1  1
  3  2  1  0
  4  6  1  0
  4  2  1  0
  4  5  1  1
  6  7  2  0
  9  8  1  1
  9 11  1  0
  9 10  1  0
 12 11  1  1
 13 12  1  0
 13  6  1  0
 14 12  1  0
 14 15  2  0
 17 16  1  1
 17 19  1  0
 18 17  1  0
 20 19  1  1
 20 21  1  0
 20 22  1  0
 21 14  1  0
 22 24  2  0
 22 23  1  0
M  END
$$$$
