VLL.pdb
     RDKit          3D

 24 23  0  0  1  0  0  0  0  0999 V2000
   17.4238  -11.6049  -18.9269 C   0  0  0  0  0  0  0  0  0  0  0  0
   17.6709  -10.6941  -17.7499 C   0  0  2  0  0  0  0  0  0  0  0  0
   16.5075   -9.7271  -17.6496 C   0  0  0  0  0  0  0  0  0  0  0  0
   18.9283   -9.8728  -17.9706 C   0  0  2  0  0  0  0  0  0  0  0  0
   19.9549  -10.7695  -18.4574 N   0  0  0  0  0  0  0  0  0  0  0  0
   19.3873   -9.1872  -16.7554 C   0  0  0  0  0  0  0  0  0  0  0  0
   18.6036   -8.4530  -16.1177 O   0  0  0  0  0  0  0  0  0  0  0  0
   23.4439  -11.1032  -13.3405 C   0  0  0  0  0  0  0  0  0  0  0  0
   22.0574  -10.5376  -13.7369 C   0  0  1  0  0  0  0  0  0  0  0  0
   21.3633  -10.3094  -12.3997 C   0  0  0  0  0  0  0  0  0  0  0  0
   22.3358   -9.2797  -14.4679 C   0  0  0  0  0  0  0  0  0  0  0  0
   21.2059   -8.5786  -15.1233 C   0  0  2  0  0  0  0  0  0  0  0  0
   20.7079   -9.3046  -16.2353 N   0  0  0  0  0  0  0  0  0  0  0  0
   21.4506   -7.1486  -15.3882 C   0  0  0  0  0  0  0  0  0  0  0  0
   22.1768   -6.7081  -16.3170 O   0  0  0  0  0  0  0  0  0  0  0  0
   19.5463   -3.7727  -17.1765 C   0  0  0  0  0  0  0  0  0  0  0  0
   18.9404   -4.0716  -15.8053 C   0  0  2  0  0  0  0  0  0  0  0  0
   17.7150   -3.2160  -15.6315 C   0  0  0  0  0  0  0  0  0  0  0  0
   19.9418   -3.8249  -14.7149 C   0  0  0  0  0  0  0  0  0  0  0  0
   21.0955   -4.7485  -14.6676 C   0  0  2  0  0  0  0  0  0  0  0  0
   20.8442   -6.1399  -14.5607 N   0  0  0  0  0  0  0  0  0  0  0  0
   22.0483   -4.2463  -13.6383 C   0  0  0  0  0  0  0  0  0  0  0  0
   22.4832   -5.0092  -12.5730 O   0  0  0  0  0  0  0  0  0  0  0  0
   22.4748   -3.0728  -13.7470 O   0  0  0  0  0  0  0  0  0  0  0  0
  2  1  1  6
  3  2  1  0
  4  6  1  0
  4  2  1  0
  4  5  1  1
  6  7  2  0
  9  8  1  1
  9 11  1  0
  9 10  1  0
 12 11  1  6
 13 12  1  0
 13  6  1  0
 14 12  1  0
 14 15  2  0
 17 16  1  6
 17 19  1  0
 18 17  1  0
 20 19  1  1
 20 21  1  0
 20 22  1  0
 21 14  1  0
 22 24  2  0
 22 23  1  0
M  END
$$$$
