VLL.pdb
     RDKit          3D

 24 23  0  0  1  0  0  0  0  0999 V2000
   29.2448  -21.0612  -16.4945 C   0  0  0  0  0  0  0  0  0  0  0  0
   28.1031  -21.5980  -15.6673 C   0  0  2  0  0  0  0  0  0  0  0  0
   27.8252  -23.0201  -16.1137 C   0  0  0  0  0  0  0  0  0  0  0  0
   26.8432  -20.7883  -15.9147 C   0  0  2  0  0  0  0  0  0  0  0  0
   27.1839  -19.3910  -15.7518 N   0  0  0  0  0  0  0  0  0  0  0  0
   25.7411  -21.1507  -15.0138 C   0  0  0  0  0  0  0  0  0  0  0  0
   25.0780  -22.1882  -15.2228 O   0  0  0  0  0  0  0  0  0  0  0  0
   25.8635  -20.3633   -9.5179 C   0  0  0  0  0  0  0  0  0  0  0  0
   25.8042  -20.9636  -10.9446 C   0  0  1  0  0  0  0  0  0  0  0  0
   25.6222  -22.4570  -10.7021 C   0  0  0  0  0  0  0  0  0  0  0  0
   24.6301  -20.3339  -11.5920 C   0  0  0  0  0  0  0  0  0  0  0  0
   24.3093  -20.7077  -12.9903 C   0  0  2  0  0  0  0  0  0  0  0  0
   25.3626  -20.3761  -13.8802 N   0  0  0  0  0  0  0  0  0  0  0  0
   22.9719  -20.2798  -13.4412 C   0  0  0  0  0  0  0  0  0  0  0  0
   22.5801  -19.0845  -13.4814 O   0  0  0  0  0  0  0  0  0  0  0  0
   21.0154  -19.6749  -17.4265 C   0  0  0  0  0  0  0  0  0  0  0  0
   21.3333  -21.0453  -16.8282 C   0  0  2  0  0  0  0  0  0  0  0  0
   21.3064  -22.0639  -17.9353 C   0  0  0  0  0  0  0  0  0  0  0  0
   20.3589  -21.3908  -15.7402 C   0  0  0  0  0  0  0  0  0  0  0  0
   20.7150  -20.9392  -14.3780 C   0  0  2  0  0  0  0  0  0  0  0  0
   22.0044  -21.2513  -13.8774 N   0  0  0  0  0  0  0  0  0  0  0  0
   19.6169  -21.3418  -13.4552 C   0  0  0  0  0  0  0  0  0  0  0  0
   18.3379  -20.8277  -13.5309 O   0  0  0  0  0  0  0  0  0  0  0  0
   19.8691  -22.1894  -12.5671 O   0  0  0  0  0  0  0  0  0  0  0  0
  2  1  1  6
  3  2  1  0
  4  6  1  0
  4  2  1  0
  4  5  1  1
  6  7  2  0
  9  8  1  1
  9 11  1  0
  9 10  1  0
 12 11  1  1
 13 12  1  0
 13  6  1  0
 14 12  1  0
 14 15  2  0
 17 16  1  6
 17 19  1  0
 18 17  1  0
 20 19  1  6
 20 21  1  0
 20 22  1  0
 21 14  1  0
 22 24  2  0
 22 23  1  0
M  END
$$$$
