VLL.pdb
     RDKit          3D

 24 23  0  0  1  0  0  0  0  0999 V2000
   17.2254   -9.8881  -19.9697 C   0  0  0  0  0  0  0  0  0  0  0  0
   17.7555   -9.3270  -18.6735 C   0  0  2  0  0  0  0  0  0  0  0  0
   18.4822   -8.0326  -18.9823 C   0  0  0  0  0  0  0  0  0  0  0  0
   18.7638  -10.2797  -18.0570 C   0  0  2  0  0  0  0  0  0  0  0  0
   18.0622  -11.5011  -17.7237 N   0  0  0  0  0  0  0  0  0  0  0  0
   19.4195   -9.7289  -16.8636 C   0  0  0  0  0  0  0  0  0  0  0  0
   18.7725   -9.5844  -15.8051 O   0  0  0  0  0  0  0  0  0  0  0  0
   24.1504  -11.0157  -14.5537 C   0  0  0  0  0  0  0  0  0  0  0  0
   22.6655  -10.6120  -14.7308 C   0  0  1  0  0  0  0  0  0  0  0  0
   22.1233  -10.5912  -13.3068 C   0  0  0  0  0  0  0  0  0  0  0  0
   22.6907   -9.2720  -15.3614 C   0  0  0  0  0  0  0  0  0  0  0  0
   21.4023   -8.6490  -15.7485 C   0  0  2  0  0  0  0  0  0  0  0  0
   20.7875   -9.3346  -16.8271 N   0  0  0  0  0  0  0  0  0  0  0  0
   21.4609   -7.1843  -15.9105 C   0  0  0  0  0  0  0  0  0  0  0  0
   21.9303   -6.5953  -16.9188 O   0  0  0  0  0  0  0  0  0  0  0  0
   19.8472   -3.6476  -17.4475 C   0  0  0  0  0  0  0  0  0  0  0  0
   19.1069   -4.2391  -16.2480 C   0  0  2  0  0  0  0  0  0  0  0  0
   17.7628   -3.5710  -16.1437 C   0  0  0  0  0  0  0  0  0  0  0  0
   19.9061   -4.0646  -14.9896 C   0  0  0  0  0  0  0  0  0  0  0  0
   21.1149   -4.9066  -14.8625 C   0  0  2  0  0  0  0  0  0  0  0  0
   20.9620   -6.3162  -14.8773 N   0  0  0  0  0  0  0  0  0  0  0  0
   21.8995   -4.4164  -13.6949 C   0  0  0  0  0  0  0  0  0  0  0  0
   22.4008   -3.1332  -13.6047 O   0  0  0  0  0  0  0  0  0  0  0  0
   22.1140   -5.2099  -12.7488 O   0  0  0  0  0  0  0  0  0  0  0  0
  2  1  1  6
  3  2  1  0
  4  6  1  0
  4  2  1  0
  4  5  1  1
  6  7  2  0
  9  8  1  1
  9 11  1  0
  9 10  1  0
 12 11  1  6
 13 12  1  0
 13  6  1  0
 14 12  1  0
 14 15  2  0
 17 16  1  6
 17 19  1  0
 18 17  1  0
 20 19  1  1
 20 21  1  0
 20 22  1  0
 21 14  1  0
 22 24  2  0
 22 23  1  0
M  END
$$$$
