VPW.pdb
     RDKit          3D

 29 31  0  0  1  0  0  0  0  0999 V2000
   16.9711   -9.7504  -15.7087 C   0  0  0  0  0  0  0  0  0  0  0  0
   18.3854   -9.7387  -16.2746 C   0  0  2  0  0  0  0  0  0  0  0  0
   18.4230  -10.7967  -17.3486 C   0  0  0  0  0  0  0  0  0  0  0  0
   19.3207  -10.1076  -15.1119 C   0  0  2  0  0  0  0  0  0  0  0  0
   18.9922  -11.4423  -14.7479 N   0  0  0  0  0  0  0  0  0  0  0  0
   19.1380   -9.0778  -14.0952 C   0  0  0  0  0  0  0  0  0  0  0  0
   18.4381   -9.4417  -13.0797 O   0  0  0  0  0  0  0  0  0  0  0  0
   19.6218   -7.7586  -14.0838 N   0  0  0  0  0  0  0  0  0  0  0  0
   20.3955   -7.0444  -15.0661 C   0  0  0  0  0  0  0  0  0  0  0  0
   21.4538   -6.3870  -14.1638 C   0  0  0  0  0  0  0  0  0  0  0  0
   20.5008   -5.7492  -13.1420 C   0  0  0  0  0  0  0  0  0  0  0  0
   19.4114   -6.7981  -13.0086 C   0  0  1  0  0  0  0  0  0  0  0  0
   18.0901   -6.1540  -13.1265 C   0  0  0  0  0  0  0  0  0  0  0  0
   17.3520   -6.2302  -14.1345 O   0  0  0  0  0  0  0  0  0  0  0  0
   17.6016   -5.3787  -12.0126 N   0  0  0  0  0  0  0  0  0  0  0  0
   16.2880   -4.8321  -12.0026 C   0  0  1  0  0  0  0  0  0  0  0  0
   15.1822   -5.6727  -11.5272 C   0  0  0  0  0  0  0  0  0  0  0  0
   15.2271   -6.1794  -10.1521 C   0  0  0  0  0  0  0  0  0  0  0  0
   16.2212   -6.1736   -9.2186 C   0  0  0  0  0  0  0  0  0  0  0  0
   15.7583   -6.7508   -8.1040 N   0  0  0  0  0  0  0  0  0  0  0  0
   14.4856   -7.1294   -8.2979 C   0  0  0  0  0  0  0  0  0  0  0  0
   13.5446   -7.7594   -7.4927 C   0  0  0  0  0  0  0  0  0  0  0  0
   12.2591   -8.0455   -7.9446 C   0  0  0  0  0  0  0  0  0  0  0  0
   11.9032   -7.6968   -9.2253 C   0  0  0  0  0  0  0  0  0  0  0  0
   12.8374   -7.0718  -10.0231 C   0  0  0  0  0  0  0  0  0  0  0  0
   14.1205   -6.7917   -9.5575 C   0  0  0  0  0  0  0  0  0  0  0  0
   16.3392   -3.5607  -11.1926 C   0  0  0  0  0  0  0  0  0  0  0  0
   17.2747   -3.2899  -10.4098 O   0  0  0  0  0  0  0  0  0  0  0  0
   15.3158   -2.6244  -11.2963 O   0  0  0  0  0  0  0  0  0  0  0  0
  2  1  1  1
  2  3  1  0
  4  2  1  0
  4  5  1  1
  6  4  1  0
  6  7  2  0
  8  6  1  0
  9  8  1  0
 10  9  1  0
 11 10  1  0
 11 12  1  0
 12  8  1  0
 12 13  1  6
 13 14  2  0
 15 13  1  0
 16 15  1  0
 16 17  1  1
 17 18  1  0
 18 26  1  0
 18 19  2  0
 19 20  1  0
 21 22  2  0
 21 20  1  0
 23 22  1  0
 24 23  2  0
 25 24  1  0
 25 26  2  0
 26 21  1  0
 27 16  1  0
 28 27  2  0
 29 27  1  0
M  END
$$$$
