VPW.pdb
     RDKit          3D

 29 31  0  0  1  0  0  0  0  0999 V2000
   18.7970  -11.5715    7.0451 C   0  0  0  0  0  0  0  0  0  0  0  0
   19.5175  -11.1671    8.3249 C   0  0  2  0  0  0  0  0  0  0  0  0
   19.4076   -9.6659    8.4192 C   0  0  0  0  0  0  0  0  0  0  0  0
   20.9829  -11.5973    8.1520 C   0  0  2  0  0  0  0  0  0  0  0  0
   21.4764  -10.8790    7.0284 N   0  0  0  0  0  0  0  0  0  0  0  0
   20.9754  -13.0529    8.0586 C   0  0  0  0  0  0  0  0  0  0  0  0
   21.3604  -13.5219    6.9248 O   0  0  0  0  0  0  0  0  0  0  0  0
   20.6067  -13.9943    9.0345 N   0  0  0  0  0  0  0  0  0  0  0  0
   20.1944  -13.8027   10.4009 C   0  0  0  0  0  0  0  0  0  0  0  0
   21.0364  -14.8832   11.1006 C   0  0  0  0  0  0  0  0  0  0  0  0
   20.6474  -16.0718   10.2090 C   0  0  0  0  0  0  0  0  0  0  0  0
   20.5611  -15.4364    8.8328 C   0  0  1  0  0  0  0  0  0  0  0  0
   19.3006  -15.8395    8.1822 C   0  0  0  0  0  0  0  0  0  0  0  0
   18.3600  -15.0583    7.9143 O   0  0  0  0  0  0  0  0  0  0  0  0
   19.1243  -17.2258    7.8250 N   0  0  0  0  0  0  0  0  0  0  0  0
   18.1536  -17.6321    6.8673 C   0  0  1  0  0  0  0  0  0  0  0  0
   18.1903  -17.0254    5.5308 C   0  0  0  0  0  0  0  0  0  0  0  0
   17.1524  -17.3953    4.5636 C   0  0  0  0  0  0  0  0  0  0  0  0
   15.8018  -17.2067    4.5705 C   0  0  0  0  0  0  0  0  0  0  0  0
   15.2972  -17.7199    3.4428 N   0  0  0  0  0  0  0  0  0  0  0  0
   16.2936  -18.2362    2.7073 C   0  0  0  0  0  0  0  0  0  0  0  0
   16.3367  -18.8767    1.4749 C   0  0  0  0  0  0  0  0  0  0  0  0
   17.5307  -19.3265    0.9179 C   0  0  0  0  0  0  0  0  0  0  0  0
   18.7067  -19.1344    1.6023 C   0  0  0  0  0  0  0  0  0  0  0  0
   18.6629  -18.4989    2.8246 C   0  0  0  0  0  0  0  0  0  0  0  0
   17.4604  -18.0539    3.3701 C   0  0  0  0  0  0  0  0  0  0  0  0
   18.2494  -19.1323    6.7427 C   0  0  0  0  0  0  0  0  0  0  0  0
   19.3366  -19.7480    6.7552 O   0  0  0  0  0  0  0  0  0  0  0  0
   17.0957  -19.8971    6.6062 O   0  0  0  0  0  0  0  0  0  0  0  0
  2  1  1  6
  2  3  1  0
  4  2  1  0
  4  5  1  6
  6  4  1  0
  6  7  2  0
  8  6  1  0
  9  8  1  0
 10  9  1  0
 11 10  1  0
 11 12  1  0
 12  8  1  0
 12 13  1  1
 13 14  2  0
 15 13  1  0
 16 15  1  0
 16 17  1  6
 17 18  1  0
 18 26  1  0
 18 19  2  0
 19 20  1  0
 21 22  2  0
 21 20  1  0
 23 22  1  0
 24 23  2  0
 25 24  1  0
 25 26  2  0
 26 21  1  0
 27 16  1  0
 28 27  2  0
 29 27  1  0
M  END
$$$$
