VPW.pdb
     RDKit          3D

 29 31  0  0  1  0  0  0  0  0999 V2000
   26.5692  -23.3816  -16.6254 C   0  0  0  0  0  0  0  0  0  0  0  0
   26.5391  -22.1154  -17.4718 C   0  0  2  0  0  0  0  0  0  0  0  0
   26.2325  -22.5532  -18.8820 C   0  0  0  0  0  0  0  0  0  0  0  0
   27.9457  -21.5018  -17.3843 C   0  0  2  0  0  0  0  0  0  0  0  0
   28.8382  -22.4833  -17.8962 N   0  0  0  0  0  0  0  0  0  0  0  0
   28.1309  -21.0954  -15.9958 C   0  0  0  0  0  0  0  0  0  0  0  0
   28.8669  -21.8851  -15.2969 O   0  0  0  0  0  0  0  0  0  0  0  0
   27.6156  -19.9681  -15.3339 N   0  0  0  0  0  0  0  0  0  0  0  0
   26.7742  -18.9071  -15.8240 C   0  0  0  0  0  0  0  0  0  0  0  0
   27.5022  -17.6828  -15.2432 C   0  0  0  0  0  0  0  0  0  0  0  0
   27.5865  -18.1534  -13.7836 C   0  0  0  0  0  0  0  0  0  0  0  0
   27.8435  -19.6423  -13.9322 C   0  0  1  0  0  0  0  0  0  0  0  0
   26.9211  -20.3912  -13.0588 C   0  0  0  0  0  0  0  0  0  0  0  0
   25.8250  -20.8687  -13.4294 O   0  0  0  0  0  0  0  0  0  0  0  0
   27.2930  -20.5947  -11.6802 N   0  0  0  0  0  0  0  0  0  0  0  0
   26.4749  -21.3439  -10.7892 C   0  0  1  0  0  0  0  0  0  0  0  0
   26.9678  -21.5973   -9.4297 C   0  0  0  0  0  0  0  0  0  0  0  0
   26.8667  -20.5245   -8.4354 C   0  0  0  0  0  0  0  0  0  0  0  0
   26.0105  -19.4685   -8.3290 C   0  0  0  0  0  0  0  0  0  0  0  0
   26.3252  -18.7780   -7.2272 N   0  0  0  0  0  0  0  0  0  0  0  0
   27.3671  -19.3660   -6.6194 C   0  0  0  0  0  0  0  0  0  0  0  0
   28.0847  -19.0781   -5.4649 C   0  0  0  0  0  0  0  0  0  0  0  0
   29.1498  -19.8683   -5.0412 C   0  0  0  0  0  0  0  0  0  0  0  0
   29.5077  -20.9685   -5.7826 C   0  0  0  0  0  0  0  0  0  0  0  0
   28.7952  -21.2533   -6.9276 C   0  0  0  0  0  0  0  0  0  0  0  0
   27.7313  -20.4534   -7.3397 C   0  0  0  0  0  0  0  0  0  0  0  0
   25.1376  -20.6496  -10.7194 C   0  0  0  0  0  0  0  0  0  0  0  0
   24.9884  -19.4340  -10.9674 O   0  0  0  0  0  0  0  0  0  0  0  0
   23.9973  -21.3634  -10.3663 O   0  0  0  0  0  0  0  0  0  0  0  0
  2  1  1  1
  2  3  1  0
  4  2  1  0
  4  5  1  1
  6  4  1  0
  6  7  2  0
  8  6  1  0
  9  8  1  0
 10  9  1  0
 11 10  1  0
 11 12  1  0
 12  8  1  0
 12 13  1  1
 13 14  2  0
 15 13  1  0
 16 15  1  0
 16 17  1  1
 17 18  1  0
 18 26  1  0
 18 19  2  0
 19 20  1  0
 21 22  2  0
 21 20  1  0
 23 22  1  0
 24 23  2  0
 25 24  1  0
 25 26  2  0
 26 21  1  0
 27 16  1  0
 28 27  2  0
 29 27  1  0
M  END
$$$$
