VPW.pdb
     RDKit          3D

 29 31  0  0  1  0  0  0  0  0999 V2000
   14.2451  -22.3219   -8.5205 C   0  0  0  0  0  0  0  0  0  0  0  0
   13.7579  -22.7513   -7.1425 C   0  0  2  0  0  0  0  0  0  0  0  0
   14.2991  -21.7385   -6.1648 C   0  0  0  0  0  0  0  0  0  0  0  0
   14.3637  -24.1397   -6.8816 C   0  0  2  0  0  0  0  0  0  0  0  0
   13.8317  -24.9982   -7.8825 N   0  0  0  0  0  0  0  0  0  0  0  0
   14.0569  -24.4675   -5.4938 C   0  0  0  0  0  0  0  0  0  0  0  0
   12.8022  -24.5472   -5.2239 O   0  0  0  0  0  0  0  0  0  0  0  0
   14.9440  -24.7038   -4.4299 N   0  0  0  0  0  0  0  0  0  0  0  0
   16.3823  -24.7732   -4.4177 C   0  0  0  0  0  0  0  0  0  0  0  0
   16.5934  -26.0383   -3.5686 C   0  0  0  0  0  0  0  0  0  0  0  0
   15.7083  -25.6484   -2.3755 C   0  0  0  0  0  0  0  0  0  0  0  0
   14.5507  -24.9301   -3.0454 C   0  0  1  0  0  0  0  0  0  0  0  0
   14.2960  -23.6533   -2.3529 C   0  0  0  0  0  0  0  0  0  0  0  0
   14.9564  -22.6054   -2.5331 O   0  0  0  0  0  0  0  0  0  0  0  0
   13.2159  -23.5924   -1.3989 N   0  0  0  0  0  0  0  0  0  0  0  0
   12.8784  -22.3830   -0.7298 C   0  0  1  0  0  0  0  0  0  0  0  0
   11.5234  -21.8432   -0.8977 C   0  0  0  0  0  0  0  0  0  0  0  0
   11.0768  -21.4752   -2.2449 C   0  0  0  0  0  0  0  0  0  0  0  0
   11.0629  -22.1750   -3.4152 C   0  0  0  0  0  0  0  0  0  0  0  0
   10.5418  -21.3945   -4.3687 N   0  0  0  0  0  0  0  0  0  0  0  0
   10.2186  -20.2049   -3.8387 C   0  0  0  0  0  0  0  0  0  0  0  0
    9.6556  -19.0480   -4.3636 C   0  0  0  0  0  0  0  0  0  0  0  0
    9.4155  -17.9225   -3.5800 C   0  0  0  0  0  0  0  0  0  0  0  0
    9.7429  -17.9496   -2.2457 C   0  0  0  0  0  0  0  0  0  0  0  0
   10.3013  -19.0976   -1.7261 C   0  0  0  0  0  0  0  0  0  0  0  0
   10.5359  -20.2168   -2.5222 C   0  0  0  0  0  0  0  0  0  0  0  0
   13.1602  -22.5903    0.7375 C   0  0  0  0  0  0  0  0  0  0  0  0
   13.5093  -23.6913    1.2143 O   0  0  0  0  0  0  0  0  0  0  0  0
   13.0361  -21.5303    1.6294 O   0  0  0  0  0  0  0  0  0  0  0  0
  2  1  1  6
  2  3  1  0
  4  2  1  0
  4  5  1  6
  6  4  1  0
  6  7  2  0
  8  6  1  0
  9  8  1  0
 10  9  1  0
 11 10  1  0
 11 12  1  0
 12  8  1  0
 12 13  1  1
 13 14  2  0
 15 13  1  0
 16 15  1  0
 16 17  1  1
 17 18  1  0
 18 26  1  0
 18 19  2  0
 19 20  1  0
 21 22  2  0
 21 20  1  0
 23 22  1  0
 24 23  2  0
 25 24  1  0
 25 26  2  0
 26 21  1  0
 27 16  1  0
 28 27  2  0
 29 27  1  0
M  END
$$$$
