VPW.pdb
     RDKit          3D

 29 31  0  0  1  0  0  0  0  0999 V2000
   29.3751  -18.3294  -14.9515 C   0  0  0  0  0  0  0  0  0  0  0  0
   28.4046  -18.6533  -13.8229 C   0  0  2  0  0  0  0  0  0  0  0  0
   29.0542  -19.7383  -13.0010 C   0  0  0  0  0  0  0  0  0  0  0  0
   27.1199  -19.1695  -14.4905 C   0  0  2  0  0  0  0  0  0  0  0  0
   26.7054  -18.1508  -15.3918 N   0  0  0  0  0  0  0  0  0  0  0  0
   26.2037  -19.5120  -13.4085 C   0  0  0  0  0  0  0  0  0  0  0  0
   25.7828  -18.5098  -12.7215 O   0  0  0  0  0  0  0  0  0  0  0  0
   25.7294  -20.7783  -13.0263 N   0  0  0  0  0  0  0  0  0  0  0  0
   26.0073  -22.0795  -13.5773 C   0  0  0  0  0  0  0  0  0  0  0  0
   24.5861  -22.6642  -13.6428 C   0  0  0  0  0  0  0  0  0  0  0  0
   24.1680  -22.3796  -12.1925 C   0  0  0  0  0  0  0  0  0  0  0  0
   24.8127  -21.0318  -11.9227 C   0  0  1  0  0  0  0  0  0  0  0  0
   25.5337  -21.0792  -10.6371 C   0  0  0  0  0  0  0  0  0  0  0  0
   26.6832  -21.5508  -10.4863 O   0  0  0  0  0  0  0  0  0  0  0  0
   24.8821  -20.5505   -9.4639 N   0  0  0  0  0  0  0  0  0  0  0  0
   25.2453  -20.9723   -8.1545 C   0  0  1  0  0  0  0  0  0  0  0  0
   25.5465  -19.9486   -7.1461 C   0  0  0  0  0  0  0  0  0  0  0  0
   26.9144  -19.4277   -7.0620 C   0  0  0  0  0  0  0  0  0  0  0  0
   27.6404  -18.6519   -7.9167 C   0  0  0  0  0  0  0  0  0  0  0  0
   28.8445  -18.4376   -7.3745 N   0  0  0  0  0  0  0  0  0  0  0  0
   28.9117  -19.0589   -6.1871 C   0  0  0  0  0  0  0  0  0  0  0  0
   29.9044  -19.1647   -5.2205 C   0  0  0  0  0  0  0  0  0  0  0  0
   29.7163  -19.8864   -4.0448 C   0  0  0  0  0  0  0  0  0  0  0  0
   28.5144  -20.5159   -3.8269 C   0  0  0  0  0  0  0  0  0  0  0  0
   27.5304  -20.4103   -4.7863 C   0  0  0  0  0  0  0  0  0  0  0  0
   27.7325  -19.6845   -5.9584 C   0  0  0  0  0  0  0  0  0  0  0  0
   24.1401  -21.8667   -7.6505 C   0  0  0  0  0  0  0  0  0  0  0  0
   24.2694  -22.6146   -6.6579 O   0  0  0  0  0  0  0  0  0  0  0  0
   22.9078  -21.8857   -8.2952 O   0  0  0  0  0  0  0  0  0  0  0  0
  2  1  1  6
  2  3  1  0
  4  2  1  0
  4  5  1  6
  6  4  1  0
  6  7  2  0
  8  6  1  0
  9  8  1  0
 10  9  1  0
 11 10  1  0
 11 12  1  0
 12  8  1  0
 12 13  1  1
 13 14  2  0
 15 13  1  0
 16 15  1  0
 16 17  1  1
 17 18  1  0
 18 26  1  0
 18 19  2  0
 19 20  1  0
 21 22  2  0
 21 20  1  0
 23 22  1  0
 24 23  2  0
 25 24  1  0
 25 26  2  0
 26 21  1  0
 27 16  1  0
 28 27  2  0
 29 27  1  0
M  END
$$$$
