VPW.pdb
     RDKit          3D

 29 31  0  0  1  0  0  0  0  0999 V2000
   22.6133  -19.8330  -17.4860 C   0  0  0  0  0  0  0  0  0  0  0  0
   23.4444  -20.2957  -16.2961 C   0  0  2  0  0  0  0  0  0  0  0  0
   23.5402  -19.1174  -15.3597 C   0  0  0  0  0  0  0  0  0  0  0  0
   24.8291  -20.6652  -16.8519 C   0  0  2  0  0  0  0  0  0  0  0  0
   24.6050  -21.6582  -17.8447 N   0  0  0  0  0  0  0  0  0  0  0  0
   25.6442  -21.0458  -15.7039 C   0  0  0  0  0  0  0  0  0  0  0  0
   25.4502  -22.2440  -15.2790 O   0  0  0  0  0  0  0  0  0  0  0  0
   26.6003  -20.2821  -15.0130 N   0  0  0  0  0  0  0  0  0  0  0  0
   27.0369  -18.9266  -15.2264 C   0  0  0  0  0  0  0  0  0  0  0  0
   28.5615  -19.1056  -15.1269 C   0  0  0  0  0  0  0  0  0  0  0  0
   28.6042  -19.8569  -13.7880 C   0  0  0  0  0  0  0  0  0  0  0  0
   27.3757  -20.7452  -13.8698 C   0  0  1  0  0  0  0  0  0  0  0  0
   26.5989  -20.6278  -12.6218 C   0  0  0  0  0  0  0  0  0  0  0  0
   25.5615  -19.9389  -12.4949 O   0  0  0  0  0  0  0  0  0  0  0  0
   27.0537  -21.3495  -11.4587 N   0  0  0  0  0  0  0  0  0  0  0  0
   26.4534  -21.1625  -10.1823 C   0  0  1  0  0  0  0  0  0  0  0  0
   27.1998  -21.5787   -8.9886 C   0  0  0  0  0  0  0  0  0  0  0  0
   26.7878  -21.0509   -7.6842 C   0  0  0  0  0  0  0  0  0  0  0  0
   25.5574  -20.9120   -7.1129 C   0  0  0  0  0  0  0  0  0  0  0  0
   25.7143  -20.3851   -5.8933 N   0  0  0  0  0  0  0  0  0  0  0  0
   27.0206  -20.1805   -5.6645 C   0  0  0  0  0  0  0  0  0  0  0  0
   27.7315  -19.6688   -4.5859 C   0  0  0  0  0  0  0  0  0  0  0  0
   29.1196  -19.5615   -4.6005 C   0  0  0  0  0  0  0  0  0  0  0  0
   29.8143  -19.9724   -5.7126 C   0  0  0  0  0  0  0  0  0  0  0  0
   29.1082  -20.4799   -6.7819 C   0  0  0  0  0  0  0  0  0  0  0  0
   27.7188  -20.5816   -6.7534 C   0  0  0  0  0  0  0  0  0  0  0  0
   26.0926  -19.7024  -10.0677 C   0  0  0  0  0  0  0  0  0  0  0  0
   24.9678  -19.3067   -9.6941 O   0  0  0  0  0  0  0  0  0  0  0  0
   27.0295  -18.7242  -10.3841 O   0  0  0  0  0  0  0  0  0  0  0  0
  2  1  1  6
  2  3  1  0
  4  2  1  0
  4  5  1  6
  6  4  1  0
  6  7  2  0
  8  6  1  0
  9  8  1  0
 10  9  1  0
 11 10  1  0
 11 12  1  0
 12  8  1  0
 12 13  1  1
 13 14  2  0
 15 13  1  0
 16 15  1  0
 16 17  1  1
 17 18  1  0
 18 26  1  0
 18 19  2  0
 19 20  1  0
 21 22  2  0
 21 20  1  0
 23 22  1  0
 24 23  2  0
 25 24  1  0
 25 26  2  0
 26 21  1  0
 27 16  1  0
 28 27  2  0
 29 27  1  0
M  END
$$$$
