VPW.pdb
     RDKit          3D

 29 31  0  0  1  0  0  0  0  0999 V2000
   23.0509  -22.7614  -16.8639 C   0  0  0  0  0  0  0  0  0  0  0  0
   23.8597  -22.5124  -15.5973 C   0  0  2  0  0  0  0  0  0  0  0  0
   23.3242  -21.2383  -14.9937 C   0  0  0  0  0  0  0  0  0  0  0  0
   25.3198  -22.3334  -16.0434 C   0  0  2  0  0  0  0  0  0  0  0  0
   25.6302  -23.4657  -16.8456 N   0  0  0  0  0  0  0  0  0  0  0  0
   26.1014  -22.1475  -14.8260 C   0  0  0  0  0  0  0  0  0  0  0  0
   26.3615  -23.2300  -14.1824 O   0  0  0  0  0  0  0  0  0  0  0  0
   26.5990  -20.9546  -14.2747 N   0  0  0  0  0  0  0  0  0  0  0  0
   26.4890  -19.5977  -14.7441 C   0  0  0  0  0  0  0  0  0  0  0  0
   27.9406  -19.1216  -14.5640 C   0  0  0  0  0  0  0  0  0  0  0  0
   28.1279  -19.5475  -13.1002 C   0  0  0  0  0  0  0  0  0  0  0  0
   27.3636  -20.8578  -13.0384 C   0  0  1  0  0  0  0  0  0  0  0  0
   26.4715  -20.8529  -11.8642 C   0  0  0  0  0  0  0  0  0  0  0  0
   25.2818  -20.4644  -11.8798 O   0  0  0  0  0  0  0  0  0  0  0  0
   26.9915  -21.3242  -10.6041 N   0  0  0  0  0  0  0  0  0  0  0  0
   26.1833  -21.3716   -9.4340 C   0  0  1  0  0  0  0  0  0  0  0  0
   26.8423  -21.5381   -8.1327 C   0  0  0  0  0  0  0  0  0  0  0  0
   27.2110  -20.3386   -7.3744 C   0  0  0  0  0  0  0  0  0  0  0  0
   26.7976  -19.0430   -7.4750 C   0  0  0  0  0  0  0  0  0  0  0  0
   27.4266  -18.3243   -6.5383 N   0  0  0  0  0  0  0  0  0  0  0  0
   28.2380  -19.1285   -5.8345 C   0  0  0  0  0  0  0  0  0  0  0  0
   29.1036  -18.9143   -4.7688 C   0  0  0  0  0  0  0  0  0  0  0  0
   29.8496  -19.9456   -4.2047 C   0  0  0  0  0  0  0  0  0  0  0  0
   29.7311  -21.2171   -4.7123 C   0  0  0  0  0  0  0  0  0  0  0  0
   28.8722  -21.4285   -5.7693 C   0  0  0  0  0  0  0  0  0  0  0  0
   28.1316  -20.3867   -6.3241 C   0  0  0  0  0  0  0  0  0  0  0  0
   25.3458  -20.1171   -9.4182 C   0  0  0  0  0  0  0  0  0  0  0  0
   24.1883  -20.0776   -8.9490 O   0  0  0  0  0  0  0  0  0  0  0  0
   25.8526  -18.9320   -9.9411 O   0  0  0  0  0  0  0  0  0  0  0  0
  2  1  1  6
  2  3  1  0
  4  2  1  0
  4  5  1  1
  6  4  1  0
  6  7  2  0
  8  6  1  0
  9  8  1  0
 10  9  1  0
 11 10  1  0
 11 12  1  0
 12  8  1  0
 12 13  1  1
 13 14  2  0
 15 13  1  0
 16 15  1  0
 16 17  1  1
 17 18  1  0
 18 26  1  0
 18 19  2  0
 19 20  1  0
 21 22  2  0
 21 20  1  0
 23 22  1  0
 24 23  2  0
 25 24  1  0
 25 26  2  0
 26 21  1  0
 27 16  1  0
 28 27  2  0
 29 27  1  0
M  END
$$$$
