VPW.pdb
     RDKit          3D

 29 31  0  0  1  0  0  0  0  0999 V2000
   25.4884  -23.4131  -15.8049 C   0  0  0  0  0  0  0  0  0  0  0  0
   25.5533  -22.1879  -16.7077 C   0  0  2  0  0  0  0  0  0  0  0  0
   25.0809  -22.6358  -18.0680 C   0  0  0  0  0  0  0  0  0  0  0  0
   27.0295  -21.7622  -16.7554 C   0  0  2  0  0  0  0  0  0  0  0  0
   27.7425  -22.8662  -17.2981 N   0  0  0  0  0  0  0  0  0  0  0  0
   27.3806  -21.3451  -15.4025 C   0  0  0  0  0  0  0  0  0  0  0  0
   28.0897  -22.1925  -14.7446 O   0  0  0  0  0  0  0  0  0  0  0  0
   27.0480  -20.1536  -14.7360 N   0  0  0  0  0  0  0  0  0  0  0  0
   26.2543  -19.0347  -15.1740 C   0  0  0  0  0  0  0  0  0  0  0  0
   27.1510  -17.8660  -14.7311 C   0  0  0  0  0  0  0  0  0  0  0  0
   27.3602  -18.2951  -13.2712 C   0  0  0  0  0  0  0  0  0  0  0  0
   27.4640  -19.8055  -13.3838 C   0  0  1  0  0  0  0  0  0  0  0  0
   26.5848  -20.4359  -12.3817 C   0  0  0  0  0  0  0  0  0  0  0  0
   25.4118  -20.8117  -12.6044 O   0  0  0  0  0  0  0  0  0  0  0  0
   27.0971  -20.6390  -11.0488 N   0  0  0  0  0  0  0  0  0  0  0  0
   26.3173  -21.2657  -10.0369 C   0  0  1  0  0  0  0  0  0  0  0  0
   26.8861  -21.3896   -8.6891 C   0  0  0  0  0  0  0  0  0  0  0  0
   27.1287  -20.1683   -7.9150 C   0  0  0  0  0  0  0  0  0  0  0  0
   26.6890  -18.8885   -8.0842 C   0  0  0  0  0  0  0  0  0  0  0  0
   27.1848  -18.1366   -7.0950 N   0  0  0  0  0  0  0  0  0  0  0  0
   27.9358  -18.9039   -6.2901 C   0  0  0  0  0  0  0  0  0  0  0  0
   28.6677  -18.6465   -5.1373 C   0  0  0  0  0  0  0  0  0  0  0  0
   29.3768  -19.6448   -4.4746 C   0  0  0  0  0  0  0  0  0  0  0  0
   29.3565  -20.9263   -4.9702 C   0  0  0  0  0  0  0  0  0  0  0  0
   28.6302  -21.1805   -6.1137 C   0  0  0  0  0  0  0  0  0  0  0  0
   27.9251  -20.1714   -6.7666 C   0  0  0  0  0  0  0  0  0  0  0  0
   25.0037  -20.5280   -9.9639 C   0  0  0  0  0  0  0  0  0  0  0  0
   24.8791  -19.3268  -10.2848 O   0  0  0  0  0  0  0  0  0  0  0  0
   23.8581  -21.1828   -9.5241 O   0  0  0  0  0  0  0  0  0  0  0  0
  2  1  1  1
  2  3  1  0
  4  2  1  0
  4  5  1  1
  6  4  1  0
  6  7  2  0
  8  6  1  0
  9  8  1  0
 10  9  1  0
 11 10  1  0
 11 12  1  0
 12  8  1  0
 12 13  1  1
 13 14  2  0
 15 13  1  0
 16 15  1  0
 16 17  1  1
 17 18  1  0
 18 26  1  0
 18 19  2  0
 19 20  1  0
 21 22  2  0
 21 20  1  0
 23 22  1  0
 24 23  2  0
 25 24  1  0
 25 26  2  0
 26 21  1  0
 27 16  1  0
 28 27  2  0
 29 27  1  0
M  END
$$$$
