VPW.pdb
     RDKit          3D

 29 31  0  0  1  0  0  0  0  0999 V2000
   28.0789  -21.4061  -18.2328 C   0  0  0  0  0  0  0  0  0  0  0  0
   27.3805  -20.2466  -18.9316 C   0  0  2  0  0  0  0  0  0  0  0  0
   27.6193  -20.4336  -20.4089 C   0  0  0  0  0  0  0  0  0  0  0  0
   28.0601  -18.9635  -18.4270 C   0  0  2  0  0  0  0  0  0  0  0  0
   29.4181  -19.0460  -18.8406 N   0  0  0  0  0  0  0  0  0  0  0  0
   27.8055  -18.9008  -16.9922 C   0  0  0  0  0  0  0  0  0  0  0  0
   28.8207  -19.1760  -16.2524 O   0  0  0  0  0  0  0  0  0  0  0  0
   26.6104  -18.5831  -16.3248 N   0  0  0  0  0  0  0  0  0  0  0  0
   25.3070  -18.2711  -16.8516 C   0  0  0  0  0  0  0  0  0  0  0  0
   24.9476  -17.0431  -15.9978 C   0  0  0  0  0  0  0  0  0  0  0  0
   25.2299  -17.6504  -14.6156 C   0  0  0  0  0  0  0  0  0  0  0  0
   26.4516  -18.5125  -14.8783 C   0  0  1  0  0  0  0  0  0  0  0  0
   26.2407  -19.8541  -14.3037 C   0  0  0  0  0  0  0  0  0  0  0  0
   26.1506  -20.9065  -14.9753 O   0  0  0  0  0  0  0  0  0  0  0  0
   26.1274  -19.9782  -12.8711 N   0  0  0  0  0  0  0  0  0  0  0  0
   26.0564  -21.2491  -12.2353 C   0  0  1  0  0  0  0  0  0  0  0  0
   26.9101  -21.4974  -11.0670 C   0  0  0  0  0  0  0  0  0  0  0  0
   26.7211  -20.6701   -9.8714 C   0  0  0  0  0  0  0  0  0  0  0  0
   25.7049  -19.8414   -9.4969 C   0  0  0  0  0  0  0  0  0  0  0  0
   26.0025  -19.3207   -8.3011 N   0  0  0  0  0  0  0  0  0  0  0  0
   27.1900  -19.7956   -7.8950 C   0  0  0  0  0  0  0  0  0  0  0  0
   27.9594  -19.5931   -6.7559 C   0  0  0  0  0  0  0  0  0  0  0  0
   29.1870  -20.2238   -6.5722 C   0  0  0  0  0  0  0  0  0  0  0  0
   29.6582  -21.0743   -7.5433 C   0  0  0  0  0  0  0  0  0  0  0  0
   28.8941  -21.2746   -8.6728 C   0  0  0  0  0  0  0  0  0  0  0  0
   27.6672  -20.6365   -8.8433 C   0  0  0  0  0  0  0  0  0  0  0  0
   24.6132  -21.4829  -11.8640 C   0  0  0  0  0  0  0  0  0  0  0  0
   23.8049  -20.5531  -11.6558 O   0  0  0  0  0  0  0  0  0  0  0  0
   24.1252  -22.7794  -11.7388 O   0  0  0  0  0  0  0  0  0  0  0  0
  2  1  1  1
  2  3  1  0
  4  2  1  0
  4  5  1  1
  6  4  1  0
  6  7  2  0
  8  6  1  0
  9  8  1  0
 10  9  1  0
 11 10  1  0
 11 12  1  0
 12  8  1  0
 12 13  1  6
 13 14  2  0
 15 13  1  0
 16 15  1  0
 16 17  1  1
 17 18  1  0
 18 26  1  0
 18 19  2  0
 19 20  1  0
 21 22  2  0
 21 20  1  0
 23 22  1  0
 24 23  2  0
 25 24  1  0
 25 26  2  0
 26 21  1  0
 27 16  1  0
 28 27  2  0
 29 27  1  0
M  END
$$$$
