VPW.pdb
     RDKit          3D

 29 31  0  0  1  0  0  0  0  0999 V2000
   26.6374  -17.4462  -15.0359 C   0  0  0  0  0  0  0  0  0  0  0  0
   27.7981  -17.5085  -16.0206 C   0  0  2  0  0  0  0  0  0  0  0  0
   28.0731  -16.0878  -16.4451 C   0  0  0  0  0  0  0  0  0  0  0  0
   27.3116  -18.3496  -17.2116 C   0  0  2  0  0  0  0  0  0  0  0  0
   26.3386  -17.5595  -17.8830 N   0  0  0  0  0  0  0  0  0  0  0  0
   26.8662  -19.6242  -16.6597 C   0  0  0  0  0  0  0  0  0  0  0  0
   25.5941  -19.7285  -16.5034 O   0  0  0  0  0  0  0  0  0  0  0  0
   27.6381  -20.7362  -16.2824 N   0  0  0  0  0  0  0  0  0  0  0  0
   29.0555  -20.9642  -16.3946 C   0  0  0  0  0  0  0  0  0  0  0  0
   29.0642  -22.3974  -16.9533 C   0  0  0  0  0  0  0  0  0  0  0  0
   28.1361  -23.0411  -15.9125 C   0  0  0  0  0  0  0  0  0  0  0  0
   27.1170  -21.9449  -15.6578 C   0  0  1  0  0  0  0  0  0  0  0  0
   26.9472  -21.7580  -14.2049 C   0  0  0  0  0  0  0  0  0  0  0  0
   27.8858  -21.5557  -13.4019 O   0  0  0  0  0  0  0  0  0  0  0  0
   25.6142  -21.8102  -13.6565 N   0  0  0  0  0  0  0  0  0  0  0  0
   25.3669  -21.5863  -12.2733 C   0  0  1  0  0  0  0  0  0  0  0  0
   26.4007  -20.9150  -11.4757 C   0  0  0  0  0  0  0  0  0  0  0  0
   26.1071  -20.5913  -10.0762 C   0  0  0  0  0  0  0  0  0  0  0  0
   24.9341  -20.3091   -9.4405 C   0  0  0  0  0  0  0  0  0  0  0  0
   25.1957  -20.0926   -8.1465 N   0  0  0  0  0  0  0  0  0  0  0  0
   26.5133  -20.2291   -7.9327 C   0  0  0  0  0  0  0  0  0  0  0  0
   27.3127  -20.1186   -6.8016 C   0  0  0  0  0  0  0  0  0  0  0  0
   28.6903  -20.3153   -6.8489 C   0  0  0  0  0  0  0  0  0  0  0  0
   29.2842  -20.6288   -8.0478 C   0  0  0  0  0  0  0  0  0  0  0  0
   28.4903  -20.7382   -9.1691 C   0  0  0  0  0  0  0  0  0  0  0  0
   27.1126  -20.5386   -9.1070 C   0  0  0  0  0  0  0  0  0  0  0  0
   24.0724  -20.8190  -12.1693 C   0  0  0  0  0  0  0  0  0  0  0  0
   23.7722  -19.8831  -12.9409 O   0  0  0  0  0  0  0  0  0  0  0  0
   23.1470  -21.1404  -11.1818 O   0  0  0  0  0  0  0  0  0  0  0  0
  2  1  1  1
  2  3  1  0
  4  2  1  0
  4  5  1  1
  6  4  1  0
  6  7  2  0
  8  6  1  0
  9  8  1  0
 10  9  1  0
 11 10  1  0
 11 12  1  0
 12  8  1  0
 12 13  1  1
 13 14  2  0
 15 13  1  0
 16 15  1  0
 16 17  1  6
 17 18  1  0
 18 26  1  0
 18 19  2  0
 19 20  1  0
 21 22  2  0
 21 20  1  0
 23 22  1  0
 24 23  2  0
 25 24  1  0
 25 26  2  0
 26 21  1  0
 27 16  1  0
 28 27  2  0
 29 27  1  0
M  END
$$$$
