SDY.pdb
     RDKit          3D

 27 27  0  0  1  0  0  0  0  0999 V2000
   22.6266  -13.4272  -18.3817 O   0  0  0  0  0  0  0  0  0  0  0  0
   21.6338  -13.6253  -17.4275 C   0  0  0  0  0  0  0  0  0  0  0  0
   20.6030  -12.5090  -17.4622 C   0  0  2  0  0  0  0  0  0  0  0  0
   21.2686  -11.2757  -17.0910 N   0  0  0  0  0  0  0  0  0  0  0  0
   19.4908  -12.8234  -16.5257 C   0  0  0  0  0  0  0  0  0  0  0  0
   19.6165  -12.5879  -15.3116 O   0  0  0  0  0  0  0  0  0  0  0  0
   18.2730  -13.3933  -16.9895 N   0  0  0  0  0  0  0  0  0  0  0  0
   17.2041  -13.7591  -16.0882 C   0  0  1  0  0  0  0  0  0  0  0  0
   15.8438  -13.5098  -16.6509 C   0  0  0  0  0  0  0  0  0  0  0  0
   14.7422  -13.7941  -15.7117 C   0  0  0  0  0  0  0  0  0  0  0  0
   13.6220  -14.1085  -16.1520 O   0  0  0  0  0  0  0  0  0  0  0  0
   17.2948  -15.1793  -15.6654 C   0  0  0  0  0  0  0  0  0  0  0  0
   17.5217  -16.1250  -16.4374 O   0  0  0  0  0  0  0  0  0  0  0  0
   14.9654  -13.7084  -14.3572 O   0  0  0  0  0  0  0  0  0  0  0  0
   23.5374  -17.7828  -14.6141 O   0  0  0  0  0  0  0  0  0  0  0  0
   22.2394  -17.6047  -14.1394 C   0  0  0  0  0  0  0  0  0  0  0  0
   21.3950  -18.6619  -13.8726 C   0  0  0  0  0  0  0  0  0  0  0  0
   20.1202  -18.4566  -13.4054 C   0  0  0  0  0  0  0  0  0  0  0  0
   19.6491  -17.1646  -13.1895 C   0  0  0  0  0  0  0  0  0  0  0  0
   18.3058  -16.8709  -12.7028 C   0  0  0  0  0  0  0  0  0  0  0  0
   17.2512  -16.8435  -13.7859 C   0  0  2  0  0  0  0  0  0  0  0  0
   17.1108  -15.4788  -14.2893 N   0  0  0  0  0  0  0  0  0  0  0  0
   15.9563  -17.2516  -13.2383 C   0  0  0  0  0  0  0  0  0  0  0  0
   15.7750  -18.5368  -12.7791 O   0  0  0  0  0  0  0  0  0  0  0  0
   20.5137  -16.1071  -13.4634 C   0  0  0  0  0  0  0  0  0  0  0  0
   21.7738  -16.3179  -13.9254 C   0  0  0  0  0  0  0  0  0  0  0  0
   15.0063  -16.4480  -13.1820 O   0  0  0  0  0  0  0  0  0  0  0  0
  1  2  1  0
  3  2  1  0
  3  4  1  1
  5  3  1  0
  5  7  1  0
  6  5  2  0
  7  8  1  0
  8  9  1  6
  9 10  1  0
 10 14  1  0
 11 10  2  0
 12  8  1  0
 13 12  2  0
 16 15  1  0
 16 17  2  0
 18 17  1  0
 19 18  2  0
 20 19  1  0
 21 22  1  0
 21 20  1  1
 22 12  1  0
 23 21  1  0
 24 23  1  0
 25 26  2  0
 25 19  1  0
 26 16  1  0
 27 23  2  0
M  END
$$$$
