SDY.pdb
     RDKit          3D

 27 27  0  0  1  0  0  0  0  0999 V2000
   28.8698  -18.6740  -14.7144 O   0  0  0  0  0  0  0  0  0  0  0  0
   28.8207  -19.1939  -16.0038 C   0  0  0  0  0  0  0  0  0  0  0  0
   27.4014  -19.1909  -16.5474 C   0  0  2  0  0  0  0  0  0  0  0  0
   27.0221  -17.8140  -16.7966 N   0  0  0  0  0  0  0  0  0  0  0  0
   26.4863  -19.8320  -15.5653 C   0  0  0  0  0  0  0  0  0  0  0  0
   25.6058  -19.1568  -15.0048 O   0  0  0  0  0  0  0  0  0  0  0  0
   26.5943  -21.2141  -15.2475 N   0  0  0  0  0  0  0  0  0  0  0  0
   25.7157  -21.8541  -14.2951 C   0  0  1  0  0  0  0  0  0  0  0  0
   25.4551  -23.2916  -14.6029 C   0  0  0  0  0  0  0  0  0  0  0  0
   24.7351  -23.5152  -15.8709 C   0  0  0  0  0  0  0  0  0  0  0  0
   24.1980  -22.5557  -16.4526 O   0  0  0  0  0  0  0  0  0  0  0  0
   26.2285  -21.7468  -12.9060 C   0  0  0  0  0  0  0  0  0  0  0  0
   27.4266  -21.8427  -12.5943 O   0  0  0  0  0  0  0  0  0  0  0  0
   24.6649  -24.7839  -16.3975 O   0  0  0  0  0  0  0  0  0  0  0  0
   28.9813  -19.2453   -5.3764 O   0  0  0  0  0  0  0  0  0  0  0  0
   28.3480  -19.4133   -6.6062 C   0  0  0  0  0  0  0  0  0  0  0  0
   27.1536  -18.7977   -6.9164 C   0  0  0  0  0  0  0  0  0  0  0  0
   26.5519  -18.9814   -8.1369 C   0  0  0  0  0  0  0  0  0  0  0  0
   27.1407  -19.8011   -9.0957 C   0  0  0  0  0  0  0  0  0  0  0  0
   26.5556  -20.0485  -10.4088 C   0  0  0  0  0  0  0  0  0  0  0  0
   25.7261  -21.3102  -10.4851 C   0  0  2  0  0  0  0  0  0  0  0  0
   25.2904  -21.5196  -11.8641 N   0  0  0  0  0  0  0  0  0  0  0  0
   24.5277  -21.1759   -9.6549 C   0  0  0  0  0  0  0  0  0  0  0  0
   24.5537  -21.5700   -8.3361 O   0  0  0  0  0  0  0  0  0  0  0  0
   28.3471  -20.4159   -8.7678 C   0  0  0  0  0  0  0  0  0  0  0  0
   28.9366  -20.2293   -7.5582 C   0  0  0  0  0  0  0  0  0  0  0  0
   23.4745  -20.7080  -10.1273 O   0  0  0  0  0  0  0  0  0  0  0  0
  1  2  1  0
  3  2  1  0
  3  4  1  1
  5  3  1  0
  5  7  1  0
  6  5  2  0
  7  8  1  0
  8  9  1  6
  9 10  1  0
 10 14  1  0
 11 10  2  0
 12  8  1  0
 13 12  2  0
 16 15  1  0
 16 17  2  0
 18 17  1  0
 19 18  2  0
 20 19  1  0
 21 22  1  0
 21 20  1  6
 22 12  1  0
 23 21  1  0
 24 23  1  0
 25 26  2  0
 25 19  1  0
 26 16  1  0
 27 23  2  0
M  END
$$$$
