SDY.pdb
     RDKit          3D

 27 27  0  0  1  0  0  0  0  0999 V2000
   17.4818  -18.6734    2.5155 O   0  0  0  0  0  0  0  0  0  0  0  0
   17.7818  -17.9470    3.6634 C   0  0  0  0  0  0  0  0  0  0  0  0
   16.8159  -18.2713    4.7912 C   0  0  2  0  0  0  0  0  0  0  0  0
   15.5507  -17.6290    4.4933 N   0  0  0  0  0  0  0  0  0  0  0  0
   17.3731  -17.7896    6.0835 C   0  0  0  0  0  0  0  0  0  0  0  0
   17.1133  -16.6409    6.4817 O   0  0  0  0  0  0  0  0  0  0  0  0
   18.2053  -18.6193    6.8847 N   0  0  0  0  0  0  0  0  0  0  0  0
   18.7231  -18.1834    8.1616 C   0  0  1  0  0  0  0  0  0  0  0  0
   18.9250  -19.3007    9.1313 C   0  0  0  0  0  0  0  0  0  0  0  0
   17.8859  -19.3878   10.1747 C   0  0  0  0  0  0  0  0  0  0  0  0
   17.4761  -20.5022   10.5456 O   0  0  0  0  0  0  0  0  0  0  0  0
   19.9982  -17.4365    8.0190 C   0  0  0  0  0  0  0  0  0  0  0  0
   20.8322  -17.6428    7.1225 O   0  0  0  0  0  0  0  0  0  0  0  0
   17.3800  -18.2342   10.7274 O   0  0  0  0  0  0  0  0  0  0  0  0
   18.6543  -11.7614    4.6474 O   0  0  0  0  0  0  0  0  0  0  0  0
   19.3144  -12.3310    5.7344 C   0  0  0  0  0  0  0  0  0  0  0  0
   20.6468  -12.0951    6.0006 C   0  0  0  0  0  0  0  0  0  0  0  0
   21.2716  -12.6702    7.0796 C   0  0  0  0  0  0  0  0  0  0  0  0
   20.5664  -13.5118    7.9354 C   0  0  0  0  0  0  0  0  0  0  0  0
   21.1658  -14.1630    9.0948 C   0  0  0  0  0  0  0  0  0  0  0  0
   21.5050  -15.6198    8.8753 C   0  0  2  0  0  0  0  0  0  0  0  0
   20.2853  -16.4193    8.9677 N   0  0  0  0  0  0  0  0  0  0  0  0
   22.4228  -16.0856    9.9164 C   0  0  0  0  0  0  0  0  0  0  0  0
   23.7246  -15.6382    9.9399 O   0  0  0  0  0  0  0  0  0  0  0  0
   19.2213  -13.7403    7.6535 C   0  0  0  0  0  0  0  0  0  0  0  0
   18.6096  -13.1676    6.5841 C   0  0  0  0  0  0  0  0  0  0  0  0
   22.0420  -16.8890   10.7887 O   0  0  0  0  0  0  0  0  0  0  0  0
  1  2  1  0
  3  2  1  0
  3  4  1  6
  5  3  1  0
  5  7  1  0
  6  5  2  0
  7  8  1  0
  8  9  1  1
  9 10  1  0
 10 14  1  0
 11 10  2  0
 12  8  1  0
 13 12  2  0
 16 15  1  0
 16 17  2  0
 18 17  1  0
 19 18  2  0
 20 19  1  0
 21 22  1  0
 21 20  1  1
 22 12  1  0
 23 21  1  0
 24 23  1  0
 25 26  2  0
 25 19  1  0
 26 16  1  0
 27 23  2  0
M  END
$$$$
