SDY.pdb
     RDKit          3D

 27 27  0  0  1  0  0  0  0  0999 V2000
   16.5011  -12.9008  -17.7818 O   0  0  0  0  0  0  0  0  0  0  0  0
   16.7342  -12.1696  -16.6215 C   0  0  0  0  0  0  0  0  0  0  0  0
   18.2224  -12.0244  -16.3490 C   0  0  2  0  0  0  0  0  0  0  0  0
   18.7452  -13.3356  -16.0185 N   0  0  0  0  0  0  0  0  0  0  0  0
   18.4372  -11.0627  -15.2347 C   0  0  0  0  0  0  0  0  0  0  0  0
   18.5232  -11.4764  -14.0657 O   0  0  0  0  0  0  0  0  0  0  0  0
   18.5482   -9.6653  -15.4756 N   0  0  0  0  0  0  0  0  0  0  0  0
   18.8085   -8.7211  -14.4129 C   0  0  1  0  0  0  0  0  0  0  0  0
   19.5039   -7.4841  -14.8771 C   0  0  0  0  0  0  0  0  0  0  0  0
   19.8506   -6.5454  -13.7932 C   0  0  0  0  0  0  0  0  0  0  0  0
   19.5148   -5.3508  -13.8809 O   0  0  0  0  0  0  0  0  0  0  0  0
   17.5669   -8.3329  -13.6974 C   0  0  0  0  0  0  0  0  0  0  0  0
   16.4935   -8.0597  -14.2586 O   0  0  0  0  0  0  0  0  0  0  0  0
   20.5426   -7.0013  -12.6953 O   0  0  0  0  0  0  0  0  0  0  0  0
   12.2527   -6.9562   -6.7212 O   0  0  0  0  0  0  0  0  0  0  0  0
   13.2679   -7.3576   -7.5872 C   0  0  0  0  0  0  0  0  0  0  0  0
   13.0790   -8.3195   -8.5572 C   0  0  0  0  0  0  0  0  0  0  0  0
   14.0980   -8.6956   -9.3972 C   0  0  0  0  0  0  0  0  0  0  0  0
   15.3552   -8.1083   -9.2858 C   0  0  0  0  0  0  0  0  0  0  0  0
   16.4852   -8.4631  -10.1372 C   0  0  0  0  0  0  0  0  0  0  0  0
   16.4462   -7.8273  -11.5083 C   0  0  2  0  0  0  0  0  0  0  0  0
   17.6064   -8.2692  -12.2791 N   0  0  0  0  0  0  0  0  0  0  0  0
   16.5190   -6.3699  -11.3898 C   0  0  0  0  0  0  0  0  0  0  0  0
   15.3638   -5.6227  -11.3394 O   0  0  0  0  0  0  0  0  0  0  0  0
   15.5305   -7.1382   -8.3014 C   0  0  0  0  0  0  0  0  0  0  0  0
   14.5175   -6.7711   -7.4739 C   0  0  0  0  0  0  0  0  0  0  0  0
   17.6196   -5.7893  -11.3351 O   0  0  0  0  0  0  0  0  0  0  0  0
  1  2  1  0
  3  2  1  0
  3  4  1  1
  5  3  1  0
  5  7  1  0
  6  5  2  0
  7  8  1  0
  8  9  1  6
  9 10  1  0
 10 14  1  0
 11 10  2  0
 12  8  1  0
 13 12  2  0
 16 15  1  0
 16 17  2  0
 18 17  1  0
 19 18  2  0
 20 19  1  0
 21 22  1  0
 21 20  1  1
 22 12  1  0
 23 21  1  0
 24 23  1  0
 25 26  2  0
 25 19  1  0
 26 16  1  0
 27 23  2  0
M  END
$$$$
