SDY.pdb
     RDKit          3D

 27 27  0  0  1  0  0  0  0  0999 V2000
   17.8978  -11.5473  -15.0595 O   0  0  0  0  0  0  0  0  0  0  0  0
   18.4410  -10.2948  -15.3270 C   0  0  0  0  0  0  0  0  0  0  0  0
   19.1048  -10.2606  -16.6939 C   0  0  2  0  0  0  0  0  0  0  0  0
   20.2054  -11.2041  -16.6789 N   0  0  0  0  0  0  0  0  0  0  0  0
   19.5815   -8.8821  -16.9860 C   0  0  0  0  0  0  0  0  0  0  0  0
   20.7526   -8.6964  -17.3593 O   0  0  0  0  0  0  0  0  0  0  0  0
   18.7214   -7.7578  -16.8474 N   0  0  0  0  0  0  0  0  0  0  0  0
   19.1576   -6.4148  -17.1548 C   0  0  1  0  0  0  0  0  0  0  0  0
   18.1492   -5.6259  -17.9230 C   0  0  0  0  0  0  0  0  0  0  0  0
   18.6365   -4.3120  -18.3840 C   0  0  0  0  0  0  0  0  0  0  0  0
   19.8460   -4.0359  -18.2922 O   0  0  0  0  0  0  0  0  0  0  0  0
   19.5288   -5.6573  -15.9331 C   0  0  0  0  0  0  0  0  0  0  0  0
   18.8405   -5.6163  -14.9004 O   0  0  0  0  0  0  0  0  0  0  0  0
   17.7473   -3.4046  -18.9112 O   0  0  0  0  0  0  0  0  0  0  0  0
   23.6944  -10.2704  -14.3599 O   0  0  0  0  0  0  0  0  0  0  0  0
   23.4314   -8.9021  -14.3692 C   0  0  0  0  0  0  0  0  0  0  0  0
   22.6426   -8.2913  -13.4170 C   0  0  0  0  0  0  0  0  0  0  0  0
   22.4003   -6.9402  -13.4509 C   0  0  0  0  0  0  0  0  0  0  0  0
   22.9509   -6.1512  -14.4570 C   0  0  0  0  0  0  0  0  0  0  0  0
   22.7305   -4.7130  -14.5605 C   0  0  0  0  0  0  0  0  0  0  0  0
   21.2790   -4.3232  -14.7245 C   0  0  2  0  0  0  0  0  0  0  0  0
   20.7498   -4.9319  -15.9430 N   0  0  0  0  0  0  0  0  0  0  0  0
   21.1604   -2.8707  -14.8645 C   0  0  0  0  0  0  0  0  0  0  0  0
   21.4766   -2.0471  -13.8075 O   0  0  0  0  0  0  0  0  0  0  0  0
   23.7455   -6.7825  -15.4115 C   0  0  0  0  0  0  0  0  0  0  0  0
   23.9810   -8.1199  -15.3715 C   0  0  0  0  0  0  0  0  0  0  0  0
   20.7728   -2.3631  -15.9338 O   0  0  0  0  0  0  0  0  0  0  0  0
  1  2  1  0
  3  2  1  0
  3  4  1  1
  5  3  1  0
  5  7  1  0
  6  5  2  0
  7  8  1  0
  8  9  1  1
  9 10  1  0
 10 14  1  0
 11 10  2  0
 12  8  1  0
 13 12  2  0
 16 15  1  0
 16 17  2  0
 18 17  1  0
 19 18  2  0
 20 19  1  0
 21 22  1  0
 21 20  1  6
 22 12  1  0
 23 21  1  0
 24 23  1  0
 25 26  2  0
 25 19  1  0
 26 16  1  0
 27 23  2  0
M  END
$$$$
