SDY.pdb
     RDKit          3D

 27 27  0  0  1  0  0  0  0  0999 V2000
   27.3261  -22.7107  -17.6716 O   0  0  0  0  0  0  0  0  0  0  0  0
   28.0492  -21.7118  -18.3156 C   0  0  0  0  0  0  0  0  0  0  0  0
   27.1921  -20.4815  -18.5640 C   0  0  2  0  0  0  0  0  0  0  0  0
   27.9919  -19.5219  -19.2997 N   0  0  0  0  0  0  0  0  0  0  0  0
   26.7347  -19.9179  -17.2655 C   0  0  0  0  0  0  0  0  0  0  0  0
   27.4816  -19.1636  -16.6187 O   0  0  0  0  0  0  0  0  0  0  0  0
   25.4493  -20.2238  -16.7390 N   0  0  0  0  0  0  0  0  0  0  0  0
   24.9934  -19.6983  -15.4723 C   0  0  1  0  0  0  0  0  0  0  0  0
   23.7401  -18.8942  -15.5813 C   0  0  0  0  0  0  0  0  0  0  0  0
   22.5620  -19.6706  -16.0120 C   0  0  0  0  0  0  0  0  0  0  0  0
   21.5921  -19.7973  -15.2433 O   0  0  0  0  0  0  0  0  0  0  0  0
   24.7883  -20.7711  -14.4666 C   0  0  0  0  0  0  0  0  0  0  0  0
   23.7577  -21.4579  -14.3780 O   0  0  0  0  0  0  0  0  0  0  0  0
   22.5480  -20.2471  -17.2608 O   0  0  0  0  0  0  0  0  0  0  0  0
   25.8270  -20.2343   -5.8047 O   0  0  0  0  0  0  0  0  0  0  0  0
   26.0407  -20.1846   -7.1807 C   0  0  0  0  0  0  0  0  0  0  0  0
   26.7214  -19.1511   -7.7894 C   0  0  0  0  0  0  0  0  0  0  0  0
   26.9173  -19.1283   -9.1483 C   0  0  0  0  0  0  0  0  0  0  0  0
   26.4279  -20.1577   -9.9475 C   0  0  0  0  0  0  0  0  0  0  0  0
   26.5913  -20.1958  -11.3965 C   0  0  0  0  0  0  0  0  0  0  0  0
   25.5874  -21.0758  -12.1060 C   0  0  2  0  0  0  0  0  0  0  0  0
   25.8373  -21.0310  -13.5451 N   0  0  0  0  0  0  0  0  0  0  0  0
   24.2298  -20.5793  -11.8740 C   0  0  0  0  0  0  0  0  0  0  0  0
   23.4018  -21.2239  -10.9828 O   0  0  0  0  0  0  0  0  0  0  0  0
   25.7426  -21.1946   -9.3182 C   0  0  0  0  0  0  0  0  0  0  0  0
   25.5527  -21.2106   -7.9731 C   0  0  0  0  0  0  0  0  0  0  0  0
   23.8071  -19.5746  -12.4768 O   0  0  0  0  0  0  0  0  0  0  0  0
  1  2  1  0
  3  2  1  0
  3  4  1  1
  5  3  1  0
  5  7  1  0
  6  5  2  0
  7  8  1  0
  8  9  1  6
  9 10  1  0
 10 14  1  0
 11 10  2  0
 12  8  1  0
 13 12  2  0
 16 15  1  0
 16 17  2  0
 18 17  1  0
 19 18  2  0
 20 19  1  0
 21 22  1  0
 21 20  1  1
 22 12  1  0
 23 21  1  0
 24 23  1  0
 25 26  2  0
 25 19  1  0
 26 16  1  0
 27 23  2  0
M  END
$$$$
