SDY.pdb
     RDKit          3D

 27 27  0  0  1  0  0  0  0  0999 V2000
   17.7614  -12.5845  -19.5803 O   0  0  0  0  0  0  0  0  0  0  0  0
   18.5674  -11.4870  -19.2957 C   0  0  0  0  0  0  0  0  0  0  0  0
   18.6414  -11.2285  -17.7997 C   0  0  2  0  0  0  0  0  0  0  0  0
   17.3490  -11.5502  -17.2271 N   0  0  0  0  0  0  0  0  0  0  0  0
   19.0003   -9.8061  -17.5533 C   0  0  0  0  0  0  0  0  0  0  0  0
   20.0518   -9.3405  -18.0254 O   0  0  0  0  0  0  0  0  0  0  0  0
   18.1612   -8.9551  -16.7821 N   0  0  0  0  0  0  0  0  0  0  0  0
   18.4669   -7.5579  -16.5747 C   0  0  1  0  0  0  0  0  0  0  0  0
   17.2587   -6.7191  -16.3180 C   0  0  0  0  0  0  0  0  0  0  0  0
   17.5339   -5.2714  -16.2508 C   0  0  0  0  0  0  0  0  0  0  0  0
   18.3377   -4.7586  -17.0498 O   0  0  0  0  0  0  0  0  0  0  0  0
   19.4330   -7.3588  -15.4651 C   0  0  0  0  0  0  0  0  0  0  0  0
   19.3410   -7.9028  -14.3527 O   0  0  0  0  0  0  0  0  0  0  0  0
   16.8980   -4.5024  -15.3041 O   0  0  0  0  0  0  0  0  0  0  0  0
   23.4189  -12.3300  -15.9060 O   0  0  0  0  0  0  0  0  0  0  0  0
   23.3059  -10.9568  -15.6979 C   0  0  0  0  0  0  0  0  0  0  0  0
   23.5329  -10.3708  -14.4703 C   0  0  0  0  0  0  0  0  0  0  0  0
   23.4141   -9.0142  -14.2943 C   0  0  0  0  0  0  0  0  0  0  0  0
   23.0584   -8.1943  -15.3616 C   0  0  0  0  0  0  0  0  0  0  0  0
   22.9059   -6.7481  -15.2468 C   0  0  0  0  0  0  0  0  0  0  0  0
   21.5751   -6.3130  -14.6766 C   0  0  2  0  0  0  0  0  0  0  0  0
   20.5348   -6.4907  -15.6874 N   0  0  0  0  0  0  0  0  0  0  0  0
   21.6176   -4.8922  -14.3263 C   0  0  0  0  0  0  0  0  0  0  0  0
   22.3958   -4.4634  -13.2747 O   0  0  0  0  0  0  0  0  0  0  0  0
   22.8326   -8.8008  -16.5953 C   0  0  0  0  0  0  0  0  0  0  0  0
   22.9521  -10.1437  -16.7621 C   0  0  0  0  0  0  0  0  0  0  0  0
   20.9536   -4.0572  -14.9692 O   0  0  0  0  0  0  0  0  0  0  0  0
  1  2  1  0
  3  2  1  0
  3  4  1  1
  5  3  1  0
  5  7  1  0
  6  5  2  0
  7  8  1  0
  8  9  1  1
  9 10  1  0
 10 14  1  0
 11 10  2  0
 12  8  1  0
 13 12  2  0
 16 15  1  0
 16 17  2  0
 18 17  1  0
 19 18  2  0
 20 19  1  0
 21 22  1  0
 21 20  1  6
 22 12  1  0
 23 21  1  0
 24 23  1  0
 25 26  2  0
 25 19  1  0
 26 16  1  0
 27 23  2  0
M  END
$$$$
