SDY.pdb
     RDKit          3D

 27 27  0  0  1  0  0  0  0  0999 V2000
   21.5436  -14.5860  -18.7362 O   0  0  0  0  0  0  0  0  0  0  0  0
   20.9377  -13.3345  -18.6937 C   0  0  0  0  0  0  0  0  0  0  0  0
   21.7713  -12.3434  -17.8981 C   0  0  2  0  0  0  0  0  0  0  0  0
   22.2306  -13.0109  -16.6959 N   0  0  0  0  0  0  0  0  0  0  0  0
   20.9506  -11.1471  -17.5695 C   0  0  0  0  0  0  0  0  0  0  0  0
   20.5572  -10.3955  -18.4782 O   0  0  0  0  0  0  0  0  0  0  0  0
   20.6004  -10.8374  -16.2262 N   0  0  0  0  0  0  0  0  0  0  0  0
   19.8374   -9.6588  -15.8837 C   0  0  1  0  0  0  0  0  0  0  0  0
   18.9243   -9.8620  -14.7200 C   0  0  0  0  0  0  0  0  0  0  0  0
   17.8578  -10.8532  -14.9572 C   0  0  0  0  0  0  0  0  0  0  0  0
   17.2056  -10.8160  -16.0159 O   0  0  0  0  0  0  0  0  0  0  0  0
   20.7117   -8.4909  -15.6084 C   0  0  0  0  0  0  0  0  0  0  0  0
   21.7341   -8.5340  -14.9050 O   0  0  0  0  0  0  0  0  0  0  0  0
   17.5951  -11.8095  -14.0040 O   0  0  0  0  0  0  0  0  0  0  0  0
   23.6447   -0.1607  -16.4184 O   0  0  0  0  0  0  0  0  0  0  0  0
   22.8666   -1.3152  -16.4759 C   0  0  0  0  0  0  0  0  0  0  0  0
   21.7759   -1.5170  -15.6563 C   0  0  0  0  0  0  0  0  0  0  0  0
   21.0269   -2.6651  -15.7350 C   0  0  0  0  0  0  0  0  0  0  0  0
   21.3561   -3.6590  -16.6525 C   0  0  0  0  0  0  0  0  0  0  0  0
   20.6116   -4.9061  -16.7865 C   0  0  0  0  0  0  0  0  0  0  0  0
   21.1975   -6.0596  -16.0042 C   0  0  2  0  0  0  0  0  0  0  0  0
   20.3586   -7.2423  -16.1858 N   0  0  0  0  0  0  0  0  0  0  0  0
   21.2154   -5.7414  -14.5753 C   0  0  0  0  0  0  0  0  0  0  0  0
   20.0700   -5.8762  -13.8235 O   0  0  0  0  0  0  0  0  0  0  0  0
   22.4602   -3.4406  -17.4735 C   0  0  0  0  0  0  0  0  0  0  0  0
   23.1967   -2.3021  -17.3901 C   0  0  0  0  0  0  0  0  0  0  0  0
   22.2596   -5.3454  -14.0237 O   0  0  0  0  0  0  0  0  0  0  0  0
  1  2  1  0
  3  2  1  0
  3  4  1  1
  5  3  1  0
  5  7  1  0
  6  5  2  0
  7  8  1  0
  8  9  1  1
  9 10  1  0
 10 14  1  0
 11 10  2  0
 12  8  1  0
 13 12  2  0
 16 15  1  0
 16 17  2  0
 18 17  1  0
 19 18  2  0
 20 19  1  0
 21 22  1  0
 21 20  1  6
 22 12  1  0
 23 21  1  0
 24 23  1  0
 25 26  2  0
 25 19  1  0
 26 16  1  0
 27 23  2  0
M  END
$$$$
