SDY.pdb
     RDKit          3D

 27 27  0  0  1  0  0  0  0  0999 V2000
   31.9759  -29.7253  -19.8321 O   0  0  0  0  0  0  0  0  0  0  0  0
   32.2548  -29.3663  -18.5173 C   0  0  0  0  0  0  0  0  0  0  0  0
   32.3967  -30.5908  -17.6281 C   0  0  2  0  0  0  0  0  0  0  0  0
   33.5436  -31.3473  -18.0906 N   0  0  0  0  0  0  0  0  0  0  0  0
   31.1533  -31.4048  -17.6927 C   0  0  0  0  0  0  0  0  0  0  0  0
   31.1591  -32.5015  -18.2779 O   0  0  0  0  0  0  0  0  0  0  0  0
   29.9437  -30.9550  -17.0949 N   0  0  0  0  0  0  0  0  0  0  0  0
   28.7422  -31.7583  -17.0944 C   0  0  1  0  0  0  0  0  0  0  0  0
   27.8433  -31.4784  -15.9356 C   0  0  0  0  0  0  0  0  0  0  0  0
   26.6859  -32.3880  -15.8378 C   0  0  0  0  0  0  0  0  0  0  0  0
   26.8720  -33.6107  -15.7041 O   0  0  0  0  0  0  0  0  0  0  0  0
   27.9673  -31.6005  -18.3509 C   0  0  0  0  0  0  0  0  0  0  0  0
   27.9861  -30.5814  -19.0600 O   0  0  0  0  0  0  0  0  0  0  0  0
   25.4114  -31.8740  -15.8956 O   0  0  0  0  0  0  0  0  0  0  0  0
   24.6254  -32.2378  -26.1651 O   0  0  0  0  0  0  0  0  0  0  0  0
   25.2683  -32.3112  -24.9310 C   0  0  0  0  0  0  0  0  0  0  0  0
   25.4149  -33.4955  -24.2396 C   0  0  0  0  0  0  0  0  0  0  0  0
   26.0533  -33.5381  -23.0247 C   0  0  0  0  0  0  0  0  0  0  0  0
   26.5705  -32.3756  -22.4600 C   0  0  0  0  0  0  0  0  0  0  0  0
   27.2529  -32.3442  -21.1712 C   0  0  0  0  0  0  0  0  0  0  0  0
   26.3460  -32.5975  -19.9883 C   0  0  2  0  0  0  0  0  0  0  0  0
   27.1511  -32.6838  -18.7718 N   0  0  0  0  0  0  0  0  0  0  0  0
   25.6489  -33.8743  -20.1527 C   0  0  0  0  0  0  0  0  0  0  0  0
   26.2549  -35.0471  -19.7618 O   0  0  0  0  0  0  0  0  0  0  0  0
   26.4147  -31.1873  -23.1702 C   0  0  0  0  0  0  0  0  0  0  0  0
   25.7820  -31.1527  -24.3719 C   0  0  0  0  0  0  0  0  0  0  0  0
   24.5063  -33.9176  -20.6466 O   0  0  0  0  0  0  0  0  0  0  0  0
  1  2  1  0
  3  2  1  0
  3  4  1  6
  5  3  1  0
  5  7  1  0
  6  5  2  0
  7  8  1  0
  8  9  1  1
  9 10  1  0
 10 14  1  0
 11 10  2  0
 12  8  1  0
 13 12  2  0
 16 15  1  0
 16 17  2  0
 18 17  1  0
 19 18  2  0
 20 19  1  0
 21 22  1  0
 21 20  1  6
 22 12  1  0
 23 21  1  0
 24 23  1  0
 25 26  2  0
 25 19  1  0
 26 16  1  0
 27 23  2  0
M  END
$$$$
