SDY.pdb
     RDKit          3D

 27 27  0  0  1  0  0  0  0  0999 V2000
   24.2295  -15.2860  -19.4354 O   0  0  0  0  0  0  0  0  0  0  0  0
   24.2560  -16.5767  -18.9170 C   0  0  0  0  0  0  0  0  0  0  0  0
   25.1446  -17.4879  -19.7477 C   0  0  2  0  0  0  0  0  0  0  0  0
   24.5889  -17.5544  -21.0851 N   0  0  0  0  0  0  0  0  0  0  0  0
   25.2051  -18.8362  -19.1224 C   0  0  0  0  0  0  0  0  0  0  0  0
   24.2811  -19.6474  -19.3054 O   0  0  0  0  0  0  0  0  0  0  0  0
   26.3063  -19.2256  -18.3108 N   0  0  0  0  0  0  0  0  0  0  0  0
   26.3328  -20.4872  -17.6062 C   0  0  1  0  0  0  0  0  0  0  0  0
   27.5591  -21.2934  -17.8812 C   0  0  0  0  0  0  0  0  0  0  0  0
   27.5759  -22.6100  -17.2160 C   0  0  0  0  0  0  0  0  0  0  0  0
   26.5924  -23.3648  -17.3174 O   0  0  0  0  0  0  0  0  0  0  0  0
   26.1967  -20.3075  -16.1387 C   0  0  0  0  0  0  0  0  0  0  0  0
   27.1305  -19.9908  -15.3841 O   0  0  0  0  0  0  0  0  0  0  0  0
   28.6805  -22.9898  -16.4896 O   0  0  0  0  0  0  0  0  0  0  0  0
   24.3377  -21.0819   -7.7878 O   0  0  0  0  0  0  0  0  0  0  0  0
   24.5982  -20.8018   -9.1277 C   0  0  0  0  0  0  0  0  0  0  0  0
   25.8382  -20.9960   -9.6992 C   0  0  0  0  0  0  0  0  0  0  0  0
   26.0664  -20.7112  -11.0229 C   0  0  0  0  0  0  0  0  0  0  0  0
   25.0409  -20.2155  -11.8233 C   0  0  0  0  0  0  0  0  0  0  0  0
   25.2122  -19.8836  -13.2333 C   0  0  0  0  0  0  0  0  0  0  0  0
   24.7756  -20.9780  -14.1805 C   0  0  2  0  0  0  0  0  0  0  0  0
   24.9167  -20.5101  -15.5577 N   0  0  0  0  0  0  0  0  0  0  0  0
   23.3642  -21.2998  -13.9619 C   0  0  0  0  0  0  0  0  0  0  0  0
   22.3943  -20.7231  -14.7507 O   0  0  0  0  0  0  0  0  0  0  0  0
   23.7941  -20.0247  -11.2318 C   0  0  0  0  0  0  0  0  0  0  0  0
   23.5757  -20.3089   -9.9214 C   0  0  0  0  0  0  0  0  0  0  0  0
   23.0231  -22.0930  -13.0642 O   0  0  0  0  0  0  0  0  0  0  0  0
  1  2  1  0
  3  2  1  0
  3  4  1  6
  5  3  1  0
  5  7  1  0
  6  5  2  0
  7  8  1  0
  8  9  1  1
  9 10  1  0
 10 14  1  0
 11 10  2  0
 12  8  1  0
 13 12  2  0
 16 15  1  0
 16 17  2  0
 18 17  1  0
 19 18  2  0
 20 19  1  0
 21 22  1  0
 21 20  1  1
 22 12  1  0
 23 21  1  0
 24 23  1  0
 25 26  2  0
 25 19  1  0
 26 16  1  0
 27 23  2  0
M  END
$$$$
