SDY.pdb
     RDKit          3D

 27 27  0  0  1  0  0  0  0  0999 V2000
   20.3655  -13.5784  -21.4336 O   0  0  0  0  0  0  0  0  0  0  0  0
   20.0784  -12.4429  -20.6829 C   0  0  0  0  0  0  0  0  0  0  0  0
   21.2334  -12.0814  -19.7635 C   0  0  2  0  0  0  0  0  0  0  0  0
   21.6289  -13.2807  -19.0515 N   0  0  0  0  0  0  0  0  0  0  0  0
   20.8089  -11.0114  -18.8213 C   0  0  0  0  0  0  0  0  0  0  0  0
   20.4064   -9.9207  -19.2613 O   0  0  0  0  0  0  0  0  0  0  0  0
   20.8525  -11.2066  -17.4131 N   0  0  0  0  0  0  0  0  0  0  0  0
   20.4250  -10.1867  -16.4828 C   0  0  1  0  0  0  0  0  0  0  0  0
   19.8640  -10.7397  -15.2144 C   0  0  0  0  0  0  0  0  0  0  0  0
   18.6828  -11.6029  -15.4043 C   0  0  0  0  0  0  0  0  0  0  0  0
   17.7784  -11.2485  -16.1814 O   0  0  0  0  0  0  0  0  0  0  0  0
   21.5214   -9.2425  -16.1501 C   0  0  0  0  0  0  0  0  0  0  0  0
   22.7123   -9.5710  -16.0253 O   0  0  0  0  0  0  0  0  0  0  0  0
   18.5936  -12.7923  -14.7191 O   0  0  0  0  0  0  0  0  0  0  0  0
   26.0424   -1.8368  -16.8854 O   0  0  0  0  0  0  0  0  0  0  0  0
   25.1555   -2.9092  -16.9575 C   0  0  0  0  0  0  0  0  0  0  0  0
   23.7935   -2.7385  -17.0907 C   0  0  0  0  0  0  0  0  0  0  0  0
   22.9429   -3.8142  -17.1593 C   0  0  0  0  0  0  0  0  0  0  0  0
   23.4424   -5.1120  -17.0950 C   0  0  0  0  0  0  0  0  0  0  0  0
   22.5989   -6.3005  -17.1535 C   0  0  0  0  0  0  0  0  0  0  0  0
   22.2277   -6.8590  -15.7985 C   0  0  2  0  0  0  0  0  0  0  0  0
   21.1896   -7.8744  -15.9621 N   0  0  0  0  0  0  0  0  0  0  0  0
   21.6833   -5.7984  -14.9487 C   0  0  0  0  0  0  0  0  0  0  0  0
   20.3266   -5.5666  -14.9178 O   0  0  0  0  0  0  0  0  0  0  0  0
   24.8202   -5.2683  -16.9606 C   0  0  0  0  0  0  0  0  0  0  0  0
   25.6558   -4.1992  -16.8935 C   0  0  0  0  0  0  0  0  0  0  0  0
   22.4349   -5.0947  -14.2478 O   0  0  0  0  0  0  0  0  0  0  0  0
  1  2  1  0
  3  2  1  0
  3  4  1  1
  5  3  1  0
  5  7  1  0
  6  5  2  0
  7  8  1  0
  8  9  1  1
  9 10  1  0
 10 14  1  0
 11 10  2  0
 12  8  1  0
 13 12  2  0
 16 15  1  0
 16 17  2  0
 18 17  1  0
 19 18  2  0
 20 19  1  0
 21 22  1  0
 21 20  1  6
 22 12  1  0
 23 21  1  0
 24 23  1  0
 25 26  2  0
 25 19  1  0
 26 16  1  0
 27 23  2  0
M  END
$$$$
