SDY.pdb
     RDKit          3D

 27 27  0  0  1  0  0  0  0  0999 V2000
   15.7547  -10.7774  -17.8854 O   0  0  0  0  0  0  0  0  0  0  0  0
   15.7096  -11.0520  -16.5224 C   0  0  0  0  0  0  0  0  0  0  0  0
   15.5619   -9.7783  -15.7064 C   0  0  2  0  0  0  0  0  0  0  0  0
   14.9863   -8.7624  -16.5657 N   0  0  0  0  0  0  0  0  0  0  0  0
   16.8913   -9.3561  -15.1896 C   0  0  0  0  0  0  0  0  0  0  0  0
   17.1017   -9.3312  -13.9647 O   0  0  0  0  0  0  0  0  0  0  0  0
   17.9402   -8.9758  -16.0716 N   0  0  0  0  0  0  0  0  0  0  0  0
   19.2233   -8.5197  -15.5875 C   0  0  1  0  0  0  0  0  0  0  0  0
   20.3262   -9.4988  -15.8200 C   0  0  0  0  0  0  0  0  0  0  0  0
   21.6481   -9.0390  -15.3538 C   0  0  0  0  0  0  0  0  0  0  0  0
   21.7960   -8.6854  -14.1704 O   0  0  0  0  0  0  0  0  0  0  0  0
   19.6090   -7.2140  -16.1797 C   0  0  0  0  0  0  0  0  0  0  0  0
   19.6146   -6.9739  -17.3979 O   0  0  0  0  0  0  0  0  0  0  0  0
   22.7048   -9.0059  -16.2337 O   0  0  0  0  0  0  0  0  0  0  0  0
   21.1353    1.4216  -16.6986 O   0  0  0  0  0  0  0  0  0  0  0  0
   20.7375    0.1468  -16.3006 C   0  0  0  0  0  0  0  0  0  0  0  0
   19.4298   -0.2830  -16.3851 C   0  0  0  0  0  0  0  0  0  0  0  0
   19.0663   -1.5453  -15.9853 C   0  0  0  0  0  0  0  0  0  0  0  0
   20.0194   -2.4259  -15.4814 C   0  0  0  0  0  0  0  0  0  0  0  0
   19.7051   -3.7772  -15.0309 C   0  0  0  0  0  0  0  0  0  0  0  0
   20.4127   -4.8648  -15.8069 C   0  0  2  0  0  0  0  0  0  0  0  0
   19.9968   -6.1701  -15.2983 N   0  0  0  0  0  0  0  0  0  0  0  0
   21.8607   -4.7551  -15.6213 C   0  0  0  0  0  0  0  0  0  0  0  0
   22.6548   -4.2899  -16.6452 O   0  0  0  0  0  0  0  0  0  0  0  0
   21.3360   -1.9775  -15.4023 C   0  0  0  0  0  0  0  0  0  0  0  0
   21.6884   -0.7271  -15.7999 C   0  0  0  0  0  0  0  0  0  0  0  0
   22.3913   -5.0806  -14.5424 O   0  0  0  0  0  0  0  0  0  0  0  0
  1  2  1  0
  3  2  1  0
  3  4  1  6
  5  3  1  0
  5  7  1  0
  6  5  2  0
  7  8  1  0
  8  9  1  6
  9 10  1  0
 10 14  1  0
 11 10  2  0
 12  8  1  0
 13 12  2  0
 16 15  1  0
 16 17  2  0
 18 17  1  0
 19 18  2  0
 20 19  1  0
 21 22  1  0
 21 20  1  1
 22 12  1  0
 23 21  1  0
 24 23  1  0
 25 26  2  0
 25 19  1  0
 26 16  1  0
 27 23  2  0
M  END
$$$$
