SDY.pdb
     RDKit          3D

 27 27  0  0  1  0  0  0  0  0999 V2000
   26.4180  -23.5325  -16.3936 O   0  0  0  0  0  0  0  0  0  0  0  0
   26.5593  -22.7770  -17.5531 C   0  0  0  0  0  0  0  0  0  0  0  0
   26.9681  -21.3480  -17.2354 C   0  0  2  0  0  0  0  0  0  0  0  0
   28.1414  -21.3984  -16.3853 N   0  0  0  0  0  0  0  0  0  0  0  0
   25.8451  -20.6425  -16.5617 C   0  0  0  0  0  0  0  0  0  0  0  0
   26.0771  -19.8598  -15.6242 O   0  0  0  0  0  0  0  0  0  0  0  0
   24.4968  -20.8430  -16.9676 N   0  0  0  0  0  0  0  0  0  0  0  0
   23.3923  -20.1714  -16.3214 C   0  0  1  0  0  0  0  0  0  0  0  0
   22.2014  -20.0043  -17.2063 C   0  0  0  0  0  0  0  0  0  0  0  0
   22.3535  -18.9515  -18.2284 C   0  0  0  0  0  0  0  0  0  0  0  0
   22.8091  -17.8398  -17.9057 O   0  0  0  0  0  0  0  0  0  0  0  0
   22.9714  -20.8638  -15.0773 C   0  0  0  0  0  0  0  0  0  0  0  0
   22.8670  -22.0959  -14.9647 O   0  0  0  0  0  0  0  0  0  0  0  0
   21.9895  -19.2102  -19.5293 O   0  0  0  0  0  0  0  0  0  0  0  0
   21.3630  -21.7076   -6.4100 O   0  0  0  0  0  0  0  0  0  0  0  0
   21.6015  -21.1948   -7.6834 C   0  0  0  0  0  0  0  0  0  0  0  0
   20.6017  -20.6562   -8.4660 C   0  0  0  0  0  0  0  0  0  0  0  0
   20.8659  -20.1579   -9.7179 C   0  0  0  0  0  0  0  0  0  0  0  0
   22.1607  -20.1864  -10.2283 C   0  0  0  0  0  0  0  0  0  0  0  0
   22.5134  -19.6830  -11.5511 C   0  0  0  0  0  0  0  0  0  0  0  0
   22.2919  -20.6782  -12.6674 C   0  0  2  0  0  0  0  0  0  0  0  0
   22.6682  -20.0679  -13.9408 N   0  0  0  0  0  0  0  0  0  0  0  0
   20.8751  -21.0381  -12.7475 C   0  0  0  0  0  0  0  0  0  0  0  0
   20.4217  -22.1942  -12.1530 O   0  0  0  0  0  0  0  0  0  0  0  0
   23.1597  -20.7333   -9.4260 C   0  0  0  0  0  0  0  0  0  0  0  0
   22.8910  -21.2245   -8.1882 C   0  0  0  0  0  0  0  0  0  0  0  0
   20.0657  -20.3094  -13.3518 O   0  0  0  0  0  0  0  0  0  0  0  0
  1  2  1  0
  3  2  1  0
  3  4  1  1
  5  3  1  0
  5  7  1  0
  6  5  2  0
  7  8  1  0
  8  9  1  6
  9 10  1  0
 10 14  1  0
 11 10  2  0
 12  8  1  0
 13 12  2  0
 16 15  1  0
 16 17  2  0
 18 17  1  0
 19 18  2  0
 20 19  1  0
 21 22  1  0
 21 20  1  1
 22 12  1  0
 23 21  1  0
 24 23  1  0
 25 26  2  0
 25 19  1  0
 26 16  1  0
 27 23  2  0
M  END
$$$$
