EIH.pdb
     RDKit          3D

 28 28  0  0  1  0  0  0  0  0999 V2000
   15.2523  -14.1776  -17.4101 N   0  0  0  0  0  0  0  0  0  0  0  0
   15.5994  -13.3621  -16.2703 C   0  0  1  0  0  0  0  0  0  0  0  0
   16.8672  -13.8681  -15.5857 C   0  0  0  0  0  0  0  0  0  0  0  0
   16.6775  -15.3457  -15.3525 C   0  0  0  0  0  0  0  0  0  0  0  0
   17.7696  -15.9155  -14.5214 C   0  0  0  0  0  0  0  0  0  0  0  0
   17.6430  -17.0957  -14.1043 O   0  0  0  0  0  0  0  0  0  0  0  0
   15.8429  -11.9779  -16.7494 C   0  0  0  0  0  0  0  0  0  0  0  0
   16.2797  -11.7657  -17.9171 O   0  0  0  0  0  0  0  0  0  0  0  0
   18.8930  -15.1627  -14.2182 O   0  0  0  0  0  0  0  0  0  0  0  0
   12.3856   -9.8279  -15.8973 C   0  0  0  0  0  0  0  0  0  0  0  0
   13.3078   -8.9839  -16.7056 C   0  0  0  0  0  0  0  0  0  0  0  0
   14.5891   -8.7233  -15.9981 C   0  0  2  0  0  0  0  0  0  0  0  0
   14.8904   -7.2121  -15.9563 C   0  0  0  0  0  0  0  0  0  0  0  0
   15.8008   -9.4576  -16.4947 C   0  0  2  0  0  0  0  0  0  0  0  0
   15.6082  -10.8334  -15.9511 N   0  0  0  0  0  0  0  0  0  0  0  0
   17.1097   -8.9632  -16.1359 C   0  0  0  0  0  0  0  0  0  0  0  0
   17.4530   -9.0684  -14.8953 O   0  0  0  0  0  0  0  0  0  0  0  0
   18.0669   -8.3809  -16.9562 N   0  0  0  0  0  0  0  0  0  0  0  0
   19.3423   -7.8398  -16.4717 C   0  0  1  0  0  0  0  0  0  0  0  0
   20.2323   -7.4494  -17.5873 C   0  0  0  0  0  0  0  0  0  0  0  0
   21.4143   -6.7041  -17.0980 C   0  0  0  0  0  0  0  0  0  0  0  0
   21.6582   -5.3641  -17.0154 C   0  0  0  0  0  0  0  0  0  0  0  0
   22.8551   -5.1798  -16.4223 N   0  0  0  0  0  0  0  0  0  0  0  0
   23.3878   -6.3669  -16.1193 C   0  0  0  0  0  0  0  0  0  0  0  0
   22.5207   -7.2859  -16.5255 N   0  0  0  0  0  0  0  0  0  0  0  0
   18.9238   -6.6003  -15.7173 C   0  0  0  0  0  0  0  0  0  0  0  0
   17.9444   -5.9510  -16.1636 O   0  0  0  0  0  0  0  0  0  0  0  0
   19.5539   -6.1678  -14.6008 O   0  0  0  0  0  0  0  0  0  0  0  0
  2  3  1  0
  2  1  1  6
  4  5  1  0
  4  3  1  0
  5  6  2  0
  7  2  1  0
  8  7  2  0
  9  5  1  0
 11 12  1  0
 11 10  1  0
 12 13  1  6
 12 14  1  0
 14 15  1  1
 15  7  1  0
 16 17  2  0
 16 14  1  0
 18 16  1  0
 19 18  1  0
 19 20  1  6
 20 21  1  0
 21 25  1  0
 21 22  2  0
 22 23  1  0
 24 23  1  0
 25 24  2  0
 26 19  1  0
 27 26  2  0
 28 26  1  0
M  END
$$$$
