EIH.pdb
     RDKit          3D

 28 28  0  0  1  0  0  0  0  0999 V2000
   24.9622   -6.9283  -20.4712 N   0  0  0  0  0  0  0  0  0  0  0  0
   24.7517   -6.5811  -19.0856 C   0  0  1  0  0  0  0  0  0  0  0  0
   23.7707   -5.4195  -18.9427 C   0  0  0  0  0  0  0  0  0  0  0  0
   24.4912   -4.1797  -19.4092 C   0  0  0  0  0  0  0  0  0  0  0  0
   23.6220   -2.9771  -19.3312 C   0  0  0  0  0  0  0  0  0  0  0  0
   23.2945   -2.4116  -20.4064 O   0  0  0  0  0  0  0  0  0  0  0  0
   24.1834   -7.7657  -18.3937 C   0  0  0  0  0  0  0  0  0  0  0  0
   23.5098   -8.6252  -19.0315 O   0  0  0  0  0  0  0  0  0  0  0  0
   23.1878   -2.4972  -18.1057 O   0  0  0  0  0  0  0  0  0  0  0  0
   27.0732  -10.7314  -15.2950 C   0  0  0  0  0  0  0  0  0  0  0  0
   26.0256  -10.2334  -16.2282 C   0  0  0  0  0  0  0  0  0  0  0  0
   24.8240   -9.7398  -15.5052 C   0  0  2  0  0  0  0  0  0  0  0  0
   24.2587  -10.8340  -14.5781 C   0  0  0  0  0  0  0  0  0  0  0  0
   23.7125   -9.1747  -16.3414 C   0  0  2  0  0  0  0  0  0  0  0  0
   24.3538   -8.0051  -17.0095 N   0  0  0  0  0  0  0  0  0  0  0  0
   22.4913   -8.7630  -15.6893 C   0  0  0  0  0  0  0  0  0  0  0  0
   22.6098   -7.9755  -14.6725 O   0  0  0  0  0  0  0  0  0  0  0  0
   21.1840   -9.1027  -16.0116 N   0  0  0  0  0  0  0  0  0  0  0  0
   20.0119   -8.6792  -15.2364 C   0  0  1  0  0  0  0  0  0  0  0  0
   18.8971   -8.2571  -16.1129 C   0  0  0  0  0  0  0  0  0  0  0  0
   19.0367   -6.8396  -16.5171 C   0  0  0  0  0  0  0  0  0  0  0  0
   19.9822   -5.9070  -16.2043 C   0  0  0  0  0  0  0  0  0  0  0  0
   19.7140   -4.7757  -16.8872 N   0  0  0  0  0  0  0  0  0  0  0  0
   18.6205   -4.9563  -17.6333 C   0  0  0  0  0  0  0  0  0  0  0  0
   18.2118   -6.1993  -17.4115 N   0  0  0  0  0  0  0  0  0  0  0  0
   19.6137   -9.9379  -14.5030 C   0  0  0  0  0  0  0  0  0  0  0  0
   18.7933   -9.8248  -13.5573 O   0  0  0  0  0  0  0  0  0  0  0  0
   20.1001  -11.1607  -14.8173 O   0  0  0  0  0  0  0  0  0  0  0  0
  2  3  1  0
  2  1  1  6
  4  5  1  0
  4  3  1  0
  5  6  2  0
  7  2  1  0
  8  7  2  0
  9  5  1  0
 11 12  1  0
 11 10  1  0
 12 13  1  6
 12 14  1  0
 14 15  1  1
 15  7  1  0
 16 17  2  0
 16 14  1  0
 18 16  1  0
 19 18  1  0
 19 20  1  6
 20 21  1  0
 21 25  1  0
 21 22  2  0
 22 23  1  0
 24 23  1  0
 25 24  2  0
 26 19  1  0
 27 26  2  0
 28 26  1  0
M  END
$$$$
