EIH.pdb
     RDKit          3D

 28 28  0  0  1  0  0  0  0  0999 V2000
    3.6905  -38.4162  -43.4683 N   0  0  0  0  0  0  0  0  0  0  0  0
    2.8353  -37.7718  -42.4998 C   0  0  1  0  0  0  0  0  0  0  0  0
    1.5210  -38.5291  -42.3224 C   0  0  0  0  0  0  0  0  0  0  0  0
    0.8680  -38.5942  -43.6800 C   0  0  0  0  0  0  0  0  0  0  0  0
   -0.6038  -38.7692  -43.5738 C   0  0  0  0  0  0  0  0  0  0  0  0
   -1.1021  -39.8535  -43.9726 O   0  0  0  0  0  0  0  0  0  0  0  0
    3.5467  -37.7509  -41.1966 C   0  0  0  0  0  0  0  0  0  0  0  0
    3.7336  -38.8186  -40.5451 O   0  0  0  0  0  0  0  0  0  0  0  0
   -1.3991  -37.7626  -43.0494 O   0  0  0  0  0  0  0  0  0  0  0  0
    7.4070  -35.8481  -37.2870 C   0  0  0  0  0  0  0  0  0  0  0  0
    6.6178  -35.1952  -38.3673 C   0  0  0  0  0  0  0  0  0  0  0  0
    5.5091  -36.0607  -38.8486 C   0  0  2  0  0  0  0  0  0  0  0  0
    5.4303  -37.3569  -38.0178 C   0  0  0  0  0  0  0  0  0  0  0  0
    5.5023  -36.4063  -40.3096 C   0  0  2  0  0  0  0  0  0  0  0  0
    4.0501  -36.5645  -40.6122 N   0  0  0  0  0  0  0  0  0  0  0  0
    6.2293  -37.5733  -40.7521 C   0  0  0  0  0  0  0  0  0  0  0  0
    6.8576  -38.2471  -39.8470 O   0  0  0  0  0  0  0  0  0  0  0  0
    6.3468  -38.0799  -42.0397 N   0  0  0  0  0  0  0  0  0  0  0  0
    5.2601  -38.7579  -42.7563 C   0  0  1  0  0  0  0  0  0  0  0  0
    4.8294  -39.9910  -42.0612 C   0  0  0  0  0  0  0  0  0  0  0  0
    5.9538  -40.9412  -41.9031 C   0  0  0  0  0  0  0  0  0  0  0  0
    6.4381  -41.5817  -40.7999 C   0  0  0  0  0  0  0  0  0  0  0  0
    7.4303  -42.4102  -41.1836 N   0  0  0  0  0  0  0  0  0  0  0  0
    7.5966  -42.3209  -42.5062 C   0  0  0  0  0  0  0  0  0  0  0  0
    6.7076  -41.4365  -42.9408 N   0  0  0  0  0  0  0  0  0  0  0  0
    4.1379  -37.7483  -42.7109 C   0  0  0  0  0  0  0  0  0  0  0  0
    3.7333  -37.2793  -43.8048 O   0  0  0  0  0  0  0  0  0  0  0  0
    3.5638  -37.3340  -41.5579 O   0  0  0  0  0  0  0  0  0  0  0  0
  2  3  1  0
  2  1  1  6
  4  5  1  0
  4  3  1  0
  5  6  2  0
  7  2  1  0
  8  7  2  0
  9  5  1  0
 11 12  1  0
 11 10  1  0
 12 13  1  1
 12 14  1  0
 14 15  1  1
 15  7  1  0
 16 17  2  0
 16 14  1  0
 18 16  1  0
 19 18  1  0
 19 20  1  1
 20 21  1  0
 21 25  1  0
 21 22  2  0
 22 23  1  0
 24 23  1  0
 25 24  2  0
 26 19  1  0
 27 26  2  0
 28 26  1  0
M  END
$$$$
