EIH.pdb
     RDKit          3D

 28 28  0  0  1  0  0  0  0  0999 V2000
   22.6222  -14.8377  -18.9769 N   0  0  0  0  0  0  0  0  0  0  0  0
   22.8797  -13.4482  -19.2727 C   0  0  1  0  0  0  0  0  0  0  0  0
   21.7411  -12.8276  -20.0793 C   0  0  0  0  0  0  0  0  0  0  0  0
   21.9427  -13.2476  -21.5134 C   0  0  0  0  0  0  0  0  0  0  0  0
   22.9341  -12.3832  -22.2048 C   0  0  0  0  0  0  0  0  0  0  0  0
   22.7865  -11.1358  -22.1311 O   0  0  0  0  0  0  0  0  0  0  0  0
   22.9992  -12.7164  -17.9862 C   0  0  0  0  0  0  0  0  0  0  0  0
   22.3568  -13.0955  -16.9649 O   0  0  0  0  0  0  0  0  0  0  0  0
   23.9890  -12.9416  -22.9092 O   0  0  0  0  0  0  0  0  0  0  0  0
   27.5313  -11.9500  -15.8832 C   0  0  0  0  0  0  0  0  0  0  0  0
   26.0810  -12.1187  -16.1737 C   0  0  0  0  0  0  0  0  0  0  0  0
   25.3701  -10.8146  -16.2375 C   0  0  2  0  0  0  0  0  0  0  0  0
   25.6233   -9.9932  -14.9579 C   0  0  0  0  0  0  0  0  0  0  0  0
   23.8954  -10.8577  -16.5161 C   0  0  2  0  0  0  0  0  0  0  0  0
   23.8194  -11.5750  -17.8219 N   0  0  0  0  0  0  0  0  0  0  0  0
   23.1649   -9.6140  -16.5921 C   0  0  0  0  0  0  0  0  0  0  0  0
   23.4318   -8.8410  -17.5917 O   0  0  0  0  0  0  0  0  0  0  0  0
   22.1972   -9.1272  -15.7234 N   0  0  0  0  0  0  0  0  0  0  0  0
   21.3928   -7.9270  -15.9815 C   0  0  1  0  0  0  0  0  0  0  0  0
   19.9489   -8.2401  -16.0602 C   0  0  0  0  0  0  0  0  0  0  0  0
   19.6207   -8.9580  -17.3128 C   0  0  0  0  0  0  0  0  0  0  0  0
   19.6739   -8.5574  -18.6160 C   0  0  0  0  0  0  0  0  0  0  0  0
   19.3495   -9.6040  -19.4020 N   0  0  0  0  0  0  0  0  0  0  0  0
   19.0901  -10.6690  -18.6383 C   0  0  0  0  0  0  0  0  0  0  0  0
   19.2535  -10.2813  -17.3795 N   0  0  0  0  0  0  0  0  0  0  0  0
   21.6474   -7.0752  -14.7606 C   0  0  0  0  0  0  0  0  0  0  0  0
   22.3375   -7.5752  -13.8367 O   0  0  0  0  0  0  0  0  0  0  0  0
   21.1665   -5.8179  -14.6244 O   0  0  0  0  0  0  0  0  0  0  0  0
  2  3  1  0
  2  1  1  1
  4  5  1  0
  4  3  1  0
  5  6  2  0
  7  2  1  0
  8  7  2  0
  9  5  1  0
 11 12  1  0
 11 10  1  0
 12 13  1  1
 12 14  1  0
 14 15  1  6
 15  7  1  0
 16 17  2  0
 16 14  1  0
 18 16  1  0
 19 18  1  0
 19 20  1  1
 20 21  1  0
 21 25  1  0
 21 22  2  0
 22 23  1  0
 24 23  1  0
 25 24  2  0
 26 19  1  0
 27 26  2  0
 28 26  1  0
M  END
$$$$
