EIH.pdb
     RDKit          3D

 28 28  0  0  1  0  0  0  0  0999 V2000
   27.4926  -24.4086  -15.9215 N   0  0  0  0  0  0  0  0  0  0  0  0
   27.0514  -23.0631  -15.6396 C   0  0  1  0  0  0  0  0  0  0  0  0
   26.5476  -22.3638  -16.9003 C   0  0  0  0  0  0  0  0  0  0  0  0
   25.4381  -23.2181  -17.4596 C   0  0  0  0  0  0  0  0  0  0  0  0
   24.8862  -22.6483  -18.7161 C   0  0  0  0  0  0  0  0  0  0  0  0
   25.1818  -23.2108  -19.8020 O   0  0  0  0  0  0  0  0  0  0  0  0
   25.9345  -23.1379  -14.6639 C   0  0  0  0  0  0  0  0  0  0  0  0
   25.9287  -24.0165  -13.7543 O   0  0  0  0  0  0  0  0  0  0  0  0
   24.0697  -21.5289  -18.6856 O   0  0  0  0  0  0  0  0  0  0  0  0
   27.0898  -21.6116  -11.0688 C   0  0  0  0  0  0  0  0  0  0  0  0
   26.1037  -22.2978  -11.9481 C   0  0  0  0  0  0  0  0  0  0  0  0
   25.1334  -21.3444  -12.5477 C   0  0  2  0  0  0  0  0  0  0  0  0
   24.4630  -20.4896  -11.4540 C   0  0  0  0  0  0  0  0  0  0  0  0
   24.0762  -21.9238  -13.4425 C   0  0  2  0  0  0  0  0  0  0  0  0
   24.8305  -22.2531  -14.6868 N   0  0  0  0  0  0  0  0  0  0  0  0
   22.9195  -21.1206  -13.7637 C   0  0  0  0  0  0  0  0  0  0  0  0
   23.1405  -19.9746  -14.3167 O   0  0  0  0  0  0  0  0  0  0  0  0
   21.5788  -21.4170  -13.5569 N   0  0  0  0  0  0  0  0  0  0  0  0
   20.4722  -20.5590  -13.9966 C   0  0  1  0  0  0  0  0  0  0  0  0
   19.1838  -21.2865  -14.0067 C   0  0  0  0  0  0  0  0  0  0  0  0
   19.1230  -22.2592  -15.1213 C   0  0  0  0  0  0  0  0  0  0  0  0
   20.0142  -22.5403  -16.1155 C   0  0  0  0  0  0  0  0  0  0  0  0
   19.5353  -23.5679  -16.8455 N   0  0  0  0  0  0  0  0  0  0  0  0
   18.3589  -23.9570  -16.3459 C   0  0  0  0  0  0  0  0  0  0  0  0
   18.1096  -23.1696  -15.3070 N   0  0  0  0  0  0  0  0  0  0  0  0
   20.4258  -19.4880  -12.9328 C   0  0  0  0  0  0  0  0  0  0  0  0
   21.0230  -19.7172  -11.8508 O   0  0  0  0  0  0  0  0  0  0  0  0
   19.7747  -18.3132  -13.0960 O   0  0  0  0  0  0  0  0  0  0  0  0
  2  3  1  0
  2  1  1  6
  4  5  1  0
  4  3  1  0
  5  6  2  0
  7  2  1  0
  8  7  2  0
  9  5  1  0
 11 12  1  0
 11 10  1  0
 12 13  1  1
 12 14  1  0
 14 15  1  6
 15  7  1  0
 16 17  2  0
 16 14  1  0
 18 16  1  0
 19 18  1  0
 19 20  1  1
 20 21  1  0
 21 25  1  0
 21 22  2  0
 22 23  1  0
 24 23  1  0
 25 24  2  0
 26 19  1  0
 27 26  2  0
 28 26  1  0
M  END
$$$$
