EIH.pdb
     RDKit          3D

 28 28  0  0  1  0  0  0  0  0999 V2000
   27.7613  -22.6673  -15.9862 N   0  0  0  0  0  0  0  0  0  0  0  0
   27.0628  -21.4662  -15.5939 C   0  0  1  0  0  0  0  0  0  0  0  0
   26.3776  -20.8026  -16.7866 C   0  0  0  0  0  0  0  0  0  0  0  0
   27.4700  -20.3616  -17.7278 C   0  0  0  0  0  0  0  0  0  0  0  0
   28.0224  -19.0361  -17.3457 C   0  0  0  0  0  0  0  0  0  0  0  0
   27.2292  -18.0622  -17.2723 O   0  0  0  0  0  0  0  0  0  0  0  0
   26.0236  -21.8393  -14.6011 C   0  0  0  0  0  0  0  0  0  0  0  0
   25.4224  -22.9490  -14.6809 O   0  0  0  0  0  0  0  0  0  0  0  0
   29.3739  -18.8839  -17.0792 O   0  0  0  0  0  0  0  0  0  0  0  0
   26.4634  -20.5605   -9.4016 C   0  0  0  0  0  0  0  0  0  0  0  0
   26.1307  -21.2897  -10.6561 C   0  0  0  0  0  0  0  0  0  0  0  0
   24.9165  -20.7404  -11.3148 C   0  0  2  0  0  0  0  0  0  0  0  0
   23.7148  -20.7655  -10.3496 C   0  0  0  0  0  0  0  0  0  0  0  0
   24.5153  -21.3577  -12.6233 C   0  0  2  0  0  0  0  0  0  0  0  0
   25.6467  -20.9988  -13.5269 N   0  0  0  0  0  0  0  0  0  0  0  0
   23.2609  -20.9654  -13.2223 C   0  0  0  0  0  0  0  0  0  0  0  0
   23.0909  -19.7050  -13.4473 O   0  0  0  0  0  0  0  0  0  0  0  0
   22.1941  -21.7714  -13.5970 N   0  0  0  0  0  0  0  0  0  0  0  0
   20.9549  -21.2643  -14.1981 C   0  0  1  0  0  0  0  0  0  0  0  0
   20.3328  -22.2611  -15.0973 C   0  0  0  0  0  0  0  0  0  0  0  0
   19.0091  -21.8025  -15.5765 C   0  0  0  0  0  0  0  0  0  0  0  0
   17.7477  -22.1113  -15.1578 C   0  0  0  0  0  0  0  0  0  0  0  0
   16.8670  -21.3712  -15.8611 N   0  0  0  0  0  0  0  0  0  0  0  0
   17.5290  -20.5922  -16.7212 C   0  0  0  0  0  0  0  0  0  0  0  0
   18.8195  -20.8508  -16.5505 N   0  0  0  0  0  0  0  0  0  0  0  0
   20.0573  -21.0500  -13.0027 C   0  0  0  0  0  0  0  0  0  0  0  0
   20.2009  -21.8229  -12.0219 O   0  0  0  0  0  0  0  0  0  0  0  0
   19.1186  -20.0770  -12.9494 O   0  0  0  0  0  0  0  0  0  0  0  0
  2  3  1  0
  2  1  1  6
  4  5  1  0
  4  3  1  0
  5  6  2  0
  7  2  1  0
  8  7  2  0
  9  5  1  0
 11 12  1  0
 11 10  1  0
 12 13  1  1
 12 14  1  0
 14 15  1  6
 15  7  1  0
 16 17  2  0
 16 14  1  0
 18 16  1  0
 19 18  1  0
 19 20  1  6
 20 21  1  0
 21 25  1  0
 21 22  2  0
 22 23  1  0
 24 23  1  0
 25 24  2  0
 26 19  1  0
 27 26  2  0
 28 26  1  0
M  END
$$$$
