EIH.pdb
     RDKit          3D

 28 28  0  0  1  0  0  0  0  0999 V2000
   27.4913  -22.7268  -16.1393 N   0  0  0  0  0  0  0  0  0  0  0  0
   26.8785  -21.4533  -15.8442 C   0  0  1  0  0  0  0  0  0  0  0  0
   26.2664  -20.8240  -17.0938 C   0  0  0  0  0  0  0  0  0  0  0  0
   27.4136  -20.3723  -17.9619 C   0  0  0  0  0  0  0  0  0  0  0  0
   27.9208  -19.0374  -17.5512 C   0  0  0  0  0  0  0  0  0  0  0  0
   28.8771  -18.9920  -16.7349 O   0  0  0  0  0  0  0  0  0  0  0  0
   25.7968  -21.6797  -14.8525 C   0  0  0  0  0  0  0  0  0  0  0  0
   24.9854  -22.6401  -14.9891 O   0  0  0  0  0  0  0  0  0  0  0  0
   27.3520  -17.8791  -18.0569 O   0  0  0  0  0  0  0  0  0  0  0  0
   26.5500  -20.9231   -9.5823 C   0  0  0  0  0  0  0  0  0  0  0  0
   26.0726  -21.4611  -10.8857 C   0  0  0  0  0  0  0  0  0  0  0  0
   24.9875  -20.6287  -11.4685 C   0  0  2  0  0  0  0  0  0  0  0  0
   23.8226  -20.4760  -10.4704 C   0  0  0  0  0  0  0  0  0  0  0  0
   24.4459  -21.0552  -12.8021 C   0  0  2  0  0  0  0  0  0  0  0  0
   25.6071  -20.8564  -13.7173 N   0  0  0  0  0  0  0  0  0  0  0  0
   23.2812  -20.3818  -13.3279 C   0  0  0  0  0  0  0  0  0  0  0  0
   23.2431  -19.0971  -13.2006 O   0  0  0  0  0  0  0  0  0  0  0  0
   22.1779  -20.9355  -13.9637 N   0  0  0  0  0  0  0  0  0  0  0  0
   21.0242  -20.1572  -14.4301 C   0  0  1  0  0  0  0  0  0  0  0  0
   20.4747  -20.6940  -15.6946 C   0  0  0  0  0  0  0  0  0  0  0  0
   19.3078  -19.9061  -16.1524 C   0  0  0  0  0  0  0  0  0  0  0  0
   18.7470  -18.7647  -15.6581 C   0  0  0  0  0  0  0  0  0  0  0  0
   17.7426  -18.3891  -16.4755 N   0  0  0  0  0  0  0  0  0  0  0  0
   17.6431  -19.2587  -17.4849 C   0  0  0  0  0  0  0  0  0  0  0  0
   18.5857  -20.1728  -17.2916 N   0  0  0  0  0  0  0  0  0  0  0  0
   20.0103  -20.3545  -13.3283 C   0  0  0  0  0  0  0  0  0  0  0  0
   19.9846  -21.4730  -12.7554 O   0  0  0  0  0  0  0  0  0  0  0  0
   19.1416  -19.3912  -12.9435 O   0  0  0  0  0  0  0  0  0  0  0  0
  2  3  1  0
  2  1  1  6
  4  5  1  0
  4  3  1  0
  5  6  2  0
  7  2  1  0
  8  7  2  0
  9  5  1  0
 11 12  1  0
 11 10  1  0
 12 13  1  1
 12 14  1  0
 14 15  1  6
 15  7  1  0
 16 17  2  0
 16 14  1  0
 18 16  1  0
 19 18  1  0
 19 20  1  6
 20 21  1  0
 21 25  1  0
 21 22  2  0
 22 23  1  0
 24 23  1  0
 25 24  2  0
 26 19  1  0
 27 26  2  0
 28 26  1  0
M  END
$$$$
