EIH.pdb
     RDKit          3D

 28 28  0  0  1  0  0  0  0  0999 V2000
   17.8875  -12.4175  -16.0066 N   0  0  0  0  0  0  0  0  0  0  0  0
   18.4558  -11.1582  -16.4262 C   0  0  1  0  0  0  0  0  0  0  0  0
   17.3820  -10.0832  -16.5793 C   0  0  0  0  0  0  0  0  0  0  0  0
   16.1527  -10.7681  -17.1209 C   0  0  0  0  0  0  0  0  0  0  0  0
   15.0689  -10.8345  -16.1065 C   0  0  0  0  0  0  0  0  0  0  0  0
   14.6496  -11.9692  -15.7604 O   0  0  0  0  0  0  0  0  0  0  0  0
   19.4196  -10.7169  -15.3864 C   0  0  0  0  0  0  0  0  0  0  0  0
   19.2030  -10.9524  -14.1628 O   0  0  0  0  0  0  0  0  0  0  0  0
   14.5394   -9.6756  -15.5612 O   0  0  0  0  0  0  0  0  0  0  0  0
   24.4641  -11.7999  -15.6558 C   0  0  0  0  0  0  0  0  0  0  0  0
   23.1140  -11.4682  -15.1234 C   0  0  0  0  0  0  0  0  0  0  0  0
   22.8773  -10.0012  -15.0791 C   0  0  2  0  0  0  0  0  0  0  0  0
   23.9704   -9.2980  -14.2503 C   0  0  0  0  0  0  0  0  0  0  0  0
   21.5267   -9.5449  -14.6083 C   0  0  2  0  0  0  0  0  0  0  0  0
   20.6142  -10.0210  -15.6882 N   0  0  0  0  0  0  0  0  0  0  0  0
   21.3132   -8.1371  -14.3659 C   0  0  0  0  0  0  0  0  0  0  0  0
   22.1038   -7.5644  -13.5203 O   0  0  0  0  0  0  0  0  0  0  0  0
   20.3586   -7.2998  -14.9278 N   0  0  0  0  0  0  0  0  0  0  0  0
   20.4311   -5.8343  -14.8933 C   0  0  1  0  0  0  0  0  0  0  0  0
   21.8107   -5.3474  -15.1138 C   0  0  0  0  0  0  0  0  0  0  0  0
   21.8630   -3.8679  -15.1355 C   0  0  0  0  0  0  0  0  0  0  0  0
   20.9104   -2.9329  -14.8523 C   0  0  0  0  0  0  0  0  0  0  0  0
   21.4688   -1.7087  -14.9401 N   0  0  0  0  0  0  0  0  0  0  0  0
   22.7573   -1.8313  -15.2712 C   0  0  0  0  0  0  0  0  0  0  0  0
   22.9961   -3.1315  -15.3889 N   0  0  0  0  0  0  0  0  0  0  0  0
   19.5691   -5.4213  -16.0626 C   0  0  0  0  0  0  0  0  0  0  0  0
   19.6707   -6.0877  -17.1236 O   0  0  0  0  0  0  0  0  0  0  0  0
   18.7094   -4.3777  -16.0137 O   0  0  0  0  0  0  0  0  0  0  0  0
  2  3  1  0
  2  1  1  1
  4  5  1  0
  4  3  1  0
  5  6  2  0
  7  2  1  0
  8  7  2  0
  9  5  1  0
 11 12  1  0
 11 10  1  0
 12 13  1  1
 12 14  1  0
 14 15  1  6
 15  7  1  0
 16 17  2  0
 16 14  1  0
 18 16  1  0
 19 18  1  0
 19 20  1  6
 20 21  1  0
 21 25  1  0
 21 22  2  0
 22 23  1  0
 24 23  1  0
 25 24  2  0
 26 19  1  0
 27 26  2  0
 28 26  1  0
M  END
$$$$
