EIH.pdb
     RDKit          3D

 28 28  0  0  1  0  0  0  0  0999 V2000
   25.3765  -10.1118  -21.8366 N   0  0  0  0  0  0  0  0  0  0  0  0
   24.6063   -9.0858  -21.1743 C   0  0  1  0  0  0  0  0  0  0  0  0
   23.3824   -8.6869  -21.9960 C   0  0  0  0  0  0  0  0  0  0  0  0
   23.4630   -7.1955  -22.2033 C   0  0  0  0  0  0  0  0  0  0  0  0
   22.5101   -6.4667  -21.3263 C   0  0  0  0  0  0  0  0  0  0  0  0
   21.3150   -6.8588  -21.2946 O   0  0  0  0  0  0  0  0  0  0  0  0
   24.1432   -9.6249  -19.8705 C   0  0  0  0  0  0  0  0  0  0  0  0
   23.6548  -10.7886  -19.7891 O   0  0  0  0  0  0  0  0  0  0  0  0
   22.9326   -5.3866  -20.5675 O   0  0  0  0  0  0  0  0  0  0  0  0
   25.0477  -11.2277  -14.9297 C   0  0  0  0  0  0  0  0  0  0  0  0
   24.7907   -9.7679  -15.0675 C   0  0  0  0  0  0  0  0  0  0  0  0
   24.9389   -9.3061  -16.4728 C   0  0  2  0  0  0  0  0  0  0  0  0
   25.4075   -7.8381  -16.5170 C   0  0  0  0  0  0  0  0  0  0  0  0
   23.7488   -9.4747  -17.3724 C   0  0  2  0  0  0  0  0  0  0  0  0
   24.2159   -8.8905  -18.6632 N   0  0  0  0  0  0  0  0  0  0  0  0
   22.4930   -8.8757  -16.9846 C   0  0  0  0  0  0  0  0  0  0  0  0
   22.4235   -7.5868  -17.0277 O   0  0  0  0  0  0  0  0  0  0  0  0
   21.3291   -9.5065  -16.5653 N   0  0  0  0  0  0  0  0  0  0  0  0
   20.0656   -8.8068  -16.3046 C   0  0  1  0  0  0  0  0  0  0  0  0
   18.9149   -9.7367  -16.2941 C   0  0  0  0  0  0  0  0  0  0  0  0
   17.6437   -9.0183  -16.0489 C   0  0  0  0  0  0  0  0  0  0  0  0
   17.0565   -8.6057  -14.8884 C   0  0  0  0  0  0  0  0  0  0  0  0
   15.9365   -7.9193  -15.1926 N   0  0  0  0  0  0  0  0  0  0  0  0
   15.7880   -7.8778  -16.5196 C   0  0  0  0  0  0  0  0  0  0  0  0
   16.8160   -8.5392  -17.0366 N   0  0  0  0  0  0  0  0  0  0  0  0
   20.2630   -8.2502  -14.9146 C   0  0  0  0  0  0  0  0  0  0  0  0
   20.9109   -8.9492  -14.0951 O   0  0  0  0  0  0  0  0  0  0  0  0
   19.7749   -7.0504  -14.5237 O   0  0  0  0  0  0  0  0  0  0  0  0
  2  3  1  0
  2  1  1  6
  4  5  1  0
  4  3  1  0
  5  6  2  0
  7  2  1  0
  8  7  2  0
  9  5  1  0
 11 12  1  0
 11 10  1  0
 12 13  1  1
 12 14  1  0
 14 15  1  6
 15  7  1  0
 16 17  2  0
 16 14  1  0
 18 16  1  0
 19 18  1  0
 19 20  1  1
 20 21  1  0
 21 25  1  0
 21 22  2  0
 22 23  1  0
 24 23  1  0
 25 24  2  0
 26 19  1  0
 27 26  2  0
 28 26  1  0
M  END
$$$$
