EIH.pdb
     RDKit          3D

 28 28  0  0  1  0  0  0  0  0999 V2000
   19.2788  -15.7816  -16.3706 N   0  0  0  0  0  0  0  0  0  0  0  0
   19.2621  -14.4818  -16.9990 C   0  0  1  0  0  0  0  0  0  0  0  0
   17.8348  -13.9982  -17.2461 C   0  0  0  0  0  0  0  0  0  0  0  0
   16.9551  -14.7051  -16.2460 C   0  0  0  0  0  0  0  0  0  0  0  0
   15.5417  -14.2571  -16.3442 C   0  0  0  0  0  0  0  0  0  0  0  0
   15.2584  -13.3700  -17.1904 O   0  0  0  0  0  0  0  0  0  0  0  0
   19.9347  -13.5201  -16.0894 C   0  0  0  0  0  0  0  0  0  0  0  0
   19.6801  -13.5158  -14.8506 O   0  0  0  0  0  0  0  0  0  0  0  0
   14.5680  -14.8049  -15.5240 O   0  0  0  0  0  0  0  0  0  0  0  0
   25.3670  -11.5057  -15.2185 C   0  0  0  0  0  0  0  0  0  0  0  0
   23.9518  -11.1394  -14.9370 C   0  0  0  0  0  0  0  0  0  0  0  0
   22.9969  -11.9399  -15.7479 C   0  0  2  0  0  0  0  0  0  0  0  0
   23.3699  -11.8820  -17.2425 C   0  0  0  0  0  0  0  0  0  0  0  0
   21.5381  -11.6236  -15.5877 C   0  0  2  0  0  0  0  0  0  0  0  0
   20.8815  -12.5686  -16.5372 N   0  0  0  0  0  0  0  0  0  0  0  0
   21.0864  -10.2752  -15.8409 C   0  0  0  0  0  0  0  0  0  0  0  0
   21.0185   -9.9051  -17.0763 O   0  0  0  0  0  0  0  0  0  0  0  0
   20.7076   -9.3053  -14.9222 N   0  0  0  0  0  0  0  0  0  0  0  0
   20.3649   -7.9243  -15.2823 C   0  0  1  0  0  0  0  0  0  0  0  0
   19.0970   -7.4916  -14.6543 C   0  0  0  0  0  0  0  0  0  0  0  0
   17.9250   -7.9573  -15.4300 C   0  0  0  0  0  0  0  0  0  0  0  0
   17.8420   -8.7248  -16.5551 C   0  0  0  0  0  0  0  0  0  0  0  0
   16.5407   -8.9413  -16.8340 N   0  0  0  0  0  0  0  0  0  0  0  0
   15.7831   -8.3341  -15.9162 C   0  0  0  0  0  0  0  0  0  0  0  0
   16.6158   -7.7413  -15.0697 N   0  0  0  0  0  0  0  0  0  0  0  0
   21.5041   -7.1249  -14.6959 C   0  0  0  0  0  0  0  0  0  0  0  0
   21.5025   -5.8828  -14.8890 O   0  0  0  0  0  0  0  0  0  0  0  0
   22.5103   -7.6851  -13.9858 O   0  0  0  0  0  0  0  0  0  0  0  0
  2  3  1  0
  2  1  1  1
  4  5  1  0
  4  3  1  0
  5  6  2  0
  7  2  1  0
  8  7  2  0
  9  5  1  0
 11 12  1  0
 11 10  1  0
 12 13  1  6
 12 14  1  0
 14 15  1  6
 15  7  1  0
 16 17  2  0
 16 14  1  0
 18 16  1  0
 19 18  1  0
 19 20  1  1
 20 21  1  0
 21 25  1  0
 21 22  2  0
 22 23  1  0
 24 23  1  0
 25 24  2  0
 26 19  1  0
 27 26  2  0
 28 26  1  0
M  END
$$$$
