EIH.pdb
     RDKit          3D

 28 28  0  0  1  0  0  0  0  0999 V2000
   20.8033  -12.0712  -17.8408 N   0  0  0  0  0  0  0  0  0  0  0  0
   20.0179  -11.4819  -16.7823 C   0  0  1  0  0  0  0  0  0  0  0  0
   19.4396  -12.5483  -15.8546 C   0  0  0  0  0  0  0  0  0  0  0  0
   18.5376  -13.4160  -16.6955 C   0  0  0  0  0  0  0  0  0  0  0  0
   18.0216  -14.5787  -15.9274 C   0  0  0  0  0  0  0  0  0  0  0  0
   17.2127  -15.3548  -16.4988 O   0  0  0  0  0  0  0  0  0  0  0  0
   20.9051  -10.5961  -15.9868 C   0  0  0  0  0  0  0  0  0  0  0  0
   20.5713  -10.2207  -14.8262 O   0  0  0  0  0  0  0  0  0  0  0  0
   18.4240  -14.7962  -14.6192 O   0  0  0  0  0  0  0  0  0  0  0  0
   26.0227  -11.5872  -15.4987 C   0  0  0  0  0  0  0  0  0  0  0  0
   24.6142  -11.1488  -15.2981 C   0  0  0  0  0  0  0  0  0  0  0  0
   24.3781   -9.7765  -15.8187 C   0  0  2  0  0  0  0  0  0  0  0  0
   25.4113   -8.7894  -15.2402 C   0  0  0  0  0  0  0  0  0  0  0  0
   22.9985   -9.2111  -15.6424 C   0  0  2  0  0  0  0  0  0  0  0  0
   22.1517  -10.1251  -16.4628 N   0  0  0  0  0  0  0  0  0  0  0  0
   22.7552   -7.8388  -16.0215 C   0  0  0  0  0  0  0  0  0  0  0  0
   23.0328   -7.5121  -17.2397 O   0  0  0  0  0  0  0  0  0  0  0  0
   22.2539   -6.8042  -15.2425 N   0  0  0  0  0  0  0  0  0  0  0  0
   21.9896   -5.4517  -15.7474 C   0  0  1  0  0  0  0  0  0  0  0  0
   20.5455   -5.1303  -15.7266 C   0  0  0  0  0  0  0  0  0  0  0  0
   19.8192   -5.8435  -16.8018 C   0  0  0  0  0  0  0  0  0  0  0  0
   20.0942   -5.9807  -18.1312 C   0  0  0  0  0  0  0  0  0  0  0  0
   19.1703   -6.7948  -18.6805 N   0  0  0  0  0  0  0  0  0  0  0  0
   18.3079   -7.1868  -17.7385 C   0  0  0  0  0  0  0  0  0  0  0  0
   18.6979   -6.6147  -16.6062 N   0  0  0  0  0  0  0  0  0  0  0  0
   22.7060   -4.5691  -14.7531 C   0  0  0  0  0  0  0  0  0  0  0  0
   23.2136   -5.1223  -13.7449 O   0  0  0  0  0  0  0  0  0  0  0  0
   22.8173   -3.2290  -14.9017 O   0  0  0  0  0  0  0  0  0  0  0  0
  2  3  1  0
  2  1  1  6
  4  5  1  0
  4  3  1  0
  5  6  2  0
  7  2  1  0
  8  7  2  0
  9  5  1  0
 11 12  1  0
 11 10  1  0
 12 13  1  1
 12 14  1  0
 14 15  1  6
 15  7  1  0
 16 17  2  0
 16 14  1  0
 18 16  1  0
 19 18  1  0
 19 20  1  1
 20 21  1  0
 21 25  1  0
 21 22  2  0
 22 23  1  0
 24 23  1  0
 25 24  2  0
 26 19  1  0
 27 26  2  0
 28 26  1  0
M  END
$$$$
