EIH.pdb
     RDKit          3D

 28 28  0  0  1  0  0  0  0  0999 V2000
   18.3821  -12.0193  -17.0874 N   0  0  0  0  0  0  0  0  0  0  0  0
   17.6373  -11.2715  -16.1021 C   0  0  1  0  0  0  0  0  0  0  0  0
   17.1265  -12.1755  -14.9822 C   0  0  0  0  0  0  0  0  0  0  0  0
   17.3455  -13.5971  -15.4346 C   0  0  0  0  0  0  0  0  0  0  0  0
   16.9132  -14.5748  -14.4025 C   0  0  0  0  0  0  0  0  0  0  0  0
   15.6930  -14.6154  -14.0985 O   0  0  0  0  0  0  0  0  0  0  0  0
   18.5441  -10.2552  -15.5108 C   0  0  0  0  0  0  0  0  0  0  0  0
   18.2443   -9.6728  -14.4290 O   0  0  0  0  0  0  0  0  0  0  0  0
   17.8333  -15.4152  -13.7958 O   0  0  0  0  0  0  0  0  0  0  0  0
   22.5474  -10.5096  -13.6614 C   0  0  0  0  0  0  0  0  0  0  0  0
   22.4153  -10.6276  -15.1395 C   0  0  0  0  0  0  0  0  0  0  0  0
   22.0284   -9.3377  -15.7692 C   0  0  2  0  0  0  0  0  0  0  0  0
   23.0496   -8.2356  -15.4247 C   0  0  0  0  0  0  0  0  0  0  0  0
   20.6417   -8.8345  -15.4901 C   0  0  2  0  0  0  0  0  0  0  0  0
   19.7730   -9.8805  -16.1039 N   0  0  0  0  0  0  0  0  0  0  0  0
   20.2637   -7.5289  -15.9788 C   0  0  0  0  0  0  0  0  0  0  0  0
   20.3294   -7.3423  -17.2551 O   0  0  0  0  0  0  0  0  0  0  0  0
   19.8306   -6.4276  -15.2523 N   0  0  0  0  0  0  0  0  0  0  0  0
   19.4558   -5.1432  -15.8555 C   0  0  1  0  0  0  0  0  0  0  0  0
   18.1191   -4.6950  -15.4067 C   0  0  0  0  0  0  0  0  0  0  0  0
   17.0428   -5.4824  -16.0497 C   0  0  0  0  0  0  0  0  0  0  0  0
   16.5021   -5.4080  -17.3003 C   0  0  0  0  0  0  0  0  0  0  0  0
   15.5975   -6.3984  -17.4383 N   0  0  0  0  0  0  0  0  0  0  0  0
   15.5428   -7.1100  -16.3089 C   0  0  0  0  0  0  0  0  0  0  0  0
   16.4132   -6.5595  -15.4718 N   0  0  0  0  0  0  0  0  0  0  0  0
   20.5007   -4.1946  -15.3178 C   0  0  0  0  0  0  0  0  0  0  0  0
   21.2964   -4.6369  -14.4511 O   0  0  0  0  0  0  0  0  0  0  0  0
   20.6090   -2.9085  -15.7239 O   0  0  0  0  0  0  0  0  0  0  0  0
  2  3  1  0
  2  1  1  6
  4  5  1  0
  4  3  1  0
  5  6  2  0
  7  2  1  0
  8  7  2  0
  9  5  1  0
 11 12  1  0
 11 10  1  0
 12 13  1  1
 12 14  1  0
 14 15  1  6
 15  7  1  0
 16 17  2  0
 16 14  1  0
 18 16  1  0
 19 18  1  0
 19 20  1  1
 20 21  1  0
 21 25  1  0
 21 22  2  0
 22 23  1  0
 24 23  1  0
 25 24  2  0
 26 19  1  0
 27 26  2  0
 28 26  1  0
M  END
$$$$
