EIH.pdb
     RDKit          3D

 28 28  0  0  1  0  0  0  0  0999 V2000
   28.9499  -23.3714  -16.6917 N   0  0  0  0  0  0  0  0  0  0  0  0
   28.1605  -22.4516  -17.4763 C   0  0  1  0  0  0  0  0  0  0  0  0
   27.3250  -23.1840  -18.5240 C   0  0  0  0  0  0  0  0  0  0  0  0
   28.2825  -23.6768  -19.5795 C   0  0  0  0  0  0  0  0  0  0  0  0
   28.8435  -22.5565  -20.3783 C   0  0  0  0  0  0  0  0  0  0  0  0
   28.0483  -21.6883  -20.8220 O   0  0  0  0  0  0  0  0  0  0  0  0
   27.2409  -21.7326  -16.5586 C   0  0  0  0  0  0  0  0  0  0  0  0
   26.9488  -22.2160  -15.4270 O   0  0  0  0  0  0  0  0  0  0  0  0
   30.2052  -22.4762  -20.6239 O   0  0  0  0  0  0  0  0  0  0  0  0
   28.8337  -17.9785  -16.7232 C   0  0  0  0  0  0  0  0  0  0  0  0
   27.9305  -18.1931  -15.5594 C   0  0  0  0  0  0  0  0  0  0  0  0
   26.5099  -18.3332  -15.9747 C   0  0  2  0  0  0  0  0  0  0  0  0
   25.6225  -17.3144  -15.2323 C   0  0  0  0  0  0  0  0  0  0  0  0
   25.8999  -19.7001  -15.8589 C   0  0  2  0  0  0  0  0  0  0  0  0
   26.6455  -20.4902  -16.8814 N   0  0  0  0  0  0  0  0  0  0  0  0
   24.4774  -19.8469  -16.0617 C   0  0  0  0  0  0  0  0  0  0  0  0
   24.0337  -19.6363  -17.2561 O   0  0  0  0  0  0  0  0  0  0  0  0
   23.5042  -20.1903  -15.1326 N   0  0  0  0  0  0  0  0  0  0  0  0
   22.0737  -20.2940  -15.4440 C   0  0  1  0  0  0  0  0  0  0  0  0
   21.3515  -21.1099  -14.4431 C   0  0  0  0  0  0  0  0  0  0  0  0
   19.9194  -21.2479  -14.7923 C   0  0  0  0  0  0  0  0  0  0  0  0
   19.1999  -20.7502  -15.8394 C   0  0  0  0  0  0  0  0  0  0  0  0
   17.9397  -21.2231  -15.7598 N   0  0  0  0  0  0  0  0  0  0  0  0
   17.8294  -22.0142  -14.6888 C   0  0  0  0  0  0  0  0  0  0  0  0
   19.0213  -22.0303  -14.1054 N   0  0  0  0  0  0  0  0  0  0  0  0
   21.5984  -18.8636  -15.3503 C   0  0  0  0  0  0  0  0  0  0  0  0
   22.0030  -18.1792  -14.3766 O   0  0  0  0  0  0  0  0  0  0  0  0
   20.7658  -18.3015  -16.2567 O   0  0  0  0  0  0  0  0  0  0  0  0
  2  3  1  0
  2  1  1  1
  4  5  1  0
  4  3  1  0
  5  6  2  0
  7  2  1  0
  8  7  2  0
  9  5  1  0
 11 12  1  0
 11 10  1  0
 12 13  1  1
 12 14  1  0
 14 15  1  6
 15  7  1  0
 16 17  2  0
 16 14  1  0
 18 16  1  0
 19 18  1  0
 19 20  1  1
 20 21  1  0
 21 25  1  0
 21 22  2  0
 22 23  1  0
 24 23  1  0
 25 24  2  0
 26 19  1  0
 27 26  2  0
 28 26  1  0
M  END
$$$$
