GDA.pdb
     RDKit          3D

 18 17  0  0  1  0  0  0  0  0999 V2000
   16.7303  -11.1488  -15.3812 N   0  0  0  0  0  0  0  0  0  0  0  0
   16.6635   -9.7519  -15.0387 C   0  0  0  0  0  0  0  0  0  0  0  0
   17.9634   -9.0900  -15.3056 C   0  0  0  0  0  0  0  0  0  0  0  0
   18.9749   -9.4820  -14.6810 O   0  0  0  0  0  0  0  0  0  0  0  0
   18.1134   -8.0317  -16.2373 N   0  0  0  0  0  0  0  0  0  0  0  0
   19.3822   -7.3978  -16.5045 C   0  0  1  0  0  0  0  0  0  0  0  0
   19.4328   -6.7523  -17.8572 C   0  0  0  0  0  0  0  0  0  0  0  0
   19.4825   -7.7346  -18.9598 C   0  0  0  0  0  0  0  0  0  0  0  0
   20.3964   -8.5878  -18.9829 O   0  0  0  0  0  0  0  0  0  0  0  0
   19.6960   -6.4359  -15.4141 C   0  0  0  0  0  0  0  0  0  0  0  0
   18.8224   -5.6149  -15.0504 O   0  0  0  0  0  0  0  0  0  0  0  0
   18.5473   -7.7460  -19.9772 O   0  0  0  0  0  0  0  0  0  0  0  0
   22.3643   -6.0752  -12.8296 C   0  0  0  0  0  0  0  0  0  0  0  0
   21.2615   -5.4831  -13.6822 C   0  0  2  0  0  0  0  0  0  0  0  0
   20.9502   -6.4024  -14.7588 N   0  0  0  0  0  0  0  0  0  0  0  0
   21.6534   -4.1410  -14.2218 C   0  0  0  0  0  0  0  0  0  0  0  0
   21.6558   -3.0238  -13.4015 O   0  0  0  0  0  0  0  0  0  0  0  0
   21.9892   -3.9907  -15.4267 O   0  0  0  0  0  0  0  0  0  0  0  0
  1  2  1  0
  3  4  2  0
  3  2  1  0
  5  3  1  0
  6 10  1  0
  6  5  1  0
  6  7  1  6
  8 12  1  0
  8  7  1  0
  9  8  2  0
 10 11  2  0
 14 13  1  6
 14 16  1  0
 15 14  1  0
 15 10  1  0
 16 17  1  0
 18 16  2  0
M  END
$$$$
