GDA.pdb
     RDKit          3D

 18 17  0  0  1  0  0  0  0  0999 V2000
   15.1740   -9.0826  -15.2117 N   0  0  0  0  0  0  0  0  0  0  0  0
   15.7738   -9.5735  -13.9983 C   0  0  0  0  0  0  0  0  0  0  0  0
   17.2056   -9.1925  -13.9368 C   0  0  0  0  0  0  0  0  0  0  0  0
   17.8587   -9.4800  -12.9084 O   0  0  0  0  0  0  0  0  0  0  0  0
   17.8701   -8.5163  -14.9913 N   0  0  0  0  0  0  0  0  0  0  0  0
   19.3001   -8.3233  -15.0193 C   0  0  1  0  0  0  0  0  0  0  0  0
   19.9583   -9.0406  -16.1600 C   0  0  0  0  0  0  0  0  0  0  0  0
   21.4287   -8.8955  -16.1568 C   0  0  0  0  0  0  0  0  0  0  0  0
   22.0199   -8.5975  -17.2177 O   0  0  0  0  0  0  0  0  0  0  0  0
   19.6047   -6.8674  -15.0243 C   0  0  0  0  0  0  0  0  0  0  0  0
   18.9639   -6.1094  -15.7888 O   0  0  0  0  0  0  0  0  0  0  0  0
   22.1832   -9.0785  -15.0135 O   0  0  0  0  0  0  0  0  0  0  0  0
   22.1174   -4.6426  -13.2991 C   0  0  0  0  0  0  0  0  0  0  0  0
   21.0146   -4.9051  -14.3035 C   0  0  2  0  0  0  0  0  0  0  0  0
   20.5964   -6.2887  -14.1964 N   0  0  0  0  0  0  0  0  0  0  0  0
   21.4634   -4.5885  -15.6979 C   0  0  0  0  0  0  0  0  0  0  0  0
   21.2704   -3.3240  -16.2315 O   0  0  0  0  0  0  0  0  0  0  0  0
   22.0243   -5.4557  -16.4195 O   0  0  0  0  0  0  0  0  0  0  0  0
  1  2  1  0
  3  4  2  0
  3  2  1  0
  5  3  1  0
  6 10  1  0
  6  5  1  0
  6  7  1  6
  8 12  1  0
  8  7  1  0
  9  8  2  0
 10 11  2  0
 14 13  1  1
 14 16  1  0
 15 14  1  0
 15 10  1  0
 16 17  1  0
 18 16  2  0
M  END
$$$$
