GDA.pdb
     RDKit          3D

 18 17  0  0  1  0  0  0  0  0999 V2000
   27.2585  -11.2487  -16.8412 N   0  0  0  0  0  0  0  0  0  0  0  0
   26.1434  -11.2069  -15.9311 C   0  0  0  0  0  0  0  0  0  0  0  0
   25.1437  -10.2087  -16.3816 C   0  0  0  0  0  0  0  0  0  0  0  0
   25.4302   -9.4683  -17.3494 O   0  0  0  0  0  0  0  0  0  0  0  0
   23.8760  -10.0540  -15.7655 N   0  0  0  0  0  0  0  0  0  0  0  0
   22.9018   -9.0867  -16.2109 C   0  0  1  0  0  0  0  0  0  0  0  0
   21.4938   -9.5912  -16.1009 C   0  0  0  0  0  0  0  0  0  0  0  0
   21.2644  -10.8255  -16.8800 C   0  0  0  0  0  0  0  0  0  0  0  0
   20.9198  -11.8717  -16.2879 O   0  0  0  0  0  0  0  0  0  0  0  0
   23.0971   -7.8097  -15.4736 C   0  0  0  0  0  0  0  0  0  0  0  0
   23.2714   -7.8381  -14.2334 O   0  0  0  0  0  0  0  0  0  0  0  0
   21.4178  -10.8678  -18.2527 O   0  0  0  0  0  0  0  0  0  0  0  0
   23.3265   -4.1613  -16.4019 C   0  0  0  0  0  0  0  0  0  0  0  0
   23.2297   -5.2927  -15.3998 C   0  0  2  0  0  0  0  0  0  0  0  0
   23.0957   -6.5470  -16.1136 N   0  0  0  0  0  0  0  0  0  0  0  0
   22.0816   -5.0879  -14.4585 C   0  0  0  0  0  0  0  0  0  0  0  0
   20.8464   -5.6609  -14.7168 O   0  0  0  0  0  0  0  0  0  0  0  0
   22.2053   -4.3946  -13.4139 O   0  0  0  0  0  0  0  0  0  0  0  0
  1  2  1  0
  3  4  2  0
  3  2  1  0
  5  3  1  0
  6 10  1  0
  6  5  1  0
  6  7  1  1
  8 12  1  0
  8  7  1  0
  9  8  2  0
 10 11  2  0
 14 13  1  6
 14 16  1  0
 15 14  1  0
 15 10  1  0
 16 17  1  0
 18 16  2  0
M  END
$$$$
