GDA.pdb
     RDKit          3D

 18 17  0  0  1  0  0  0  0  0999 V2000
   16.1596  -14.1788  -14.6664 N   0  0  0  0  0  0  0  0  0  0  0  0
   15.9686  -12.8242  -14.2171 C   0  0  0  0  0  0  0  0  0  0  0  0
   16.7649  -11.8864  -15.0450 C   0  0  0  0  0  0  0  0  0  0  0  0
   17.7312  -12.3376  -15.7002 O   0  0  0  0  0  0  0  0  0  0  0  0
   16.4813  -10.4995  -15.1287 N   0  0  0  0  0  0  0  0  0  0  0  0
   17.2770   -9.5835  -15.9101 C   0  0  1  0  0  0  0  0  0  0  0  0
   16.4739   -8.4412  -16.4571 C   0  0  0  0  0  0  0  0  0  0  0  0
   15.3740   -8.8840  -17.3388 C   0  0  0  0  0  0  0  0  0  0  0  0
   14.1897   -8.6617  -17.0042 O   0  0  0  0  0  0  0  0  0  0  0  0
   18.4342   -9.1160  -15.1009 C   0  0  0  0  0  0  0  0  0  0  0  0
   18.2419   -8.7175  -13.9288 O   0  0  0  0  0  0  0  0  0  0  0  0
   15.6070   -9.5413  -18.5319 O   0  0  0  0  0  0  0  0  0  0  0  0
   22.1711   -8.9885  -15.5536 C   0  0  0  0  0  0  0  0  0  0  0  0
   20.8930   -8.6299  -14.8246 C   0  0  2  0  0  0  0  0  0  0  0  0
   19.7599   -9.0992  -15.5970 N   0  0  0  0  0  0  0  0  0  0  0  0
   20.8011   -7.1535  -14.5837 C   0  0  0  0  0  0  0  0  0  0  0  0
   21.5039   -6.5628  -13.5454 O   0  0  0  0  0  0  0  0  0  0  0  0
   20.0883   -6.4129  -15.3120 O   0  0  0  0  0  0  0  0  0  0  0  0
  1  2  1  0
  3  4  2  0
  3  2  1  0
  5  3  1  0
  6 10  1  0
  6  5  1  0
  6  7  1  1
  8 12  1  0
  8  7  1  0
  9  8  2  0
 10 11  2  0
 14 13  1  6
 14 16  1  0
 15 14  1  0
 15 10  1  0
 16 17  1  0
 18 16  2  0
M  END
$$$$
