GDA.pdb
     RDKit          3D

 18 17  0  0  1  0  0  0  0  0999 V2000
   11.9057  -12.6510  -10.7091 N   0  0  0  0  0  0  0  0  0  0  0  0
   12.5606  -12.0598  -11.8470 C   0  0  0  0  0  0  0  0  0  0  0  0
   13.7649  -11.3078  -11.4191 C   0  0  0  0  0  0  0  0  0  0  0  0
   14.2314  -11.5227  -10.2776 O   0  0  0  0  0  0  0  0  0  0  0  0
   14.4135  -10.3549  -12.2449 N   0  0  0  0  0  0  0  0  0  0  0  0
   15.5724   -9.6083  -11.8177 C   0  0  1  0  0  0  0  0  0  0  0  0
   16.5182   -9.3140  -12.9437 C   0  0  0  0  0  0  0  0  0  0  0  0
   17.1664  -10.5285  -13.4803 C   0  0  0  0  0  0  0  0  0  0  0  0
   16.7047  -11.0689  -14.5092 O   0  0  0  0  0  0  0  0  0  0  0  0
   15.1355   -8.3711  -11.1170 C   0  0  0  0  0  0  0  0  0  0  0  0
   14.3214   -7.6028  -11.6795 O   0  0  0  0  0  0  0  0  0  0  0  0
   18.2754  -11.0958  -12.8819 O   0  0  0  0  0  0  0  0  0  0  0  0
   15.5765   -6.8975   -7.6886 C   0  0  0  0  0  0  0  0  0  0  0  0
   15.2227   -6.7872   -9.1570 C   0  0  2  0  0  0  0  0  0  0  0  0
   15.6009   -8.0147   -9.8286 N   0  0  0  0  0  0  0  0  0  0  0  0
   15.8910   -5.6041   -9.7894 C   0  0  0  0  0  0  0  0  0  0  0  0
   15.4490   -4.3179   -9.5227 O   0  0  0  0  0  0  0  0  0  0  0  0
   16.8658   -5.7435  -10.5751 O   0  0  0  0  0  0  0  0  0  0  0  0
  1  2  1  0
  3  4  2  0
  3  2  1  0
  5  3  1  0
  6 10  1  0
  6  5  1  0
  6  7  1  6
  8 12  1  0
  8  7  1  0
  9  8  2  0
 10 11  2  0
 14 13  1  1
 14 16  1  0
 15 14  1  0
 15 10  1  0
 16 17  1  0
 18 16  2  0
M  END
$$$$
