GDA.pdb
     RDKit          3D

 18 17  0  0  1  0  0  0  0  0999 V2000
   15.7286  -10.3609  -14.9993 N   0  0  0  0  0  0  0  0  0  0  0  0
   16.2922   -9.4592  -15.9701 C   0  0  0  0  0  0  0  0  0  0  0  0
   17.6914   -9.1218  -15.6132 C   0  0  0  0  0  0  0  0  0  0  0  0
   18.0424   -9.2108  -14.4150 O   0  0  0  0  0  0  0  0  0  0  0  0
   18.6516   -8.7023  -16.5685 N   0  0  0  0  0  0  0  0  0  0  0  0
   20.0187   -8.3959  -16.2219 C   0  0  1  0  0  0  0  0  0  0  0  0
   20.9997   -8.8981  -17.2391 C   0  0  0  0  0  0  0  0  0  0  0  0
   22.4047   -8.6756  -16.8394 C   0  0  0  0  0  0  0  0  0  0  0  0
   23.2190   -8.2282  -17.6764 O   0  0  0  0  0  0  0  0  0  0  0  0
   20.1558   -6.9334  -15.9878 C   0  0  0  0  0  0  0  0  0  0  0  0
   20.0956   -6.1481  -16.9621 O   0  0  0  0  0  0  0  0  0  0  0  0
   22.8575   -8.9462  -15.5621 O   0  0  0  0  0  0  0  0  0  0  0  0
   19.4620   -4.4684  -13.5238 C   0  0  0  0  0  0  0  0  0  0  0  0
   20.5410   -4.9604  -14.4657 C   0  0  2  0  0  0  0  0  0  0  0  0
   20.3536   -6.3783  -14.7008 N   0  0  0  0  0  0  0  0  0  0  0  0
   21.9081   -4.6856  -13.9165 C   0  0  0  0  0  0  0  0  0  0  0  0
   22.7452   -5.7285  -13.5525 O   0  0  0  0  0  0  0  0  0  0  0  0
   22.3323   -3.5083  -13.7709 O   0  0  0  0  0  0  0  0  0  0  0  0
  1  2  1  0
  3  4  2  0
  3  2  1  0
  5  3  1  0
  6 10  1  0
  6  5  1  0
  6  7  1  6
  8 12  1  0
  8  7  1  0
  9  8  2  0
 10 11  2  0
 14 13  1  1
 14 16  1  0
 15 14  1  0
 15 10  1  0
 16 17  1  0
 18 16  2  0
M  END
$$$$
