GDA.pdb
     RDKit          3D

 18 17  0  0  1  0  0  0  0  0999 V2000
   15.9159  -10.8691  -17.9157 N   0  0  0  0  0  0  0  0  0  0  0  0
   15.8323  -11.0082  -16.4850 C   0  0  0  0  0  0  0  0  0  0  0  0
   16.5173   -9.8774  -15.8134 C   0  0  0  0  0  0  0  0  0  0  0  0
   16.0334   -9.4305  -14.7490 O   0  0  0  0  0  0  0  0  0  0  0  0
   17.6974   -9.2782  -16.3223 N   0  0  0  0  0  0  0  0  0  0  0  0
   18.4568   -8.2959  -15.5865 C   0  0  1  0  0  0  0  0  0  0  0  0
   19.8894   -8.6964  -15.3959 C   0  0  0  0  0  0  0  0  0  0  0  0
   20.6054   -7.8273  -14.4393 C   0  0  0  0  0  0  0  0  0  0  0  0
   19.9715   -6.9526  -13.8091 O   0  0  0  0  0  0  0  0  0  0  0  0
   18.3306   -6.9711  -16.2508 C   0  0  0  0  0  0  0  0  0  0  0  0
   18.8062   -6.8130  -17.3990 O   0  0  0  0  0  0  0  0  0  0  0  0
   21.9634   -7.9456  -14.2124 O   0  0  0  0  0  0  0  0  0  0  0  0
   16.4567   -3.7906  -15.6160 C   0  0  0  0  0  0  0  0  0  0  0  0
   17.5866   -4.5619  -16.2659 C   0  0  2  0  0  0  0  0  0  0  0  0
   17.6906   -5.8655  -15.6410 N   0  0  0  0  0  0  0  0  0  0  0  0
   18.8823   -3.8155  -16.1648 C   0  0  0  0  0  0  0  0  0  0  0  0
   19.0381   -2.5851  -16.7834 O   0  0  0  0  0  0  0  0  0  0  0  0
   19.8591   -4.2812  -15.5198 O   0  0  0  0  0  0  0  0  0  0  0  0
  1  2  1  0
  3  4  2  0
  3  2  1  0
  5  3  1  0
  6 10  1  0
  6  5  1  0
  6  7  1  6
  8 12  1  0
  8  7  1  0
  9  8  2  0
 10 11  2  0
 14 13  1  1
 14 16  1  0
 15 14  1  0
 15 10  1  0
 16 17  1  0
 18 16  2  0
M  END
$$$$
