GDA.pdb
     RDKit          3D

 18 17  0  0  1  0  0  0  0  0999 V2000
   22.0742  -12.5083  -18.2912 N   0  0  0  0  0  0  0  0  0  0  0  0
   22.7833  -11.7769  -17.2736 C   0  0  0  0  0  0  0  0  0  0  0  0
   22.2199  -10.4130  -17.1277 C   0  0  0  0  0  0  0  0  0  0  0  0
   22.4912   -9.5562  -17.9990 O   0  0  0  0  0  0  0  0  0  0  0  0
   21.3866  -10.0342  -16.0448 N   0  0  0  0  0  0  0  0  0  0  0  0
   20.7073   -8.7620  -15.9874 C   0  0  1  0  0  0  0  0  0  0  0  0
   19.3101   -8.8759  -15.4547 C   0  0  0  0  0  0  0  0  0  0  0  0
   18.4938   -9.8623  -16.1923 C   0  0  0  0  0  0  0  0  0  0  0  0
   18.2912   -9.7013  -17.4158 O   0  0  0  0  0  0  0  0  0  0  0  0
   21.5263   -7.7968  -15.2062 C   0  0  0  0  0  0  0  0  0  0  0  0
   21.9262   -8.1164  -14.0628 O   0  0  0  0  0  0  0  0  0  0  0  0
   17.9400  -10.9675  -15.5746 O   0  0  0  0  0  0  0  0  0  0  0  0
   23.0581   -4.4159  -15.8536 C   0  0  0  0  0  0  0  0  0  0  0  0
   22.6803   -5.5697  -14.9482 C   0  0  2  0  0  0  0  0  0  0  0  0
   21.8806   -6.5177  -15.6984 N   0  0  0  0  0  0  0  0  0  0  0  0
   21.9422   -5.0894  -13.7355 C   0  0  0  0  0  0  0  0  0  0  0  0
   22.6300   -4.5665  -12.6519 O   0  0  0  0  0  0  0  0  0  0  0  0
   20.6856   -5.1466  -13.6667 O   0  0  0  0  0  0  0  0  0  0  0  0
  1  2  1  0
  3  4  2  0
  3  2  1  0
  5  3  1  0
  6 10  1  0
  6  5  1  0
  6  7  1  1
  8 12  1  0
  8  7  1  0
  9  8  2  0
 10 11  2  0
 14 13  1  6
 14 16  1  0
 15 14  1  0
 15 10  1  0
 16 17  1  0
 18 16  2  0
M  END
$$$$
