GDA.pdb
     RDKit          3D

 18 17  0  0  1  0  0  0  0  0999 V2000
   18.4087  -11.8490  -16.6313 N   0  0  0  0  0  0  0  0  0  0  0  0
   17.8389  -11.0812  -15.5548 C   0  0  0  0  0  0  0  0  0  0  0  0
   18.3166   -9.6784  -15.6092 C   0  0  0  0  0  0  0  0  0  0  0  0
   19.0979   -9.3466  -16.5291 O   0  0  0  0  0  0  0  0  0  0  0  0
   17.9282   -8.6939  -14.6655 N   0  0  0  0  0  0  0  0  0  0  0  0
   18.2539   -7.2957  -14.8137 C   0  0  1  0  0  0  0  0  0  0  0  0
   17.1732   -6.3924  -14.2985 C   0  0  0  0  0  0  0  0  0  0  0  0
   15.8949   -6.5576  -15.0209 C   0  0  0  0  0  0  0  0  0  0  0  0
   14.9054   -7.0305  -14.4200 O   0  0  0  0  0  0  0  0  0  0  0  0
   19.5663   -7.0206  -14.1700 C   0  0  0  0  0  0  0  0  0  0  0  0
   19.7220   -7.2882  -12.9561 O   0  0  0  0  0  0  0  0  0  0  0  0
   15.7501   -6.2056  -16.3493 O   0  0  0  0  0  0  0  0  0  0  0  0
   22.9757   -5.9522  -15.3358 C   0  0  0  0  0  0  0  0  0  0  0  0
   21.9419   -6.1792  -14.2526 C   0  0  2  0  0  0  0  0  0  0  0  0
   20.6625   -6.4637  -14.8715 N   0  0  0  0  0  0  0  0  0  0  0  0
   21.8426   -4.9947  -13.3398 C   0  0  0  0  0  0  0  0  0  0  0  0
   22.7238   -4.8440  -12.2807 O   0  0  0  0  0  0  0  0  0  0  0  0
   20.9624   -4.1091  -13.5074 O   0  0  0  0  0  0  0  0  0  0  0  0
  1  2  1  0
  3  4  2  0
  3  2  1  0
  5  3  1  0
  6 10  1  0
  6  5  1  0
  6  7  1  1
  8 12  1  0
  8  7  1  0
  9  8  2  0
 10 11  2  0
 14 13  1  6
 14 16  1  0
 15 14  1  0
 15 10  1  0
 16 17  1  0
 18 16  2  0
M  END
$$$$
