GDA.pdb
     RDKit          3D

 18 17  0  0  1  0  0  0  0  0999 V2000
   15.6551  -12.1100  -14.5627 N   0  0  0  0  0  0  0  0  0  0  0  0
   15.6815  -11.7990  -15.9683 C   0  0  0  0  0  0  0  0  0  0  0  0
   16.9670  -11.1560  -16.3330 C   0  0  0  0  0  0  0  0  0  0  0  0
   18.0102  -11.8475  -16.3116 O   0  0  0  0  0  0  0  0  0  0  0  0
   17.0691   -9.7917  -16.7054 N   0  0  0  0  0  0  0  0  0  0  0  0
   18.3103   -9.1846  -17.1222 C   0  0  1  0  0  0  0  0  0  0  0  0
   18.1026   -7.9987  -18.0164 C   0  0  0  0  0  0  0  0  0  0  0  0
   17.5780   -8.3689  -19.3472 C   0  0  0  0  0  0  0  0  0  0  0  0
   16.5976   -7.7501  -19.8159 O   0  0  0  0  0  0  0  0  0  0  0  0
   19.1240   -8.8454  -15.9241 C   0  0  0  0  0  0  0  0  0  0  0  0
   18.5895   -8.2268  -14.9748 O   0  0  0  0  0  0  0  0  0  0  0  0
   18.1357   -9.3839  -20.1012 O   0  0  0  0  0  0  0  0  0  0  0  0
   22.5535   -9.7524  -14.6799 C   0  0  0  0  0  0  0  0  0  0  0  0
   21.2693   -8.9533  -14.6034 C   0  0  2  0  0  0  0  0  0  0  0  0
   20.4911   -9.1920  -15.8027 N   0  0  0  0  0  0  0  0  0  0  0  0
   21.5489   -7.4911  -14.4297 C   0  0  0  0  0  0  0  0  0  0  0  0
   21.3945   -6.6123  -15.4902 O   0  0  0  0  0  0  0  0  0  0  0  0
   21.9293   -7.0227  -13.3238 O   0  0  0  0  0  0  0  0  0  0  0  0
  1  2  1  0
  3  4  2  0
  3  2  1  0
  5  3  1  0
  6 10  1  0
  6  5  1  0
  6  7  1  1
  8 12  1  0
  8  7  1  0
  9  8  2  0
 10 11  2  0
 14 13  1  6
 14 16  1  0
 15 14  1  0
 15 10  1  0
 16 17  1  0
 18 16  2  0
M  END
$$$$
