VCC.pdb
     RDKit          3D

 20 19  0  0  1  0  0  0  0  0999 V2000
   14.2523  -22.9391   18.2144 C   0  0  0  0  0  0  0  0  0  0  0  0
   14.1073  -21.6167   18.8927 C   0  0  1  0  0  0  0  0  0  0  0  0
   15.4450  -21.1476   19.3634 C   0  0  0  0  0  0  0  0  0  0  0  0
   13.3963  -20.5970   18.0166 C   0  0  2  0  0  0  0  0  0  0  0  0
   14.1236  -20.3991   16.7952 N   0  0  0  0  0  0  0  0  0  0  0  0
   13.2582  -19.3253   18.7899 C   0  0  0  0  0  0  0  0  0  0  0  0
   14.1058  -18.4006   18.7081 O   0  0  0  0  0  0  0  0  0  0  0  0
   12.1297  -19.1692   19.6398 N   0  0  0  0  0  0  0  0  0  0  0  0
   11.8883  -18.0281   20.4559 C   0  0  1  0  0  0  0  0  0  0  0  0
   10.3832  -17.8797   20.6583 C   0  0  0  0  0  0  0  0  0  0  0  0
    9.5708  -17.6848   19.0543 S   0  0  0  0  0  0  0  0  0  0  0  0
   12.5736  -18.0375   21.7496 C   0  0  0  0  0  0  0  0  0  0  0  0
   12.6872  -19.0287   22.5084 O   0  0  0  0  0  0  0  0  0  0  0  0
   13.1661  -16.8201   22.1939 N   0  0  0  0  0  0  0  0  0  0  0  0
   13.9991  -16.8046   23.3806 C   0  0  1  0  0  0  0  0  0  0  0  0
   14.7606  -15.4980   23.5017 C   0  0  0  0  0  0  0  0  0  0  0  0
   16.2580  -15.4973   22.5100 S   0  0  0  0  0  0  0  0  0  0  0  0
   13.1087  -16.9622   24.5601 C   0  0  0  0  0  0  0  0  0  0  0  0
   13.5598  -17.5063   25.7634 O   0  0  0  0  0  0  0  0  0  0  0  0
   11.8997  -16.6085   24.5230 O   0  0  0  0  0  0  0  0  0  0  0  0
  2  1  1  6
  2  3  1  0
  4  2  1  0
  4  5  1  6
  6  4  1  0
  7  6  2  0
  8  6  1  0
  9 12  1  0
  9  8  1  0
  9 10  1  1
 11 10  1  0
 12 14  1  0
 13 12  2  0
 14 15  1  0
 15 16  1  1
 16 17  1  0
 18 15  1  0
 18 19  1  0
 20 18  2  0
M  END
$$$$
