VCC.pdb
     RDKit          3D

 20 19  0  0  1  0  0  0  0  0999 V2000
    8.5167  -12.7159   21.2763 C   0  0  0  0  0  0  0  0  0  0  0  0
    7.8707  -13.6002   20.2611 C   0  0  1  0  0  0  0  0  0  0  0  0
    7.8084  -12.8907   18.9482 C   0  0  0  0  0  0  0  0  0  0  0  0
    8.5481  -14.9587   20.1689 C   0  0  2  0  0  0  0  0  0  0  0  0
    7.9845  -15.7222   19.0921 N   0  0  0  0  0  0  0  0  0  0  0  0
    8.3896  -15.6550   21.4821 C   0  0  0  0  0  0  0  0  0  0  0  0
    7.2795  -16.0982   21.8713 O   0  0  0  0  0  0  0  0  0  0  0  0
    9.5365  -15.8144   22.3063 N   0  0  0  0  0  0  0  0  0  0  0  0
    9.5603  -16.5634   23.5167 C   0  0  1  0  0  0  0  0  0  0  0  0
   10.1686  -17.9338   23.2333 C   0  0  0  0  0  0  0  0  0  0  0  0
    8.9452  -18.9840   22.4141 S   0  0  0  0  0  0  0  0  0  0  0  0
   10.2620  -15.9190   24.6283 C   0  0  0  0  0  0  0  0  0  0  0  0
   11.2700  -15.1809   24.5257 O   0  0  0  0  0  0  0  0  0  0  0  0
    9.7646  -16.1437   25.9445 N   0  0  0  0  0  0  0  0  0  0  0  0
   10.3557  -15.4551   27.0753 C   0  0  1  0  0  0  0  0  0  0  0  0
    9.3474  -14.5492   27.7568 C   0  0  0  0  0  0  0  0  0  0  0  0
   10.1194  -13.0817   28.4467 S   0  0  0  0  0  0  0  0  0  0  0  0
   10.8176  -16.4858   28.0413 C   0  0  0  0  0  0  0  0  0  0  0  0
   11.8840  -16.2615   28.9131 O   0  0  0  0  0  0  0  0  0  0  0  0
   10.2615  -17.6143   28.1144 O   0  0  0  0  0  0  0  0  0  0  0  0
  2  1  1  1
  2  3  1  0
  4  2  1  0
  4  5  1  6
  6  4  1  0
  7  6  2  0
  8  6  1  0
  9 12  1  0
  9  8  1  0
  9 10  1  6
 11 10  1  0
 12 14  1  0
 13 12  2  0
 14 15  1  0
 15 16  1  1
 16 17  1  0
 18 15  1  0
 18 19  1  0
 20 18  2  0
M  END
$$$$
