VCC.pdb
     RDKit          3D

 20 19  0  0  1  0  0  0  0  0999 V2000
    8.4679  -12.9523   20.1238 C   0  0  0  0  0  0  0  0  0  0  0  0
    7.5781  -13.4979   19.0558 C   0  0  1  0  0  0  0  0  0  0  0  0
    7.1094  -12.3834   18.1788 C   0  0  0  0  0  0  0  0  0  0  0  0
    8.2388  -14.6258   18.2787 C   0  0  2  0  0  0  0  0  0  0  0  0
    7.3840  -15.0597   17.2105 N   0  0  0  0  0  0  0  0  0  0  0  0
    8.5435  -15.7384   19.2293 C   0  0  0  0  0  0  0  0  0  0  0  0
    7.6453  -16.4917   19.6829 O   0  0  0  0  0  0  0  0  0  0  0  0
    9.8938  -15.9401   19.6245 N   0  0  0  0  0  0  0  0  0  0  0  0
   10.3138  -16.8855   20.6024 C   0  0  1  0  0  0  0  0  0  0  0  0
   10.9869  -18.0574   19.8940 C   0  0  0  0  0  0  0  0  0  0  0  0
   11.3061  -19.3833   21.0818 S   0  0  0  0  0  0  0  0  0  0  0  0
   11.1948  -16.3496   21.6416 C   0  0  0  0  0  0  0  0  0  0  0  0
   12.2327  -15.6755   21.4426 O   0  0  0  0  0  0  0  0  0  0  0  0
   10.8521  -16.6111   22.9998 N   0  0  0  0  0  0  0  0  0  0  0  0
   11.7338  -16.1862   24.0695 C   0  0  1  0  0  0  0  0  0  0  0  0
   11.0221  -16.2034   25.4093 C   0  0  0  0  0  0  0  0  0  0  0  0
   10.3354  -17.8197   25.7858 S   0  0  0  0  0  0  0  0  0  0  0  0
   12.8800  -17.1314   24.1130 C   0  0  0  0  0  0  0  0  0  0  0  0
   12.8448  -18.3710   23.4728 O   0  0  0  0  0  0  0  0  0  0  0  0
   13.9398  -16.8512   24.7346 O   0  0  0  0  0  0  0  0  0  0  0  0
  2  1  1  1
  2  3  1  0
  4  2  1  0
  4  5  1  6
  6  4  1  0
  7  6  2  0
  8  6  1  0
  9 12  1  0
  9  8  1  0
  9 10  1  6
 11 10  1  0
 12 14  1  0
 13 12  2  0
 14 15  1  0
 15 16  1  1
 16 17  1  0
 18 15  1  0
 18 19  1  0
 20 18  2  0
M  END
$$$$
