VCC.pdb
     RDKit          3D

 20 19  0  0  1  0  0  0  0  0999 V2000
    9.0773  -13.0806   19.1837 C   0  0  0  0  0  0  0  0  0  0  0  0
    8.4441  -13.4976   20.4702 C   0  0  1  0  0  0  0  0  0  0  0  0
    7.1338  -12.7990   20.6314 C   0  0  0  0  0  0  0  0  0  0  0  0
    8.3284  -15.0093   20.5897 C   0  0  2  0  0  0  0  0  0  0  0  0
    7.5252  -15.5315   19.5210 N   0  0  0  0  0  0  0  0  0  0  0  0
    7.7465  -15.3337   21.9278 C   0  0  0  0  0  0  0  0  0  0  0  0
    6.5071  -15.4448   22.1059 O   0  0  0  0  0  0  0  0  0  0  0  0
    8.6321  -15.5197   23.0238 N   0  0  0  0  0  0  0  0  0  0  0  0
    8.2484  -16.0505   24.2877 C   0  0  1  0  0  0  0  0  0  0  0  0
    7.6190  -17.4237   24.0721 C   0  0  0  0  0  0  0  0  0  0  0  0
    6.9716  -18.0485   25.6409 S   0  0  0  0  0  0  0  0  0  0  0  0
    9.3266  -16.1381   25.2742 C   0  0  0  0  0  0  0  0  0  0  0  0
   10.4813  -16.5746   25.0568 O   0  0  0  0  0  0  0  0  0  0  0  0
    9.0501  -15.6912   26.5987 N   0  0  0  0  0  0  0  0  0  0  0  0
   10.1185  -15.5951   27.5742 C   0  0  1  0  0  0  0  0  0  0  0  0
    9.7316  -14.6877   28.7269 C   0  0  0  0  0  0  0  0  0  0  0  0
    9.9288  -12.9515   28.3121 S   0  0  0  0  0  0  0  0  0  0  0  0
   10.3794  -16.9624   28.0951 C   0  0  0  0  0  0  0  0  0  0  0  0
   11.5319  -17.2743   28.8176 O   0  0  0  0  0  0  0  0  0  0  0  0
    9.5647  -17.9048   27.9049 O   0  0  0  0  0  0  0  0  0  0  0  0
  2  1  1  6
  2  3  1  0
  4  2  1  0
  4  5  1  6
  6  4  1  0
  7  6  2  0
  8  6  1  0
  9 12  1  0
  9  8  1  0
  9 10  1  6
 11 10  1  0
 12 14  1  0
 13 12  2  0
 14 15  1  0
 15 16  1  1
 16 17  1  0
 18 15  1  0
 18 19  1  0
 20 18  2  0
M  END
$$$$
