VCC.pdb
     RDKit          3D

 20 19  0  0  1  0  0  0  0  0999 V2000
   13.6162  -20.4754   18.7920 C   0  0  0  0  0  0  0  0  0  0  0  0
   12.7008  -20.1014   17.6731 C   0  0  1  0  0  0  0  0  0  0  0  0
   12.5950  -21.2403   16.7125 C   0  0  0  0  0  0  0  0  0  0  0  0
   11.3476  -19.6213   18.1744 C   0  0  2  0  0  0  0  0  0  0  0  0
   10.4860  -19.3208   17.0665 N   0  0  0  0  0  0  0  0  0  0  0  0
   11.5642  -18.4264   19.0460 C   0  0  0  0  0  0  0  0  0  0  0  0
   11.9268  -17.3175   18.5780 O   0  0  0  0  0  0  0  0  0  0  0  0
   11.3502  -18.5613   20.4446 N   0  0  0  0  0  0  0  0  0  0  0  0
   11.6539  -17.5564   21.4061 C   0  0  1  0  0  0  0  0  0  0  0  0
   10.4492  -17.3773   22.3253 C   0  0  0  0  0  0  0  0  0  0  0  0
   10.7929  -16.0732   23.5303 S   0  0  0  0  0  0  0  0  0  0  0  0
   12.8609  -17.8029   22.1971 C   0  0  0  0  0  0  0  0  0  0  0  0
   13.1084  -18.8467   22.8454 O   0  0  0  0  0  0  0  0  0  0  0  0
   13.8457  -16.7738   22.2406 N   0  0  0  0  0  0  0  0  0  0  0  0
   15.0591  -16.9574   23.0127 C   0  0  1  0  0  0  0  0  0  0  0  0
   16.0696  -15.8646   22.7184 C   0  0  0  0  0  0  0  0  0  0  0  0
   16.7675  -16.0193   21.0708 S   0  0  0  0  0  0  0  0  0  0  0  0
   14.6911  -16.9077   24.4518 C   0  0  0  0  0  0  0  0  0  0  0  0
   15.6303  -17.1028   25.4655 O   0  0  0  0  0  0  0  0  0  0  0  0
   13.5066  -16.6857   24.8201 O   0  0  0  0  0  0  0  0  0  0  0  0
  2  1  1  1
  2  3  1  0
  4  2  1  0
  4  5  1  6
  6  4  1  0
  7  6  2  0
  8  6  1  0
  9 12  1  0
  9  8  1  0
  9 10  1  1
 11 10  1  0
 12 14  1  0
 13 12  2  0
 14 15  1  0
 15 16  1  1
 16 17  1  0
 18 15  1  0
 18 19  1  0
 20 18  2  0
M  END
$$$$
