VCC.pdb
     RDKit          3D

 20 19  0  0  1  0  0  0  0  0999 V2000
    6.2748  -16.8132   22.3714 C   0  0  0  0  0  0  0  0  0  0  0  0
    6.8970  -16.1972   21.1616 C   0  0  1  0  0  0  0  0  0  0  0  0
    6.0668  -16.5089   19.9597 C   0  0  0  0  0  0  0  0  0  0  0  0
    7.1464  -14.7077   21.3396 C   0  0  2  0  0  0  0  0  0  0  0  0
    7.6951  -14.1491   20.1367 N   0  0  0  0  0  0  0  0  0  0  0  0
    8.0634  -14.5188   22.5049 C   0  0  0  0  0  0  0  0  0  0  0  0
    9.2836  -14.8151   22.4472 O   0  0  0  0  0  0  0  0  0  0  0  0
    7.5269  -13.9870   23.7089 N   0  0  0  0  0  0  0  0  0  0  0  0
    8.2517  -13.8642   24.9280 C   0  0  1  0  0  0  0  0  0  0  0  0
    7.4483  -12.9944   25.8904 C   0  0  0  0  0  0  0  0  0  0  0  0
    5.8331  -13.7511   26.1892 S   0  0  0  0  0  0  0  0  0  0  0  0
    8.6043  -15.1330   25.5677 C   0  0  0  0  0  0  0  0  0  0  0  0
    7.8942  -16.1658   25.5814 O   0  0  0  0  0  0  0  0  0  0  0  0
    9.8609  -15.2113   26.2350 N   0  0  0  0  0  0  0  0  0  0  0  0
   10.3046  -16.4662   26.8101 C   0  0  1  0  0  0  0  0  0  0  0  0
   11.6144  -16.9213   26.1945 C   0  0  0  0  0  0  0  0  0  0  0  0
   12.2417  -18.4130   26.9735 S   0  0  0  0  0  0  0  0  0  0  0  0
   10.4985  -16.2519   28.2680 C   0  0  0  0  0  0  0  0  0  0  0  0
   10.6444  -17.3139   29.1616 O   0  0  0  0  0  0  0  0  0  0  0  0
   10.5396  -15.0934   28.7623 O   0  0  0  0  0  0  0  0  0  0  0  0
  2  1  1  1
  2  3  1  0
  4  2  1  0
  4  5  1  6
  6  4  1  0
  7  6  2  0
  8  6  1  0
  9 12  1  0
  9  8  1  0
  9 10  1  1
 11 10  1  0
 12 14  1  0
 13 12  2  0
 14 15  1  0
 15 16  1  6
 16 17  1  0
 18 15  1  0
 18 19  1  0
 20 18  2  0
M  END
$$$$
