VCC.pdb
     RDKit          3D

 20 19  0  0  1  0  0  0  0  0999 V2000
    5.0420  -20.4494   19.6148 C   0  0  0  0  0  0  0  0  0  0  0  0
    5.9865  -19.4501   20.1973 C   0  0  1  0  0  0  0  0  0  0  0  0
    6.9362  -20.1400   21.1210 C   0  0  0  0  0  0  0  0  0  0  0  0
    6.6907  -18.6330   19.1253 C   0  0  2  0  0  0  0  0  0  0  0  0
    7.4538  -19.4934   18.2666 N   0  0  0  0  0  0  0  0  0  0  0  0
    7.5553  -17.6165   19.7987 C   0  0  0  0  0  0  0  0  0  0  0  0
    8.7238  -17.8823   20.1784 O   0  0  0  0  0  0  0  0  0  0  0  0
    7.0284  -16.3135   20.0104 N   0  0  0  0  0  0  0  0  0  0  0  0
    7.6929  -15.2845   20.7359 C   0  0  1  0  0  0  0  0  0  0  0  0
    7.1294  -13.9352   20.3000 C   0  0  0  0  0  0  0  0  0  0  0  0
    7.9433  -12.6100   21.2231 S   0  0  0  0  0  0  0  0  0  0  0  0
    7.6257  -15.4135   22.1926 C   0  0  0  0  0  0  0  0  0  0  0  0
    6.5968  -15.2618   22.8923 O   0  0  0  0  0  0  0  0  0  0  0  0
    8.8280  -15.7392   22.8846 N   0  0  0  0  0  0  0  0  0  0  0  0
    8.8118  -15.9402   24.3205 C   0  0  1  0  0  0  0  0  0  0  0  0
    8.2375  -17.2977   24.6799 C   0  0  0  0  0  0  0  0  0  0  0  0
    6.5266  -17.1846   25.2143 S   0  0  0  0  0  0  0  0  0  0  0  0
   10.2148  -15.8597   24.8041 C   0  0  0  0  0  0  0  0  0  0  0  0
   10.5412  -15.9669   26.1568 O   0  0  0  0  0  0  0  0  0  0  0  0
   11.1761  -15.6900   24.0072 O   0  0  0  0  0  0  0  0  0  0  0  0
  2  1  1  6
  2  3  1  0
  4  2  1  0
  4  5  1  1
  6  4  1  0
  7  6  2  0
  8  6  1  0
  9 12  1  0
  9  8  1  0
  9 10  1  1
 11 10  1  0
 12 14  1  0
 13 12  2  0
 14 15  1  0
 15 16  1  6
 16 17  1  0
 18 15  1  0
 18 19  1  0
 20 18  2  0
M  END
$$$$
