VCC.pdb
     RDKit          3D

 20 19  0  0  1  0  0  0  0  0999 V2000
    8.8982  -13.2074   18.4286 C   0  0  0  0  0  0  0  0  0  0  0  0
    8.3702  -13.3440   19.8188 C   0  0  1  0  0  0  0  0  0  0  0  0
    6.9063  -13.0475   19.8283 C   0  0  0  0  0  0  0  0  0  0  0  0
    8.7051  -14.6957   20.4299 C   0  0  2  0  0  0  0  0  0  0  0  0
    8.1992  -15.7536   19.6022 N   0  0  0  0  0  0  0  0  0  0  0  0
    8.1268  -14.7471   21.8073 C   0  0  0  0  0  0  0  0  0  0  0  0
    6.9287  -14.4449   22.0385 O   0  0  0  0  0  0  0  0  0  0  0  0
    8.9676  -15.1515   22.8796 N   0  0  0  0  0  0  0  0  0  0  0  0
    8.5220  -15.3695   24.2139 C   0  0  1  0  0  0  0  0  0  0  0  0
    7.3545  -16.3516   24.1865 C   0  0  0  0  0  0  0  0  0  0  0  0
    6.5850  -16.4265   25.8214 S   0  0  0  0  0  0  0  0  0  0  0  0
    9.5539  -15.8369   25.1413 C   0  0  0  0  0  0  0  0  0  0  0  0
   10.3694  -16.7627   24.9199 O   0  0  0  0  0  0  0  0  0  0  0  0
    9.6480  -15.1903   26.4076 N   0  0  0  0  0  0  0  0  0  0  0  0
   10.6793  -15.5783   27.3501 C   0  0  1  0  0  0  0  0  0  0  0  0
   10.6388  -14.7149   28.5969 C   0  0  0  0  0  0  0  0  0  0  0  0
    9.8993  -13.1092   28.2799 S   0  0  0  0  0  0  0  0  0  0  0  0
   10.4362  -16.9947   27.7286 C   0  0  0  0  0  0  0  0  0  0  0  0
   11.3692  -17.7413   28.4496 O   0  0  0  0  0  0  0  0  0  0  0  0
    9.3691  -17.5858   27.4122 O   0  0  0  0  0  0  0  0  0  0  0  0
  2  1  1  6
  2  3  1  0
  4  2  1  0
  4  5  1  6
  6  4  1  0
  7  6  2  0
  8  6  1  0
  9 12  1  0
  9  8  1  0
  9 10  1  6
 11 10  1  0
 12 14  1  0
 13 12  2  0
 14 15  1  0
 15 16  1  1
 16 17  1  0
 18 15  1  0
 18 19  1  0
 20 18  2  0
M  END
$$$$
