VCC.pdb
     RDKit          3D

 20 19  0  0  1  0  0  0  0  0999 V2000
    8.0420  -16.7260   19.7742 C   0  0  0  0  0  0  0  0  0  0  0  0
    8.1181  -15.6282   20.7837 C   0  0  1  0  0  0  0  0  0  0  0  0
    6.9220  -14.7435   20.6504 C   0  0  0  0  0  0  0  0  0  0  0  0
    8.3080  -16.1591   22.1961 C   0  0  2  0  0  0  0  0  0  0  0  0
    7.1909  -16.9777   22.5729 N   0  0  0  0  0  0  0  0  0  0  0  0
    8.4765  -14.9954   23.1189 C   0  0  0  0  0  0  0  0  0  0  0  0
    9.4374  -14.1922   23.0096 O   0  0  0  0  0  0  0  0  0  0  0  0
    7.5143  -14.8021   24.1470 N   0  0  0  0  0  0  0  0  0  0  0  0
    7.5402  -13.7295   25.0826 C   0  0  1  0  0  0  0  0  0  0  0  0
    6.2206  -13.7152   25.8486 C   0  0  0  0  0  0  0  0  0  0  0  0
    6.1985  -12.3164   26.9947 S   0  0  0  0  0  0  0  0  0  0  0  0
    8.6669  -13.7520   26.0172 C   0  0  0  0  0  0  0  0  0  0  0  0
    9.0735  -12.7784   26.6941 O   0  0  0  0  0  0  0  0  0  0  0  0
    9.3686  -14.9816   26.1790 N   0  0  0  0  0  0  0  0  0  0  0  0
   10.2387  -15.1802   27.3217 C   0  0  1  0  0  0  0  0  0  0  0  0
    9.4719  -15.0589   28.6252 C   0  0  0  0  0  0  0  0  0  0  0  0
   10.4875  -14.3824   29.9429 S   0  0  0  0  0  0  0  0  0  0  0  0
   10.8148  -16.5464   27.2192 C   0  0  0  0  0  0  0  0  0  0  0  0
   12.0226  -16.8905   27.8279 O   0  0  0  0  0  0  0  0  0  0  0  0
   10.2325  -17.4586   26.5735 O   0  0  0  0  0  0  0  0  0  0  0  0
  2  1  1  6
  2  3  1  0
  4  2  1  0
  4  5  1  1
  6  4  1  0
  7  6  2  0
  8  6  1  0
  9 12  1  0
  9  8  1  0
  9 10  1  1
 11 10  1  0
 12 14  1  0
 13 12  2  0
 14 15  1  0
 15 16  1  1
 16 17  1  0
 18 15  1  0
 18 19  1  0
 20 18  2  0
M  END
$$$$
