VCC.pdb
     RDKit          3D

 20 19  0  0  1  0  0  0  0  0999 V2000
    8.5312  -12.7446   21.0732 C   0  0  0  0  0  0  0  0  0  0  0  0
    7.8191  -13.6546   20.1272 C   0  0  1  0  0  0  0  0  0  0  0  0
    7.5395  -12.9292   18.8518 C   0  0  0  0  0  0  0  0  0  0  0  0
    8.5678  -14.9610   19.9141 C   0  0  2  0  0  0  0  0  0  0  0  0
    7.9287  -15.7379   18.8903 N   0  0  0  0  0  0  0  0  0  0  0  0
    8.6161  -15.6948   21.2155 C   0  0  0  0  0  0  0  0  0  0  0  0
    7.5921  -16.2169   21.7243 O   0  0  0  0  0  0  0  0  0  0  0  0
    9.8640  -15.7982   21.8880 N   0  0  0  0  0  0  0  0  0  0  0  0
   10.0478  -16.4275   23.1517 C   0  0  1  0  0  0  0  0  0  0  0  0
   11.1371  -17.4874   23.0176 C   0  0  0  0  0  0  0  0  0  0  0  0
   10.4074  -19.0397   22.4444 S   0  0  0  0  0  0  0  0  0  0  0  0
   10.3608  -15.5178   24.2552 C   0  0  0  0  0  0  0  0  0  0  0  0
   11.2683  -14.6532   24.2536 O   0  0  0  0  0  0  0  0  0  0  0  0
    9.5718  -15.6154   25.4378 N   0  0  0  0  0  0  0  0  0  0  0  0
    9.8522  -14.7601   26.5746 C   0  0  1  0  0  0  0  0  0  0  0  0
    8.6437  -13.9201   26.9430 C   0  0  0  0  0  0  0  0  0  0  0  0
    8.9453  -12.9079   28.3955 S   0  0  0  0  0  0  0  0  0  0  0  0
   10.2070  -15.6353   27.7222 C   0  0  0  0  0  0  0  0  0  0  0  0
   11.0556  -15.2104   28.7454 O   0  0  0  0  0  0  0  0  0  0  0  0
    9.7530  -16.8068   27.8205 O   0  0  0  0  0  0  0  0  0  0  0  0
  2  1  1  1
  2  3  1  0
  4  2  1  0
  4  5  1  6
  6  4  1  0
  7  6  2  0
  8  6  1  0
  9 12  1  0
  9  8  1  0
  9 10  1  6
 11 10  1  0
 12 14  1  0
 13 12  2  0
 14 15  1  0
 15 16  1  1
 16 17  1  0
 18 15  1  0
 18 19  1  0
 20 18  2  0
M  END
$$$$
