MYP.pdb
     RDKit          3D

 28 29  0  0  1  0  0  0  0  0999 V2000
   18.2063  -17.9985  -15.4761 C   0  0  0  0  0  0  0  0  0  0  0  0
   19.6381  -18.1304  -16.5488 S   0  0  0  0  0  0  0  0  0  0  0  0
   20.3030  -19.8436  -16.5069 C   0  0  0  0  0  0  0  0  0  0  0  0
   21.5534  -19.8280  -17.3202 C   0  0  0  0  0  0  0  0  0  0  0  0
   22.4844  -18.6909  -17.0602 C   0  0  2  0  0  0  0  0  0  0  0  0
   22.8708  -18.1518  -18.3643 N   0  0  0  0  0  0  0  0  0  0  0  0
   23.7205  -19.0768  -16.3465 C   0  0  0  0  0  0  0  0  0  0  0  0
   24.4163  -20.0420  -16.8260 O   0  0  0  0  0  0  0  0  0  0  0  0
   29.3896  -15.6411  -18.2019 O   0  0  0  0  0  0  0  0  0  0  0  0
   28.5721  -16.1176  -17.1642 C   0  0  0  0  0  0  0  0  0  0  0  0
   28.8537  -17.3172  -16.5342 C   0  0  0  0  0  0  0  0  0  0  0  0
   28.0479  -17.7951  -15.5053 C   0  0  0  0  0  0  0  0  0  0  0  0
   26.9411  -17.0981  -15.0722 C   0  0  0  0  0  0  0  0  0  0  0  0
   26.0695  -17.5868  -13.9804 C   0  0  0  0  0  0  0  0  0  0  0  0
   25.2943  -18.8311  -14.3962 C   0  0  2  0  0  0  0  0  0  0  0  0
   24.1205  -18.4040  -15.1755 N   0  0  0  0  0  0  0  0  0  0  0  0
   24.7986  -19.4672  -13.1530 C   0  0  0  0  0  0  0  0  0  0  0  0
   23.5743  -19.2704  -12.8334 O   0  0  0  0  0  0  0  0  0  0  0  0
   26.6843  -15.9078  -15.7164 C   0  0  0  0  0  0  0  0  0  0  0  0
   27.4693  -15.4220  -16.7333 C   0  0  0  0  0  0  0  0  0  0  0  0
   25.5604  -20.2806  -12.2816 N   0  0  0  0  0  0  0  0  0  0  0  0
   27.0093  -20.5011  -12.4472 C   0  0  0  0  0  0  0  0  0  0  0  0
   27.1128  -21.9872  -12.2091 C   0  0  0  0  0  0  0  0  0  0  0  0
   26.0080  -22.3442  -11.2514 C   0  0  0  0  0  0  0  0  0  0  0  0
   25.2424  -21.0295  -11.0991 C   0  0  1  0  0  0  0  0  0  0  0  0
   25.6721  -20.3237   -9.8503 C   0  0  0  0  0  0  0  0  0  0  0  0
   26.6028  -19.3219   -9.8661 O   0  0  0  0  0  0  0  0  0  0  0  0
   25.1448  -20.6843   -8.7733 O   0  0  0  0  0  0  0  0  0  0  0  0
  2  1  1  0
  3  4  1  0
  3  2  1  0
  5  6  1  6
  5  4  1  0
  7  5  1  0
  8  7  2  0
  9 10  1  0
 10 11  2  0
 10 20  1  0
 11 12  1  0
 12 13  2  0
 13 14  1  0
 15 14  1  1
 15 16  1  0
 16  7  1  0
 17 15  1  0
 17 21  1  0
 18 17  2  0
 19 13  1  0
 20 19  2  0
 21 22  1  0
 23 22  1  0
 24 23  1  0
 25 21  1  0
 25 24  1  0
 25 26  1  1
 26 27  1  0
 28 26  2  0
M  END
$$$$
