MYP.pdb
     RDKit          3D

 28 29  0  0  1  0  0  0  0  0999 V2000
   28.1306  -18.1518   -5.5942 C   0  0  0  0  0  0  0  0  0  0  0  0
   27.3000  -18.8507   -7.0224 S   0  0  0  0  0  0  0  0  0  0  0  0
   27.7215  -20.6320   -7.1892 C   0  0  0  0  0  0  0  0  0  0  0  0
   27.1060  -21.0905   -8.4684 C   0  0  0  0  0  0  0  0  0  0  0  0
   25.6926  -20.6694   -8.6978 C   0  0  2  0  0  0  0  0  0  0  0  0
   24.8896  -21.2835   -7.6401 N   0  0  0  0  0  0  0  0  0  0  0  0
   25.1384  -21.1060   -9.9972 C   0  0  0  0  0  0  0  0  0  0  0  0
   24.9879  -22.3645  -10.1954 O   0  0  0  0  0  0  0  0  0  0  0  0
   18.3961  -22.4447  -10.2973 O   0  0  0  0  0  0  0  0  0  0  0  0
   19.5130  -21.7922  -10.8441 C   0  0  0  0  0  0  0  0  0  0  0  0
   20.1436  -20.7702  -10.1564 C   0  0  0  0  0  0  0  0  0  0  0  0
   21.2507  -20.1194  -10.6925 C   0  0  0  0  0  0  0  0  0  0  0  0
   21.7634  -20.4630  -11.9243 C   0  0  0  0  0  0  0  0  0  0  0  0
   22.9391  -19.7850  -12.5145 C   0  0  0  0  0  0  0  0  0  0  0  0
   24.2193  -20.5782  -12.2814 C   0  0  2  0  0  0  0  0  0  0  0  0
   24.7869  -20.1671  -10.9866 N   0  0  0  0  0  0  0  0  0  0  0  0
   25.1767  -20.1742  -13.3379 C   0  0  0  0  0  0  0  0  0  0  0  0
   25.7773  -19.0521  -13.1967 O   0  0  0  0  0  0  0  0  0  0  0  0
   21.1167  -21.4831  -12.5867 C   0  0  0  0  0  0  0  0  0  0  0  0
   20.0232  -22.1356  -12.0720 C   0  0  0  0  0  0  0  0  0  0  0  0
   25.4916  -20.9228  -14.4963 N   0  0  0  0  0  0  0  0  0  0  0  0
   24.8205  -22.1894  -14.8434 C   0  0  0  0  0  0  0  0  0  0  0  0
   25.9924  -23.0406  -15.2655 C   0  0  0  0  0  0  0  0  0  0  0  0
   27.0186  -22.1006  -15.8385 C   0  0  0  0  0  0  0  0  0  0  0  0
   26.4077  -20.7224  -15.5830 C   0  0  1  0  0  0  0  0  0  0  0  0
   25.7207  -20.2255  -16.8172 C   0  0  0  0  0  0  0  0  0  0  0  0
   26.4172  -19.7870  -17.9094 O   0  0  0  0  0  0  0  0  0  0  0  0
   24.4685  -20.2237  -16.8194 O   0  0  0  0  0  0  0  0  0  0  0  0
  2  1  1  0
  3  4  1  0
  3  2  1  0
  5  6  1  1
  5  4  1  0
  7  5  1  0
  8  7  2  0
  9 10  1  0
 10 11  2  0
 10 20  1  0
 11 12  1  0
 12 13  2  0
 13 14  1  0
 15 14  1  6
 15 16  1  0
 16  7  1  0
 17 15  1  0
 17 21  1  0
 18 17  2  0
 19 13  1  0
 20 19  2  0
 21 22  1  0
 23 22  1  0
 24 23  1  0
 25 21  1  0
 25 24  1  0
 25 26  1  6
 26 27  1  0
 28 26  2  0
M  END
$$$$
