MYP.pdb
     RDKit          3D

 28 29  0  0  1  0  0  0  0  0999 V2000
   26.2295  -20.6039  -18.1575 C   0  0  0  0  0  0  0  0  0  0  0  0
   25.7275  -18.9399  -18.6016 S   0  0  0  0  0  0  0  0  0  0  0  0
   25.9165  -17.8168  -17.1588 C   0  0  0  0  0  0  0  0  0  0  0  0
   24.6790  -17.9734  -16.3407 C   0  0  0  0  0  0  0  0  0  0  0  0
   24.4580  -19.3249  -15.7474 C   0  0  2  0  0  0  0  0  0  0  0  0
   23.1156  -19.7492  -16.1457 N   0  0  0  0  0  0  0  0  0  0  0  0
   24.5206  -19.3508  -14.2704 C   0  0  0  0  0  0  0  0  0  0  0  0
   24.0316  -18.3530  -13.6293 O   0  0  0  0  0  0  0  0  0  0  0  0
   18.7725  -20.9945  -11.5260 O   0  0  0  0  0  0  0  0  0  0  0  0
   20.1641  -21.1809  -11.5576 C   0  0  0  0  0  0  0  0  0  0  0  0
   20.7782  -21.7485  -12.6602 C   0  0  0  0  0  0  0  0  0  0  0  0
   22.1566  -21.9360  -12.6980 C   0  0  0  0  0  0  0  0  0  0  0  0
   22.9644  -21.5666  -11.6448 C   0  0  0  0  0  0  0  0  0  0  0  0
   24.4320  -21.7566  -11.6624 C   0  0  0  0  0  0  0  0  0  0  0  0
   25.1552  -20.4954  -12.1191 C   0  0  2  0  0  0  0  0  0  0  0  0
   25.1000  -20.4391  -13.5892 N   0  0  0  0  0  0  0  0  0  0  0  0
   26.5771  -20.6475  -11.7304 C   0  0  0  0  0  0  0  0  0  0  0  0
   27.4038  -21.0148  -12.6367 O   0  0  0  0  0  0  0  0  0  0  0  0
   22.3272  -21.0044  -10.5606 C   0  0  0  0  0  0  0  0  0  0  0  0
   20.9682  -20.8123  -10.5072 C   0  0  0  0  0  0  0  0  0  0  0  0
   27.1086  -20.4197  -10.4393 N   0  0  0  0  0  0  0  0  0  0  0  0
   26.2703  -20.1035   -9.2678 C   0  0  0  0  0  0  0  0  0  0  0  0
   27.0585  -18.9854   -8.6315 C   0  0  0  0  0  0  0  0  0  0  0  0
   28.5044  -19.2402   -8.9625 C   0  0  0  0  0  0  0  0  0  0  0  0
   28.4386  -20.4463   -9.8999 C   0  0  1  0  0  0  0  0  0  0  0  0
   28.7151  -21.7064   -9.1397 C   0  0  0  0  0  0  0  0  0  0  0  0
   27.7305  -22.6095   -8.8480 O   0  0  0  0  0  0  0  0  0  0  0  0
   29.8947  -21.9118   -8.7730 O   0  0  0  0  0  0  0  0  0  0  0  0
  2  1  1  0
  3  4  1  0
  3  2  1  0
  5  6  1  1
  5  4  1  0
  7  5  1  0
  8  7  2  0
  9 10  1  0
 10 11  2  0
 10 20  1  0
 11 12  1  0
 12 13  2  0
 13 14  1  0
 15 14  1  6
 15 16  1  0
 16  7  1  0
 17 15  1  0
 17 21  1  0
 18 17  2  0
 19 13  1  0
 20 19  2  0
 21 22  1  0
 23 22  1  0
 24 23  1  0
 25 21  1  0
 25 24  1  0
 25 26  1  1
 26 27  1  0
 28 26  2  0
M  END
$$$$
