MYP.pdb
     RDKit          3D

 28 29  0  0  1  0  0  0  0  0999 V2000
   27.0174  -36.9188  -16.7233 C   0  0  0  0  0  0  0  0  0  0  0  0
   26.4804  -37.6003  -15.1532 S   0  0  0  0  0  0  0  0  0  0  0  0
   25.0292  -36.6652  -14.5220 C   0  0  0  0  0  0  0  0  0  0  0  0
   25.5321  -35.3106  -14.1517 C   0  0  0  0  0  0  0  0  0  0  0  0
   24.5281  -34.3870  -13.5462 C   0  0  2  0  0  0  0  0  0  0  0  0
   24.3131  -33.3047  -14.5070 N   0  0  0  0  0  0  0  0  0  0  0  0
   24.9627  -33.7791  -12.2704 C   0  0  0  0  0  0  0  0  0  0  0  0
   25.7234  -32.7474  -12.3232 O   0  0  0  0  0  0  0  0  0  0  0  0
   21.3184  -28.5824  -11.1250 O   0  0  0  0  0  0  0  0  0  0  0  0
   21.8991  -29.7495  -10.6026 C   0  0  0  0  0  0  0  0  0  0  0  0
   22.9998  -29.6804   -9.7667 C   0  0  0  0  0  0  0  0  0  0  0  0
   23.5800  -30.8330   -9.2456 C   0  0  0  0  0  0  0  0  0  0  0  0
   23.0859  -32.0854   -9.5381 C   0  0  0  0  0  0  0  0  0  0  0  0
   23.6865  -33.3247   -8.9961 C   0  0  0  0  0  0  0  0  0  0  0  0
   24.9508  -33.7127   -9.7532 C   0  0  2  0  0  0  0  0  0  0  0  0
   24.5530  -34.3178  -11.0351 N   0  0  0  0  0  0  0  0  0  0  0  0
   25.6283  -34.7613   -8.9548 C   0  0  0  0  0  0  0  0  0  0  0  0
   25.3918  -35.9829   -9.2575 O   0  0  0  0  0  0  0  0  0  0  0  0
   21.9902  -32.1250  -10.3721 C   0  0  0  0  0  0  0  0  0  0  0  0
   21.4056  -30.9973  -10.8948 C   0  0  0  0  0  0  0  0  0  0  0  0
   26.5215  -34.5334   -7.8817 N   0  0  0  0  0  0  0  0  0  0  0  0
   26.7973  -33.1918   -7.3349 C   0  0  0  0  0  0  0  0  0  0  0  0
   28.2974  -33.2362   -7.1808 C   0  0  0  0  0  0  0  0  0  0  0  0
   28.6565  -34.6727   -6.9107 C   0  0  0  0  0  0  0  0  0  0  0  0
   27.3192  -35.3986   -7.0598 C   0  0  1  0  0  0  0  0  0  0  0  0
   26.7028  -35.6264   -5.7142 C   0  0  0  0  0  0  0  0  0  0  0  0
   27.1621  -36.5895   -4.8588 O   0  0  0  0  0  0  0  0  0  0  0  0
   25.7383  -34.8965   -5.3904 O   0  0  0  0  0  0  0  0  0  0  0  0
  2  1  1  0
  3  4  1  0
  3  2  1  0
  5  6  1  6
  5  4  1  0
  7  5  1  0
  8  7  2  0
  9 10  1  0
 10 11  2  0
 10 20  1  0
 11 12  1  0
 12 13  2  0
 13 14  1  0
 15 14  1  1
 15 16  1  0
 16  7  1  0
 17 15  1  0
 17 21  1  0
 18 17  2  0
 19 13  1  0
 20 19  2  0
 21 22  1  0
 23 22  1  0
 24 23  1  0
 25 21  1  0
 25 24  1  0
 25 26  1  1
 26 27  1  0
 28 26  2  0
M  END
$$$$
