MYP.pdb
     RDKit          3D

 28 29  0  0  1  0  0  0  0  0999 V2000
   20.9788  -13.6988  -21.8877 C   0  0  0  0  0  0  0  0  0  0  0  0
   22.7280  -13.8848  -22.2394 S   0  0  0  0  0  0  0  0  0  0  0  0
   23.5674  -14.7301  -20.8396 C   0  0  0  0  0  0  0  0  0  0  0  0
   24.0181  -13.6544  -19.9096 C   0  0  0  0  0  0  0  0  0  0  0  0
   23.6354  -13.8298  -18.4778 C   0  0  2  0  0  0  0  0  0  0  0  0
   22.6661  -14.9247  -18.4284 N   0  0  0  0  0  0  0  0  0  0  0  0
   23.0019  -12.6379  -17.8742 C   0  0  0  0  0  0  0  0  0  0  0  0
   21.7217  -12.6100  -17.7977 O   0  0  0  0  0  0  0  0  0  0  0  0
   21.8617   -5.2726  -13.1065 O   0  0  0  0  0  0  0  0  0  0  0  0
   22.3824   -6.4254  -13.7163 C   0  0  0  0  0  0  0  0  0  0  0  0
   21.9733   -7.6853  -13.3158 C   0  0  0  0  0  0  0  0  0  0  0  0
   22.4853   -8.8317  -13.9159 C   0  0  0  0  0  0  0  0  0  0  0  0
   23.4164   -8.7618  -14.9290 C   0  0  0  0  0  0  0  0  0  0  0  0
   23.9751   -9.9669  -15.5815 C   0  0  0  0  0  0  0  0  0  0  0  0
   23.1721  -10.3594  -16.8158 C   0  0  2  0  0  0  0  0  0  0  0  0
   23.7822  -11.5662  -17.3980 N   0  0  0  0  0  0  0  0  0  0  0  0
   23.3262   -9.2614  -17.7990 C   0  0  0  0  0  0  0  0  0  0  0  0
   24.4348   -9.1863  -18.4355 O   0  0  0  0  0  0  0  0  0  0  0  0
   23.8058   -7.4958  -15.3078 C   0  0  0  0  0  0  0  0  0  0  0  0
   23.3105   -6.3544  -14.7261 C   0  0  0  0  0  0  0  0  0  0  0  0
   22.3511   -8.2824  -18.1024 N   0  0  0  0  0  0  0  0  0  0  0  0
   21.0769   -8.1611  -17.3696 C   0  0  0  0  0  0  0  0  0  0  0  0
   20.1012   -7.9566  -18.5020 C   0  0  0  0  0  0  0  0  0  0  0  0
   20.8581   -7.2525  -19.5959 C   0  0  0  0  0  0  0  0  0  0  0  0
   22.2889   -7.2133  -19.0583 C   0  0  1  0  0  0  0  0  0  0  0  0
   22.5698   -5.8810  -18.4353 C   0  0  0  0  0  0  0  0  0  0  0  0
   22.8137   -5.7421  -17.0969 O   0  0  0  0  0  0  0  0  0  0  0  0
   22.5749   -4.8812  -19.1893 O   0  0  0  0  0  0  0  0  0  0  0  0
  2  1  1  0
  3  4  1  0
  3  2  1  0
  5  6  1  6
  5  4  1  0
  7  5  1  0
  8  7  2  0
  9 10  1  0
 10 11  2  0
 10 20  1  0
 11 12  1  0
 12 13  2  0
 13 14  1  0
 15 14  1  1
 15 16  1  0
 16  7  1  0
 17 15  1  0
 17 21  1  0
 18 17  2  0
 19 13  1  0
 20 19  2  0
 21 22  1  0
 23 22  1  0
 24 23  1  0
 25 21  1  0
 25 24  1  0
 25 26  1  1
 26 27  1  0
 28 26  2  0
M  END
$$$$
