MYP.pdb
     RDKit          3D

 28 29  0  0  1  0  0  0  0  0999 V2000
   24.0402  -22.9016  -21.3586 C   0  0  0  0  0  0  0  0  0  0  0  0
   22.7777  -22.3238  -22.4945 S   0  0  0  0  0  0  0  0  0  0  0  0
   22.7486  -20.4861  -22.5250 C   0  0  0  0  0  0  0  0  0  0  0  0
   23.4717  -20.0350  -21.3008 C   0  0  0  0  0  0  0  0  0  0  0  0
   22.6604  -19.2645  -20.3129 C   0  0  2  0  0  0  0  0  0  0  0  0
   23.0201  -17.8556  -20.4750 N   0  0  0  0  0  0  0  0  0  0  0  0
   22.9149  -19.6369  -18.9048 C   0  0  0  0  0  0  0  0  0  0  0  0
   24.0392  -19.3003  -18.3867 O   0  0  0  0  0  0  0  0  0  0  0  0
   21.4197  -22.1579  -10.5302 O   0  0  0  0  0  0  0  0  0  0  0  0
   21.2765  -21.8248  -11.8869 C   0  0  0  0  0  0  0  0  0  0  0  0
   21.4376  -20.5194  -12.3169 C   0  0  0  0  0  0  0  0  0  0  0  0
   21.2971  -20.1824  -13.6598 C   0  0  0  0  0  0  0  0  0  0  0  0
   20.9931  -21.1292  -14.6134 C   0  0  0  0  0  0  0  0  0  0  0  0
   20.8384  -20.7944  -16.0467 C   0  0  0  0  0  0  0  0  0  0  0  0
   22.1858  -20.7272  -16.7554 C   0  0  2  0  0  0  0  0  0  0  0  0
   21.9510  -20.3400  -18.1562 N   0  0  0  0  0  0  0  0  0  0  0  0
   22.7418  -22.1008  -16.7581 C   0  0  0  0  0  0  0  0  0  0  0  0
   22.2294  -22.9466  -17.5717 O   0  0  0  0  0  0  0  0  0  0  0  0
   20.8382  -22.4201  -14.1580 C   0  0  0  0  0  0  0  0  0  0  0  0
   20.9735  -22.7694  -12.8365 C   0  0  0  0  0  0  0  0  0  0  0  0
   23.7974  -22.5655  -15.9388 N   0  0  0  0  0  0  0  0  0  0  0  0
   24.3703  -21.7711  -14.8363 C   0  0  0  0  0  0  0  0  0  0  0  0
   25.8474  -21.9978  -15.0430 C   0  0  0  0  0  0  0  0  0  0  0  0
   25.9880  -23.3659  -15.6544 C   0  0  0  0  0  0  0  0  0  0  0  0
   24.5382  -23.7938  -15.8845 C   0  0  1  0  0  0  0  0  0  0  0  0
   24.0791  -24.6821  -14.7699 C   0  0  0  0  0  0  0  0  0  0  0  0
   24.4661  -25.9905  -14.6778 O   0  0  0  0  0  0  0  0  0  0  0  0
   23.3177  -24.1826  -13.9104 O   0  0  0  0  0  0  0  0  0  0  0  0
  2  1  1  0
  3  4  1  0
  3  2  1  0
  5  6  1  1
  5  4  1  0
  7  5  1  0
  8  7  2  0
  9 10  1  0
 10 11  2  0
 10 20  1  0
 11 12  1  0
 12 13  2  0
 13 14  1  0
 15 14  1  1
 15 16  1  0
 16  7  1  0
 17 15  1  0
 17 21  1  0
 18 17  2  0
 19 13  1  0
 20 19  2  0
 21 22  1  0
 23 22  1  0
 24 23  1  0
 25 21  1  0
 25 24  1  0
 25 26  1  1
 26 27  1  0
 28 26  2  0
M  END
$$$$
