MYP.pdb
     RDKit          3D

 28 29  0  0  1  0  0  0  0  0999 V2000
   27.8838  -11.9061  -15.6165 C   0  0  0  0  0  0  0  0  0  0  0  0
   27.7417  -13.6943  -15.6065 S   0  0  0  0  0  0  0  0  0  0  0  0
   26.0967  -14.1937  -14.9559 C   0  0  0  0  0  0  0  0  0  0  0  0
   25.0959  -13.3147  -15.6273 C   0  0  0  0  0  0  0  0  0  0  0  0
   23.6651  -13.5980  -15.3108 C   0  0  2  0  0  0  0  0  0  0  0  0
   23.3583  -14.9135  -15.8731 N   0  0  0  0  0  0  0  0  0  0  0  0
   22.7162  -12.6250  -15.8932 C   0  0  0  0  0  0  0  0  0  0  0  0
   22.4317  -12.7334  -17.1394 O   0  0  0  0  0  0  0  0  0  0  0  0
   16.8206  -15.0532  -17.1565 O   0  0  0  0  0  0  0  0  0  0  0  0
   17.5711  -13.9941  -16.6206 C   0  0  0  0  0  0  0  0  0  0  0  0
   18.3611  -14.1814  -15.4999 C   0  0  0  0  0  0  0  0  0  0  0  0
   19.1073  -13.1362  -14.9638 C   0  0  0  0  0  0  0  0  0  0  0  0
   19.0915  -11.8771  -15.5229 C   0  0  0  0  0  0  0  0  0  0  0  0
   19.8762  -10.7506  -14.9701 C   0  0  0  0  0  0  0  0  0  0  0  0
   21.2233  -10.6098  -15.6684 C   0  0  2  0  0  0  0  0  0  0  0  0
   22.1429  -11.6104  -15.1022 N   0  0  0  0  0  0  0  0  0  0  0  0
   21.7520   -9.2695  -15.3217 C   0  0  0  0  0  0  0  0  0  0  0  0
   22.5040   -9.1774  -14.2893 O   0  0  0  0  0  0  0  0  0  0  0  0
   18.2970  -11.7188  -16.6372 C   0  0  0  0  0  0  0  0  0  0  0  0
   17.5546  -12.7395  -17.1789 C   0  0  0  0  0  0  0  0  0  0  0  0
   21.5014   -8.0737  -16.0348 N   0  0  0  0  0  0  0  0  0  0  0  0
   20.5056   -7.9761  -17.1182 C   0  0  0  0  0  0  0  0  0  0  0  0
   21.2668   -7.1819  -18.1508 C   0  0  0  0  0  0  0  0  0  0  0  0
   22.2158   -6.2938  -17.3920 C   0  0  0  0  0  0  0  0  0  0  0  0
   22.0249   -6.7403  -15.9422 C   0  0  1  0  0  0  0  0  0  0  0  0
   21.0859   -5.8122  -15.2357 C   0  0  0  0  0  0  0  0  0  0  0  0
   21.4877   -4.5930  -14.7642 O   0  0  0  0  0  0  0  0  0  0  0  0
   19.9020   -6.1922  -15.0872 O   0  0  0  0  0  0  0  0  0  0  0  0
  2  1  1  0
  3  4  1  0
  3  2  1  0
  5  6  1  6
  5  4  1  0
  7  5  1  0
  8  7  2  0
  9 10  1  0
 10 11  2  0
 10 20  1  0
 11 12  1  0
 12 13  2  0
 13 14  1  0
 15 14  1  1
 15 16  1  0
 16  7  1  0
 17 15  1  0
 17 21  1  0
 18 17  2  0
 19 13  1  0
 20 19  2  0
 21 22  1  0
 23 22  1  0
 24 23  1  0
 25 21  1  0
 25 24  1  0
 25 26  1  6
 26 27  1  0
 28 26  2  0
M  END
$$$$
