MYP.pdb
     RDKit          3D

 28 29  0  0  1  0  0  0  0  0999 V2000
   21.8273  -13.3333  -17.7215 C   0  0  0  0  0  0  0  0  0  0  0  0
   22.6201  -14.9213  -17.4611 S   0  0  0  0  0  0  0  0  0  0  0  0
   23.6696  -15.3482  -18.9085 C   0  0  0  0  0  0  0  0  0  0  0  0
   24.2611  -16.6864  -18.6174 C   0  0  0  0  0  0  0  0  0  0  0  0
   25.6916  -16.6866  -18.1917 C   0  0  2  0  0  0  0  0  0  0  0  0
   26.4958  -16.8306  -19.4055 N   0  0  0  0  0  0  0  0  0  0  0  0
   26.0474  -17.7947  -17.2797 C   0  0  0  0  0  0  0  0  0  0  0  0
   26.1785  -18.9684  -17.7806 O   0  0  0  0  0  0  0  0  0  0  0  0
   26.4556  -22.0277   -9.4443 O   0  0  0  0  0  0  0  0  0  0  0  0
   26.5230  -21.0631  -10.4627 C   0  0  0  0  0  0  0  0  0  0  0  0
   27.5800  -21.0484  -11.3559 C   0  0  0  0  0  0  0  0  0  0  0  0
   27.6530  -20.0955  -12.3674 C   0  0  0  0  0  0  0  0  0  0  0  0
   26.6812  -19.1311  -12.5219 C   0  0  0  0  0  0  0  0  0  0  0  0
   26.7379  -18.1076  -13.5895 C   0  0  0  0  0  0  0  0  0  0  0  0
   26.2897  -18.6725  -14.9320 C   0  0  2  0  0  0  0  0  0  0  0  0
   26.2364  -17.5667  -15.9026 N   0  0  0  0  0  0  0  0  0  0  0  0
   24.9075  -19.1749  -14.7500 C   0  0  0  0  0  0  0  0  0  0  0  0
   23.9596  -18.3140  -14.7426 O   0  0  0  0  0  0  0  0  0  0  0  0
   25.6410  -19.1690  -11.6195 C   0  0  0  0  0  0  0  0  0  0  0  0
   25.5538  -20.1024  -10.6158 C   0  0  0  0  0  0  0  0  0  0  0  0
   24.5371  -20.5302  -14.5849 N   0  0  0  0  0  0  0  0  0  0  0  0
   25.5051  -21.5962  -14.2663 C   0  0  0  0  0  0  0  0  0  0  0  0
   25.0596  -22.6918  -15.2030 C   0  0  0  0  0  0  0  0  0  0  0  0
   23.5762  -22.5179  -15.3886 C   0  0  0  0  0  0  0  0  0  0  0  0
   23.2810  -21.2234  -14.6304 C   0  0  1  0  0  0  0  0  0  0  0  0
   22.7570  -21.5344  -13.2626 C   0  0  0  0  0  0  0  0  0  0  0  0
   23.5650  -21.5396  -12.1593 O   0  0  0  0  0  0  0  0  0  0  0  0
   21.5365  -21.7938  -13.1576 O   0  0  0  0  0  0  0  0  0  0  0  0
  2  1  1  0
  3  4  1  0
  3  2  1  0
  5  6  1  6
  5  4  1  0
  7  5  1  0
  8  7  2  0
  9 10  1  0
 10 11  2  0
 10 20  1  0
 11 12  1  0
 12 13  2  0
 13 14  1  0
 15 14  1  1
 15 16  1  0
 16  7  1  0
 17 15  1  0
 17 21  1  0
 18 17  2  0
 19 13  1  0
 20 19  2  0
 21 22  1  0
 23 22  1  0
 24 23  1  0
 25 21  1  0
 25 24  1  0
 25 26  1  1
 26 27  1  0
 28 26  2  0
M  END
$$$$
