MYP.pdb
     RDKit          3D

 28 29  0  0  1  0  0  0  0  0999 V2000
   21.4581  -21.8850  -18.3025 C   0  0  0  0  0  0  0  0  0  0  0  0
   19.8061  -21.1858  -18.2839 S   0  0  0  0  0  0  0  0  0  0  0  0
   19.7623  -19.6974  -17.2061 C   0  0  0  0  0  0  0  0  0  0  0  0
   21.1608  -19.4796  -16.7349 C   0  0  0  0  0  0  0  0  0  0  0  0
   21.3992  -19.7055  -15.2790 C   0  0  2  0  0  0  0  0  0  0  0  0
   20.5507  -18.7567  -14.5575 N   0  0  0  0  0  0  0  0  0  0  0  0
   22.7969  -19.4744  -14.8556 C   0  0  0  0  0  0  0  0  0  0  0  0
   23.1737  -18.2644  -14.6568 O   0  0  0  0  0  0  0  0  0  0  0  0
   23.6895  -20.5573   -8.0868 O   0  0  0  0  0  0  0  0  0  0  0  0
   24.1454  -20.7787   -9.3966 C   0  0  0  0  0  0  0  0  0  0  0  0
   25.4763  -20.5895   -9.7251 C   0  0  0  0  0  0  0  0  0  0  0  0
   25.9346  -20.8071  -11.0209 C   0  0  0  0  0  0  0  0  0  0  0  0
   25.0874  -21.2179  -12.0267 C   0  0  0  0  0  0  0  0  0  0  0  0
   25.5519  -21.4550  -13.4118 C   0  0  0  0  0  0  0  0  0  0  0  0
   25.1069  -20.3405  -14.3510 C   0  0  2  0  0  0  0  0  0  0  0  0
   23.6866  -20.5516  -14.6764 N   0  0  0  0  0  0  0  0  0  0  0  0
   25.8811  -20.4968  -15.6048 C   0  0  0  0  0  0  0  0  0  0  0  0
   25.3587  -21.1970  -16.5412 O   0  0  0  0  0  0  0  0  0  0  0  0
   23.7685  -21.3983  -11.6721 C   0  0  0  0  0  0  0  0  0  0  0  0
   23.2999  -21.1881  -10.3983 C   0  0  0  0  0  0  0  0  0  0  0  0
   27.1538  -19.9363  -15.8643 N   0  0  0  0  0  0  0  0  0  0  0  0
   28.0308  -19.4052  -14.8042 C   0  0  0  0  0  0  0  0  0  0  0  0
   28.5117  -18.1205  -15.4323 C   0  0  0  0  0  0  0  0  0  0  0  0
   28.5342  -18.3543  -16.9189 C   0  0  0  0  0  0  0  0  0  0  0  0
   27.9259  -19.7500  -17.0599 C   0  0  1  0  0  0  0  0  0  0  0  0
   29.0098  -20.7738  -17.1982 C   0  0  0  0  0  0  0  0  0  0  0  0
   29.7192  -20.9282  -18.3571 O   0  0  0  0  0  0  0  0  0  0  0  0
   29.2511  -21.4963  -16.2044 O   0  0  0  0  0  0  0  0  0  0  0  0
  2  1  1  0
  3  4  1  0
  3  2  1  0
  5  6  1  1
  5  4  1  0
  7  5  1  0
  8  7  2  0
  9 10  1  0
 10 11  2  0
 10 20  1  0
 11 12  1  0
 12 13  2  0
 13 14  1  0
 15 14  1  1
 15 16  1  0
 16  7  1  0
 17 15  1  0
 17 21  1  0
 18 17  2  0
 19 13  1  0
 20 19  2  0
 21 22  1  0
 23 22  1  0
 24 23  1  0
 25 21  1  0
 25 24  1  0
 25 26  1  1
 26 27  1  0
 28 26  2  0
M  END
$$$$
