MYP.pdb
     RDKit          3D

 28 29  0  0  1  0  0  0  0  0999 V2000
   28.8512  -14.1108  -15.3158 C   0  0  0  0  0  0  0  0  0  0  0  0
   27.6461  -12.9465  -15.9561 S   0  0  0  0  0  0  0  0  0  0  0  0
   25.9611  -13.3988  -15.3771 C   0  0  0  0  0  0  0  0  0  0  0  0
   25.0582  -12.2931  -15.8101 C   0  0  0  0  0  0  0  0  0  0  0  0
   23.6035  -12.5013  -15.5491 C   0  0  2  0  0  0  0  0  0  0  0  0
   23.1743  -13.6120  -16.3994 N   0  0  0  0  0  0  0  0  0  0  0  0
   22.7606  -11.3310  -15.8747 C   0  0  0  0  0  0  0  0  0  0  0  0
   22.3704  -11.1888  -17.0885 O   0  0  0  0  0  0  0  0  0  0  0  0
   16.9523  -13.6501  -16.6460 O   0  0  0  0  0  0  0  0  0  0  0  0
   17.7477  -12.6420  -16.0774 C   0  0  0  0  0  0  0  0  0  0  0  0
   18.5906  -12.9189  -15.0154 C   0  0  0  0  0  0  0  0  0  0  0  0
   19.3814  -11.9246  -14.4473 C   0  0  0  0  0  0  0  0  0  0  0  0
   19.3589  -10.6291  -14.9155 C   0  0  0  0  0  0  0  0  0  0  0  0
   20.1904   -9.5554  -14.3271 C   0  0  0  0  0  0  0  0  0  0  0  0
   21.4495   -9.3073  -15.1490 C   0  0  2  0  0  0  0  0  0  0  0  0
   22.3979  -10.4010  -14.8808 N   0  0  0  0  0  0  0  0  0  0  0  0
   22.0569   -8.0543  -14.6420 C   0  0  0  0  0  0  0  0  0  0  0  0
   22.8864   -8.1477  -13.6709 O   0  0  0  0  0  0  0  0  0  0  0  0
   18.5113  -10.3814  -15.9728 C   0  0  0  0  0  0  0  0  0  0  0  0
   17.7244  -11.3510  -16.5449 C   0  0  0  0  0  0  0  0  0  0  0  0
   21.8034   -6.7543  -15.1391 N   0  0  0  0  0  0  0  0  0  0  0  0
   20.7969   -6.4723  -16.1795 C   0  0  0  0  0  0  0  0  0  0  0  0
   21.5504   -5.5158  -17.0703 C   0  0  0  0  0  0  0  0  0  0  0  0
   22.5103   -4.7711  -16.1819 C   0  0  0  0  0  0  0  0  0  0  0  0
   22.3325   -5.4569  -14.8270 C   0  0  1  0  0  0  0  0  0  0  0  0
   21.4042   -4.6605  -13.9633 C   0  0  0  0  0  0  0  0  0  0  0  0
   21.8312   -3.5806  -13.2411 O   0  0  0  0  0  0  0  0  0  0  0  0
   20.2051   -5.0189  -13.9215 O   0  0  0  0  0  0  0  0  0  0  0  0
  2  1  1  0
  3  4  1  0
  3  2  1  0
  5  6  1  6
  5  4  1  0
  7  5  1  0
  8  7  2  0
  9 10  1  0
 10 11  2  0
 10 20  1  0
 11 12  1  0
 12 13  2  0
 13 14  1  0
 15 14  1  1
 15 16  1  0
 16  7  1  0
 17 15  1  0
 17 21  1  0
 18 17  2  0
 19 13  1  0
 20 19  2  0
 21 22  1  0
 23 22  1  0
 24 23  1  0
 25 21  1  0
 25 24  1  0
 25 26  1  1
 26 27  1  0
 28 26  2  0
M  END
$$$$
