MYP.pdb
     RDKit          3D

 28 29  0  0  1  0  0  0  0  0999 V2000
   22.0123   -8.1840  -23.4874 C   0  0  0  0  0  0  0  0  0  0  0  0
   23.0734   -9.6243  -23.3547 S   0  0  0  0  0  0  0  0  0  0  0  0
   22.3955  -10.7959  -22.1110 C   0  0  0  0  0  0  0  0  0  0  0  0
   21.8452   -9.9605  -21.0044 C   0  0  0  0  0  0  0  0  0  0  0  0
   22.0997  -10.4623  -19.6221 C   0  0  2  0  0  0  0  0  0  0  0  0
   21.8204  -11.8986  -19.6336 N   0  0  0  0  0  0  0  0  0  0  0  0
   21.2409   -9.8432  -18.5899 C   0  0  0  0  0  0  0  0  0  0  0  0
   19.9690   -9.9250  -18.7364 O   0  0  0  0  0  0  0  0  0  0  0  0
   17.2917  -13.7771  -15.8537 O   0  0  0  0  0  0  0  0  0  0  0  0
   18.1887  -12.7078  -15.6979 C   0  0  0  0  0  0  0  0  0  0  0  0
   19.5365  -12.8685  -15.9673 C   0  0  0  0  0  0  0  0  0  0  0  0
   20.4307  -11.8131  -15.8149 C   0  0  0  0  0  0  0  0  0  0  0  0
   20.0145  -10.5699  -15.3916 C   0  0  0  0  0  0  0  0  0  0  0  0
   20.9469   -9.4332  -15.2219 C   0  0  0  0  0  0  0  0  0  0  0  0
   20.9687   -8.5371  -16.4543 C   0  0  2  0  0  0  0  0  0  0  0  0
   21.8039   -9.1839  -17.4798 N   0  0  0  0  0  0  0  0  0  0  0  0
   21.6403   -7.2762  -16.0604 C   0  0  0  0  0  0  0  0  0  0  0  0
   22.9177   -7.2346  -16.1399 O   0  0  0  0  0  0  0  0  0  0  0  0
   18.6683  -10.4379  -15.1306 C   0  0  0  0  0  0  0  0  0  0  0  0
   17.7726  -11.4690  -15.2758 C   0  0  0  0  0  0  0  0  0  0  0  0
   20.9930   -6.1044  -15.6032 N   0  0  0  0  0  0  0  0  0  0  0  0
   19.5331   -6.0124  -15.4148 C   0  0  0  0  0  0  0  0  0  0  0  0
   19.2398   -4.6621  -16.0206 C   0  0  0  0  0  0  0  0  0  0  0  0
   20.4711   -3.8228  -15.8094 C   0  0  0  0  0  0  0  0  0  0  0  0
   21.4637   -4.8109  -15.1959 C   0  0  1  0  0  0  0  0  0  0  0  0
   21.4871   -4.6611  -13.7062 C   0  0  0  0  0  0  0  0  0  0  0  0
   22.1058   -3.6076  -13.0920 O   0  0  0  0  0  0  0  0  0  0  0  0
   20.9136   -5.5442  -13.0285 O   0  0  0  0  0  0  0  0  0  0  0  0
  2  1  1  0
  3  4  1  0
  3  2  1  0
  5  6  1  6
  5  4  1  0
  7  5  1  0
  8  7  2  0
  9 10  1  0
 10 11  2  0
 10 20  1  0
 11 12  1  0
 12 13  2  0
 13 14  1  0
 15 14  1  1
 15 16  1  0
 16  7  1  0
 17 15  1  0
 17 21  1  0
 18 17  2  0
 19 13  1  0
 20 19  2  0
 21 22  1  0
 23 22  1  0
 24 23  1  0
 25 21  1  0
 25 24  1  0
 25 26  1  1
 26 27  1  0
 28 26  2  0
M  END
$$$$
