MYP.pdb
     RDKit          3D

 28 29  0  0  1  0  0  0  0  0999 V2000
   20.4141  -22.7703  -17.8463 C   0  0  0  0  0  0  0  0  0  0  0  0
   18.8274  -21.9385  -17.9393 S   0  0  0  0  0  0  0  0  0  0  0  0
   19.0726  -20.1193  -18.0364 C   0  0  0  0  0  0  0  0  0  0  0  0
   20.3266  -19.8246  -17.2842 C   0  0  0  0  0  0  0  0  0  0  0  0
   20.1469  -19.3479  -15.8814 C   0  0  2  0  0  0  0  0  0  0  0  0
   19.5261  -18.0253  -15.9585 N   0  0  0  0  0  0  0  0  0  0  0  0
   21.4107  -19.2106  -15.1263 C   0  0  0  0  0  0  0  0  0  0  0  0
   22.0894  -18.1327  -15.2790 O   0  0  0  0  0  0  0  0  0  0  0  0
   27.7260  -20.5431   -9.0624 O   0  0  0  0  0  0  0  0  0  0  0  0
   26.5891  -20.6795   -9.8754 C   0  0  0  0  0  0  0  0  0  0  0  0
   26.6571  -21.3551  -11.0811 C   0  0  0  0  0  0  0  0  0  0  0  0
   25.5343  -21.4939  -11.8915 C   0  0  0  0  0  0  0  0  0  0  0  0
   24.3136  -20.9674  -11.5298 C   0  0  0  0  0  0  0  0  0  0  0  0
   23.1064  -21.1021  -12.3753 C   0  0  0  0  0  0  0  0  0  0  0  0
   23.1491  -20.1552  -13.5686 C   0  0  2  0  0  0  0  0  0  0  0  0
   21.8548  -20.2335  -14.2657 N   0  0  0  0  0  0  0  0  0  0  0  0
   24.1867  -20.6705  -14.4926 C   0  0  0  0  0  0  0  0  0  0  0  0
   23.8690  -21.6491  -15.2550 O   0  0  0  0  0  0  0  0  0  0  0  0
   24.2744  -20.3001  -10.3252 C   0  0  0  0  0  0  0  0  0  0  0  0
   25.3729  -20.1542   -9.5137 C   0  0  0  0  0  0  0  0  0  0  0  0
   25.5061  -20.1740  -14.6115 N   0  0  0  0  0  0  0  0  0  0  0  0
   26.1853  -19.4276  -13.5361 C   0  0  0  0  0  0  0  0  0  0  0  0
   26.8258  -18.3040  -14.3129 C   0  0  0  0  0  0  0  0  0  0  0  0
   27.1214  -18.8477  -15.6849 C   0  0  0  0  0  0  0  0  0  0  0  0
   26.4979  -20.2433  -15.6468 C   0  0  1  0  0  0  0  0  0  0  0  0
   27.5483  -21.2700  -15.3556 C   0  0  0  0  0  0  0  0  0  0  0  0
   28.4214  -21.7074  -16.3130 O   0  0  0  0  0  0  0  0  0  0  0  0
   27.6042  -21.7236  -14.1898 O   0  0  0  0  0  0  0  0  0  0  0  0
  2  1  1  0
  3  4  1  0
  3  2  1  0
  5  6  1  6
  5  4  1  0
  7  5  1  0
  8  7  2  0
  9 10  1  0
 10 11  2  0
 10 20  1  0
 11 12  1  0
 12 13  2  0
 13 14  1  0
 15 14  1  1
 15 16  1  0
 16  7  1  0
 17 15  1  0
 17 21  1  0
 18 17  2  0
 19 13  1  0
 20 19  2  0
 21 22  1  0
 23 22  1  0
 24 23  1  0
 25 21  1  0
 25 24  1  0
 25 26  1  1
 26 27  1  0
 28 26  2  0
M  END
$$$$
