MYP.pdb
     RDKit          3D

 28 29  0  0  1  0  0  0  0  0999 V2000
   27.0230  -17.6668  -17.5478 C   0  0  0  0  0  0  0  0  0  0  0  0
   28.7790  -17.3345  -17.7025 S   0  0  0  0  0  0  0  0  0  0  0  0
   29.7272  -18.3924  -16.5361 C   0  0  0  0  0  0  0  0  0  0  0  0
   28.7269  -19.2598  -15.8490 C   0  0  0  0  0  0  0  0  0  0  0  0
   29.2568  -20.1180  -14.7488 C   0  0  2  0  0  0  0  0  0  0  0  0
   30.0685  -21.1607  -15.3770 N   0  0  0  0  0  0  0  0  0  0  0  0
   28.2079  -20.7835  -13.9469 C   0  0  0  0  0  0  0  0  0  0  0  0
   27.8692  -21.9777  -14.2707 O   0  0  0  0  0  0  0  0  0  0  0  0
   21.2727  -21.3793   -8.3899 O   0  0  0  0  0  0  0  0  0  0  0  0
   22.4754  -21.0074   -9.0123 C   0  0  0  0  0  0  0  0  0  0  0  0
   23.6930  -21.4383   -8.5156 C   0  0  0  0  0  0  0  0  0  0  0  0
   24.8885  -21.0735   -9.1275 C   0  0  0  0  0  0  0  0  0  0  0  0
   24.9106  -20.2721  -10.2480 C   0  0  0  0  0  0  0  0  0  0  0  0
   26.1692  -19.8711  -10.9153 C   0  0  0  0  0  0  0  0  0  0  0  0
   26.4039  -20.6661  -12.1940 C   0  0  2  0  0  0  0  0  0  0  0  0
   27.5998  -20.1247  -12.8605 N   0  0  0  0  0  0  0  0  0  0  0  0
   25.2440  -20.4114  -13.0805 C   0  0  0  0  0  0  0  0  0  0  0  0
   25.0825  -19.2189  -13.5183 O   0  0  0  0  0  0  0  0  0  0  0  0
   23.6849  -19.8578  -10.7210 C   0  0  0  0  0  0  0  0  0  0  0  0
   22.4961  -20.2086  -10.1291 C   0  0  0  0  0  0  0  0  0  0  0  0
   24.2927  -21.3743  -13.4921 N   0  0  0  0  0  0  0  0  0  0  0  0
   24.1872  -22.7132  -12.8829 C   0  0  0  0  0  0  0  0  0  0  0  0
   24.0249  -23.5836  -14.1045 C   0  0  0  0  0  0  0  0  0  0  0  0
   23.3235  -22.7432  -15.1374 C   0  0  0  0  0  0  0  0  0  0  0  0
   23.2425  -21.3697  -14.4705 C   0  0  1  0  0  0  0  0  0  0  0  0
   21.8933  -21.1756  -13.8507 C   0  0  0  0  0  0  0  0  0  0  0  0
   20.8154  -20.7490  -14.5762 O   0  0  0  0  0  0  0  0  0  0  0  0
   21.7797  -21.4198  -12.6278 O   0  0  0  0  0  0  0  0  0  0  0  0
  2  1  1  0
  3  4  1  0
  3  2  1  0
  5  6  1  6
  5  4  1  0
  7  5  1  0
  8  7  2  0
  9 10  1  0
 10 11  2  0
 10 20  1  0
 11 12  1  0
 12 13  2  0
 13 14  1  0
 15 14  1  1
 15 16  1  0
 16  7  1  0
 17 15  1  0
 17 21  1  0
 18 17  2  0
 19 13  1  0
 20 19  2  0
 21 22  1  0
 23 22  1  0
 24 23  1  0
 25 21  1  0
 25 24  1  0
 25 26  1  1
 26 27  1  0
 28 26  2  0
M  END
$$$$
