EWV.pdb
     RDKit          3D

 31 32  0  0  1  0  0  0  0  0999 V2000
   10.3677  -19.1143   21.1426 N   0  0  0  0  0  0  0  0  0  0  0  0
   11.2601  -17.9835   21.2346 C   0  0  1  0  0  0  0  0  0  0  0  0
   11.2073  -17.2625   19.9183 C   0  0  0  0  0  0  0  0  0  0  0  0
   12.4497  -17.4560   19.0710 C   0  0  0  0  0  0  0  0  0  0  0  0
   12.3124  -16.7227   17.7787 C   0  0  0  0  0  0  0  0  0  0  0  0
   11.5031  -17.1638   16.9172 O   0  0  0  0  0  0  0  0  0  0  0  0
   10.9087  -17.1719   22.4014 C   0  0  0  0  0  0  0  0  0  0  0  0
   11.5259  -16.0967   22.7173 O   0  0  0  0  0  0  0  0  0  0  0  0
   13.0353  -15.5762   17.4726 O   0  0  0  0  0  0  0  0  0  0  0  0
    9.8336  -17.5452   23.2673 N   0  0  0  0  0  0  0  0  0  0  0  0
    9.4602  -16.7880   24.4483 C   0  0  1  0  0  0  0  0  0  0  0  0
    7.9522  -16.8363   24.6322 C   0  0  0  0  0  0  0  0  0  0  0  0
    7.2581  -15.5933   24.2904 C   0  0  0  0  0  0  0  0  0  0  0  0
    6.4647  -15.4193   23.1625 C   0  0  0  0  0  0  0  0  0  0  0  0
    5.9576  -14.1652   23.1506 N   0  0  0  0  0  0  0  0  0  0  0  0
    6.4049  -13.5260   24.2435 C   0  0  0  0  0  0  0  0  0  0  0  0
    6.1846  -12.2310   24.6860 C   0  0  0  0  0  0  0  0  0  0  0  0
    6.7599  -11.7778   25.8432 C   0  0  0  0  0  0  0  0  0  0  0  0
    7.5707  -12.6336   26.5739 C   0  0  0  0  0  0  0  0  0  0  0  0
    7.7784  -13.9095   26.1238 C   0  0  0  0  0  0  0  0  0  0  0  0
    7.2080  -14.4046   24.9492 C   0  0  0  0  0  0  0  0  0  0  0  0
   10.2498  -17.0390   25.6385 C   0  0  0  0  0  0  0  0  0  0  0  0
   10.9939  -18.0330   25.8533 O   0  0  0  0  0  0  0  0  0  0  0  0
   11.1271  -14.8741   30.1045 C   0  0  0  0  0  0  0  0  0  0  0  0
   10.6058  -14.8892   28.7059 C   0  0  1  0  0  0  0  0  0  0  0  0
   11.1304  -13.6695   28.0081 C   0  0  0  0  0  0  0  0  0  0  0  0
   10.8937  -16.1828   27.9474 C   0  0  2  0  0  0  0  0  0  0  0  0
   10.1890  -16.0562   26.6836 N   0  0  0  0  0  0  0  0  0  0  0  0
   10.3834  -17.2749   28.7627 C   0  0  0  0  0  0  0  0  0  0  0  0
    9.1831  -17.6080   28.7028 O   0  0  0  0  0  0  0  0  0  0  0  0
   11.2186  -17.9649   29.6198 O   0  0  0  0  0  0  0  0  0  0  0  0
  2  1  1  6
  3  2  1  0
  3  4  1  0
  4  5  1  0
  5  9  1  0
  6  5  2  0
  7  8  2  0
  7  2  1  0
 10  7  1  0
 11 10  1  0
 11 12  1  1
 12 13  1  0
 13 21  1  0
 13 14  2  0
 14 15  1  0
 16 15  1  0
 16 17  2  0
 18 17  1  0
 19 18  2  0
 20 21  2  0
 20 19  1  0
 21 16  1  0
 22 28  1  0
 22 11  1  0
 23 22  2  0
 25 27  1  0
 25 24  1  1
 26 25  1  0
 27 29  1  0
 27 28  1  6
 29 31  1  0
 30 29  2  0
M  END
$$$$
