EWV.pdb
     RDKit          3D

 31 32  0  0  1  0  0  0  0  0999 V2000
    9.9534  -18.3240   20.4772 N   0  0  0  0  0  0  0  0  0  0  0  0
   11.0452  -17.4858   20.9123 C   0  0  1  0  0  0  0  0  0  0  0  0
   11.5083  -16.6985   19.7203 C   0  0  0  0  0  0  0  0  0  0  0  0
   11.7343  -17.5469   18.4841 C   0  0  0  0  0  0  0  0  0  0  0  0
   12.1728  -16.6905   17.3435 C   0  0  0  0  0  0  0  0  0  0  0  0
   12.4149  -15.4718   17.5618 O   0  0  0  0  0  0  0  0  0  0  0  0
   10.6224  -16.6823   22.0608 C   0  0  0  0  0  0  0  0  0  0  0  0
   11.2929  -15.6864   22.5027 O   0  0  0  0  0  0  0  0  0  0  0  0
   12.3259  -17.1675   16.0474 O   0  0  0  0  0  0  0  0  0  0  0  0
    9.4115  -16.9736   22.7636 N   0  0  0  0  0  0  0  0  0  0  0  0
    9.0459  -16.3431   24.0191 C   0  0  1  0  0  0  0  0  0  0  0  0
    7.6193  -16.7187   24.3847 C   0  0  0  0  0  0  0  0  0  0  0  0
    6.8108  -15.6101   24.8958 C   0  0  0  0  0  0  0  0  0  0  0  0
    5.5089  -15.7366   25.3657 C   0  0  0  0  0  0  0  0  0  0  0  0
    5.0542  -14.5314   25.7792 N   0  0  0  0  0  0  0  0  0  0  0  0
    6.0312  -13.6306   25.5871 C   0  0  0  0  0  0  0  0  0  0  0  0
    6.0649  -12.2676   25.8364 C   0  0  0  0  0  0  0  0  0  0  0  0
    7.1815  -11.5291   25.5479 C   0  0  0  0  0  0  0  0  0  0  0  0
    8.2868  -12.1630   25.0003 C   0  0  0  0  0  0  0  0  0  0  0  0
    8.2381  -13.5097   24.7600 C   0  0  0  0  0  0  0  0  0  0  0  0
    7.1169  -14.2931   25.0419 C   0  0  0  0  0  0  0  0  0  0  0  0
   10.0200  -16.4472   25.0884 C   0  0  0  0  0  0  0  0  0  0  0  0
   11.0590  -17.1602   25.0944 O   0  0  0  0  0  0  0  0  0  0  0  0
   10.7262  -14.6424   29.7415 C   0  0  0  0  0  0  0  0  0  0  0  0
   10.0050  -14.7317   28.4376 C   0  0  1  0  0  0  0  0  0  0  0  0
    9.8281  -13.3369   27.9153 C   0  0  0  0  0  0  0  0  0  0  0  0
   10.6591  -15.6708   27.4266 C   0  0  2  0  0  0  0  0  0  0  0  0
    9.7891  -15.6552   26.2636 N   0  0  0  0  0  0  0  0  0  0  0  0
   10.7304  -16.9831   28.0514 C   0  0  0  0  0  0  0  0  0  0  0  0
    9.7856  -17.7906   27.9475 O   0  0  0  0  0  0  0  0  0  0  0  0
   11.8463  -17.3612   28.7725 O   0  0  0  0  0  0  0  0  0  0  0  0
  2  1  1  6
  3  2  1  0
  3  4  1  0
  4  5  1  0
  5  9  1  0
  6  5  2  0
  7  8  2  0
  7  2  1  0
 10  7  1  0
 11 10  1  0
 11 12  1  1
 12 13  1  0
 13 21  1  0
 13 14  2  0
 14 15  1  0
 16 15  1  0
 16 17  2  0
 18 17  1  0
 19 18  2  0
 20 21  2  0
 20 19  1  0
 21 16  1  0
 22 28  1  0
 22 11  1  0
 23 22  2  0
 25 27  1  0
 25 24  1  1
 26 25  1  0
 27 29  1  0
 27 28  1  6
 29 31  1  0
 30 29  2  0
M  END
$$$$
