EWV.pdb
     RDKit          3D

 31 32  0  0  1  0  0  0  0  0999 V2000
    9.2744  -16.3787   19.5444 N   0  0  0  0  0  0  0  0  0  0  0  0
   10.2490  -16.7553   20.5404 C   0  0  1  0  0  0  0  0  0  0  0  0
   11.6038  -16.4001   19.9987 C   0  0  0  0  0  0  0  0  0  0  0  0
   12.3325  -17.5728   19.3720 C   0  0  0  0  0  0  0  0  0  0  0  0
   13.8074  -17.3528   19.4264 C   0  0  0  0  0  0  0  0  0  0  0  0
   14.5008  -18.0923   20.1773 O   0  0  0  0  0  0  0  0  0  0  0  0
    9.9101  -16.1330   21.8216 C   0  0  0  0  0  0  0  0  0  0  0  0
    9.9562  -14.8700   22.0199 O   0  0  0  0  0  0  0  0  0  0  0  0
   14.4586  -16.3692   18.6921 O   0  0  0  0  0  0  0  0  0  0  0  0
    9.4999  -16.9206   22.9426 N   0  0  0  0  0  0  0  0  0  0  0  0
    9.2295  -16.3614   24.2548 C   0  0  1  0  0  0  0  0  0  0  0  0
    7.8365  -16.7672   24.7074 C   0  0  0  0  0  0  0  0  0  0  0  0
    6.9772  -15.6505   25.1052 C   0  0  0  0  0  0  0  0  0  0  0  0
    5.6458  -15.7776   25.4833 C   0  0  0  0  0  0  0  0  0  0  0  0
    5.1452  -14.5627   25.8054 N   0  0  0  0  0  0  0  0  0  0  0  0
    6.1214  -13.6551   25.6440 C   0  0  0  0  0  0  0  0  0  0  0  0
    6.1179  -12.2817   25.8312 C   0  0  0  0  0  0  0  0  0  0  0  0
    7.2427  -11.5383   25.5915 C   0  0  0  0  0  0  0  0  0  0  0  0
    8.3943  -12.1775   25.1570 C   0  0  0  0  0  0  0  0  0  0  0  0
    8.3819  -13.5344   24.9770 C   0  0  0  0  0  0  0  0  0  0  0  0
    7.2536  -14.3231   25.2118 C   0  0  0  0  0  0  0  0  0  0  0  0
   10.2831  -16.5154   25.2392 C   0  0  0  0  0  0  0  0  0  0  0  0
   11.2260  -17.3508   25.2092 O   0  0  0  0  0  0  0  0  0  0  0  0
   10.9495  -13.2496   27.7257 C   0  0  0  0  0  0  0  0  0  0  0  0
   10.8250  -14.5688   28.4130 C   0  0  1  0  0  0  0  0  0  0  0  0
    9.4626  -14.6337   29.0370 C   0  0  0  0  0  0  0  0  0  0  0  0
   11.1318  -15.7685   27.5196 C   0  0  2  0  0  0  0  0  0  0  0  0
   10.2622  -15.6246   26.3651 N   0  0  0  0  0  0  0  0  0  0  0  0
   10.8336  -16.9626   28.2962 C   0  0  0  0  0  0  0  0  0  0  0  0
    9.7465  -17.5579   28.1576 O   0  0  0  0  0  0  0  0  0  0  0  0
   11.7489  -17.4610   29.2028 O   0  0  0  0  0  0  0  0  0  0  0  0
  2  1  1  6
  3  2  1  0
  3  4  1  0
  4  5  1  0
  5  9  1  0
  6  5  2  0
  7  8  2  0
  7  2  1  0
 10  7  1  0
 11 10  1  0
 11 12  1  1
 12 13  1  0
 13 21  1  0
 13 14  2  0
 14 15  1  0
 16 15  1  0
 16 17  2  0
 18 17  1  0
 19 18  2  0
 20 21  2  0
 20 19  1  0
 21 16  1  0
 22 28  1  0
 22 11  1  0
 23 22  2  0
 25 27  1  0
 25 24  1  6
 26 25  1  0
 27 29  1  0
 27 28  1  6
 29 31  1  0
 30 29  2  0
M  END
$$$$
