EWV.pdb
     RDKit          3D

 31 32  0  0  1  0  0  0  0  0999 V2000
   10.9623  -16.9876   19.4639 N   0  0  0  0  0  0  0  0  0  0  0  0
   11.5060  -17.3869   20.7401 C   0  0  1  0  0  0  0  0  0  0  0  0
   13.0021  -17.3164   20.6319 C   0  0  0  0  0  0  0  0  0  0  0  0
   13.5408  -17.8523   19.3198 C   0  0  0  0  0  0  0  0  0  0  0  0
   14.9870  -18.1934   19.4564 C   0  0  0  0  0  0  0  0  0  0  0  0
   15.8447  -17.3529   19.0695 O   0  0  0  0  0  0  0  0  0  0  0  0
   10.9212  -16.5674   21.8032 C   0  0  0  0  0  0  0  0  0  0  0  0
   11.4421  -15.4714   22.2084 O   0  0  0  0  0  0  0  0  0  0  0  0
   15.4396  -19.3952   19.9869 O   0  0  0  0  0  0  0  0  0  0  0  0
    9.7108  -16.9563   22.4579 N   0  0  0  0  0  0  0  0  0  0  0  0
    9.1463  -16.2365   23.5852 C   0  0  1  0  0  0  0  0  0  0  0  0
    7.6343  -16.1702   23.4456 C   0  0  0  0  0  0  0  0  0  0  0  0
    6.9640  -15.3657   24.4688 C   0  0  0  0  0  0  0  0  0  0  0  0
    6.1646  -15.8853   25.4801 C   0  0  0  0  0  0  0  0  0  0  0  0
    5.7119  -14.8809   26.2652 N   0  0  0  0  0  0  0  0  0  0  0  0
    6.1998  -13.7260   25.7847 C   0  0  0  0  0  0  0  0  0  0  0  0
    6.0267  -12.4215   26.2201 C   0  0  0  0  0  0  0  0  0  0  0  0
    6.6191  -11.3775   25.5610 C   0  0  0  0  0  0  0  0  0  0  0  0
    7.4003  -11.6399   24.4455 C   0  0  0  0  0  0  0  0  0  0  0  0
    7.5619  -12.9335   24.0280 C   0  0  0  0  0  0  0  0  0  0  0  0
    6.9731  -14.0215   24.6758 C   0  0  0  0  0  0  0  0  0  0  0  0
    9.6435  -16.6164   24.8935 C   0  0  0  0  0  0  0  0  0  0  0  0
    9.8831  -17.7854   25.2982 O   0  0  0  0  0  0  0  0  0  0  0  0
    8.8101  -14.2017   28.1358 C   0  0  0  0  0  0  0  0  0  0  0  0
   10.2587  -14.4859   27.9144 C   0  0  1  0  0  0  0  0  0  0  0  0
   10.9386  -14.4689   29.2513 C   0  0  0  0  0  0  0  0  0  0  0  0
   10.5292  -15.7626   27.1217 C   0  0  2  0  0  0  0  0  0  0  0  0
    9.8982  -15.5578   25.8296 N   0  0  0  0  0  0  0  0  0  0  0  0
    9.9297  -16.8594   27.8669 C   0  0  0  0  0  0  0  0  0  0  0  0
    8.7459  -17.1956   27.6643 O   0  0  0  0  0  0  0  0  0  0  0  0
   10.6599  -17.5507   28.8141 O   0  0  0  0  0  0  0  0  0  0  0  0
  2  1  1  6
  3  2  1  0
  3  4  1  0
  4  5  1  0
  5  9  1  0
  6  5  2  0
  7  8  2  0
  7  2  1  0
 10  7  1  0
 11 10  1  0
 11 12  1  1
 12 13  1  0
 13 21  1  0
 13 14  2  0
 14 15  1  0
 16 15  1  0
 16 17  2  0
 18 17  1  0
 19 18  2  0
 20 21  2  0
 20 19  1  0
 21 16  1  0
 22 28  1  0
 22 11  1  0
 23 22  2  0
 25 27  1  0
 25 24  1  1
 26 25  1  0
 27 29  1  0
 27 28  1  6
 29 31  1  0
 30 29  2  0
M  END
$$$$
