EWV.pdb
     RDKit          3D

 31 32  0  0  1  0  0  0  0  0999 V2000
   10.6709  -18.4459   20.2860 N   0  0  0  0  0  0  0  0  0  0  0  0
   11.7026  -17.5797   20.8046 C   0  0  1  0  0  0  0  0  0  0  0  0
   12.2970  -16.8429   19.6389 C   0  0  0  0  0  0  0  0  0  0  0  0
   12.1032  -17.5505   18.3119 C   0  0  0  0  0  0  0  0  0  0  0  0
   12.8636  -16.8487   17.2368 C   0  0  0  0  0  0  0  0  0  0  0  0
   12.2825  -15.9417   16.5800 O   0  0  0  0  0  0  0  0  0  0  0  0
   11.1479  -16.7290   21.8591 C   0  0  0  0  0  0  0  0  0  0  0  0
   11.7861  -15.7468   22.3738 O   0  0  0  0  0  0  0  0  0  0  0  0
   14.1830  -17.1460   16.9183 O   0  0  0  0  0  0  0  0  0  0  0  0
    9.8353  -16.9548   22.3799 N   0  0  0  0  0  0  0  0  0  0  0  0
    9.3248  -16.2982   23.5698 C   0  0  1  0  0  0  0  0  0  0  0  0
    7.8063  -16.3618   23.5784 C   0  0  0  0  0  0  0  0  0  0  0  0
    7.1669  -15.4901   24.5658 C   0  0  0  0  0  0  0  0  0  0  0  0
    6.4482  -15.9417   25.6664 C   0  0  0  0  0  0  0  0  0  0  0  0
    6.0045  -14.8856   26.3860 N   0  0  0  0  0  0  0  0  0  0  0  0
    6.4194  -13.7637   25.7761 C   0  0  0  0  0  0  0  0  0  0  0  0
    6.2227  -12.4315   26.1043 C   0  0  0  0  0  0  0  0  0  0  0  0
    6.7357  -11.4327   25.3202 C   0  0  0  0  0  0  0  0  0  0  0  0
    7.4598  -11.7695   24.1863 C   0  0  0  0  0  0  0  0  0  0  0  0
    7.6455  -13.0897   23.8756 C   0  0  0  0  0  0  0  0  0  0  0  0
    7.1372  -14.1332   24.6521 C   0  0  0  0  0  0  0  0  0  0  0  0
    9.9785  -16.6468   24.8165 C   0  0  0  0  0  0  0  0  0  0  0  0
   10.4856  -17.7609   25.1155 O   0  0  0  0  0  0  0  0  0  0  0  0
   10.9580  -14.5517   29.2905 C   0  0  0  0  0  0  0  0  0  0  0  0
   10.4254  -14.5364   27.8962 C   0  0  1  0  0  0  0  0  0  0  0  0
   10.9354  -13.2961   27.2244 C   0  0  0  0  0  0  0  0  0  0  0  0
   10.7162  -15.8088   27.1038 C   0  0  2  0  0  0  0  0  0  0  0  0
   10.0678  -15.6214   25.8177 N   0  0  0  0  0  0  0  0  0  0  0  0
   10.1488  -16.9167   27.8576 C   0  0  0  0  0  0  0  0  0  0  0  0
    8.9373  -17.1975   27.7633 O   0  0  0  0  0  0  0  0  0  0  0  0
   10.9408  -17.6801   28.6932 O   0  0  0  0  0  0  0  0  0  0  0  0
  2  1  1  6
  3  2  1  0
  3  4  1  0
  4  5  1  0
  5  9  1  0
  6  5  2  0
  7  8  2  0
  7  2  1  0
 10  7  1  0
 11 10  1  0
 11 12  1  1
 12 13  1  0
 13 21  1  0
 13 14  2  0
 14 15  1  0
 16 15  1  0
 16 17  2  0
 18 17  1  0
 19 18  2  0
 20 21  2  0
 20 19  1  0
 21 16  1  0
 22 28  1  0
 22 11  1  0
 23 22  2  0
 25 27  1  0
 25 24  1  1
 26 25  1  0
 27 29  1  0
 27 28  1  6
 29 31  1  0
 30 29  2  0
M  END
$$$$
