EWV.pdb
     RDKit          3D

 31 32  0  0  1  0  0  0  0  0999 V2000
   11.5725  -16.3093   19.5701 N   0  0  0  0  0  0  0  0  0  0  0  0
   11.2988  -17.2284   20.6490 C   0  0  1  0  0  0  0  0  0  0  0  0
   12.5248  -18.0747   20.8387 C   0  0  0  0  0  0  0  0  0  0  0  0
   13.8139  -17.2768   20.8647 C   0  0  0  0  0  0  0  0  0  0  0  0
   14.9839  -18.1911   21.0131 C   0  0  0  0  0  0  0  0  0  0  0  0
   15.4220  -18.4276   22.1723 O   0  0  0  0  0  0  0  0  0  0  0  0
   10.8692  -16.4836   21.8340 C   0  0  0  0  0  0  0  0  0  0  0  0
   11.4146  -15.3884   22.2078 O   0  0  0  0  0  0  0  0  0  0  0  0
   15.6202  -18.7954   19.9357 O   0  0  0  0  0  0  0  0  0  0  0  0
    9.7937  -16.9501   22.6530 N   0  0  0  0  0  0  0  0  0  0  0  0
    9.3052  -16.2303   23.8152 C   0  0  1  0  0  0  0  0  0  0  0  0
    7.8026  -16.0327   23.7012 C   0  0  0  0  0  0  0  0  0  0  0  0
    7.2187  -15.1928   24.7487 C   0  0  0  0  0  0  0  0  0  0  0  0
    6.5769  -15.6794   25.8814 C   0  0  0  0  0  0  0  0  0  0  0  0
    6.1691  -14.6464   26.6539 N   0  0  0  0  0  0  0  0  0  0  0  0
    6.5321  -13.5052   26.0467 C   0  0  0  0  0  0  0  0  0  0  0  0
    6.3428  -12.1837   26.4197 C   0  0  0  0  0  0  0  0  0  0  0  0
    6.7937  -11.1602   25.6293 C   0  0  0  0  0  0  0  0  0  0  0  0
    7.4471  -11.4609   24.4435 C   0  0  0  0  0  0  0  0  0  0  0  0
    7.6265  -12.7709   24.0890 C   0  0  0  0  0  0  0  0  0  0  0  0
    7.1802  -13.8388   24.8704 C   0  0  0  0  0  0  0  0  0  0  0  0
    9.7844  -16.7011   25.1005 C   0  0  0  0  0  0  0  0  0  0  0  0
    9.9283  -17.9010   25.4574 O   0  0  0  0  0  0  0  0  0  0  0  0
   10.6496  -13.4967   27.6283 C   0  0  0  0  0  0  0  0  0  0  0  0
   10.3846  -14.8232   28.2595 C   0  0  1  0  0  0  0  0  0  0  0  0
    8.9632  -14.8271   28.7382 C   0  0  0  0  0  0  0  0  0  0  0  0
   10.7187  -16.0161   27.3668 C   0  0  2  0  0  0  0  0  0  0  0  0
   10.1403  -15.7048   26.0713 N   0  0  0  0  0  0  0  0  0  0  0  0
   10.1123  -17.1879   27.9806 C   0  0  0  0  0  0  0  0  0  0  0  0
    9.0137  -17.6210   27.5793 O   0  0  0  0  0  0  0  0  0  0  0  0
   10.7414  -17.8446   29.0204 O   0  0  0  0  0  0  0  0  0  0  0  0
  2  1  1  6
  3  2  1  0
  3  4  1  0
  4  5  1  0
  5  9  1  0
  6  5  2  0
  7  8  2  0
  7  2  1  0
 10  7  1  0
 11 10  1  0
 11 12  1  1
 12 13  1  0
 13 21  1  0
 13 14  2  0
 14 15  1  0
 16 15  1  0
 16 17  2  0
 18 17  1  0
 19 18  2  0
 20 21  2  0
 20 19  1  0
 21 16  1  0
 22 28  1  0
 22 11  1  0
 23 22  2  0
 25 27  1  0
 25 24  1  6
 26 25  1  0
 27 29  1  0
 27 28  1  6
 29 31  1  0
 30 29  2  0
M  END
$$$$
