EWV.pdb
     RDKit          3D

 31 32  0  0  1  0  0  0  0  0999 V2000
   10.4346  -18.0631   20.7232 N   0  0  0  0  0  0  0  0  0  0  0  0
   10.9048  -16.7000   20.7899 C   0  0  1  0  0  0  0  0  0  0  0  0
   10.3691  -15.9816   19.5849 C   0  0  0  0  0  0  0  0  0  0  0  0
   11.2583  -16.1018   18.3626 C   0  0  0  0  0  0  0  0  0  0  0  0
   11.1631  -17.4757   17.7882 C   0  0  0  0  0  0  0  0  0  0  0  0
   10.0258  -18.0139   17.6955 O   0  0  0  0  0  0  0  0  0  0  0  0
   10.5333  -16.1129   22.0786 C   0  0  0  0  0  0  0  0  0  0  0  0
   11.0048  -15.0021   22.5034 O   0  0  0  0  0  0  0  0  0  0  0  0
   12.2674  -18.1972   17.3515 O   0  0  0  0  0  0  0  0  0  0  0  0
    9.6031  -16.7632   22.9487 N   0  0  0  0  0  0  0  0  0  0  0  0
    9.2894  -16.2846   24.2829 C   0  0  1  0  0  0  0  0  0  0  0  0
    7.8832  -16.7169   24.6648 C   0  0  0  0  0  0  0  0  0  0  0  0
    7.0350  -15.6403   25.1796 C   0  0  0  0  0  0  0  0  0  0  0  0
    5.7324  -15.8127   25.6328 C   0  0  0  0  0  0  0  0  0  0  0  0
    5.2358  -14.6274   26.0552 N   0  0  0  0  0  0  0  0  0  0  0  0
    6.1864  -13.6945   25.8852 C   0  0  0  0  0  0  0  0  0  0  0  0
    6.1749  -12.3342   26.1510 C   0  0  0  0  0  0  0  0  0  0  0  0
    7.2711  -11.5580   25.8842 C   0  0  0  0  0  0  0  0  0  0  0  0
    8.4017  -12.1506   25.3420 C   0  0  0  0  0  0  0  0  0  0  0  0
    8.3977  -13.4952   25.0853 C   0  0  0  0  0  0  0  0  0  0  0  0
    7.2983  -14.3163   25.3448 C   0  0  0  0  0  0  0  0  0  0  0  0
   10.3110  -16.4981   25.2898 C   0  0  0  0  0  0  0  0  0  0  0  0
   11.2629  -17.3218   25.2345 O   0  0  0  0  0  0  0  0  0  0  0  0
   10.8257  -13.3763   28.0090 C   0  0  0  0  0  0  0  0  0  0  0  0
   10.7453  -14.7480   28.5922 C   0  0  1  0  0  0  0  0  0  0  0  0
    9.3756  -14.9167   29.1796 C   0  0  0  0  0  0  0  0  0  0  0  0
   11.1200  -15.8624   27.6179 C   0  0  2  0  0  0  0  0  0  0  0  0
   10.2431  -15.6877   26.4732 N   0  0  0  0  0  0  0  0  0  0  0  0
   10.8911  -17.1233   28.3076 C   0  0  0  0  0  0  0  0  0  0  0  0
    9.8554  -17.7857   28.0977 O   0  0  0  0  0  0  0  0  0  0  0  0
   11.8166  -17.6121   29.2091 O   0  0  0  0  0  0  0  0  0  0  0  0
  2  1  1  1
  3  2  1  0
  3  4  1  0
  4  5  1  0
  5  9  1  0
  6  5  2  0
  7  8  2  0
  7  2  1  0
 10  7  1  0
 11 10  1  0
 11 12  1  1
 12 13  1  0
 13 21  1  0
 13 14  2  0
 14 15  1  0
 16 15  1  0
 16 17  2  0
 18 17  1  0
 19 18  2  0
 20 21  2  0
 20 19  1  0
 21 16  1  0
 22 28  1  0
 22 11  1  0
 23 22  2  0
 25 27  1  0
 25 24  1  6
 26 25  1  0
 27 29  1  0
 27 28  1  6
 29 31  1  0
 30 29  2  0
M  END
$$$$
