EWV.pdb
     RDKit          3D

 31 32  0  0  1  0  0  0  0  0999 V2000
   11.9399  -17.7652   19.9448 N   0  0  0  0  0  0  0  0  0  0  0  0
   10.8784  -18.2197   20.8110 C   0  0  1  0  0  0  0  0  0  0  0  0
   11.2345  -19.6053   21.2674 C   0  0  0  0  0  0  0  0  0  0  0  0
   12.7050  -19.7764   21.5951 C   0  0  0  0  0  0  0  0  0  0  0  0
   13.2045  -21.0777   21.0626 C   0  0  0  0  0  0  0  0  0  0  0  0
   14.3979  -21.4098   21.3018 O   0  0  0  0  0  0  0  0  0  0  0  0
   10.6682  -17.2472   21.8852 C   0  0  0  0  0  0  0  0  0  0  0  0
   11.5529  -16.3933   22.2389 O   0  0  0  0  0  0  0  0  0  0  0  0
   12.4208  -21.9447   20.3110 O   0  0  0  0  0  0  0  0  0  0  0  0
    9.4367  -17.1985   22.6104 N   0  0  0  0  0  0  0  0  0  0  0  0
    9.1617  -16.2254   23.6521 C   0  0  1  0  0  0  0  0  0  0  0  0
    7.7385  -15.7113   23.5101 C   0  0  0  0  0  0  0  0  0  0  0  0
    7.5680  -14.2951   23.8400 C   0  0  0  0  0  0  0  0  0  0  0  0
    8.0900  -13.2447   23.0944 C   0  0  0  0  0  0  0  0  0  0  0  0
    7.7383  -12.0663   23.6581 N   0  0  0  0  0  0  0  0  0  0  0  0
    7.0023  -12.3311   24.7494 C   0  0  0  0  0  0  0  0  0  0  0  0
    6.4146  -11.4790   25.6712 C   0  0  0  0  0  0  0  0  0  0  0  0
    5.7056  -11.9752   26.7327 C   0  0  0  0  0  0  0  0  0  0  0  0
    5.5798  -13.3487   26.8772 C   0  0  0  0  0  0  0  0  0  0  0  0
    6.1658  -14.1772   25.9584 C   0  0  0  0  0  0  0  0  0  0  0  0
    6.8952  -13.7060   24.8647 C   0  0  0  0  0  0  0  0  0  0  0  0
    9.5668  -16.6002   24.9931 C   0  0  0  0  0  0  0  0  0  0  0  0
    9.5887  -17.7639   25.4760 O   0  0  0  0  0  0  0  0  0  0  0  0
   10.6296  -14.4487   29.3877 C   0  0  0  0  0  0  0  0  0  0  0  0
   10.1883  -14.4491   27.9617 C   0  0  1  0  0  0  0  0  0  0  0  0
   10.8155  -13.2652   27.2875 C   0  0  0  0  0  0  0  0  0  0  0  0
   10.4496  -15.7630   27.2288 C   0  0  2  0  0  0  0  0  0  0  0  0
    9.9950  -15.5442   25.8667 N   0  0  0  0  0  0  0  0  0  0  0  0
    9.6808  -16.7910   27.9143 C   0  0  0  0  0  0  0  0  0  0  0  0
    8.4536  -16.9034   27.7224 O   0  0  0  0  0  0  0  0  0  0  0  0
   10.2949  -17.6634   28.7918 O   0  0  0  0  0  0  0  0  0  0  0  0
  2  1  1  6
  3  2  1  0
  3  4  1  0
  4  5  1  0
  5  9  1  0
  6  5  2  0
  7  8  2  0
  7  2  1  0
 10  7  1  0
 11 10  1  0
 11 12  1  1
 12 13  1  0
 13 21  1  0
 13 14  2  0
 14 15  1  0
 16 15  1  0
 16 17  2  0
 18 17  1  0
 19 18  2  0
 20 21  2  0
 20 19  1  0
 21 16  1  0
 22 28  1  0
 22 11  1  0
 23 22  2  0
 25 27  1  0
 25 24  1  1
 26 25  1  0
 27 29  1  0
 27 28  1  6
 29 31  1  0
 30 29  2  0
M  END
$$$$
