EWV.pdb
     RDKit          3D

 31 32  0  0  1  0  0  0  0  0999 V2000
   11.1296  -16.0894   19.3276 N   0  0  0  0  0  0  0  0  0  0  0  0
   11.6102  -16.6972   20.5456 C   0  0  1  0  0  0  0  0  0  0  0  0
   13.1109  -16.6817   20.4923 C   0  0  0  0  0  0  0  0  0  0  0  0
   13.7466  -17.9859   20.9328 C   0  0  0  0  0  0  0  0  0  0  0  0
   15.2330  -17.8928   20.8402 C   0  0  0  0  0  0  0  0  0  0  0  0
   15.7724  -17.9612   19.7018 O   0  0  0  0  0  0  0  0  0  0  0  0
   11.0231  -16.0166   21.7012 C   0  0  0  0  0  0  0  0  0  0  0  0
   11.3123  -14.8134   22.0260 O   0  0  0  0  0  0  0  0  0  0  0  0
   16.0572  -17.7373   21.9479 O   0  0  0  0  0  0  0  0  0  0  0  0
   10.0742  -16.6740   22.5453 N   0  0  0  0  0  0  0  0  0  0  0  0
    9.4574  -16.0412   23.6971 C   0  0  1  0  0  0  0  0  0  0  0  0
    7.9450  -16.0716   23.5496 C   0  0  0  0  0  0  0  0  0  0  0  0
    7.2164  -15.3776   24.6131 C   0  0  0  0  0  0  0  0  0  0  0  0
    6.4542  -16.0107   25.5878 C   0  0  0  0  0  0  0  0  0  0  0  0
    5.9288  -15.0884   26.4265 N   0  0  0  0  0  0  0  0  0  0  0  0
    6.3335  -13.8756   26.0162 C   0  0  0  0  0  0  0  0  0  0  0  0
    6.0661  -12.6143   26.5247 C   0  0  0  0  0  0  0  0  0  0  0  0
    6.5833  -11.4941   25.9304 C   0  0  0  0  0  0  0  0  0  0  0  0
    7.3838  -11.6350   24.8067 C   0  0  0  0  0  0  0  0  0  0  0  0
    7.6388  -12.8875   24.3165 C   0  0  0  0  0  0  0  0  0  0  0  0
    7.1284  -14.0505   24.8970 C   0  0  0  0  0  0  0  0  0  0  0  0
    9.9736  -16.4402   24.9922 C   0  0  0  0  0  0  0  0  0  0  0  0
   10.4380  -17.5696   25.3028 O   0  0  0  0  0  0  0  0  0  0  0  0
   10.2361  -14.6399   29.6755 C   0  0  0  0  0  0  0  0  0  0  0  0
    9.8210  -14.5996   28.2422 C   0  0  1  0  0  0  0  0  0  0  0  0
   10.1052  -13.2221   27.7214 C   0  0  0  0  0  0  0  0  0  0  0  0
   10.4362  -15.7025   27.3839 C   0  0  2  0  0  0  0  0  0  0  0  0
    9.9647  -15.4513   26.0333 N   0  0  0  0  0  0  0  0  0  0  0  0
    9.9568  -16.9699   27.9146 C   0  0  0  0  0  0  0  0  0  0  0  0
    8.8468  -17.4248   27.5732 O   0  0  0  0  0  0  0  0  0  0  0  0
   10.7216  -17.6951   28.8076 O   0  0  0  0  0  0  0  0  0  0  0  0
  2  1  1  6
  3  2  1  0
  3  4  1  0
  4  5  1  0
  5  9  1  0
  6  5  2  0
  7  8  2  0
  7  2  1  0
 10  7  1  0
 11 10  1  0
 11 12  1  1
 12 13  1  0
 13 21  1  0
 13 14  2  0
 14 15  1  0
 16 15  1  0
 16 17  2  0
 18 17  1  0
 19 18  2  0
 20 21  2  0
 20 19  1  0
 21 16  1  0
 22 28  1  0
 22 11  1  0
 23 22  2  0
 25 27  1  0
 25 24  1  1
 26 25  1  0
 27 29  1  0
 27 28  1  6
 29 31  1  0
 30 29  2  0
M  END
$$$$
