EWV.pdb
     RDKit          3D

 31 32  0  0  1  0  0  0  0  0999 V2000
   10.4639  -16.5159   19.7794 N   0  0  0  0  0  0  0  0  0  0  0  0
   11.2549  -16.9476   20.9071 C   0  0  1  0  0  0  0  0  0  0  0  0
   12.6954  -16.6922   20.5681 C   0  0  0  0  0  0  0  0  0  0  0  0
   13.2862  -17.7183   19.6209 C   0  0  0  0  0  0  0  0  0  0  0  0
   14.6357  -18.1424   20.0959 C   0  0  0  0  0  0  0  0  0  0  0  0
   15.0761  -17.6577   21.1742 O   0  0  0  0  0  0  0  0  0  0  0  0
   10.7777  -16.2894   22.1247 C   0  0  0  0  0  0  0  0  0  0  0  0
   10.9682  -15.0483   22.3699 O   0  0  0  0  0  0  0  0  0  0  0  0
   15.4369  -19.0450   19.4074 O   0  0  0  0  0  0  0  0  0  0  0  0
   10.0571  -17.0140   23.1252 N   0  0  0  0  0  0  0  0  0  0  0  0
    9.5307  -16.4008   24.3311 C   0  0  1  0  0  0  0  0  0  0  0  0
    8.0117  -16.4501   24.3098 C   0  0  0  0  0  0  0  0  0  0  0  0
    7.3660  -15.1686   24.0189 C   0  0  0  0  0  0  0  0  0  0  0  0
    6.9337  -14.7731   22.7586 C   0  0  0  0  0  0  0  0  0  0  0  0
    6.3672  -13.5470   22.8347 N   0  0  0  0  0  0  0  0  0  0  0  0
    6.4239  -13.1419   24.1137 C   0  0  0  0  0  0  0  0  0  0  0  0
    5.9926  -11.9668   24.7090 C   0  0  0  0  0  0  0  0  0  0  0  0
    6.1650  -11.7561   26.0511 C   0  0  0  0  0  0  0  0  0  0  0  0
    6.7793  -12.7373   26.8148 C   0  0  0  0  0  0  0  0  0  0  0  0
    7.1995  -13.8924   26.2123 C   0  0  0  0  0  0  0  0  0  0  0  0
    7.0399  -14.1405   24.8474 C   0  0  0  0  0  0  0  0  0  0  0  0
   10.1581  -16.8055   25.5743 C   0  0  0  0  0  0  0  0  0  0  0  0
   10.6854  -17.9225   25.8235 O   0  0  0  0  0  0  0  0  0  0  0  0
   10.9542  -14.9670   30.1930 C   0  0  0  0  0  0  0  0  0  0  0  0
   10.3552  -14.9444   28.8259 C   0  0  1  0  0  0  0  0  0  0  0  0
   10.5936  -13.5828   28.2436 C   0  0  0  0  0  0  0  0  0  0  0  0
   10.8319  -16.0755   27.9177 C   0  0  2  0  0  0  0  0  0  0  0  0
   10.1928  -15.8384   26.6351 N   0  0  0  0  0  0  0  0  0  0  0  0
   10.4019  -17.3225   28.5323 C   0  0  0  0  0  0  0  0  0  0  0  0
    9.2284  -17.7247   28.4041 O   0  0  0  0  0  0  0  0  0  0  0  0
   11.2851  -18.0863   29.2705 O   0  0  0  0  0  0  0  0  0  0  0  0
  2  1  1  6
  3  2  1  0
  3  4  1  0
  4  5  1  0
  5  9  1  0
  6  5  2  0
  7  8  2  0
  7  2  1  0
 10  7  1  0
 11 10  1  0
 11 12  1  1
 12 13  1  0
 13 21  1  0
 13 14  2  0
 14 15  1  0
 16 15  1  0
 16 17  2  0
 18 17  1  0
 19 18  2  0
 20 21  2  0
 20 19  1  0
 21 16  1  0
 22 28  1  0
 22 11  1  0
 23 22  2  0
 25 27  1  0
 25 24  1  1
 26 25  1  0
 27 29  1  0
 27 28  1  6
 29 31  1  0
 30 29  2  0
M  END
$$$$
