EWV.pdb
     RDKit          3D

 31 32  0  0  1  0  0  0  0  0999 V2000
   10.4444  -16.9327   19.3210 N   0  0  0  0  0  0  0  0  0  0  0  0
   10.9046  -17.4964   20.5677 C   0  0  1  0  0  0  0  0  0  0  0  0
   12.3920  -17.6722   20.4581 C   0  0  0  0  0  0  0  0  0  0  0  0
   12.8910  -17.7357   19.0277 C   0  0  0  0  0  0  0  0  0  0  0  0
   14.3607  -17.9926   19.0046 C   0  0  0  0  0  0  0  0  0  0  0  0
   15.1241  -17.0920   18.5599 O   0  0  0  0  0  0  0  0  0  0  0  0
   10.4592  -16.6577   21.6821 C   0  0  0  0  0  0  0  0  0  0  0  0
   10.9707  -15.5150   21.9458 O   0  0  0  0  0  0  0  0  0  0  0  0
   14.9339  -19.1787   19.4466 O   0  0  0  0  0  0  0  0  0  0  0  0
    9.4060  -17.0796   22.5525 N   0  0  0  0  0  0  0  0  0  0  0  0
    9.0679  -16.3946   23.7870 C   0  0  1  0  0  0  0  0  0  0  0  0
    7.6259  -16.6953   24.1614 C   0  0  0  0  0  0  0  0  0  0  0  0
    6.9386  -15.6057   24.8572 C   0  0  0  0  0  0  0  0  0  0  0  0
    5.8179  -15.7693   25.6628 C   0  0  0  0  0  0  0  0  0  0  0  0
    5.4405  -14.5723   26.1678 N   0  0  0  0  0  0  0  0  0  0  0  0
    6.2906  -13.6406   25.7072 C   0  0  0  0  0  0  0  0  0  0  0  0
    6.3323  -12.2716   25.9201 C   0  0  0  0  0  0  0  0  0  0  0  0
    7.2976  -11.4992   25.3311 C   0  0  0  0  0  0  0  0  0  0  0  0
    8.2405  -12.1044   24.5137 C   0  0  0  0  0  0  0  0  0  0  0  0
    8.1861  -13.4574   24.3133 C   0  0  0  0  0  0  0  0  0  0  0  0
    7.2165  -14.2751   24.8978 C   0  0  0  0  0  0  0  0  0  0  0  0
   10.0359  -16.5079   24.8608 C   0  0  0  0  0  0  0  0  0  0  0  0
   10.9823  -17.3362   24.9378 O   0  0  0  0  0  0  0  0  0  0  0  0
   10.8470  -14.4911   29.4058 C   0  0  0  0  0  0  0  0  0  0  0  0
   10.2006  -14.5365   28.0611 C   0  0  1  0  0  0  0  0  0  0  0  0
   10.3169  -13.1715   27.4504 C   0  0  0  0  0  0  0  0  0  0  0  0
   10.7280  -15.6452   27.1532 C   0  0  2  0  0  0  0  0  0  0  0  0
    9.9159  -15.5808   25.9507 N   0  0  0  0  0  0  0  0  0  0  0  0
   10.5594  -16.8987   27.8729 C   0  0  0  0  0  0  0  0  0  0  0  0
    9.5200  -17.5750   27.7400 O   0  0  0  0  0  0  0  0  0  0  0  0
   11.5475  -17.3651   28.7181 O   0  0  0  0  0  0  0  0  0  0  0  0
  2  1  1  6
  3  2  1  0
  3  4  1  0
  4  5  1  0
  5  9  1  0
  6  5  2  0
  7  8  2  0
  7  2  1  0
 10  7  1  0
 11 10  1  0
 11 12  1  1
 12 13  1  0
 13 21  1  0
 13 14  2  0
 14 15  1  0
 16 15  1  0
 16 17  2  0
 18 17  1  0
 19 18  2  0
 20 21  2  0
 20 19  1  0
 21 16  1  0
 22 28  1  0
 22 11  1  0
 23 22  2  0
 25 27  1  0
 25 24  1  1
 26 25  1  0
 27 29  1  0
 27 28  1  6
 29 31  1  0
 30 29  2  0
M  END
$$$$
