EWV.pdb
     RDKit          3D

 31 32  0  0  1  0  0  0  0  0999 V2000
   10.0363  -16.5354   19.4535 N   0  0  0  0  0  0  0  0  0  0  0  0
   10.3226  -17.3258   20.6270 C   0  0  1  0  0  0  0  0  0  0  0  0
   11.7497  -17.7814   20.5233 C   0  0  0  0  0  0  0  0  0  0  0  0
   12.3456  -17.5981   19.1412 C   0  0  0  0  0  0  0  0  0  0  0  0
   13.8103  -17.8821   19.1688 C   0  0  0  0  0  0  0  0  0  0  0  0
   14.4434  -17.6846   20.2419 O   0  0  0  0  0  0  0  0  0  0  0  0
   10.0028  -16.5555   21.8303 C   0  0  0  0  0  0  0  0  0  0  0  0
   10.4583  -15.3804   22.0504 O   0  0  0  0  0  0  0  0  0  0  0  0
   14.5162  -18.3518   18.0680 O   0  0  0  0  0  0  0  0  0  0  0  0
    9.1453  -17.0864   22.8442 N   0  0  0  0  0  0  0  0  0  0  0  0
    8.9123  -16.4289   24.1173 C   0  0  1  0  0  0  0  0  0  0  0  0
    7.5309  -16.7924   24.6364 C   0  0  0  0  0  0  0  0  0  0  0  0
    6.7729  -15.6672   25.1868 C   0  0  0  0  0  0  0  0  0  0  0  0
    5.5303  -15.7796   25.7994 C   0  0  0  0  0  0  0  0  0  0  0  0
    5.1126  -14.5604   26.2108 N   0  0  0  0  0  0  0  0  0  0  0  0
    6.0556  -13.6642   25.8781 C   0  0  0  0  0  0  0  0  0  0  0  0
    6.1045  -12.2920   26.0674 C   0  0  0  0  0  0  0  0  0  0  0  0
    7.1772  -11.5614   25.6304 C   0  0  0  0  0  0  0  0  0  0  0  0
    8.2224  -12.2127   24.9925 C   0  0  0  0  0  0  0  0  0  0  0  0
    8.1595  -13.5683   24.8133 C   0  0  0  0  0  0  0  0  0  0  0  0
    7.0818  -14.3440   25.2459 C   0  0  0  0  0  0  0  0  0  0  0  0
    9.9918  -16.5139   25.0820 C   0  0  0  0  0  0  0  0  0  0  0  0
   10.9969  -17.2717   25.0232 O   0  0  0  0  0  0  0  0  0  0  0  0
   11.0231  -14.7318   29.6793 C   0  0  0  0  0  0  0  0  0  0  0  0
   10.2724  -14.7463   28.3892 C   0  0  1  0  0  0  0  0  0  0  0  0
   10.2301  -13.3406   27.8678 C   0  0  0  0  0  0  0  0  0  0  0  0
   10.8075  -15.7475   27.3680 C   0  0  2  0  0  0  0  0  0  0  0  0
    9.9205  -15.6444   26.2224 N   0  0  0  0  0  0  0  0  0  0  0  0
   10.7577  -17.0600   27.9946 C   0  0  0  0  0  0  0  0  0  0  0  0
    9.7476  -17.7826   27.8810 O   0  0  0  0  0  0  0  0  0  0  0  0
   11.8286  -17.5322   28.7284 O   0  0  0  0  0  0  0  0  0  0  0  0
  2  1  1  6
  3  2  1  0
  3  4  1  0
  4  5  1  0
  5  9  1  0
  6  5  2  0
  7  8  2  0
  7  2  1  0
 10  7  1  0
 11 10  1  0
 11 12  1  1
 12 13  1  0
 13 21  1  0
 13 14  2  0
 14 15  1  0
 16 15  1  0
 16 17  2  0
 18 17  1  0
 19 18  2  0
 20 21  2  0
 20 19  1  0
 21 16  1  0
 22 28  1  0
 22 11  1  0
 23 22  2  0
 25 27  1  0
 25 24  1  1
 26 25  1  0
 27 29  1  0
 27 28  1  6
 29 31  1  0
 30 29  2  0
M  END
$$$$
