HQI.pdb
     RDKit          3D

 28 28  0  0  1  0  0  0  0  0999 V2000
   22.6762  -15.3307  -18.3611 N   0  0  0  0  0  0  0  0  0  0  0  0
   23.1357  -15.3823  -16.9514 C   0  0  1  0  0  0  0  0  0  0  0  0
   22.1287  -14.5736  -16.1890 C   0  0  0  0  0  0  0  0  0  0  0  0
   22.4897  -13.1350  -16.4524 C   0  0  0  0  0  0  0  0  0  0  0  0
   23.1825  -12.3390  -15.5634 C   0  0  0  0  0  0  0  0  0  0  0  0
   23.3340  -11.0976  -16.1054 N   0  0  0  0  0  0  0  0  0  0  0  0
   22.7483  -11.1417  -17.2932 C   0  0  0  0  0  0  0  0  0  0  0  0
   22.2288  -12.3772  -17.5221 N   0  0  0  0  0  0  0  0  0  0  0  0
   23.2279  -16.7998  -16.5908 C   0  0  0  0  0  0  0  0  0  0  0  0
   22.2738  -17.5569  -16.9601 O   0  0  0  0  0  0  0  0  0  0  0  0
   27.6193  -21.2913  -16.1337 N   0  0  0  0  0  0  0  0  0  0  0  0
   26.4922  -21.8844  -15.5432 C   0  0  0  0  0  0  0  0  0  0  0  0
   26.5999  -23.1153  -15.2242 O   0  0  0  0  0  0  0  0  0  0  0  0
   25.2535  -21.1065  -15.3109 C   0  0  0  0  0  0  0  0  0  0  0  0
   25.4576  -19.6467  -15.7469 C   0  0  0  0  0  0  0  0  0  0  0  0
   24.2555  -18.8133  -15.6037 C   0  0  2  0  0  0  0  0  0  0  0  0
   24.2712  -17.4279  -15.8748 N   0  0  0  0  0  0  0  0  0  0  0  0
   23.3204  -19.2056  -14.5494 C   0  0  0  0  0  0  0  0  0  0  0  0
   23.4210  -18.7353  -13.3616 O   0  0  0  0  0  0  0  0  0  0  0  0
   19.1790  -18.9444  -11.5310 C   0  0  0  0  0  0  0  0  0  0  0  0
   19.0709  -20.0531  -12.5950 C   0  0  0  0  0  0  0  0  0  0  0  0
   20.0160  -19.7894  -13.7329 C   0  0  2  0  0  0  0  0  0  0  0  0
   19.2813  -20.1523  -15.0243 C   0  0  0  0  0  0  0  0  0  0  0  0
   21.3384  -20.4378  -13.6233 C   0  0  2  0  0  0  0  0  0  0  0  0
   22.2491  -20.1204  -14.7087 N   0  0  0  0  0  0  0  0  0  0  0  0
   21.2531  -21.9293  -13.4337 C   0  0  0  0  0  0  0  0  0  0  0  0
   20.9299  -22.5012  -12.1917 O   0  0  0  0  0  0  0  0  0  0  0  0
   21.4570  -22.7429  -14.3486 O   0  0  0  0  0  0  0  0  0  0  0  0
  2  1  1  6
  3  4  1  0
  3  2  1  0
  4  8  1  0
  5  6  1  0
  5  4  2  0
  6  7  1  0
  7  8  2  0
  9  2  1  0
  9 10  2  0
 12 11  1  0
 13 12  2  0
 14 12  1  0
 15 14  1  0
 16 15  1  1
 16 17  1  0
 17  9  1  0
 18 16  1  0
 19 18  2  0
 21 20  1  0
 22 21  1  0
 22 23  1  6
 24 25  1  6
 24 22  1  0
 25 18  1  0
 26 24  1  0
 27 26  1  0
 28 26  2  0
M  END
$$$$
