HQI.pdb
     RDKit          3D

 28 28  0  0  1  0  0  0  0  0999 V2000
   23.1762  -21.6954  -13.0231 N   0  0  0  0  0  0  0  0  0  0  0  0
   23.4128  -20.6217  -12.0268 C   0  0  1  0  0  0  0  0  0  0  0  0
   22.1130  -20.4870  -11.2909 C   0  0  0  0  0  0  0  0  0  0  0  0
   21.2362  -19.6441  -12.1798 C   0  0  0  0  0  0  0  0  0  0  0  0
   21.7004  -18.6015  -12.9553 C   0  0  0  0  0  0  0  0  0  0  0  0
   20.6514  -18.0478  -13.6268 N   0  0  0  0  0  0  0  0  0  0  0  0
   19.5794  -18.7388  -13.2673 C   0  0  0  0  0  0  0  0  0  0  0  0
   19.9176  -19.7174  -12.3860 N   0  0  0  0  0  0  0  0  0  0  0  0
   24.5658  -21.0395  -11.2244 C   0  0  0  0  0  0  0  0  0  0  0  0
   24.6202  -22.2630  -10.8778 O   0  0  0  0  0  0  0  0  0  0  0  0
   30.3116  -22.0172  -11.9177 N   0  0  0  0  0  0  0  0  0  0  0  0
   30.3872  -21.6992  -10.5524 C   0  0  0  0  0  0  0  0  0  0  0  0
   31.5343  -21.8149  -10.0052 O   0  0  0  0  0  0  0  0  0  0  0  0
   29.1887  -21.2547   -9.8044 C   0  0  0  0  0  0  0  0  0  0  0  0
   27.9861  -21.1399  -10.7548 C   0  0  0  0  0  0  0  0  0  0  0  0
   26.7346  -20.7641  -10.0820 C   0  0  2  0  0  0  0  0  0  0  0  0
   25.6379  -20.2281  -10.7911 N   0  0  0  0  0  0  0  0  0  0  0  0
   26.8629  -20.2652   -8.7129 C   0  0  0  0  0  0  0  0  0  0  0  0
   26.2422  -19.2125   -8.3272 O   0  0  0  0  0  0  0  0  0  0  0  0
   27.7705  -21.2770   -3.1451 C   0  0  0  0  0  0  0  0  0  0  0  0
   28.7386  -20.5005   -4.0577 C   0  0  0  0  0  0  0  0  0  0  0  0
   28.6725  -21.0215   -5.4654 C   0  0  2  0  0  0  0  0  0  0  0  0
   30.1107  -21.1365   -5.9730 C   0  0  0  0  0  0  0  0  0  0  0  0
   27.7989  -20.2627   -6.3831 C   0  0  2  0  0  0  0  0  0  0  0  0
   27.6627  -20.8549   -7.7018 N   0  0  0  0  0  0  0  0  0  0  0  0
   28.1819  -18.8110   -6.5007 C   0  0  0  0  0  0  0  0  0  0  0  0
   27.6860  -17.8396   -5.6148 O   0  0  0  0  0  0  0  0  0  0  0  0
   28.9519  -18.3804   -7.3737 O   0  0  0  0  0  0  0  0  0  0  0  0
  2  1  1  6
  3  4  1  0
  3  2  1  0
  4  8  1  0
  5  6  1  0
  5  4  2  0
  6  7  1  0
  7  8  2  0
  9  2  1  0
  9 10  2  0
 12 11  1  0
 13 12  2  0
 14 12  1  0
 15 14  1  0
 16 15  1  6
 16 17  1  0
 17  9  1  0
 18 16  1  0
 19 18  2  0
 21 20  1  0
 22 21  1  0
 22 23  1  6
 24 25  1  6
 24 22  1  0
 25 18  1  0
 26 24  1  0
 27 26  1  0
 28 26  2  0
M  END
$$$$
