HQI.pdb
     RDKit          3D

 28 28  0  0  1  0  0  0  0  0999 V2000
   19.0855  -15.8035  -18.6266 N   0  0  0  0  0  0  0  0  0  0  0  0
   19.4380  -15.4613  -17.2267 C   0  0  1  0  0  0  0  0  0  0  0  0
   20.6349  -16.3088  -16.9135 C   0  0  0  0  0  0  0  0  0  0  0  0
   20.1084  -17.7152  -16.7944 C   0  0  0  0  0  0  0  0  0  0  0  0
   20.5586  -18.7739  -17.5562 C   0  0  0  0  0  0  0  0  0  0  0  0
   19.8707  -19.8968  -17.2046 N   0  0  0  0  0  0  0  0  0  0  0  0
   19.0259  -19.5270  -16.2531 C   0  0  0  0  0  0  0  0  0  0  0  0
   19.1579  -18.1997  -15.9891 N   0  0  0  0  0  0  0  0  0  0  0  0
   19.6490  -14.0115  -17.1887 C   0  0  0  0  0  0  0  0  0  0  0  0
   20.3729  -13.5052  -18.1050 O   0  0  0  0  0  0  0  0  0  0  0  0
   16.1246   -9.0562  -17.1183 N   0  0  0  0  0  0  0  0  0  0  0  0
   17.3994   -8.4828  -16.9881 C   0  0  0  0  0  0  0  0  0  0  0  0
   17.4702   -7.2170  -17.1342 O   0  0  0  0  0  0  0  0  0  0  0  0
   18.5865   -9.3189  -16.6966 C   0  0  0  0  0  0  0  0  0  0  0  0
   18.1958  -10.8055  -16.6884 C   0  0  0  0  0  0  0  0  0  0  0  0
   19.3116  -11.7084  -16.3724 C   0  0  2  0  0  0  0  0  0  0  0  0
   19.1296  -13.1021  -16.2407 N   0  0  0  0  0  0  0  0  0  0  0  0
   20.3633  -11.1592  -15.5167 C   0  0  0  0  0  0  0  0  0  0  0  0
   20.2498  -11.1579  -14.2403 O   0  0  0  0  0  0  0  0  0  0  0  0
   26.3508  -10.5502  -14.6554 C   0  0  0  0  0  0  0  0  0  0  0  0
   24.9524  -10.0082  -14.3038 C   0  0  0  0  0  0  0  0  0  0  0  0
   23.9312  -10.4961  -15.2921 C   0  0  2  0  0  0  0  0  0  0  0  0
   24.4599  -10.1661  -16.6887 C   0  0  0  0  0  0  0  0  0  0  0  0
   22.5528  -10.0139  -15.0714 C   0  0  2  0  0  0  0  0  0  0  0  0
   21.5713  -10.5794  -15.9797 N   0  0  0  0  0  0  0  0  0  0  0  0
   22.4457   -8.5118  -15.0578 C   0  0  0  0  0  0  0  0  0  0  0  0
   22.7641   -7.7564  -13.9165 O   0  0  0  0  0  0  0  0  0  0  0  0
   22.0767   -7.8483  -16.0397 O   0  0  0  0  0  0  0  0  0  0  0  0
  2  1  1  6
  3  4  1  0
  3  2  1  0
  4  8  1  0
  5  6  1  0
  5  4  2  0
  6  7  1  0
  7  8  2  0
  9  2  1  0
  9 10  2  0
 12 11  1  0
 13 12  2  0
 14 12  1  0
 15 14  1  0
 16 15  1  1
 16 17  1  0
 17  9  1  0
 18 16  1  0
 19 18  2  0
 21 20  1  0
 22 21  1  0
 22 23  1  6
 24 25  1  6
 24 22  1  0
 25 18  1  0
 26 24  1  0
 27 26  1  0
 28 26  2  0
M  END
$$$$
