HQI.pdb
     RDKit          3D

 28 28  0  0  1  0  0  0  0  0999 V2000
   21.8058  -17.9018  -16.0981 N   0  0  0  0  0  0  0  0  0  0  0  0
   23.1075  -17.5566  -15.4755 C   0  0  1  0  0  0  0  0  0  0  0  0
   22.8457  -16.2921  -14.7131 C   0  0  0  0  0  0  0  0  0  0  0  0
   22.8888  -15.1904  -15.7397 C   0  0  0  0  0  0  0  0  0  0  0  0
   24.0546  -14.6655  -16.2584 C   0  0  0  0  0  0  0  0  0  0  0  0
   23.7399  -13.6849  -17.1513 N   0  0  0  0  0  0  0  0  0  0  0  0
   22.4167  -13.6188  -17.1730 C   0  0  0  0  0  0  0  0  0  0  0  0
   21.8807  -14.5309  -16.3188 N   0  0  0  0  0  0  0  0  0  0  0  0
   23.5123  -18.7169  -14.6769 C   0  0  0  0  0  0  0  0  0  0  0  0
   22.6480  -19.2040  -13.8796 O   0  0  0  0  0  0  0  0  0  0  0  0
   23.1261  -23.9576  -14.4524 N   0  0  0  0  0  0  0  0  0  0  0  0
   24.2445  -24.0633  -13.6105 C   0  0  0  0  0  0  0  0  0  0  0  0
   24.3009  -25.1004  -12.8689 O   0  0  0  0  0  0  0  0  0  0  0  0
   25.2925  -23.0169  -13.5980 C   0  0  0  0  0  0  0  0  0  0  0  0
   24.9109  -21.8765  -14.5554 C   0  0  0  0  0  0  0  0  0  0  0  0
   25.0068  -20.5402  -13.9512 C   0  0  2  0  0  0  0  0  0  0  0  0
   24.7672  -19.3653  -14.6962 N   0  0  0  0  0  0  0  0  0  0  0  0
   25.9999  -20.3824  -12.8888 C   0  0  0  0  0  0  0  0  0  0  0  0
   27.1839  -19.9621  -13.1415 O   0  0  0  0  0  0  0  0  0  0  0  0
   27.0218  -19.3212   -6.9110 C   0  0  0  0  0  0  0  0  0  0  0  0
   27.5613  -19.9053   -8.2304 C   0  0  0  0  0  0  0  0  0  0  0  0
   26.4582  -20.0360   -9.2421 C   0  0  2  0  0  0  0  0  0  0  0  0
   25.3151  -20.7971   -8.5689 C   0  0  0  0  0  0  0  0  0  0  0  0
   26.8522  -20.6218  -10.5393 C   0  0  2  0  0  0  0  0  0  0  0  0
   25.7818  -20.6746  -11.5188 N   0  0  0  0  0  0  0  0  0  0  0  0
   27.5036  -21.9730  -10.4057 C   0  0  0  0  0  0  0  0  0  0  0  0
   28.8823  -22.1113  -10.1722 O   0  0  0  0  0  0  0  0  0  0  0  0
   26.8761  -23.0406  -10.4891 O   0  0  0  0  0  0  0  0  0  0  0  0
  2  1  1  1
  3  4  1  0
  3  2  1  0
  4  8  1  0
  5  6  1  0
  5  4  2  0
  6  7  1  0
  7  8  2  0
  9  2  1  0
  9 10  2  0
 12 11  1  0
 13 12  2  0
 14 12  1  0
 15 14  1  0
 16 15  1  6
 16 17  1  0
 17  9  1  0
 18 16  1  0
 19 18  2  0
 21 20  1  0
 22 21  1  0
 22 23  1  1
 24 25  1  6
 24 22  1  0
 25 18  1  0
 26 24  1  0
 27 26  1  0
 28 26  2  0
M  END
$$$$
