HQI.pdb
     RDKit          3D

 28 28  0  0  1  0  0  0  0  0999 V2000
   27.6647  -21.8900  -15.7374 N   0  0  0  0  0  0  0  0  0  0  0  0
   26.9359  -20.6403  -15.4083 C   0  0  1  0  0  0  0  0  0  0  0  0
   26.4886  -20.0961  -16.7322 C   0  0  0  0  0  0  0  0  0  0  0  0
   27.6832  -19.3658  -17.2880 C   0  0  0  0  0  0  0  0  0  0  0  0
   28.6947  -19.9743  -18.0024 C   0  0  0  0  0  0  0  0  0  0  0  0
   29.6197  -19.0348  -18.3484 N   0  0  0  0  0  0  0  0  0  0  0  0
   29.1785  -17.8864  -17.8562 C   0  0  0  0  0  0  0  0  0  0  0  0
   27.9977  -18.0692  -17.2073 N   0  0  0  0  0  0  0  0  0  0  0  0
   25.8707  -21.0092  -14.4717 C   0  0  0  0  0  0  0  0  0  0  0  0
   25.2023  -22.0597  -14.7357 O   0  0  0  0  0  0  0  0  0  0  0  0
   24.8677  -21.0441   -8.2957 N   0  0  0  0  0  0  0  0  0  0  0  0
   26.0535  -21.0285   -9.0471 C   0  0  0  0  0  0  0  0  0  0  0  0
   27.1437  -21.1141   -8.3893 O   0  0  0  0  0  0  0  0  0  0  0  0
   26.0204  -20.9180  -10.5236 C   0  0  0  0  0  0  0  0  0  0  0  0
   24.5654  -20.8589  -11.0159 C   0  0  0  0  0  0  0  0  0  0  0  0
   24.4388  -20.7702  -12.4774 C   0  0  2  0  0  0  0  0  0  0  0  0
   25.5012  -20.3239  -13.2929 N   0  0  0  0  0  0  0  0  0  0  0  0
   23.1102  -20.4365  -12.9907 C   0  0  0  0  0  0  0  0  0  0  0  0
   22.7829  -19.2256  -13.2532 O   0  0  0  0  0  0  0  0  0  0  0  0
   18.8457  -23.4720  -15.4853 C   0  0  0  0  0  0  0  0  0  0  0  0
   20.2627  -23.0708  -15.0334 C   0  0  0  0  0  0  0  0  0  0  0  0
   20.4190  -21.5765  -15.0442 C   0  0  2  0  0  0  0  0  0  0  0  0
   21.4122  -21.2337  -16.1557 C   0  0  0  0  0  0  0  0  0  0  0  0
   20.7755  -20.9658  -13.7476 C   0  0  2  0  0  0  0  0  0  0  0  0
   22.0722  -21.3707  -13.2350 N   0  0  0  0  0  0  0  0  0  0  0  0
   19.7165  -21.1533  -12.6934 C   0  0  0  0  0  0  0  0  0  0  0  0
   18.4330  -20.5971  -12.8251 O   0  0  0  0  0  0  0  0  0  0  0  0
   19.9018  -21.8041  -11.6528 O   0  0  0  0  0  0  0  0  0  0  0  0
  2  1  1  6
  3  4  1  0
  3  2  1  0
  4  8  1  0
  5  6  1  0
  5  4  2  0
  6  7  1  0
  7  8  2  0
  9  2  1  0
  9 10  2  0
 12 11  1  0
 13 12  2  0
 14 12  1  0
 15 14  1  0
 16 15  1  1
 16 17  1  0
 17  9  1  0
 18 16  1  0
 19 18  2  0
 21 20  1  0
 22 21  1  0
 22 23  1  6
 24 25  1  1
 24 22  1  0
 25 18  1  0
 26 24  1  0
 27 26  1  0
 28 26  2  0
M  END
$$$$
