HQI.pdb
     RDKit          3D

 28 28  0  0  1  0  0  0  0  0999 V2000
   29.6694  -31.8551  -16.3704 N   0  0  0  0  0  0  0  0  0  0  0  0
   28.7381  -32.9828  -16.1213 C   0  0  1  0  0  0  0  0  0  0  0  0
   29.5493  -33.9911  -15.3635 C   0  0  0  0  0  0  0  0  0  0  0  0
   30.2895  -34.7785  -16.4129 C   0  0  0  0  0  0  0  0  0  0  0  0
   29.6926  -35.6994  -17.2493 C   0  0  0  0  0  0  0  0  0  0  0  0
   30.6417  -36.2342  -18.0685 N   0  0  0  0  0  0  0  0  0  0  0  0
   31.7842  -35.6508  -17.7366 C   0  0  0  0  0  0  0  0  0  0  0  0
   31.5880  -34.7590  -16.7292 N   0  0  0  0  0  0  0  0  0  0  0  0
   27.5820  -32.4250  -15.4140 C   0  0  0  0  0  0  0  0  0  0  0  0
   27.1612  -31.2860  -15.7956 O   0  0  0  0  0  0  0  0  0  0  0  0
   22.0485  -32.3216  -14.2717 N   0  0  0  0  0  0  0  0  0  0  0  0
   22.5539  -32.9517  -15.4198 C   0  0  0  0  0  0  0  0  0  0  0  0
   21.7218  -33.6338  -16.1060 O   0  0  0  0  0  0  0  0  0  0  0  0
   23.9798  -32.8198  -15.7981 C   0  0  0  0  0  0  0  0  0  0  0  0
   24.6929  -31.8534  -14.8389 C   0  0  0  0  0  0  0  0  0  0  0  0
   25.6246  -32.5166  -13.9158 C   0  0  2  0  0  0  0  0  0  0  0  0
   26.8718  -33.0184  -14.3468 N   0  0  0  0  0  0  0  0  0  0  0  0
   25.0182  -33.2789  -12.8245 C   0  0  0  0  0  0  0  0  0  0  0  0
   24.9560  -34.5584  -12.8608 O   0  0  0  0  0  0  0  0  0  0  0  0
   27.0462  -32.4425   -8.0373 C   0  0  0  0  0  0  0  0  0  0  0  0
   26.4297  -33.0236   -9.3238 C   0  0  0  0  0  0  0  0  0  0  0  0
   24.9293  -32.9761   -9.2606 C   0  0  2  0  0  0  0  0  0  0  0  0
   24.5087  -33.6793   -7.9691 C   0  0  0  0  0  0  0  0  0  0  0  0
   24.2267  -33.4948  -10.4515 C   0  0  2  0  0  0  0  0  0  0  0  0
   24.4435  -32.7156  -11.6574 N   0  0  0  0  0  0  0  0  0  0  0  0
   22.7529  -33.7054  -10.2250 C   0  0  0  0  0  0  0  0  0  0  0  0
   21.7850  -32.8935  -10.8400 O   0  0  0  0  0  0  0  0  0  0  0  0
   22.2993  -34.5987   -9.4923 O   0  0  0  0  0  0  0  0  0  0  0  0
  2  1  1  1
  3  4  1  0
  3  2  1  0
  4  8  1  0
  5  6  1  0
  5  4  2  0
  6  7  1  0
  7  8  2  0
  9  2  1  0
  9 10  2  0
 12 11  1  0
 13 12  2  0
 14 12  1  0
 15 14  1  0
 16 15  1  6
 16 17  1  0
 17  9  1  0
 18 16  1  0
 19 18  2  0
 21 20  1  0
 22 21  1  0
 22 23  1  1
 24 25  1  6
 24 22  1  0
 25 18  1  0
 26 24  1  0
 27 26  1  0
 28 26  2  0
M  END
$$$$
