HQI.pdb
     RDKit          3D

 28 28  0  0  1  0  0  0  0  0999 V2000
   15.9966  -11.2063  -15.1089 N   0  0  0  0  0  0  0  0  0  0  0  0
   17.4569  -11.0167  -14.9279 C   0  0  1  0  0  0  0  0  0  0  0  0
   18.0620  -11.4161  -16.2407 C   0  0  0  0  0  0  0  0  0  0  0  0
   17.9955  -12.9208  -16.2699 C   0  0  0  0  0  0  0  0  0  0  0  0
   18.9155  -13.7451  -15.6551 C   0  0  0  0  0  0  0  0  0  0  0  0
   18.5681  -15.0435  -15.8819 N   0  0  0  0  0  0  0  0  0  0  0  0
   17.4649  -15.0057  -16.6149 C   0  0  0  0  0  0  0  0  0  0  0  0
   17.1004  -13.7189  -16.8601 N   0  0  0  0  0  0  0  0  0  0  0  0
   17.6531   -9.6206  -14.5277 C   0  0  0  0  0  0  0  0  0  0  0  0
   16.9816   -8.7372  -15.1511 O   0  0  0  0  0  0  0  0  0  0  0  0
   16.1637   -5.7297  -10.4763 N   0  0  0  0  0  0  0  0  0  0  0  0
   16.7233   -6.9402  -10.0376 C   0  0  0  0  0  0  0  0  0  0  0  0
   16.4702   -7.2795   -8.8337 O   0  0  0  0  0  0  0  0  0  0  0  0
   17.5600   -7.7656  -10.9388 C   0  0  0  0  0  0  0  0  0  0  0  0
   17.6868   -7.0852  -12.3113 C   0  0  0  0  0  0  0  0  0  0  0  0
   18.6188   -7.7630  -13.2235 C   0  0  2  0  0  0  0  0  0  0  0  0
   18.5107   -9.1404  -13.5130 N   0  0  0  0  0  0  0  0  0  0  0  0
   19.9904   -7.2546  -13.2390 C   0  0  0  0  0  0  0  0  0  0  0  0
   20.9350   -7.8694  -12.6292 O   0  0  0  0  0  0  0  0  0  0  0  0
   22.6766   -5.1385  -17.6128 C   0  0  0  0  0  0  0  0  0  0  0  0
   21.8441   -4.9952  -16.3246 C   0  0  0  0  0  0  0  0  0  0  0  0
   22.4741   -5.7647  -15.1983 C   0  0  2  0  0  0  0  0  0  0  0  0
   22.6097   -7.2157  -15.6623 C   0  0  0  0  0  0  0  0  0  0  0  0
   21.8006   -5.6410  -13.8898 C   0  0  2  0  0  0  0  0  0  0  0  0
   20.4132   -6.0690  -13.8913 N   0  0  0  0  0  0  0  0  0  0  0  0
   21.9212   -4.2653  -13.2891 C   0  0  0  0  0  0  0  0  0  0  0  0
   23.1525   -3.7572  -12.8421 O   0  0  0  0  0  0  0  0  0  0  0  0
   20.9559   -3.4972  -13.1520 O   0  0  0  0  0  0  0  0  0  0  0  0
  2  1  1  6
  3  4  1  0
  3  2  1  0
  4  8  1  0
  5  6  1  0
  5  4  2  0
  6  7  1  0
  7  8  2  0
  9  2  1  0
  9 10  2  0
 12 11  1  0
 13 12  2  0
 14 12  1  0
 15 14  1  0
 16 15  1  1
 16 17  1  0
 17  9  1  0
 18 16  1  0
 19 18  2  0
 21 20  1  0
 22 21  1  0
 22 23  1  6
 24 25  1  6
 24 22  1  0
 25 18  1  0
 26 24  1  0
 27 26  1  0
 28 26  2  0
M  END
$$$$
