HQI.pdb
     RDKit          3D

 28 28  0  0  1  0  0  0  0  0999 V2000
   24.6076  -17.5085  -17.8173 N   0  0  0  0  0  0  0  0  0  0  0  0
   24.8836  -17.5451  -16.3601 C   0  0  1  0  0  0  0  0  0  0  0  0
   24.6279  -16.1458  -15.8851 C   0  0  0  0  0  0  0  0  0  0  0  0
   25.8712  -15.3712  -16.2366 C   0  0  0  0  0  0  0  0  0  0  0  0
   26.9729  -15.9224  -16.8581 C   0  0  0  0  0  0  0  0  0  0  0  0
   27.9194  -14.9553  -17.0215 N   0  0  0  0  0  0  0  0  0  0  0  0
   27.4029  -13.8464  -16.5123 C   0  0  0  0  0  0  0  0  0  0  0  0
   26.1535  -14.0811  -16.0300 N   0  0  0  0  0  0  0  0  0  0  0  0
   24.0188  -18.5843  -15.7944 C   0  0  0  0  0  0  0  0  0  0  0  0
   22.7981  -18.5846  -16.1550 O   0  0  0  0  0  0  0  0  0  0  0  0
   23.6848  -24.5096  -13.2114 N   0  0  0  0  0  0  0  0  0  0  0  0
   24.5530  -23.6289  -12.5471 C   0  0  0  0  0  0  0  0  0  0  0  0
   25.2008  -24.1087  -11.5577 O   0  0  0  0  0  0  0  0  0  0  0  0
   24.6960  -22.2217  -12.9860 C   0  0  0  0  0  0  0  0  0  0  0  0
   23.8340  -21.9677  -14.2331 C   0  0  0  0  0  0  0  0  0  0  0  0
   23.4664  -20.5571  -14.4206 C   0  0  2  0  0  0  0  0  0  0  0  0
   24.3934  -19.5999  -14.8867 N   0  0  0  0  0  0  0  0  0  0  0  0
   22.4690  -20.0218  -13.4940 C   0  0  0  0  0  0  0  0  0  0  0  0
   22.8160  -19.4339  -12.4095 O   0  0  0  0  0  0  0  0  0  0  0  0
   18.2429  -16.7807  -14.6684 C   0  0  0  0  0  0  0  0  0  0  0  0
   18.8152  -18.1858  -14.4019 C   0  0  0  0  0  0  0  0  0  0  0  0
   19.5969  -18.2049  -13.1188 C   0  0  2  0  0  0  0  0  0  0  0  0
   20.6811  -17.1322  -13.2339 C   0  0  0  0  0  0  0  0  0  0  0  0
   20.1330  -19.5223  -12.7212 C   0  0  2  0  0  0  0  0  0  0  0  0
   21.0649  -20.0984  -13.6739 N   0  0  0  0  0  0  0  0  0  0  0  0
   19.0585  -20.5192  -12.3751 C   0  0  0  0  0  0  0  0  0  0  0  0
   19.0443  -21.8134  -12.9219 O   0  0  0  0  0  0  0  0  0  0  0  0
   18.1274  -20.2700  -11.5931 O   0  0  0  0  0  0  0  0  0  0  0  0
  2  1  1  6
  3  4  1  0
  3  2  1  0
  4  8  1  0
  5  6  1  0
  5  4  2  0
  6  7  1  0
  7  8  2  0
  9  2  1  0
  9 10  2  0
 12 11  1  0
 13 12  2  0
 14 12  1  0
 15 14  1  0
 16 15  1  1
 16 17  1  0
 17  9  1  0
 18 16  1  0
 19 18  2  0
 21 20  1  0
 22 21  1  0
 22 23  1  6
 24 25  1  6
 24 22  1  0
 25 18  1  0
 26 24  1  0
 27 26  1  0
 28 26  2  0
M  END
$$$$
