HQI.pdb
     RDKit          3D

 28 28  0  0  1  0  0  0  0  0999 V2000
   20.5356  -12.7108  -17.8437 N   0  0  0  0  0  0  0  0  0  0  0  0
   20.5360  -11.4550  -18.6337 C   0  0  1  0  0  0  0  0  0  0  0  0
   19.1760  -11.3964  -19.2629 C   0  0  0  0  0  0  0  0  0  0  0  0
   19.1820  -12.4624  -20.3274 C   0  0  0  0  0  0  0  0  0  0  0  0
   18.4600  -13.6355  -20.2474 C   0  0  0  0  0  0  0  0  0  0  0  0
   18.6954  -14.3776  -21.3662 N   0  0  0  0  0  0  0  0  0  0  0  0
   19.5380  -13.6706  -22.1051 C   0  0  0  0  0  0  0  0  0  0  0  0
   19.8448  -12.4988  -21.4875 N   0  0  0  0  0  0  0  0  0  0  0  0
   20.8604  -10.3718  -17.7014 C   0  0  0  0  0  0  0  0  0  0  0  0
   20.1820  -10.3074  -16.6264 O   0  0  0  0  0  0  0  0  0  0  0  0
   23.9848   -5.5409  -15.3012 N   0  0  0  0  0  0  0  0  0  0  0  0
   24.4071   -5.7319  -16.6263 C   0  0  0  0  0  0  0  0  0  0  0  0
   25.0533   -4.7699  -17.1606 O   0  0  0  0  0  0  0  0  0  0  0  0
   24.1090   -6.9899  -17.3489 C   0  0  0  0  0  0  0  0  0  0  0  0
   23.3631   -7.9654  -16.4243 C   0  0  0  0  0  0  0  0  0  0  0  0
   22.0326   -8.3478  -16.9181 C   0  0  2  0  0  0  0  0  0  0  0  0
   21.8559   -9.3825  -17.8620 N   0  0  0  0  0  0  0  0  0  0  0  0
   21.0485   -7.2704  -17.0206 C   0  0  0  0  0  0  0  0  0  0  0  0
   20.6855   -6.8066  -18.1587 O   0  0  0  0  0  0  0  0  0  0  0  0
   16.4197   -4.6499  -17.5599 C   0  0  0  0  0  0  0  0  0  0  0  0
   17.1587   -4.6705  -16.2084 C   0  0  0  0  0  0  0  0  0  0  0  0
   18.1019   -5.8380  -16.1382 C   0  0  2  0  0  0  0  0  0  0  0  0
   17.6612   -6.7050  -14.9578 C   0  0  0  0  0  0  0  0  0  0  0  0
   19.5372   -5.4931  -16.0926 C   0  0  2  0  0  0  0  0  0  0  0  0
   20.4188   -6.6340  -15.9213 N   0  0  0  0  0  0  0  0  0  0  0  0
   19.8587   -4.4288  -15.0768 C   0  0  0  0  0  0  0  0  0  0  0  0
   20.6383   -4.7007  -13.9399 O   0  0  0  0  0  0  0  0  0  0  0  0
   19.4649   -3.2558  -15.1744 O   0  0  0  0  0  0  0  0  0  0  0  0
  2  1  1  1
  3  4  1  0
  3  2  1  0
  4  8  1  0
  5  6  1  0
  5  4  2  0
  6  7  1  0
  7  8  2  0
  9  2  1  0
  9 10  2  0
 12 11  1  0
 13 12  2  0
 14 12  1  0
 15 14  1  0
 16 15  1  6
 16 17  1  0
 17  9  1  0
 18 16  1  0
 19 18  2  0
 21 20  1  0
 22 21  1  0
 22 23  1  1
 24 25  1  1
 24 22  1  0
 25 18  1  0
 26 24  1  0
 27 26  1  0
 28 26  2  0
M  END
$$$$
