HQI.pdb
     RDKit          3D

 28 28  0  0  1  0  0  0  0  0999 V2000
   29.1669  -20.6184  -18.5742 N   0  0  0  0  0  0  0  0  0  0  0  0
   28.5440  -21.6872  -17.7552 C   0  0  1  0  0  0  0  0  0  0  0  0
   29.6521  -22.1989  -16.8838 C   0  0  0  0  0  0  0  0  0  0  0  0
   30.4843  -23.0842  -17.7745 C   0  0  0  0  0  0  0  0  0  0  0  0
   30.1898  -23.3414  -19.0977 C   0  0  0  0  0  0  0  0  0  0  0  0
   31.1344  -24.1822  -19.6063 N   0  0  0  0  0  0  0  0  0  0  0  0
   31.9798  -24.4269  -18.6158 C   0  0  0  0  0  0  0  0  0  0  0  0
   31.5995  -23.7643  -17.4910 N   0  0  0  0  0  0  0  0  0  0  0  0
   27.4087  -21.0756  -17.0589 C   0  0  0  0  0  0  0  0  0  0  0  0
   27.5878  -19.9187  -16.5594 O   0  0  0  0  0  0  0  0  0  0  0  0
   22.8214  -17.9423  -17.5582 N   0  0  0  0  0  0  0  0  0  0  0  0
   22.3247  -18.5570  -16.3979 C   0  0  0  0  0  0  0  0  0  0  0  0
   21.4250  -17.9178  -15.7573 O   0  0  0  0  0  0  0  0  0  0  0  0
   22.8305  -19.8774  -15.9571 C   0  0  0  0  0  0  0  0  0  0  0  0
   23.9502  -20.3539  -16.8963 C   0  0  0  0  0  0  0  0  0  0  0  0
   25.1026  -20.9366  -16.1946 C   0  0  2  0  0  0  0  0  0  0  0  0
   26.1218  -21.6308  -16.8817 N   0  0  0  0  0  0  0  0  0  0  0  0
   24.8512  -21.4300  -14.8405 C   0  0  0  0  0  0  0  0  0  0  0  0
   24.3937  -22.6094  -14.6362 O   0  0  0  0  0  0  0  0  0  0  0  0
   26.0944  -20.5916   -8.8217 C   0  0  0  0  0  0  0  0  0  0  0  0
   25.4571  -21.4502   -9.9306 C   0  0  0  0  0  0  0  0  0  0  0  0
   25.7065  -20.8412  -11.2814 C   0  0  2  0  0  0  0  0  0  0  0  0
   25.7909  -19.3267  -11.0859 C   0  0  0  0  0  0  0  0  0  0  0  0
   24.7529  -21.2311  -12.3396 C   0  0  2  0  0  0  0  0  0  0  0  0
   25.0636  -20.6895  -13.6504 N   0  0  0  0  0  0  0  0  0  0  0  0
   23.3193  -20.9400  -11.9818 C   0  0  0  0  0  0  0  0  0  0  0  0
   22.6260  -21.6983  -11.0233 O   0  0  0  0  0  0  0  0  0  0  0  0
   22.6628  -20.0227  -12.4998 O   0  0  0  0  0  0  0  0  0  0  0  0
  2  1  1  6
  3  4  1  0
  3  2  1  0
  4  8  1  0
  5  6  1  0
  5  4  2  0
  6  7  1  0
  7  8  2  0
  9  2  1  0
  9 10  2  0
 12 11  1  0
 13 12  2  0
 14 12  1  0
 15 14  1  0
 16 15  1  6
 16 17  1  0
 17  9  1  0
 18 16  1  0
 19 18  2  0
 21 20  1  0
 22 21  1  0
 22 23  1  1
 24 25  1  6
 24 22  1  0
 25 18  1  0
 26 24  1  0
 27 26  1  0
 28 26  2  0
M  END
$$$$
