HQI.pdb
     RDKit          3D

 28 28  0  0  1  0  0  0  0  0999 V2000
   19.8800  -11.6041  -19.2260 N   0  0  0  0  0  0  0  0  0  0  0  0
   21.1078  -10.9614  -18.6964 C   0  0  1  0  0  0  0  0  0  0  0  0
   21.8140  -10.4260  -19.9062 C   0  0  0  0  0  0  0  0  0  0  0  0
   22.3746  -11.6348  -20.6090 C   0  0  0  0  0  0  0  0  0  0  0  0
   23.5853  -12.2169  -20.2942 C   0  0  0  0  0  0  0  0  0  0  0  0
   23.7945  -13.2794  -21.1219 N   0  0  0  0  0  0  0  0  0  0  0  0
   22.7363  -13.3392  -21.9172 C   0  0  0  0  0  0  0  0  0  0  0  0
   21.8592  -12.3444  -21.6177 N   0  0  0  0  0  0  0  0  0  0  0  0
   20.6707   -9.9656  -17.7138 C   0  0  0  0  0  0  0  0  0  0  0  0
   19.7121   -9.1989  -18.0502 O   0  0  0  0  0  0  0  0  0  0  0  0
   17.9309   -9.7519  -12.4753 N   0  0  0  0  0  0  0  0  0  0  0  0
   18.4548   -8.4495  -12.4622 C   0  0  0  0  0  0  0  0  0  0  0  0
   18.0333   -7.6772  -11.5379 O   0  0  0  0  0  0  0  0  0  0  0  0
   19.4432   -8.0139  -13.4755 C   0  0  0  0  0  0  0  0  0  0  0  0
   19.7887   -9.1827  -14.4122 C   0  0  0  0  0  0  0  0  0  0  0  0
   20.6523   -8.8021  -15.5389 C   0  0  2  0  0  0  0  0  0  0  0  0
   21.1973   -9.7620  -16.4189 N   0  0  0  0  0  0  0  0  0  0  0  0
   21.5018   -7.6292  -15.3330 C   0  0  0  0  0  0  0  0  0  0  0  0
   22.7541   -7.7490  -15.0888 O   0  0  0  0  0  0  0  0  0  0  0  0
   20.9520   -2.7438  -18.0866 C   0  0  0  0  0  0  0  0  0  0  0  0
   20.7716   -3.5754  -16.8026 C   0  0  0  0  0  0  0  0  0  0  0  0
   22.0358   -4.3159  -16.4690 C   0  0  2  0  0  0  0  0  0  0  0  0
   22.4491   -5.0916  -17.7207 C   0  0  0  0  0  0  0  0  0  0  0  0
   21.9751   -5.1644  -15.2618 C   0  0  2  0  0  0  0  0  0  0  0  0
   21.0562   -6.2838  -15.3661 N   0  0  0  0  0  0  0  0  0  0  0  0
   21.7055   -4.3843  -14.0022 C   0  0  0  0  0  0  0  0  0  0  0  0
   22.6478   -3.4887  -13.4692 O   0  0  0  0  0  0  0  0  0  0  0  0
   20.6474   -4.4761  -13.3599 O   0  0  0  0  0  0  0  0  0  0  0  0
  2  1  1  6
  3  4  1  0
  3  2  1  0
  4  8  1  0
  5  6  1  0
  5  4  2  0
  6  7  1  0
  7  8  2  0
  9  2  1  0
  9 10  2  0
 12 11  1  0
 13 12  2  0
 14 12  1  0
 15 14  1  0
 16 15  1  1
 16 17  1  0
 17  9  1  0
 18 16  1  0
 19 18  2  0
 21 20  1  0
 22 21  1  0
 22 23  1  6
 24 25  1  6
 24 22  1  0
 25 18  1  0
 26 24  1  0
 27 26  1  0
 28 26  2  0
M  END
$$$$
