HQI.pdb
     RDKit          3D

 28 28  0  0  1  0  0  0  0  0999 V2000
   20.7942  -20.3112  -16.8463 N   0  0  0  0  0  0  0  0  0  0  0  0
   21.5489  -19.2545  -16.1288 C   0  0  1  0  0  0  0  0  0  0  0  0
   20.5748  -18.6927  -15.1366 C   0  0  0  0  0  0  0  0  0  0  0  0
   19.6914  -17.7628  -15.9266 C   0  0  0  0  0  0  0  0  0  0  0  0
   20.0070  -16.4481  -16.2018 C   0  0  0  0  0  0  0  0  0  0  0  0
   18.9945  -15.8914  -16.9247 N   0  0  0  0  0  0  0  0  0  0  0  0
   18.0891  -16.8458  -17.0837 C   0  0  0  0  0  0  0  0  0  0  0  0
   18.4981  -17.9946  -16.4824 N   0  0  0  0  0  0  0  0  0  0  0  0
   22.7406  -19.8966  -15.5672 C   0  0  0  0  0  0  0  0  0  0  0  0
   22.5826  -21.0311  -15.0121 O   0  0  0  0  0  0  0  0  0  0  0  0
   29.4566  -22.6151  -15.8188 N   0  0  0  0  0  0  0  0  0  0  0  0
   28.3637  -21.8342  -16.2269 C   0  0  0  0  0  0  0  0  0  0  0  0
   28.3696  -21.4395  -17.4405 O   0  0  0  0  0  0  0  0  0  0  0  0
   27.2718  -21.4973  -15.2848 C   0  0  0  0  0  0  0  0  0  0  0  0
   26.2071  -20.6451  -15.9940 C   0  0  0  0  0  0  0  0  0  0  0  0
   25.1485  -20.1564  -15.0992 C   0  0  2  0  0  0  0  0  0  0  0  0
   24.0607  -19.3938  -15.5767 N   0  0  0  0  0  0  0  0  0  0  0  0
   25.5596  -19.8229  -13.7355 C   0  0  0  0  0  0  0  0  0  0  0  0
   26.0015  -18.6569  -13.4400 O   0  0  0  0  0  0  0  0  0  0  0  0
   23.5264  -21.5045   -8.5914 C   0  0  0  0  0  0  0  0  0  0  0  0
   24.6617  -21.6368   -9.6241 C   0  0  0  0  0  0  0  0  0  0  0  0
   24.9372  -20.3138  -10.2808 C   0  0  2  0  0  0  0  0  0  0  0  0
   23.6016  -19.7805  -10.8014 C   0  0  0  0  0  0  0  0  0  0  0  0
   25.9926  -20.3251  -11.3139 C   0  0  2  0  0  0  0  0  0  0  0  0
   25.5299  -20.7147  -12.6339 N   0  0  0  0  0  0  0  0  0  0  0  0
   27.1966  -21.1404  -10.9219 C   0  0  0  0  0  0  0  0  0  0  0  0
   28.0237  -20.7714   -9.8476 O   0  0  0  0  0  0  0  0  0  0  0  0
   27.5341  -22.1795  -11.5108 O   0  0  0  0  0  0  0  0  0  0  0  0
  2  1  1  1
  3  4  1  0
  3  2  1  0
  4  8  1  0
  5  6  1  0
  5  4  2  0
  6  7  1  0
  7  8  2  0
  9  2  1  0
  9 10  2  0
 12 11  1  0
 13 12  2  0
 14 12  1  0
 15 14  1  0
 16 15  1  6
 16 17  1  0
 17  9  1  0
 18 16  1  0
 19 18  2  0
 21 20  1  0
 22 21  1  0
 22 23  1  6
 24 25  1  6
 24 22  1  0
 25 18  1  0
 26 24  1  0
 27 26  1  0
 28 26  2  0
M  END
$$$$
