HQI.pdb
     RDKit          3D

 28 28  0  0  1  0  0  0  0  0999 V2000
   27.0625  -24.3405  -16.9891 N   0  0  0  0  0  0  0  0  0  0  0  0
   27.2889  -23.1301  -16.1615 C   0  0  1  0  0  0  0  0  0  0  0  0
   28.2880  -22.3192  -16.9317 C   0  0  0  0  0  0  0  0  0  0  0  0
   29.5724  -23.1039  -16.8697 C   0  0  0  0  0  0  0  0  0  0  0  0
   30.3956  -23.3220  -17.9554 C   0  0  0  0  0  0  0  0  0  0  0  0
   31.4626  -24.0716  -17.5587 N   0  0  0  0  0  0  0  0  0  0  0  0
   31.2897  -24.3006  -16.2650 C   0  0  0  0  0  0  0  0  0  0  0  0
   30.1424  -23.7168  -15.8276 N   0  0  0  0  0  0  0  0  0  0  0  0
   25.9772  -22.5092  -15.9572 C   0  0  0  0  0  0  0  0  0  0  0  0
   24.9520  -23.2350  -16.1628 O   0  0  0  0  0  0  0  0  0  0  0  0
   21.3019  -23.0968  -13.8193 N   0  0  0  0  0  0  0  0  0  0  0  0
   20.9746  -21.7653  -14.1208 C   0  0  0  0  0  0  0  0  0  0  0  0
   19.7681  -21.4131  -13.8996 O   0  0  0  0  0  0  0  0  0  0  0  0
   21.9893  -20.8342  -14.6657 C   0  0  0  0  0  0  0  0  0  0  0  0
   23.3337  -21.5597  -14.8361 C   0  0  0  0  0  0  0  0  0  0  0  0
   24.4048  -20.7034  -15.3648 C   0  0  2  0  0  0  0  0  0  0  0  0
   25.7202  -21.1815  -15.5488 N   0  0  0  0  0  0  0  0  0  0  0  0
   24.3276  -19.2847  -15.0166 C   0  0  0  0  0  0  0  0  0  0  0  0
   24.1758  -18.9047  -13.8021 O   0  0  0  0  0  0  0  0  0  0  0  0
   27.9140  -14.7186  -15.8263 C   0  0  0  0  0  0  0  0  0  0  0  0
   26.4567  -15.0379  -15.4426 C   0  0  0  0  0  0  0  0  0  0  0  0
   26.0883  -16.4295  -15.8731 C   0  0  2  0  0  0  0  0  0  0  0  0
   26.3873  -16.5340  -17.3694 C   0  0  0  0  0  0  0  0  0  0  0  0
   24.7171  -16.8581  -15.5305 C   0  0  2  0  0  0  0  0  0  0  0  0
   24.3963  -18.2131  -15.9422 N   0  0  0  0  0  0  0  0  0  0  0  0
   23.6591  -15.9020  -16.0145 C   0  0  0  0  0  0  0  0  0  0  0  0
   22.6033  -16.3215  -16.8413 O   0  0  0  0  0  0  0  0  0  0  0  0
   23.6465  -14.6966  -15.7187 O   0  0  0  0  0  0  0  0  0  0  0  0
  2  1  1  6
  3  4  1  0
  3  2  1  0
  4  8  1  0
  5  6  1  0
  5  4  2  0
  6  7  1  0
  7  8  2  0
  9  2  1  0
  9 10  2  0
 12 11  1  0
 13 12  2  0
 14 12  1  0
 15 14  1  0
 16 15  1  1
 16 17  1  0
 17  9  1  0
 18 16  1  0
 19 18  2  0
 21 20  1  0
 22 21  1  0
 22 23  1  6
 24 25  1  6
 24 22  1  0
 25 18  1  0
 26 24  1  0
 27 26  1  0
 28 26  2  0
M  END
$$$$
