HQI.pdb
     RDKit          3D

 28 28  0  0  1  0  0  0  0  0999 V2000
   19.1824  -15.5022  -17.9908 N   0  0  0  0  0  0  0  0  0  0  0  0
   18.5073  -14.4817  -17.1518 C   0  0  1  0  0  0  0  0  0  0  0  0
   18.5177  -15.0551  -15.7661 C   0  0  0  0  0  0  0  0  0  0  0  0
   17.3541  -16.0108  -15.7206 C   0  0  0  0  0  0  0  0  0  0  0  0
   16.5177  -16.2583  -16.7897 C   0  0  0  0  0  0  0  0  0  0  0  0
   15.5698  -17.1615  -16.4106 N   0  0  0  0  0  0  0  0  0  0  0  0
   15.8269  -17.4538  -15.1440 C   0  0  0  0  0  0  0  0  0  0  0  0
   16.9127  -16.7619  -14.7069 N   0  0  0  0  0  0  0  0  0  0  0  0
   19.2474  -13.2301  -17.3353 C   0  0  0  0  0  0  0  0  0  0  0  0
   20.4996  -13.3205  -17.5451 O   0  0  0  0  0  0  0  0  0  0  0  0
   18.1863   -7.5150  -19.8623 N   0  0  0  0  0  0  0  0  0  0  0  0
   19.5432   -7.5134  -19.5022 C   0  0  0  0  0  0  0  0  0  0  0  0
   20.2359   -6.5196  -19.9035 O   0  0  0  0  0  0  0  0  0  0  0  0
   20.1214   -8.6153  -18.6991 C   0  0  0  0  0  0  0  0  0  0  0  0
   19.0617   -9.7013  -18.4531 C   0  0  0  0  0  0  0  0  0  0  0  0
   19.5232  -10.7913  -17.5820 C   0  0  2  0  0  0  0  0  0  0  0  0
   18.7200  -11.9198  -17.3094 N   0  0  0  0  0  0  0  0  0  0  0  0
   20.4080  -10.4074  -16.4822 C   0  0  0  0  0  0  0  0  0  0  0  0
   19.9971  -10.4016  -15.2684 O   0  0  0  0  0  0  0  0  0  0  0  0
   26.1064  -10.6943  -14.3436 C   0  0  0  0  0  0  0  0  0  0  0  0
   24.7309  -10.0095  -14.2337 C   0  0  0  0  0  0  0  0  0  0  0  0
   23.9179  -10.2518  -15.4738 C   0  0  2  0  0  0  0  0  0  0  0  0
   24.7780   -9.8333  -16.6673 C   0  0  0  0  0  0  0  0  0  0  0  0
   22.5780   -9.6308  -15.4862 C   0  0  2  0  0  0  0  0  0  0  0  0
   21.7593  -10.0034  -16.6259 N   0  0  0  0  0  0  0  0  0  0  0  0
   22.6181   -8.1324  -15.3407 C   0  0  0  0  0  0  0  0  0  0  0  0
   22.7897   -7.5135  -14.0910 O   0  0  0  0  0  0  0  0  0  0  0  0
   22.5062   -7.3537  -16.3007 O   0  0  0  0  0  0  0  0  0  0  0  0
  2  1  1  6
  3  4  1  0
  3  2  1  0
  4  8  1  0
  5  6  1  0
  5  4  2  0
  6  7  1  0
  7  8  2  0
  9  2  1  0
  9 10  2  0
 12 11  1  0
 13 12  2  0
 14 12  1  0
 15 14  1  0
 16 15  1  1
 16 17  1  0
 17  9  1  0
 18 16  1  0
 19 18  2  0
 21 20  1  0
 22 21  1  0
 22 23  1  6
 24 25  1  6
 24 22  1  0
 25 18  1  0
 26 24  1  0
 27 26  1  0
 28 26  2  0
M  END
$$$$
