HIW.pdb
     RDKit          3D

 33 35  0  0  1  0  0  0  0  0999 V2000
   23.1780  -19.7315  -15.2111 N   0  0  0  0  0  0  0  0  0  0  0  0
   23.6881  -19.5040  -13.8824 C   0  0  1  0  0  0  0  0  0  0  0  0
   22.5711  -19.6837  -12.8951 C   0  0  0  0  0  0  0  0  0  0  0  0
   21.6024  -18.5718  -13.0547 C   0  0  0  0  0  0  0  0  0  0  0  0
   21.6259  -17.5097  -13.9175 C   0  0  0  0  0  0  0  0  0  0  0  0
   20.5354  -16.7677  -13.6941 N   0  0  0  0  0  0  0  0  0  0  0  0
   19.8303  -17.3471  -12.7070 C   0  0  0  0  0  0  0  0  0  0  0  0
   20.4927  -18.4496  -12.3241 N   0  0  0  0  0  0  0  0  0  0  0  0
   24.7862  -20.4758  -13.5239 C   0  0  0  0  0  0  0  0  0  0  0  0
   24.5969  -21.7152  -13.5836 O   0  0  0  0  0  0  0  0  0  0  0  0
   28.2119  -18.8312  -15.2593 C   0  0  0  0  0  0  0  0  0  0  0  0
   28.4448  -20.2628  -14.8519 C   0  0  0  0  0  0  0  0  0  0  0  0
   28.4382  -20.3606  -13.3245 C   0  0  2  0  0  0  0  0  0  0  0  0
   29.6099  -21.1878  -12.8652 C   0  0  0  0  0  0  0  0  0  0  0  0
   27.1506  -20.9805  -12.8442 C   0  0  2  0  0  0  0  0  0  0  0  0
   26.0555  -20.0102  -13.1115 N   0  0  0  0  0  0  0  0  0  0  0  0
   27.1587  -21.1856  -11.3912 C   0  0  0  0  0  0  0  0  0  0  0  0
   28.2969  -21.4405  -10.8295 O   0  0  0  0  0  0  0  0  0  0  0  0
   26.0403  -21.1260  -10.5471 N   0  0  0  0  0  0  0  0  0  0  0  0
   26.2628  -21.1179   -9.0748 C   0  0  1  0  0  0  0  0  0  0  0  0
   27.1333  -19.9122   -8.8565 C   0  0  0  0  0  0  0  0  0  0  0  0
   27.2803  -19.5781   -7.4363 C   0  0  0  0  0  0  0  0  0  0  0  0
   26.5419  -18.6360   -6.7064 C   0  0  0  0  0  0  0  0  0  0  0  0
   26.9979  -18.5903   -5.4466 N   0  0  0  0  0  0  0  0  0  0  0  0
   28.0095  -19.4565   -5.2879 C   0  0  0  0  0  0  0  0  0  0  0  0
   28.8086  -19.8127   -4.2043 C   0  0  0  0  0  0  0  0  0  0  0  0
   29.7537  -20.7764   -4.4071 C   0  0  0  0  0  0  0  0  0  0  0  0
   29.9463  -21.4008   -5.6189 C   0  0  0  0  0  0  0  0  0  0  0  0
   29.1626  -21.0491   -6.6794 C   0  0  0  0  0  0  0  0  0  0  0  0
   28.1965  -20.0822   -6.5258 C   0  0  0  0  0  0  0  0  0  0  0  0
   24.9698  -21.1102   -8.3984 C   0  0  0  0  0  0  0  0  0  0  0  0
   24.7961  -21.6077   -7.1107 O   0  0  0  0  0  0  0  0  0  0  0  0
   23.9556  -20.6424   -8.9922 O   0  0  0  0  0  0  0  0  0  0  0  0
  2  1  1  6
  2  3  1  0
  3  4  1  0
  4  8  1  0
  5  4  2  0
  5  6  1  0
  6  7  1  0
  8  7  2  0
  9  2  1  0
  9 10  2  0
 12 11  1  0
 12 13  1  0
 13 14  1  6
 15 13  1  0
 15 16  1  1
 16  9  1  0
 17 15  1  0
 18 17  2  0
 19 17  1  0
 20 21  1  6
 20 19  1  0
 21 22  1  0
 22 30  1  0
 23 22  2  0
 23 24  1  0
 24 25  1  0
 25 26  1  0
 26 27  2  0
 28 27  1  0
 29 28  2  0
 30 25  2  0
 30 29  1  0
 31 32  1  0
 31 20  1  0
 33 31  2  0
M  END
$$$$
