HIW.pdb
     RDKit          3D

 33 35  0  0  1  0  0  0  0  0999 V2000
   24.9284  -19.9249  -16.2325 N   0  0  0  0  0  0  0  0  0  0  0  0
   26.0245  -19.9811  -15.2982 C   0  0  1  0  0  0  0  0  0  0  0  0
   27.0790  -19.0013  -15.7257 C   0  0  0  0  0  0  0  0  0  0  0  0
   27.6535  -19.4446  -17.0195 C   0  0  0  0  0  0  0  0  0  0  0  0
   28.5235  -20.4673  -17.2845 C   0  0  0  0  0  0  0  0  0  0  0  0
   28.7562  -20.4850  -18.6017 N   0  0  0  0  0  0  0  0  0  0  0  0
   28.0469  -19.4918  -19.1653 C   0  0  0  0  0  0  0  0  0  0  0  0
   27.3765  -18.8626  -18.1877 N   0  0  0  0  0  0  0  0  0  0  0  0
   25.5933  -19.6184  -13.8978 C   0  0  0  0  0  0  0  0  0  0  0  0
   25.5500  -18.4206  -13.5252 O   0  0  0  0  0  0  0  0  0  0  0  0
   20.9625  -21.0024  -12.7405 C   0  0  0  0  0  0  0  0  0  0  0  0
   22.2985  -20.3066  -12.7620 C   0  0  0  0  0  0  0  0  0  0  0  0
   23.2018  -20.9145  -11.6864 C   0  0  2  0  0  0  0  0  0  0  0  0
   22.5607  -20.7484  -10.3338 C   0  0  0  0  0  0  0  0  0  0  0  0
   24.5546  -20.2490  -11.7000 C   0  0  2  0  0  0  0  0  0  0  0  0
   25.2283  -20.6225  -12.9724 N   0  0  0  0  0  0  0  0  0  0  0  0
   25.4167  -20.7555  -10.6261 C   0  0  0  0  0  0  0  0  0  0  0  0
   25.5483  -22.0390  -10.5198 O   0  0  0  0  0  0  0  0  0  0  0  0
   26.1208  -19.9724   -9.6999 N   0  0  0  0  0  0  0  0  0  0  0  0
   26.8970  -20.6624   -8.6329 C   0  0  1  0  0  0  0  0  0  0  0  0
   28.0030  -19.6941   -8.3192 C   0  0  0  0  0  0  0  0  0  0  0  0
   28.7961  -20.1080   -7.1574 C   0  0  0  0  0  0  0  0  0  0  0  0
   29.7302  -21.1517   -7.0972 C   0  0  0  0  0  0  0  0  0  0  0  0
   30.2172  -21.2436   -5.8516 N   0  0  0  0  0  0  0  0  0  0  0  0
   29.6583  -20.3119   -5.0652 C   0  0  0  0  0  0  0  0  0  0  0  0
   29.8152  -19.9652   -3.7255 C   0  0  0  0  0  0  0  0  0  0  0  0
   29.0773  -18.9181   -3.2542 C   0  0  0  0  0  0  0  0  0  0  0  0
   28.1988  -18.2021   -4.0359 C   0  0  0  0  0  0  0  0  0  0  0  0
   28.0462  -18.5447   -5.3481 C   0  0  0  0  0  0  0  0  0  0  0  0
   28.7669  -19.5934   -5.8702 C   0  0  0  0  0  0  0  0  0  0  0  0
   25.9997  -20.9948   -7.5312 C   0  0  0  0  0  0  0  0  0  0  0  0
   26.2811  -22.0035   -6.6152 O   0  0  0  0  0  0  0  0  0  0  0  0
   24.9171  -20.3555   -7.3912 O   0  0  0  0  0  0  0  0  0  0  0  0
  2  1  1  6
  2  3  1  0
  3  4  1  0
  4  8  1  0
  5  4  2  0
  5  6  1  0
  6  7  1  0
  8  7  2  0
  9  2  1  0
  9 10  2  0
 12 11  1  0
 12 13  1  0
 13 14  1  1
 15 13  1  0
 15 16  1  6
 16  9  1  0
 17 15  1  0
 18 17  2  0
 19 17  1  0
 20 21  1  1
 20 19  1  0
 21 22  1  0
 22 30  1  0
 23 22  2  0
 23 24  1  0
 24 25  1  0
 25 26  1  0
 26 27  2  0
 28 27  1  0
 29 28  2  0
 30 25  2  0
 30 29  1  0
 31 32  1  0
 31 20  1  0
 33 31  2  0
M  END
$$$$
