HIW.pdb
     RDKit          3D

 33 35  0  0  1  0  0  0  0  0999 V2000
   23.9772  -22.4879  -16.8972 N   0  0  0  0  0  0  0  0  0  0  0  0
   23.8570  -21.6603  -15.7233 C   0  0  1  0  0  0  0  0  0  0  0  0
   22.5611  -21.9781  -15.0345 C   0  0  0  0  0  0  0  0  0  0  0  0
   21.4429  -21.4012  -15.8201 C   0  0  0  0  0  0  0  0  0  0  0  0
   21.0888  -20.0922  -16.0045 C   0  0  0  0  0  0  0  0  0  0  0  0
   20.0098  -20.0602  -16.7945 N   0  0  0  0  0  0  0  0  0  0  0  0
   19.6829  -21.3260  -17.1078 C   0  0  0  0  0  0  0  0  0  0  0  0
   20.5666  -22.1372  -16.5061 N   0  0  0  0  0  0  0  0  0  0  0  0
   24.9774  -21.9048  -14.7417 C   0  0  0  0  0  0  0  0  0  0  0  0
   25.2865  -23.0698  -14.3914 O   0  0  0  0  0  0  0  0  0  0  0  0
   29.9040  -21.2534  -12.8703 C   0  0  0  0  0  0  0  0  0  0  0  0
   28.9787  -20.1561  -12.4130 C   0  0  0  0  0  0  0  0  0  0  0  0
   27.8439  -19.9969  -13.4276 C   0  0  2  0  0  0  0  0  0  0  0  0
   27.1978  -18.6473  -13.2569 C   0  0  0  0  0  0  0  0  0  0  0  0
   26.8179  -21.0860  -13.2420 C   0  0  2  0  0  0  0  0  0  0  0  0
   25.7049  -20.8241  -14.1932 N   0  0  0  0  0  0  0  0  0  0  0  0
   26.2196  -21.0420  -11.9029 C   0  0  0  0  0  0  0  0  0  0  0  0
   25.1413  -20.3415  -11.7521 O   0  0  0  0  0  0  0  0  0  0  0  0
   26.7082  -21.6972  -10.7631 N   0  0  0  0  0  0  0  0  0  0  0  0
   26.0611  -21.4164   -9.4518 C   0  0  1  0  0  0  0  0  0  0  0  0
   27.1615  -21.6579   -8.4568 C   0  0  0  0  0  0  0  0  0  0  0  0
   27.3119  -20.5492   -7.5089 C   0  0  0  0  0  0  0  0  0  0  0  0
   26.7199  -19.2808   -7.5874 C   0  0  0  0  0  0  0  0  0  0  0  0
   27.1310  -18.5316   -6.5546 N   0  0  0  0  0  0  0  0  0  0  0  0
   27.9727  -19.2316   -5.7799 C   0  0  0  0  0  0  0  0  0  0  0  0
   28.6592  -18.9445   -4.6027 C   0  0  0  0  0  0  0  0  0  0  0  0
   29.4319  -19.9333   -4.0657 C   0  0  0  0  0  0  0  0  0  0  0  0
   29.5585  -21.1824   -4.6307 C   0  0  0  0  0  0  0  0  0  0  0  0
   28.8856  -21.4607   -5.7849 C   0  0  0  0  0  0  0  0  0  0  0  0
   28.0945  -20.4970   -6.3656 C   0  0  0  0  0  0  0  0  0  0  0  0
   25.4993  -20.0699   -9.4772 C   0  0  0  0  0  0  0  0  0  0  0  0
   24.2575  -19.7667   -8.9277 O   0  0  0  0  0  0  0  0  0  0  0  0
   26.1495  -19.1306  -10.0204 O   0  0  0  0  0  0  0  0  0  0  0  0
  2  1  1  6
  2  3  1  0
  3  4  1  0
  4  8  1  0
  5  4  2  0
  5  6  1  0
  6  7  1  0
  8  7  2  0
  9  2  1  0
  9 10  2  0
 12 11  1  0
 12 13  1  0
 13 14  1  1
 15 13  1  0
 15 16  1  6
 16  9  1  0
 17 15  1  0
 18 17  2  0
 19 17  1  0
 20 21  1  1
 20 19  1  0
 21 22  1  0
 22 30  1  0
 23 22  2  0
 23 24  1  0
 24 25  1  0
 25 26  1  0
 26 27  2  0
 28 27  1  0
 29 28  2  0
 30 25  2  0
 30 29  1  0
 31 32  1  0
 31 20  1  0
 33 31  2  0
M  END
$$$$
