HIW.pdb
     RDKit          3D

 33 35  0  0  1  0  0  0  0  0999 V2000
   28.1503  -19.6909  -19.9292 N   0  0  0  0  0  0  0  0  0  0  0  0
   27.2648  -20.4638  -19.0950 C   0  0  1  0  0  0  0  0  0  0  0  0
   27.4927  -21.9233  -19.3645 C   0  0  0  0  0  0  0  0  0  0  0  0
   26.9049  -22.2682  -20.6820 C   0  0  0  0  0  0  0  0  0  0  0  0
   25.6149  -22.5910  -21.0056 C   0  0  0  0  0  0  0  0  0  0  0  0
   25.5615  -22.8230  -22.3220 N   0  0  0  0  0  0  0  0  0  0  0  0
   26.7952  -22.6507  -22.8275 C   0  0  0  0  0  0  0  0  0  0  0  0
   27.6082  -22.3116  -21.8150 N   0  0  0  0  0  0  0  0  0  0  0  0
   27.5130  -20.2180  -17.6264 C   0  0  0  0  0  0  0  0  0  0  0  0
   28.6596  -20.3530  -17.1337 O   0  0  0  0  0  0  0  0  0  0  0  0
   24.5914  -16.2914  -15.5091 C   0  0  0  0  0  0  0  0  0  0  0  0
   24.9457  -17.7429  -15.7015 C   0  0  0  0  0  0  0  0  0  0  0  0
   26.3765  -17.9824  -15.2135 C   0  0  2  0  0  0  0  0  0  0  0  0
   27.3305  -17.1235  -16.0011 C   0  0  0  0  0  0  0  0  0  0  0  0
   26.7463  -19.4360  -15.3664 C   0  0  2  0  0  0  0  0  0  0  0  0
   26.4567  -19.8299  -16.7711 N   0  0  0  0  0  0  0  0  0  0  0  0
   25.9067  -20.2983  -14.5270 C   0  0  0  0  0  0  0  0  0  0  0  0
   25.0147  -21.0252  -15.1203 O   0  0  0  0  0  0  0  0  0  0  0  0
   25.9843  -20.4128  -13.1313 N   0  0  0  0  0  0  0  0  0  0  0  0
   25.1147  -21.4128  -12.4525 C   0  0  1  0  0  0  0  0  0  0  0  0
   26.0428  -22.0839  -11.4791 C   0  0  0  0  0  0  0  0  0  0  0  0
   26.7704  -21.1216  -10.6455 C   0  0  0  0  0  0  0  0  0  0  0  0
   27.7955  -20.2550  -11.0500 C   0  0  0  0  0  0  0  0  0  0  0  0
   28.2355  -19.5594   -9.9918 N   0  0  0  0  0  0  0  0  0  0  0  0
   27.5572  -19.9129   -8.8900 C   0  0  0  0  0  0  0  0  0  0  0  0
   27.6002  -19.4989   -7.5610 C   0  0  0  0  0  0  0  0  0  0  0  0
   26.7218  -20.0777   -6.6911 C   0  0  0  0  0  0  0  0  0  0  0  0
   25.8099  -21.0380   -7.0674 C   0  0  0  0  0  0  0  0  0  0  0  0
   25.7708  -21.4426   -8.3701 C   0  0  0  0  0  0  0  0  0  0  0  0
   26.6363  -20.8899   -9.2851 C   0  0  0  0  0  0  0  0  0  0  0  0
   23.9621  -20.7279  -11.8766 C   0  0  0  0  0  0  0  0  0  0  0  0
   23.8457  -19.3415  -11.8622 O   0  0  0  0  0  0  0  0  0  0  0  0
   23.0256  -21.4042  -11.3610 O   0  0  0  0  0  0  0  0  0  0  0  0
  2  1  1  6
  2  3  1  0
  3  4  1  0
  4  8  1  0
  5  4  2  0
  5  6  1  0
  6  7  1  0
  8  7  2  0
  9  2  1  0
  9 10  2  0
 12 11  1  0
 12 13  1  0
 13 14  1  6
 15 13  1  0
 15 16  1  6
 16  9  1  0
 17 15  1  0
 18 17  2  0
 19 17  1  0
 20 21  1  1
 20 19  1  0
 21 22  1  0
 22 30  1  0
 23 22  2  0
 23 24  1  0
 24 25  1  0
 25 26  1  0
 26 27  2  0
 28 27  1  0
 29 28  2  0
 30 25  2  0
 30 29  1  0
 31 32  1  0
 31 20  1  0
 33 31  2  0
M  END
$$$$
