HIW.pdb
     RDKit          3D

 33 35  0  0  1  0  0  0  0  0999 V2000
   23.7301  -16.8181  -17.9720 N   0  0  0  0  0  0  0  0  0  0  0  0
   24.0439  -17.1459  -16.6040 C   0  0  1  0  0  0  0  0  0  0  0  0
   22.7635  -17.3551  -15.8479 C   0  0  0  0  0  0  0  0  0  0  0  0
   21.9714  -16.1015  -15.8839 C   0  0  0  0  0  0  0  0  0  0  0  0
   20.7592  -15.8504  -16.4675 C   0  0  0  0  0  0  0  0  0  0  0  0
   20.4418  -14.5720  -16.2342 N   0  0  0  0  0  0  0  0  0  0  0  0
   21.4338  -14.0191  -15.5148 C   0  0  0  0  0  0  0  0  0  0  0  0
   22.3636  -14.9642  -15.3068 N   0  0  0  0  0  0  0  0  0  0  0  0
   24.8584  -18.4124  -16.4983 C   0  0  0  0  0  0  0  0  0  0  0  0
   24.4244  -19.4993  -16.9519 O   0  0  0  0  0  0  0  0  0  0  0  0
   28.9754  -17.7646  -18.2261 C   0  0  0  0  0  0  0  0  0  0  0  0
   28.1802  -19.0061  -17.9164 C   0  0  0  0  0  0  0  0  0  0  0  0
   28.3005  -19.3236  -16.4239 C   0  0  2  0  0  0  0  0  0  0  0  0
   29.2342  -20.4890  -16.2280 C   0  0  0  0  0  0  0  0  0  0  0  0
   26.9461  -19.6461  -15.8455 C   0  0  2  0  0  0  0  0  0  0  0  0
   26.1313  -18.4024  -15.8839 N   0  0  0  0  0  0  0  0  0  0  0  0
   27.0387  -20.0213  -14.4299 C   0  0  0  0  0  0  0  0  0  0  0  0
   27.9257  -19.4154  -13.7072 O   0  0  0  0  0  0  0  0  0  0  0  0
   26.2463  -20.9792  -13.7806 N   0  0  0  0  0  0  0  0  0  0  0  0
   26.5244  -21.2766  -12.3484 C   0  0  1  0  0  0  0  0  0  0  0  0
   26.3014  -19.9567  -11.6646 C   0  0  0  0  0  0  0  0  0  0  0  0
   26.0298  -20.1080  -10.2315 C   0  0  0  0  0  0  0  0  0  0  0  0
   24.7869  -20.3343   -9.6236 C   0  0  0  0  0  0  0  0  0  0  0  0
   24.9417  -20.3751   -8.2927 N   0  0  0  0  0  0  0  0  0  0  0  0
   26.2299  -20.1878   -7.9697 C   0  0  0  0  0  0  0  0  0  0  0  0
   26.9229  -20.1547   -6.7621 C   0  0  0  0  0  0  0  0  0  0  0  0
   28.2725  -19.9578   -6.8143 C   0  0  0  0  0  0  0  0  0  0  0  0
   28.9658  -19.7933   -7.9924 C   0  0  0  0  0  0  0  0  0  0  0  0
   28.2841  -19.8250   -9.1742 C   0  0  0  0  0  0  0  0  0  0  0  0
   26.9225  -20.0198   -9.1743 C   0  0  0  0  0  0  0  0  0  0  0  0
   25.6705  -22.3784  -11.9168 C   0  0  0  0  0  0  0  0  0  0  0  0
   25.9963  -23.2014  -10.8433 O   0  0  0  0  0  0  0  0  0  0  0  0
   24.5915  -22.6128  -12.5340 O   0  0  0  0  0  0  0  0  0  0  0  0
  2  1  1  6
  2  3  1  0
  3  4  1  0
  4  8  1  0
  5  4  2  0
  5  6  1  0
  6  7  1  0
  8  7  2  0
  9  2  1  0
  9 10  2  0
 12 11  1  0
 12 13  1  0
 13 14  1  6
 15 13  1  0
 15 16  1  1
 16  9  1  0
 17 15  1  0
 18 17  2  0
 19 17  1  0
 20 21  1  1
 20 19  1  0
 21 22  1  0
 22 30  1  0
 23 22  2  0
 23 24  1  0
 24 25  1  0
 25 26  1  0
 26 27  2  0
 28 27  1  0
 29 28  2  0
 30 25  2  0
 30 29  1  0
 31 32  1  0
 31 20  1  0
 33 31  2  0
M  END
$$$$
