HIW.pdb
     RDKit          3D

 33 35  0  0  1  0  0  0  0  0999 V2000
   26.5560  -22.3482  -16.9749 N   0  0  0  0  0  0  0  0  0  0  0  0
   25.6038  -21.3925  -16.4676 C   0  0  1  0  0  0  0  0  0  0  0  0
   24.4944  -21.2336  -17.4669 C   0  0  0  0  0  0  0  0  0  0  0  0
   25.0582  -20.7080  -18.7343 C   0  0  0  0  0  0  0  0  0  0  0  0
   24.7280  -21.0079  -20.0282 C   0  0  0  0  0  0  0  0  0  0  0  0
   25.5086  -20.2817  -20.8360 N   0  0  0  0  0  0  0  0  0  0  0  0
   26.3209  -19.5325  -20.0704 C   0  0  0  0  0  0  0  0  0  0  0  0
   26.0361  -19.8019  -18.7869 N   0  0  0  0  0  0  0  0  0  0  0  0
   24.9929  -21.8410  -15.1622 C   0  0  0  0  0  0  0  0  0  0  0  0
   24.6840  -23.0427  -14.9726 O   0  0  0  0  0  0  0  0  0  0  0  0
   27.1056  -20.8421  -10.5630 C   0  0  0  0  0  0  0  0  0  0  0  0
   26.3003  -21.4577  -11.6773 C   0  0  0  0  0  0  0  0  0  0  0  0
   24.9112  -20.8158  -11.7108 C   0  0  2  0  0  0  0  0  0  0  0  0
   24.1990  -21.0820  -10.4109 C   0  0  0  0  0  0  0  0  0  0  0  0
   24.1066  -21.3664  -12.8608 C   0  0  2  0  0  0  0  0  0  0  0  0
   24.7539  -20.9148  -14.1215 N   0  0  0  0  0  0  0  0  0  0  0  0
   22.7490  -20.8100  -12.8855 C   0  0  0  0  0  0  0  0  0  0  0  0
   21.9764  -21.0728  -11.8805 O   0  0  0  0  0  0  0  0  0  0  0  0
   22.2078  -20.0099  -13.9023 N   0  0  0  0  0  0  0  0  0  0  0  0
   20.8089  -19.5223  -13.7521 C   0  0  1  0  0  0  0  0  0  0  0  0
   20.8274  -18.1826  -14.4333 C   0  0  0  0  0  0  0  0  0  0  0  0
   20.7599  -18.2966  -15.8937 C   0  0  0  0  0  0  0  0  0  0  0  0
   19.6304  -18.5930  -16.6694 C   0  0  0  0  0  0  0  0  0  0  0  0
   19.9788  -18.6476  -17.9627 N   0  0  0  0  0  0  0  0  0  0  0  0
   21.2901  -18.4019  -18.1004 C   0  0  0  0  0  0  0  0  0  0  0  0
   22.1425  -18.3211  -19.1988 C   0  0  0  0  0  0  0  0  0  0  0  0
   23.4525  -18.0211  -18.9602 C   0  0  0  0  0  0  0  0  0  0  0  0
   23.9576  -17.7986  -17.6989 C   0  0  0  0  0  0  0  0  0  0  0  0
   23.1204  -17.8794  -16.6243 C   0  0  0  0  0  0  0  0  0  0  0  0
   21.7915  -18.1798  -16.8127 C   0  0  0  0  0  0  0  0  0  0  0  0
   19.8965  -20.5158  -14.3087 C   0  0  0  0  0  0  0  0  0  0  0  0
   18.5185  -20.4510  -14.1273 O   0  0  0  0  0  0  0  0  0  0  0  0
   20.3585  -21.4833  -14.9800 O   0  0  0  0  0  0  0  0  0  0  0  0
  2  1  1  6
  2  3  1  0
  3  4  1  0
  4  8  1  0
  5  4  2  0
  5  6  1  0
  6  7  1  0
  8  7  2  0
  9  2  1  0
  9 10  2  0
 12 11  1  0
 12 13  1  0
 13 14  1  1
 15 13  1  0
 15 16  1  6
 16  9  1  0
 17 15  1  0
 18 17  2  0
 19 17  1  0
 20 21  1  6
 20 19  1  0
 21 22  1  0
 22 30  1  0
 23 22  2  0
 23 24  1  0
 24 25  1  0
 25 26  1  0
 26 27  2  0
 28 27  1  0
 29 28  2  0
 30 25  2  0
 30 29  1  0
 31 32  1  0
 31 20  1  0
 33 31  2  0
M  END
$$$$
