HIW.pdb
     RDKit          3D

 33 35  0  0  1  0  0  0  0  0999 V2000
   27.4805  -21.4992  -17.4901 N   0  0  0  0  0  0  0  0  0  0  0  0
   27.3331  -22.0821  -16.1803 C   0  0  1  0  0  0  0  0  0  0  0  0
   28.6777  -22.5481  -15.7010 C   0  0  0  0  0  0  0  0  0  0  0  0
   29.0971  -23.7211  -16.5063 C   0  0  0  0  0  0  0  0  0  0  0  0
   28.7276  -25.0342  -16.3954 C   0  0  0  0  0  0  0  0  0  0  0  0
   29.3657  -25.7277  -17.3447 N   0  0  0  0  0  0  0  0  0  0  0  0
   30.1275  -24.8717  -18.0476 C   0  0  0  0  0  0  0  0  0  0  0  0
   29.9549  -23.6475  -17.5255 N   0  0  0  0  0  0  0  0  0  0  0  0
   26.8001  -21.0893  -15.1759 C   0  0  0  0  0  0  0  0  0  0  0  0
   27.4163  -20.0233  -14.9318 O   0  0  0  0  0  0  0  0  0  0  0  0
   21.4893  -18.8873  -13.4362 C   0  0  0  0  0  0  0  0  0  0  0  0
   22.9045  -19.1383  -12.9848 C   0  0  0  0  0  0  0  0  0  0  0  0
   23.5901  -20.0835  -13.9744 C   0  0  2  0  0  0  0  0  0  0  0  0
   22.8587  -21.3996  -14.0071 C   0  0  0  0  0  0  0  0  0  0  0  0
   25.0282  -20.3035  -13.5790 C   0  0  2  0  0  0  0  0  0  0  0  0
   25.5921  -21.3389  -14.4857 N   0  0  0  0  0  0  0  0  0  0  0  0
   25.1376  -20.8549  -12.2236 C   0  0  0  0  0  0  0  0  0  0  0  0
   24.7505  -22.0768  -12.0418 O   0  0  0  0  0  0  0  0  0  0  0  0
   25.6309  -20.1776  -11.0988 N   0  0  0  0  0  0  0  0  0  0  0  0
   25.5295  -20.8421   -9.7702 C   0  0  1  0  0  0  0  0  0  0  0  0
   26.8509  -20.5374   -9.1218 C   0  0  0  0  0  0  0  0  0  0  0  0
   26.7921  -20.6336   -7.6598 C   0  0  0  0  0  0  0  0  0  0  0  0
   25.8976  -21.3963   -6.8959 C   0  0  0  0  0  0  0  0  0  0  0  0
   26.1351  -21.1903   -5.5928 N   0  0  0  0  0  0  0  0  0  0  0  0
   27.1479  -20.3249   -5.4372 C   0  0  0  0  0  0  0  0  0  0  0  0
   27.7944  -19.7922   -4.3245 C   0  0  0  0  0  0  0  0  0  0  0  0
   28.8303  -18.9321   -4.5485 C   0  0  0  0  0  0  0  0  0  0  0  0
   29.2555  -18.5753   -5.8084 C   0  0  0  0  0  0  0  0  0  0  0  0
   28.6195  -19.0979   -6.8969 C   0  0  0  0  0  0  0  0  0  0  0  0
   27.5691  -19.9687   -6.7235 C   0  0  0  0  0  0  0  0  0  0  0  0
   24.3434  -20.3466   -9.0797 C   0  0  0  0  0  0  0  0  0  0  0  0
   23.6585  -21.1017   -8.1328 O   0  0  0  0  0  0  0  0  0  0  0  0
   23.9030  -19.1904   -9.3434 O   0  0  0  0  0  0  0  0  0  0  0  0
  2  1  1  6
  2  3  1  0
  3  4  1  0
  4  8  1  0
  5  4  2  0
  5  6  1  0
  6  7  1  0
  8  7  2  0
  9  2  1  0
  9 10  2  0
 12 11  1  0
 12 13  1  0
 13 14  1  1
 15 13  1  0
 15 16  1  6
 16  9  1  0
 17 15  1  0
 18 17  2  0
 19 17  1  0
 20 21  1  1
 20 19  1  0
 21 22  1  0
 22 30  1  0
 23 22  2  0
 23 24  1  0
 24 25  1  0
 25 26  1  0
 26 27  2  0
 28 27  1  0
 29 28  2  0
 30 25  2  0
 30 29  1  0
 31 32  1  0
 31 20  1  0
 33 31  2  0
M  END
$$$$
