HIW.pdb
     RDKit          3D

 33 35  0  0  1  0  0  0  0  0999 V2000
   26.3427  -29.3086  -20.8012 N   0  0  0  0  0  0  0  0  0  0  0  0
   26.8636  -29.3287  -19.4574 C   0  0  1  0  0  0  0  0  0  0  0  0
   25.7424  -29.6310  -18.5055 C   0  0  0  0  0  0  0  0  0  0  0  0
   24.7854  -28.4977  -18.5116 C   0  0  0  0  0  0  0  0  0  0  0  0
   23.9333  -28.0790  -19.4973 C   0  0  0  0  0  0  0  0  0  0  0  0
   23.2639  -27.0133  -19.0439 N   0  0  0  0  0  0  0  0  0  0  0  0
   23.6820  -26.7581  -17.7920 C   0  0  0  0  0  0  0  0  0  0  0  0
   24.6125  -27.6725  -17.4774 N   0  0  0  0  0  0  0  0  0  0  0  0
   27.9243  -30.3876  -19.2776 C   0  0  0  0  0  0  0  0  0  0  0  0
   27.8324  -31.4985  -19.8547 O   0  0  0  0  0  0  0  0  0  0  0  0
   32.9970  -28.8153  -19.0127 C   0  0  0  0  0  0  0  0  0  0  0  0
   31.7239  -29.5720  -19.2885 C   0  0  0  0  0  0  0  0  0  0  0  0
   31.4157  -30.4907  -18.1038 C   0  0  2  0  0  0  0  0  0  0  0  0
   32.5199  -31.5028  -17.9472 C   0  0  0  0  0  0  0  0  0  0  0  0
   30.0988  -31.1940  -18.3142 C   0  0  2  0  0  0  0  0  0  0  0  0
   29.0474  -30.1511  -18.4527 N   0  0  0  0  0  0  0  0  0  0  0  0
   29.7196  -31.9926  -17.1431 C   0  0  0  0  0  0  0  0  0  0  0  0
   28.8940  -31.4617  -16.2989 O   0  0  0  0  0  0  0  0  0  0  0  0
   30.1681  -33.2894  -16.8532 N   0  0  0  0  0  0  0  0  0  0  0  0
   29.6524  -33.9608  -15.6283 C   0  0  1  0  0  0  0  0  0  0  0  0
   28.1624  -33.7948  -15.7361 C   0  0  0  0  0  0  0  0  0  0  0  0
   27.4422  -34.5046  -14.6741 C   0  0  0  0  0  0  0  0  0  0  0  0
   27.2717  -34.0935  -13.3447 C   0  0  0  0  0  0  0  0  0  0  0  0
   26.5892  -35.0307  -12.6716 N   0  0  0  0  0  0  0  0  0  0  0  0
   26.2887  -36.0567  -13.4815 C   0  0  0  0  0  0  0  0  0  0  0  0
   25.5953  -37.2511  -13.3024 C   0  0  0  0  0  0  0  0  0  0  0  0
   25.4600  -38.0707  -14.3855 C   0  0  0  0  0  0  0  0  0  0  0  0
   25.9724  -37.7701  -15.6274 C   0  0  0  0  0  0  0  0  0  0  0  0
   26.6524  -36.5995  -15.7999 C   0  0  0  0  0  0  0  0  0  0  0  0
   26.8163  -35.7401  -14.7385 C   0  0  0  0  0  0  0  0  0  0  0  0
   30.1471  -35.3332  -15.5939 C   0  0  0  0  0  0  0  0  0  0  0  0
   30.3826  -36.0729  -16.7486 O   0  0  0  0  0  0  0  0  0  0  0  0
   30.3707  -35.8902  -14.4804 O   0  0  0  0  0  0  0  0  0  0  0  0
  2  1  1  6
  2  3  1  0
  3  4  1  0
  4  8  1  0
  5  4  2  0
  5  6  1  0
  6  7  1  0
  8  7  2  0
  9  2  1  0
  9 10  2  0
 12 11  1  0
 12 13  1  0
 13 14  1  6
 15 13  1  0
 15 16  1  1
 16  9  1  0
 17 15  1  0
 18 17  2  0
 19 17  1  0
 20 21  1  6
 20 19  1  0
 21 22  1  0
 22 30  1  0
 23 22  2  0
 23 24  1  0
 24 25  1  0
 25 26  1  0
 26 27  2  0
 28 27  1  0
 29 28  2  0
 30 25  2  0
 30 29  1  0
 31 32  1  0
 31 20  1  0
 33 31  2  0
M  END
$$$$
