HIW.pdb
     RDKit          3D

 33 35  0  0  1  0  0  0  0  0999 V2000
   27.3516  -22.7413  -17.2553 N   0  0  0  0  0  0  0  0  0  0  0  0
   26.8270  -21.5608  -16.6160 C   0  0  1  0  0  0  0  0  0  0  0  0
   25.7205  -21.0002  -17.4622 C   0  0  0  0  0  0  0  0  0  0  0  0
   26.0380  -19.5912  -17.8002 C   0  0  0  0  0  0  0  0  0  0  0  0
   25.6459  -18.4348  -17.1822 C   0  0  0  0  0  0  0  0  0  0  0  0
   26.1836  -17.4052  -17.8457 N   0  0  0  0  0  0  0  0  0  0  0  0
   26.9053  -17.8972  -18.8677 C   0  0  0  0  0  0  0  0  0  0  0  0
   26.8087  -19.2352  -18.8295 N   0  0  0  0  0  0  0  0  0  0  0  0
   26.2603  -21.8619  -15.2497 C   0  0  0  0  0  0  0  0  0  0  0  0
   25.6846  -22.9523  -15.0150 O   0  0  0  0  0  0  0  0  0  0  0  0
   29.1677  -20.2185  -11.1538 C   0  0  0  0  0  0  0  0  0  0  0  0
   28.2493  -21.0995  -11.9598 C   0  0  0  0  0  0  0  0  0  0  0  0
   26.8176  -20.5692  -11.8522 C   0  0  2  0  0  0  0  0  0  0  0  0
   26.3091  -20.7658  -10.4483 C   0  0  0  0  0  0  0  0  0  0  0  0
   25.9189  -21.2831  -12.8299 C   0  0  2  0  0  0  0  0  0  0  0  0
   26.3653  -20.9196  -14.2013 N   0  0  0  0  0  0  0  0  0  0  0  0
   24.5304  -20.8205  -12.7244 C   0  0  0  0  0  0  0  0  0  0  0  0
   23.8635  -21.1651  -11.6696 O   0  0  0  0  0  0  0  0  0  0  0  0
   23.8545  -20.0296  -13.6650 N   0  0  0  0  0  0  0  0  0  0  0  0
   22.4458  -19.6392  -13.3817 C   0  0  1  0  0  0  0  0  0  0  0  0
   22.3662  -18.2225  -13.8775 C   0  0  0  0  0  0  0  0  0  0  0  0
   22.5744  -18.1240  -15.3257 C   0  0  0  0  0  0  0  0  0  0  0  0
   21.7305  -18.6026  -16.3378 C   0  0  0  0  0  0  0  0  0  0  0  0
   22.2837  -18.3568  -17.5338 N   0  0  0  0  0  0  0  0  0  0  0  0
   23.4617  -17.7340  -17.3806 C   0  0  0  0  0  0  0  0  0  0  0  0
   24.4151  -17.2484  -18.2721 C   0  0  0  0  0  0  0  0  0  0  0  0
   25.5142  -16.6327  -17.7470 C   0  0  0  0  0  0  0  0  0  0  0  0
   25.7160  -16.4746  -16.3943 C   0  0  0  0  0  0  0  0  0  0  0  0
   24.7807  -16.9524  -15.5229 C   0  0  0  0  0  0  0  0  0  0  0  0
   23.6558  -17.5815  -16.0029 C   0  0  0  0  0  0  0  0  0  0  0  0
   21.5491  -20.5969  -14.0205 C   0  0  0  0  0  0  0  0  0  0  0  0
   20.1677  -20.5498  -13.8613 O   0  0  0  0  0  0  0  0  0  0  0  0
   22.0286  -21.5155  -14.7460 O   0  0  0  0  0  0  0  0  0  0  0  0
  2  1  1  6
  2  3  1  0
  3  4  1  0
  4  8  1  0
  5  4  2  0
  5  6  1  0
  6  7  1  0
  8  7  2  0
  9  2  1  0
  9 10  2  0
 12 11  1  0
 12 13  1  0
 13 14  1  1
 15 13  1  0
 15 16  1  6
 16  9  1  0
 17 15  1  0
 18 17  2  0
 19 17  1  0
 20 21  1  6
 20 19  1  0
 21 22  1  0
 22 30  1  0
 23 22  2  0
 23 24  1  0
 24 25  1  0
 25 26  1  0
 26 27  2  0
 28 27  1  0
 29 28  2  0
 30 25  2  0
 30 29  1  0
 31 32  1  0
 31 20  1  0
 33 31  2  0
M  END
$$$$
