HIW.pdb
     RDKit          3D

 33 35  0  0  1  0  0  0  0  0999 V2000
   22.7289  -20.3916  -14.1528 N   0  0  0  0  0  0  0  0  0  0  0  0
   22.0512  -19.9214  -12.9709 C   0  0  1  0  0  0  0  0  0  0  0  0
   20.5779  -19.8476  -13.2518 C   0  0  0  0  0  0  0  0  0  0  0  0
   20.3316  -18.7894  -14.2616 C   0  0  0  0  0  0  0  0  0  0  0  0
   20.0523  -17.4613  -14.0851 C   0  0  0  0  0  0  0  0  0  0  0  0
   19.9099  -16.9019  -15.2918 N   0  0  0  0  0  0  0  0  0  0  0  0
   20.0954  -17.8565  -16.2200 C   0  0  0  0  0  0  0  0  0  0  0  0
   20.3526  -19.0065  -15.5779 N   0  0  0  0  0  0  0  0  0  0  0  0
   22.2546  -20.8471  -11.7961 C   0  0  0  0  0  0  0  0  0  0  0  0
   22.1705  -22.0920  -11.9325 O   0  0  0  0  0  0  0  0  0  0  0  0
   26.2564  -20.0538   -8.4631 C   0  0  0  0  0  0  0  0  0  0  0  0
   25.1989  -20.7666   -9.2650 C   0  0  0  0  0  0  0  0  0  0  0  0
   23.8643  -20.6929   -8.5193 C   0  0  2  0  0  0  0  0  0  0  0  0
   23.9636  -21.4594   -7.2268 C   0  0  0  0  0  0  0  0  0  0  0  0
   22.7562  -21.2596   -9.3701 C   0  0  2  0  0  0  0  0  0  0  0  0
   22.5445  -20.3310  -10.5125 N   0  0  0  0  0  0  0  0  0  0  0  0
   21.4822  -21.2975   -8.6429 C   0  0  0  0  0  0  0  0  0  0  0  0
   20.7981  -20.2003   -8.5771 O   0  0  0  0  0  0  0  0  0  0  0  0
   20.9301  -22.4216   -8.0116 N   0  0  0  0  0  0  0  0  0  0  0  0
   19.5985  -22.2858   -7.3591 C   0  0  1  0  0  0  0  0  0  0  0  0
   18.6780  -21.9589   -8.5015 C   0  0  0  0  0  0  0  0  0  0  0  0
   18.4564  -23.1062   -9.3873 C   0  0  0  0  0  0  0  0  0  0  0  0
   18.2095  -24.4335   -9.0094 C   0  0  0  0  0  0  0  0  0  0  0  0
   18.1000  -25.1969  -10.1059 N   0  0  0  0  0  0  0  0  0  0  0  0
   18.2603  -24.4504  -11.2086 C   0  0  0  0  0  0  0  0  0  0  0  0
   18.2264  -24.7309  -12.5723 C   0  0  0  0  0  0  0  0  0  0  0  0
   18.4149  -23.6903  -13.4354 C   0  0  0  0  0  0  0  0  0  0  0  0
   18.6334  -22.3960  -13.0201 C   0  0  0  0  0  0  0  0  0  0  0  0
   18.6672  -22.1242  -11.6832 C   0  0  0  0  0  0  0  0  0  0  0  0
   18.4836  -23.1391  -10.7732 C   0  0  0  0  0  0  0  0  0  0  0  0
   19.3024  -23.5103   -6.6230 C   0  0  0  0  0  0  0  0  0  0  0  0
   18.2470  -23.6047   -5.7213 O   0  0  0  0  0  0  0  0  0  0  0  0
   20.0257  -24.5339   -6.7941 O   0  0  0  0  0  0  0  0  0  0  0  0
  2  1  1  6
  2  3  1  0
  3  4  1  0
  4  8  1  0
  5  4  2  0
  5  6  1  0
  6  7  1  0
  8  7  2  0
  9  2  1  0
  9 10  2  0
 12 11  1  0
 12 13  1  0
 13 14  1  1
 15 13  1  0
 15 16  1  6
 16  9  1  0
 17 15  1  0
 18 17  2  0
 19 17  1  0
 20 21  1  6
 20 19  1  0
 21 22  1  0
 22 30  1  0
 23 22  2  0
 23 24  1  0
 24 25  1  0
 25 26  1  0
 26 27  2  0
 28 27  1  0
 29 28  2  0
 30 25  2  0
 30 29  1  0
 31 32  1  0
 31 20  1  0
 33 31  2  0
M  END
$$$$
