HIW.pdb
     RDKit          3D

 33 35  0  0  1  0  0  0  0  0999 V2000
   24.0664  -23.6145  -16.3817 N   0  0  0  0  0  0  0  0  0  0  0  0
   23.7995  -22.5888  -15.4050 C   0  0  1  0  0  0  0  0  0  0  0  0
   22.5902  -22.9808  -14.6057 C   0  0  0  0  0  0  0  0  0  0  0  0
   21.3809  -22.8183  -15.4492 C   0  0  0  0  0  0  0  0  0  0  0  0
   21.1015  -21.8786  -16.4041 C   0  0  0  0  0  0  0  0  0  0  0  0
   19.8859  -22.1368  -16.8991 N   0  0  0  0  0  0  0  0  0  0  0  0
   19.4001  -23.2215  -16.2709 C   0  0  0  0  0  0  0  0  0  0  0  0
   20.3234  -23.6294  -15.3865 N   0  0  0  0  0  0  0  0  0  0  0  0
   24.9513  -22.4070  -14.4464 C   0  0  0  0  0  0  0  0  0  0  0  0
   25.4912  -23.3945  -13.8906 O   0  0  0  0  0  0  0  0  0  0  0  0
   28.4332  -18.3016  -15.0922 C   0  0  0  0  0  0  0  0  0  0  0  0
   27.8364  -19.6539  -14.8014 C   0  0  0  0  0  0  0  0  0  0  0  0
   27.2107  -19.6399  -13.4046 C   0  0  2  0  0  0  0  0  0  0  0  0
   28.2810  -19.3994  -12.3728 C   0  0  0  0  0  0  0  0  0  0  0  0
   26.5144  -20.9484  -13.1287 C   0  0  2  0  0  0  0  0  0  0  0  0
   25.4485  -21.1169  -14.1522 N   0  0  0  0  0  0  0  0  0  0  0  0
   25.8267  -20.9317  -11.8326 C   0  0  0  0  0  0  0  0  0  0  0  0
   24.5712  -20.6158  -11.8256 O   0  0  0  0  0  0  0  0  0  0  0  0
   26.4061  -21.2330  -10.5915 N   0  0  0  0  0  0  0  0  0  0  0  0
   25.5214  -21.3123   -9.3964 C   0  0  1  0  0  0  0  0  0  0  0  0
   26.4712  -21.6269   -8.2748 C   0  0  0  0  0  0  0  0  0  0  0  0
   26.9698  -20.4194   -7.6087 C   0  0  0  0  0  0  0  0  0  0  0  0
   26.5646  -19.0968   -7.8371 C   0  0  0  0  0  0  0  0  0  0  0  0
   27.2806  -18.2703   -7.0617 N   0  0  0  0  0  0  0  0  0  0  0  0
   28.1511  -18.9695   -6.3185 C   0  0  0  0  0  0  0  0  0  0  0  0
   29.0960  -18.6161   -5.3584 C   0  0  0  0  0  0  0  0  0  0  0  0
   29.8095  -19.6228   -4.7748 C   0  0  0  0  0  0  0  0  0  0  0  0
   29.6364  -20.9515   -5.0911 C   0  0  0  0  0  0  0  0  0  0  0  0
   28.7107  -21.2949   -6.0331 C   0  0  0  0  0  0  0  0  0  0  0  0
   27.9668  -20.3166   -6.6507 C   0  0  0  0  0  0  0  0  0  0  0  0
   24.7719  -20.0661   -9.2759 C   0  0  0  0  0  0  0  0  0  0  0  0
   23.4681  -20.0208   -8.7923 O   0  0  0  0  0  0  0  0  0  0  0  0
   25.3101  -18.9758   -9.6249 O   0  0  0  0  0  0  0  0  0  0  0  0
  2  1  1  6
  2  3  1  0
  3  4  1  0
  4  8  1  0
  5  4  2  0
  5  6  1  0
  6  7  1  0
  8  7  2  0
  9  2  1  0
  9 10  2  0
 12 11  1  0
 12 13  1  0
 13 14  1  1
 15 13  1  0
 15 16  1  6
 16  9  1  0
 17 15  1  0
 18 17  2  0
 19 17  1  0
 20 21  1  1
 20 19  1  0
 21 22  1  0
 22 30  1  0
 23 22  2  0
 23 24  1  0
 24 25  1  0
 25 26  1  0
 26 27  2  0
 28 27  1  0
 29 28  2  0
 30 25  2  0
 30 29  1  0
 31 32  1  0
 31 20  1  0
 33 31  2  0
M  END
$$$$
