HIW.pdb
     RDKit          3D

 33 35  0  0  1  0  0  0  0  0999 V2000
   24.0345  -22.9958  -16.8500 N   0  0  0  0  0  0  0  0  0  0  0  0
   23.7637  -22.2120  -15.6711 C   0  0  1  0  0  0  0  0  0  0  0  0
   22.4360  -22.6269  -15.1054 C   0  0  0  0  0  0  0  0  0  0  0  0
   21.3563  -22.1222  -15.9885 C   0  0  0  0  0  0  0  0  0  0  0  0
   20.8870  -22.6270  -17.1708 C   0  0  0  0  0  0  0  0  0  0  0  0
   19.9025  -21.8306  -17.6019 N   0  0  0  0  0  0  0  0  0  0  0  0
   19.7475  -20.8367  -16.7100 C   0  0  0  0  0  0  0  0  0  0  0  0
   20.6421  -21.0258  -15.7277 N   0  0  0  0  0  0  0  0  0  0  0  0
   24.8093  -22.4183  -14.6022 C   0  0  0  0  0  0  0  0  0  0  0  0
   25.1705  -23.5724  -14.2659 O   0  0  0  0  0  0  0  0  0  0  0  0
   28.0697  -18.1335  -13.4471 C   0  0  0  0  0  0  0  0  0  0  0  0
   26.9493  -19.1209  -13.2496 C   0  0  0  0  0  0  0  0  0  0  0  0
   27.5346  -20.5289  -13.1166 C   0  0  2  0  0  0  0  0  0  0  0  0
   28.3118  -20.8736  -14.3597 C   0  0  0  0  0  0  0  0  0  0  0  0
   26.4337  -21.5364  -12.9019 C   0  0  2  0  0  0  0  0  0  0  0  0
   25.4063  -21.3131  -13.9539 N   0  0  0  0  0  0  0  0  0  0  0  0
   25.7492  -21.3241  -11.6215 C   0  0  0  0  0  0  0  0  0  0  0  0
   24.5519  -20.8330  -11.6575 O   0  0  0  0  0  0  0  0  0  0  0  0
   26.2736  -21.6103  -10.3526 N   0  0  0  0  0  0  0  0  0  0  0  0
   25.4471  -21.2920   -9.1556 C   0  0  1  0  0  0  0  0  0  0  0  0
   26.3405  -21.6569   -8.0032 C   0  0  0  0  0  0  0  0  0  0  0  0
   26.8762  -20.4777   -7.3155 C   0  0  0  0  0  0  0  0  0  0  0  0
   26.4238  -19.1552   -7.4235 C   0  0  0  0  0  0  0  0  0  0  0  0
   27.1943  -18.3569   -6.6711 N   0  0  0  0  0  0  0  0  0  0  0  0
   28.1467  -19.0753   -6.0582 C   0  0  0  0  0  0  0  0  0  0  0  0
   29.1726  -18.7539   -5.1728 C   0  0  0  0  0  0  0  0  0  0  0  0
   29.9598  -19.7738   -4.7221 C   0  0  0  0  0  0  0  0  0  0  0  0
   29.7842  -21.0859   -5.1005 C   0  0  0  0  0  0  0  0  0  0  0  0
   28.7789  -21.3978   -5.9691 C   0  0  0  0  0  0  0  0  0  0  0  0
   27.9589  -20.4050   -6.4524 C   0  0  0  0  0  0  0  0  0  0  0  0
   25.0241  -19.8973   -9.2267 C   0  0  0  0  0  0  0  0  0  0  0  0
   25.8485  -18.8894   -9.7171 O   0  0  0  0  0  0  0  0  0  0  0  0
   23.8690  -19.5725   -8.8263 O   0  0  0  0  0  0  0  0  0  0  0  0
  2  1  1  6
  2  3  1  0
  3  4  1  0
  4  8  1  0
  5  4  2  0
  5  6  1  0
  6  7  1  0
  8  7  2  0
  9  2  1  0
  9 10  2  0
 12 11  1  0
 12 13  1  0
 13 14  1  6
 15 13  1  0
 15 16  1  6
 16  9  1  0
 17 15  1  0
 18 17  2  0
 19 17  1  0
 20 21  1  1
 20 19  1  0
 21 22  1  0
 22 30  1  0
 23 22  2  0
 23 24  1  0
 24 25  1  0
 25 26  1  0
 26 27  2  0
 28 27  1  0
 29 28  2  0
 30 25  2  0
 30 29  1  0
 31 32  1  0
 31 20  1  0
 33 31  2  0
M  END
$$$$
