HIW.pdb
     RDKit          3D

 33 35  0  0  1  0  0  0  0  0999 V2000
   20.0832  -19.9962  -14.1484 N   0  0  0  0  0  0  0  0  0  0  0  0
   21.1793  -19.2972  -13.5258 C   0  0  1  0  0  0  0  0  0  0  0  0
   20.6425  -18.4423  -12.4142 C   0  0  0  0  0  0  0  0  0  0  0  0
   19.9360  -17.2769  -12.9998 C   0  0  0  0  0  0  0  0  0  0  0  0
   20.4454  -16.1606  -13.6060 C   0  0  0  0  0  0  0  0  0  0  0  0
   19.4211  -15.3842  -13.9769 N   0  0  0  0  0  0  0  0  0  0  0  0
   18.2801  -15.9953  -13.6137 C   0  0  0  0  0  0  0  0  0  0  0  0
   18.6077  -17.1519  -13.0171 N   0  0  0  0  0  0  0  0  0  0  0  0
   22.1926  -20.2468  -12.9342 C   0  0  0  0  0  0  0  0  0  0  0  0
   21.8430  -21.1473  -12.1326 O   0  0  0  0  0  0  0  0  0  0  0  0
   25.4331  -22.7612  -16.1391 C   0  0  0  0  0  0  0  0  0  0  0  0
   24.5448  -22.3324  -15.0005 C   0  0  0  0  0  0  0  0  0  0  0  0
   25.3805  -21.5753  -13.9655 C   0  0  2  0  0  0  0  0  0  0  0  0
   26.5161  -22.4464  -13.4966 C   0  0  0  0  0  0  0  0  0  0  0  0
   24.5232  -21.1717  -12.7929 C   0  0  2  0  0  0  0  0  0  0  0  0
   23.5616  -20.1423  -13.2702 N   0  0  0  0  0  0  0  0  0  0  0  0
   25.3158  -20.5233  -11.7419 C   0  0  0  0  0  0  0  0  0  0  0  0
   25.4992  -19.2450  -11.8336 O   0  0  0  0  0  0  0  0  0  0  0  0
   25.8939  -21.1637  -10.6361 N   0  0  0  0  0  0  0  0  0  0  0  0
   26.7963  -20.3756   -9.7521 C   0  0  1  0  0  0  0  0  0  0  0  0
   26.0198  -20.2577   -8.4706 C   0  0  0  0  0  0  0  0  0  0  0  0
   26.7764  -19.5703   -7.4192 C   0  0  0  0  0  0  0  0  0  0  0  0
   27.0073  -18.1923   -7.3043 C   0  0  0  0  0  0  0  0  0  0  0  0
   27.7752  -17.9563   -6.2311 N   0  0  0  0  0  0  0  0  0  0  0  0
   28.0750  -19.1083   -5.6131 C   0  0  0  0  0  0  0  0  0  0  0  0
   28.8083  -19.4241   -4.4720 C   0  0  0  0  0  0  0  0  0  0  0  0
   28.8866  -20.7395   -4.1164 C   0  0  0  0  0  0  0  0  0  0  0  0
   28.2804  -21.7505   -4.8275 C   0  0  0  0  0  0  0  0  0  0  0  0
   27.5634  -21.4384   -5.9460 C   0  0  0  0  0  0  0  0  0  0  0  0
   27.4555  -20.1269   -6.3463 C   0  0  0  0  0  0  0  0  0  0  0  0
   28.0861  -21.0523   -9.6642 C   0  0  0  0  0  0  0  0  0  0  0  0
   28.2396  -22.4085   -9.9346 O   0  0  0  0  0  0  0  0  0  0  0  0
   29.1143  -20.3981   -9.3251 O   0  0  0  0  0  0  0  0  0  0  0  0
  2  1  1  1
  2  3  1  0
  3  4  1  0
  4  8  1  0
  5  4  2  0
  5  6  1  0
  6  7  1  0
  8  7  2  0
  9  2  1  0
  9 10  2  0
 12 11  1  0
 12 13  1  0
 13 14  1  1
 15 13  1  0
 15 16  1  6
 16  9  1  0
 17 15  1  0
 18 17  2  0
 19 17  1  0
 20 21  1  1
 20 19  1  0
 21 22  1  0
 22 30  1  0
 23 22  2  0
 23 24  1  0
 24 25  1  0
 25 26  1  0
 26 27  2  0
 28 27  1  0
 29 28  2  0
 30 25  2  0
 30 29  1  0
 31 32  1  0
 31 20  1  0
 33 31  2  0
M  END
$$$$
