HIW.pdb
     RDKit          3D

 33 35  0  0  1  0  0  0  0  0999 V2000
   23.7416  -22.1871  -16.9746 N   0  0  0  0  0  0  0  0  0  0  0  0
   23.6589  -21.3314  -15.8177 C   0  0  1  0  0  0  0  0  0  0  0  0
   22.4105  -21.6660  -15.0534 C   0  0  0  0  0  0  0  0  0  0  0  0
   21.2352  -21.1601  -15.8036 C   0  0  0  0  0  0  0  0  0  0  0  0
   20.7873  -19.8768  -15.9641 C   0  0  0  0  0  0  0  0  0  0  0  0
   19.6884  -19.9117  -16.7260 N   0  0  0  0  0  0  0  0  0  0  0  0
   19.4410  -21.1940  -17.0451 C   0  0  0  0  0  0  0  0  0  0  0  0
   20.3937  -21.9481  -16.4754 N   0  0  0  0  0  0  0  0  0  0  0  0
   24.8356  -21.5181  -14.8908 C   0  0  0  0  0  0  0  0  0  0  0  0
   25.2910  -22.6622  -14.6474 O   0  0  0  0  0  0  0  0  0  0  0  0
   27.7133  -18.1278  -15.6768 C   0  0  0  0  0  0  0  0  0  0  0  0
   28.1316  -19.3959  -14.9794 C   0  0  0  0  0  0  0  0  0  0  0  0
   27.5409  -19.4142  -13.5675 C   0  0  2  0  0  0  0  0  0  0  0  0
   28.6536  -19.4627  -12.5538 C   0  0  0  0  0  0  0  0  0  0  0  0
   26.6340  -20.6060  -13.3938 C   0  0  2  0  0  0  0  0  0  0  0  0
   25.4520  -20.4056  -14.2741 N   0  0  0  0  0  0  0  0  0  0  0  0
   26.1065  -20.6888  -12.0270 C   0  0  0  0  0  0  0  0  0  0  0  0
   24.9958  -20.0729  -11.7761 O   0  0  0  0  0  0  0  0  0  0  0  0
   26.6958  -21.3825  -10.9600 N   0  0  0  0  0  0  0  0  0  0  0  0
   26.0819  -21.2594   -9.6090 C   0  0  1  0  0  0  0  0  0  0  0  0
   27.2110  -21.5981   -8.6765 C   0  0  0  0  0  0  0  0  0  0  0  0
   27.4015  -20.5821   -7.6364 C   0  0  0  0  0  0  0  0  0  0  0  0
   26.6403  -19.4221   -7.4352 C   0  0  0  0  0  0  0  0  0  0  0  0
   27.1495  -18.7266   -6.4085 N   0  0  0  0  0  0  0  0  0  0  0  0
   28.2187  -19.3600   -5.9041 C   0  0  0  0  0  0  0  0  0  0  0  0
   29.0867  -19.0896   -4.8491 C   0  0  0  0  0  0  0  0  0  0  0  0
   30.0792  -19.9932   -4.6012 C   0  0  0  0  0  0  0  0  0  0  0  0
   30.2547  -21.1422   -5.3390 C   0  0  0  0  0  0  0  0  0  0  0  0
   29.4034  -21.4042   -6.3729 C   0  0  0  0  0  0  0  0  0  0  0  0
   28.3874  -20.5237   -6.6633 C   0  0  0  0  0  0  0  0  0  0  0  0
   25.5072  -19.9256   -9.4674 C   0  0  0  0  0  0  0  0  0  0  0  0
   24.2381  -19.7099   -8.9394 O   0  0  0  0  0  0  0  0  0  0  0  0
   26.1715  -18.9152   -9.8388 O   0  0  0  0  0  0  0  0  0  0  0  0
  2  1  1  6
  2  3  1  0
  3  4  1  0
  4  8  1  0
  5  4  2  0
  5  6  1  0
  6  7  1  0
  8  7  2  0
  9  2  1  0
  9 10  2  0
 12 11  1  0
 12 13  1  0
 13 14  1  1
 15 13  1  0
 15 16  1  6
 16  9  1  0
 17 15  1  0
 18 17  2  0
 19 17  1  0
 20 21  1  1
 20 19  1  0
 21 22  1  0
 22 30  1  0
 23 22  2  0
 23 24  1  0
 24 25  1  0
 25 26  1  0
 26 27  2  0
 28 27  1  0
 29 28  2  0
 30 25  2  0
 30 29  1  0
 31 32  1  0
 31 20  1  0
 33 31  2  0
M  END
$$$$
