HIW.pdb
     RDKit          3D

 33 35  0  0  1  0  0  0  0  0999 V2000
   22.8521  -18.1408  -17.3303 N   0  0  0  0  0  0  0  0  0  0  0  0
   23.3776  -18.2925  -15.9969 C   0  0  1  0  0  0  0  0  0  0  0  0
   22.2845  -18.7926  -15.0970 C   0  0  0  0  0  0  0  0  0  0  0  0
   21.2060  -17.7760  -15.0369 C   0  0  0  0  0  0  0  0  0  0  0  0
   21.1751  -16.5725  -14.3859 C   0  0  0  0  0  0  0  0  0  0  0  0
   19.9893  -16.0009  -14.6237 N   0  0  0  0  0  0  0  0  0  0  0  0
   19.2781  -16.8254  -15.4123 C   0  0  0  0  0  0  0  0  0  0  0  0
   20.0327  -17.9075  -15.6582 N   0  0  0  0  0  0  0  0  0  0  0  0
   24.5128  -19.2862  -15.9459 C   0  0  0  0  0  0  0  0  0  0  0  0
   24.4459  -20.3757  -16.5657 O   0  0  0  0  0  0  0  0  0  0  0  0
   29.5302  -17.4428  -16.1240 C   0  0  0  0  0  0  0  0  0  0  0  0
   28.3115  -18.3046  -16.3279 C   0  0  0  0  0  0  0  0  0  0  0  0
   28.0893  -19.1677  -15.0836 C   0  0  2  0  0  0  0  0  0  0  0  0
   29.2617  -20.0938  -14.8939 C   0  0  0  0  0  0  0  0  0  0  0  0
   26.8185  -19.9673  -15.2200 C   0  0  2  0  0  0  0  0  0  0  0  0
   25.6792  -19.0114  -15.1964 N   0  0  0  0  0  0  0  0  0  0  0  0
   26.6164  -20.8604  -14.0735 C   0  0  0  0  0  0  0  0  0  0  0  0
   27.4322  -21.8568  -13.9402 O   0  0  0  0  0  0  0  0  0  0  0  0
   25.6168  -20.7314  -13.0981 N   0  0  0  0  0  0  0  0  0  0  0  0
   25.5629  -21.7365  -12.0009 C   0  0  1  0  0  0  0  0  0  0  0  0
   26.8424  -21.5044  -11.2470 C   0  0  0  0  0  0  0  0  0  0  0  0
   26.6192  -20.8474   -9.9551 C   0  0  0  0  0  0  0  0  0  0  0  0
   25.4265  -20.2763   -9.4895 C   0  0  0  0  0  0  0  0  0  0  0  0
   25.6318  -19.7389   -8.2787 N   0  0  0  0  0  0  0  0  0  0  0  0
   26.9062  -19.9189   -7.9014 C   0  0  0  0  0  0  0  0  0  0  0  0
   27.6267  -19.5821   -6.7582 C   0  0  0  0  0  0  0  0  0  0  0  0
   28.9389  -19.9545   -6.7068 C   0  0  0  0  0  0  0  0  0  0  0  0
   29.5691  -20.6383   -7.7220 C   0  0  0  0  0  0  0  0  0  0  0  0
   28.8610  -20.9661   -8.8416 C   0  0  0  0  0  0  0  0  0  0  0  0
   27.5357  -20.6122   -8.9416 C   0  0  0  0  0  0  0  0  0  0  0  0
   24.3277  -21.5513  -11.2464 C   0  0  0  0  0  0  0  0  0  0  0  0
   23.8637  -22.4887  -10.3288 O   0  0  0  0  0  0  0  0  0  0  0  0
   23.6362  -20.5072  -11.4244 O   0  0  0  0  0  0  0  0  0  0  0  0
  2  1  1  6
  2  3  1  0
  3  4  1  0
  4  8  1  0
  5  4  2  0
  5  6  1  0
  6  7  1  0
  8  7  2  0
  9  2  1  0
  9 10  2  0
 12 11  1  0
 12 13  1  0
 13 14  1  6
 15 13  1  0
 15 16  1  1
 16  9  1  0
 17 15  1  0
 18 17  2  0
 19 17  1  0
 20 21  1  1
 20 19  1  0
 21 22  1  0
 22 30  1  0
 23 22  2  0
 23 24  1  0
 24 25  1  0
 25 26  1  0
 26 27  2  0
 28 27  1  0
 29 28  2  0
 30 25  2  0
 30 29  1  0
 31 32  1  0
 31 20  1  0
 33 31  2  0
M  END
$$$$
