CDM.pdb
     RDKit          3D

 23 22  0  0  1  0  0  0  0  0999 V2000
    7.0176  -14.2000   18.3160 N   0  0  0  0  0  0  0  0  0  0  0  0
    8.4055  -14.3525   18.6932 C   0  0  1  0  0  0  0  0  0  0  0  0
    8.9877  -12.9681   18.8647 C   0  0  0  0  0  0  0  0  0  0  0  0
    8.1114  -12.1907   20.2534 S   0  0  0  0  0  0  0  0  0  0  0  0
    8.5290  -15.1622   19.9483 C   0  0  0  0  0  0  0  0  0  0  0  0
    7.5471  -15.2455   20.7250 O   0  0  0  0  0  0  0  0  0  0  0  0
    9.7331  -15.8408   20.2831 N   0  0  0  0  0  0  0  0  0  0  0  0
    9.8735  -16.7314   21.4172 C   0  0  1  0  0  0  0  0  0  0  0  0
   11.1698  -17.4758   21.3052 C   0  0  0  0  0  0  0  0  0  0  0  0
   11.3409  -18.5637   22.2567 C   0  0  0  0  0  0  0  0  0  0  0  0
   10.3784  -18.8957   22.9900 O   0  0  0  0  0  0  0  0  0  0  0  0
    9.8790  -15.9329   22.6753 C   0  0  0  0  0  0  0  0  0  0  0  0
   10.7184  -14.9895   22.8026 O   0  0  0  0  0  0  0  0  0  0  0  0
   12.5315  -19.2486   22.3830 O   0  0  0  0  0  0  0  0  0  0  0  0
    6.2814  -11.3059   27.4636 C   0  0  0  0  0  0  0  0  0  0  0  0
    6.3290  -12.4469   26.0555 S   0  0  0  0  0  0  0  0  0  0  0  0
    7.7819  -13.4948   26.0861 C   0  0  0  0  0  0  0  0  0  0  0  0
    7.8250  -14.3653   24.8794 C   0  0  0  0  0  0  0  0  0  0  0  0
    9.0099  -15.2646   24.9060 C   0  0  2  0  0  0  0  0  0  0  0  0
    9.0040  -16.1585   23.7450 N   0  0  0  0  0  0  0  0  0  0  0  0
    9.1466  -16.1208   26.1002 C   0  0  0  0  0  0  0  0  0  0  0  0
    9.2094  -17.5127   26.0632 O   0  0  0  0  0  0  0  0  0  0  0  0
    9.2162  -15.6378   27.2835 O   0  0  0  0  0  0  0  0  0  0  0  0
  2  1  1  1
  2  3  1  0
  4  3  1  0
  5  2  1  0
  6  5  2  0
  7  5  1  0
  8 12  1  0
  8  7  1  0
  8  9  1  6
 10  9  1  0
 11 10  2  0
 12 20  1  0
 13 12  2  0
 14 10  1  0
 16 17  1  0
 16 15  1  0
 19 18  1  1
 18 17  1  0
 20 19  1  0
 21 22  1  0
 21 19  1  0
 23 21  2  0
M  END
$$$$
