CDM.pdb
     RDKit          3D

 23 22  0  0  1  0  0  0  0  0999 V2000
    5.5578  -14.9684   25.7907 N   0  0  0  0  0  0  0  0  0  0  0  0
    6.6111  -14.3275   25.0347 C   0  0  1  0  0  0  0  0  0  0  0  0
    7.2140  -13.2529   25.9104 C   0  0  0  0  0  0  0  0  0  0  0  0
    6.0760  -11.8371   25.8747 S   0  0  0  0  0  0  0  0  0  0  0  0
    7.6395  -15.3284   24.6028 C   0  0  0  0  0  0  0  0  0  0  0  0
    7.8764  -16.3206   25.3334 O   0  0  0  0  0  0  0  0  0  0  0  0
    8.3563  -15.1830   23.3831 N   0  0  0  0  0  0  0  0  0  0  0  0
    9.3642  -16.1145   22.9190 C   0  0  1  0  0  0  0  0  0  0  0  0
    9.8238  -15.7067   21.5516 C   0  0  0  0  0  0  0  0  0  0  0  0
    9.1289  -16.3535   20.4486 C   0  0  0  0  0  0  0  0  0  0  0  0
    8.3631  -17.3187   20.6863 O   0  0  0  0  0  0  0  0  0  0  0  0
   10.5274  -16.0888   23.8501 C   0  0  0  0  0  0  0  0  0  0  0  0
   11.2592  -15.0527   23.8934 O   0  0  0  0  0  0  0  0  0  0  0  0
    9.2822  -15.9413   19.1412 O   0  0  0  0  0  0  0  0  0  0  0  0
    9.9296  -13.0873   28.5800 C   0  0  0  0  0  0  0  0  0  0  0  0
    9.9281  -14.8067   29.1553 S   0  0  0  0  0  0  0  0  0  0  0  0
   11.0437  -15.8365   28.2040 C   0  0  0  0  0  0  0  0  0  0  0  0
   10.5128  -16.0532   26.8303 C   0  0  0  0  0  0  0  0  0  0  0  0
   11.4410  -16.8867   26.0195 C   0  0  2  0  0  0  0  0  0  0  0  0
   10.8725  -17.1506   24.6951 N   0  0  0  0  0  0  0  0  0  0  0  0
   11.8048  -18.1965   26.5939 C   0  0  0  0  0  0  0  0  0  0  0  0
   11.1908  -19.4000   26.2514 O   0  0  0  0  0  0  0  0  0  0  0  0
   12.7291  -18.3260   27.4698 O   0  0  0  0  0  0  0  0  0  0  0  0
  2  1  1  1
  2  3  1  0
  4  3  1  0
  5  2  1  0
  6  5  2  0
  7  5  1  0
  8 12  1  0
  8  7  1  0
  8  9  1  6
 10  9  1  0
 11 10  2  0
 12 20  1  0
 13 12  2  0
 14 10  1  0
 16 17  1  0
 16 15  1  0
 19 18  1  1
 18 17  1  0
 20 19  1  0
 21 22  1  0
 21 19  1  0
 23 21  2  0
M  END
$$$$
