CDM.pdb
     RDKit          3D

 23 22  0  0  1  0  0  0  0  0999 V2000
    7.6776  -18.3518   20.1577 N   0  0  0  0  0  0  0  0  0  0  0  0
    8.0581  -17.1203   20.8136 C   0  0  1  0  0  0  0  0  0  0  0  0
    6.8273  -16.5640   21.4922 C   0  0  0  0  0  0  0  0  0  0  0  0
    7.3000  -14.9725   22.2301 S   0  0  0  0  0  0  0  0  0  0  0  0
    9.1668  -17.3606   21.7930 C   0  0  0  0  0  0  0  0  0  0  0  0
    9.1179  -18.3660   22.5421 O   0  0  0  0  0  0  0  0  0  0  0  0
   10.2761  -16.4767   21.8961 N   0  0  0  0  0  0  0  0  0  0  0  0
   11.3445  -16.6258   22.8633 C   0  0  1  0  0  0  0  0  0  0  0  0
   12.5212  -15.8030   22.4327 C   0  0  0  0  0  0  0  0  0  0  0  0
   13.1606  -16.2381   21.1999 C   0  0  0  0  0  0  0  0  0  0  0  0
   13.7157  -15.3881   20.4624 O   0  0  0  0  0  0  0  0  0  0  0  0
   10.8770  -16.1457   24.1943 C   0  0  0  0  0  0  0  0  0  0  0  0
   11.6643  -16.2190   25.1870 O   0  0  0  0  0  0  0  0  0  0  0  0
   13.1790  -17.5608   20.8092 O   0  0  0  0  0  0  0  0  0  0  0  0
    7.2318  -10.9197   26.0472 C   0  0  0  0  0  0  0  0  0  0  0  0
    6.5736  -12.3419   26.9590 S   0  0  0  0  0  0  0  0  0  0  0  0
    7.7574  -13.6828   27.0621 C   0  0  0  0  0  0  0  0  0  0  0  0
    8.1857  -14.1086   25.7016 C   0  0  0  0  0  0  0  0  0  0  0  0
    9.2184  -15.1773   25.7719 C   0  0  2  0  0  0  0  0  0  0  0  0
    9.6045  -15.6096   24.4262 N   0  0  0  0  0  0  0  0  0  0  0  0
    8.8415  -16.3942   26.5168 C   0  0  0  0  0  0  0  0  0  0  0  0
    9.0206  -16.5597   27.8890 O   0  0  0  0  0  0  0  0  0  0  0  0
    8.3136  -17.4102   25.9445 O   0  0  0  0  0  0  0  0  0  0  0  0
  2  1  1  1
  2  3  1  0
  4  3  1  0
  5  2  1  0
  6  5  2  0
  7  5  1  0
  8 12  1  0
  8  7  1  0
  8  9  1  6
 10  9  1  0
 11 10  2  0
 12 20  1  0
 13 12  2  0
 14 10  1  0
 16 17  1  0
 16 15  1  0
 19 18  1  6
 18 17  1  0
 20 19  1  0
 21 22  1  0
 21 19  1  0
 23 21  2  0
M  END
$$$$
