CDM.pdb
     RDKit          3D

 23 22  0  0  1  0  0  0  0  0999 V2000
    9.8941  -12.7215   19.3564 N   0  0  0  0  0  0  0  0  0  0  0  0
    8.5134  -12.8421   19.7697 C   0  0  1  0  0  0  0  0  0  0  0  0
    7.6593  -12.8245   18.5226 C   0  0  0  0  0  0  0  0  0  0  0  0
    8.1011  -14.2969   17.5544 S   0  0  0  0  0  0  0  0  0  0  0  0
    8.3042  -14.0957   20.5639 C   0  0  0  0  0  0  0  0  0  0  0  0
    7.1402  -14.4251   20.8971 O   0  0  0  0  0  0  0  0  0  0  0  0
    9.3932  -14.9244   20.9510 N   0  0  0  0  0  0  0  0  0  0  0  0
    9.2587  -16.1063   21.7781 C   0  0  1  0  0  0  0  0  0  0  0  0
   10.3106  -17.1027   21.3935 C   0  0  0  0  0  0  0  0  0  0  0  0
   10.2922  -18.3439   22.1531 C   0  0  0  0  0  0  0  0  0  0  0  0
    9.1960  -18.7982   22.5614 O   0  0  0  0  0  0  0  0  0  0  0  0
    9.4438  -15.7323   23.2086 C   0  0  0  0  0  0  0  0  0  0  0  0
   10.5708  -15.2895   23.5889 O   0  0  0  0  0  0  0  0  0  0  0  0
   11.4442  -19.0447   22.4432 O   0  0  0  0  0  0  0  0  0  0  0  0
    6.5361  -11.7545   27.7395 C   0  0  0  0  0  0  0  0  0  0  0  0
    6.2122  -12.2664   26.0306 S   0  0  0  0  0  0  0  0  0  0  0  0
    7.5316  -13.2827   25.3700 C   0  0  0  0  0  0  0  0  0  0  0  0
    7.5897  -14.5905   26.0786 C   0  0  0  0  0  0  0  0  0  0  0  0
    8.7008  -15.4342   25.5617 C   0  0  2  0  0  0  0  0  0  0  0  0
    8.4391  -15.8391   24.1780 N   0  0  0  0  0  0  0  0  0  0  0  0
    8.9830  -16.6689   26.3191 C   0  0  0  0  0  0  0  0  0  0  0  0
    9.6194  -16.6994   27.5587 O   0  0  0  0  0  0  0  0  0  0  0  0
    8.6595  -17.8279   25.8825 O   0  0  0  0  0  0  0  0  0  0  0  0
  2  1  1  6
  2  3  1  0
  4  3  1  0
  5  2  1  0
  6  5  2  0
  7  5  1  0
  8 12  1  0
  8  7  1  0
  8  9  1  6
 10  9  1  0
 11 10  2  0
 12 20  1  0
 13 12  2  0
 14 10  1  0
 16 17  1  0
 16 15  1  0
 19 18  1  1
 18 17  1  0
 20 19  1  0
 21 22  1  0
 21 19  1  0
 23 21  2  0
M  END
$$$$
