CDM.pdb
     RDKit          3D

 23 22  0  0  1  0  0  0  0  0999 V2000
    8.0334  -16.7030   20.3916 N   0  0  0  0  0  0  0  0  0  0  0  0
    8.3407  -15.8848   21.5438 C   0  0  1  0  0  0  0  0  0  0  0  0
    7.0846  -15.7792   22.3781 C   0  0  0  0  0  0  0  0  0  0  0  0
    7.5077  -14.8118   23.8566 S   0  0  0  0  0  0  0  0  0  0  0  0
    9.4748  -16.4739   22.3266 C   0  0  0  0  0  0  0  0  0  0  0  0
    9.4734  -17.7027   22.5805 O   0  0  0  0  0  0  0  0  0  0  0  0
   10.5558  -15.6748   22.7907 N   0  0  0  0  0  0  0  0  0  0  0  0
   11.6618  -16.1839   23.5759 C   0  0  1  0  0  0  0  0  0  0  0  0
   12.9293  -15.5120   23.1408 C   0  0  0  0  0  0  0  0  0  0  0  0
   14.1518  -16.1000   23.6678 C   0  0  0  0  0  0  0  0  0  0  0  0
   14.2401  -17.3477   23.7676 O   0  0  0  0  0  0  0  0  0  0  0  0
   11.4239  -15.8858   25.0164 C   0  0  0  0  0  0  0  0  0  0  0  0
   12.3449  -16.1266   25.8558 O   0  0  0  0  0  0  0  0  0  0  0  0
   15.2253  -15.3303   24.0646 O   0  0  0  0  0  0  0  0  0  0  0  0
    6.5431  -11.9773   25.8186 C   0  0  0  0  0  0  0  0  0  0  0  0
    7.3943  -12.1153   27.4135 S   0  0  0  0  0  0  0  0  0  0  0  0
    8.9713  -12.9527   27.2654 C   0  0  0  0  0  0  0  0  0  0  0  0
    8.7788  -14.4284   27.2283 C   0  0  0  0  0  0  0  0  0  0  0  0
   10.0605  -15.1319   26.9532 C   0  0  2  0  0  0  0  0  0  0  0  0
   10.2305  -15.3481   25.5140 N   0  0  0  0  0  0  0  0  0  0  0  0
   10.2306  -16.4461   27.6028 C   0  0  0  0  0  0  0  0  0  0  0  0
   10.5345  -16.6197   28.9518 O   0  0  0  0  0  0  0  0  0  0  0  0
   10.1116  -17.5468   26.9604 O   0  0  0  0  0  0  0  0  0  0  0  0
  2  1  1  6
  2  3  1  0
  4  3  1  0
  5  2  1  0
  6  5  2  0
  7  5  1  0
  8 12  1  0
  8  7  1  0
  8  9  1  6
 10  9  1  0
 11 10  2  0
 12 20  1  0
 13 12  2  0
 14 10  1  0
 16 17  1  0
 16 15  1  0
 19 18  1  6
 18 17  1  0
 20 19  1  0
 21 22  1  0
 21 19  1  0
 23 21  2  0
M  END
$$$$
