CDM.pdb
     RDKit          3D

 23 22  0  0  1  0  0  0  0  0999 V2000
    9.4044  -14.7029   18.3419 N   0  0  0  0  0  0  0  0  0  0  0  0
    8.7462  -14.0499   19.4518 C   0  0  1  0  0  0  0  0  0  0  0  0
    7.3822  -13.6040   18.9769 C   0  0  0  0  0  0  0  0  0  0  0  0
    7.5568  -13.1237   17.2335 S   0  0  0  0  0  0  0  0  0  0  0  0
    8.6461  -14.9735   20.6279 C   0  0  0  0  0  0  0  0  0  0  0  0
    7.6207  -14.9398   21.3502 O   0  0  0  0  0  0  0  0  0  0  0  0
    9.6856  -15.8898   20.9478 N   0  0  0  0  0  0  0  0  0  0  0  0
    9.6206  -16.8411   22.0385 C   0  0  1  0  0  0  0  0  0  0  0  0
   10.8099  -17.7515   21.9737 C   0  0  0  0  0  0  0  0  0  0  0  0
   10.8376  -18.6501   20.8293 C   0  0  0  0  0  0  0  0  0  0  0  0
   11.9025  -18.7846   20.1793 O   0  0  0  0  0  0  0  0  0  0  0  0
    9.6401  -16.1082   23.3358 C   0  0  0  0  0  0  0  0  0  0  0  0
   10.6988  -15.5015   23.6848 O   0  0  0  0  0  0  0  0  0  0  0  0
    9.7278  -19.3650   20.4298 O   0  0  0  0  0  0  0  0  0  0  0  0
    6.8293  -11.1572   28.3182 C   0  0  0  0  0  0  0  0  0  0  0  0
    6.7493  -12.0824   26.7611 S   0  0  0  0  0  0  0  0  0  0  0  0
    7.3793  -13.7505   26.9352 C   0  0  0  0  0  0  0  0  0  0  0  0
    7.3817  -14.4490   25.6206 C   0  0  0  0  0  0  0  0  0  0  0  0
    8.6277  -15.2400   25.4332 C   0  0  2  0  0  0  0  0  0  0  0  0
    8.5486  -16.0434   24.2105 N   0  0  0  0  0  0  0  0  0  0  0  0
    8.9779  -16.1660   26.5276 C   0  0  0  0  0  0  0  0  0  0  0  0
    9.4422  -15.7613   27.7779 O   0  0  0  0  0  0  0  0  0  0  0  0
    8.8815  -17.4365   26.4054 O   0  0  0  0  0  0  0  0  0  0  0  0
  2  1  1  6
  2  3  1  0
  4  3  1  0
  5  2  1  0
  6  5  2  0
  7  5  1  0
  8 12  1  0
  8  7  1  0
  8  9  1  1
 10  9  1  0
 11 10  2  0
 12 20  1  0
 13 12  2  0
 14 10  1  0
 16 17  1  0
 16 15  1  0
 19 18  1  1
 18 17  1  0
 20 19  1  0
 21 22  1  0
 21 19  1  0
 23 21  2  0
M  END
$$$$
