CDM.pdb
     RDKit          3D

 23 22  0  0  1  0  0  0  0  0999 V2000
    6.5028  -17.2976   19.5166 N   0  0  0  0  0  0  0  0  0  0  0  0
    7.4513  -16.3064   19.9742 C   0  0  1  0  0  0  0  0  0  0  0  0
    6.6885  -15.0265   20.2292 C   0  0  0  0  0  0  0  0  0  0  0  0
    7.8987  -13.7853   20.7729 S   0  0  0  0  0  0  0  0  0  0  0  0
    8.1618  -16.7799   21.2059 C   0  0  0  0  0  0  0  0  0  0  0  0
    7.4910  -17.2055   22.1771 O   0  0  0  0  0  0  0  0  0  0  0  0
    9.5805  -16.7594   21.3034 N   0  0  0  0  0  0  0  0  0  0  0  0
   10.3179  -17.1623   22.4836 C   0  0  1  0  0  0  0  0  0  0  0  0
   11.7719  -17.2878   22.1407 C   0  0  0  0  0  0  0  0  0  0  0  0
   12.0996  -18.3751   21.2305 C   0  0  0  0  0  0  0  0  0  0  0  0
   11.4909  -19.4675   21.3338 O   0  0  0  0  0  0  0  0  0  0  0  0
   10.1567  -16.1282   23.5444 C   0  0  0  0  0  0  0  0  0  0  0  0
   10.7071  -14.9952   23.3891 O   0  0  0  0  0  0  0  0  0  0  0  0
   13.0622  -18.2481   20.2509 O   0  0  0  0  0  0  0  0  0  0  0  0
    6.2547  -11.0997   27.4376 C   0  0  0  0  0  0  0  0  0  0  0  0
    6.4229  -12.4678   26.2597 S   0  0  0  0  0  0  0  0  0  0  0  0
    7.8952  -13.4423   26.5645 C   0  0  0  0  0  0  0  0  0  0  0  0
    8.0778  -14.4627   25.4961 C   0  0  0  0  0  0  0  0  0  0  0  0
    9.3174  -15.2558   25.7151 C   0  0  2  0  0  0  0  0  0  0  0  0
    9.4253  -16.3273   24.7217 N   0  0  0  0  0  0  0  0  0  0  0  0
    9.4547  -15.8903   27.0404 C   0  0  0  0  0  0  0  0  0  0  0  0
    9.6113  -15.1868   28.2334 O   0  0  0  0  0  0  0  0  0  0  0  0
    9.4426  -17.1609   27.1947 O   0  0  0  0  0  0  0  0  0  0  0  0
  2  1  1  1
  2  3  1  0
  4  3  1  0
  5  2  1  0
  6  5  2  0
  7  5  1  0
  8 12  1  0
  8  7  1  0
  8  9  1  6
 10  9  1  0
 11 10  2  0
 12 20  1  0
 13 12  2  0
 14 10  1  0
 16 17  1  0
 16 15  1  0
 19 18  1  1
 18 17  1  0
 20 19  1  0
 21 22  1  0
 21 19  1  0
 23 21  2  0
M  END
$$$$
