CDM.pdb
     RDKit          3D

 23 22  0  0  1  0  0  0  0  0999 V2000
    7.3345  -15.1385   18.4392 N   0  0  0  0  0  0  0  0  0  0  0  0
    8.4295  -14.7022   19.2772 C   0  0  1  0  0  0  0  0  0  0  0  0
    8.1338  -13.2863   19.7162 C   0  0  0  0  0  0  0  0  0  0  0  0
    8.4579  -12.2085   18.2899 S   0  0  0  0  0  0  0  0  0  0  0  0
    8.5987  -15.6194   20.4504 C   0  0  0  0  0  0  0  0  0  0  0  0
    7.5841  -16.0081   21.0779 O   0  0  0  0  0  0  0  0  0  0  0  0
    9.8826  -16.0621   20.8725 N   0  0  0  0  0  0  0  0  0  0  0  0
   10.1146  -16.8663   22.0550 C   0  0  1  0  0  0  0  0  0  0  0  0
   11.4645  -17.5113   21.9586 C   0  0  0  0  0  0  0  0  0  0  0  0
   11.5784  -18.5572   20.9531 C   0  0  0  0  0  0  0  0  0  0  0  0
   10.7315  -19.4829   20.9307 O   0  0  0  0  0  0  0  0  0  0  0  0
   10.0787  -15.9929   23.2618 C   0  0  0  0  0  0  0  0  0  0  0  0
   10.9675  -15.0977   23.4012 O   0  0  0  0  0  0  0  0  0  0  0  0
   12.5907  -18.5684   20.0164 O   0  0  0  0  0  0  0  0  0  0  0  0
    5.9661  -11.2695   27.6715 C   0  0  0  0  0  0  0  0  0  0  0  0
    6.1080  -12.5032   26.3505 S   0  0  0  0  0  0  0  0  0  0  0  0
    7.6463  -13.4170   26.4443 C   0  0  0  0  0  0  0  0  0  0  0  0
    7.7774  -14.3414   25.2849 C   0  0  0  0  0  0  0  0  0  0  0  0
    9.0550  -15.1015   25.3440 C   0  0  2  0  0  0  0  0  0  0  0  0
    9.1123  -16.0964   24.2698 N   0  0  0  0  0  0  0  0  0  0  0  0
    9.3227  -15.8215   26.6041 C   0  0  0  0  0  0  0  0  0  0  0  0
    9.5677  -17.1910   26.6871 O   0  0  0  0  0  0  0  0  0  0  0  0
    9.3474  -15.2286   27.7383 O   0  0  0  0  0  0  0  0  0  0  0  0
  2  1  1  6
  2  3  1  0
  4  3  1  0
  5  2  1  0
  6  5  2  0
  7  5  1  0
  8 12  1  0
  8  7  1  0
  8  9  1  6
 10  9  1  0
 11 10  2  0
 12 20  1  0
 13 12  2  0
 14 10  1  0
 16 17  1  0
 16 15  1  0
 19 18  1  1
 18 17  1  0
 20 19  1  0
 21 22  1  0
 21 19  1  0
 23 21  2  0
M  END
$$$$
