CDM.pdb
     RDKit          3D

 23 22  0  0  1  0  0  0  0  0999 V2000
    7.0568  -14.6512   18.4216 N   0  0  0  0  0  0  0  0  0  0  0  0
    8.2286  -14.3768   19.2236 C   0  0  1  0  0  0  0  0  0  0  0  0
    8.1628  -12.9278   19.6491 C   0  0  0  0  0  0  0  0  0  0  0  0
    8.6888  -11.9305   18.2245 S   0  0  0  0  0  0  0  0  0  0  0  0
    8.2908  -15.2965   20.4053 C   0  0  0  0  0  0  0  0  0  0  0  0
    7.2477  -15.5197   21.0659 O   0  0  0  0  0  0  0  0  0  0  0  0
    9.5044  -15.9247   20.7989 N   0  0  0  0  0  0  0  0  0  0  0  0
    9.6210  -16.8301   21.9239 C   0  0  1  0  0  0  0  0  0  0  0  0
   10.9348  -17.5480   21.8483 C   0  0  0  0  0  0  0  0  0  0  0  0
   11.2165  -18.4387   22.9642 C   0  0  0  0  0  0  0  0  0  0  0  0
   12.3132  -18.3416   23.5662 O   0  0  0  0  0  0  0  0  0  0  0  0
    9.5655  -16.0513   23.1932 C   0  0  0  0  0  0  0  0  0  0  0  0
   10.3912  -15.1042   23.3715 O   0  0  0  0  0  0  0  0  0  0  0  0
   10.3154  -19.3931   23.3878 O   0  0  0  0  0  0  0  0  0  0  0  0
    7.0925  -10.8335   26.3222 C   0  0  0  0  0  0  0  0  0  0  0  0
    6.2666  -12.4319   26.5464 S   0  0  0  0  0  0  0  0  0  0  0  0
    7.4375  -13.7770   26.7194 C   0  0  0  0  0  0  0  0  0  0  0  0
    7.4315  -14.6358   25.5036 C   0  0  0  0  0  0  0  0  0  0  0  0
    8.6549  -15.4795   25.4341 C   0  0  2  0  0  0  0  0  0  0  0  0
    8.6465  -16.2997   24.2200 N   0  0  0  0  0  0  0  0  0  0  0  0
    8.8721  -16.4002   26.5668 C   0  0  0  0  0  0  0  0  0  0  0  0
    9.3638  -16.0092   27.8110 O   0  0  0  0  0  0  0  0  0  0  0  0
    8.6220  -17.6530   26.4873 O   0  0  0  0  0  0  0  0  0  0  0  0
  2  1  1  1
  2  3  1  0
  4  3  1  0
  5  2  1  0
  6  5  2  0
  7  5  1  0
  8 12  1  0
  8  7  1  0
  8  9  1  6
 10  9  1  0
 11 10  2  0
 12 20  1  0
 13 12  2  0
 14 10  1  0
 16 17  1  0
 16 15  1  0
 19 18  1  1
 18 17  1  0
 20 19  1  0
 21 22  1  0
 21 19  1  0
 23 21  2  0
M  END
$$$$
