CDM.pdb
     RDKit          3D

 23 22  0  0  1  0  0  0  0  0999 V2000
    7.4335  -15.0280   18.5075 N   0  0  0  0  0  0  0  0  0  0  0  0
    8.5118  -14.5695   19.3552 C   0  0  1  0  0  0  0  0  0  0  0  0
    8.1698  -13.1705   19.8143 C   0  0  0  0  0  0  0  0  0  0  0  0
    8.7549  -12.0301   18.5266 S   0  0  0  0  0  0  0  0  0  0  0  0
    8.7074  -15.4983   20.5150 C   0  0  0  0  0  0  0  0  0  0  0  0
    7.7133  -15.8505   21.1947 O   0  0  0  0  0  0  0  0  0  0  0  0
    9.9937  -15.9925   20.8666 N   0  0  0  0  0  0  0  0  0  0  0  0
   10.2558  -16.8165   22.0291 C   0  0  1  0  0  0  0  0  0  0  0  0
   11.6368  -17.3911   21.9282 C   0  0  0  0  0  0  0  0  0  0  0  0
   11.7880  -18.4679   20.9609 C   0  0  0  0  0  0  0  0  0  0  0  0
   12.8202  -18.5137   20.2489 O   0  0  0  0  0  0  0  0  0  0  0  0
   10.1666  -15.9796   23.2587 C   0  0  0  0  0  0  0  0  0  0  0  0
   10.9530  -14.9921   23.3903 O   0  0  0  0  0  0  0  0  0  0  0  0
   10.8311  -19.4476   20.7968 O   0  0  0  0  0  0  0  0  0  0  0  0
    6.0470  -11.5509   27.8567 C   0  0  0  0  0  0  0  0  0  0  0  0
    6.2690  -12.6455   26.4285 S   0  0  0  0  0  0  0  0  0  0  0  0
    7.7738  -13.6107   26.5467 C   0  0  0  0  0  0  0  0  0  0  0  0
    7.9693  -14.4280   25.3180 C   0  0  0  0  0  0  0  0  0  0  0  0
    9.1755  -15.2915   25.4318 C   0  0  2  0  0  0  0  0  0  0  0  0
    9.2568  -16.2146   24.2968 N   0  0  0  0  0  0  0  0  0  0  0  0
    9.2714  -16.1125   26.6543 C   0  0  0  0  0  0  0  0  0  0  0  0
    9.3579  -17.5036   26.6591 O   0  0  0  0  0  0  0  0  0  0  0  0
    9.2798  -15.5964   27.8256 O   0  0  0  0  0  0  0  0  0  0  0  0
  2  1  1  6
  2  3  1  0
  4  3  1  0
  5  2  1  0
  6  5  2  0
  7  5  1  0
  8 12  1  0
  8  7  1  0
  8  9  1  6
 10  9  1  0
 11 10  2  0
 12 20  1  0
 13 12  2  0
 14 10  1  0
 16 17  1  0
 16 15  1  0
 19 18  1  1
 18 17  1  0
 20 19  1  0
 21 22  1  0
 21 19  1  0
 23 21  2  0
M  END
$$$$
