CDM.pdb
     RDKit          3D

 23 22  0  0  1  0  0  0  0  0999 V2000
    7.6453  -14.8396   17.9238 N   0  0  0  0  0  0  0  0  0  0  0  0
    8.5939  -14.4575   18.9464 C   0  0  1  0  0  0  0  0  0  0  0  0
    8.2174  -13.0743   19.4259 C   0  0  0  0  0  0  0  0  0  0  0  0
    8.7531  -11.9030   18.1446 S   0  0  0  0  0  0  0  0  0  0  0  0
    8.5928  -15.4500   20.0695 C   0  0  0  0  0  0  0  0  0  0  0  0
    7.4986  -15.8429   20.5413 O   0  0  0  0  0  0  0  0  0  0  0  0
    9.8027  -15.9596   20.6162 N   0  0  0  0  0  0  0  0  0  0  0  0
    9.8662  -16.8362   21.7679 C   0  0  1  0  0  0  0  0  0  0  0  0
   11.1116  -17.6670   21.6905 C   0  0  0  0  0  0  0  0  0  0  0  0
   11.1108  -18.6848   20.6503 C   0  0  0  0  0  0  0  0  0  0  0  0
   10.1623  -19.5044   20.5933 O   0  0  0  0  0  0  0  0  0  0  0  0
    9.9058  -16.0163   23.0116 C   0  0  0  0  0  0  0  0  0  0  0  0
   10.8352  -15.1647   23.1589 O   0  0  0  0  0  0  0  0  0  0  0  0
   12.1220  -18.7824   19.7174 O   0  0  0  0  0  0  0  0  0  0  0  0
    6.2689  -11.3722   27.9058 C   0  0  0  0  0  0  0  0  0  0  0  0
    6.2886  -12.5069   26.4918 S   0  0  0  0  0  0  0  0  0  0  0  0
    7.7836  -13.4929   26.4398 C   0  0  0  0  0  0  0  0  0  0  0  0
    7.8002  -14.3548   25.2262 C   0  0  0  0  0  0  0  0  0  0  0  0
    9.0185  -15.2080   25.1881 C   0  0  2  0  0  0  0  0  0  0  0  0
    8.9691  -16.1254   24.0467 N   0  0  0  0  0  0  0  0  0  0  0  0
    9.2689  -16.0333   26.3856 C   0  0  0  0  0  0  0  0  0  0  0  0
    9.3896  -17.4217   26.3689 O   0  0  0  0  0  0  0  0  0  0  0  0
    9.3938  -15.5239   27.5532 O   0  0  0  0  0  0  0  0  0  0  0  0
  2  1  1  6
  2  3  1  0
  4  3  1  0
  5  2  1  0
  6  5  2  0
  7  5  1  0
  8 12  1  0
  8  7  1  0
  8  9  1  6
 10  9  1  0
 11 10  2  0
 12 20  1  0
 13 12  2  0
 14 10  1  0
 16 17  1  0
 16 15  1  0
 19 18  1  1
 18 17  1  0
 20 19  1  0
 21 22  1  0
 21 19  1  0
 23 21  2  0
M  END
$$$$
