CDM.pdb
     RDKit          3D

 23 22  0  0  1  0  0  0  0  0999 V2000
    6.2131  -16.0366   20.2749 N   0  0  0  0  0  0  0  0  0  0  0  0
    7.5501  -15.4992   20.3985 C   0  0  1  0  0  0  0  0  0  0  0  0
    7.4245  -14.0157   20.6601 C   0  0  0  0  0  0  0  0  0  0  0  0
    6.6851  -13.8269   22.3088 S   0  0  0  0  0  0  0  0  0  0  0  0
    8.3015  -16.1910   21.4953 C   0  0  0  0  0  0  0  0  0  0  0  0
    7.6656  -16.8337   22.3653 O   0  0  0  0  0  0  0  0  0  0  0  0
    9.7203  -16.1383   21.5763 N   0  0  0  0  0  0  0  0  0  0  0  0
   10.4998  -16.8113   22.5953 C   0  0  1  0  0  0  0  0  0  0  0  0
   11.9454  -16.8046   22.1984 C   0  0  0  0  0  0  0  0  0  0  0  0
   12.2848  -17.6825   21.0885 C   0  0  0  0  0  0  0  0  0  0  0  0
   11.7744  -18.8275   21.0324 O   0  0  0  0  0  0  0  0  0  0  0  0
   10.3484  -16.0901   23.8904 C   0  0  0  0  0  0  0  0  0  0  0  0
   10.4768  -14.8276   23.9114 O   0  0  0  0  0  0  0  0  0  0  0  0
   13.1536  -17.2994   20.0880 O   0  0  0  0  0  0  0  0  0  0  0  0
    7.7065  -11.4168   26.8726 C   0  0  0  0  0  0  0  0  0  0  0  0
    6.8879  -12.9761   26.4421 S   0  0  0  0  0  0  0  0  0  0  0  0
    7.8155  -14.4020   27.0047 C   0  0  0  0  0  0  0  0  0  0  0  0
    8.3711  -15.1550   25.8470 C   0  0  0  0  0  0  0  0  0  0  0  0
    9.5633  -15.9513   26.2446 C   0  0  2  0  0  0  0  0  0  0  0  0
   10.0689  -16.7242   25.1072 N   0  0  0  0  0  0  0  0  0  0  0  0
    9.3644  -16.9064   27.3520 C   0  0  0  0  0  0  0  0  0  0  0  0
    9.3784  -18.2921   27.2034 O   0  0  0  0  0  0  0  0  0  0  0  0
    9.1572  -16.5240   28.5558 O   0  0  0  0  0  0  0  0  0  0  0  0
  2  1  1  1
  2  3  1  0
  4  3  1  0
  5  2  1  0
  6  5  2  0
  7  5  1  0
  8 12  1  0
  8  7  1  0
  8  9  1  6
 10  9  1  0
 11 10  2  0
 12 20  1  0
 13 12  2  0
 14 10  1  0
 16 17  1  0
 16 15  1  0
 19 18  1  6
 18 17  1  0
 20 19  1  0
 21 22  1  0
 21 19  1  0
 23 21  2  0
M  END
$$$$
