CDM.pdb
     RDKit          3D

 23 22  0  0  1  0  0  0  0  0999 V2000
    7.1688  -15.0134   18.5897 N   0  0  0  0  0  0  0  0  0  0  0  0
    8.3326  -14.5619   19.3200 C   0  0  1  0  0  0  0  0  0  0  0  0
    8.0939  -13.1231   19.7171 C   0  0  0  0  0  0  0  0  0  0  0  0
    8.2250  -12.1251   18.2046 S   0  0  0  0  0  0  0  0  0  0  0  0
    8.5790  -15.4306   20.5161 C   0  0  0  0  0  0  0  0  0  0  0  0
    7.6031  -15.8385   21.1910 O   0  0  0  0  0  0  0  0  0  0  0  0
    9.8937  -15.8059   20.9077 N   0  0  0  0  0  0  0  0  0  0  0  0
   10.1883  -16.6836   22.0221 C   0  0  1  0  0  0  0  0  0  0  0  0
   11.6259  -17.1033   21.9558 C   0  0  0  0  0  0  0  0  0  0  0  0
   12.0294  -18.0831   22.9534 C   0  0  0  0  0  0  0  0  0  0  0  0
   11.1748  -18.5309   23.7556 O   0  0  0  0  0  0  0  0  0  0  0  0
    9.9535  -15.9552   23.3007 C   0  0  0  0  0  0  0  0  0  0  0  0
   10.7190  -14.9914   23.6103 O   0  0  0  0  0  0  0  0  0  0  0  0
   13.3268  -18.5412   23.0503 O   0  0  0  0  0  0  0  0  0  0  0  0
    7.3635  -11.0825   26.9153 C   0  0  0  0  0  0  0  0  0  0  0  0
    6.3591  -12.5438   26.5372 S   0  0  0  0  0  0  0  0  0  0  0  0
    7.2797  -14.0666   26.7457 C   0  0  0  0  0  0  0  0  0  0  0  0
    7.5244  -14.7149   25.4282 C   0  0  0  0  0  0  0  0  0  0  0  0
    8.7785  -15.5150   25.4463 C   0  0  2  0  0  0  0  0  0  0  0  0
    8.9261  -16.2693   24.1988 N   0  0  0  0  0  0  0  0  0  0  0  0
    8.9106  -16.4875   26.5485 C   0  0  0  0  0  0  0  0  0  0  0  0
    9.0256  -16.1374   27.8926 O   0  0  0  0  0  0  0  0  0  0  0  0
    8.9325  -17.7512   26.3463 O   0  0  0  0  0  0  0  0  0  0  0  0
  2  1  1  1
  2  3  1  0
  4  3  1  0
  5  2  1  0
  6  5  2  0
  7  5  1  0
  8 12  1  0
  8  7  1  0
  8  9  1  6
 10  9  1  0
 11 10  2  0
 12 20  1  0
 13 12  2  0
 14 10  1  0
 16 17  1  0
 16 15  1  0
 19 18  1  6
 18 17  1  0
 20 19  1  0
 21 22  1  0
 21 19  1  0
 23 21  2  0
M  END
$$$$
