CDM.pdb
     RDKit          3D

 23 22  0  0  1  0  0  0  0  0999 V2000
    6.8216  -15.0401   18.4326 N   0  0  0  0  0  0  0  0  0  0  0  0
    7.9136  -14.5461   19.2420 C   0  0  1  0  0  0  0  0  0  0  0  0
    7.5326  -13.1679   19.7324 C   0  0  0  0  0  0  0  0  0  0  0  0
    9.0399  -12.4062   20.4023 S   0  0  0  0  0  0  0  0  0  0  0  0
    8.1947  -15.4786   20.3811 C   0  0  0  0  0  0  0  0  0  0  0  0
    7.2469  -15.8668   21.1058 O   0  0  0  0  0  0  0  0  0  0  0  0
    9.5113  -15.9365   20.6631 N   0  0  0  0  0  0  0  0  0  0  0  0
    9.8534  -16.7737   21.7949 C   0  0  1  0  0  0  0  0  0  0  0  0
   11.1224  -17.5145   21.4977 C   0  0  0  0  0  0  0  0  0  0  0  0
   11.0208  -18.5154   20.4461 C   0  0  0  0  0  0  0  0  0  0  0  0
   10.0727  -19.3371   20.4694 O   0  0  0  0  0  0  0  0  0  0  0  0
   10.0605  -15.9187   22.9977 C   0  0  0  0  0  0  0  0  0  0  0  0
   10.9659  -15.0296   22.9732 O   0  0  0  0  0  0  0  0  0  0  0  0
   11.9354  -18.5947   19.4168 O   0  0  0  0  0  0  0  0  0  0  0  0
    5.6014  -12.2034   27.0079 C   0  0  0  0  0  0  0  0  0  0  0  0
    7.3697  -12.4054   26.6623 S   0  0  0  0  0  0  0  0  0  0  0  0
    7.6865  -13.7700   25.5454 C   0  0  0  0  0  0  0  0  0  0  0  0
    9.1340  -13.8434   25.2061 C   0  0  0  0  0  0  0  0  0  0  0  0
    9.6514  -15.2308   25.3508 C   0  0  2  0  0  0  0  0  0  0  0  0
    9.3092  -16.0334   24.1737 N   0  0  0  0  0  0  0  0  0  0  0  0
    9.1743  -15.9804   26.5291 C   0  0  0  0  0  0  0  0  0  0  0  0
    8.5185  -17.2085   26.4634 O   0  0  0  0  0  0  0  0  0  0  0  0
    9.3286  -15.5472   27.7236 O   0  0  0  0  0  0  0  0  0  0  0  0
  2  1  1  1
  2  3  1  0
  4  3  1  0
  5  2  1  0
  6  5  2  0
  7  5  1  0
  8 12  1  0
  8  7  1  0
  8  9  1  6
 10  9  1  0
 11 10  2  0
 12 20  1  0
 13 12  2  0
 14 10  1  0
 16 17  1  0
 16 15  1  0
 19 18  1  6
 18 17  1  0
 20 19  1  0
 21 22  1  0
 21 19  1  0
 23 21  2  0
M  END
$$$$
