IYM.pdb
     RDKit          3D

 29 29  0  0  1  0  0  0  0  0999 V2000
    7.9557  -12.2030   19.3957 C   0  0  0  0  0  0  0  0  0  0  0  0
    7.4499  -13.5996   19.4411 C   0  0  0  0  0  0  0  0  0  0  0  0
    7.5443  -14.2787   20.7879 C   0  0  2  0  0  0  0  0  0  0  0  0
    8.9937  -14.2164   21.2535 C   0  0  0  0  0  0  0  0  0  0  0  0
    7.0072  -15.6825   20.7399 C   0  0  2  0  0  0  0  0  0  0  0  0
    5.5842  -15.5319   20.3740 N   0  0  0  0  0  0  0  0  0  0  0  0
    7.0372  -16.4057   22.0202 C   0  0  0  0  0  0  0  0  0  0  0  0
    6.3144  -15.9742   22.9761 O   0  0  0  0  0  0  0  0  0  0  0  0
    6.6616  -22.5308   28.1561 O   0  0  0  0  0  0  0  0  0  0  0  0
    7.0025  -21.8090   27.0084 C   0  0  0  0  0  0  0  0  0  0  0  0
    8.3208  -21.6554   26.6291 C   0  0  0  0  0  0  0  0  0  0  0  0
    8.6390  -20.9362   25.4872 C   0  0  0  0  0  0  0  0  0  0  0  0
    7.6626  -20.3604   24.7064 C   0  0  0  0  0  0  0  0  0  0  0  0
    7.9906  -19.5903   23.5205 C   0  0  0  0  0  0  0  0  0  0  0  0
    7.9321  -18.0881   23.6716 C   0  0  2  0  0  0  0  0  0  0  0  0
    7.7937  -17.5609   22.3257 N   0  0  0  0  0  0  0  0  0  0  0  0
    9.1302  -17.6323   24.3846 C   0  0  0  0  0  0  0  0  0  0  0  0
   10.2017  -17.5817   23.7204 O   0  0  0  0  0  0  0  0  0  0  0  0
    6.3571  -20.5242   25.1005 C   0  0  0  0  0  0  0  0  0  0  0  0
    6.0196  -21.2374   26.2349 C   0  0  0  0  0  0  0  0  0  0  0  0
   10.2319  -13.3808   29.8196 C   0  0  0  0  0  0  0  0  0  0  0  0
    9.1083  -13.4960   28.4099 S   0  0  0  0  0  0  0  0  0  0  0  0
    9.1982  -15.2164   27.7745 C   0  0  0  0  0  0  0  0  0  0  0  0
   10.3222  -15.3329   26.7695 C   0  0  0  0  0  0  0  0  0  0  0  0
   10.4291  -16.7581   26.3001 C   0  0  2  0  0  0  0  0  0  0  0  0
    9.1853  -17.2552   25.7285 N   0  0  0  0  0  0  0  0  0  0  0  0
   10.7964  -17.6503   27.4773 C   0  0  0  0  0  0  0  0  0  0  0  0
    9.9781  -18.4760   27.9507 O   0  0  0  0  0  0  0  0  0  0  0  0
   12.0489  -17.5828   28.0690 O   0  0  0  0  0  0  0  0  0  0  0  0
  2  1  1  0
  3  2  1  0
  3  4  1  6
  5  6  1  1
  5  3  1  0
  7  5  1  0
  7  8  2  0
  9 10  1  0
 10 11  2  0
 11 12  1  0
 13 12  2  0
 13 14  1  0
 15 14  1  6
 15 16  1  0
 15 17  1  0
 16  7  1  0
 17 26  1  0
 18 17  2  0
 19 13  1  0
 20 10  1  0
 20 19  2  0
 21 22  1  0
 22 23  1  0
 23 24  1  0
 25 24  1  1
 25 27  1  0
 26 25  1  0
 27 28  2  0
 27 29  1  0
M  END
$$$$
