IYM.pdb
     RDKit          3D

 29 29  0  0  1  0  0  0  0  0999 V2000
    6.8531  -12.7325   18.0687 C   0  0  0  0  0  0  0  0  0  0  0  0
    6.7809  -13.9287   18.9475 C   0  0  0  0  0  0  0  0  0  0  0  0
    7.4844  -13.7974   20.2786 C   0  0  2  0  0  0  0  0  0  0  0  0
    8.9483  -13.4676   20.0145 C   0  0  0  0  0  0  0  0  0  0  0  0
    7.3074  -15.0290   21.1232 C   0  0  2  0  0  0  0  0  0  0  0  0
    5.8464  -15.1700   21.2869 N   0  0  0  0  0  0  0  0  0  0  0  0
    7.8752  -14.9434   22.4772 C   0  0  0  0  0  0  0  0  0  0  0  0
    7.3645  -14.1123   23.2962 O   0  0  0  0  0  0  0  0  0  0  0  0
   10.8154  -15.0209   30.5357 O   0  0  0  0  0  0  0  0  0  0  0  0
   10.2802  -15.1464   29.2504 C   0  0  0  0  0  0  0  0  0  0  0  0
   10.0514  -16.3880   28.6923 C   0  0  0  0  0  0  0  0  0  0  0  0
    9.5196  -16.4920   27.4161 C   0  0  0  0  0  0  0  0  0  0  0  0
    9.2073  -15.3746   26.6755 C   0  0  0  0  0  0  0  0  0  0  0  0
    8.6682  -15.4770   25.3317 C   0  0  0  0  0  0  0  0  0  0  0  0
    9.6673  -15.3374   24.2069 C   0  0  2  0  0  0  0  0  0  0  0  0
    8.9521  -15.6993   22.9961 N   0  0  0  0  0  0  0  0  0  0  0  0
   10.8354  -16.1752   24.4984 C   0  0  0  0  0  0  0  0  0  0  0  0
   10.6357  -17.4180   24.5854 O   0  0  0  0  0  0  0  0  0  0  0  0
    9.4424  -14.1485   27.2479 C   0  0  0  0  0  0  0  0  0  0  0  0
    9.9716  -14.0238   28.5183 C   0  0  0  0  0  0  0  0  0  0  0  0
   15.8017  -14.5742   21.2614 C   0  0  0  0  0  0  0  0  0  0  0  0
   16.7032  -15.8424   22.1791 S   0  0  0  0  0  0  0  0  0  0  0  0
   15.4930  -16.7050   23.2576 C   0  0  0  0  0  0  0  0  0  0  0  0
   14.3169  -15.7963   23.5364 C   0  0  0  0  0  0  0  0  0  0  0  0
   13.2738  -16.5509   24.3145 C   0  0  2  0  0  0  0  0  0  0  0  0
   12.1409  -15.7163   24.6896 N   0  0  0  0  0  0  0  0  0  0  0  0
   13.8963  -17.1013   25.5897 C   0  0  0  0  0  0  0  0  0  0  0  0
   13.7326  -16.5298   26.6953 O   0  0  0  0  0  0  0  0  0  0  0  0
   14.6669  -18.2544   25.5758 O   0  0  0  0  0  0  0  0  0  0  0  0
  2  1  1  0
  3  2  1  0
  3  4  1  6
  5  6  1  1
  5  3  1  0
  7  5  1  0
  7  8  2  0
  9 10  1  0
 10 11  2  0
 11 12  1  0
 13 12  2  0
 13 14  1  0
 15 14  1  1
 15 16  1  0
 15 17  1  0
 16  7  1  0
 17 26  1  0
 18 17  2  0
 19 13  1  0
 20 10  1  0
 20 19  2  0
 21 22  1  0
 22 23  1  0
 23 24  1  0
 25 24  1  1
 25 27  1  0
 26 25  1  0
 27 28  2  0
 27 29  1  0
M  END
$$$$
