IYM.pdb
     RDKit          3D

 29 29  0  0  1  0  0  0  0  0999 V2000
    2.7579  -18.5784   21.0401 C   0  0  0  0  0  0  0  0  0  0  0  0
    3.8792  -18.4753   22.0098 C   0  0  0  0  0  0  0  0  0  0  0  0
    4.6585  -19.7503   22.2361 C   0  0  2  0  0  0  0  0  0  0  0  0
    3.6837  -20.8328   22.6828 C   0  0  0  0  0  0  0  0  0  0  0  0
    5.7874  -19.5450   23.2081 C   0  0  2  0  0  0  0  0  0  0  0  0
    5.1537  -18.9613   24.4077 N   0  0  0  0  0  0  0  0  0  0  0  0
    6.8196  -18.5921   22.7728 C   0  0  0  0  0  0  0  0  0  0  0  0
    7.7740  -19.0230   22.0476 O   0  0  0  0  0  0  0  0  0  0  0  0
    9.0131  -11.9826   17.9381 O   0  0  0  0  0  0  0  0  0  0  0  0
    8.5994  -12.7255   19.0477 C   0  0  0  0  0  0  0  0  0  0  0  0
    9.4884  -13.5170   19.7466 C   0  0  0  0  0  0  0  0  0  0  0  0
    9.0590  -14.2463   20.8448 C   0  0  0  0  0  0  0  0  0  0  0  0
    7.7495  -14.2043   21.2669 C   0  0  0  0  0  0  0  0  0  0  0  0
    7.2900  -14.9803   22.4042 C   0  0  0  0  0  0  0  0  0  0  0  0
    7.9314  -16.3369   22.5804 C   0  0  2  0  0  0  0  0  0  0  0  0
    6.8796  -17.2105   23.0693 N   0  0  0  0  0  0  0  0  0  0  0  0
    9.0835  -16.2079   23.4789 C   0  0  0  0  0  0  0  0  0  0  0  0
   10.0412  -15.4924   23.0755 O   0  0  0  0  0  0  0  0  0  0  0  0
    6.8803  -13.4113   20.5584 C   0  0  0  0  0  0  0  0  0  0  0  0
    7.2887  -12.6769   19.4614 C   0  0  0  0  0  0  0  0  0  0  0  0
    7.3997  -12.4981   28.0589 C   0  0  0  0  0  0  0  0  0  0  0  0
    9.0201  -13.2720   27.8625 S   0  0  0  0  0  0  0  0  0  0  0  0
    8.8355  -14.6319   26.6425 C   0  0  0  0  0  0  0  0  0  0  0  0
   10.1686  -14.9168   25.9879 C   0  0  0  0  0  0  0  0  0  0  0  0
   10.2583  -16.3797   25.6494 C   0  0  2  0  0  0  0  0  0  0  0  0
    9.2105  -16.8088   24.7336 N   0  0  0  0  0  0  0  0  0  0  0  0
   10.1344  -17.2007   26.9251 C   0  0  0  0  0  0  0  0  0  0  0  0
   10.9529  -17.0697   27.8677 O   0  0  0  0  0  0  0  0  0  0  0  0
    9.1123  -18.1234   27.0915 O   0  0  0  0  0  0  0  0  0  0  0  0
  2  1  1  0
  3  2  1  0
  3  4  1  1
  5  6  1  1
  5  3  1  0
  7  5  1  0
  7  8  2  0
  9 10  1  0
 10 11  2  0
 11 12  1  0
 13 12  2  0
 13 14  1  0
 15 14  1  1
 15 16  1  0
 15 17  1  0
 16  7  1  0
 17 26  1  0
 18 17  2  0
 19 13  1  0
 20 10  1  0
 20 19  2  0
 21 22  1  0
 22 23  1  0
 23 24  1  0
 25 24  1  1
 25 27  1  0
 26 25  1  0
 27 28  2  0
 27 29  1  0
M  END
$$$$
