IYM.pdb
     RDKit          3D

 29 29  0  0  1  0  0  0  0  0999 V2000
    7.4215  -11.7418   18.3798 C   0  0  0  0  0  0  0  0  0  0  0  0
    7.8507  -13.1627   18.3084 C   0  0  0  0  0  0  0  0  0  0  0  0
    7.9520  -13.8759   19.6369 C   0  0  2  0  0  0  0  0  0  0  0  0
    8.9123  -13.0955   20.5258 C   0  0  0  0  0  0  0  0  0  0  0  0
    8.3553  -15.3144   19.4648 C   0  0  2  0  0  0  0  0  0  0  0  0
    7.2511  -15.9290   18.7002 N   0  0  0  0  0  0  0  0  0  0  0  0
    8.4787  -16.0811   20.7138 C   0  0  0  0  0  0  0  0  0  0  0  0
    7.4130  -16.4668   21.2951 O   0  0  0  0  0  0  0  0  0  0  0  0
   11.8815  -21.5287   26.9006 O   0  0  0  0  0  0  0  0  0  0  0  0
   11.6404  -20.6751   25.8200 C   0  0  0  0  0  0  0  0  0  0  0  0
   10.6926  -20.9847   24.8655 C   0  0  0  0  0  0  0  0  0  0  0  0
   10.4676  -20.1251   23.8012 C   0  0  0  0  0  0  0  0  0  0  0  0
   11.1734  -18.9513   23.6651 C   0  0  0  0  0  0  0  0  0  0  0  0
   10.9557  -18.0567   22.5430 C   0  0  0  0  0  0  0  0  0  0  0  0
    9.7048  -17.2116   22.6052 C   0  0  2  0  0  0  0  0  0  0  0  0
    9.6766  -16.4559   21.3656 N   0  0  0  0  0  0  0  0  0  0  0  0
    9.7430  -16.3897   23.8195 C   0  0  0  0  0  0  0  0  0  0  0  0
   10.0562  -15.1761   23.6743 O   0  0  0  0  0  0  0  0  0  0  0  0
   12.1121  -18.6611   24.6248 C   0  0  0  0  0  0  0  0  0  0  0  0
   12.3510  -19.5046   25.6929 C   0  0  0  0  0  0  0  0  0  0  0  0
    6.9121  -11.9203   25.5905 C   0  0  0  0  0  0  0  0  0  0  0  0
    7.5665  -13.1186   26.7733 S   0  0  0  0  0  0  0  0  0  0  0  0
    6.6756  -14.7013   26.5022 C   0  0  0  0  0  0  0  0  0  0  0  0
    7.4072  -15.5303   25.4705 C   0  0  0  0  0  0  0  0  0  0  0  0
    8.7229  -15.9890   26.0374 C   0  0  2  0  0  0  0  0  0  0  0  0
    9.4670  -16.8347   25.1145 N   0  0  0  0  0  0  0  0  0  0  0  0
    8.4731  -16.7860   27.3098 C   0  0  0  0  0  0  0  0  0  0  0  0
    7.9480  -17.9255   27.2738 O   0  0  0  0  0  0  0  0  0  0  0  0
    8.8170  -16.2814   28.5552 O   0  0  0  0  0  0  0  0  0  0  0  0
  2  1  1  0
  3  2  1  0
  3  4  1  1
  5  6  1  6
  5  3  1  0
  7  5  1  0
  7  8  2  0
  9 10  1  0
 10 11  2  0
 11 12  1  0
 13 12  2  0
 13 14  1  0
 15 14  1  6
 15 16  1  0
 15 17  1  0
 16  7  1  0
 17 26  1  0
 18 17  2  0
 19 13  1  0
 20 10  1  0
 20 19  2  0
 21 22  1  0
 22 23  1  0
 23 24  1  0
 25 24  1  6
 25 27  1  0
 26 25  1  0
 27 28  2  0
 27 29  1  0
M  END
$$$$
