IYM.pdb
     RDKit          3D

 29 29  0  0  1  0  0  0  0  0999 V2000
    7.4492  -12.4289   18.5912 C   0  0  0  0  0  0  0  0  0  0  0  0
    8.0283  -13.7957   18.6598 C   0  0  0  0  0  0  0  0  0  0  0  0
    8.1993  -14.3571   20.0525 C   0  0  2  0  0  0  0  0  0  0  0  0
    9.0161  -13.3645   20.8705 C   0  0  0  0  0  0  0  0  0  0  0  0
    8.8090  -15.7315   20.0254 C   0  0  2  0  0  0  0  0  0  0  0  0
    7.8504  -16.5567   19.2628 N   0  0  0  0  0  0  0  0  0  0  0  0
    8.9612  -16.3721   21.3405 C   0  0  0  0  0  0  0  0  0  0  0  0
    7.9096  -16.7185   21.9704 O   0  0  0  0  0  0  0  0  0  0  0  0
   12.7143  -20.1054   28.5622 O   0  0  0  0  0  0  0  0  0  0  0  0
   12.4017  -19.5703   27.3091 C   0  0  0  0  0  0  0  0  0  0  0  0
   11.1957  -19.8469   26.6972 C   0  0  0  0  0  0  0  0  0  0  0  0
   10.9038  -19.3064   25.4542 C   0  0  0  0  0  0  0  0  0  0  0  0
   11.7962  -18.4877   24.8002 C   0  0  0  0  0  0  0  0  0  0  0  0
   11.5042  -17.9344   23.4904 C   0  0  0  0  0  0  0  0  0  0  0  0
   10.2322  -17.1260   23.3838 C   0  0  2  0  0  0  0  0  0  0  0  0
   10.1733  -16.6618   22.0092 N   0  0  0  0  0  0  0  0  0  0  0  0
   10.2596  -16.0568   24.3876 C   0  0  0  0  0  0  0  0  0  0  0  0
   11.0674  -15.1088   24.1858 O   0  0  0  0  0  0  0  0  0  0  0  0
   12.9906  -18.2246   25.4251 C   0  0  0  0  0  0  0  0  0  0  0  0
   13.3002  -18.7534   26.6636 C   0  0  0  0  0  0  0  0  0  0  0  0
    6.3451  -11.5587   26.0234 C   0  0  0  0  0  0  0  0  0  0  0  0
    7.4480  -11.6186   27.4528 S   0  0  0  0  0  0  0  0  0  0  0  0
    8.0180  -13.3546   27.6349 C   0  0  0  0  0  0  0  0  0  0  0  0
    8.3918  -13.9153   26.2812 C   0  0  0  0  0  0  0  0  0  0  0  0
    9.5594  -14.8518   26.4316 C   0  0  2  0  0  0  0  0  0  0  0  0
    9.4747  -16.0014   25.5418 N   0  0  0  0  0  0  0  0  0  0  0  0
    9.6114  -15.3667   27.8630 C   0  0  0  0  0  0  0  0  0  0  0  0
    9.3408  -16.5613   28.1372 O   0  0  0  0  0  0  0  0  0  0  0  0
    9.9598  -14.5339   28.9160 O   0  0  0  0  0  0  0  0  0  0  0  0
  2  1  1  0
  3  2  1  0
  3  4  1  1
  5  6  1  6
  5  3  1  0
  7  5  1  0
  7  8  2  0
  9 10  1  0
 10 11  2  0
 11 12  1  0
 13 12  2  0
 13 14  1  0
 15 14  1  6
 15 16  1  0
 15 17  1  0
 16  7  1  0
 17 26  1  0
 18 17  2  0
 19 13  1  0
 20 10  1  0
 20 19  2  0
 21 22  1  0
 22 23  1  0
 23 24  1  0
 25 24  1  1
 25 27  1  0
 26 25  1  0
 27 28  2  0
 27 29  1  0
M  END
$$$$
