IYM.pdb
     RDKit          3D

 29 29  0  0  1  0  0  0  0  0999 V2000
    6.3447  -20.4466   27.5689 C   0  0  0  0  0  0  0  0  0  0  0  0
    6.0128  -19.7203   26.3157 C   0  0  0  0  0  0  0  0  0  0  0  0
    7.1665  -18.9935   25.6639 C   0  0  2  0  0  0  0  0  0  0  0  0
    7.7220  -17.9863   26.6630 C   0  0  0  0  0  0  0  0  0  0  0  0
    6.7583  -18.3597   24.3626 C   0  0  2  0  0  0  0  0  0  0  0  0
    6.1174  -19.4470   23.5956 N   0  0  0  0  0  0  0  0  0  0  0  0
    7.8685  -17.8612   23.5367 C   0  0  0  0  0  0  0  0  0  0  0  0
    8.5141  -18.6957   22.8231 O   0  0  0  0  0  0  0  0  0  0  0  0
    6.6681  -13.7029   17.5293 O   0  0  0  0  0  0  0  0  0  0  0  0
    7.3299  -13.9411   18.7375 C   0  0  0  0  0  0  0  0  0  0  0  0
    7.0902  -13.1566   19.8476 C   0  0  0  0  0  0  0  0  0  0  0  0
    7.7562  -13.4088   21.0372 C   0  0  0  0  0  0  0  0  0  0  0  0
    8.6657  -14.4362   21.1467 C   0  0  0  0  0  0  0  0  0  0  0  0
    9.3801  -14.6931   22.3838 C   0  0  0  0  0  0  0  0  0  0  0  0
    9.5469  -16.1469   22.7603 C   0  0  2  0  0  0  0  0  0  0  0  0
    8.3172  -16.5239   23.4342 N   0  0  0  0  0  0  0  0  0  0  0  0
   10.7580  -16.2940   23.5745 C   0  0  0  0  0  0  0  0  0  0  0  0
   11.3197  -17.4236   23.5583 O   0  0  0  0  0  0  0  0  0  0  0  0
    8.8907  -15.2052   20.0312 C   0  0  0  0  0  0  0  0  0  0  0  0
    8.2370  -14.9701   18.8367 C   0  0  0  0  0  0  0  0  0  0  0  0
    9.7911  -13.4594   29.1637 C   0  0  0  0  0  0  0  0  0  0  0  0
    9.9453  -15.2477   29.3675 S   0  0  0  0  0  0  0  0  0  0  0  0
   11.1259  -15.8461   28.0948 C   0  0  0  0  0  0  0  0  0  0  0  0
   10.6286  -15.4688   26.7174 C   0  0  0  0  0  0  0  0  0  0  0  0
   11.7543  -15.5910   25.7272 C   0  0  2  0  0  0  0  0  0  0  0  0
   11.3363  -15.2968   24.3636 N   0  0  0  0  0  0  0  0  0  0  0  0
   12.2995  -17.0118   25.7567 C   0  0  0  0  0  0  0  0  0  0  0  0
   13.2554  -17.3287   26.5060 O   0  0  0  0  0  0  0  0  0  0  0  0
   11.7593  -18.0075   24.9563 O   0  0  0  0  0  0  0  0  0  0  0  0
  2  1  1  0
  3  2  1  0
  3  4  1  1
  5  6  1  6
  5  3  1  0
  7  5  1  0
  7  8  2  0
  9 10  1  0
 10 11  2  0
 11 12  1  0
 13 12  2  0
 13 14  1  0
 15 14  1  1
 15 16  1  0
 15 17  1  0
 16  7  1  0
 17 26  1  0
 18 17  2  0
 19 13  1  0
 20 10  1  0
 20 19  2  0
 21 22  1  0
 22 23  1  0
 23 24  1  0
 25 24  1  1
 25 27  1  0
 26 25  1  0
 27 28  2  0
 27 29  1  0
M  END
$$$$
