IYM.pdb
     RDKit          3D

 29 29  0  0  1  0  0  0  0  0999 V2000
    8.3131  -11.9415   27.3019 C   0  0  0  0  0  0  0  0  0  0  0  0
    7.9714  -13.3119   26.8399 C   0  0  0  0  0  0  0  0  0  0  0  0
    6.5680  -13.4839   26.3060 C   0  0  2  0  0  0  0  0  0  0  0  0
    5.5878  -13.0893   27.4037 C   0  0  0  0  0  0  0  0  0  0  0  0
    6.3373  -14.8782   25.7919 C   0  0  2  0  0  0  0  0  0  0  0  0
    6.8116  -15.7647   26.8739 N   0  0  0  0  0  0  0  0  0  0  0  0
    7.1061  -15.2346   24.5898 C   0  0  0  0  0  0  0  0  0  0  0  0
    7.5622  -16.4200   24.4925 O   0  0  0  0  0  0  0  0  0  0  0  0
    8.9438  -14.8146   15.8300 O   0  0  0  0  0  0  0  0  0  0  0  0
    8.6014  -14.5765   17.1643 C   0  0  0  0  0  0  0  0  0  0  0  0
    8.0446  -15.5695   17.9448 C   0  0  0  0  0  0  0  0  0  0  0  0
    7.7120  -15.3141   19.2664 C   0  0  0  0  0  0  0  0  0  0  0  0
    7.9240  -14.0781   19.8338 C   0  0  0  0  0  0  0  0  0  0  0  0
    7.5604  -13.7992   21.2111 C   0  0  0  0  0  0  0  0  0  0  0  0
    7.8609  -14.8940   22.2080 C   0  0  2  0  0  0  0  0  0  0  0  0
    7.4063  -14.3936   23.4931 N   0  0  0  0  0  0  0  0  0  0  0  0
    9.2911  -15.2143   22.1498 C   0  0  0  0  0  0  0  0  0  0  0  0
    9.6347  -16.1385   21.3627 O   0  0  0  0  0  0  0  0  0  0  0  0
    8.4787  -13.1033   19.0410 C   0  0  0  0  0  0  0  0  0  0  0  0
    8.8171  -13.3380   17.7220 C   0  0  0  0  0  0  0  0  0  0  0  0
   10.7793  -13.3372   27.5112 C   0  0  0  0  0  0  0  0  0  0  0  0
   10.7444  -15.1010   27.9000 S   0  0  0  0  0  0  0  0  0  0  0  0
   10.9603  -16.0160   26.3227 C   0  0  0  0  0  0  0  0  0  0  0  0
   10.1566  -15.3483   25.2294 C   0  0  0  0  0  0  0  0  0  0  0  0
   10.9699  -15.3051   23.9647 C   0  0  2  0  0  0  0  0  0  0  0  0
   10.2976  -14.5889   22.8896 N   0  0  0  0  0  0  0  0  0  0  0  0
   11.2379  -16.7258   23.4890 C   0  0  0  0  0  0  0  0  0  0  0  0
   10.3045  -17.5524   23.3435 O   0  0  0  0  0  0  0  0  0  0  0  0
   12.5235  -17.1580   23.1990 O   0  0  0  0  0  0  0  0  0  0  0  0
  2  1  1  0
  3  2  1  0
  3  4  1  1
  5  6  1  1
  5  3  1  0
  7  5  1  0
  7  8  2  0
  9 10  1  0
 10 11  2  0
 11 12  1  0
 13 12  2  0
 13 14  1  0
 15 14  1  6
 15 16  1  0
 15 17  1  0
 16  7  1  0
 17 26  1  0
 18 17  2  0
 19 13  1  0
 20 10  1  0
 20 19  2  0
 21 22  1  0
 22 23  1  0
 23 24  1  0
 25 24  1  1
 25 27  1  0
 26 25  1  0
 27 28  2  0
 27 29  1  0
M  END
$$$$
