IYM.pdb
     RDKit          3D

 29 29  0  0  1  0  0  0  0  0999 V2000
    7.6150  -13.8782   17.5455 C   0  0  0  0  0  0  0  0  0  0  0  0
    6.9395  -14.2296   18.8216 C   0  0  0  0  0  0  0  0  0  0  0  0
    7.8102  -14.1620   20.0550 C   0  0  2  0  0  0  0  0  0  0  0  0
    9.0852  -14.9506   19.7831 C   0  0  0  0  0  0  0  0  0  0  0  0
    7.0778  -14.6411   21.2778 C   0  0  2  0  0  0  0  0  0  0  0  0
    5.8685  -13.7964   21.3510 N   0  0  0  0  0  0  0  0  0  0  0  0
    7.7965  -14.4561   22.5476 C   0  0  0  0  0  0  0  0  0  0  0  0
    8.2481  -13.2976   22.8242 O   0  0  0  0  0  0  0  0  0  0  0  0
   10.9313  -14.7012   30.7479 O   0  0  0  0  0  0  0  0  0  0  0  0
   10.2274  -14.8371   29.5477 C   0  0  0  0  0  0  0  0  0  0  0  0
    9.7389  -16.0631   29.1434 C   0  0  0  0  0  0  0  0  0  0  0  0
    9.0429  -16.1777   27.9497 C   0  0  0  0  0  0  0  0  0  0  0  0
    8.8204  -15.0863   27.1411 C   0  0  0  0  0  0  0  0  0  0  0  0
    8.1091  -15.2035   25.8812 C   0  0  0  0  0  0  0  0  0  0  0  0
    8.9681  -15.2390   24.6388 C   0  0  2  0  0  0  0  0  0  0  0  0
    8.0516  -15.4403   23.5306 N   0  0  0  0  0  0  0  0  0  0  0  0
    9.9828  -16.2876   24.7889 C   0  0  0  0  0  0  0  0  0  0  0  0
    9.5737  -17.4810   24.7680 O   0  0  0  0  0  0  0  0  0  0  0  0
    9.3145  -13.8753   27.5604 C   0  0  0  0  0  0  0  0  0  0  0  0
   10.0104  -13.7405   28.7466 C   0  0  0  0  0  0  0  0  0  0  0  0
   14.9268  -15.2094   22.0134 C   0  0  0  0  0  0  0  0  0  0  0  0
   14.7063  -14.4988   23.6595 S   0  0  0  0  0  0  0  0  0  0  0  0
   14.3508  -15.8830   24.8126 C   0  0  0  0  0  0  0  0  0  0  0  0
   13.5086  -16.9273   24.1146 C   0  0  0  0  0  0  0  0  0  0  0  0
   12.2761  -17.2047   24.9312 C   0  0  2  0  0  0  0  0  0  0  0  0
   11.3538  -16.0779   24.9551 N   0  0  0  0  0  0  0  0  0  0  0  0
   12.6806  -17.5131   26.3657 C   0  0  0  0  0  0  0  0  0  0  0  0
   13.1911  -18.6168   26.6770 O   0  0  0  0  0  0  0  0  0  0  0  0
   12.4997  -16.5851   27.3805 O   0  0  0  0  0  0  0  0  0  0  0  0
  2  1  1  0
  3  2  1  0
  3  4  1  6
  5  6  1  1
  5  3  1  0
  7  5  1  0
  7  8  2  0
  9 10  1  0
 10 11  2  0
 11 12  1  0
 13 12  2  0
 13 14  1  0
 15 14  1  1
 15 16  1  0
 15 17  1  0
 16  7  1  0
 17 26  1  0
 18 17  2  0
 19 13  1  0
 20 10  1  0
 20 19  2  0
 21 22  1  0
 22 23  1  0
 23 24  1  0
 25 24  1  6
 25 27  1  0
 26 25  1  0
 27 28  2  0
 27 29  1  0
M  END
$$$$
