IYM.pdb
     RDKit          3D

 29 29  0  0  1  0  0  0  0  0999 V2000
    7.6093  -12.2701   18.3451 C   0  0  0  0  0  0  0  0  0  0  0  0
    7.7295  -13.7248   18.6244 C   0  0  0  0  0  0  0  0  0  0  0  0
    7.5327  -14.1250   20.0684 C   0  0  2  0  0  0  0  0  0  0  0  0
    8.5402  -13.3598   20.9175 C   0  0  0  0  0  0  0  0  0  0  0  0
    7.6301  -15.6147   20.2491 C   0  0  2  0  0  0  0  0  0  0  0  0
    6.5126  -16.1668   19.4567 N   0  0  0  0  0  0  0  0  0  0  0  0
    7.4414  -16.0891   21.6283 C   0  0  0  0  0  0  0  0  0  0  0  0
    6.3529  -15.8011   22.2239 O   0  0  0  0  0  0  0  0  0  0  0  0
    8.7916  -20.2691   29.4210 O   0  0  0  0  0  0  0  0  0  0  0  0
    8.7595  -19.8259   28.0955 C   0  0  0  0  0  0  0  0  0  0  0  0
    7.5678  -19.7275   27.4060 C   0  0  0  0  0  0  0  0  0  0  0  0
    7.5564  -19.2856   26.0919 C   0  0  0  0  0  0  0  0  0  0  0  0
    8.7185  -18.9357   25.4423 C   0  0  0  0  0  0  0  0  0  0  0  0
    8.7150  -18.4906   24.0608 C   0  0  0  0  0  0  0  0  0  0  0  0
    8.1835  -17.0973   23.8173 C   0  0  2  0  0  0  0  0  0  0  0  0
    8.3508  -16.8536   22.3957 N   0  0  0  0  0  0  0  0  0  0  0  0
    8.8972  -16.1549   24.6855 C   0  0  0  0  0  0  0  0  0  0  0  0
   10.1157  -15.9546   24.4262 O   0  0  0  0  0  0  0  0  0  0  0  0
    9.8938  -19.0408   26.1450 C   0  0  0  0  0  0  0  0  0  0  0  0
    9.9261  -19.4789   27.4552 C   0  0  0  0  0  0  0  0  0  0  0  0
    6.6588  -10.6143   25.7090 C   0  0  0  0  0  0  0  0  0  0  0  0
    6.3455  -11.6207   27.1760 S   0  0  0  0  0  0  0  0  0  0  0  0
    7.0628  -13.2824   26.8661 C   0  0  0  0  0  0  0  0  0  0  0  0
    8.5477  -13.1589   26.6072 C   0  0  0  0  0  0  0  0  0  0  0  0
    9.1594  -14.5312   26.5336 C   0  0  2  0  0  0  0  0  0  0  0  0
    8.3466  -15.4674   25.7698 N   0  0  0  0  0  0  0  0  0  0  0  0
    9.3212  -15.0871   27.9412 C   0  0  0  0  0  0  0  0  0  0  0  0
    8.6238  -16.0485   28.3475 O   0  0  0  0  0  0  0  0  0  0  0  0
   10.2453  -14.5511   28.8257 O   0  0  0  0  0  0  0  0  0  0  0  0
  2  1  1  0
  3  2  1  0
  3  4  1  1
  5  6  1  6
  5  3  1  0
  7  5  1  0
  7  8  2  0
  9 10  1  0
 10 11  2  0
 11 12  1  0
 13 12  2  0
 13 14  1  0
 15 14  1  6
 15 16  1  0
 15 17  1  0
 16  7  1  0
 17 26  1  0
 18 17  2  0
 19 13  1  0
 20 10  1  0
 20 19  2  0
 21 22  1  0
 22 23  1  0
 23 24  1  0
 25 24  1  1
 25 27  1  0
 26 25  1  0
 27 28  2  0
 27 29  1  0
M  END
$$$$
