IYM.pdb
     RDKit          3D

 29 29  0  0  1  0  0  0  0  0999 V2000
    7.5825  -11.5251   19.5637 C   0  0  0  0  0  0  0  0  0  0  0  0
    7.7795  -12.8530   20.2011 C   0  0  0  0  0  0  0  0  0  0  0  0
    8.4125  -13.9059   19.3210 C   0  0  2  0  0  0  0  0  0  0  0  0
    7.5487  -14.0706   18.0768 C   0  0  0  0  0  0  0  0  0  0  0  0
    8.6188  -15.1978   20.0627 C   0  0  2  0  0  0  0  0  0  0  0  0
    7.2582  -15.6628   20.4002 N   0  0  0  0  0  0  0  0  0  0  0  0
    9.3486  -15.0772   21.3339 C   0  0  0  0  0  0  0  0  0  0  0  0
   10.5699  -14.7169   21.2988 O   0  0  0  0  0  0  0  0  0  0  0  0
   11.0186  -15.1555   30.1271 O   0  0  0  0  0  0  0  0  0  0  0  0
   10.4363  -15.2137   28.8575 C   0  0  0  0  0  0  0  0  0  0  0  0
   10.2105  -16.4234   28.2323 C   0  0  0  0  0  0  0  0  0  0  0  0
    9.6316  -16.4606   26.9729 C   0  0  0  0  0  0  0  0  0  0  0  0
    9.2688  -15.3070   26.3155 C   0  0  0  0  0  0  0  0  0  0  0  0
    8.6799  -15.3387   24.9892 C   0  0  0  0  0  0  0  0  0  0  0  0
    9.6456  -15.2071   23.8347 C   0  0  2  0  0  0  0  0  0  0  0  0
    8.8401  -15.3178   22.6315 N   0  0  0  0  0  0  0  0  0  0  0  0
   10.6895  -16.2291   23.9656 C   0  0  0  0  0  0  0  0  0  0  0  0
   10.3131  -17.4329   23.9338 O   0  0  0  0  0  0  0  0  0  0  0  0
    9.5018  -14.1135   26.9539 C   0  0  0  0  0  0  0  0  0  0  0  0
   10.0775  -14.0554   28.2088 C   0  0  0  0  0  0  0  0  0  0  0  0
   14.3274  -14.1365   21.1562 C   0  0  0  0  0  0  0  0  0  0  0  0
   14.3656  -15.8132   20.4851 S   0  0  0  0  0  0  0  0  0  0  0  0
   13.4180  -16.8870   21.6343 C   0  0  0  0  0  0  0  0  0  0  0  0
   14.0628  -16.8677   23.0021 C   0  0  0  0  0  0  0  0  0  0  0  0
   13.0104  -17.0812   24.0554 C   0  0  2  0  0  0  0  0  0  0  0  0
   12.0555  -15.9839   24.1248 N   0  0  0  0  0  0  0  0  0  0  0  0
   13.6787  -17.2109   25.4167 C   0  0  0  0  0  0  0  0  0  0  0  0
   13.4438  -16.3934   26.3398 O   0  0  0  0  0  0  0  0  0  0  0  0
   14.5715  -18.2376   25.6860 O   0  0  0  0  0  0  0  0  0  0  0  0
  2  1  1  0
  3  2  1  0
  3  4  1  6
  5  6  1  1
  5  3  1  0
  7  5  1  0
  7  8  2  0
  9 10  1  0
 10 11  2  0
 11 12  1  0
 13 12  2  0
 13 14  1  0
 15 14  1  1
 15 16  1  0
 15 17  1  0
 16  7  1  0
 17 26  1  0
 18 17  2  0
 19 13  1  0
 20 10  1  0
 20 19  2  0
 21 22  1  0
 22 23  1  0
 23 24  1  0
 25 24  1  6
 25 27  1  0
 26 25  1  0
 27 28  2  0
 27 29  1  0
M  END
$$$$
