IYM.pdb
     RDKit          3D

 29 29  0  0  1  0  0  0  0  0999 V2000
    5.4999  -21.8750   21.7813 C   0  0  0  0  0  0  0  0  0  0  0  0
    5.7855  -20.6498   20.9903 C   0  0  0  0  0  0  0  0  0  0  0  0
    6.8383  -19.7347   21.5719 C   0  0  2  0  0  0  0  0  0  0  0  0
    6.4339  -19.3880   22.9994 C   0  0  0  0  0  0  0  0  0  0  0  0
    7.0505  -18.5178   20.7141 C   0  0  2  0  0  0  0  0  0  0  0  0
    7.4266  -19.0492   19.3884 N   0  0  0  0  0  0  0  0  0  0  0  0
    8.1491  -17.6381   21.1408 C   0  0  0  0  0  0  0  0  0  0  0  0
    9.2870  -18.1606   21.3748 O   0  0  0  0  0  0  0  0  0  0  0  0
    7.5688  -14.2920   15.7237 O   0  0  0  0  0  0  0  0  0  0  0  0
    7.9476  -14.2448   17.0686 C   0  0  0  0  0  0  0  0  0  0  0  0
    7.3952  -13.3205   17.9321 C   0  0  0  0  0  0  0  0  0  0  0  0
    7.7836  -13.2896   19.2628 C   0  0  0  0  0  0  0  0  0  0  0  0
    8.7203  -14.1685   19.7576 C   0  0  0  0  0  0  0  0  0  0  0  0
    9.1449  -14.1285   21.1450 C   0  0  0  0  0  0  0  0  0  0  0  0
    9.1974  -15.4596   21.8580 C   0  0  2  0  0  0  0  0  0  0  0  0
    8.0927  -16.2369   21.3252 N   0  0  0  0  0  0  0  0  0  0  0  0
    9.1384  -15.2293   23.3054 C   0  0  0  0  0  0  0  0  0  0  0  0
   10.1626  -14.7249   23.8426 O   0  0  0  0  0  0  0  0  0  0  0  0
    9.2585  -15.0803   18.8827 C   0  0  0  0  0  0  0  0  0  0  0  0
    8.8845  -15.1272   17.5533 C   0  0  0  0  0  0  0  0  0  0  0  0
    7.4041  -10.8452   27.0952 C   0  0  0  0  0  0  0  0  0  0  0  0
    6.2271  -12.1291   27.5742 S   0  0  0  0  0  0  0  0  0  0  0  0
    7.0481  -13.7513   27.3163 C   0  0  0  0  0  0  0  0  0  0  0  0
    6.9576  -14.1449   25.8590 C   0  0  0  0  0  0  0  0  0  0  0  0
    8.0641  -15.1095   25.5308 C   0  0  2  0  0  0  0  0  0  0  0  0
    8.0527  -15.5221   24.1342 N   0  0  0  0  0  0  0  0  0  0  0  0
    7.9179  -16.3562   26.3916 C   0  0  0  0  0  0  0  0  0  0  0  0
    7.4842  -17.4326   25.9131 O   0  0  0  0  0  0  0  0  0  0  0  0
    8.2587  -16.3474   27.7360 O   0  0  0  0  0  0  0  0  0  0  0  0
  2  1  1  0
  3  2  1  0
  3  4  1  1
  5  6  1  6
  5  3  1  0
  7  5  1  0
  7  8  2  0
  9 10  1  0
 10 11  2  0
 11 12  1  0
 13 12  2  0
 13 14  1  0
 15 14  1  6
 15 16  1  0
 15 17  1  0
 16  7  1  0
 17 26  1  0
 18 17  2  0
 19 13  1  0
 20 10  1  0
 20 19  2  0
 21 22  1  0
 22 23  1  0
 23 24  1  0
 25 24  1  6
 25 27  1  0
 26 25  1  0
 27 28  2  0
 27 29  1  0
M  END
$$$$
