GLL.pdb
     RDKit          3D

 21 20  0  0  1  0  0  0  0  0999 V2000
    6.1746  -19.3088   20.8606 N   0  0  0  0  0  0  0  0  0  0  0  0
    6.0622  -18.0997   21.6252 C   0  0  0  0  0  0  0  0  0  0  0  0
    7.3530  -17.3764   21.7025 C   0  0  0  0  0  0  0  0  0  0  0  0
    8.4629  -17.9385   21.6801 O   0  0  0  0  0  0  0  0  0  0  0  0
    8.7992  -13.8183   19.0961 C   0  0  0  0  0  0  0  0  0  0  0  0
    7.6597  -13.5236   20.1085 C   0  0  2  0  0  0  0  0  0  0  0  0
    7.2835  -12.0825   19.8559 C   0  0  0  0  0  0  0  0  0  0  0  0
    8.2170  -13.7299   21.4716 C   0  0  0  0  0  0  0  0  0  0  0  0
    8.4621  -15.1350   21.9017 C   0  0  2  0  0  0  0  0  0  0  0  0
    7.2975  -15.9431   21.8091 N   0  0  0  0  0  0  0  0  0  0  0  0
    8.9222  -15.0383   23.3457 C   0  0  0  0  0  0  0  0  0  0  0  0
   10.1228  -14.7215   23.5567 O   0  0  0  0  0  0  0  0  0  0  0  0
    6.0857  -12.4310   26.7274 C   0  0  0  0  0  0  0  0  0  0  0  0
    7.3188  -13.0267   26.0373 C   0  0  1  0  0  0  0  0  0  0  0  0
    8.5023  -12.0686   26.2341 C   0  0  0  0  0  0  0  0  0  0  0  0
    7.6187  -14.3689   26.6349 C   0  0  0  0  0  0  0  0  0  0  0  0
    8.5652  -15.1357   25.7903 C   0  0  2  0  0  0  0  0  0  0  0  0
    8.0624  -15.2875   24.4195 N   0  0  0  0  0  0  0  0  0  0  0  0
    8.8469  -16.4649   26.3533 C   0  0  0  0  0  0  0  0  0  0  0  0
    8.5988  -17.5608   25.7930 O   0  0  0  0  0  0  0  0  0  0  0  0
    9.4435  -16.5187   27.6244 O   0  0  0  0  0  0  0  0  0  0  0  0
  2  1  1  0
  3  2  1  0
  4  3  2  0
  6  5  1  6
  6  7  1  0
  6  8  1  0
  9  8  1  1
  9 10  1  0
  9 11  1  0
 10  3  1  0
 11 18  1  0
 12 11  2  0
 14 13  1  1
 14 15  1  0
 16 14  1  0
 17 19  1  0
 17 16  1  1
 18 17  1  0
 19 21  1  0
 20 19  2  0
M  END
$$$$
