GLL.pdb
     RDKit          3D

 21 20  0  0  1  0  0  0  0  0999 V2000
   12.9075  -17.4052   20.6371 N   0  0  0  0  0  0  0  0  0  0  0  0
   11.4733  -17.4366   20.6735 C   0  0  0  0  0  0  0  0  0  0  0  0
   10.9229  -16.3828   21.5577 C   0  0  0  0  0  0  0  0  0  0  0  0
   11.6014  -15.7558   22.3913 O   0  0  0  0  0  0  0  0  0  0  0  0
    8.3735  -12.6141   20.3844 C   0  0  0  0  0  0  0  0  0  0  0  0
    7.6412  -13.9715   20.2078 C   0  0  2  0  0  0  0  0  0  0  0  0
    6.2661  -13.6042   19.7016 C   0  0  0  0  0  0  0  0  0  0  0  0
    7.5943  -14.6240   21.5432 C   0  0  0  0  0  0  0  0  0  0  0  0
    8.8934  -15.0315   22.1481 C   0  0  2  0  0  0  0  0  0  0  0  0
    9.5220  -16.0829   21.4289 N   0  0  0  0  0  0  0  0  0  0  0  0
    8.5550  -15.4863   23.5570 C   0  0  0  0  0  0  0  0  0  0  0  0
    9.0928  -16.5460   23.9742 O   0  0  0  0  0  0  0  0  0  0  0  0
    5.9099  -11.9615   26.8089 C   0  0  0  0  0  0  0  0  0  0  0  0
    7.0223  -12.9188   26.3641 C   0  0  1  0  0  0  0  0  0  0  0  0
    8.2531  -12.6873   27.2523 C   0  0  0  0  0  0  0  0  0  0  0  0
    6.5367  -14.3320   26.4894 C   0  0  0  0  0  0  0  0  0  0  0  0
    7.4022  -15.2683   25.7333 C   0  0  2  0  0  0  0  0  0  0  0  0
    7.6806  -14.7711   24.3804 N   0  0  0  0  0  0  0  0  0  0  0  0
    6.8079  -16.6107   25.6437 C   0  0  0  0  0  0  0  0  0  0  0  0
    6.6814  -17.4164   26.5983 O   0  0  0  0  0  0  0  0  0  0  0  0
    6.3409  -17.0316   24.3870 O   0  0  0  0  0  0  0  0  0  0  0  0
  2  1  1  0
  3  2  1  0
  4  3  2  0
  6  5  1  1
  6  7  1  0
  6  8  1  0
  9  8  1  6
  9 10  1  0
  9 11  1  0
 10  3  1  0
 11 18  1  0
 12 11  2  0
 14 13  1  1
 14 15  1  0
 16 14  1  0
 17 19  1  0
 17 16  1  6
 18 17  1  0
 19 21  1  0
 20 19  2  0
M  END
$$$$
