GLL.pdb
     RDKit          3D

 21 20  0  0  1  0  0  0  0  0999 V2000
    5.9495  -20.2062   22.6742 N   0  0  0  0  0  0  0  0  0  0  0  0
    5.7586  -18.8033   22.9083 C   0  0  0  0  0  0  0  0  0  0  0  0
    6.9120  -18.0048   22.4315 C   0  0  0  0  0  0  0  0  0  0  0  0
    8.0497  -18.4743   22.2487 O   0  0  0  0  0  0  0  0  0  0  0  0
    7.6040  -12.0552   20.8092 C   0  0  0  0  0  0  0  0  0  0  0  0
    8.2460  -13.4681   20.7683 C   0  0  2  0  0  0  0  0  0  0  0  0
    8.5757  -13.6992   19.3123 C   0  0  0  0  0  0  0  0  0  0  0  0
    7.2303  -14.4286   21.2753 C   0  0  0  0  0  0  0  0  0  0  0  0
    7.7312  -15.7030   21.8622 C   0  0  2  0  0  0  0  0  0  0  0  0
    6.6817  -16.6090   22.1711 N   0  0  0  0  0  0  0  0  0  0  0  0
    8.4683  -15.2999   23.1273 C   0  0  0  0  0  0  0  0  0  0  0  0
    9.6268  -14.8221   23.0018 O   0  0  0  0  0  0  0  0  0  0  0  0
    5.6877  -12.8139   26.6081 C   0  0  0  0  0  0  0  0  0  0  0  0
    6.9739  -13.1169   25.8299 C   0  0  1  0  0  0  0  0  0  0  0  0
    7.8355  -11.8466   25.7923 C   0  0  0  0  0  0  0  0  0  0  0  0
    7.7083  -14.2355   26.5066 C   0  0  0  0  0  0  0  0  0  0  0  0
    8.6226  -14.9266   25.5665 C   0  0  2  0  0  0  0  0  0  0  0  0
    7.9018  -15.4444   24.3971 N   0  0  0  0  0  0  0  0  0  0  0  0
    9.3453  -16.0294   26.2181 C   0  0  0  0  0  0  0  0  0  0  0  0
   10.0893  -15.9192   27.2234 O   0  0  0  0  0  0  0  0  0  0  0  0
    9.1939  -17.3161   25.6741 O   0  0  0  0  0  0  0  0  0  0  0  0
  2  1  1  0
  3  2  1  0
  4  3  2  0
  6  5  1  6
  6  7  1  0
  6  8  1  0
  9  8  1  1
  9 10  1  0
  9 11  1  0
 10  3  1  0
 11 18  1  0
 12 11  2  0
 14 13  1  1
 14 15  1  0
 16 14  1  0
 17 19  1  0
 17 16  1  1
 18 17  1  0
 19 21  1  0
 20 19  2  0
M  END
$$$$
