GLL.pdb
     RDKit          3D

 21 20  0  0  1  0  0  0  0  0999 V2000
    7.9143  -15.5679   20.4574 N   0  0  0  0  0  0  0  0  0  0  0  0
    7.2246  -15.5197   21.7150 C   0  0  0  0  0  0  0  0  0  0  0  0
    8.1126  -15.0681   22.8117 C   0  0  0  0  0  0  0  0  0  0  0  0
    9.3480  -14.9660   22.7035 O   0  0  0  0  0  0  0  0  0  0  0  0
    8.0048  -11.3969   25.7484 C   0  0  0  0  0  0  0  0  0  0  0  0
    6.8272  -12.3980   25.8934 C   0  0  2  0  0  0  0  0  0  0  0  0
    5.9693  -11.8259   26.9974 C   0  0  0  0  0  0  0  0  0  0  0  0
    7.4115  -13.7157   26.2591 C   0  0  0  0  0  0  0  0  0  0  0  0
    8.2369  -14.4044   25.2278 C   0  0  2  0  0  0  0  0  0  0  0  0
    7.4907  -14.7336   24.0648 N   0  0  0  0  0  0  0  0  0  0  0  0
    8.7480  -15.6666   25.9001 C   0  0  0  0  0  0  0  0  0  0  0  0
    7.9257  -16.6012   26.0911 O   0  0  0  0  0  0  0  0  0  0  0  0
   13.1867  -17.7284   24.3123 C   0  0  0  0  0  0  0  0  0  0  0  0
   11.7585  -17.6093   24.8579 C   0  0  1  0  0  0  0  0  0  0  0  0
   10.9560  -18.8375   24.4049 C   0  0  0  0  0  0  0  0  0  0  0  0
   11.8068  -17.5305   26.3545 C   0  0  0  0  0  0  0  0  0  0  0  0
   10.5121  -17.0723   26.9124 C   0  0  2  0  0  0  0  0  0  0  0  0
   10.0794  -15.8095   26.3017 N   0  0  0  0  0  0  0  0  0  0  0  0
   10.5733  -16.9088   28.3727 C   0  0  0  0  0  0  0  0  0  0  0  0
   10.8712  -17.8100   29.1947 O   0  0  0  0  0  0  0  0  0  0  0  0
   10.2744  -15.6400   28.8972 O   0  0  0  0  0  0  0  0  0  0  0  0
  2  1  1  0
  3  2  1  0
  4  3  2  0
  6  5  1  1
  6  7  1  0
  6  8  1  0
  9  8  1  1
  9 10  1  0
  9 11  1  0
 10  3  1  0
 11 18  1  0
 12 11  2  0
 14 13  1  1
 14 15  1  0
 16 14  1  0
 17 19  1  0
 17 16  1  6
 18 17  1  0
 19 21  1  0
 20 19  2  0
M  END
$$$$
