GLL.pdb
     RDKit          3D

 21 20  0  0  1  0  0  0  0  0999 V2000
   12.4615  -17.6573   19.6087 N   0  0  0  0  0  0  0  0  0  0  0  0
   11.2635  -17.8407   20.3771 C   0  0  0  0  0  0  0  0  0  0  0  0
   10.8843  -16.6079   21.1063 C   0  0  0  0  0  0  0  0  0  0  0  0
   11.6998  -15.8718   21.6906 O   0  0  0  0  0  0  0  0  0  0  0  0
    8.2296  -12.6840   20.1542 C   0  0  0  0  0  0  0  0  0  0  0  0
    7.5624  -14.0810   20.0389 C   0  0  2  0  0  0  0  0  0  0  0  0
    6.1387  -13.7946   19.6231 C   0  0  0  0  0  0  0  0  0  0  0  0
    7.6403  -14.7186   21.3801 C   0  0  0  0  0  0  0  0  0  0  0  0
    8.9864  -15.1473   21.8532 C   0  0  2  0  0  0  0  0  0  0  0  0
    9.4887  -16.2605   21.1278 N   0  0  0  0  0  0  0  0  0  0  0  0
    8.8004  -15.5123   23.3155 C   0  0  0  0  0  0  0  0  0  0  0  0
    8.9920  -16.7121   23.6474 O   0  0  0  0  0  0  0  0  0  0  0  0
    7.1291  -11.9099   27.5334 C   0  0  0  0  0  0  0  0  0  0  0  0
    7.1777  -13.2201   26.7378 C   0  0  1  0  0  0  0  0  0  0  0  0
    6.4557  -13.0085   25.3994 C   0  0  0  0  0  0  0  0  0  0  0  0
    8.6085  -13.6079   26.5125 C   0  0  0  0  0  0  0  0  0  0  0  0
    8.7107  -14.8388   25.6927 C   0  0  2  0  0  0  0  0  0  0  0  0
    8.4301  -14.5680   24.2774 N   0  0  0  0  0  0  0  0  0  0  0  0
    7.8045  -15.8926   26.1737 C   0  0  0  0  0  0  0  0  0  0  0  0
    7.8034  -16.3801   27.3308 O   0  0  0  0  0  0  0  0  0  0  0  0
    6.8590  -16.3999   25.2665 O   0  0  0  0  0  0  0  0  0  0  0  0
  2  1  1  0
  3  2  1  0
  4  3  2  0
  6  5  1  1
  6  7  1  0
  6  8  1  0
  9  8  1  6
  9 10  1  0
  9 11  1  0
 10  3  1  0
 11 18  1  0
 12 11  2  0
 14 13  1  1
 14 15  1  0
 16 14  1  0
 17 19  1  0
 17 16  1  1
 18 17  1  0
 19 21  1  0
 20 19  2  0
M  END
$$$$
