GLL.pdb
     RDKit          3D

 21 20  0  0  1  0  0  0  0  0999 V2000
    4.9992  -20.1226   24.0206 N   0  0  0  0  0  0  0  0  0  0  0  0
    5.6748  -19.3296   25.0076 C   0  0  0  0  0  0  0  0  0  0  0  0
    5.8623  -17.9313   24.5548 C   0  0  0  0  0  0  0  0  0  0  0  0
    5.6021  -17.5366   23.4038 O   0  0  0  0  0  0  0  0  0  0  0  0
    7.9652  -12.8155   27.4125 C   0  0  0  0  0  0  0  0  0  0  0  0
    7.3098  -13.3823   26.1244 C   0  0  2  0  0  0  0  0  0  0  0  0
    6.0326  -12.5920   25.9626 C   0  0  0  0  0  0  0  0  0  0  0  0
    7.0520  -14.8277   26.3605 C   0  0  0  0  0  0  0  0  0  0  0  0
    6.7643  -15.6720   25.1672 C   0  0  2  0  0  0  0  0  0  0  0  0
    6.3754  -16.9927   25.5165 N   0  0  0  0  0  0  0  0  0  0  0  0
    8.0579  -15.6970   24.3720 C   0  0  0  0  0  0  0  0  0  0  0  0
    8.8864  -16.6093   24.6321 O   0  0  0  0  0  0  0  0  0  0  0  0
    8.2463  -12.0504   20.2562 C   0  0  0  0  0  0  0  0  0  0  0  0
    8.0164  -13.3261   21.0756 C   0  0  1  0  0  0  0  0  0  0  0  0
    7.0248  -14.2225   20.3202 C   0  0  0  0  0  0  0  0  0  0  0  0
    9.3257  -14.0306   21.2699 C   0  0  0  0  0  0  0  0  0  0  0  0
    9.2048  -15.1305   22.2563 C   0  0  2  0  0  0  0  0  0  0  0  0
    8.3416  -14.7520   23.3817 N   0  0  0  0  0  0  0  0  0  0  0  0
   10.5172  -15.5495   22.7713 C   0  0  0  0  0  0  0  0  0  0  0  0
   11.4749  -15.9644   22.0733 O   0  0  0  0  0  0  0  0  0  0  0  0
   10.7217  -15.4819   24.1598 O   0  0  0  0  0  0  0  0  0  0  0  0
  2  1  1  0
  3  2  1  0
  4  3  2  0
  6  5  1  1
  6  7  1  0
  6  8  1  0
  9  8  1  1
  9 10  1  0
  9 11  1  0
 10  3  1  0
 11 18  1  0
 12 11  2  0
 14 13  1  6
 14 15  1  0
 16 14  1  0
 17 19  1  0
 17 16  1  6
 18 17  1  0
 19 21  1  0
 20 19  2  0
M  END
$$$$
