GLL.pdb
     RDKit          3D

 21 20  0  0  1  0  0  0  0  0999 V2000
    5.6050  -19.4252   21.9871 N   0  0  0  0  0  0  0  0  0  0  0  0
    5.5491  -17.9962   21.8676 C   0  0  0  0  0  0  0  0  0  0  0  0
    6.9020  -17.3921   21.8599 C   0  0  0  0  0  0  0  0  0  0  0  0
    7.9527  -18.0507   21.7576 O   0  0  0  0  0  0  0  0  0  0  0  0
    8.7097  -14.2908   19.0438 C   0  0  0  0  0  0  0  0  0  0  0  0
    7.5789  -13.8032   19.9892 C   0  0  2  0  0  0  0  0  0  0  0  0
    7.3165  -12.3755   19.5711 C   0  0  0  0  0  0  0  0  0  0  0  0
    8.0963  -13.8970   21.3802 C   0  0  0  0  0  0  0  0  0  0  0  0
    8.2179  -15.2591   21.9712 C   0  0  2  0  0  0  0  0  0  0  0  0
    6.9829  -15.9609   21.9786 N   0  0  0  0  0  0  0  0  0  0  0  0
    8.7063  -15.0380   23.3920 C   0  0  0  0  0  0  0  0  0  0  0  0
    9.8907  -14.6391   23.5476 O   0  0  0  0  0  0  0  0  0  0  0  0
    6.0627  -12.1698   26.6632 C   0  0  0  0  0  0  0  0  0  0  0  0
    7.2651  -12.8502   25.9977 C   0  0  1  0  0  0  0  0  0  0  0  0
    8.4909  -11.9380   26.1489 C   0  0  0  0  0  0  0  0  0  0  0  0
    7.5074  -14.1764   26.6540 C   0  0  0  0  0  0  0  0  0  0  0  0
    8.4248  -15.0171   25.8482 C   0  0  2  0  0  0  0  0  0  0  0  0
    7.8890  -15.2625   24.5037 N   0  0  0  0  0  0  0  0  0  0  0  0
    8.7023  -16.3049   26.5021 C   0  0  0  0  0  0  0  0  0  0  0  0
    8.4398  -17.4359   26.0242 O   0  0  0  0  0  0  0  0  0  0  0  0
    9.3122  -16.2726   27.7676 O   0  0  0  0  0  0  0  0  0  0  0  0
  2  1  1  0
  3  2  1  0
  4  3  2  0
  6  5  1  6
  6  7  1  0
  6  8  1  0
  9  8  1  1
  9 10  1  0
  9 11  1  0
 10  3  1  0
 11 18  1  0
 12 11  2  0
 14 13  1  1
 14 15  1  0
 16 14  1  0
 17 19  1  0
 17 16  1  1
 18 17  1  0
 19 21  1  0
 20 19  2  0
M  END
$$$$
