GLL.pdb
     RDKit          3D

 21 20  0  0  1  0  0  0  0  0999 V2000
    9.7491  -16.8173   19.7931 N   0  0  0  0  0  0  0  0  0  0  0  0
    8.6961  -16.7914   20.7678 C   0  0  0  0  0  0  0  0  0  0  0  0
    9.0351  -15.9239   21.9201 C   0  0  0  0  0  0  0  0  0  0  0  0
   10.1523  -15.4022   22.0877 O   0  0  0  0  0  0  0  0  0  0  0  0
    5.6209  -13.0378   26.1911 C   0  0  0  0  0  0  0  0  0  0  0  0
    7.0631  -13.4090   25.7524 C   0  0  2  0  0  0  0  0  0  0  0  0
    7.6715  -12.1066   25.2883 C   0  0  0  0  0  0  0  0  0  0  0  0
    6.9470  -14.4010   24.6507 C   0  0  0  0  0  0  0  0  0  0  0  0
    8.2148  -14.9260   24.0706 C   0  0  2  0  0  0  0  0  0  0  0  0
    7.9992  -15.6839   22.8887 N   0  0  0  0  0  0  0  0  0  0  0  0
    8.8199  -15.8012   25.1542 C   0  0  0  0  0  0  0  0  0  0  0  0
    8.7505  -17.0497   25.0038 O   0  0  0  0  0  0  0  0  0  0  0  0
   10.3321  -13.3580   27.5362 C   0  0  0  0  0  0  0  0  0  0  0  0
   10.9468  -14.2822   28.5944 C   0  0  1  0  0  0  0  0  0  0  0  0
   10.7988  -13.6187   29.9711 C   0  0  0  0  0  0  0  0  0  0  0  0
   10.2406  -15.6047   28.5649 C   0  0  0  0  0  0  0  0  0  0  0  0
   10.1798  -16.1528   27.1889 C   0  0  2  0  0  0  0  0  0  0  0  0
    9.4371  -15.2635   26.2874 N   0  0  0  0  0  0  0  0  0  0  0  0
    9.5707  -17.4911   27.1600 C   0  0  0  0  0  0  0  0  0  0  0  0
    8.3634  -17.7369   26.9182 O   0  0  0  0  0  0  0  0  0  0  0  0
   10.4053  -18.5903   27.4242 O   0  0  0  0  0  0  0  0  0  0  0  0
  2  1  1  0
  3  2  1  0
  4  3  2  0
  6  5  1  6
  6  7  1  0
  6  8  1  0
  9  8  1  1
  9 10  1  0
  9 11  1  0
 10  3  1  0
 11 18  1  0
 12 11  2  0
 14 13  1  6
 14 15  1  0
 16 14  1  0
 17 19  1  0
 17 16  1  1
 18 17  1  0
 19 21  1  0
 20 19  2  0
M  END
$$$$
