GLL.pdb
     RDKit          3D

 21 20  0  0  1  0  0  0  0  0999 V2000
    9.9862  -17.0218   19.9403 N   0  0  0  0  0  0  0  0  0  0  0  0
    8.9044  -16.8989   20.8753 C   0  0  0  0  0  0  0  0  0  0  0  0
    9.2853  -16.0836   22.0523 C   0  0  0  0  0  0  0  0  0  0  0  0
   10.4466  -15.6994   22.2807 O   0  0  0  0  0  0  0  0  0  0  0  0
    5.9505  -13.0910   26.3504 C   0  0  0  0  0  0  0  0  0  0  0  0
    7.3798  -13.4272   25.8460 C   0  0  2  0  0  0  0  0  0  0  0  0
    7.9722  -12.0947   25.4517 C   0  0  0  0  0  0  0  0  0  0  0  0
    7.2329  -14.3444   24.6848 C   0  0  0  0  0  0  0  0  0  0  0  0
    8.4750  -14.9676   24.1479 C   0  0  2  0  0  0  0  0  0  0  0  0
    8.2377  -15.7268   22.9710 N   0  0  0  0  0  0  0  0  0  0  0  0
    8.9861  -15.8665   25.2601 C   0  0  0  0  0  0  0  0  0  0  0  0
    8.6534  -17.0809   25.2297 O   0  0  0  0  0  0  0  0  0  0  0  0
   10.5583  -14.0228   30.0806 C   0  0  0  0  0  0  0  0  0  0  0  0
   10.3334  -14.4424   28.6229 C   0  0  1  0  0  0  0  0  0  0  0  0
   10.9265  -13.3641   27.7047 C   0  0  0  0  0  0  0  0  0  0  0  0
   10.9957  -15.7660   28.3823 C   0  0  0  0  0  0  0  0  0  0  0  0
   10.6025  -16.3352   27.0713 C   0  0  2  0  0  0  0  0  0  0  0  0
    9.7982  -15.3864   26.2917 N   0  0  0  0  0  0  0  0  0  0  0  0
    9.8561  -17.5933   27.2233 C   0  0  0  0  0  0  0  0  0  0  0  0
    8.6250  -17.7384   27.0237 O   0  0  0  0  0  0  0  0  0  0  0  0
   10.5760  -18.7311   27.6252 O   0  0  0  0  0  0  0  0  0  0  0  0
  2  1  1  0
  3  2  1  0
  4  3  2  0
  6  5  1  6
  6  7  1  0
  6  8  1  0
  9  8  1  1
  9 10  1  0
  9 11  1  0
 10  3  1  0
 11 18  1  0
 12 11  2  0
 14 13  1  1
 14 15  1  0
 16 14  1  0
 17 19  1  0
 17 16  1  1
 18 17  1  0
 19 21  1  0
 20 19  2  0
M  END
$$$$
