GLL.pdb
     RDKit          3D

 21 20  0  0  1  0  0  0  0  0999 V2000
   10.0736  -19.3564   20.2346 N   0  0  0  0  0  0  0  0  0  0  0  0
    8.9232  -18.5247   20.4449 C   0  0  0  0  0  0  0  0  0  0  0  0
    9.2789  -17.2557   21.1219 C   0  0  0  0  0  0  0  0  0  0  0  0
   10.3956  -17.0279   21.6213 O   0  0  0  0  0  0  0  0  0  0  0  0
    9.1022  -12.8333   19.6660 C   0  0  0  0  0  0  0  0  0  0  0  0
    7.7494  -13.5797   19.8171 C   0  0  2  0  0  0  0  0  0  0  0  0
    6.7096  -12.5918   19.3429 C   0  0  0  0  0  0  0  0  0  0  0  0
    7.5909  -13.9174   21.2566 C   0  0  0  0  0  0  0  0  0  0  0  0
    8.4776  -14.9797   21.8085 C   0  0  2  0  0  0  0  0  0  0  0  0
    8.2607  -16.2423   21.1948 N   0  0  0  0  0  0  0  0  0  0  0  0
    8.1462  -15.0500   23.2889 C   0  0  0  0  0  0  0  0  0  0  0  0
    7.0932  -15.6541   23.6241 O   0  0  0  0  0  0  0  0  0  0  0  0
    5.6260  -12.4152   26.2363 C   0  0  0  0  0  0  0  0  0  0  0  0
    7.0562  -12.7878   25.8273 C   0  0  1  0  0  0  0  0  0  0  0  0
    8.0387  -12.0225   26.7255 C   0  0  0  0  0  0  0  0  0  0  0  0
    7.2430  -14.2679   25.9784 C   0  0  0  0  0  0  0  0  0  0  0  0
    8.6391  -14.6682   25.6814 C   0  0  2  0  0  0  0  0  0  0  0  0
    8.9653  -14.4726   24.2635 N   0  0  0  0  0  0  0  0  0  0  0  0
    8.8963  -16.0687   26.0495 C   0  0  0  0  0  0  0  0  0  0  0  0
    8.7965  -16.5480   27.2056 O   0  0  0  0  0  0  0  0  0  0  0  0
    9.2866  -16.9481   25.0254 O   0  0  0  0  0  0  0  0  0  0  0  0
  2  1  1  0
  3  2  1  0
  4  3  2  0
  6  5  1  1
  6  7  1  0
  6  8  1  0
  9  8  1  6
  9 10  1  0
  9 11  1  0
 10  3  1  0
 11 18  1  0
 12 11  2  0
 14 13  1  1
 14 15  1  0
 16 14  1  0
 17 19  1  0
 17 16  1  6
 18 17  1  0
 19 21  1  0
 20 19  2  0
M  END
$$$$
