GLL.pdb
     RDKit          3D

 21 20  0  0  1  0  0  0  0  0999 V2000
    8.9724  -16.3634   19.6097 N   0  0  0  0  0  0  0  0  0  0  0  0
    8.1168  -16.5045   20.7531 C   0  0  0  0  0  0  0  0  0  0  0  0
    8.7102  -15.8884   21.9629 C   0  0  0  0  0  0  0  0  0  0  0  0
    9.9080  -15.5650   22.0574 O   0  0  0  0  0  0  0  0  0  0  0  0
    7.7094  -12.1739   24.8333 C   0  0  0  0  0  0  0  0  0  0  0  0
    6.5339  -13.1876   24.8041 C   0  0  2  0  0  0  0  0  0  0  0  0
    5.5943  -12.7187   25.8900 C   0  0  0  0  0  0  0  0  0  0  0  0
    7.1031  -14.5308   25.0926 C   0  0  0  0  0  0  0  0  0  0  0  0
    8.2510  -14.9782   24.2551 C   0  0  2  0  0  0  0  0  0  0  0  0
    7.8341  -15.6598   23.0806 N   0  0  0  0  0  0  0  0  0  0  0  0
    9.0584  -15.9074   25.1444 C   0  0  0  0  0  0  0  0  0  0  0  0
    9.1568  -17.1131   24.7936 O   0  0  0  0  0  0  0  0  0  0  0  0
   11.0848  -14.7989   30.3489 C   0  0  0  0  0  0  0  0  0  0  0  0
   10.4363  -14.9410   28.9665 C   0  0  1  0  0  0  0  0  0  0  0  0
   10.0221  -13.5472   28.4732 C   0  0  0  0  0  0  0  0  0  0  0  0
   11.4189  -15.5668   28.0224 C   0  0  0  0  0  0  0  0  0  0  0  0
   10.7290  -16.2886   26.9267 C   0  0  2  0  0  0  0  0  0  0  0  0
    9.6797  -15.4638   26.3154 N   0  0  0  0  0  0  0  0  0  0  0  0
   10.1418  -17.5546   27.3909 C   0  0  0  0  0  0  0  0  0  0  0  0
   10.7768  -18.5044   27.9116 O   0  0  0  0  0  0  0  0  0  0  0  0
    8.7544  -17.7203   27.2417 O   0  0  0  0  0  0  0  0  0  0  0  0
  2  1  1  0
  3  2  1  0
  4  3  2  0
  6  5  1  1
  6  7  1  0
  6  8  1  0
  9  8  1  1
  9 10  1  0
  9 11  1  0
 10  3  1  0
 11 18  1  0
 12 11  2  0
 14 13  1  1
 14 15  1  0
 16 14  1  0
 17 19  1  0
 17 16  1  1
 18 17  1  0
 19 21  1  0
 20 19  2  0
M  END
$$$$
