GLL.pdb
     RDKit          3D

 21 20  0  0  1  0  0  0  0  0999 V2000
    6.3541  -19.4799   21.0461 N   0  0  0  0  0  0  0  0  0  0  0  0
    6.1585  -18.1828   21.6281 C   0  0  0  0  0  0  0  0  0  0  0  0
    7.4207  -17.4087   21.6820 C   0  0  0  0  0  0  0  0  0  0  0  0
    8.5509  -17.9228   21.6019 O   0  0  0  0  0  0  0  0  0  0  0  0
    8.7897  -13.7709   19.1474 C   0  0  0  0  0  0  0  0  0  0  0  0
    7.6171  -13.5688   20.1445 C   0  0  2  0  0  0  0  0  0  0  0  0
    7.1385  -12.1578   19.8951 C   0  0  0  0  0  0  0  0  0  0  0  0
    8.1687  -13.7428   21.5145 C   0  0  0  0  0  0  0  0  0  0  0  0
    8.4434  -15.1356   21.9662 C   0  0  2  0  0  0  0  0  0  0  0  0
    7.3106  -15.9828   21.8362 N   0  0  0  0  0  0  0  0  0  0  0  0
    8.8439  -15.0126   23.4259 C   0  0  0  0  0  0  0  0  0  0  0  0
    9.9786  -14.5297   23.6820 O   0  0  0  0  0  0  0  0  0  0  0  0
    5.6112  -12.7180   26.6518 C   0  0  0  0  0  0  0  0  0  0  0  0
    6.9376  -13.1850   26.0399 C   0  0  1  0  0  0  0  0  0  0  0  0
    8.0159  -12.1358   26.3464 C   0  0  0  0  0  0  0  0  0  0  0  0
    7.3102  -14.5143   26.6252 C   0  0  0  0  0  0  0  0  0  0  0  0
    8.4016  -15.1560   25.8542 C   0  0  2  0  0  0  0  0  0  0  0  0
    8.0004  -15.4141   24.4659 N   0  0  0  0  0  0  0  0  0  0  0  0
    8.8415  -16.4152   26.4738 C   0  0  0  0  0  0  0  0  0  0  0  0
    9.2602  -16.5404   27.6509 O   0  0  0  0  0  0  0  0  0  0  0  0
    8.7911  -17.5784   25.6872 O   0  0  0  0  0  0  0  0  0  0  0  0
  2  1  1  0
  3  2  1  0
  4  3  2  0
  6  5  1  6
  6  7  1  0
  6  8  1  0
  9  8  1  1
  9 10  1  0
  9 11  1  0
 10  3  1  0
 11 18  1  0
 12 11  2  0
 14 13  1  1
 14 15  1  0
 16 14  1  0
 17 19  1  0
 17 16  1  1
 18 17  1  0
 19 21  1  0
 20 19  2  0
M  END
$$$$
