GLL.pdb
     RDKit          3D

 21 20  0  0  1  0  0  0  0  0999 V2000
   13.0229  -17.2292   20.4460 N   0  0  0  0  0  0  0  0  0  0  0  0
   11.6320  -17.4537   20.7183 C   0  0  0  0  0  0  0  0  0  0  0  0
   11.0769  -16.4241   21.6277 C   0  0  0  0  0  0  0  0  0  0  0  0
   11.7572  -15.7977   22.4603 O   0  0  0  0  0  0  0  0  0  0  0  0
    8.2734  -12.6821   20.7924 C   0  0  0  0  0  0  0  0  0  0  0  0
    7.6250  -14.0699   20.5401 C   0  0  2  0  0  0  0  0  0  0  0  0
    6.2114  -13.7612   20.1062 C   0  0  0  0  0  0  0  0  0  0  0  0
    7.6696  -14.8172   21.8250 C   0  0  0  0  0  0  0  0  0  0  0  0
    9.0130  -15.1931   22.3479 C   0  0  2  0  0  0  0  0  0  0  0  0
    9.6689  -16.1481   21.5260 N   0  0  0  0  0  0  0  0  0  0  0  0
    8.7586  -15.7728   23.7283 C   0  0  0  0  0  0  0  0  0  0  0  0
    8.7974  -17.0256   23.8524 O   0  0  0  0  0  0  0  0  0  0  0  0
    9.2776  -12.5262   28.0326 C   0  0  0  0  0  0  0  0  0  0  0  0
    9.4889  -13.8256   27.2462 C   0  0  1  0  0  0  0  0  0  0  0  0
   10.6107  -14.6296   27.9191 C   0  0  0  0  0  0  0  0  0  0  0  0
    8.2101  -14.6085   27.2336 C   0  0  0  0  0  0  0  0  0  0  0  0
    8.1939  -15.5968   26.1289 C   0  0  2  0  0  0  0  0  0  0  0  0
    8.4887  -14.9652   24.8370 N   0  0  0  0  0  0  0  0  0  0  0  0
    6.9044  -16.2989   26.0424 C   0  0  0  0  0  0  0  0  0  0  0  0
    6.0416  -16.1294   25.1462 O   0  0  0  0  0  0  0  0  0  0  0  0
    6.6083  -17.2390   27.0438 O   0  0  0  0  0  0  0  0  0  0  0  0
  2  1  1  0
  3  2  1  0
  4  3  2  0
  6  5  1  1
  6  7  1  0
  6  8  1  0
  9  8  1  6
  9 10  1  0
  9 11  1  0
 10  3  1  0
 11 18  1  0
 12 11  2  0
 14 13  1  1
 14 15  1  0
 16 14  1  0
 17 19  1  0
 17 16  1  1
 18 17  1  0
 19 21  1  0
 20 19  2  0
M  END
$$$$
