GLL.pdb
     RDKit          3D

 21 20  0  0  1  0  0  0  0  0999 V2000
    6.7571  -19.7897   21.4021 N   0  0  0  0  0  0  0  0  0  0  0  0
    6.4358  -18.4290   21.7252 C   0  0  0  0  0  0  0  0  0  0  0  0
    7.6377  -17.5626   21.7124 C   0  0  0  0  0  0  0  0  0  0  0  0
    8.8009  -17.9952   21.6223 O   0  0  0  0  0  0  0  0  0  0  0  0
    8.9737  -13.9710   19.0830 C   0  0  0  0  0  0  0  0  0  0  0  0
    7.6989  -13.7711   19.9462 C   0  0  2  0  0  0  0  0  0  0  0  0
    7.2012  -12.3916   19.5841 C   0  0  0  0  0  0  0  0  0  0  0  0
    8.1127  -13.8648   21.3714 C   0  0  0  0  0  0  0  0  0  0  0  0
    8.4946  -15.2110   21.8827 C   0  0  2  0  0  0  0  0  0  0  0  0
    7.4254  -16.1434   21.8108 N   0  0  0  0  0  0  0  0  0  0  0  0
    8.9042  -14.9900   23.3282 C   0  0  0  0  0  0  0  0  0  0  0  0
   10.0234  -14.4540   23.5433 O   0  0  0  0  0  0  0  0  0  0  0  0
    5.9576  -12.4583   26.5686 C   0  0  0  0  0  0  0  0  0  0  0  0
    7.2451  -13.0246   25.9577 C   0  0  1  0  0  0  0  0  0  0  0  0
    8.3960  -12.0508   26.2486 C   0  0  0  0  0  0  0  0  0  0  0  0
    7.5255  -14.3703   26.5568 C   0  0  0  0  0  0  0  0  0  0  0  0
    8.5426  -15.1088   25.7712 C   0  0  2  0  0  0  0  0  0  0  0  0
    8.0852  -15.3600   24.3990 N   0  0  0  0  0  0  0  0  0  0  0  0
    8.9004  -16.3871   26.4046 C   0  0  0  0  0  0  0  0  0  0  0  0
    9.3007  -16.5275   27.5863 O   0  0  0  0  0  0  0  0  0  0  0  0
    8.7864  -17.5517   25.6267 O   0  0  0  0  0  0  0  0  0  0  0  0
  2  1  1  0
  3  2  1  0
  4  3  2  0
  6  5  1  6
  6  7  1  0
  6  8  1  0
  9  8  1  1
  9 10  1  0
  9 11  1  0
 10  3  1  0
 11 18  1  0
 12 11  2  0
 14 13  1  1
 14 15  1  0
 16 14  1  0
 17 19  1  0
 17 16  1  1
 18 17  1  0
 19 21  1  0
 20 19  2  0
M  END
$$$$
