KRY.pdb
     RDKit          3D

 33 33  0  0  1  0  0  0  0  0999 V2000
    4.6219  -25.1012   16.8757 N   0  0  0  0  0  0  0  0  0  0  0  0
    4.9263  -26.1489   15.9274 C   0  0  1  0  0  0  0  0  0  0  0  0
    4.1699  -26.0392   14.6554 C   0  0  0  0  0  0  0  0  0  0  0  0
    3.3174  -24.8159   14.5001 C   0  0  0  0  0  0  0  0  0  0  0  0
    2.6113  -24.6985   13.1793 C   0  0  0  0  0  0  0  0  0  0  0  0
    1.8352  -23.3674   13.1744 C   0  0  0  0  0  0  0  0  0  0  0  0
    1.1869  -23.2414   11.8716 N   0  0  0  0  0  0  0  0  0  0  0  0
    6.4005  -26.2204   15.7086 C   0  0  0  0  0  0  0  0  0  0  0  0
    6.9315  -27.0845   14.9729 O   0  0  0  0  0  0  0  0  0  0  0  0
   12.7821  -20.5017   14.4790 N   0  0  0  0  0  0  0  0  0  0  0  0
   12.7234  -21.5133   13.4883 C   0  0  0  0  0  0  0  0  0  0  0  0
   13.6273  -21.6964   12.5835 N   0  0  0  0  0  0  0  0  0  0  0  0
   11.6074  -22.3990   13.4648 N   0  0  0  0  0  0  0  0  0  0  0  0
   10.5874  -22.4239   14.4545 C   0  0  0  0  0  0  0  0  0  0  0  0
   10.5081  -23.7568   15.1893 C   0  0  0  0  0  0  0  0  0  0  0  0
    9.0508  -24.0381   15.3519 C   0  0  0  0  0  0  0  0  0  0  0  0
    8.6987  -25.3220   16.0707 C   0  0  2  0  0  0  0  0  0  0  0  0
    7.2345  -25.2832   16.3505 N   0  0  0  0  0  0  0  0  0  0  0  0
    9.3654  -25.3416   17.3811 C   0  0  0  0  0  0  0  0  0  0  0  0
    9.0828  -24.4623   18.2309 O   0  0  0  0  0  0  0  0  0  0  0  0
   13.4832  -22.5296   11.9434 O   0  0  0  0  0  0  0  0  0  0  0  0
   14.1656  -28.1322   24.3394 C   0  0  0  0  0  0  0  0  0  0  0  0
   13.4559  -28.0100   23.1475 C   0  0  0  0  0  0  0  0  0  0  0  0
   14.0813  -27.9652   21.9214 C   0  0  0  0  0  0  0  0  0  0  0  0
   13.3679  -27.8433   20.7324 C   0  0  0  0  0  0  0  0  0  0  0  0
   11.9886  -27.7624   20.7510 C   0  0  0  0  0  0  0  0  0  0  0  0
   11.2793  -27.6289   19.4808 C   0  0  1  0  0  0  0  0  0  0  0  0
   11.0095  -26.2014   19.0527 N   0  0  0  0  0  0  0  0  0  0  0  0
   10.3266  -26.3106   17.7682 C   0  0  0  0  0  0  0  0  0  0  0  0
   12.2972  -25.4928   18.8902 O   0  0  0  0  0  0  0  0  0  0  0  0
   12.8184  -25.1745   17.6557 C   0  0  0  0  0  0  0  0  0  0  0  0
   11.3509  -27.8066   21.9789 C   0  0  0  0  0  0  0  0  0  0  0  0
   12.0761  -27.9283   23.1531 O   0  0  0  0  0  0  0  0  0  0  0  0
  2  3  1  0
  2  1  1  1
  4  3  1  0
  5  4  1  0
  6  5  1  0
  7  6  1  0
  8  2  1  0
  8  9  2  0
 10 11  1  0
 11 12  2  0
 13 11  1  0
 13 14  1  0
 14 15  1  0
 15 16  1  0
 17 16  1  1
 17 18  1  0
 18  8  1  0
 19 17  1  0
 20 19  2  0
 22 21  1  0
 23 22  2  0
 24 23  1  0
 25 31  1  0
 25 24  2  0
 26 25  1  0
 27 28  1  0
 27 26  1  1
 28 19  1  0
 29 27  1  0
 30 29  1  0
 31 32  2  0
 32 22  1  0
 33 29  2  0
M  END
$$$$
