KRY.pdb
     RDKit          3D

 33 33  0  0  1  0  0  0  0  0999 V2000
   10.6734  -19.4458   18.6772 N   0  0  0  0  0  0  0  0  0  0  0  0
   11.5580  -19.4336   19.8203 C   0  0  1  0  0  0  0  0  0  0  0  0
   12.9878  -19.6198   19.4691 C   0  0  0  0  0  0  0  0  0  0  0  0
   13.2683  -20.0580   18.0631 C   0  0  0  0  0  0  0  0  0  0  0  0
   13.4333  -18.9413   17.0718 C   0  0  0  0  0  0  0  0  0  0  0  0
   13.9014  -19.5570   15.7392 C   0  0  0  0  0  0  0  0  0  0  0  0
   15.3168  -19.8883   15.8812 N   0  0  0  0  0  0  0  0  0  0  0  0
   11.3260  -18.1995   20.6263 C   0  0  0  0  0  0  0  0  0  0  0  0
   12.2639  -17.4843   21.0487 O   0  0  0  0  0  0  0  0  0  0  0  0
    8.3536  -13.8222   17.2742 N   0  0  0  0  0  0  0  0  0  0  0  0
    7.7592  -12.8005   18.0559 C   0  0  0  0  0  0  0  0  0  0  0  0
    7.8992  -11.5368   17.8264 N   0  0  0  0  0  0  0  0  0  0  0  0
    6.9508  -13.1612   19.1726 N   0  0  0  0  0  0  0  0  0  0  0  0
    7.0758  -14.3841   19.8863 C   0  0  0  0  0  0  0  0  0  0  0  0
    8.4896  -14.6272   20.4010 C   0  0  0  0  0  0  0  0  0  0  0  0
    8.4515  -15.9674   21.0578 C   0  0  0  0  0  0  0  0  0  0  0  0
    9.7739  -16.4921   21.5727 C   0  0  2  0  0  0  0  0  0  0  0  0
   10.0037  -17.8168   20.9277 N   0  0  0  0  0  0  0  0  0  0  0  0
    9.6625  -16.7531   23.0154 C   0  0  0  0  0  0  0  0  0  0  0  0
    9.0823  -17.7931   23.4118 O   0  0  0  0  0  0  0  0  0  0  0  0
    7.4480  -10.8832   18.5292 O   0  0  0  0  0  0  0  0  0  0  0  0
   10.7928  -15.7370   31.7972 C   0  0  0  0  0  0  0  0  0  0  0  0
   10.7248  -15.5554   30.4182 C   0  0  0  0  0  0  0  0  0  0  0  0
   11.2254  -16.4810   29.5298 C   0  0  0  0  0  0  0  0  0  0  0  0
   11.1550  -16.2956   28.1521 C   0  0  0  0  0  0  0  0  0  0  0  0
   10.5708  -15.1577   27.6297 C   0  0  0  0  0  0  0  0  0  0  0  0
   10.5234  -14.9998   26.1781 C   0  0  2  0  0  0  0  0  0  0  0  0
    9.9470  -16.1841   25.4304 N   0  0  0  0  0  0  0  0  0  0  0  0
   10.1811  -15.8957   24.0196 C   0  0  0  0  0  0  0  0  0  0  0  0
    8.4960  -16.2692   25.7024 O   0  0  0  0  0  0  0  0  0  0  0  0
    7.9683  -17.1078   26.6590 C   0  0  0  0  0  0  0  0  0  0  0  0
   10.0646  -14.2214   28.5149 C   0  0  0  0  0  0  0  0  0  0  0  0
   10.1427  -14.4214   29.8836 O   0  0  0  0  0  0  0  0  0  0  0  0
  2  3  1  0
  2  1  1  6
  4  3  1  0
  5  4  1  0
  6  5  1  0
  7  6  1  0
  8  2  1  0
  8  9  2  0
 10 11  1  0
 11 12  2  0
 13 11  1  0
 13 14  1  0
 14 15  1  0
 15 16  1  0
 17 16  1  6
 17 18  1  0
 18  8  1  0
 19 17  1  0
 20 19  2  0
 22 21  1  0
 23 22  2  0
 24 23  1  0
 25 31  1  0
 25 24  2  0
 26 25  1  0
 27 28  1  0
 27 26  1  1
 28 19  1  0
 29 27  1  0
 30 29  1  0
 31 32  2  0
 32 22  1  0
 33 29  2  0
M  END
$$$$
