KRY.pdb
     RDKit          3D

 33 33  0  0  1  0  0  0  0  0999 V2000
    8.3021  -17.5617   20.3675 N   0  0  0  0  0  0  0  0  0  0  0  0
    8.8365  -16.6354   21.3401 C   0  0  1  0  0  0  0  0  0  0  0  0
    8.2211  -15.2864   21.2787 C   0  0  0  0  0  0  0  0  0  0  0  0
    8.3757  -14.5509   19.9816 C   0  0  0  0  0  0  0  0  0  0  0  0
    7.7214  -13.1993   19.9370 C   0  0  0  0  0  0  0  0  0  0  0  0
    7.9440  -12.6121   18.5299 C   0  0  0  0  0  0  0  0  0  0  0  0
    6.6431  -12.5499   17.8687 N   0  0  0  0  0  0  0  0  0  0  0  0
    8.7601  -17.2344   22.7045 C   0  0  0  0  0  0  0  0  0  0  0  0
    7.7564  -17.8667   23.1076 O   0  0  0  0  0  0  0  0  0  0  0  0
   12.3393  -21.7503   22.2713 N   0  0  0  0  0  0  0  0  0  0  0  0
   11.0730  -22.3865   22.2764 C   0  0  0  0  0  0  0  0  0  0  0  0
   10.6228  -23.1148   21.3089 N   0  0  0  0  0  0  0  0  0  0  0  0
   10.2210  -22.2297   23.4079 N   0  0  0  0  0  0  0  0  0  0  0  0
   10.3593  -21.1961   24.3738 C   0  0  0  0  0  0  0  0  0  0  0  0
   10.6677  -19.8403   23.7497 C   0  0  0  0  0  0  0  0  0  0  0  0
   10.7860  -18.8900   24.8953 C   0  0  0  0  0  0  0  0  0  0  0  0
    9.7942  -17.7476   24.9152 C   0  0  2  0  0  0  0  0  0  0  0  0
    9.8551  -17.0878   23.5792 N   0  0  0  0  0  0  0  0  0  0  0  0
   10.2365  -16.7395   25.8900 C   0  0  0  0  0  0  0  0  0  0  0  0
   11.4035  -16.2830   25.8200 O   0  0  0  0  0  0  0  0  0  0  0  0
    9.6290  -23.4692   21.4165 O   0  0  0  0  0  0  0  0  0  0  0  0
    6.9778  -11.7264   23.5505 C   0  0  0  0  0  0  0  0  0  0  0  0
    7.4459  -12.3619   24.6978 C   0  0  0  0  0  0  0  0  0  0  0  0
    8.7422  -12.8131   24.8106 C   0  0  0  0  0  0  0  0  0  0  0  0
    9.2059  -13.4476   25.9594 C   0  0  0  0  0  0  0  0  0  0  0  0
    8.3631  -13.6454   27.0364 C   0  0  0  0  0  0  0  0  0  0  0  0
    8.8886  -14.3213   28.2201 C   0  0  2  0  0  0  0  0  0  0  0  0
    9.9772  -15.3363   27.9394 N   0  0  0  0  0  0  0  0  0  0  0  0
    9.4174  -16.2269   26.9287 C   0  0  0  0  0  0  0  0  0  0  0  0
   10.2705  -16.0874   29.1789 O   0  0  0  0  0  0  0  0  0  0  0  0
   10.9359  -15.5267   30.2465 C   0  0  0  0  0  0  0  0  0  0  0  0
    7.0582  -13.1952   26.9324 C   0  0  0  0  0  0  0  0  0  0  0  0
    6.6126  -12.5655   25.7816 O   0  0  0  0  0  0  0  0  0  0  0  0
  2  3  1  0
  2  1  1  6
  4  3  1  0
  5  4  1  0
  6  5  1  0
  7  6  1  0
  8  2  1  0
  8  9  2  0
 10 11  1  0
 11 12  2  0
 13 11  1  0
 13 14  1  0
 14 15  1  0
 15 16  1  0
 17 16  1  6
 17 18  1  0
 18  8  1  0
 19 17  1  0
 20 19  2  0
 22 21  1  0
 23 22  2  0
 24 23  1  0
 25 31  1  0
 25 24  2  0
 26 25  1  0
 27 28  1  0
 27 26  1  6
 28 19  1  0
 29 27  1  0
 30 29  1  0
 31 32  2  0
 32 22  1  0
 33 29  2  0
M  END
$$$$
