KRY.pdb
     RDKit          3D

 33 33  0  0  1  0  0  0  0  0999 V2000
   10.4677  -19.3946   18.8406 N   0  0  0  0  0  0  0  0  0  0  0  0
   11.7093  -18.6552   18.8726 C   0  0  1  0  0  0  0  0  0  0  0  0
   12.1108  -18.1078   17.5529 C   0  0  0  0  0  0  0  0  0  0  0  0
   11.1850  -18.3994   16.4103 C   0  0  0  0  0  0  0  0  0  0  0  0
   11.6857  -17.9660   15.0619 C   0  0  0  0  0  0  0  0  0  0  0  0
   10.5599  -18.2097   14.0385 C   0  0  0  0  0  0  0  0  0  0  0  0
   11.0820  -17.8614   12.7195 N   0  0  0  0  0  0  0  0  0  0  0  0
   11.6449  -17.6036   19.9291 C   0  0  0  0  0  0  0  0  0  0  0  0
   12.5668  -16.7754   20.1127 O   0  0  0  0  0  0  0  0  0  0  0  0
    8.5588  -12.3087   20.4626 N   0  0  0  0  0  0  0  0  0  0  0  0
    7.9324  -13.0584   19.4360 C   0  0  0  0  0  0  0  0  0  0  0  0
    8.1430  -12.8784   18.1741 N   0  0  0  0  0  0  0  0  0  0  0  0
    7.0063  -14.0822   19.7894 N   0  0  0  0  0  0  0  0  0  0  0  0
    7.1449  -14.9264   20.9246 C   0  0  0  0  0  0  0  0  0  0  0  0
    8.1512  -16.0501   20.7072 C   0  0  0  0  0  0  0  0  0  0  0  0
    8.9697  -16.1013   21.9549 C   0  0  0  0  0  0  0  0  0  0  0  0
   10.4317  -16.4471   21.7760 C   0  0  2  0  0  0  0  0  0  0  0  0
   10.5061  -17.5327   20.7562 N   0  0  0  0  0  0  0  0  0  0  0  0
   10.9494  -17.0234   23.0257 C   0  0  0  0  0  0  0  0  0  0  0  0
   10.4485  -18.0849   23.4702 O   0  0  0  0  0  0  0  0  0  0  0  0
    7.5596  -13.4706   17.5156 O   0  0  0  0  0  0  0  0  0  0  0  0
    9.8047  -14.5176   31.0600 C   0  0  0  0  0  0  0  0  0  0  0  0
   10.0402  -14.7644   29.7099 C   0  0  0  0  0  0  0  0  0  0  0  0
    9.9500  -13.7755   28.7557 C   0  0  0  0  0  0  0  0  0  0  0  0
   10.1866  -14.0265   27.4072 C   0  0  0  0  0  0  0  0  0  0  0  0
   10.5243  -15.2973   26.9824 C   0  0  0  0  0  0  0  0  0  0  0  0
   10.7580  -15.5187   25.5574 C   0  0  2  0  0  0  0  0  0  0  0  0
   11.9330  -16.4204   25.2406 N   0  0  0  0  0  0  0  0  0  0  0  0
   12.0054  -16.4556   23.7840 C   0  0  0  0  0  0  0  0  0  0  0  0
   11.6630  -17.7731   25.7734 O   0  0  0  0  0  0  0  0  0  0  0  0
   12.4881  -18.3886   26.6884 C   0  0  0  0  0  0  0  0  0  0  0  0
   10.6176  -16.2980   27.9343 C   0  0  0  0  0  0  0  0  0  0  0  0
   10.3788  -16.0312   29.2726 O   0  0  0  0  0  0  0  0  0  0  0  0
  2  3  1  0
  2  1  1  6
  4  3  1  0
  5  4  1  0
  6  5  1  0
  7  6  1  0
  8  2  1  0
  8  9  2  0
 10 11  1  0
 11 12  2  0
 13 11  1  0
 13 14  1  0
 14 15  1  0
 15 16  1  0
 17 16  1  1
 17 18  1  0
 18  8  1  0
 19 17  1  0
 20 19  2  0
 22 21  1  0
 23 22  2  0
 24 23  1  0
 25 31  1  0
 25 24  2  0
 26 25  1  0
 27 28  1  0
 27 26  1  1
 28 19  1  0
 29 27  1  0
 30 29  1  0
 31 32  2  0
 32 22  1  0
 33 29  2  0
M  END
$$$$
