KRY.pdb
     RDKit          3D

 33 33  0  0  1  0  0  0  0  0999 V2000
    6.8900  -18.5980   17.6104 N   0  0  0  0  0  0  0  0  0  0  0  0
    7.6279  -17.5982   18.3489 C   0  0  1  0  0  0  0  0  0  0  0  0
    7.5226  -16.2343   17.7736 C   0  0  0  0  0  0  0  0  0  0  0  0
    8.5377  -15.8807   16.7285 C   0  0  0  0  0  0  0  0  0  0  0  0
    8.0306  -15.9144   15.3148 C   0  0  0  0  0  0  0  0  0  0  0  0
    9.1932  -15.5158   14.3856 C   0  0  0  0  0  0  0  0  0  0  0  0
    8.6718  -15.4755   13.0217 N   0  0  0  0  0  0  0  0  0  0  0  0
    7.2362  -17.6407   19.7880 C   0  0  0  0  0  0  0  0  0  0  0  0
    6.1973  -17.0896   20.2202 O   0  0  0  0  0  0  0  0  0  0  0  0
    6.5770  -24.5348   23.0640 N   0  0  0  0  0  0  0  0  0  0  0  0
    6.4279  -23.3906   23.8868 C   0  0  0  0  0  0  0  0  0  0  0  0
    6.4440  -23.4182   25.1783 N   0  0  0  0  0  0  0  0  0  0  0  0
    6.2467  -22.1153   23.2773 N   0  0  0  0  0  0  0  0  0  0  0  0
    6.2393  -20.8847   23.9888 C   0  0  0  0  0  0  0  0  0  0  0  0
    7.5952  -20.1889   23.9820 C   0  0  0  0  0  0  0  0  0  0  0  0
    7.8766  -19.8746   22.5498 C   0  0  0  0  0  0  0  0  0  0  0  0
    7.6077  -18.4498   22.1176 C   0  0  2  0  0  0  0  0  0  0  0  0
    8.0611  -18.3255   20.7024 N   0  0  0  0  0  0  0  0  0  0  0  0
    8.4553  -17.5384   22.9005 C   0  0  0  0  0  0  0  0  0  0  0  0
    9.7011  -17.5738   22.7528 O   0  0  0  0  0  0  0  0  0  0  0  0
    6.4378  -22.4756   25.6643 O   0  0  0  0  0  0  0  0  0  0  0  0
    7.5067  -12.3605   19.1839 C   0  0  0  0  0  0  0  0  0  0  0  0
    7.6765  -12.8427   20.4792 C   0  0  0  0  0  0  0  0  0  0  0  0
    8.9072  -12.8724   21.0966 C   0  0  0  0  0  0  0  0  0  0  0  0
    9.0723  -13.3549   22.3917 C   0  0  0  0  0  0  0  0  0  0  0  0
    7.9866  -13.8256   23.1051 C   0  0  0  0  0  0  0  0  0  0  0  0
    8.2051  -14.3291   24.4590 C   0  0  2  0  0  0  0  0  0  0  0  0
    8.8645  -15.6907   24.5300 N   0  0  0  0  0  0  0  0  0  0  0  0
    7.9548  -16.5924   23.8318 C   0  0  0  0  0  0  0  0  0  0  0  0
    8.9966  -16.0917   25.9472 O   0  0  0  0  0  0  0  0  0  0  0  0
    8.3207  -17.1668   26.4802 C   0  0  0  0  0  0  0  0  0  0  0  0
    6.7453  -13.7998   22.4929 C   0  0  0  0  0  0  0  0  0  0  0  0
    6.5982  -13.3161   21.2030 O   0  0  0  0  0  0  0  0  0  0  0  0
  2  3  1  0
  2  1  1  6
  4  3  1  0
  5  4  1  0
  6  5  1  0
  7  6  1  0
  8  2  1  0
  8  9  2  0
 10 11  1  0
 11 12  2  0
 13 11  1  0
 13 14  1  0
 14 15  1  0
 15 16  1  0
 17 16  1  1
 17 18  1  0
 18  8  1  0
 19 17  1  0
 20 19  2  0
 22 21  1  0
 23 22  2  0
 24 23  1  0
 25 31  1  0
 25 24  2  0
 26 25  1  0
 27 28  1  0
 27 26  1  6
 28 19  1  0
 29 27  1  0
 30 29  1  0
 31 32  2  0
 32 22  1  0
 33 29  2  0
M  END
$$$$
