KRY.pdb
     RDKit          3D

 33 33  0  0  1  0  0  0  0  0999 V2000
    6.2087  -19.2935   21.8437 N   0  0  0  0  0  0  0  0  0  0  0  0
    7.5117  -19.5047   21.2544 C   0  0  1  0  0  0  0  0  0  0  0  0
    7.4669  -20.1952   19.9416 C   0  0  0  0  0  0  0  0  0  0  0  0
    6.4444  -21.2830   19.8048 C   0  0  0  0  0  0  0  0  0  0  0  0
    6.9412  -22.5420   19.1528 C   0  0  0  0  0  0  0  0  0  0  0  0
    5.7387  -23.4886   18.9743 C   0  0  0  0  0  0  0  0  0  0  0  0
    6.2453  -24.7444   18.4266 N   0  0  0  0  0  0  0  0  0  0  0  0
    8.2544  -18.2121   21.1926 C   0  0  0  0  0  0  0  0  0  0  0  0
    9.4559  -18.1412   20.8448 O   0  0  0  0  0  0  0  0  0  0  0  0
    8.1961  -12.2671   16.5519 N   0  0  0  0  0  0  0  0  0  0  0  0
    8.5386  -13.5390   17.0749 C   0  0  0  0  0  0  0  0  0  0  0  0
    8.8369  -14.5657   16.3495 N   0  0  0  0  0  0  0  0  0  0  0  0
    8.5632  -13.7259   18.4874 N   0  0  0  0  0  0  0  0  0  0  0  0
    7.9261  -12.8607   19.4180 C   0  0  0  0  0  0  0  0  0  0  0  0
    8.1000  -13.3140   20.8626 C   0  0  0  0  0  0  0  0  0  0  0  0
    7.5055  -14.6821   20.9272 C   0  0  0  0  0  0  0  0  0  0  0  0
    8.3640  -15.7493   21.5700 C   0  0  2  0  0  0  0  0  0  0  0  0
    7.5853  -17.0206   21.5368 N   0  0  0  0  0  0  0  0  0  0  0  0
    8.5568  -15.4245   22.9911 C   0  0  0  0  0  0  0  0  0  0  0  0
    8.1683  -14.3143   23.4290 O   0  0  0  0  0  0  0  0  0  0  0  0
    9.1249  -15.4399   16.8762 O   0  0  0  0  0  0  0  0  0  0  0  0
    5.2162  -11.4956   26.0973 C   0  0  0  0  0  0  0  0  0  0  0  0
    6.1385  -12.5386   26.1274 C   0  0  0  0  0  0  0  0  0  0  0  0
    7.3756  -12.4085   26.7182 C   0  0  0  0  0  0  0  0  0  0  0  0
    8.2943  -13.4538   26.7462 C   0  0  0  0  0  0  0  0  0  0  0  0
    7.9840  -14.6715   26.1717 C   0  0  0  0  0  0  0  0  0  0  0  0
    8.9794  -15.7399   26.2179 C   0  0  2  0  0  0  0  0  0  0  0  0
    9.9367  -15.7652   25.0445 N   0  0  0  0  0  0  0  0  0  0  0  0
    9.1610  -16.2993   23.9303 C   0  0  0  0  0  0  0  0  0  0  0  0
   11.0668  -16.6650   25.3605 O   0  0  0  0  0  0  0  0  0  0  0  0
   12.0029  -16.3696   26.3265 C   0  0  0  0  0  0  0  0  0  0  0  0
    6.7426  -14.8120   25.5755 C   0  0  0  0  0  0  0  0  0  0  0  0
    5.8397  -13.7613   25.5563 O   0  0  0  0  0  0  0  0  0  0  0  0
  2  3  1  0
  2  1  1  6
  4  3  1  0
  5  4  1  0
  6  5  1  0
  7  6  1  0
  8  2  1  0
  8  9  2  0
 10 11  1  0
 11 12  2  0
 13 11  1  0
 13 14  1  0
 14 15  1  0
 15 16  1  0
 17 16  1  6
 17 18  1  0
 18  8  1  0
 19 17  1  0
 20 19  2  0
 22 21  1  0
 23 22  2  0
 24 23  1  0
 25 31  1  0
 25 24  2  0
 26 25  1  0
 27 28  1  0
 27 26  1  6
 28 19  1  0
 29 27  1  0
 30 29  1  0
 31 32  2  0
 32 22  1  0
 33 29  2  0
M  END
$$$$
