KRY.pdb
     RDKit          3D

 33 33  0  0  1  0  0  0  0  0999 V2000
    6.2794  -16.8688   20.8927 N   0  0  0  0  0  0  0  0  0  0  0  0
    7.3288  -16.1905   21.6195 C   0  0  1  0  0  0  0  0  0  0  0  0
    7.0384  -14.7602   21.8885 C   0  0  0  0  0  0  0  0  0  0  0  0
    6.8472  -13.8895   20.6831 C   0  0  0  0  0  0  0  0  0  0  0  0
    8.0693  -13.1321   20.2475 C   0  0  0  0  0  0  0  0  0  0  0  0
    7.7031  -12.3292   18.9845 C   0  0  0  0  0  0  0  0  0  0  0  0
    8.9107  -11.6410   18.5356 N   0  0  0  0  0  0  0  0  0  0  0  0
    7.6547  -16.9486   22.8625 C   0  0  0  0  0  0  0  0  0  0  0  0
    6.8267  -17.6965   23.4324 O   0  0  0  0  0  0  0  0  0  0  0  0
   14.3892  -18.4409   21.0581 N   0  0  0  0  0  0  0  0  0  0  0  0
   13.1532  -18.8889   20.5289 C   0  0  0  0  0  0  0  0  0  0  0  0
   12.7364  -18.6244   19.3349 N   0  0  0  0  0  0  0  0  0  0  0  0
   12.2954  -19.6832   21.3437 N   0  0  0  0  0  0  0  0  0  0  0  0
   12.0879  -19.4656   22.7329 C   0  0  0  0  0  0  0  0  0  0  0  0
   11.1914  -18.2663   23.0168 C   0  0  0  0  0  0  0  0  0  0  0  0
   10.3057  -18.6863   24.1430 C   0  0  0  0  0  0  0  0  0  0  0  0
    9.2893  -17.6649   24.6046 C   0  0  2  0  0  0  0  0  0  0  0  0
    8.9416  -16.8241   23.4231 N   0  0  0  0  0  0  0  0  0  0  0  0
    9.9191  -16.7614   25.5788 C   0  0  0  0  0  0  0  0  0  0  0  0
   10.7606  -15.9177   25.1844 O   0  0  0  0  0  0  0  0  0  0  0  0
   11.7814  -19.0083   19.0795 O   0  0  0  0  0  0  0  0  0  0  0  0
    6.7560  -11.5052   24.8195 C   0  0  0  0  0  0  0  0  0  0  0  0
    7.3783  -12.3630   25.7231 C   0  0  0  0  0  0  0  0  0  0  0  0
    8.6709  -12.1638   26.1542 C   0  0  0  0  0  0  0  0  0  0  0  0
    9.2889  -13.0235   27.0577 C   0  0  0  0  0  0  0  0  0  0  0  0
    8.6099  -14.1194   27.5549 C   0  0  0  0  0  0  0  0  0  0  0  0
    9.2978  -14.9997   28.4962 C   0  0  2  0  0  0  0  0  0  0  0  0
   10.3580  -15.8859   27.8761 N   0  0  0  0  0  0  0  0  0  0  0  0
    9.6341  -16.7694   26.9685 C   0  0  0  0  0  0  0  0  0  0  0  0
   11.0157  -16.6726   28.9415 O   0  0  0  0  0  0  0  0  0  0  0  0
   10.9361  -18.0461   29.0064 C   0  0  0  0  0  0  0  0  0  0  0  0
    7.3098  -14.3279   27.1274 C   0  0  0  0  0  0  0  0  0  0  0  0
    6.7094  -13.4624   26.2276 O   0  0  0  0  0  0  0  0  0  0  0  0
  2  3  1  0
  2  1  1  1
  4  3  1  0
  5  4  1  0
  6  5  1  0
  7  6  1  0
  8  2  1  0
  8  9  2  0
 10 11  1  0
 11 12  2  0
 13 11  1  0
 13 14  1  0
 14 15  1  0
 15 16  1  0
 17 16  1  6
 17 18  1  0
 18  8  1  0
 19 17  1  0
 20 19  2  0
 22 21  1  0
 23 22  2  0
 24 23  1  0
 25 31  1  0
 25 24  2  0
 26 25  1  0
 27 28  1  0
 27 26  1  6
 28 19  1  0
 29 27  1  0
 30 29  1  0
 31 32  2  0
 32 22  1  0
 33 29  2  0
M  END
$$$$
