KRY.pdb
     RDKit          3D

 33 33  0  0  1  0  0  0  0  0999 V2000
   10.1125  -19.8794   23.3690 N   0  0  0  0  0  0  0  0  0  0  0  0
   11.0577  -18.8866   23.8278 C   0  0  1  0  0  0  0  0  0  0  0  0
   12.3552  -18.9222   23.1085 C   0  0  0  0  0  0  0  0  0  0  0  0
   12.9008  -20.2846   22.8024 C   0  0  0  0  0  0  0  0  0  0  0  0
   12.0754  -21.0981   21.8465 C   0  0  0  0  0  0  0  0  0  0  0  0
   12.7825  -22.4521   21.6448 C   0  0  0  0  0  0  0  0  0  0  0  0
   11.9747  -23.2355   20.7135 N   0  0  0  0  0  0  0  0  0  0  0  0
   10.4266  -17.5349   23.7968 C   0  0  0  0  0  0  0  0  0  0  0  0
   11.0635  -16.4877   24.0562 O   0  0  0  0  0  0  0  0  0  0  0  0
    9.2514  -13.3636   18.2888 N   0  0  0  0  0  0  0  0  0  0  0  0
    8.1243  -12.7142   18.8510 C   0  0  0  0  0  0  0  0  0  0  0  0
    7.7347  -11.5258   18.5268 N   0  0  0  0  0  0  0  0  0  0  0  0
    7.3533  -13.3917   19.8396 N   0  0  0  0  0  0  0  0  0  0  0  0
    7.8225  -14.4997   20.5964 C   0  0  0  0  0  0  0  0  0  0  0  0
    6.8023  -14.9957   21.6142 C   0  0  0  0  0  0  0  0  0  0  0  0
    7.3808  -16.2495   22.1823 C   0  0  0  0  0  0  0  0  0  0  0  0
    8.5054  -16.0699   23.1783 C   0  0  2  0  0  0  0  0  0  0  0  0
    9.0619  -17.4237   23.4634 N   0  0  0  0  0  0  0  0  0  0  0  0
    7.9526  -15.5787   24.4492 C   0  0  0  0  0  0  0  0  0  0  0  0
    7.1876  -16.3169   25.1163 O   0  0  0  0  0  0  0  0  0  0  0  0
    6.8718  -11.1660   19.0274 O   0  0  0  0  0  0  0  0  0  0  0  0
   11.5139  -16.8963   30.0971 C   0  0  0  0  0  0  0  0  0  0  0  0
   10.7753  -15.9818   29.3505 C   0  0  0  0  0  0  0  0  0  0  0  0
   10.7190  -16.0313   27.9754 C   0  0  0  0  0  0  0  0  0  0  0  0
    9.9792  -15.1153   27.2331 C   0  0  0  0  0  0  0  0  0  0  0  0
    9.2690  -14.1140   27.8673 C   0  0  0  0  0  0  0  0  0  0  0  0
    8.5108  -13.1697   27.0501 C   0  0  2  0  0  0  0  0  0  0  0  0
    7.4785  -13.8045   26.1415 N   0  0  0  0  0  0  0  0  0  0  0  0
    8.2320  -14.2991   24.9945 C   0  0  0  0  0  0  0  0  0  0  0  0
    6.5104  -12.7722   25.7126 O   0  0  0  0  0  0  0  0  0  0  0  0
    5.5423  -12.2682   26.5525 C   0  0  0  0  0  0  0  0  0  0  0  0
    9.3194  -14.0561   29.2495 C   0  0  0  0  0  0  0  0  0  0  0  0
   10.0607  -14.9758   29.9734 O   0  0  0  0  0  0  0  0  0  0  0  0
  2  3  1  0
  2  1  1  6
  4  3  1  0
  5  4  1  0
  6  5  1  0
  7  6  1  0
  8  2  1  0
  8  9  2  0
 10 11  1  0
 11 12  2  0
 13 11  1  0
 13 14  1  0
 14 15  1  0
 15 16  1  0
 17 16  1  6
 17 18  1  0
 18  8  1  0
 19 17  1  0
 20 19  2  0
 22 21  1  0
 23 22  2  0
 24 23  1  0
 25 31  1  0
 25 24  2  0
 26 25  1  0
 27 28  1  0
 27 26  1  1
 28 19  1  0
 29 27  1  0
 30 29  1  0
 31 32  2  0
 32 22  1  0
 33 29  2  0
M  END
$$$$
