KRY.pdb
     RDKit          3D

 33 33  0  0  1  0  0  0  0  0999 V2000
    6.4010  -16.3059   21.6384 N   0  0  0  0  0  0  0  0  0  0  0  0
    7.6761  -15.6431   21.7942 C   0  0  1  0  0  0  0  0  0  0  0  0
    7.5644  -14.1775   21.9992 C   0  0  0  0  0  0  0  0  0  0  0  0
    7.0380  -13.3888   20.8380 C   0  0  0  0  0  0  0  0  0  0  0  0
    7.9755  -13.2784   19.6693 C   0  0  0  0  0  0  0  0  0  0  0  0
    7.3210  -12.3555   18.6234 C   0  0  0  0  0  0  0  0  0  0  0  0
    8.2824  -12.1678   17.5398 N   0  0  0  0  0  0  0  0  0  0  0  0
    8.4647  -16.3100   22.8710 C   0  0  0  0  0  0  0  0  0  0  0  0
    7.9242  -16.8959   23.8376 O   0  0  0  0  0  0  0  0  0  0  0  0
   13.3719  -16.5907   18.9821 N   0  0  0  0  0  0  0  0  0  0  0  0
   13.6940  -15.8460   20.1440 C   0  0  0  0  0  0  0  0  0  0  0  0
   13.6039  -14.5601   20.2301 N   0  0  0  0  0  0  0  0  0  0  0  0
   14.1491  -16.5337   21.3062 N   0  0  0  0  0  0  0  0  0  0  0  0
   13.6978  -17.8232   21.6984 C   0  0  0  0  0  0  0  0  0  0  0  0
   12.2075  -17.8576   22.0154 C   0  0  0  0  0  0  0  0  0  0  0  0
   12.0619  -17.1651   23.3301 C   0  0  0  0  0  0  0  0  0  0  0  0
   10.6483  -17.0148   23.8482 C   0  0  2  0  0  0  0  0  0  0  0  0
    9.8721  -16.2844   22.8052 N   0  0  0  0  0  0  0  0  0  0  0  0
   10.6574  -16.1464   25.0347 C   0  0  0  0  0  0  0  0  0  0  0  0
   11.2069  -15.0198   24.9713 O   0  0  0  0  0  0  0  0  0  0  0  0
   13.9967  -14.1239   21.1134 O   0  0  0  0  0  0  0  0  0  0  0  0
    5.9780  -11.7046   24.6964 C   0  0  0  0  0  0  0  0  0  0  0  0
    6.7002  -12.5874   25.4954 C   0  0  0  0  0  0  0  0  0  0  0  0
    6.1270  -13.7063   26.0575 C   0  0  0  0  0  0  0  0  0  0  0  0
    6.8527  -14.5863   26.8553 C   0  0  0  0  0  0  0  0  0  0  0  0
    8.1914  -14.3565   27.1091 C   0  0  0  0  0  0  0  0  0  0  0  0
    8.9142  -15.3016   27.9568 C   0  0  2  0  0  0  0  0  0  0  0  0
   10.2966  -15.6699   27.4595 N   0  0  0  0  0  0  0  0  0  0  0  0
   10.0701  -16.4953   26.2782 C   0  0  0  0  0  0  0  0  0  0  0  0
   10.9953  -16.4497   28.5036 O   0  0  0  0  0  0  0  0  0  0  0  0
   11.4473  -15.8835   29.6749 C   0  0  0  0  0  0  0  0  0  0  0  0
    8.7765  -13.2342   26.5483 C   0  0  0  0  0  0  0  0  0  0  0  0
    8.0398  -12.3684   25.7565 O   0  0  0  0  0  0  0  0  0  0  0  0
  2  3  1  0
  2  1  1  1
  4  3  1  0
  5  4  1  0
  6  5  1  0
  7  6  1  0
  8  2  1  0
  8  9  2  0
 10 11  1  0
 11 12  2  0
 13 11  1  0
 13 14  1  0
 14 15  1  0
 15 16  1  0
 17 16  1  6
 17 18  1  0
 18  8  1  0
 19 17  1  0
 20 19  2  0
 22 21  1  0
 23 22  2  0
 24 23  1  0
 25 31  1  0
 25 24  2  0
 26 25  1  0
 27 28  1  0
 27 26  1  6
 28 19  1  0
 29 27  1  0
 30 29  1  0
 31 32  2  0
 32 22  1  0
 33 29  2  0
M  END
$$$$
