KRY.pdb
     RDKit          3D

 33 33  0  0  1  0  0  0  0  0999 V2000
   11.6557  -17.1774   14.9180 N   0  0  0  0  0  0  0  0  0  0  0  0
   12.6602  -16.1417   15.0060 C   0  0  1  0  0  0  0  0  0  0  0  0
   12.5633  -15.1250   13.9292 C   0  0  0  0  0  0  0  0  0  0  0  0
   11.6707  -15.4713   12.7756 C   0  0  0  0  0  0  0  0  0  0  0  0
   11.7275  -14.5132   11.6199 C   0  0  0  0  0  0  0  0  0  0  0  0
   10.7476  -15.0140   10.5415 C   0  0  0  0  0  0  0  0  0  0  0  0
   10.7849  -14.0597    9.4363 N   0  0  0  0  0  0  0  0  0  0  0  0
   12.6403  -15.5321   16.3677 C   0  0  0  0  0  0  0  0  0  0  0  0
   13.4847  -14.6842   16.7389 O   0  0  0  0  0  0  0  0  0  0  0  0
    6.6469  -12.5601   19.5264 N   0  0  0  0  0  0  0  0  0  0  0  0
    6.7809  -13.5195   18.4921 C   0  0  0  0  0  0  0  0  0  0  0  0
    6.4305  -13.3177   17.2650 N   0  0  0  0  0  0  0  0  0  0  0  0
    7.3341  -14.7970   18.7966 N   0  0  0  0  0  0  0  0  0  0  0  0
    8.0754  -15.0853   19.9747 C   0  0  0  0  0  0  0  0  0  0  0  0
    9.5105  -14.5764   19.9104 C   0  0  0  0  0  0  0  0  0  0  0  0
   10.2968  -15.6753   19.2754 C   0  0  0  0  0  0  0  0  0  0  0  0
   11.5964  -15.2668   18.6171 C   0  0  2  0  0  0  0  0  0  0  0  0
   11.6359  -15.9197   17.2770 N   0  0  0  0  0  0  0  0  0  0  0  0
   12.7221  -15.8275   19.3789 C   0  0  0  0  0  0  0  0  0  0  0  0
   13.0664  -17.0188   19.1852 O   0  0  0  0  0  0  0  0  0  0  0  0
    6.5892  -14.1257   16.5967 O   0  0  0  0  0  0  0  0  0  0  0  0
   18.2188  -13.6793   16.1277 C   0  0  0  0  0  0  0  0  0  0  0  0
   17.5929  -13.9229   17.3475 C   0  0  0  0  0  0  0  0  0  0  0  0
   18.0234  -14.9057   18.2108 C   0  0  0  0  0  0  0  0  0  0  0  0
   17.3950  -15.1456   19.4293 C   0  0  0  0  0  0  0  0  0  0  0  0
   16.3028  -14.3908   19.8122 C   0  0  0  0  0  0  0  0  0  0  0  0
   15.6690  -14.6798   21.0963 C   0  0  2  0  0  0  0  0  0  0  0  0
   14.5814  -15.7326   21.0435 N   0  0  0  0  0  0  0  0  0  0  0  0
   13.4715  -15.1000   20.3390 C   0  0  0  0  0  0  0  0  0  0  0  0
   14.1797  -16.0839   22.4226 O   0  0  0  0  0  0  0  0  0  0  0  0
   12.8997  -15.8936   22.8940 C   0  0  0  0  0  0  0  0  0  0  0  0
   15.8625  -13.4004   18.9510 C   0  0  0  0  0  0  0  0  0  0  0  0
   16.4996  -13.1746   17.7416 O   0  0  0  0  0  0  0  0  0  0  0  0
  2  3  1  0
  2  1  1  1
  4  3  1  0
  5  4  1  0
  6  5  1  0
  7  6  1  0
  8  2  1  0
  8  9  2  0
 10 11  1  0
 11 12  2  0
 13 11  1  0
 13 14  1  0
 14 15  1  0
 15 16  1  0
 17 16  1  1
 17 18  1  0
 18  8  1  0
 19 17  1  0
 20 19  2  0
 22 21  1  0
 23 22  2  0
 24 23  1  0
 25 31  1  0
 25 24  2  0
 26 25  1  0
 27 28  1  0
 27 26  1  6
 28 19  1  0
 29 27  1  0
 30 29  1  0
 31 32  2  0
 32 22  1  0
 33 29  2  0
M  END
$$$$
