QFG.pdb
     RDKit          3D

 25 25  0  0  1  0  0  0  0  0999 V2000
   24.7750  -19.0199  -16.8352 N   0  0  0  0  0  0  0  0  0  0  0  0
   25.2771  -19.1436  -18.1517 C   0  0  0  0  0  0  0  0  0  0  0  0
   25.1616  -18.1689  -18.9148 O   0  0  0  0  0  0  0  0  0  0  0  0
   25.9104  -20.3897  -18.5858 C   0  0  0  0  0  0  0  0  0  0  0  0
   25.9852  -21.4569  -17.5306 C   0  0  0  0  0  0  0  0  0  0  0  0
   26.9444  -21.1839  -16.4278 C   0  0  2  0  0  0  0  0  0  0  0  0
   28.0689  -22.1075  -16.5840 N   0  0  0  0  0  0  0  0  0  0  0  0
   26.3700  -21.4568  -15.0751 C   0  0  0  0  0  0  0  0  0  0  0  0
   26.2575  -22.6537  -14.7183 O   0  0  0  0  0  0  0  0  0  0  0  0
   25.9546  -20.4312  -14.1949 N   0  0  0  0  0  0  0  0  0  0  0  0
   25.5038  -20.6666  -12.8667 C   0  0  1  0  0  0  0  0  0  0  0  0
   26.2142  -19.8572  -11.8156 C   0  0  0  0  0  0  0  0  0  0  0  0
   27.5839  -20.3468  -11.5440 C   0  0  0  0  0  0  0  0  0  0  0  0
   28.5752  -20.0360  -12.4490 C   0  0  0  0  0  0  0  0  0  0  0  0
   29.8912  -20.4651  -12.2562 C   0  0  0  0  0  0  0  0  0  0  0  0
   30.2097  -21.2033  -11.1590 C   0  0  0  0  0  0  0  0  0  0  0  0
   29.2470  -21.5262  -10.2451 C   0  0  0  0  0  0  0  0  0  0  0  0
   27.9483  -21.0958  -10.4468 C   0  0  0  0  0  0  0  0  0  0  0  0
   24.0371  -20.4398  -12.6888 C   0  0  0  0  0  0  0  0  0  0  0  0
   23.5648  -19.3883  -13.1417 O   0  0  0  0  0  0  0  0  0  0  0  0
   23.1899  -21.3696  -12.0328 N   0  0  0  0  0  0  0  0  0  0  0  0
   21.7887  -21.0723  -11.8493 C   0  0  0  0  0  0  0  0  0  0  0  0
   21.0601  -21.4357  -13.0801 C   0  0  0  0  0  0  0  0  0  0  0  0
   21.2254  -22.5667  -13.5737 O   0  0  0  0  0  0  0  0  0  0  0  0
   20.2083  -20.5256  -13.6685 O   0  0  0  0  0  0  0  0  0  0  0  0
  1  2  1  0
  2  3  2  0
  4  2  1  0
  5  6  1  0
  5  4  1  0
  6  8  1  0
  6  7  1  6
  8  9  2  0
  8 10  1  0
 10 11  1  0
 11 12  1  1
 12 13  1  0
 13 18  2  0
 14 15  2  0
 14 13  1  0
 15 16  1  0
 16 17  2  0
 18 17  1  0
 19 11  1  0
 19 20  2  0
 21 19  1  0
 22 21  1  0
 22 23  1  0
 23 24  2  0
 23 25  1  0
M  END
$$$$
