QFG.pdb
     RDKit          3D

 25 25  0  0  1  0  0  0  0  0999 V2000
   22.3887  -23.3925  -14.0169 N   0  0  0  0  0  0  0  0  0  0  0  0
   21.1255  -22.7566  -13.9914 C   0  0  0  0  0  0  0  0  0  0  0  0
   20.1212  -23.4424  -14.2493 O   0  0  0  0  0  0  0  0  0  0  0  0
   21.0229  -21.3324  -13.6696 C   0  0  0  0  0  0  0  0  0  0  0  0
   22.3196  -20.6820  -13.2780 C   0  0  0  0  0  0  0  0  0  0  0  0
   22.7991  -21.0105  -11.9095 C   0  0  2  0  0  0  0  0  0  0  0  0
   21.9257  -20.3201  -10.9596 N   0  0  0  0  0  0  0  0  0  0  0  0
   24.1812  -20.5089  -11.6404 C   0  0  0  0  0  0  0  0  0  0  0  0
   24.3533  -19.2677  -11.5903 O   0  0  0  0  0  0  0  0  0  0  0  0
   25.2864  -21.3683  -11.4428 N   0  0  0  0  0  0  0  0  0  0  0  0
   26.6345  -20.9189  -11.3860 C   0  0  1  0  0  0  0  0  0  0  0  0
   27.4625  -21.5687  -10.3104 C   0  0  0  0  0  0  0  0  0  0  0  0
   27.3545  -20.8760   -9.0073 C   0  0  0  0  0  0  0  0  0  0  0  0
   28.5048  -20.6978   -8.2702 C   0  0  0  0  0  0  0  0  0  0  0  0
   28.4772  -20.0522   -7.0310 C   0  0  0  0  0  0  0  0  0  0  0  0
   27.2991  -19.5878   -6.5346 C   0  0  0  0  0  0  0  0  0  0  0  0
   26.1429  -19.7506   -7.2438 C   0  0  0  0  0  0  0  0  0  0  0  0
   26.1829  -20.3911   -8.4689 C   0  0  0  0  0  0  0  0  0  0  0  0
   27.3702  -21.0847  -12.6766 C   0  0  0  0  0  0  0  0  0  0  0  0
   28.5345  -20.6651  -12.7260 O   0  0  0  0  0  0  0  0  0  0  0  0
   26.7898  -21.6933  -13.8191 N   0  0  0  0  0  0  0  0  0  0  0  0
   27.5792  -21.9053  -15.0097 C   0  0  0  0  0  0  0  0  0  0  0  0
   27.1189  -20.9737  -16.0576 C   0  0  0  0  0  0  0  0  0  0  0  0
   26.8440  -19.7991  -15.7498 O   0  0  0  0  0  0  0  0  0  0  0  0
   26.9985  -21.4096  -17.3598 O   0  0  0  0  0  0  0  0  0  0  0  0
  1  2  1  0
  2  3  2  0
  4  2  1  0
  5  6  1  0
  5  4  1  0
  6  8  1  0
  6  7  1  1
  8  9  2  0
  8 10  1  0
 10 11  1  0
 11 12  1  1
 12 13  1  0
 13 18  2  0
 14 15  2  0
 14 13  1  0
 15 16  1  0
 16 17  2  0
 18 17  1  0
 19 11  1  0
 19 20  2  0
 21 19  1  0
 22 21  1  0
 22 23  1  0
 23 24  2  0
 23 25  1  0
M  END
$$$$
