QFG.pdb
     RDKit          3D

 25 25  0  0  1  0  0  0  0  0999 V2000
   10.5748  -27.7102   -4.3639 N   0  0  0  0  0  0  0  0  0  0  0  0
   11.2372  -26.5338   -3.9421 C   0  0  0  0  0  0  0  0  0  0  0  0
   11.7023  -25.7806   -4.8149 O   0  0  0  0  0  0  0  0  0  0  0  0
   11.3626  -26.2288   -2.5160 C   0  0  0  0  0  0  0  0  0  0  0  0
   12.3524  -27.0831   -1.7757 C   0  0  0  0  0  0  0  0  0  0  0  0
   13.7802  -26.7772   -2.0564 C   0  0  2  0  0  0  0  0  0  0  0  0
   14.2456  -27.7335   -3.0617 N   0  0  0  0  0  0  0  0  0  0  0  0
   14.6620  -26.9678   -0.8647 C   0  0  0  0  0  0  0  0  0  0  0  0
   14.7970  -28.1316   -0.4174 O   0  0  0  0  0  0  0  0  0  0  0  0
   15.3404  -25.9010   -0.2315 N   0  0  0  0  0  0  0  0  0  0  0  0
   16.2560  -26.0757    0.8427 C   0  0  1  0  0  0  0  0  0  0  0  0
   17.7051  -26.0131    0.4418 C   0  0  0  0  0  0  0  0  0  0  0  0
   18.0847  -27.0857   -0.5042 C   0  0  0  0  0  0  0  0  0  0  0  0
   18.3733  -28.3312    0.0093 C   0  0  0  0  0  0  0  0  0  0  0  0
   18.7389  -29.3909   -0.8253 C   0  0  0  0  0  0  0  0  0  0  0  0
   18.8141  -29.2000   -2.1700 C   0  0  0  0  0  0  0  0  0  0  0  0
   18.5334  -27.9755   -2.7067 C   0  0  0  0  0  0  0  0  0  0  0  0
   18.1728  -26.9346   -1.8706 C   0  0  0  0  0  0  0  0  0  0  0  0
   16.0584  -25.0979    1.9558 C   0  0  0  0  0  0  0  0  0  0  0  0
   16.3840  -23.9217    1.7447 O   0  0  0  0  0  0  0  0  0  0  0  0
   15.5223  -25.4668    3.2164 N   0  0  0  0  0  0  0  0  0  0  0  0
   15.4082  -24.4882    4.2723 C   0  0  0  0  0  0  0  0  0  0  0  0
   14.1097  -23.7989    4.1436 C   0  0  0  0  0  0  0  0  0  0  0  0
   13.4076  -24.0064    3.1366 O   0  0  0  0  0  0  0  0  0  0  0  0
   13.6883  -22.9370    5.1335 O   0  0  0  0  0  0  0  0  0  0  0  0
  1  2  1  0
  2  3  2  0
  4  2  1  0
  5  6  1  0
  5  4  1  0
  6  8  1  0
  6  7  1  6
  8  9  2  0
  8 10  1  0
 10 11  1  0
 11 12  1  6
 12 13  1  0
 13 18  2  0
 14 15  2  0
 14 13  1  0
 15 16  1  0
 16 17  2  0
 18 17  1  0
 19 11  1  0
 19 20  2  0
 21 19  1  0
 22 21  1  0
 22 23  1  0
 23 24  2  0
 23 25  1  0
M  END
$$$$
