QFG.pdb
     RDKit          3D

 25 25  0  0  1  0  0  0  0  0999 V2000
   28.6931  -20.5656  -18.9002 N   0  0  0  0  0  0  0  0  0  0  0  0
   27.5432  -20.0043  -18.2974 C   0  0  0  0  0  0  0  0  0  0  0  0
   27.6490  -18.8843  -17.7682 O   0  0  0  0  0  0  0  0  0  0  0  0
   26.2750  -20.7348  -18.3055 C   0  0  0  0  0  0  0  0  0  0  0  0
   25.6972  -21.0051  -16.9450 C   0  0  0  0  0  0  0  0  0  0  0  0
   26.6061  -21.7143  -16.0060 C   0  0  2  0  0  0  0  0  0  0  0  0
   26.7083  -23.1028  -16.4570 N   0  0  0  0  0  0  0  0  0  0  0  0
   26.0734  -21.7709  -14.6106 C   0  0  0  0  0  0  0  0  0  0  0  0
   25.0516  -22.4677  -14.4026 O   0  0  0  0  0  0  0  0  0  0  0  0
   26.6691  -21.0786  -13.5313 N   0  0  0  0  0  0  0  0  0  0  0  0
   26.1181  -21.0369  -12.2208 C   0  0  1  0  0  0  0  0  0  0  0  0
   27.0902  -20.6211  -11.1499 C   0  0  0  0  0  0  0  0  0  0  0  0
   26.4552  -20.4883   -9.8200 C   0  0  0  0  0  0  0  0  0  0  0  0
   26.5146  -19.2633   -9.1922 C   0  0  0  0  0  0  0  0  0  0  0  0
   25.9366  -19.0657   -7.9353 C   0  0  0  0  0  0  0  0  0  0  0  0
   25.3016  -20.0945   -7.3117 C   0  0  0  0  0  0  0  0  0  0  0  0
   25.2274  -21.3200   -7.9107 C   0  0  0  0  0  0  0  0  0  0  0  0
   25.8032  -21.5032   -9.1547 C   0  0  0  0  0  0  0  0  0  0  0  0
   24.9224  -20.1472  -12.1078 C   0  0  0  0  0  0  0  0  0  0  0  0
   25.1176  -18.9246  -12.1402 O   0  0  0  0  0  0  0  0  0  0  0  0
   23.6025  -20.6482  -11.9679 N   0  0  0  0  0  0  0  0  0  0  0  0
   22.4816  -19.7391  -11.9172 C   0  0  0  0  0  0  0  0  0  0  0  0
   21.2448  -20.5195  -11.7197 C   0  0  0  0  0  0  0  0  0  0  0  0
   21.2872  -21.7605  -11.8097 O   0  0  0  0  0  0  0  0  0  0  0  0
   20.0610  -19.8715  -11.4387 O   0  0  0  0  0  0  0  0  0  0  0  0
  1  2  1  0
  2  3  2  0
  4  2  1  0
  5  6  1  0
  5  4  1  0
  6  8  1  0
  6  7  1  6
  8  9  2  0
  8 10  1  0
 10 11  1  0
 11 12  1  1
 12 13  1  0
 13 18  2  0
 14 15  2  0
 14 13  1  0
 15 16  1  0
 16 17  2  0
 18 17  1  0
 19 11  1  0
 19 20  2  0
 21 19  1  0
 22 21  1  0
 22 23  1  0
 23 24  2  0
 23 25  1  0
M  END
$$$$
