QFG.pdb
     RDKit          3D

 25 25  0  0  1  0  0  0  0  0999 V2000
   25.2507  -21.3724  -16.2029 N   0  0  0  0  0  0  0  0  0  0  0  0
   24.3358  -21.3041  -15.1264 C   0  0  0  0  0  0  0  0  0  0  0  0
   23.5722  -22.2685  -14.9468 O   0  0  0  0  0  0  0  0  0  0  0  0
   24.3028  -20.1247  -14.2601 C   0  0  0  0  0  0  0  0  0  0  0  0
   24.5412  -20.4081  -12.8039 C   0  0  0  0  0  0  0  0  0  0  0  0
   25.9626  -20.6383  -12.4332 C   0  0  2  0  0  0  0  0  0  0  0  0
   26.4058  -21.8518  -13.1209 N   0  0  0  0  0  0  0  0  0  0  0  0
   26.1491  -20.8989  -10.9733 C   0  0  0  0  0  0  0  0  0  0  0  0
   25.8007  -22.0192  -10.5301 O   0  0  0  0  0  0  0  0  0  0  0  0
   26.6956  -19.9440  -10.0853 N   0  0  0  0  0  0  0  0  0  0  0  0
   26.8349  -20.1573   -8.6860 C   0  0  1  0  0  0  0  0  0  0  0  0
   27.7975  -19.2211   -8.0065 C   0  0  0  0  0  0  0  0  0  0  0  0
   27.9829  -19.5322   -6.5718 C   0  0  0  0  0  0  0  0  0  0  0  0
   27.3915  -18.7006   -5.6461 C   0  0  0  0  0  0  0  0  0  0  0  0
   27.5246  -18.9340   -4.2746 C   0  0  0  0  0  0  0  0  0  0  0  0
   28.2488  -19.9982   -3.8352 C   0  0  0  0  0  0  0  0  0  0  0  0
   28.8462  -20.8394   -4.7306 C   0  0  0  0  0  0  0  0  0  0  0  0
   28.7073  -20.5981   -6.0852 C   0  0  0  0  0  0  0  0  0  0  0  0
   25.5403  -20.0828   -7.9426 C   0  0  0  0  0  0  0  0  0  0  0  0
   24.8185  -19.0988   -8.1539 O   0  0  0  0  0  0  0  0  0  0  0  0
   25.1231  -21.0807   -7.0245 N   0  0  0  0  0  0  0  0  0  0  0  0
   23.8975  -20.9155   -6.2789 C   0  0  0  0  0  0  0  0  0  0  0  0
   22.7892  -21.5159   -7.0463 C   0  0  0  0  0  0  0  0  0  0  0  0
   22.3138  -22.6060   -6.6775 O   0  0  0  0  0  0  0  0  0  0  0  0
   22.2931  -20.8686   -8.1576 O   0  0  0  0  0  0  0  0  0  0  0  0
  1  2  1  0
  2  3  2  0
  4  2  1  0
  5  6  1  0
  5  4  1  0
  6  8  1  0
  6  7  1  6
  8  9  2  0
  8 10  1  0
 10 11  1  0
 11 12  1  1
 12 13  1  0
 13 18  2  0
 14 15  2  0
 14 13  1  0
 15 16  1  0
 16 17  2  0
 18 17  1  0
 19 11  1  0
 19 20  2  0
 21 19  1  0
 22 21  1  0
 22 23  1  0
 23 24  2  0
 23 25  1  0
M  END
$$$$
