QFG.pdb
     RDKit          3D

 25 25  0  0  1  0  0  0  0  0999 V2000
   25.7978  -19.3087  -16.1878 N   0  0  0  0  0  0  0  0  0  0  0  0
   26.6172  -20.2176  -16.8971 C   0  0  0  0  0  0  0  0  0  0  0  0
   27.0934  -19.8483  -17.9845 O   0  0  0  0  0  0  0  0  0  0  0  0
   26.8852  -21.5493  -16.3522 C   0  0  0  0  0  0  0  0  0  0  0  0
   26.3360  -21.7861  -14.9738 C   0  0  0  0  0  0  0  0  0  0  0  0
   27.0922  -21.1293  -13.8748 C   0  0  2  0  0  0  0  0  0  0  0  0
   28.3956  -21.7884  -13.7825 N   0  0  0  0  0  0  0  0  0  0  0  0
   26.4457  -21.3024  -12.5383 C   0  0  0  0  0  0  0  0  0  0  0  0
   26.1690  -22.4686  -12.1692 O   0  0  0  0  0  0  0  0  0  0  0  0
   26.1386  -20.2167  -11.6862 N   0  0  0  0  0  0  0  0  0  0  0  0
   25.3822  -20.3437  -10.4885 C   0  0  1  0  0  0  0  0  0  0  0  0
   25.7713  -19.3787   -9.4014 C   0  0  0  0  0  0  0  0  0  0  0  0
   26.9356  -19.8415   -8.6141 C   0  0  0  0  0  0  0  0  0  0  0  0
   27.9402  -20.5133   -9.2756 C   0  0  0  0  0  0  0  0  0  0  0  0
   29.0689  -20.9789   -8.5955 C   0  0  0  0  0  0  0  0  0  0  0  0
   29.1877  -20.7703   -7.2566 C   0  0  0  0  0  0  0  0  0  0  0  0
   28.2069  -20.1071   -6.5751 C   0  0  0  0  0  0  0  0  0  0  0  0
   27.0947  -19.6512   -7.2591 C   0  0  0  0  0  0  0  0  0  0  0  0
   23.9088  -20.2072  -10.6998 C   0  0  0  0  0  0  0  0  0  0  0  0
   23.5277  -19.3666  -11.5257 O   0  0  0  0  0  0  0  0  0  0  0  0
   22.9564  -20.9921  -10.0001 N   0  0  0  0  0  0  0  0  0  0  0  0
   21.5449  -20.8133  -10.2473 C   0  0  0  0  0  0  0  0  0  0  0  0
   21.2661  -21.1274  -11.6620 C   0  0  0  0  0  0  0  0  0  0  0  0
   21.5610  -20.2951  -12.5398 O   0  0  0  0  0  0  0  0  0  0  0  0
   20.6856  -22.3319  -11.9969 O   0  0  0  0  0  0  0  0  0  0  0  0
  1  2  1  0
  2  3  2  0
  4  2  1  0
  5  6  1  0
  5  4  1  0
  6  8  1  0
  6  7  1  1
  8  9  2  0
  8 10  1  0
 10 11  1  0
 11 12  1  1
 12 13  1  0
 13 18  2  0
 14 15  2  0
 14 13  1  0
 15 16  1  0
 16 17  2  0
 18 17  1  0
 19 11  1  0
 19 20  2  0
 21 19  1  0
 22 21  1  0
 22 23  1  0
 23 24  2  0
 23 25  1  0
M  END
$$$$
