QFG.pdb
     RDKit          3D

 25 25  0  0  1  0  0  0  0  0999 V2000
   27.0277  -16.8192  -14.4697 N   0  0  0  0  0  0  0  0  0  0  0  0
   27.8855  -17.2964  -15.4881 C   0  0  0  0  0  0  0  0  0  0  0  0
   28.6803  -16.4929  -16.0062 O   0  0  0  0  0  0  0  0  0  0  0  0
   27.8249  -18.6974  -15.9073 C   0  0  0  0  0  0  0  0  0  0  0  0
   26.9266  -19.5648  -15.0714 C   0  0  0  0  0  0  0  0  0  0  0  0
   27.5335  -20.0658  -13.8098 C   0  0  2  0  0  0  0  0  0  0  0  0
   28.5482  -21.0560  -14.1726 N   0  0  0  0  0  0  0  0  0  0  0  0
   26.5536  -20.7792  -12.9353 C   0  0  0  0  0  0  0  0  0  0  0  0
   26.1533  -21.9085  -13.3056 O   0  0  0  0  0  0  0  0  0  0  0  0
   26.0675  -20.2370  -11.7233 N   0  0  0  0  0  0  0  0  0  0  0  0
   25.0370  -20.8371  -10.9482 C   0  0  1  0  0  0  0  0  0  0  0  0
   25.1459  -20.5875   -9.4681 C   0  0  0  0  0  0  0  0  0  0  0  0
   26.5480  -20.4907   -9.0050 C   0  0  0  0  0  0  0  0  0  0  0  0
   27.4468  -21.4320   -9.4569 C   0  0  0  0  0  0  0  0  0  0  0  0
   28.7867  -21.4017   -9.0609 C   0  0  0  0  0  0  0  0  0  0  0  0
   29.2216  -20.4298   -8.2144 C   0  0  0  0  0  0  0  0  0  0  0  0
   28.3524  -19.4835   -7.7505 C   0  0  0  0  0  0  0  0  0  0  0  0
   27.0289  -19.5240   -8.1496 C   0  0  0  0  0  0  0  0  0  0  0  0
   23.6626  -20.4278  -11.3696 C   0  0  0  0  0  0  0  0  0  0  0  0
   23.5711  -19.6081  -12.2936 O   0  0  0  0  0  0  0  0  0  0  0  0
   22.4880  -20.9371  -10.7585 N   0  0  0  0  0  0  0  0  0  0  0  0
   21.7721  -22.0360  -11.3630 C   0  0  0  0  0  0  0  0  0  0  0  0
   20.7850  -21.4935  -12.3165 C   0  0  0  0  0  0  0  0  0  0  0  0
   19.7658  -20.9265  -11.8807 O   0  0  0  0  0  0  0  0  0  0  0  0
   20.9990  -21.6183  -13.6725 O   0  0  0  0  0  0  0  0  0  0  0  0
  1  2  1  0
  2  3  2  0
  4  2  1  0
  5  6  1  0
  5  4  1  0
  6  8  1  0
  6  7  1  6
  8  9  2  0
  8 10  1  0
 10 11  1  0
 11 12  1  1
 12 13  1  0
 13 18  2  0
 14 15  2  0
 14 13  1  0
 15 16  1  0
 16 17  2  0
 18 17  1  0
 19 11  1  0
 19 20  2  0
 21 19  1  0
 22 21  1  0
 22 23  1  0
 23 24  2  0
 23 25  1  0
M  END
$$$$
