QFG.pdb
     RDKit          3D

 25 25  0  0  1  0  0  0  0  0999 V2000
   27.1441  -18.8437  -17.3036 N   0  0  0  0  0  0  0  0  0  0  0  0
   28.0930  -17.9892  -16.6954 C   0  0  0  0  0  0  0  0  0  0  0  0
   28.8063  -17.2887  -17.4344 O   0  0  0  0  0  0  0  0  0  0  0  0
   28.2181  -17.9445  -15.2378 C   0  0  0  0  0  0  0  0  0  0  0  0
   27.1922  -18.7524  -14.4943 C   0  0  0  0  0  0  0  0  0  0  0  0
   27.7433  -19.6757  -13.4673 C   0  0  2  0  0  0  0  0  0  0  0  0
   28.5302  -20.6923  -14.1665 N   0  0  0  0  0  0  0  0  0  0  0  0
   26.6816  -20.4162  -12.7199 C   0  0  0  0  0  0  0  0  0  0  0  0
   26.2130  -21.4543  -13.2447 O   0  0  0  0  0  0  0  0  0  0  0  0
   26.1923  -19.9967  -11.4614 N   0  0  0  0  0  0  0  0  0  0  0  0
   25.1952  -20.6984  -10.7292 C   0  0  1  0  0  0  0  0  0  0  0  0
   25.2662  -20.5053   -9.2385 C   0  0  0  0  0  0  0  0  0  0  0  0
   26.6531  -20.5293   -8.7230 C   0  0  0  0  0  0  0  0  0  0  0  0
   26.9527  -19.7450   -7.6307 C   0  0  0  0  0  0  0  0  0  0  0  0
   28.2415  -19.7184   -7.0908 C   0  0  0  0  0  0  0  0  0  0  0  0
   29.2249  -20.4765   -7.6461 C   0  0  0  0  0  0  0  0  0  0  0  0
   28.9563  -21.2636   -8.7299 C   0  0  0  0  0  0  0  0  0  0  0  0
   27.6771  -21.2815   -9.2551 C   0  0  0  0  0  0  0  0  0  0  0  0
   23.8017  -20.3666  -11.1562 C   0  0  0  0  0  0  0  0  0  0  0  0
   23.4465  -19.1833  -11.0696 O   0  0  0  0  0  0  0  0  0  0  0  0
   22.8954  -21.3421  -11.6456 N   0  0  0  0  0  0  0  0  0  0  0  0
   21.5891  -20.9479  -12.1186 C   0  0  0  0  0  0  0  0  0  0  0  0
   20.8352  -22.1586  -12.4977 C   0  0  0  0  0  0  0  0  0  0  0  0
   21.2536  -22.8690  -13.4306 O   0  0  0  0  0  0  0  0  0  0  0  0
   19.6818  -22.4903  -11.8195 O   0  0  0  0  0  0  0  0  0  0  0  0
  1  2  1  0
  2  3  2  0
  4  2  1  0
  5  6  1  0
  5  4  1  0
  6  8  1  0
  6  7  1  6
  8  9  2  0
  8 10  1  0
 10 11  1  0
 11 12  1  1
 12 13  1  0
 13 18  2  0
 14 15  2  0
 14 13  1  0
 15 16  1  0
 16 17  2  0
 18 17  1  0
 19 11  1  0
 19 20  2  0
 21 19  1  0
 22 21  1  0
 22 23  1  0
 23 24  2  0
 23 25  1  0
M  END
$$$$
