QFG.pdb
     RDKit          3D

 25 25  0  0  1  0  0  0  0  0999 V2000
   29.2188  -17.2380  -17.2817 N   0  0  0  0  0  0  0  0  0  0  0  0
   27.9371  -17.1756  -16.6865 C   0  0  0  0  0  0  0  0  0  0  0  0
   26.9439  -17.2908  -17.4254 O   0  0  0  0  0  0  0  0  0  0  0  0
   27.8032  -16.9802  -15.2422 C   0  0  0  0  0  0  0  0  0  0  0  0
   27.0152  -18.0462  -14.5346 C   0  0  0  0  0  0  0  0  0  0  0  0
   27.8032  -19.2347  -14.1134 C   0  0  2  0  0  0  0  0  0  0  0  0
   28.2460  -19.9217  -15.3274 N   0  0  0  0  0  0  0  0  0  0  0  0
   26.9923  -20.2297  -13.3476 C   0  0  0  0  0  0  0  0  0  0  0  0
   26.4171  -21.1371  -13.9944 O   0  0  0  0  0  0  0  0  0  0  0  0
   26.8511  -20.1875  -11.9414 N   0  0  0  0  0  0  0  0  0  0  0  0
   26.0570  -21.1059  -11.2007 C   0  0  1  0  0  0  0  0  0  0  0  0
   26.7867  -21.7979  -10.0812 C   0  0  0  0  0  0  0  0  0  0  0  0
   27.0427  -20.9075   -8.9274 C   0  0  0  0  0  0  0  0  0  0  0  0
   28.1787  -21.1257   -8.1791 C   0  0  0  0  0  0  0  0  0  0  0  0
   28.4836  -20.3236   -7.0760 C   0  0  0  0  0  0  0  0  0  0  0  0
   27.6506  -19.3067   -6.7264 C   0  0  0  0  0  0  0  0  0  0  0  0
   26.5171  -19.0673   -7.4504 C   0  0  0  0  0  0  0  0  0  0  0  0
   26.2262  -19.8679   -8.5399 C   0  0  0  0  0  0  0  0  0  0  0  0
   24.8261  -20.4902  -10.6174 C   0  0  0  0  0  0  0  0  0  0  0  0
   24.8495  -20.2031   -9.4129 O   0  0  0  0  0  0  0  0  0  0  0  0
   23.6601  -20.2309  -11.3828 N   0  0  0  0  0  0  0  0  0  0  0  0
   22.9950  -21.3060  -12.0808 C   0  0  0  0  0  0  0  0  0  0  0  0
   21.8069  -20.7637  -12.7680 C   0  0  0  0  0  0  0  0  0  0  0  0
   21.0961  -21.5267  -13.4484 O   0  0  0  0  0  0  0  0  0  0  0  0
   21.4965  -19.4258  -12.6511 O   0  0  0  0  0  0  0  0  0  0  0  0
  1  2  1  0
  2  3  2  0
  4  2  1  0
  5  6  1  0
  5  4  1  0
  6  8  1  0
  6  7  1  6
  8  9  2  0
  8 10  1  0
 10 11  1  0
 11 12  1  1
 12 13  1  0
 13 18  2  0
 14 15  2  0
 14 13  1  0
 15 16  1  0
 16 17  2  0
 18 17  1  0
 19 11  1  0
 19 20  2  0
 21 19  1  0
 22 21  1  0
 22 23  1  0
 23 24  2  0
 23 25  1  0
M  END
$$$$
