QFG.pdb
     RDKit          3D

 25 25  0  0  1  0  0  0  0  0999 V2000
   25.1338  -19.7686  -16.0107 N   0  0  0  0  0  0  0  0  0  0  0  0
   24.1652  -20.1099  -15.0381 C   0  0  0  0  0  0  0  0  0  0  0  0
   23.2822  -20.9259  -15.3546 O   0  0  0  0  0  0  0  0  0  0  0  0
   24.2161  -19.5100  -13.7040 C   0  0  0  0  0  0  0  0  0  0  0  0
   24.4872  -20.4801  -12.5890 C   0  0  0  0  0  0  0  0  0  0  0  0
   25.9260  -20.7131  -12.2949 C   0  0  2  0  0  0  0  0  0  0  0  0
   26.3360  -21.9124  -13.0267 N   0  0  0  0  0  0  0  0  0  0  0  0
   26.1864  -21.0003  -10.8514 C   0  0  0  0  0  0  0  0  0  0  0  0
   25.9379  -22.1553  -10.4308 O   0  0  0  0  0  0  0  0  0  0  0  0
   26.6951  -20.0328   -9.9545 N   0  0  0  0  0  0  0  0  0  0  0  0
   26.9662  -20.2943   -8.5830 C   0  0  1  0  0  0  0  0  0  0  0  0
   28.0988  -19.4876   -8.0076 C   0  0  0  0  0  0  0  0  0  0  0  0
   28.2941  -19.7255   -6.5602 C   0  0  0  0  0  0  0  0  0  0  0  0
   27.7560  -18.8171   -5.6751 C   0  0  0  0  0  0  0  0  0  0  0  0
   27.9015  -18.9787   -4.2947 C   0  0  0  0  0  0  0  0  0  0  0  0
   28.5847  -20.0484   -3.8056 C   0  0  0  0  0  0  0  0  0  0  0  0
   29.1289  -20.9649   -4.6599 C   0  0  0  0  0  0  0  0  0  0  0  0
   28.9782  -20.7942   -6.0240 C   0  0  0  0  0  0  0  0  0  0  0  0
   25.7803  -20.0949   -7.6952 C   0  0  0  0  0  0  0  0  0  0  0  0
   24.9131  -19.2963   -8.0748 O   0  0  0  0  0  0  0  0  0  0  0  0
   25.6216  -20.7758   -6.4608 N   0  0  0  0  0  0  0  0  0  0  0  0
   24.9054  -22.0287   -6.4088 C   0  0  0  0  0  0  0  0  0  0  0  0
   23.4796  -21.7737   -6.6917 C   0  0  0  0  0  0  0  0  0  0  0  0
   22.6139  -22.4752   -6.1361 O   0  0  0  0  0  0  0  0  0  0  0  0
   23.1213  -20.7674   -7.5629 O   0  0  0  0  0  0  0  0  0  0  0  0
  1  2  1  0
  2  3  2  0
  4  2  1  0
  5  6  1  0
  5  4  1  0
  6  8  1  0
  6  7  1  6
  8  9  2  0
  8 10  1  0
 10 11  1  0
 11 12  1  1
 12 13  1  0
 13 18  2  0
 14 15  2  0
 14 13  1  0
 15 16  1  0
 16 17  2  0
 18 17  1  0
 19 11  1  0
 19 20  2  0
 21 19  1  0
 22 21  1  0
 22 23  1  0
 23 24  2  0
 23 25  1  0
M  END
$$$$
