QFG.pdb
     RDKit          3D

 25 25  0  0  1  0  0  0  0  0999 V2000
   18.4821  -22.4370  -13.5832 N   0  0  0  0  0  0  0  0  0  0  0  0
   18.6940  -21.0687  -13.2943 C   0  0  0  0  0  0  0  0  0  0  0  0
   17.9516  -20.5267  -12.4573 O   0  0  0  0  0  0  0  0  0  0  0  0
   19.7602  -20.3285  -13.9708 C   0  0  0  0  0  0  0  0  0  0  0  0
   20.7780  -19.7132  -13.0523 C   0  0  0  0  0  0  0  0  0  0  0  0
   21.6915  -20.6805  -12.3886 C   0  0  2  0  0  0  0  0  0  0  0  0
   21.4403  -20.6062  -10.9488 N   0  0  0  0  0  0  0  0  0  0  0  0
   23.1350  -20.3403  -12.5746 C   0  0  0  0  0  0  0  0  0  0  0  0
   23.4196  -19.1703  -12.9250 O   0  0  0  0  0  0  0  0  0  0  0  0
   24.1773  -21.2743  -12.3735 N   0  0  0  0  0  0  0  0  0  0  0  0
   25.5579  -20.9515  -12.4854 C   0  0  1  0  0  0  0  0  0  0  0  0
   26.4098  -21.4605  -11.3540 C   0  0  0  0  0  0  0  0  0  0  0  0
   26.0872  -20.8188  -10.0603 C   0  0  0  0  0  0  0  0  0  0  0  0
   25.2107  -21.4652   -9.2164 C   0  0  0  0  0  0  0  0  0  0  0  0
   24.8610  -20.9176   -7.9791 C   0  0  0  0  0  0  0  0  0  0  0  0
   25.3896  -19.7257   -7.5914 C   0  0  0  0  0  0  0  0  0  0  0  0
   26.2612  -19.0627   -8.4081 C   0  0  0  0  0  0  0  0  0  0  0  0
   26.5997  -19.6147   -9.6301 C   0  0  0  0  0  0  0  0  0  0  0  0
   26.1774  -21.4279  -13.7595 C   0  0  0  0  0  0  0  0  0  0  0  0
   26.3712  -22.6454  -13.8777 O   0  0  0  0  0  0  0  0  0  0  0  0
   26.5414  -20.5493  -14.8123 N   0  0  0  0  0  0  0  0  0  0  0  0
   27.2401  -21.0537  -15.9710 C   0  0  0  0  0  0  0  0  0  0  0  0
   27.4717  -19.9387  -16.9096 C   0  0  0  0  0  0  0  0  0  0  0  0
   27.7931  -18.8225  -16.4612 O   0  0  0  0  0  0  0  0  0  0  0  0
   27.3312  -20.1416  -18.2658 O   0  0  0  0  0  0  0  0  0  0  0  0
  1  2  1  0
  2  3  2  0
  4  2  1  0
  5  6  1  0
  5  4  1  0
  6  8  1  0
  6  7  1  1
  8  9  2  0
  8 10  1  0
 10 11  1  0
 11 12  1  1
 12 13  1  0
 13 18  2  0
 14 15  2  0
 14 13  1  0
 15 16  1  0
 16 17  2  0
 18 17  1  0
 19 11  1  0
 19 20  2  0
 21 19  1  0
 22 21  1  0
 22 23  1  0
 23 24  2  0
 23 25  1  0
M  END
$$$$
