QFG.pdb
     RDKit          3D

 25 25  0  0  1  0  0  0  0  0999 V2000
   26.6616  -19.5956  -17.4700 N   0  0  0  0  0  0  0  0  0  0  0  0
   26.1939  -20.4890  -18.4619 C   0  0  0  0  0  0  0  0  0  0  0  0
   26.7076  -20.4275  -19.5923 O   0  0  0  0  0  0  0  0  0  0  0  0
   25.1353  -21.4502  -18.1489 C   0  0  0  0  0  0  0  0  0  0  0  0
   24.8172  -21.5800  -16.6861 C   0  0  0  0  0  0  0  0  0  0  0  0
   25.8710  -22.2389  -15.8700 C   0  0  2  0  0  0  0  0  0  0  0  0
   25.8508  -23.6658  -16.1945 N   0  0  0  0  0  0  0  0  0  0  0  0
   25.6135  -22.1453  -14.4006 C   0  0  0  0  0  0  0  0  0  0  0  0
   24.7643  -22.9237  -13.9050 O   0  0  0  0  0  0  0  0  0  0  0  0
   26.2816  -21.2254  -13.5600 N   0  0  0  0  0  0  0  0  0  0  0  0
   26.0137  -21.0892  -12.1698 C   0  0  1  0  0  0  0  0  0  0  0  0
   27.0949  -20.3872  -11.3935 C   0  0  0  0  0  0  0  0  0  0  0  0
   26.7758  -20.2591   -9.9542 C   0  0  0  0  0  0  0  0  0  0  0  0
   27.1283  -21.2950   -9.1170 C   0  0  0  0  0  0  0  0  0  0  0  0
   26.8579  -21.2419   -7.7470 C   0  0  0  0  0  0  0  0  0  0  0  0
   26.2361  -20.1528   -7.2203 C   0  0  0  0  0  0  0  0  0  0  0  0
   25.8752  -19.1109   -8.0269 C   0  0  0  0  0  0  0  0  0  0  0  0
   26.1481  -19.1751   -9.3811 C   0  0  0  0  0  0  0  0  0  0  0  0
   24.7273  -20.3855  -11.8795 C   0  0  0  0  0  0  0  0  0  0  0  0
   24.5081  -19.3276  -12.4852 O   0  0  0  0  0  0  0  0  0  0  0  0
   23.7729  -20.8801  -10.9538 N   0  0  0  0  0  0  0  0  0  0  0  0
   22.5578  -20.1426  -10.6988 C   0  0  0  0  0  0  0  0  0  0  0  0
   21.5943  -20.4247  -11.7805 C   0  0  0  0  0  0  0  0  0  0  0  0
   20.5548  -19.7444  -11.8624 O   0  0  0  0  0  0  0  0  0  0  0  0
   21.8524  -21.4324  -12.6850 O   0  0  0  0  0  0  0  0  0  0  0  0
  1  2  1  0
  2  3  2  0
  4  2  1  0
  5  6  1  0
  5  4  1  0
  6  8  1  0
  6  7  1  6
  8  9  2  0
  8 10  1  0
 10 11  1  0
 11 12  1  1
 12 13  1  0
 13 18  2  0
 14 15  2  0
 14 13  1  0
 15 16  1  0
 16 17  2  0
 18 17  1  0
 19 11  1  0
 19 20  2  0
 21 19  1  0
 22 21  1  0
 22 23  1  0
 23 24  2  0
 23 25  1  0
M  END
$$$$
