IQQ.pdb
     RDKit          3D

 27 26  0  0  1  0  0  0  0  0999 V2000
   26.2358  -23.5503  -15.8467 C   0  0  0  0  0  0  0  0  0  0  0  0
   24.9273  -22.8084  -16.0173 C   0  0  0  0  0  0  0  0  0  0  0  0
   24.3510  -22.4417  -14.6717 C   0  0  2  0  0  0  0  0  0  0  0  0
   24.3046  -23.6653  -13.8214 C   0  0  0  0  0  0  0  0  0  0  0  0
   23.0617  -21.6991  -14.7539 C   0  0  2  0  0  0  0  0  0  0  0  0
   23.1871  -20.6342  -15.7326 N   0  0  0  0  0  0  0  0  0  0  0  0
   22.4712  -21.2653  -13.4962 C   0  0  0  0  0  0  0  0  0  0  0  0
   22.8237  -20.1445  -13.0232 O   0  0  0  0  0  0  0  0  0  0  0  0
   17.5219  -19.1570  -12.3641 N   0  0  0  0  0  0  0  0  0  0  0  0
   18.7030  -18.4106  -12.5864 C   0  0  0  0  0  0  0  0  0  0  0  0
   18.7302  -17.2036  -12.3115 O   0  0  0  0  0  0  0  0  0  0  0  0
   19.8677  -19.1725  -13.1582 C   0  0  0  0  0  0  0  0  0  0  0  0
   19.5418  -20.6242  -13.2999 C   0  0  0  0  0  0  0  0  0  0  0  0
   20.2181  -21.4605  -12.3469 C   0  0  2  0  0  0  0  0  0  0  0  0
   21.5304  -21.9526  -12.7123 N   0  0  0  0  0  0  0  0  0  0  0  0
   19.4157  -22.7224  -12.1107 C   0  0  0  0  0  0  0  0  0  0  0  0
   19.2351  -23.5937  -12.9882 O   0  0  0  0  0  0  0  0  0  0  0  0
   17.0209  -23.7411   -6.5833 N   0  0  0  0  0  0  0  0  0  0  0  0
   18.3983  -23.9962   -6.7825 C   0  0  0  0  0  0  0  0  0  0  0  0
   19.1828  -24.0030   -5.8195 O   0  0  0  0  0  0  0  0  0  0  0  0
   18.8547  -24.2538   -8.1931 C   0  0  0  0  0  0  0  0  0  0  0  0
   17.6630  -24.2299   -9.0953 C   0  0  0  0  0  0  0  0  0  0  0  0
   18.0606  -24.1986  -10.5454 C   0  0  2  0  0  0  0  0  0  0  0  0
   18.8117  -22.9897  -10.8516 N   0  0  0  0  0  0  0  0  0  0  0  0
   16.9076  -24.2748  -11.4318 C   0  0  0  0  0  0  0  0  0  0  0  0
   16.4438  -23.2100  -11.9439 O   0  0  0  0  0  0  0  0  0  0  0  0
   16.2755  -25.4413  -11.7615 O   0  0  0  0  0  0  0  0  0  0  0  0
  1  2  1  0
  3  2  1  0
  3  4  1  1
  5  3  1  0
  5  6  1  6
  7  8  2  0
  7  5  1  0
  9 10  1  0
 10 11  2  0
 10 12  1  0
 12 13  1  0
 14 13  1  6
 14 15  1  0
 15  7  1  0
 16 14  1  0
 16 24  1  0
 17 16  2  0
 19 21  1  0
 19 18  1  0
 20 19  2  0
 23 22  1  1
 22 21  1  0
 23 24  1  0
 23 25  1  0
 25 27  1  0
 26 25  2  0
M  END
$$$$
