IQQ.pdb
     RDKit          3D

 27 26  0  0  1  0  0  0  0  0999 V2000
   23.7665  -11.7277  -22.6239 C   0  0  0  0  0  0  0  0  0  0  0  0
   23.8541  -11.9405  -21.1276 C   0  0  0  0  0  0  0  0  0  0  0  0
   23.0115  -10.9210  -20.4010 C   0  0  2  0  0  0  0  0  0  0  0  0
   23.4162   -9.5582  -20.8496 C   0  0  0  0  0  0  0  0  0  0  0  0
   22.9932  -11.1029  -18.9221 C   0  0  2  0  0  0  0  0  0  0  0  0
   23.2493  -12.4975  -18.6106 N   0  0  0  0  0  0  0  0  0  0  0  0
   21.8548  -10.5473  -18.2052 C   0  0  0  0  0  0  0  0  0  0  0  0
   21.5931   -9.3174  -18.3563 O   0  0  0  0  0  0  0  0  0  0  0  0
   17.2221  -13.2405  -14.8443 N   0  0  0  0  0  0  0  0  0  0  0  0
   16.8068  -11.8891  -14.7910 C   0  0  0  0  0  0  0  0  0  0  0  0
   15.7220  -11.5978  -14.2699 O   0  0  0  0  0  0  0  0  0  0  0  0
   17.7509  -10.8841  -15.3931 C   0  0  0  0  0  0  0  0  0  0  0  0
   18.8793  -11.5637  -16.0991 C   0  0  0  0  0  0  0  0  0  0  0  0
   19.7983  -10.6523  -16.7235 C   0  0  2  0  0  0  0  0  0  0  0  0
   20.9804  -11.2213  -17.3372 N   0  0  0  0  0  0  0  0  0  0  0  0
   20.3563   -9.6972  -15.6898 C   0  0  0  0  0  0  0  0  0  0  0  0
   21.5205   -9.7757  -15.2424 O   0  0  0  0  0  0  0  0  0  0  0  0
   23.2161   -5.6154  -16.2493 N   0  0  0  0  0  0  0  0  0  0  0  0
   22.8794   -5.0623  -14.9913 C   0  0  0  0  0  0  0  0  0  0  0  0
   23.4991   -4.0808  -14.5491 O   0  0  0  0  0  0  0  0  0  0  0  0
   21.7541   -5.7114  -14.2318 C   0  0  0  0  0  0  0  0  0  0  0  0
   21.2012   -6.8297  -15.0553 C   0  0  0  0  0  0  0  0  0  0  0  0
   20.0976   -7.5584  -14.3392 C   0  0  2  0  0  0  0  0  0  0  0  0
   19.5693   -8.6375  -15.1613 N   0  0  0  0  0  0  0  0  0  0  0  0
   19.0049   -6.6700  -13.9678 C   0  0  0  0  0  0  0  0  0  0  0  0
   17.9718   -6.6119  -14.7030 O   0  0  0  0  0  0  0  0  0  0  0  0
   19.0123   -5.8767  -12.8545 O   0  0  0  0  0  0  0  0  0  0  0  0
  1  2  1  0
  3  2  1  0
  3  4  1  1
  5  3  1  0
  5  6  1  6
  7  8  2  0
  7  5  1  0
  9 10  1  0
 10 11  2  0
 10 12  1  0
 12 13  1  0
 14 13  1  1
 14 15  1  0
 15  7  1  0
 16 14  1  0
 16 24  1  0
 17 16  2  0
 19 21  1  0
 19 18  1  0
 20 19  2  0
 23 22  1  6
 22 21  1  0
 23 24  1  0
 23 25  1  0
 25 27  1  0
 26 25  2  0
M  END
$$$$
