IQQ.pdb
     RDKit          3D

 27 26  0  0  1  0  0  0  0  0999 V2000
   12.6484  -12.1399  -15.7144 C   0  0  0  0  0  0  0  0  0  0  0  0
   14.1504  -12.3204  -15.7698 C   0  0  0  0  0  0  0  0  0  0  0  0
   14.8241  -11.4431  -14.7433 C   0  0  2  0  0  0  0  0  0  0  0  0
   14.3751  -10.0362  -14.9474 C   0  0  0  0  0  0  0  0  0  0  0  0
   16.3030  -11.6156  -14.6851 C   0  0  2  0  0  0  0  0  0  0  0  0
   16.6119  -13.0240  -14.5154 N   0  0  0  0  0  0  0  0  0  0  0  0
   17.0310  -10.7473  -13.7714 C   0  0  0  0  0  0  0  0  0  0  0  0
   16.9658  -10.9929  -12.5307 O   0  0  0  0  0  0  0  0  0  0  0  0
   21.7748   -6.7017  -14.4792 N   0  0  0  0  0  0  0  0  0  0  0  0
   21.5054   -6.5050  -13.1043 C   0  0  0  0  0  0  0  0  0  0  0  0
   22.2355   -5.7636  -12.4332 O   0  0  0  0  0  0  0  0  0  0  0  0
   20.3127   -7.2386  -12.5538 C   0  0  0  0  0  0  0  0  0  0  0  0
   19.6376   -8.0409  -13.6187 C   0  0  0  0  0  0  0  0  0  0  0  0
   18.4889   -8.7664  -13.1502 C   0  0  2  0  0  0  0  0  0  0  0  0
   17.8221   -9.6341  -14.0989 N   0  0  0  0  0  0  0  0  0  0  0  0
   17.4054   -7.7961  -12.7298 C   0  0  0  0  0  0  0  0  0  0  0  0
   16.5668   -7.3194  -13.5244 O   0  0  0  0  0  0  0  0  0  0  0  0
   14.3461   -8.0640   -7.5707 N   0  0  0  0  0  0  0  0  0  0  0  0
   13.9485   -6.7424   -7.8822 C   0  0  0  0  0  0  0  0  0  0  0  0
   13.1302   -6.1453   -7.1633 O   0  0  0  0  0  0  0  0  0  0  0  0
   14.5561   -6.1099   -9.1050 C   0  0  0  0  0  0  0  0  0  0  0  0
   15.5405   -7.0643   -9.7005 C   0  0  0  0  0  0  0  0  0  0  0  0
   16.2336   -6.4769  -10.8990 C   0  0  2  0  0  0  0  0  0  0  0  0
   17.2809   -7.3661  -11.3804 N   0  0  0  0  0  0  0  0  0  0  0  0
   16.8166   -5.1738  -10.6110 C   0  0  0  0  0  0  0  0  0  0  0  0
   16.0544   -4.1710  -10.4540 O   0  0  0  0  0  0  0  0  0  0  0  0
   18.1599   -4.9492  -10.4921 O   0  0  0  0  0  0  0  0  0  0  0  0
  1  2  1  0
  3  2  1  0
  3  4  1  6
  5  3  1  0
  5  6  1  1
  7  8  2  0
  7  5  1  0
  9 10  1  0
 10 11  2  0
 10 12  1  0
 12 13  1  0
 14 13  1  6
 14 15  1  0
 15  7  1  0
 16 14  1  0
 16 24  1  0
 17 16  2  0
 19 21  1  0
 19 18  1  0
 20 19  2  0
 23 22  1  1
 22 21  1  0
 23 24  1  0
 23 25  1  0
 25 27  1  0
 26 25  2  0
M  END
$$$$
