IQQ.pdb
     RDKit          3D

 27 26  0  0  1  0  0  0  0  0999 V2000
   27.1286  -19.8876   -7.0359 C   0  0  0  0  0  0  0  0  0  0  0  0
   27.4716  -20.8782   -8.1281 C   0  0  0  0  0  0  0  0  0  0  0  0
   26.4967  -20.7569   -9.2736 C   0  0  2  0  0  0  0  0  0  0  0  0
   25.1243  -21.0430   -8.7665 C   0  0  0  0  0  0  0  0  0  0  0  0
   26.8854  -21.5443  -10.4775 C   0  0  2  0  0  0  0  0  0  0  0  0
   28.2631  -21.2411  -10.8205 N   0  0  0  0  0  0  0  0  0  0  0  0
   25.9795  -21.4958  -11.6158 C   0  0  0  0  0  0  0  0  0  0  0  0
   26.0066  -20.4718  -12.3606 O   0  0  0  0  0  0  0  0  0  0  0  0
   23.5697  -22.8897  -17.3206 N   0  0  0  0  0  0  0  0  0  0  0  0
   23.7810  -23.8485  -16.3019 C   0  0  0  0  0  0  0  0  0  0  0  0
   24.5339  -24.8098  -16.5069 O   0  0  0  0  0  0  0  0  0  0  0  0
   23.0474  -23.6114  -15.0098 C   0  0  0  0  0  0  0  0  0  0  0  0
   23.9726  -23.7148  -13.8406 C   0  0  0  0  0  0  0  0  0  0  0  0
   24.2693  -22.4487  -13.2290 C   0  0  2  0  0  0  0  0  0  0  0  0
   25.0468  -22.4700  -12.0073 N   0  0  0  0  0  0  0  0  0  0  0  0
   22.9831  -21.7611  -12.8226 C   0  0  0  0  0  0  0  0  0  0  0  0
   22.3518  -22.0480  -11.7830 O   0  0  0  0  0  0  0  0  0  0  0  0
   20.5775  -16.7822  -15.7781 N   0  0  0  0  0  0  0  0  0  0  0  0
   19.5372  -16.9878  -14.8413 C   0  0  0  0  0  0  0  0  0  0  0  0
   18.5557  -16.2270  -14.8137 O   0  0  0  0  0  0  0  0  0  0  0  0
   19.6784  -18.1523  -13.8988 C   0  0  0  0  0  0  0  0  0  0  0  0
   20.9536  -18.8685  -14.2081 C   0  0  0  0  0  0  0  0  0  0  0  0
   21.1621  -20.0534  -13.3057 C   0  0  2  0  0  0  0  0  0  0  0  0
   22.4124  -20.7304  -13.6185 N   0  0  0  0  0  0  0  0  0  0  0  0
   20.0702  -21.0126  -13.3992 C   0  0  0  0  0  0  0  0  0  0  0  0
   19.1140  -20.9513  -12.5665 O   0  0  0  0  0  0  0  0  0  0  0  0
   19.9990  -21.9968  -14.3454 O   0  0  0  0  0  0  0  0  0  0  0  0
  1  2  1  0
  3  2  1  0
  3  4  1  1
  5  3  1  0
  5  6  1  6
  7  8  2  0
  7  5  1  0
  9 10  1  0
 10 11  2  0
 10 12  1  0
 12 13  1  0
 14 13  1  1
 14 15  1  0
 15  7  1  0
 16 14  1  0
 16 24  1  0
 17 16  2  0
 19 21  1  0
 19 18  1  0
 20 19  2  0
 23 22  1  6
 22 21  1  0
 23 24  1  0
 23 25  1  0
 25 27  1  0
 26 25  2  0
M  END
$$$$
