IQQ.pdb
     RDKit          3D

 27 26  0  0  1  0  0  0  0  0999 V2000
   17.6714  -14.6885  -17.4695 C   0  0  0  0  0  0  0  0  0  0  0  0
   18.0169  -13.8057  -16.2891 C   0  0  0  0  0  0  0  0  0  0  0  0
   17.4727  -12.4135  -16.4963 C   0  0  2  0  0  0  0  0  0  0  0  0
   17.9896  -11.8852  -17.7910 C   0  0  0  0  0  0  0  0  0  0  0  0
   17.6849  -11.5076  -15.3324 C   0  0  2  0  0  0  0  0  0  0  0  0
   17.2395  -12.1746  -14.1223 N   0  0  0  0  0  0  0  0  0  0  0  0
   17.1891  -10.1450  -15.4604 C   0  0  0  0  0  0  0  0  0  0  0  0
   17.3926   -9.5328  -16.5502 O   0  0  0  0  0  0  0  0  0  0  0  0
   12.2460   -7.3964  -13.0474 N   0  0  0  0  0  0  0  0  0  0  0  0
   12.2041   -8.2164  -14.1995 C   0  0  0  0  0  0  0  0  0  0  0  0
   11.1191   -8.6531  -14.6060 O   0  0  0  0  0  0  0  0  0  0  0  0
   13.5275   -8.4990  -14.8571 C   0  0  0  0  0  0  0  0  0  0  0  0
   14.6421   -7.8107  -14.1377 C   0  0  0  0  0  0  0  0  0  0  0  0
   15.9379   -8.0731  -14.7010 C   0  0  2  0  0  0  0  0  0  0  0  0
   16.4919   -9.3959  -14.4987 N   0  0  0  0  0  0  0  0  0  0  0  0
   16.9656   -7.1551  -14.0739 C   0  0  0  0  0  0  0  0  0  0  0  0
   17.6581   -7.4764  -13.0845 O   0  0  0  0  0  0  0  0  0  0  0  0
   21.9471   -6.7677  -14.0527 N   0  0  0  0  0  0  0  0  0  0  0  0
   21.9522   -5.4390  -13.5663 C   0  0  0  0  0  0  0  0  0  0  0  0
   23.0026   -4.9273  -13.1446 O   0  0  0  0  0  0  0  0  0  0  0  0
   20.6457   -4.6927  -13.5857 C   0  0  0  0  0  0  0  0  0  0  0  0
   19.5688   -5.6218  -14.0459 C   0  0  0  0  0  0  0  0  0  0  0  0
   18.2255   -4.9464  -14.0813 C   0  0  2  0  0  0  0  0  0  0  0  0
   17.2031   -5.8507  -14.5875 N   0  0  0  0  0  0  0  0  0  0  0  0
   18.2385   -3.7428  -14.9010 C   0  0  0  0  0  0  0  0  0  0  0  0
   17.5840   -3.7223  -15.9884 O   0  0  0  0  0  0  0  0  0  0  0  0
   18.9203   -2.6042  -14.5726 O   0  0  0  0  0  0  0  0  0  0  0  0
  1  2  1  0
  3  2  1  0
  3  4  1  6
  5  3  1  0
  5  6  1  1
  7  8  2  0
  7  5  1  0
  9 10  1  0
 10 11  2  0
 10 12  1  0
 12 13  1  0
 14 13  1  1
 14 15  1  0
 15  7  1  0
 16 14  1  0
 16 24  1  0
 17 16  2  0
 19 21  1  0
 19 18  1  0
 20 19  2  0
 23 22  1  6
 22 21  1  0
 23 24  1  0
 23 25  1  0
 25 27  1  0
 26 25  2  0
M  END
$$$$
