IQQ.pdb
     RDKit          3D

 27 26  0  0  1  0  0  0  0  0999 V2000
   12.7677  -11.8367  -15.8748 C   0  0  0  0  0  0  0  0  0  0  0  0
   14.2709  -11.7475  -16.0299 C   0  0  0  0  0  0  0  0  0  0  0  0
   14.9017  -11.2372  -14.7575 C   0  0  2  0  0  0  0  0  0  0  0  0
   14.2196   -9.9731  -14.3586 C   0  0  0  0  0  0  0  0  0  0  0  0
   16.3874  -11.1420  -14.8213 C   0  0  2  0  0  0  0  0  0  0  0  0
   16.9370  -12.4553  -15.1057 N   0  0  0  0  0  0  0  0  0  0  0  0
   17.0508  -10.4613  -13.7189 C   0  0  0  0  0  0  0  0  0  0  0  0
   17.4318  -11.1534  -12.7290 O   0  0  0  0  0  0  0  0  0  0  0  0
   21.3671   -6.2519  -13.7723 N   0  0  0  0  0  0  0  0  0  0  0  0
   21.2802   -6.4045  -12.3685 C   0  0  0  0  0  0  0  0  0  0  0  0
   22.1393   -5.8922  -11.6386 O   0  0  0  0  0  0  0  0  0  0  0  0
   20.1106   -7.2042  -11.8625 C   0  0  0  0  0  0  0  0  0  0  0  0
   19.2675   -7.6968  -12.9940 C   0  0  0  0  0  0  0  0  0  0  0  0
   18.1372   -8.4770  -12.5710 C   0  0  2  0  0  0  0  0  0  0  0  0
   17.3314   -9.0898  -13.6067 N   0  0  0  0  0  0  0  0  0  0  0  0
   17.1552   -7.5967  -11.8274 C   0  0  0  0  0  0  0  0  0  0  0  0
   16.4026   -6.7773  -12.3966 O   0  0  0  0  0  0  0  0  0  0  0  0
   13.2017   -8.6006   -8.2429 N   0  0  0  0  0  0  0  0  0  0  0  0
   13.4005   -7.4238   -7.4829 C   0  0  0  0  0  0  0  0  0  0  0  0
   12.4729   -6.9452   -6.8095 O   0  0  0  0  0  0  0  0  0  0  0  0
   14.7665   -6.7944   -7.5315 C   0  0  0  0  0  0  0  0  0  0  0  0
   15.6475   -7.6259   -8.4074 C   0  0  0  0  0  0  0  0  0  0  0  0
   16.0750   -6.8786   -9.6404 C   0  0  2  0  0  0  0  0  0  0  0  0
   17.0340   -7.6560  -10.4120 N   0  0  0  0  0  0  0  0  0  0  0  0
   16.6641   -5.5855   -9.3211 C   0  0  0  0  0  0  0  0  0  0  0  0
   17.9087   -5.5094   -9.0836 O   0  0  0  0  0  0  0  0  0  0  0  0
   15.9543   -4.4187   -9.2604 O   0  0  0  0  0  0  0  0  0  0  0  0
  1  2  1  0
  3  2  1  0
  3  4  1  6
  5  3  1  0
  5  6  1  1
  7  8  2  0
  7  5  1  0
  9 10  1  0
 10 11  2  0
 10 12  1  0
 12 13  1  0
 14 13  1  6
 14 15  1  0
 15  7  1  0
 16 14  1  0
 16 24  1  0
 17 16  2  0
 19 21  1  0
 19 18  1  0
 20 19  2  0
 23 22  1  1
 22 21  1  0
 23 24  1  0
 23 25  1  0
 25 27  1  0
 26 25  2  0
M  END
$$$$
