IQQ.pdb
     RDKit          3D

 27 26  0  0  1  0  0  0  0  0999 V2000
   13.2201  -13.2547  -15.2660 C   0  0  0  0  0  0  0  0  0  0  0  0
   14.4335  -12.9466  -14.4148 C   0  0  0  0  0  0  0  0  0  0  0  0
   14.4843  -11.4751  -14.0841 C   0  0  2  0  0  0  0  0  0  0  0  0
   14.4243  -10.6967  -15.3542 C   0  0  0  0  0  0  0  0  0  0  0  0
   15.6123  -11.1013  -13.1850 C   0  0  2  0  0  0  0  0  0  0  0  0
   15.6861  -12.0542  -12.0922 N   0  0  0  0  0  0  0  0  0  0  0  0
   15.6750   -9.7135  -12.7505 C   0  0  0  0  0  0  0  0  0  0  0  0
   15.6414   -8.8065  -13.6338 O   0  0  0  0  0  0  0  0  0  0  0  0
   14.0768   -7.0471   -7.3371 N   0  0  0  0  0  0  0  0  0  0  0  0
   14.6655   -5.9173   -7.9525 C   0  0  0  0  0  0  0  0  0  0  0  0
   14.6829   -4.8311   -7.3584 O   0  0  0  0  0  0  0  0  0  0  0  0
   15.2411   -6.1382   -9.3249 C   0  0  0  0  0  0  0  0  0  0  0  0
   15.1840   -7.5825   -9.7048 C   0  0  0  0  0  0  0  0  0  0  0  0
   15.6652   -7.8467  -11.0329 C   0  0  2  0  0  0  0  0  0  0  0  0
   15.7725   -9.2342  -11.4341 N   0  0  0  0  0  0  0  0  0  0  0  0
   17.0773   -7.3211  -11.1813 C   0  0  0  0  0  0  0  0  0  0  0  0
   18.0880   -7.9613  -10.8201 O   0  0  0  0  0  0  0  0  0  0  0  0
   22.2775   -7.2072  -13.0639 N   0  0  0  0  0  0  0  0  0  0  0  0
   21.2387   -7.4671  -13.9887 C   0  0  0  0  0  0  0  0  0  0  0  0
   21.2049   -8.5411  -14.6118 O   0  0  0  0  0  0  0  0  0  0  0  0
   20.1977   -6.3966  -14.1748 C   0  0  0  0  0  0  0  0  0  0  0  0
   18.9771   -6.7737  -13.3986 C   0  0  0  0  0  0  0  0  0  0  0  0
   18.5679   -5.6900  -12.4394 C   0  0  2  0  0  0  0  0  0  0  0  0
   17.3349   -6.0443  -11.7513 N   0  0  0  0  0  0  0  0  0  0  0  0
   18.3844   -4.4083  -13.1062 C   0  0  0  0  0  0  0  0  0  0  0  0
   19.3904   -3.8147  -13.6031 O   0  0  0  0  0  0  0  0  0  0  0  0
   17.1750   -3.7852  -13.2405 O   0  0  0  0  0  0  0  0  0  0  0  0
  1  2  1  0
  3  2  1  0
  3  4  1  6
  5  3  1  0
  5  6  1  1
  7  8  2  0
  7  5  1  0
  9 10  1  0
 10 11  2  0
 10 12  1  0
 12 13  1  0
 14 13  1  1
 14 15  1  0
 15  7  1  0
 16 14  1  0
 16 24  1  0
 17 16  2  0
 19 21  1  0
 19 18  1  0
 20 19  2  0
 23 22  1  6
 22 21  1  0
 23 24  1  0
 23 25  1  0
 25 27  1  0
 26 25  2  0
M  END
$$$$
