IQQ.pdb
     RDKit          3D

 27 26  0  0  1  0  0  0  0  0999 V2000
   26.8578  -15.9913  -15.5587 C   0  0  0  0  0  0  0  0  0  0  0  0
   25.6611  -15.6891  -16.4353 C   0  0  0  0  0  0  0  0  0  0  0  0
   25.6248  -14.2224  -16.7886 C   0  0  2  0  0  0  0  0  0  0  0  0
   25.6205  -13.4263  -15.5282 C   0  0  0  0  0  0  0  0  0  0  0  0
   24.5425  -13.8635  -17.7479 C   0  0  2  0  0  0  0  0  0  0  0  0
   24.5750  -14.7851  -18.8692 N   0  0  0  0  0  0  0  0  0  0  0  0
   24.4537  -12.4665  -18.1469 C   0  0  0  0  0  0  0  0  0  0  0  0
   25.5297  -11.8134  -18.2869 O   0  0  0  0  0  0  0  0  0  0  0  0
   25.3997   -8.7166  -20.8121 N   0  0  0  0  0  0  0  0  0  0  0  0
   24.2599   -7.8787  -20.7952 C   0  0  0  0  0  0  0  0  0  0  0  0
   24.3724   -6.6793  -21.0811 O   0  0  0  0  0  0  0  0  0  0  0  0
   22.9613   -8.5384  -20.4182 C   0  0  0  0  0  0  0  0  0  0  0  0
   23.1567   -9.9963  -20.1539 C   0  0  0  0  0  0  0  0  0  0  0  0
   23.2474  -10.3198  -18.7567 C   0  0  2  0  0  0  0  0  0  0  0  0
   23.2898  -11.7239  -18.4040 N   0  0  0  0  0  0  0  0  0  0  0  0
   22.0229   -9.8052  -18.0301 C   0  0  0  0  0  0  0  0  0  0  0  0
   20.8654  -10.2142  -18.2639 O   0  0  0  0  0  0  0  0  0  0  0  0
   21.3718   -9.1767  -12.2337 N   0  0  0  0  0  0  0  0  0  0  0  0
   20.2144   -8.4282  -12.5532 C   0  0  0  0  0  0  0  0  0  0  0  0
   19.3936   -8.1306  -11.6697 O   0  0  0  0  0  0  0  0  0  0  0  0
   20.0327   -8.0193  -13.9899 C   0  0  0  0  0  0  0  0  0  0  0  0
   21.1580   -8.5838  -14.7959 C   0  0  0  0  0  0  0  0  0  0  0  0
   20.9957   -8.2933  -16.2625 C   0  0  2  0  0  0  0  0  0  0  0  0
   22.1261   -8.8082  -17.0218 N   0  0  0  0  0  0  0  0  0  0  0  0
   20.8598   -6.8676  -16.5272 C   0  0  0  0  0  0  0  0  0  0  0  0
   19.8550   -6.2418  -16.0691 O   0  0  0  0  0  0  0  0  0  0  0  0
   21.7617   -6.1371  -17.2497 O   0  0  0  0  0  0  0  0  0  0  0  0
  1  2  1  0
  3  2  1  0
  3  4  1  1
  5  3  1  0
  5  6  1  6
  7  8  2  0
  7  5  1  0
  9 10  1  0
 10 11  2  0
 10 12  1  0
 12 13  1  0
 14 13  1  6
 14 15  1  0
 15  7  1  0
 16 14  1  0
 16 24  1  0
 17 16  2  0
 19 21  1  0
 19 18  1  0
 20 19  2  0
 23 22  1  1
 22 21  1  0
 23 24  1  0
 23 25  1  0
 25 27  1  0
 26 25  2  0
M  END
$$$$
