IQQ.pdb
     RDKit          3D

 27 26  0  0  1  0  0  0  0  0999 V2000
   28.0361  -17.4105  -17.7303 C   0  0  0  0  0  0  0  0  0  0  0  0
   28.3779  -18.5463  -16.7897 C   0  0  0  0  0  0  0  0  0  0  0  0
   27.1274  -19.0848  -16.1388 C   0  0  2  0  0  0  0  0  0  0  0  0
   26.4173  -17.9611  -15.4639 C   0  0  0  0  0  0  0  0  0  0  0  0
   27.3671  -20.2722  -15.2709 C   0  0  2  0  0  0  0  0  0  0  0  0
   28.0892  -21.2780  -16.0288 N   0  0  0  0  0  0  0  0  0  0  0  0
   26.2193  -20.8019  -14.5493 C   0  0  0  0  0  0  0  0  0  0  0  0
   25.5170  -21.6935  -15.1113 O   0  0  0  0  0  0  0  0  0  0  0  0
   25.2800  -20.3993   -8.6172 N   0  0  0  0  0  0  0  0  0  0  0  0
   26.4494  -20.8003   -9.3051 C   0  0  0  0  0  0  0  0  0  0  0  0
   27.5563  -20.6735   -8.7648 O   0  0  0  0  0  0  0  0  0  0  0  0
   26.2429  -21.3669  -10.6835 C   0  0  0  0  0  0  0  0  0  0  0  0
   24.8253  -21.1987  -11.1261 C   0  0  0  0  0  0  0  0  0  0  0  0
   24.6805  -21.0591  -12.5490 C   0  0  2  0  0  0  0  0  0  0  0  0
   25.7742  -20.4388  -13.2678 N   0  0  0  0  0  0  0  0  0  0  0  0
   23.4969  -20.1675  -12.8595 C   0  0  0  0  0  0  0  0  0  0  0  0
   23.5766  -18.9222  -12.9277 O   0  0  0  0  0  0  0  0  0  0  0  0
   22.8516  -19.5957  -17.7794 N   0  0  0  0  0  0  0  0  0  0  0  0
   21.5009  -19.1887  -17.6701 C   0  0  0  0  0  0  0  0  0  0  0  0
   20.9255  -18.6525  -18.6315 O   0  0  0  0  0  0  0  0  0  0  0  0
   20.8112  -19.4339  -16.3554 C   0  0  0  0  0  0  0  0  0  0  0  0
   21.7984  -20.0181  -15.3969 C   0  0  0  0  0  0  0  0  0  0  0  0
   21.2293  -20.1333  -14.0095 C   0  0  2  0  0  0  0  0  0  0  0  0
   22.2041  -20.7103  -13.0950 N   0  0  0  0  0  0  0  0  0  0  0  0
   20.0180  -20.9411  -13.9791 C   0  0  0  0  0  0  0  0  0  0  0  0
   20.0938  -22.1658  -13.6543 O   0  0  0  0  0  0  0  0  0  0  0  0
   18.7739  -20.4611  -14.2804 O   0  0  0  0  0  0  0  0  0  0  0  0
  1  2  1  0
  3  2  1  0
  3  4  1  1
  5  3  1  0
  5  6  1  6
  7  8  2  0
  7  5  1  0
  9 10  1  0
 10 11  2  0
 10 12  1  0
 12 13  1  0
 14 13  1  1
 14 15  1  0
 15  7  1  0
 16 14  1  0
 16 24  1  0
 17 16  2  0
 19 21  1  0
 19 18  1  0
 20 19  2  0
 23 22  1  6
 22 21  1  0
 23 24  1  0
 23 25  1  0
 25 27  1  0
 26 25  2  0
M  END
$$$$
