YMC.pdb
     RDKit          3D

 27 27  0  0  1  0  0  0  0  0999 V2000
   18.3870  -12.2087  -24.4942 O   0  0  0  0  0  0  0  0  0  0  0  0
   18.3259  -11.8005  -23.1876 C   0  0  0  0  0  0  0  0  0  0  0  0
   17.4234  -12.4201  -22.3333 C   0  0  0  0  0  0  0  0  0  0  0  0
   17.3972  -11.9707  -21.0119 C   0  0  0  0  0  0  0  0  0  0  0  0
   18.2246  -10.9616  -20.5719 C   0  0  0  0  0  0  0  0  0  0  0  0
   18.1504  -10.5285  -19.1522 C   0  0  0  0  0  0  0  0  0  0  0  0
   19.2533  -11.1437  -18.3250 C   0  0  2  0  0  0  0  0  0  0  0  0
   18.8958  -12.5290  -18.0737 N   0  0  0  0  0  0  0  0  0  0  0  0
   19.3398  -10.3828  -17.0439 C   0  0  0  0  0  0  0  0  0  0  0  0
   18.5500  -10.5594  -16.0806 O   0  0  0  0  0  0  0  0  0  0  0  0
   19.1181  -10.3547  -21.4364 C   0  0  0  0  0  0  0  0  0  0  0  0
   19.1583  -10.7851  -22.7444 C   0  0  0  0  0  0  0  0  0  0  0  0
   21.9896   -8.4191  -11.0591 C   0  0  0  0  0  0  0  0  0  0  0  0
   21.6755   -9.0909  -12.7078 S   0  0  0  0  0  0  0  0  0  0  0  0
   22.1869   -7.9532  -14.0101 C   0  0  0  0  0  0  0  0  0  0  0  0
   22.0279   -8.5405  -15.3801 C   0  0  0  0  0  0  0  0  0  0  0  0
   20.5566   -8.6257  -15.7032 C   0  0  2  0  0  0  0  0  0  0  0  0
   20.3736   -9.4077  -16.9141 N   0  0  0  0  0  0  0  0  0  0  0  0
   19.9386   -7.2885  -15.8524 C   0  0  0  0  0  0  0  0  0  0  0  0
   20.2093   -6.6146  -16.8721 O   0  0  0  0  0  0  0  0  0  0  0  0
   19.0597   -6.7614  -14.8804 N   0  0  0  0  0  0  0  0  0  0  0  0
   18.4894   -5.4448  -15.0487 C   0  0  1  0  0  0  0  0  0  0  0  0
   17.2919   -5.3602  -14.1105 C   0  0  0  0  0  0  0  0  0  0  0  0
   16.0096   -6.5070  -14.6210 S   0  0  0  0  0  0  0  0  0  0  0  0
   19.4930   -4.3807  -14.7457 C   0  0  0  0  0  0  0  0  0  0  0  0
   20.5552   -4.6078  -14.1403 O   0  0  0  0  0  0  0  0  0  0  0  0
   19.2288   -3.0920  -15.1553 O   0  0  0  0  0  0  0  0  0  0  0  0
  2  3  2  0
  2  1  1  0
  4  3  1  0
  5  4  2  0
  6  7  1  0
  6  5  1  0
  7  9  1  0
  7  8  1  1
  9 10  2  0
  9 18  1  0
 11  5  1  0
 11 12  2  0
 12  2  1  0
 14 13  1  0
 15 14  1  0
 16 15  1  0
 17 16  1  6
 17 19  1  0
 18 17  1  0
 19 20  2  0
 21 19  1  0
 21 22  1  0
 22 23  1  1
 23 24  1  0
 25 22  1  0
 25 27  1  0
 26 25  2  0
M  END
$$$$
