YMC.pdb
     RDKit          3D

 27 27  0  0  1  0  0  0  0  0999 V2000
   29.1102  -19.8816   -3.2010 O   0  0  0  0  0  0  0  0  0  0  0  0
   28.7385  -19.8210   -4.5185 C   0  0  0  0  0  0  0  0  0  0  0  0
   27.5832  -19.1293   -4.8578 C   0  0  0  0  0  0  0  0  0  0  0  0
   27.2449  -19.0949   -6.2118 C   0  0  0  0  0  0  0  0  0  0  0  0
   28.0165  -19.7156   -7.1687 C   0  0  0  0  0  0  0  0  0  0  0  0
   27.6042  -19.6416   -8.5947 C   0  0  0  0  0  0  0  0  0  0  0  0
   26.3215  -20.3982   -8.8423 C   0  0  2  0  0  0  0  0  0  0  0  0
   26.6311  -21.8168   -8.8013 N   0  0  0  0  0  0  0  0  0  0  0  0
   25.8173  -20.0094  -10.1922 C   0  0  0  0  0  0  0  0  0  0  0  0
   25.5389  -18.8247  -10.5111 O   0  0  0  0  0  0  0  0  0  0  0  0
   29.1647  -20.4008   -6.8135 C   0  0  0  0  0  0  0  0  0  0  0  0
   29.5146  -20.4455   -5.4819 C   0  0  0  0  0  0  0  0  0  0  0  0
   28.2955  -22.4459  -15.3303 C   0  0  0  0  0  0  0  0  0  0  0  0
   28.5914  -20.7952  -14.6552 S   0  0  0  0  0  0  0  0  0  0  0  0
   27.2721  -20.2735  -13.5421 C   0  0  0  0  0  0  0  0  0  0  0  0
   26.1217  -21.2345  -13.5256 C   0  0  0  0  0  0  0  0  0  0  0  0
   25.1216  -20.7757  -12.4932 C   0  0  2  0  0  0  0  0  0  0  0  0
   25.6453  -21.0403  -11.1640 N   0  0  0  0  0  0  0  0  0  0  0  0
   23.8014  -21.4228  -12.6675 C   0  0  0  0  0  0  0  0  0  0  0  0
   23.3957  -22.2041  -11.7775 O   0  0  0  0  0  0  0  0  0  0  0  0
   22.9975  -21.1811  -13.8036 N   0  0  0  0  0  0  0  0  0  0  0  0
   21.5677  -21.0259  -13.6670 C   0  0  1  0  0  0  0  0  0  0  0  0
   21.3403  -19.8601  -12.7128 C   0  0  0  0  0  0  0  0  0  0  0  0
   19.6254  -19.8011  -12.1879 S   0  0  0  0  0  0  0  0  0  0  0  0
   20.9242  -20.7769  -14.9919 C   0  0  0  0  0  0  0  0  0  0  0  0
   21.3461  -19.9295  -15.7982 O   0  0  0  0  0  0  0  0  0  0  0  0
   19.8150  -21.5192  -15.3338 O   0  0  0  0  0  0  0  0  0  0  0  0
  2  3  2  0
  2  1  1  0
  4  3  1  0
  5  4  2  0
  6  7  1  0
  6  5  1  0
  7  9  1  0
  7  8  1  6
  9 10  2  0
  9 18  1  0
 11  5  1  0
 11 12  2  0
 12  2  1  0
 14 13  1  0
 15 14  1  0
 16 15  1  0
 17 16  1  6
 17 19  1  0
 18 17  1  0
 19 20  2  0
 21 19  1  0
 21 22  1  0
 22 23  1  1
 23 24  1  0
 25 22  1  0
 25 27  1  0
 26 25  2  0
M  END
$$$$
