YMC.pdb
     RDKit          3D

 27 27  0  0  1  0  0  0  0  0999 V2000
   27.6372  -12.5624  -17.2129 O   0  0  0  0  0  0  0  0  0  0  0  0
   27.2124  -13.7870  -16.7686 C   0  0  0  0  0  0  0  0  0  0  0  0
   27.4509  -14.1402  -15.4469 C   0  0  0  0  0  0  0  0  0  0  0  0
   26.9999  -15.3971  -15.0401 C   0  0  0  0  0  0  0  0  0  0  0  0
   26.3494  -16.2495  -15.9042 C   0  0  0  0  0  0  0  0  0  0  0  0
   25.8918  -17.5745  -15.4104 C   0  0  0  0  0  0  0  0  0  0  0  0
   27.0473  -18.4165  -14.9259 C   0  0  2  0  0  0  0  0  0  0  0  0
   27.8196  -18.8169  -16.0892 N   0  0  0  0  0  0  0  0  0  0  0  0
   26.4809  -19.6119  -14.2346 C   0  0  0  0  0  0  0  0  0  0  0  0
   26.1080  -20.6489  -14.8414 O   0  0  0  0  0  0  0  0  0  0  0  0
   26.1199  -15.8821  -17.2181 C   0  0  0  0  0  0  0  0  0  0  0  0
   26.5578  -14.6452  -17.6377 C   0  0  0  0  0  0  0  0  0  0  0  0
   26.2727  -19.7906   -7.5996 C   0  0  0  0  0  0  0  0  0  0  0  0
   25.3573  -21.2850   -8.0434 S   0  0  0  0  0  0  0  0  0  0  0  0
   25.1962  -21.4737   -9.8295 C   0  0  0  0  0  0  0  0  0  0  0  0
   25.8757  -20.3727  -10.5865 C   0  0  0  0  0  0  0  0  0  0  0  0
   25.6432  -20.5838  -12.0622 C   0  0  2  0  0  0  0  0  0  0  0  0
   26.3599  -19.5673  -12.8134 N   0  0  0  0  0  0  0  0  0  0  0  0
   24.2040  -20.5654  -12.4096 C   0  0  0  0  0  0  0  0  0  0  0  0
   23.6259  -19.4592  -12.5067 O   0  0  0  0  0  0  0  0  0  0  0  0
   23.4760  -21.7553  -12.6318 N   0  0  0  0  0  0  0  0  0  0  0  0
   22.0890  -21.6991  -13.0320 C   0  0  1  0  0  0  0  0  0  0  0  0
   21.7869  -23.0037  -13.7586 C   0  0  0  0  0  0  0  0  0  0  0  0
   22.3324  -22.9147  -15.4658 S   0  0  0  0  0  0  0  0  0  0  0  0
   21.1946  -21.5161  -11.8496 C   0  0  0  0  0  0  0  0  0  0  0  0
   21.5917  -21.6398  -10.6777 O   0  0  0  0  0  0  0  0  0  0  0  0
   19.8724  -21.1966  -12.0687 O   0  0  0  0  0  0  0  0  0  0  0  0
  2  3  2  0
  2  1  1  0
  4  3  1  0
  5  4  2  0
  6  7  1  0
  6  5  1  0
  7  9  1  0
  7  8  1  6
  9 10  2  0
  9 18  1  0
 11  5  1  0
 11 12  2  0
 12  2  1  0
 14 13  1  0
 15 14  1  0
 16 15  1  0
 17 16  1  1
 17 19  1  0
 18 17  1  0
 19 20  2  0
 21 19  1  0
 21 22  1  0
 22 23  1  1
 23 24  1  0
 25 22  1  0
 25 27  1  0
 26 25  2  0
M  END
$$$$
