YMC.pdb
     RDKit          3D

 27 27  0  0  1  0  0  0  0  0999 V2000
   20.0814  -10.3441    5.6752 O   0  0  0  0  0  0  0  0  0  0  0  0
   19.7205  -11.6292    5.9847 C   0  0  0  0  0  0  0  0  0  0  0  0
   20.4691  -12.3284    6.9223 C   0  0  0  0  0  0  0  0  0  0  0  0
   20.0634  -13.6339    7.2050 C   0  0  0  0  0  0  0  0  0  0  0  0
   18.9739  -14.2054    6.5864 C   0  0  0  0  0  0  0  0  0  0  0  0
   18.5910  -15.5993    6.9314 C   0  0  0  0  0  0  0  0  0  0  0  0
   19.3500  -16.6060    6.1010 C   0  0  2  0  0  0  0  0  0  0  0  0
   18.4023  -17.2394    5.2006 N   0  0  0  0  0  0  0  0  0  0  0  0
   19.9415  -17.6109    7.0327 C   0  0  0  0  0  0  0  0  0  0  0  0
   19.6740  -18.8393    6.9847 O   0  0  0  0  0  0  0  0  0  0  0  0
   18.2388  -13.4948    5.6543 C   0  0  0  0  0  0  0  0  0  0  0  0
   18.6242  -12.2048    5.3624 C   0  0  0  0  0  0  0  0  0  0  0  0
   25.7604  -18.4346   10.5997 C   0  0  0  0  0  0  0  0  0  0  0  0
   25.2667  -16.8652    9.8504 S   0  0  0  0  0  0  0  0  0  0  0  0
   23.7508  -17.0234    8.8866 C   0  0  0  0  0  0  0  0  0  0  0  0
   22.5482  -17.2740    9.7457 C   0  0  0  0  0  0  0  0  0  0  0  0
   21.5314  -18.0471    8.9425 C   0  0  2  0  0  0  0  0  0  0  0  0
   20.8558  -17.1457    8.0248 N   0  0  0  0  0  0  0  0  0  0  0  0
   20.5477  -18.7404    9.8050 C   0  0  0  0  0  0  0  0  0  0  0  0
   19.6659  -18.0585   10.3748 O   0  0  0  0  0  0  0  0  0  0  0  0
   20.5813  -20.1394    9.9975 N   0  0  0  0  0  0  0  0  0  0  0  0
   19.6518  -20.7746   10.9029 C   0  0  1  0  0  0  0  0  0  0  0  0
   18.8507  -21.7762   10.0806 C   0  0  0  0  0  0  0  0  0  0  0  0
   17.9460  -20.9397    8.7761 S   0  0  0  0  0  0  0  0  0  0  0  0
   20.3696  -21.4460   12.0278 C   0  0  0  0  0  0  0  0  0  0  0  0
   21.6068  -21.4199   12.1498 O   0  0  0  0  0  0  0  0  0  0  0  0
   19.6271  -22.1232   12.9703 O   0  0  0  0  0  0  0  0  0  0  0  0
  2  3  2  0
  2  1  1  0
  4  3  1  0
  5  4  2  0
  6  7  1  0
  6  5  1  0
  7  9  1  0
  7  8  1  6
  9 10  2  0
  9 18  1  0
 11  5  1  0
 11 12  2  0
 12  2  1  0
 14 13  1  0
 15 14  1  0
 16 15  1  0
 17 16  1  1
 17 19  1  0
 18 17  1  0
 19 20  2  0
 21 19  1  0
 21 22  1  0
 22 23  1  6
 23 24  1  0
 25 22  1  0
 25 27  1  0
 26 25  2  0
M  END
$$$$
