YMC.pdb
     RDKit          3D

 27 27  0  0  1  0  0  0  0  0999 V2000
   28.6676  -13.8710  -18.1530 O   0  0  0  0  0  0  0  0  0  0  0  0
   27.9820  -14.9060  -17.5729 C   0  0  0  0  0  0  0  0  0  0  0  0
   27.4462  -15.8949  -18.3873 C   0  0  0  0  0  0  0  0  0  0  0  0
   26.7565  -16.9287  -17.7514 C   0  0  0  0  0  0  0  0  0  0  0  0
   26.6117  -16.9702  -16.3825 C   0  0  0  0  0  0  0  0  0  0  0  0
   25.8674  -18.0985  -15.7646 C   0  0  0  0  0  0  0  0  0  0  0  0
   26.7982  -19.2003  -15.3187 C   0  0  2  0  0  0  0  0  0  0  0  0
   27.2888  -19.8721  -16.5095 N   0  0  0  0  0  0  0  0  0  0  0  0
   26.0128  -20.1435  -14.4694 C   0  0  0  0  0  0  0  0  0  0  0  0
   25.3271  -21.0884  -14.9384 O   0  0  0  0  0  0  0  0  0  0  0  0
   27.1517  -15.9765  -15.5856 C   0  0  0  0  0  0  0  0  0  0  0  0
   27.8360  -14.9481  -16.1955 C   0  0  0  0  0  0  0  0  0  0  0  0
   26.3745  -19.7120   -7.7882 C   0  0  0  0  0  0  0  0  0  0  0  0
   25.4367  -21.2286   -8.0864 S   0  0  0  0  0  0  0  0  0  0  0  0
   24.8929  -21.3612   -9.8006 C   0  0  0  0  0  0  0  0  0  0  0  0
   25.6954  -20.4967  -10.7256 C   0  0  0  0  0  0  0  0  0  0  0  0
   25.2606  -20.7706  -12.1442 C   0  0  2  0  0  0  0  0  0  0  0  0
   26.0471  -19.9564  -13.0551 N   0  0  0  0  0  0  0  0  0  0  0  0
   23.8149  -20.5208  -12.3439 C   0  0  0  0  0  0  0  0  0  0  0  0
   23.4177  -19.3364  -12.4238 O   0  0  0  0  0  0  0  0  0  0  0  0
   22.8834  -21.5779  -12.4454 N   0  0  0  0  0  0  0  0  0  0  0  0
   21.4744  -21.2975  -12.5978 C   0  0  1  0  0  0  0  0  0  0  0  0
   21.1226  -21.5857  -14.0519 C   0  0  0  0  0  0  0  0  0  0  0  0
   19.3511  -21.4593  -14.3084 S   0  0  0  0  0  0  0  0  0  0  0  0
   20.6560  -22.1301  -11.6658 C   0  0  0  0  0  0  0  0  0  0  0  0
   20.8794  -23.3369  -11.4663 O   0  0  0  0  0  0  0  0  0  0  0  0
   19.6084  -21.5332  -10.9990 O   0  0  0  0  0  0  0  0  0  0  0  0
  2  3  2  0
  2  1  1  0
  4  3  1  0
  5  4  2  0
  6  7  1  0
  6  5  1  0
  7  9  1  0
  7  8  1  6
  9 10  2  0
  9 18  1  0
 11  5  1  0
 11 12  2  0
 12  2  1  0
 14 13  1  0
 15 14  1  0
 16 15  1  0
 17 16  1  1
 17 19  1  0
 18 17  1  0
 19 20  2  0
 21 19  1  0
 21 22  1  0
 22 23  1  6
 23 24  1  0
 25 22  1  0
 25 27  1  0
 26 25  2  0
M  END
$$$$
