YMC.pdb
     RDKit          3D

 27 27  0  0  1  0  0  0  0  0999 V2000
   17.2794  -15.3960  -22.5325 O   0  0  0  0  0  0  0  0  0  0  0  0
   17.9830  -14.5790  -21.6869 C   0  0  0  0  0  0  0  0  0  0  0  0
   19.2638  -14.9545  -21.3037 C   0  0  0  0  0  0  0  0  0  0  0  0
   19.9416  -14.0907  -20.4415 C   0  0  0  0  0  0  0  0  0  0  0  0
   19.3716  -12.9213  -19.9899 C   0  0  0  0  0  0  0  0  0  0  0  0
   20.1451  -12.0424  -19.0744 C   0  0  0  0  0  0  0  0  0  0  0  0
   21.3471  -12.7552  -18.5034 C   0  0  2  0  0  0  0  0  0  0  0  0
   20.8616  -13.7935  -17.6111 N   0  0  0  0  0  0  0  0  0  0  0  0
   22.1560  -11.7518  -17.7508 C   0  0  0  0  0  0  0  0  0  0  0  0
   21.9357  -11.4468  -16.5502 O   0  0  0  0  0  0  0  0  0  0  0  0
   18.0942  -12.5621  -20.3814 C   0  0  0  0  0  0  0  0  0  0  0  0
   17.4099  -13.4021  -21.2321 C   0  0  0  0  0  0  0  0  0  0  0  0
   27.6560  -10.3157  -14.5986 C   0  0  0  0  0  0  0  0  0  0  0  0
   26.4528  -10.8638  -15.8317 S   0  0  0  0  0  0  0  0  0  0  0  0
   26.4909   -9.8396  -17.3154 C   0  0  0  0  0  0  0  0  0  0  0  0
   25.5035  -10.2903  -18.3492 C   0  0  0  0  0  0  0  0  0  0  0  0
   24.1121  -10.1586  -17.7805 C   0  0  2  0  0  0  0  0  0  0  0  0
   23.2316  -11.1109  -18.4355 N   0  0  0  0  0  0  0  0  0  0  0  0
   23.5803   -8.7835  -17.9170 C   0  0  0  0  0  0  0  0  0  0  0  0
   23.2513   -8.3794  -19.0553 O   0  0  0  0  0  0  0  0  0  0  0  0
   23.4371   -7.9263  -16.8035 N   0  0  0  0  0  0  0  0  0  0  0  0
   22.9777   -6.5682  -16.9816 C   0  0  1  0  0  0  0  0  0  0  0  0
   22.5551   -6.0624  -15.6080 C   0  0  0  0  0  0  0  0  0  0  0  0
   21.1036   -6.9456  -15.0307 S   0  0  0  0  0  0  0  0  0  0  0  0
   24.0494   -5.7102  -17.5702 C   0  0  0  0  0  0  0  0  0  0  0  0
   23.8542   -4.5339  -17.9231 O   0  0  0  0  0  0  0  0  0  0  0  0
   25.3084   -6.2469  -17.7286 O   0  0  0  0  0  0  0  0  0  0  0  0
  2  3  2  0
  2  1  1  0
  4  3  1  0
  5  4  2  0
  6  7  1  0
  6  5  1  0
  7  9  1  0
  7  8  1  1
  9 10  2  0
  9 18  1  0
 11  5  1  0
 11 12  2  0
 12  2  1  0
 14 13  1  0
 15 14  1  0
 16 15  1  0
 17 16  1  6
 17 19  1  0
 18 17  1  0
 19 20  2  0
 21 19  1  0
 21 22  1  0
 22 23  1  1
 23 24  1  0
 25 22  1  0
 25 27  1  0
 26 25  2  0
M  END
$$$$
