YMC.pdb
     RDKit          3D

 27 27  0  0  1  0  0  0  0  0999 V2000
   23.1257  -17.2663  -18.5451 O   0  0  0  0  0  0  0  0  0  0  0  0
   23.2256  -17.9693  -17.3732 C   0  0  0  0  0  0  0  0  0  0  0  0
   22.9610  -19.3324  -17.3846 C   0  0  0  0  0  0  0  0  0  0  0  0
   23.0757  -20.0061  -16.1673 C   0  0  0  0  0  0  0  0  0  0  0  0
   23.4336  -19.3545  -15.0080 C   0  0  0  0  0  0  0  0  0  0  0  0
   23.5403  -20.1278  -13.7434 C   0  0  0  0  0  0  0  0  0  0  0  0
   24.9703  -20.2224  -13.2687 C   0  0  2  0  0  0  0  0  0  0  0  0
   25.6976  -21.0440  -14.2207 N   0  0  0  0  0  0  0  0  0  0  0  0
   24.9608  -20.8637  -11.9210 C   0  0  0  0  0  0  0  0  0  0  0  0
   24.6978  -22.0800  -11.7362 O   0  0  0  0  0  0  0  0  0  0  0  0
   23.6936  -17.9957  -15.0141 C   0  0  0  0  0  0  0  0  0  0  0  0
   23.5856  -17.3140  -16.2064 C   0  0  0  0  0  0  0  0  0  0  0  0
   28.7798  -19.3626   -6.5940 C   0  0  0  0  0  0  0  0  0  0  0  0
   27.0738  -19.4025   -5.9971 S   0  0  0  0  0  0  0  0  0  0  0  0
   25.9781  -20.2671   -7.1389 C   0  0  0  0  0  0  0  0  0  0  0  0
   26.0194  -19.6901   -8.5218 C   0  0  0  0  0  0  0  0  0  0  0  0
   25.1612  -20.5389   -9.4270 C   0  0  2  0  0  0  0  0  0  0  0  0
   25.2668  -20.0482  -10.7906 N   0  0  0  0  0  0  0  0  0  0  0  0
   23.7455  -20.5630   -8.9940 C   0  0  0  0  0  0  0  0  0  0  0  0
   23.0228  -19.5748   -9.2554 O   0  0  0  0  0  0  0  0  0  0  0  0
   23.1975  -21.6644   -8.2998 N   0  0  0  0  0  0  0  0  0  0  0  0
   21.8230  -21.6373   -7.8558 C   0  0  1  0  0  0  0  0  0  0  0  0
   21.0047  -22.3710   -8.9110 C   0  0  0  0  0  0  0  0  0  0  0  0
   19.3441  -22.6902   -8.3106 S   0  0  0  0  0  0  0  0  0  0  0  0
   21.6780  -22.2775   -6.5139 C   0  0  0  0  0  0  0  0  0  0  0  0
   22.4795  -23.1233   -6.0799 O   0  0  0  0  0  0  0  0  0  0  0  0
   20.6091  -21.9141   -5.7242 O   0  0  0  0  0  0  0  0  0  0  0  0
  2  3  2  0
  2  1  1  0
  4  3  1  0
  5  4  2  0
  6  7  1  0
  6  5  1  0
  7  9  1  0
  7  8  1  6
  9 10  2  0
  9 18  1  0
 11  5  1  0
 11 12  2  0
 12  2  1  0
 14 13  1  0
 15 14  1  0
 16 15  1  0
 17 16  1  1
 17 19  1  0
 18 17  1  0
 19 20  2  0
 21 19  1  0
 21 22  1  0
 22 23  1  6
 23 24  1  0
 25 22  1  0
 25 27  1  0
 26 25  2  0
M  END
$$$$
