YMC.pdb
     RDKit          3D

 27 27  0  0  1  0  0  0  0  0999 V2000
   15.5766  -16.7517  -17.7506 O   0  0  0  0  0  0  0  0  0  0  0  0
   16.4425  -15.7142  -17.5239 C   0  0  0  0  0  0  0  0  0  0  0  0
   16.3109  -14.5546  -18.2765 C   0  0  0  0  0  0  0  0  0  0  0  0
   17.2153  -13.5251  -18.0100 C   0  0  0  0  0  0  0  0  0  0  0  0
   18.1930  -13.6488  -17.0480 C   0  0  0  0  0  0  0  0  0  0  0  0
   19.1252  -12.5162  -16.8098 C   0  0  0  0  0  0  0  0  0  0  0  0
   20.3265  -12.5840  -17.7216 C   0  0  2  0  0  0  0  0  0  0  0  0
   21.1405  -13.7093  -17.2960 N   0  0  0  0  0  0  0  0  0  0  0  0
   21.0814  -11.3047  -17.5755 C   0  0  0  0  0  0  0  0  0  0  0  0
   21.8613  -11.0681  -16.6170 O   0  0  0  0  0  0  0  0  0  0  0  0
   18.3104  -14.8112  -16.3070 C   0  0  0  0  0  0  0  0  0  0  0  0
   17.4265  -15.8381  -16.5560 C   0  0  0  0  0  0  0  0  0  0  0  0
   24.6410   -6.7612  -21.1884 C   0  0  0  0  0  0  0  0  0  0  0  0
   22.8541   -6.4971  -21.2639 S   0  0  0  0  0  0  0  0  0  0  0  0
   22.0390   -6.9426  -19.7182 C   0  0  0  0  0  0  0  0  0  0  0  0
   21.3382   -8.2651  -19.7995 C   0  0  0  0  0  0  0  0  0  0  0  0
   21.5416   -9.0023  -18.4988 C   0  0  2  0  0  0  0  0  0  0  0  0
   20.9033  -10.3052  -18.5783 N   0  0  0  0  0  0  0  0  0  0  0  0
   21.0236   -8.2422  -17.3386 C   0  0  0  0  0  0  0  0  0  0  0  0
   19.7853   -8.1880  -17.1633 O   0  0  0  0  0  0  0  0  0  0  0  0
   21.8861   -7.5838  -16.4342 N   0  0  0  0  0  0  0  0  0  0  0  0
   21.3482   -6.8778  -15.2943 C   0  0  1  0  0  0  0  0  0  0  0  0
   21.5961   -7.7566  -14.0747 C   0  0  0  0  0  0  0  0  0  0  0  0
   21.2648   -6.8459  -12.5644 S   0  0  0  0  0  0  0  0  0  0  0  0
   21.9908   -5.5383  -15.1384 C   0  0  0  0  0  0  0  0  0  0  0  0
   23.1408   -5.2907  -15.5416 O   0  0  0  0  0  0  0  0  0  0  0  0
   21.2770   -4.5347  -14.5207 O   0  0  0  0  0  0  0  0  0  0  0  0
  2  3  2  0
  2  1  1  0
  4  3  1  0
  5  4  2  0
  6  7  1  0
  6  5  1  0
  7  9  1  0
  7  8  1  1
  9 10  2  0
  9 18  1  0
 11  5  1  0
 11 12  2  0
 12  2  1  0
 14 13  1  0
 15 14  1  0
 16 15  1  0
 17 16  1  6
 17 19  1  0
 18 17  1  0
 19 20  2  0
 21 19  1  0
 21 22  1  0
 22 23  1  1
 23 24  1  0
 25 22  1  0
 25 27  1  0
 26 25  2  0
M  END
$$$$
