YMC.pdb
     RDKit          3D

 27 27  0  0  1  0  0  0  0  0999 V2000
   15.4355  -11.9511  -23.1471 O   0  0  0  0  0  0  0  0  0  0  0  0
   16.1788  -11.5170  -22.0809 C   0  0  0  0  0  0  0  0  0  0  0  0
   17.1133  -10.5097  -22.2812 C   0  0  0  0  0  0  0  0  0  0  0  0
   17.8465  -10.1005  -21.1658 C   0  0  0  0  0  0  0  0  0  0  0  0
   17.6558  -10.6657  -19.9246 C   0  0  0  0  0  0  0  0  0  0  0  0
   18.4666  -10.1856  -18.7754 C   0  0  0  0  0  0  0  0  0  0  0  0
   19.5623  -11.1620  -18.4217 C   0  0  2  0  0  0  0  0  0  0  0  0
   18.9508  -12.2747  -17.7161 N   0  0  0  0  0  0  0  0  0  0  0  0
   20.5366  -10.4532  -17.5408 C   0  0  0  0  0  0  0  0  0  0  0  0
   20.2933  -10.1512  -16.3439 O   0  0  0  0  0  0  0  0  0  0  0  0
   16.7204  -11.6687  -19.7425 C   0  0  0  0  0  0  0  0  0  0  0  0
   15.9873  -12.0855  -20.8317 C   0  0  0  0  0  0  0  0  0  0  0  0
   26.9008   -9.7028  -14.6904 C   0  0  0  0  0  0  0  0  0  0  0  0
   25.5844  -10.2634  -15.7955 S   0  0  0  0  0  0  0  0  0  0  0  0
   25.2252   -9.0561  -17.0859 C   0  0  0  0  0  0  0  0  0  0  0  0
   24.1498   -9.5194  -18.0218 C   0  0  0  0  0  0  0  0  0  0  0  0
   22.8158   -9.3923  -17.3283 C   0  0  2  0  0  0  0  0  0  0  0  0
   21.8056  -10.1042  -18.0924 N   0  0  0  0  0  0  0  0  0  0  0  0
   22.4184   -7.9791  -17.1356 C   0  0  0  0  0  0  0  0  0  0  0  0
   22.2047   -7.2741  -18.1478 O   0  0  0  0  0  0  0  0  0  0  0  0
   22.2763   -7.4141  -15.8488 N   0  0  0  0  0  0  0  0  0  0  0  0
   21.9309   -6.0195  -15.6975 C   0  0  1  0  0  0  0  0  0  0  0  0
   20.7126   -5.9639  -14.7843 C   0  0  0  0  0  0  0  0  0  0  0  0
   20.3441   -4.2680  -14.3283 S   0  0  0  0  0  0  0  0  0  0  0  0
   23.0719   -5.2408  -15.1289 C   0  0  0  0  0  0  0  0  0  0  0  0
   23.3931   -4.1138  -15.5446 O   0  0  0  0  0  0  0  0  0  0  0  0
   23.7990   -5.7971  -14.0993 O   0  0  0  0  0  0  0  0  0  0  0  0
  2  3  2  0
  2  1  1  0
  4  3  1  0
  5  4  2  0
  6  7  1  0
  6  5  1  0
  7  9  1  0
  7  8  1  1
  9 10  2  0
  9 18  1  0
 11  5  1  0
 11 12  2  0
 12  2  1  0
 14 13  1  0
 15 14  1  0
 16 15  1  0
 17 16  1  6
 17 19  1  0
 18 17  1  0
 19 20  2  0
 21 19  1  0
 21 22  1  0
 22 23  1  1
 23 24  1  0
 25 22  1  0
 25 27  1  0
 26 25  2  0
M  END
$$$$
