YMC.pdb
     RDKit          3D

 27 27  0  0  1  0  0  0  0  0999 V2000
   22.2886   -2.4747  -15.6904 O   0  0  0  0  0  0  0  0  0  0  0  0
   21.6169   -3.5516  -15.1741 C   0  0  0  0  0  0  0  0  0  0  0  0
   20.3835   -3.3456  -14.5701 C   0  0  0  0  0  0  0  0  0  0  0  0
   19.7370   -4.4723  -14.0589 C   0  0  0  0  0  0  0  0  0  0  0  0
   20.2915   -5.7298  -14.1469 C   0  0  0  0  0  0  0  0  0  0  0  0
   19.5529   -6.8904  -13.5847 C   0  0  0  0  0  0  0  0  0  0  0  0
   19.5919   -6.8960  -12.0756 C   0  0  2  0  0  0  0  0  0  0  0  0
   20.9173   -7.3309  -11.6702 N   0  0  0  0  0  0  0  0  0  0  0  0
   18.5547   -7.8567  -11.5972 C   0  0  0  0  0  0  0  0  0  0  0  0
   18.7326   -9.1015  -11.5550 O   0  0  0  0  0  0  0  0  0  0  0  0
   21.5215   -5.9175  -14.7517 C   0  0  0  0  0  0  0  0  0  0  0  0
   22.1746   -4.8172  -15.2622 C   0  0  0  0  0  0  0  0  0  0  0  0
   13.2766   -6.8648   -7.3680 C   0  0  0  0  0  0  0  0  0  0  0  0
   15.0640   -6.6507   -7.2019 S   0  0  0  0  0  0  0  0  0  0  0  0
   15.9735   -7.5464   -8.4757 C   0  0  0  0  0  0  0  0  0  0  0  0
   15.3035   -7.4775   -9.8148 C   0  0  0  0  0  0  0  0  0  0  0  0
   16.1733   -8.1791  -10.8286 C   0  0  2  0  0  0  0  0  0  0  0  0
   17.3008   -7.3277  -11.1678 N   0  0  0  0  0  0  0  0  0  0  0  0
   15.4210   -8.5518  -12.0482 C   0  0  0  0  0  0  0  0  0  0  0  0
   15.1694   -7.6615  -12.8916 O   0  0  0  0  0  0  0  0  0  0  0  0
   14.9853   -9.8754  -12.2794 N   0  0  0  0  0  0  0  0  0  0  0  0
   14.1623  -10.1837  -13.4260 C   0  0  1  0  0  0  0  0  0  0  0  0
   14.5685  -11.5738  -13.8989 C   0  0  0  0  0  0  0  0  0  0  0  0
   14.3881  -11.7112  -15.6789 S   0  0  0  0  0  0  0  0  0  0  0  0
   12.7108  -10.1314  -13.0765 C   0  0  0  0  0  0  0  0  0  0  0  0
   12.3002  -10.0970  -11.9032 O   0  0  0  0  0  0  0  0  0  0  0  0
   11.7883  -10.1211  -14.0997 O   0  0  0  0  0  0  0  0  0  0  0  0
  2  3  2  0
  2  1  1  0
  4  3  1  0
  5  4  2  0
  6  7  1  0
  6  5  1  0
  7  9  1  0
  7  8  1  6
  9 10  2  0
  9 18  1  0
 11  5  1  0
 11 12  2  0
 12  2  1  0
 14 13  1  0
 15 14  1  0
 16 15  1  0
 17 16  1  1
 17 19  1  0
 18 17  1  0
 19 20  2  0
 21 19  1  0
 21 22  1  0
 22 23  1  1
 23 24  1  0
 25 22  1  0
 25 27  1  0
 26 25  2  0
M  END
$$$$
