YMC.pdb
     RDKit          3D

 27 27  0  0  1  0  0  0  0  0999 V2000
   29.4369  -19.6928   -5.3709 O   0  0  0  0  0  0  0  0  0  0  0  0
   28.5216  -19.8574   -6.3771 C   0  0  0  0  0  0  0  0  0  0  0  0
   28.5792  -21.0068   -7.1542 C   0  0  0  0  0  0  0  0  0  0  0  0
   27.6264  -21.1303   -8.1670 C   0  0  0  0  0  0  0  0  0  0  0  0
   26.6732  -20.1615   -8.3888 C   0  0  0  0  0  0  0  0  0  0  0  0
   25.6846  -20.3518   -9.4821 C   0  0  0  0  0  0  0  0  0  0  0  0
   26.3167  -20.9822  -10.6995 C   0  0  2  0  0  0  0  0  0  0  0  0
   27.4930  -20.2010  -11.0402 N   0  0  0  0  0  0  0  0  0  0  0  0
   25.3169  -20.9362  -11.8067 C   0  0  0  0  0  0  0  0  0  0  0  0
   24.7978  -19.8693  -12.2253 O   0  0  0  0  0  0  0  0  0  0  0  0
   26.6299  -19.0220   -7.6053 C   0  0  0  0  0  0  0  0  0  0  0  0
   27.5622  -18.8827   -6.6008 C   0  0  0  0  0  0  0  0  0  0  0  0
   26.7171  -25.1938  -15.9436 C   0  0  0  0  0  0  0  0  0  0  0  0
   26.6415  -23.4712  -16.4869 S   0  0  0  0  0  0  0  0  0  0  0  0
   25.7770  -22.4250  -15.2995 C   0  0  0  0  0  0  0  0  0  0  0  0
   24.6574  -23.1444  -14.6095 C   0  0  0  0  0  0  0  0  0  0  0  0
   24.0586  -22.2271  -13.5719 C   0  0  2  0  0  0  0  0  0  0  0  0
   24.9363  -22.1696  -12.4153 N   0  0  0  0  0  0  0  0  0  0  0  0
   22.6986  -22.6515  -13.1687 C   0  0  0  0  0  0  0  0  0  0  0  0
   22.5766  -23.6783  -12.4630 O   0  0  0  0  0  0  0  0  0  0  0  0
   21.5475  -21.9314  -13.5582 N   0  0  0  0  0  0  0  0  0  0  0  0
   20.2316  -22.4097  -13.2023 C   0  0  1  0  0  0  0  0  0  0  0  0
   19.4796  -21.2270  -12.6047 C   0  0  0  0  0  0  0  0  0  0  0  0
   19.3625  -19.8889  -13.7945 S   0  0  0  0  0  0  0  0  0  0  0  0
   19.5186  -22.9607  -14.3938 C   0  0  0  0  0  0  0  0  0  0  0  0
   19.9064  -22.7702  -15.5598 O   0  0  0  0  0  0  0  0  0  0  0  0
   18.3820  -23.7123  -14.1902 O   0  0  0  0  0  0  0  0  0  0  0  0
  2  3  2  0
  2  1  1  0
  4  3  1  0
  5  4  2  0
  6  7  1  0
  6  5  1  0
  7  9  1  0
  7  8  1  6
  9 10  2  0
  9 18  1  0
 11  5  1  0
 11 12  2  0
 12  2  1  0
 14 13  1  0
 15 14  1  0
 16 15  1  0
 17 16  1  6
 17 19  1  0
 18 17  1  0
 19 20  2  0
 21 19  1  0
 21 22  1  0
 22 23  1  6
 23 24  1  0
 25 22  1  0
 25 27  1  0
 26 25  2  0
M  END
$$$$
