WDM.pdb
     RDKit          3D

 31 32  0  0  1  0  0  0  0  0999 V2000
   27.6061  -21.8084  -13.6629 N   0  0  0  0  0  0  0  0  0  0  0  0
   26.3529  -21.7477  -12.8768 C   0  0  1  0  0  0  0  0  0  0  0  0
   26.4379  -20.5550  -11.9738 C   0  0  0  0  0  0  0  0  0  0  0  0
   27.4685  -20.5986  -10.9285 C   0  0  0  0  0  0  0  0  0  0  0  0
   28.8535  -20.7080  -11.1176 C   0  0  0  0  0  0  0  0  0  0  0  0
   29.4799  -20.7436   -9.9438 N   0  0  0  0  0  0  0  0  0  0  0  0
   28.5580  -20.6610   -8.9556 C   0  0  0  0  0  0  0  0  0  0  0  0
   28.7086  -20.6451   -7.5839 C   0  0  0  0  0  0  0  0  0  0  0  0
   27.6029  -20.5362   -6.7714 C   0  0  0  0  0  0  0  0  0  0  0  0
   26.3452  -20.4439   -7.3690 C   0  0  0  0  0  0  0  0  0  0  0  0
   26.2131  -20.4617   -8.7309 C   0  0  0  0  0  0  0  0  0  0  0  0
   27.3028  -20.5703   -9.5639 C   0  0  0  0  0  0  0  0  0  0  0  0
   25.1639  -21.7547  -13.7355 C   0  0  0  0  0  0  0  0  0  0  0  0
   25.1544  -21.0447  -14.7595 O   0  0  0  0  0  0  0  0  0  0  0  0
   23.9992  -22.5417  -13.4589 N   0  0  0  0  0  0  0  0  0  0  0  0
   22.9031  -22.5568  -14.3842 C   0  0  1  0  0  0  0  0  0  0  0  0
   23.3829  -23.2315  -15.6760 C   0  0  0  0  0  0  0  0  0  0  0  0
   23.7874  -24.6186  -15.3153 C   0  0  0  0  0  0  0  0  0  0  0  0
   23.7397  -25.0489  -14.1363 O   0  0  0  0  0  0  0  0  0  0  0  0
   21.7545  -23.3679  -13.8838 C   0  0  0  0  0  0  0  0  0  0  0  0
   21.9259  -24.4059  -13.1885 O   0  0  0  0  0  0  0  0  0  0  0  0
   24.2356  -25.4828  -16.3001 O   0  0  0  0  0  0  0  0  0  0  0  0
   21.2294  -18.9735  -10.6752 C   0  0  0  0  0  0  0  0  0  0  0  0
   19.4395  -19.1211  -10.9091 S   0  0  0  0  0  0  0  0  0  0  0  0
   18.9903  -20.7337  -11.5853 C   0  0  0  0  0  0  0  0  0  0  0  0
   19.9714  -21.1381  -12.6673 C   0  0  0  0  0  0  0  0  0  0  0  0
   19.4928  -22.5111  -13.1580 C   0  0  2  0  0  0  0  0  0  0  0  0
   20.4058  -23.0161  -14.1628 N   0  0  0  0  0  0  0  0  0  0  0  0
   18.1814  -22.2827  -13.8144 C   0  0  0  0  0  0  0  0  0  0  0  0
   16.9930  -22.6439  -13.1834 O   0  0  0  0  0  0  0  0  0  0  0  0
   18.0664  -21.7590  -14.9583 O   0  0  0  0  0  0  0  0  0  0  0  0
  2  1  1  6
  2  3  1  0
  4  3  1  0
  5  4  2  0
  6  5  1  0
  7  6  1  0
  7 12  2  0
  8  7  1  0
  9  8  2  0
  9 10  1  0
 10 11  2  0
 11 12  1  0
 12  4  1  0
 13  2  1  0
 14 13  2  0
 15 13  1  0
 16 15  1  0
 16 17  1  6
 17 18  1  0
 18 22  1  0
 19 18  2  0
 20 21  2  0
 20 16  1  0
 23 24  1  0
 24 25  1  0
 25 26  1  0
 27 26  1  6
 27 29  1  0
 27 28  1  0
 28 20  1  0
 29 30  1  0
 31 29  2  0
M  END
$$$$
