WDM.pdb
     RDKit          3D

 31 32  0  0  1  0  0  0  0  0999 V2000
   24.4043  -17.7205  -15.6552 N   0  0  0  0  0  0  0  0  0  0  0  0
   25.5764  -18.1819  -14.8769 C   0  0  1  0  0  0  0  0  0  0  0  0
   26.1784  -16.9852  -14.2057 C   0  0  0  0  0  0  0  0  0  0  0  0
   26.7649  -15.9674  -15.0871 C   0  0  0  0  0  0  0  0  0  0  0  0
   26.4213  -14.6095  -15.1481 C   0  0  0  0  0  0  0  0  0  0  0  0
   27.1412  -13.9910  -16.0813 N   0  0  0  0  0  0  0  0  0  0  0  0
   27.9695  -14.8920  -16.6604 C   0  0  0  0  0  0  0  0  0  0  0  0
   28.9088  -14.7380  -17.6596 C   0  0  0  0  0  0  0  0  0  0  0  0
   29.6533  -15.8179  -18.0767 C   0  0  0  0  0  0  0  0  0  0  0  0
   29.4316  -17.0535  -17.4671 C   0  0  0  0  0  0  0  0  0  0  0  0
   28.4958  -17.1895  -16.4779 C   0  0  0  0  0  0  0  0  0  0  0  0
   27.7391  -16.1253  -16.0444 C   0  0  0  0  0  0  0  0  0  0  0  0
   25.2303  -19.2661  -13.9517 C   0  0  0  0  0  0  0  0  0  0  0  0
   24.1745  -19.1853  -13.2948 O   0  0  0  0  0  0  0  0  0  0  0  0
   26.0483  -20.4263  -13.7592 N   0  0  0  0  0  0  0  0  0  0  0  0
   25.6842  -21.4107  -12.7813 C   0  0  1  0  0  0  0  0  0  0  0  0
   25.8808  -22.7970  -13.4087 C   0  0  0  0  0  0  0  0  0  0  0  0
   26.3914  -22.5783  -14.7904 C   0  0  0  0  0  0  0  0  0  0  0  0
   27.6156  -22.4612  -15.0454 O   0  0  0  0  0  0  0  0  0  0  0  0
   26.5649  -21.3615  -11.5774 C   0  0  0  0  0  0  0  0  0  0  0  0
   27.5535  -22.1332  -11.4443 O   0  0  0  0  0  0  0  0  0  0  0  0
   25.5013  -22.4978  -15.8483 O   0  0  0  0  0  0  0  0  0  0  0  0
   28.2386  -19.4352   -4.1931 C   0  0  0  0  0  0  0  0  0  0  0  0
   27.8636  -18.8187   -5.8543 S   0  0  0  0  0  0  0  0  0  0  0  0
   27.1718  -20.1159   -6.9021 C   0  0  0  0  0  0  0  0  0  0  0  0
   27.0673  -19.6307   -8.3340 C   0  0  0  0  0  0  0  0  0  0  0  0
   26.4598  -20.8020   -9.1174 C   0  0  2  0  0  0  0  0  0  0  0  0
   26.3387  -20.4439  -10.5157 N   0  0  0  0  0  0  0  0  0  0  0  0
   25.0893  -20.9932   -8.5805 C   0  0  0  0  0  0  0  0  0  0  0  0
   24.8706  -21.7478   -7.4300 O   0  0  0  0  0  0  0  0  0  0  0  0
   24.0626  -20.4948   -9.1219 O   0  0  0  0  0  0  0  0  0  0  0  0
  2  1  1  1
  2  3  1  0
  4  3  1  0
  5  4  2  0
  6  5  1  0
  7  6  1  0
  7 12  2  0
  8  7  1  0
  9  8  2  0
  9 10  1  0
 10 11  2  0
 11 12  1  0
 12  4  1  0
 13  2  1  0
 14 13  2  0
 15 13  1  0
 16 15  1  0
 16 17  1  6
 17 18  1  0
 18 22  1  0
 19 18  2  0
 20 21  2  0
 20 16  1  0
 23 24  1  0
 24 25  1  0
 25 26  1  0
 27 26  1  1
 27 29  1  0
 27 28  1  0
 28 20  1  0
 29 30  1  0
 31 29  2  0
M  END
$$$$
