WDM.pdb
     RDKit          3D

 31 32  0  0  1  0  0  0  0  0999 V2000
   25.0126  -19.6959  -11.0434 N   0  0  0  0  0  0  0  0  0  0  0  0
   25.6385  -20.9935  -11.3849 C   0  0  1  0  0  0  0  0  0  0  0  0
   25.7310  -21.8009  -10.1260 C   0  0  0  0  0  0  0  0  0  0  0  0
   26.3773  -21.1509   -8.9786 C   0  0  0  0  0  0  0  0  0  0  0  0
   25.7396  -20.5557   -7.8809 C   0  0  0  0  0  0  0  0  0  0  0  0
   26.6393  -20.0429   -7.0447 N   0  0  0  0  0  0  0  0  0  0  0  0
   27.8773  -20.2727   -7.5427 C   0  0  0  0  0  0  0  0  0  0  0  0
   29.1222  -19.9501   -7.0423 C   0  0  0  0  0  0  0  0  0  0  0  0
   30.2564  -20.3104   -7.7340 C   0  0  0  0  0  0  0  0  0  0  0  0
   30.1098  -21.0009   -8.9378 C   0  0  0  0  0  0  0  0  0  0  0  0
   28.8678  -21.3128   -9.4204 C   0  0  0  0  0  0  0  0  0  0  0  0
   27.7196  -20.9631   -8.7478 C   0  0  0  0  0  0  0  0  0  0  0  0
   24.9311  -21.6760  -12.4735 C   0  0  0  0  0  0  0  0  0  0  0  0
   23.7059  -21.4915  -12.6065 O   0  0  0  0  0  0  0  0  0  0  0  0
   25.5782  -22.5532  -13.4031 N   0  0  0  0  0  0  0  0  0  0  0  0
   24.8466  -23.0952  -14.5116 C   0  0  1  0  0  0  0  0  0  0  0  0
   25.8303  -23.8784  -15.3909 C   0  0  0  0  0  0  0  0  0  0  0  0
   26.5476  -22.8807  -16.2322 C   0  0  0  0  0  0  0  0  0  0  0  0
   26.1228  -21.7106  -16.3989 O   0  0  0  0  0  0  0  0  0  0  0  0
   23.8014  -24.0673  -14.0756 C   0  0  0  0  0  0  0  0  0  0  0  0
   24.0694  -25.0345  -13.3120 O   0  0  0  0  0  0  0  0  0  0  0  0
   27.7284  -23.2346  -16.8632 O   0  0  0  0  0  0  0  0  0  0  0  0
   18.9560  -23.4969  -10.0817 C   0  0  0  0  0  0  0  0  0  0  0  0
   18.1696  -24.0874  -11.6026 S   0  0  0  0  0  0  0  0  0  0  0  0
   19.3512  -24.9323  -12.6747 C   0  0  0  0  0  0  0  0  0  0  0  0
   20.4315  -23.9686  -13.1232 C   0  0  0  0  0  0  0  0  0  0  0  0
   21.3872  -24.8020  -13.9874 C   0  0  2  0  0  0  0  0  0  0  0  0
   22.4481  -23.9572  -14.4963 N   0  0  0  0  0  0  0  0  0  0  0  0
   20.5914  -25.2747  -15.1476 C   0  0  0  0  0  0  0  0  0  0  0  0
   19.8048  -26.4209  -15.0562 O   0  0  0  0  0  0  0  0  0  0  0  0
   20.5796  -24.6799  -16.2620 O   0  0  0  0  0  0  0  0  0  0  0  0
  2  1  1  1
  2  3  1  0
  4  3  1  0
  5  4  2  0
  6  5  1  0
  7  6  1  0
  7 12  2  0
  8  7  1  0
  9  8  2  0
  9 10  1  0
 10 11  2  0
 11 12  1  0
 12  4  1  0
 13  2  1  0
 14 13  2  0
 15 13  1  0
 16 15  1  0
 16 17  1  6
 17 18  1  0
 18 22  1  0
 19 18  2  0
 20 21  2  0
 20 16  1  0
 23 24  1  0
 24 25  1  0
 25 26  1  0
 27 26  1  1
 27 29  1  0
 27 28  1  0
 28 20  1  0
 29 30  1  0
 31 29  2  0
M  END
$$$$
