WDM.pdb
     RDKit          3D

 31 32  0  0  1  0  0  0  0  0999 V2000
   28.4140  -20.3159   -9.7387 N   0  0  0  0  0  0  0  0  0  0  0  0
   27.1215  -21.0343   -9.6648 C   0  0  1  0  0  0  0  0  0  0  0  0
   26.3236  -20.4250   -8.5525 C   0  0  0  0  0  0  0  0  0  0  0  0
   27.0844  -19.7241   -7.5102 C   0  0  0  0  0  0  0  0  0  0  0  0
   27.3847  -18.3552   -7.4655 C   0  0  0  0  0  0  0  0  0  0  0  0
   28.1135  -18.0757   -6.3874 N   0  0  0  0  0  0  0  0  0  0  0  0
   28.3192  -19.2195   -5.6925 C   0  0  0  0  0  0  0  0  0  0  0  0
   28.9966  -19.4450   -4.5116 C   0  0  0  0  0  0  0  0  0  0  0  0
   29.0561  -20.7149   -3.9839 C   0  0  0  0  0  0  0  0  0  0  0  0
   28.4200  -21.7503   -4.6700 C   0  0  0  0  0  0  0  0  0  0  0  0
   27.7527  -21.5099   -5.8404 C   0  0  0  0  0  0  0  0  0  0  0  0
   27.6798  -20.2497   -6.3878 C   0  0  0  0  0  0  0  0  0  0  0  0
   26.4236  -21.0455  -10.9548 C   0  0  0  0  0  0  0  0  0  0  0  0
   26.5680  -20.0789  -11.7277 O   0  0  0  0  0  0  0  0  0  0  0  0
   25.5754  -22.1187  -11.3803 N   0  0  0  0  0  0  0  0  0  0  0  0
   24.9329  -22.0650  -12.6618 C   0  0  1  0  0  0  0  0  0  0  0  0
   24.6844  -23.5055  -13.1279 C   0  0  0  0  0  0  0  0  0  0  0  0
   24.1095  -23.4235  -14.4992 C   0  0  0  0  0  0  0  0  0  0  0  0
   24.7543  -22.9623  -15.4733 O   0  0  0  0  0  0  0  0  0  0  0  0
   23.5962  -21.4047  -12.5945 C   0  0  0  0  0  0  0  0  0  0  0  0
   22.8344  -21.5444  -11.5992 O   0  0  0  0  0  0  0  0  0  0  0  0
   22.8182  -23.8665  -14.7316 O   0  0  0  0  0  0  0  0  0  0  0  0
   19.4676  -15.6020  -12.8767 C   0  0  0  0  0  0  0  0  0  0  0  0
   20.9739  -16.5201  -13.2869 S   0  0  0  0  0  0  0  0  0  0  0  0
   20.6244  -17.9107  -14.3840 C   0  0  0  0  0  0  0  0  0  0  0  0
   21.8865  -18.7134  -14.6283 C   0  0  0  0  0  0  0  0  0  0  0  0
   21.8939  -19.8000  -13.5449 C   0  0  2  0  0  0  0  0  0  0  0  0
   23.1080  -20.5833  -13.6469 N   0  0  0  0  0  0  0  0  0  0  0  0
   20.7515  -20.6972  -13.8499 C   0  0  0  0  0  0  0  0  0  0  0  0
   19.5142  -20.5138  -13.2367 O   0  0  0  0  0  0  0  0  0  0  0  0
   20.8306  -21.6589  -14.6653 O   0  0  0  0  0  0  0  0  0  0  0  0
  2  1  1  6
  2  3  1  0
  4  3  1  0
  5  4  2  0
  6  5  1  0
  7  6  1  0
  7 12  2  0
  8  7  1  0
  9  8  2  0
  9 10  1  0
 10 11  2  0
 11 12  1  0
 12  4  1  0
 13  2  1  0
 14 13  2  0
 15 13  1  0
 16 15  1  0
 16 17  1  1
 17 18  1  0
 18 22  1  0
 19 18  2  0
 20 21  2  0
 20 16  1  0
 23 24  1  0
 24 25  1  0
 25 26  1  0
 27 26  1  6
 27 29  1  0
 27 28  1  0
 28 20  1  0
 29 30  1  0
 31 29  2  0
M  END
$$$$
