WDM.pdb
     RDKit          3D

 31 32  0  0  1  0  0  0  0  0999 V2000
   25.8038  -19.8579  -15.8830 N   0  0  0  0  0  0  0  0  0  0  0  0
   24.6384  -19.0006  -15.5680 C   0  0  1  0  0  0  0  0  0  0  0  0
   24.3447  -18.1670  -16.7780 C   0  0  0  0  0  0  0  0  0  0  0  0
   25.4170  -17.2717  -17.2309 C   0  0  0  0  0  0  0  0  0  0  0  0
   26.0766  -17.3087  -18.4676 C   0  0  0  0  0  0  0  0  0  0  0  0
   27.0110  -16.3622  -18.5228 N   0  0  0  0  0  0  0  0  0  0  0  0
   27.0070  -15.6779  -17.3544 C   0  0  0  0  0  0  0  0  0  0  0  0
   27.7728  -14.6092  -16.9353 C   0  0  0  0  0  0  0  0  0  0  0  0
   27.5701  -14.0646  -15.6876 C   0  0  0  0  0  0  0  0  0  0  0  0
   26.5816  -14.6185  -14.8730 C   0  0  0  0  0  0  0  0  0  0  0  0
   25.8311  -15.6787  -15.3035 C   0  0  0  0  0  0  0  0  0  0  0  0
   26.0153  -16.2406  -16.5458 C   0  0  0  0  0  0  0  0  0  0  0  0
   23.4908  -19.7833  -15.0974 C   0  0  0  0  0  0  0  0  0  0  0  0
   23.4519  -21.0046  -15.3418 O   0  0  0  0  0  0  0  0  0  0  0  0
   22.3994  -19.2150  -14.3638 N   0  0  0  0  0  0  0  0  0  0  0  0
   21.3802  -20.0628  -13.8157 C   0  0  1  0  0  0  0  0  0  0  0  0
   20.9828  -19.5003  -12.4447 C   0  0  0  0  0  0  0  0  0  0  0  0
   20.0868  -18.3379  -12.6970 C   0  0  0  0  0  0  0  0  0  0  0  0
   18.9565  -18.2300  -12.1601 O   0  0  0  0  0  0  0  0  0  0  0  0
   20.1415  -20.0650  -14.6482 C   0  0  0  0  0  0  0  0  0  0  0  0
   19.7825  -19.0529  -15.3095 O   0  0  0  0  0  0  0  0  0  0  0  0
   20.4946  -17.3273  -13.5513 O   0  0  0  0  0  0  0  0  0  0  0  0
   19.6272  -25.2848  -18.7796 C   0  0  0  0  0  0  0  0  0  0  0  0
   18.6122  -24.8469  -17.3449 S   0  0  0  0  0  0  0  0  0  0  0  0
   18.8528  -23.1235  -16.8642 C   0  0  0  0  0  0  0  0  0  0  0  0
   17.7557  -22.6882  -15.9135 C   0  0  0  0  0  0  0  0  0  0  0  0
   18.0914  -21.2379  -15.5412 C   0  0  2  0  0  0  0  0  0  0  0  0
   19.2988  -21.2059  -14.7416 N   0  0  0  0  0  0  0  0  0  0  0  0
   16.9738  -20.7592  -14.6899 C   0  0  0  0  0  0  0  0  0  0  0  0
   15.7658  -20.3566  -15.2549 O   0  0  0  0  0  0  0  0  0  0  0  0
   17.0490  -20.6897  -13.4308 O   0  0  0  0  0  0  0  0  0  0  0  0
  2  1  1  6
  2  3  1  0
  4  3  1  0
  5  4  2  0
  6  5  1  0
  7  6  1  0
  7 12  2  0
  8  7  1  0
  9  8  2  0
  9 10  1  0
 10 11  2  0
 11 12  1  0
 12  4  1  0
 13  2  1  0
 14 13  2  0
 15 13  1  0
 16 15  1  0
 16 17  1  1
 17 18  1  0
 18 22  1  0
 19 18  2  0
 20 21  2  0
 20 16  1  0
 23 24  1  0
 24 25  1  0
 25 26  1  0
 27 26  1  1
 27 29  1  0
 27 28  1  0
 28 20  1  0
 29 30  1  0
 31 29  2  0
M  END
$$$$
