WDM.pdb
     RDKit          3D

 31 32  0  0  1  0  0  0  0  0999 V2000
   24.3265  -19.1368  -16.4562 N   0  0  0  0  0  0  0  0  0  0  0  0
   24.4789  -18.8196  -15.0180 C   0  0  1  0  0  0  0  0  0  0  0  0
   23.1510  -18.3440  -14.5123 C   0  0  0  0  0  0  0  0  0  0  0  0
   22.5616  -17.1920  -15.2067 C   0  0  0  0  0  0  0  0  0  0  0  0
   21.3472  -17.1640  -15.9070 C   0  0  0  0  0  0  0  0  0  0  0  0
   21.1422  -15.9576  -16.4307 N   0  0  0  0  0  0  0  0  0  0  0  0
   22.1862  -15.1588  -16.1059 C   0  0  0  0  0  0  0  0  0  0  0  0
   22.4297  -13.8327  -16.3998 C   0  0  0  0  0  0  0  0  0  0  0  0
   23.5741  -13.2240  -15.9370 C   0  0  0  0  0  0  0  0  0  0  0  0
   24.4660  -13.9783  -15.1734 C   0  0  0  0  0  0  0  0  0  0  0  0
   24.2099  -15.2927  -14.8913 C   0  0  0  0  0  0  0  0  0  0  0  0
   23.0736  -15.9232  -15.3430 C   0  0  0  0  0  0  0  0  0  0  0  0
   25.0291  -19.9488  -14.2608 C   0  0  0  0  0  0  0  0  0  0  0  0
   24.2883  -20.9144  -13.9930 O   0  0  0  0  0  0  0  0  0  0  0  0
   26.3868  -20.0039  -13.8068 N   0  0  0  0  0  0  0  0  0  0  0  0
   26.7799  -20.9740  -12.8259 C   0  0  1  0  0  0  0  0  0  0  0  0
   28.1225  -21.5736  -13.2644 C   0  0  0  0  0  0  0  0  0  0  0  0
   28.0416  -21.7860  -14.7361 C   0  0  0  0  0  0  0  0  0  0  0  0
   27.3165  -22.6737  -15.2495 O   0  0  0  0  0  0  0  0  0  0  0  0
   27.0080  -20.3591  -11.4853 C   0  0  0  0  0  0  0  0  0  0  0  0
   28.0684  -19.7337  -11.2119 O   0  0  0  0  0  0  0  0  0  0  0  0
   28.7847  -20.9868  -15.5886 O   0  0  0  0  0  0  0  0  0  0  0  0
   29.5400  -18.8628   -6.7153 C   0  0  0  0  0  0  0  0  0  0  0  0
   28.1633  -19.6195   -5.8138 S   0  0  0  0  0  0  0  0  0  0  0  0
   27.1292  -20.6215   -6.9028 C   0  0  0  0  0  0  0  0  0  0  0  0
   27.1865  -20.0834   -8.3184 C   0  0  0  0  0  0  0  0  0  0  0  0
   26.3217  -21.0383   -9.1521 C   0  0  2  0  0  0  0  0  0  0  0  0
   26.0444  -20.4443  -10.4438 N   0  0  0  0  0  0  0  0  0  0  0  0
   25.0320  -21.1677   -8.4290 C   0  0  0  0  0  0  0  0  0  0  0  0
   23.8341  -20.7852   -9.0287 O   0  0  0  0  0  0  0  0  0  0  0  0
   24.9448  -21.6221   -7.2536 O   0  0  0  0  0  0  0  0  0  0  0  0
  2  1  1  6
  2  3  1  0
  4  3  1  0
  5  4  2  0
  6  5  1  0
  7  6  1  0
  7 12  2  0
  8  7  1  0
  9  8  2  0
  9 10  1  0
 10 11  2  0
 11 12  1  0
 12  4  1  0
 13  2  1  0
 14 13  2  0
 15 13  1  0
 16 15  1  0
 16 17  1  6
 17 18  1  0
 18 22  1  0
 19 18  2  0
 20 21  2  0
 20 16  1  0
 23 24  1  0
 24 25  1  0
 25 26  1  0
 27 26  1  1
 27 29  1  0
 27 28  1  0
 28 20  1  0
 29 30  1  0
 31 29  2  0
M  END
$$$$
