WDM.pdb
     RDKit          3D

 31 32  0  0  1  0  0  0  0  0999 V2000
   24.3102  -18.4776  -16.5002 N   0  0  0  0  0  0  0  0  0  0  0  0
   22.8332  -18.3961  -16.4369 C   0  0  1  0  0  0  0  0  0  0  0  0
   22.3017  -18.6697  -17.8109 C   0  0  0  0  0  0  0  0  0  0  0  0
   22.7704  -17.7811  -18.8820 C   0  0  0  0  0  0  0  0  0  0  0  0
   23.8431  -18.0104  -19.7553 C   0  0  0  0  0  0  0  0  0  0  0  0
   23.9964  -16.9785  -20.5818 N   0  0  0  0  0  0  0  0  0  0  0  0
   23.0547  -16.0483  -20.2963 C   0  0  0  0  0  0  0  0  0  0  0  0
   22.7958  -14.8231  -20.8759 C   0  0  0  0  0  0  0  0  0  0  0  0
   21.7552  -14.0494  -20.4142 C   0  0  0  0  0  0  0  0  0  0  0  0
   20.9829  -14.5356  -19.3584 C   0  0  0  0  0  0  0  0  0  0  0  0
   21.2532  -15.7527  -18.7943 C   0  0  0  0  0  0  0  0  0  0  0  0
   22.2879  -16.5437  -19.2378 C   0  0  0  0  0  0  0  0  0  0  0  0
   22.2774  -19.2753  -15.4029 C   0  0  0  0  0  0  0  0  0  0  0  0
   22.9356  -20.2680  -15.0367 O   0  0  0  0  0  0  0  0  0  0  0  0
   21.0049  -19.0534  -14.7833 N   0  0  0  0  0  0  0  0  0  0  0  0
   20.5858  -19.8739  -13.6837 C   0  0  1  0  0  0  0  0  0  0  0  0
   20.8615  -19.1035  -12.3858 C   0  0  0  0  0  0  0  0  0  0  0  0
   20.4371  -19.9834  -11.2618 C   0  0  0  0  0  0  0  0  0  0  0  0
   20.7661  -21.1936  -11.1927 O   0  0  0  0  0  0  0  0  0  0  0  0
   19.1186  -20.1464  -13.7114 C   0  0  0  0  0  0  0  0  0  0  0  0
   18.2704  -19.2163  -13.7876 O   0  0  0  0  0  0  0  0  0  0  0  0
   19.6506  -19.4694  -10.2445 O   0  0  0  0  0  0  0  0  0  0  0  0
   13.3486  -25.5845  -13.6401 C   0  0  0  0  0  0  0  0  0  0  0  0
   15.0668  -25.2103  -13.2065 S   0  0  0  0  0  0  0  0  0  0  0  0
   15.4727  -23.4827  -13.5382 C   0  0  0  0  0  0  0  0  0  0  0  0
   16.9589  -23.2505  -13.3533 C   0  0  0  0  0  0  0  0  0  0  0  0
   17.1784  -21.7613  -13.6514 C   0  0  2  0  0  0  0  0  0  0  0  0
   18.5967  -21.4673  -13.6531 N   0  0  0  0  0  0  0  0  0  0  0  0
   16.5651  -21.0178  -12.5226 C   0  0  0  0  0  0  0  0  0  0  0  0
   15.3527  -20.3500  -12.6805 O   0  0  0  0  0  0  0  0  0  0  0  0
   17.0933  -20.9476  -11.3772 O   0  0  0  0  0  0  0  0  0  0  0  0
  2  1  1  6
  2  3  1  0
  4  3  1  0
  5  4  2  0
  6  5  1  0
  7  6  1  0
  7 12  2  0
  8  7  1  0
  9  8  2  0
  9 10  1  0
 10 11  2  0
 11 12  1  0
 12  4  1  0
 13  2  1  0
 14 13  2  0
 15 13  1  0
 16 15  1  0
 16 17  1  1
 17 18  1  0
 18 22  1  0
 19 18  2  0
 20 21  2  0
 20 16  1  0
 23 24  1  0
 24 25  1  0
 25 26  1  0
 27 26  1  1
 27 29  1  0
 27 28  1  0
 28 20  1  0
 29 30  1  0
 31 29  2  0
M  END
$$$$
