WDM.pdb
     RDKit          3D

 31 32  0  0  1  0  0  0  0  0999 V2000
   28.0172  -20.4695  -15.0641 N   0  0  0  0  0  0  0  0  0  0  0  0
   27.1867  -21.3004  -14.1629 C   0  0  1  0  0  0  0  0  0  0  0  0
   27.0519  -20.5683  -12.8624 C   0  0  0  0  0  0  0  0  0  0  0  0
   28.3028  -20.1859  -12.1948 C   0  0  0  0  0  0  0  0  0  0  0  0
   28.6694  -18.9015  -11.7684 C   0  0  0  0  0  0  0  0  0  0  0  0
   29.8849  -18.9227  -11.2264 N   0  0  0  0  0  0  0  0  0  0  0  0
   30.3594  -20.1901  -11.2708 C   0  0  0  0  0  0  0  0  0  0  0  0
   31.5543  -20.7192  -10.8276 C   0  0  0  0  0  0  0  0  0  0  0  0
   31.8069  -22.0646  -10.9719 C   0  0  0  0  0  0  0  0  0  0  0  0
   30.8321  -22.8634  -11.5712 C   0  0  0  0  0  0  0  0  0  0  0  0
   29.6525  -22.3229  -12.0059 C   0  0  0  0  0  0  0  0  0  0  0  0
   29.3772  -20.9813  -11.8733 C   0  0  0  0  0  0  0  0  0  0  0  0
   25.9028  -21.6602  -14.7737 C   0  0  0  0  0  0  0  0  0  0  0  0
   25.3418  -20.8412  -15.5269 O   0  0  0  0  0  0  0  0  0  0  0  0
   25.2503  -22.9159  -14.5500 N   0  0  0  0  0  0  0  0  0  0  0  0
   23.8922  -23.1074  -14.9703 C   0  0  1  0  0  0  0  0  0  0  0  0
   23.6604  -24.6132  -15.1517 C   0  0  0  0  0  0  0  0  0  0  0  0
   24.4974  -25.0440  -16.3056 C   0  0  0  0  0  0  0  0  0  0  0  0
   24.5964  -24.3639  -17.3568 O   0  0  0  0  0  0  0  0  0  0  0  0
   22.9139  -22.6490  -13.9406 C   0  0  0  0  0  0  0  0  0  0  0  0
   23.0858  -22.8757  -12.7120 O   0  0  0  0  0  0  0  0  0  0  0  0
   25.2011  -26.2348  -16.2387 O   0  0  0  0  0  0  0  0  0  0  0  0
   21.3875  -16.8064  -13.7972 C   0  0  0  0  0  0  0  0  0  0  0  0
   21.1735  -17.5632  -12.1657 S   0  0  0  0  0  0  0  0  0  0  0  0
   21.3846  -19.3549  -12.2336 C   0  0  0  0  0  0  0  0  0  0  0  0
   20.6502  -19.9225  -13.4316 C   0  0  0  0  0  0  0  0  0  0  0  0
   20.7859  -21.4460  -13.3079 C   0  0  2  0  0  0  0  0  0  0  0  0
   21.7359  -21.9329  -14.2870 N   0  0  0  0  0  0  0  0  0  0  0  0
   19.4563  -22.0097  -13.6505 C   0  0  0  0  0  0  0  0  0  0  0  0
   18.6858  -22.6600  -12.6892 O   0  0  0  0  0  0  0  0  0  0  0  0
   18.9549  -21.9354  -14.8076 O   0  0  0  0  0  0  0  0  0  0  0  0
  2  1  1  6
  2  3  1  0
  4  3  1  0
  5  4  2  0
  6  5  1  0
  7  6  1  0
  7 12  2  0
  8  7  1  0
  9  8  2  0
  9 10  1  0
 10 11  2  0
 11 12  1  0
 12  4  1  0
 13  2  1  0
 14 13  2  0
 15 13  1  0
 16 15  1  0
 16 17  1  1
 17 18  1  0
 18 22  1  0
 19 18  2  0
 20 21  2  0
 20 16  1  0
 23 24  1  0
 24 25  1  0
 25 26  1  0
 27 26  1  6
 27 29  1  0
 27 28  1  0
 28 20  1  0
 29 30  1  0
 31 29  2  0
M  END
$$$$
