WDM.pdb
     RDKit          3D

 31 32  0  0  1  0  0  0  0  0999 V2000
   26.8743  -18.8585  -10.8828 N   0  0  0  0  0  0  0  0  0  0  0  0
   26.8469  -20.2050  -11.4982 C   0  0  1  0  0  0  0  0  0  0  0  0
   26.1763  -21.1344  -10.5329 C   0  0  0  0  0  0  0  0  0  0  0  0
   26.1807  -20.7263   -9.1222 C   0  0  0  0  0  0  0  0  0  0  0  0
   25.0617  -20.4514   -8.3233 C   0  0  0  0  0  0  0  0  0  0  0  0
   25.4434  -20.0855   -7.1017 N   0  0  0  0  0  0  0  0  0  0  0  0
   26.7961  -20.1035   -7.0446 C   0  0  0  0  0  0  0  0  0  0  0  0
   27.6563  -19.8188   -6.0037 C   0  0  0  0  0  0  0  0  0  0  0  0
   29.0164  -19.9254   -6.1861 C   0  0  0  0  0  0  0  0  0  0  0  0
   29.4902  -20.3239   -7.4368 C   0  0  0  0  0  0  0  0  0  0  0  0
   28.6237  -20.6021   -8.4588 C   0  0  0  0  0  0  0  0  0  0  0  0
   27.2605  -20.5023   -8.3012 C   0  0  0  0  0  0  0  0  0  0  0  0
   26.2298  -20.1894  -12.8287 C   0  0  0  0  0  0  0  0  0  0  0  0
   25.1429  -19.5999  -12.9832 O   0  0  0  0  0  0  0  0  0  0  0  0
   26.8141  -20.8218  -13.9737 N   0  0  0  0  0  0  0  0  0  0  0  0
   26.2134  -20.6678  -15.2671 C   0  0  1  0  0  0  0  0  0  0  0  0
   27.2708  -21.0111  -16.3245 C   0  0  0  0  0  0  0  0  0  0  0  0
   28.0779  -22.1378  -15.7796 C   0  0  0  0  0  0  0  0  0  0  0  0
   28.2208  -22.3291  -14.5465 O   0  0  0  0  0  0  0  0  0  0  0  0
   25.0797  -21.6153  -15.4782 C   0  0  0  0  0  0  0  0  0  0  0  0
   25.0567  -22.7556  -14.9400 O   0  0  0  0  0  0  0  0  0  0  0  0
   28.7026  -23.0191  -16.6461 O   0  0  0  0  0  0  0  0  0  0  0  0
   18.9160  -19.6623  -15.5010 C   0  0  0  0  0  0  0  0  0  0  0  0
   18.9692  -21.3973  -14.9839 S   0  0  0  0  0  0  0  0  0  0  0  0
   20.4306  -22.2370  -15.6309 C   0  0  0  0  0  0  0  0  0  0  0  0
   21.6061  -21.2814  -15.6737 C   0  0  0  0  0  0  0  0  0  0  0  0
   22.7470  -22.0689  -16.3318 C   0  0  2  0  0  0  0  0  0  0  0  0
   23.9650  -21.2858  -16.2963 N   0  0  0  0  0  0  0  0  0  0  0  0
   22.3637  -22.2424  -17.7551 C   0  0  0  0  0  0  0  0  0  0  0  0
   21.9167  -23.4732  -18.2307 O   0  0  0  0  0  0  0  0  0  0  0  0
   22.4184  -21.3062  -18.6014 O   0  0  0  0  0  0  0  0  0  0  0  0
  2  1  1  1
  2  3  1  0
  4  3  1  0
  5  4  2  0
  6  5  1  0
  7  6  1  0
  7 12  2  0
  8  7  1  0
  9  8  2  0
  9 10  1  0
 10 11  2  0
 11 12  1  0
 12  4  1  0
 13  2  1  0
 14 13  2  0
 15 13  1  0
 16 15  1  0
 16 17  1  6
 17 18  1  0
 18 22  1  0
 19 18  2  0
 20 21  2  0
 20 16  1  0
 23 24  1  0
 24 25  1  0
 25 26  1  0
 27 26  1  1
 27 29  1  0
 27 28  1  0
 28 20  1  0
 29 30  1  0
 31 29  2  0
M  END
$$$$
