WDM.pdb
     RDKit          3D

 31 32  0  0  1  0  0  0  0  0999 V2000
   27.8973  -22.0562  -13.1011 N   0  0  0  0  0  0  0  0  0  0  0  0
   26.6535  -21.7300  -12.3670 C   0  0  1  0  0  0  0  0  0  0  0  0
   26.8802  -20.4428  -11.6343 C   0  0  0  0  0  0  0  0  0  0  0  0
   27.9140  -20.4576  -10.5913 C   0  0  0  0  0  0  0  0  0  0  0  0
   29.3027  -20.4682  -10.7844 C   0  0  0  0  0  0  0  0  0  0  0  0
   29.9330  -20.5066   -9.6127 N   0  0  0  0  0  0  0  0  0  0  0  0
   29.0100  -20.5222   -8.6221 C   0  0  0  0  0  0  0  0  0  0  0  0
   29.1626  -20.5480   -7.2509 C   0  0  0  0  0  0  0  0  0  0  0  0
   28.0542  -20.5429   -6.4348 C   0  0  0  0  0  0  0  0  0  0  0  0
   26.7917  -20.5114   -7.0286 C   0  0  0  0  0  0  0  0  0  0  0  0
   26.6576  -20.4866   -8.3902 C   0  0  0  0  0  0  0  0  0  0  0  0
   27.7501  -20.4917   -9.2266 C   0  0  0  0  0  0  0  0  0  0  0  0
   25.4828  -21.7084  -13.2504 C   0  0  0  0  0  0  0  0  0  0  0  0
   25.3378  -20.7531  -14.0372 O   0  0  0  0  0  0  0  0  0  0  0  0
   24.4853  -22.7366  -13.2588 N   0  0  0  0  0  0  0  0  0  0  0  0
   23.4602  -22.7382  -14.2622 C   0  0  1  0  0  0  0  0  0  0  0  0
   23.0498  -24.1943  -14.5179 C   0  0  0  0  0  0  0  0  0  0  0  0
   24.1620  -24.8306  -15.2767 C   0  0  0  0  0  0  0  0  0  0  0  0
   24.6590  -25.9350  -14.9439 O   0  0  0  0  0  0  0  0  0  0  0  0
   22.2297  -22.0238  -13.8117 C   0  0  0  0  0  0  0  0  0  0  0  0
   21.7639  -22.1696  -12.6489 O   0  0  0  0  0  0  0  0  0  0  0  0
   24.6826  -24.1990  -16.3937 O   0  0  0  0  0  0  0  0  0  0  0  0
   18.2177  -16.4972  -12.1468 C   0  0  0  0  0  0  0  0  0  0  0  0
   19.6724  -17.3750  -12.7742 S   0  0  0  0  0  0  0  0  0  0  0  0
   19.3493  -18.1281  -14.3828 C   0  0  0  0  0  0  0  0  0  0  0  0
   20.5655  -18.9017  -14.8512 C   0  0  0  0  0  0  0  0  0  0  0  0
   20.4383  -20.2888  -14.2073 C   0  0  2  0  0  0  0  0  0  0  0  0
   21.5154  -21.1412  -14.6669 N   0  0  0  0  0  0  0  0  0  0  0  0
   19.1642  -20.8627  -14.7074 C   0  0  0  0  0  0  0  0  0  0  0  0
   17.9952  -20.7732  -13.9550 O   0  0  0  0  0  0  0  0  0  0  0  0
   19.0654  -21.4532  -15.8198 O   0  0  0  0  0  0  0  0  0  0  0  0
  2  1  1  6
  2  3  1  0
  4  3  1  0
  5  4  2  0
  6  5  1  0
  7  6  1  0
  7 12  2  0
  8  7  1  0
  9  8  2  0
  9 10  1  0
 10 11  2  0
 11 12  1  0
 12  4  1  0
 13  2  1  0
 14 13  2  0
 15 13  1  0
 16 15  1  0
 16 17  1  1
 17 18  1  0
 18 22  1  0
 19 18  2  0
 20 21  2  0
 20 16  1  0
 23 24  1  0
 24 25  1  0
 25 26  1  0
 27 26  1  6
 27 29  1  0
 27 28  1  0
 28 20  1  0
 29 30  1  0
 31 29  2  0
M  END
$$$$
