WDM.pdb
     RDKit          3D

 31 32  0  0  1  0  0  0  0  0999 V2000
   19.1626  -23.5425  -10.3547 N   0  0  0  0  0  0  0  0  0  0  0  0
   19.5312  -23.4588   -8.9232 C   0  0  1  0  0  0  0  0  0  0  0  0
   19.7067  -22.0106   -8.5810 C   0  0  0  0  0  0  0  0  0  0  0  0
   20.8390  -21.3220   -9.2136 C   0  0  0  0  0  0  0  0  0  0  0  0
   20.8017  -20.5314  -10.3710 C   0  0  0  0  0  0  0  0  0  0  0  0
   22.0208  -20.0874  -10.6682 N   0  0  0  0  0  0  0  0  0  0  0  0
   22.8918  -20.5542   -9.7425 C   0  0  0  0  0  0  0  0  0  0  0  0
   24.2521  -20.3631   -9.6104 C   0  0  0  0  0  0  0  0  0  0  0  0
   24.9289  -20.9378   -8.5585 C   0  0  0  0  0  0  0  0  0  0  0  0
   24.2075  -21.7074   -7.6450 C   0  0  0  0  0  0  0  0  0  0  0  0
   22.8588  -21.8876   -7.7907 C   0  0  0  0  0  0  0  0  0  0  0  0
   22.1604  -21.3241   -8.8337 C   0  0  0  0  0  0  0  0  0  0  0  0
   18.5673  -24.1557   -8.0651 C   0  0  0  0  0  0  0  0  0  0  0  0
   17.3499  -23.9496   -8.2333 O   0  0  0  0  0  0  0  0  0  0  0  0
   18.9522  -25.0709   -7.0323 N   0  0  0  0  0  0  0  0  0  0  0  0
   17.9513  -25.7559   -6.2664 C   0  0  1  0  0  0  0  0  0  0  0  0
   18.5753  -27.0454   -5.7169 C   0  0  0  0  0  0  0  0  0  0  0  0
   17.4804  -27.8086   -5.0562 C   0  0  0  0  0  0  0  0  0  0  0  0
   17.4944  -28.0813   -3.8303 O   0  0  0  0  0  0  0  0  0  0  0  0
   17.5065  -24.9626   -5.0830 C   0  0  0  0  0  0  0  0  0  0  0  0
   18.3267  -24.3515   -4.3454 O   0  0  0  0  0  0  0  0  0  0  0  0
   16.3975  -28.2434   -5.8018 O   0  0  0  0  0  0  0  0  0  0  0  0
   11.5985  -21.3285   -1.3065 C   0  0  0  0  0  0  0  0  0  0  0  0
   12.0528  -22.4806   -2.6281 S   0  0  0  0  0  0  0  0  0  0  0  0
   13.8141  -22.8748   -2.5871 C   0  0  0  0  0  0  0  0  0  0  0  0
   14.1929  -23.7011   -3.7998 C   0  0  0  0  0  0  0  0  0  0  0  0
   15.6713  -24.0611   -3.6014 C   0  0  2  0  0  0  0  0  0  0  0  0
   16.1360  -24.8522   -4.7222 N   0  0  0  0  0  0  0  0  0  0  0  0
   15.7307  -24.9166   -2.3900 C   0  0  0  0  0  0  0  0  0  0  0  0
   16.0460  -24.3745   -1.1461 O   0  0  0  0  0  0  0  0  0  0  0  0
   15.5040  -26.1592   -2.4135 O   0  0  0  0  0  0  0  0  0  0  0  0
  2  1  1  6
  2  3  1  0
  4  3  1  0
  5  4  2  0
  6  5  1  0
  7  6  1  0
  7 12  2  0
  8  7  1  0
  9  8  2  0
  9 10  1  0
 10 11  2  0
 11 12  1  0
 12  4  1  0
 13  2  1  0
 14 13  2  0
 15 13  1  0
 16 15  1  0
 16 17  1  1
 17 18  1  0
 18 22  1  0
 19 18  2  0
 20 21  2  0
 20 16  1  0
 23 24  1  0
 24 25  1  0
 25 26  1  0
 27 26  1  6
 27 29  1  0
 27 28  1  0
 28 20  1  0
 29 30  1  0
 31 29  2  0
M  END
$$$$
