WDM.pdb
     RDKit          3D

 31 32  0  0  1  0  0  0  0  0999 V2000
   25.8521  -19.5240  -11.3092 N   0  0  0  0  0  0  0  0  0  0  0  0
   26.1401  -20.9026  -11.7661 C   0  0  1  0  0  0  0  0  0  0  0  0
   26.3029  -21.7619  -10.5494 C   0  0  0  0  0  0  0  0  0  0  0  0
   26.5923  -21.0640   -9.2901 C   0  0  0  0  0  0  0  0  0  0  0  0
   25.7049  -20.2775   -8.5419 C   0  0  0  0  0  0  0  0  0  0  0  0
   26.3177  -19.7798   -7.4702 N   0  0  0  0  0  0  0  0  0  0  0  0
   27.6027  -20.2066   -7.4661 C   0  0  0  0  0  0  0  0  0  0  0  0
   28.6246  -19.9748   -6.5681 C   0  0  0  0  0  0  0  0  0  0  0  0
   29.8626  -20.5404   -6.7732 C   0  0  0  0  0  0  0  0  0  0  0  0
   30.0485  -21.3425   -7.8999 C   0  0  0  0  0  0  0  0  0  0  0  0
   29.0248  -21.5619   -8.7811 C   0  0  0  0  0  0  0  0  0  0  0  0
   27.7790  -21.0073   -8.5981 C   0  0  0  0  0  0  0  0  0  0  0  0
   25.1262  -21.3942  -12.7049 C   0  0  0  0  0  0  0  0  0  0  0  0
   23.9508  -20.9980  -12.5862 O   0  0  0  0  0  0  0  0  0  0  0  0
   25.4158  -22.3155  -13.7632 N   0  0  0  0  0  0  0  0  0  0  0  0
   24.3853  -22.7046  -14.6821 C   0  0  1  0  0  0  0  0  0  0  0  0
   25.0223  -23.5907  -15.7607 C   0  0  0  0  0  0  0  0  0  0  0  0
   25.6377  -22.6774  -16.7632 C   0  0  0  0  0  0  0  0  0  0  0  0
   25.3577  -21.4545  -16.8213 O   0  0  0  0  0  0  0  0  0  0  0  0
   23.3277  -23.5288  -14.0266 C   0  0  0  0  0  0  0  0  0  0  0  0
   23.5932  -24.6238  -13.4604 O   0  0  0  0  0  0  0  0  0  0  0  0
   26.5549  -23.1735  -17.6743 O   0  0  0  0  0  0  0  0  0  0  0  0
   16.1732  -23.7196  -10.7226 C   0  0  0  0  0  0  0  0  0  0  0  0
   17.3263  -22.7804  -11.7564 S   0  0  0  0  0  0  0  0  0  0  0  0
   18.7760  -23.7635  -12.1935 C   0  0  0  0  0  0  0  0  0  0  0  0
   19.7539  -22.9256  -12.9924 C   0  0  0  0  0  0  0  0  0  0  0  0
   20.9313  -23.8595  -13.3028 C   0  0  2  0  0  0  0  0  0  0  0  0
   21.9647  -23.1260  -14.0045 N   0  0  0  0  0  0  0  0  0  0  0  0
   20.4063  -24.8950  -14.2275 C   0  0  0  0  0  0  0  0  0  0  0  0
   20.0016  -26.1401  -13.7516 O   0  0  0  0  0  0  0  0  0  0  0  0
   20.2974  -24.7138  -15.4729 O   0  0  0  0  0  0  0  0  0  0  0  0
  2  1  1  1
  2  3  1  0
  4  3  1  0
  5  4  2  0
  6  5  1  0
  7  6  1  0
  7 12  2  0
  8  7  1  0
  9  8  2  0
  9 10  1  0
 10 11  2  0
 11 12  1  0
 12  4  1  0
 13  2  1  0
 14 13  2  0
 15 13  1  0
 16 15  1  0
 16 17  1  6
 17 18  1  0
 18 22  1  0
 19 18  2  0
 20 21  2  0
 20 16  1  0
 23 24  1  0
 24 25  1  0
 25 26  1  0
 27 26  1  6
 27 29  1  0
 27 28  1  0
 28 20  1  0
 29 30  1  0
 31 29  2  0
M  END
$$$$
