WDM.pdb
     RDKit          3D

 31 32  0  0  1  0  0  0  0  0999 V2000
   15.7382  -16.9879    3.1910 N   0  0  0  0  0  0  0  0  0  0  0  0
   16.2990  -17.8584    4.2493 C   0  0  1  0  0  0  0  0  0  0  0  0
   17.5292  -18.5125    3.6980 C   0  0  0  0  0  0  0  0  0  0  0  0
   17.3267  -19.4621    2.5962 C   0  0  0  0  0  0  0  0  0  0  0  0
   17.4027  -19.1857    1.2237 C   0  0  0  0  0  0  0  0  0  0  0  0
   17.1367  -20.2807    0.5152 N   0  0  0  0  0  0  0  0  0  0  0  0
   16.8807  -21.3001    1.3689 C   0  0  0  0  0  0  0  0  0  0  0  0
   16.5690  -22.6218    1.1238 C   0  0  0  0  0  0  0  0  0  0  0  0
   16.3643  -23.4870    2.1746 C   0  0  0  0  0  0  0  0  0  0  0  0
   16.4801  -22.9930    3.4746 C   0  0  0  0  0  0  0  0  0  0  0  0
   16.7895  -21.6792    3.7006 C   0  0  0  0  0  0  0  0  0  0  0  0
   16.9979  -20.7953    2.6670 C   0  0  0  0  0  0  0  0  0  0  0  0
   16.5291  -17.1263    5.4992 C   0  0  0  0  0  0  0  0  0  0  0  0
   17.3512  -16.1898    5.5078 O   0  0  0  0  0  0  0  0  0  0  0  0
   15.8534  -17.4317    6.7250 N   0  0  0  0  0  0  0  0  0  0  0  0
   16.1146  -16.6578    7.9042 C   0  0  1  0  0  0  0  0  0  0  0  0
   14.8544  -16.6875    8.7790 C   0  0  0  0  0  0  0  0  0  0  0  0
   15.0955  -15.7575    9.9169 C   0  0  0  0  0  0  0  0  0  0  0  0
   15.1144  -16.1455   11.1113 O   0  0  0  0  0  0  0  0  0  0  0  0
   17.2157  -17.2391    8.7271 C   0  0  0  0  0  0  0  0  0  0  0  0
   17.3823  -18.4848    8.8309 O   0  0  0  0  0  0  0  0  0  0  0  0
   15.3092  -14.4114    9.6721 O   0  0  0  0  0  0  0  0  0  0  0  0
   23.5715  -17.9170    7.3261 C   0  0  0  0  0  0  0  0  0  0  0  0
   22.7738  -16.7484    8.4568 S   0  0  0  0  0  0  0  0  0  0  0  0
   21.1324  -17.3174    8.9482 C   0  0  0  0  0  0  0  0  0  0  0  0
   20.5216  -16.3524    9.9444 C   0  0  0  0  0  0  0  0  0  0  0  0
   19.1598  -16.9560   10.3133 C   0  0  2  0  0  0  0  0  0  0  0  0
   18.1359  -16.4222    9.4388 N   0  0  0  0  0  0  0  0  0  0  0  0
   18.8613  -16.4938   11.6918 C   0  0  0  0  0  0  0  0  0  0  0  0
   19.6005  -16.9578   12.7777 O   0  0  0  0  0  0  0  0  0  0  0  0
   17.9403  -15.6709   11.9573 O   0  0  0  0  0  0  0  0  0  0  0  0
  2  1  1  6
  2  3  1  0
  4  3  1  0
  5  4  2  0
  6  5  1  0
  7  6  1  0
  7 12  2  0
  8  7  1  0
  9  8  2  0
  9 10  1  0
 10 11  2  0
 11 12  1  0
 12  4  1  0
 13  2  1  0
 14 13  2  0
 15 13  1  0
 16 15  1  0
 16 17  1  1
 17 18  1  0
 18 22  1  0
 19 18  2  0
 20 21  2  0
 20 16  1  0
 23 24  1  0
 24 25  1  0
 25 26  1  0
 27 26  1  6
 27 29  1  0
 27 28  1  0
 28 20  1  0
 29 30  1  0
 31 29  2  0
M  END
$$$$
