WDM.pdb
     RDKit          3D

 31 32  0  0  1  0  0  0  0  0999 V2000
   21.2480   -5.2528  -19.3766 N   0  0  0  0  0  0  0  0  0  0  0  0
   20.2372   -5.2368  -18.2948 C   0  0  1  0  0  0  0  0  0  0  0  0
   18.9556   -4.7214  -18.8754 C   0  0  0  0  0  0  0  0  0  0  0  0
   18.9874   -3.3594  -19.4236 C   0  0  0  0  0  0  0  0  0  0  0  0
   19.3256   -2.9879  -20.7326 C   0  0  0  0  0  0  0  0  0  0  0  0
   19.2709   -1.6649  -20.8675 N   0  0  0  0  0  0  0  0  0  0  0  0
   18.9031   -1.1214  -19.6831 C   0  0  0  0  0  0  0  0  0  0  0  0
   18.6979    0.1947  -19.3224 C   0  0  0  0  0  0  0  0  0  0  0  0
   18.3047    0.5036  -18.0400 C   0  0  0  0  0  0  0  0  0  0  0  0
   18.1232   -0.5394  -17.1309 C   0  0  0  0  0  0  0  0  0  0  0  0
   18.3313   -1.8393  -17.5045 C   0  0  0  0  0  0  0  0  0  0  0  0
   18.7251   -2.1731  -18.7799 C   0  0  0  0  0  0  0  0  0  0  0  0
   20.1069   -6.5448  -17.6442 C   0  0  0  0  0  0  0  0  0  0  0  0
   20.4838   -7.5633  -18.2551 O   0  0  0  0  0  0  0  0  0  0  0  0
   19.5639   -6.7183  -16.3298 N   0  0  0  0  0  0  0  0  0  0  0  0
   19.4666   -8.0301  -15.7576 C   0  0  1  0  0  0  0  0  0  0  0  0
   19.6433   -7.8988  -14.2391 C   0  0  0  0  0  0  0  0  0  0  0  0
   21.1086   -7.8709  -13.9748 C   0  0  0  0  0  0  0  0  0  0  0  0
   21.9587   -8.1092  -14.8680 O   0  0  0  0  0  0  0  0  0  0  0  0
   18.1231   -8.6420  -15.9766 C   0  0  0  0  0  0  0  0  0  0  0  0
   17.0667   -7.9536  -15.9538 O   0  0  0  0  0  0  0  0  0  0  0  0
   21.5732   -7.5735  -12.7046 O   0  0  0  0  0  0  0  0  0  0  0  0
   13.9064  -15.0931  -17.8480 C   0  0  0  0  0  0  0  0  0  0  0  0
   15.5479  -14.3323  -17.7635 S   0  0  0  0  0  0  0  0  0  0  0  0
   15.4675  -12.6546  -17.1018 C   0  0  0  0  0  0  0  0  0  0  0  0
   16.8654  -12.1044  -16.9015 C   0  0  0  0  0  0  0  0  0  0  0  0
   16.6697  -10.6545  -16.4388 C   0  0  2  0  0  0  0  0  0  0  0  0
   17.9598  -10.0326  -16.2223 N   0  0  0  0  0  0  0  0  0  0  0  0
   15.9785  -10.7275  -15.1274 C   0  0  0  0  0  0  0  0  0  0  0  0
   14.5890  -10.6683  -15.0467 O   0  0  0  0  0  0  0  0  0  0  0  0
   16.5944  -10.8453  -14.0307 O   0  0  0  0  0  0  0  0  0  0  0  0
  2  1  1  6
  2  3  1  0
  4  3  1  0
  5  4  2  0
  6  5  1  0
  7  6  1  0
  7 12  2  0
  8  7  1  0
  9  8  2  0
  9 10  1  0
 10 11  2  0
 11 12  1  0
 12  4  1  0
 13  2  1  0
 14 13  2  0
 15 13  1  0
 16 15  1  0
 16 17  1  1
 17 18  1  0
 18 22  1  0
 19 18  2  0
 20 21  2  0
 20 16  1  0
 23 24  1  0
 24 25  1  0
 25 26  1  0
 27 26  1  1
 27 29  1  0
 27 28  1  0
 28 20  1  0
 29 30  1  0
 31 29  2  0
M  END
$$$$
