WDM.pdb
     RDKit          3D

 31 32  0  0  1  0  0  0  0  0999 V2000
   19.6032  -26.1306  -11.2440 N   0  0  0  0  0  0  0  0  0  0  0  0
   19.1809  -27.0559  -10.1680 C   0  0  1  0  0  0  0  0  0  0  0  0
   20.2966  -28.0297   -9.9395 C   0  0  0  0  0  0  0  0  0  0  0  0
   20.7237  -28.8190  -11.1019 C   0  0  0  0  0  0  0  0  0  0  0  0
   21.8330  -28.5729  -11.9234 C   0  0  0  0  0  0  0  0  0  0  0  0
   21.8987  -29.4785  -12.8967 N   0  0  0  0  0  0  0  0  0  0  0  0
   20.8618  -30.3388  -12.7616 C   0  0  0  0  0  0  0  0  0  0  0  0
   20.5066  -31.4436  -13.5082 C   0  0  0  0  0  0  0  0  0  0  0  0
   19.3991  -32.1829  -13.1595 C   0  0  0  0  0  0  0  0  0  0  0  0
   18.6589  -31.7860  -12.0450 C   0  0  0  0  0  0  0  0  0  0  0  0
   19.0244  -30.6874  -11.3155 C   0  0  0  0  0  0  0  0  0  0  0  0
   20.1265  -29.9323  -11.6445 C   0  0  0  0  0  0  0  0  0  0  0  0
   18.7655  -26.3392   -8.9577 C   0  0  0  0  0  0  0  0  0  0  0  0
   19.5752  -25.5720   -8.4023 O   0  0  0  0  0  0  0  0  0  0  0  0
   17.4651  -26.4739   -8.3717 N   0  0  0  0  0  0  0  0  0  0  0  0
   17.1418  -25.7690   -7.1650 C   0  0  1  0  0  0  0  0  0  0  0  0
   15.6961  -25.2684   -7.2816 C   0  0  0  0  0  0  0  0  0  0  0  0
   15.7654  -23.8116   -7.5825 C   0  0  0  0  0  0  0  0  0  0  0  0
   16.8517  -23.1822   -7.6176 O   0  0  0  0  0  0  0  0  0  0  0  0
   17.1879  -26.6554   -5.9651 C   0  0  0  0  0  0  0  0  0  0  0  0
   16.4560  -27.6774   -5.8644 O   0  0  0  0  0  0  0  0  0  0  0  0
   14.6017  -23.1051   -7.8359 O   0  0  0  0  0  0  0  0  0  0  0  0
   20.3181  -28.1465    1.1693 C   0  0  0  0  0  0  0  0  0  0  0  0
   20.2762  -27.0210   -0.2492 S   0  0  0  0  0  0  0  0  0  0  0  0
   19.0477  -27.5362   -1.4677 C   0  0  0  0  0  0  0  0  0  0  0  0
   19.0774  -26.6068   -2.6645 C   0  0  0  0  0  0  0  0  0  0  0  0
   18.0808  -27.2031   -3.6676 C   0  0  2  0  0  0  0  0  0  0  0  0
   18.0577  -26.3970   -4.8709 N   0  0  0  0  0  0  0  0  0  0  0  0
   16.7432  -27.1032   -3.0321 C   0  0  0  0  0  0  0  0  0  0  0  0
   16.1093  -28.2322   -2.5181 O   0  0  0  0  0  0  0  0  0  0  0  0
   16.1137  -26.0135   -2.9216 O   0  0  0  0  0  0  0  0  0  0  0  0
  2  1  1  6
  2  3  1  0
  4  3  1  0
  5  4  2  0
  6  5  1  0
  7  6  1  0
  7 12  2  0
  8  7  1  0
  9  8  2  0
  9 10  1  0
 10 11  2  0
 11 12  1  0
 12  4  1  0
 13  2  1  0
 14 13  2  0
 15 13  1  0
 16 15  1  0
 16 17  1  6
 17 18  1  0
 18 22  1  0
 19 18  2  0
 20 21  2  0
 20 16  1  0
 23 24  1  0
 24 25  1  0
 25 26  1  0
 27 26  1  1
 27 29  1  0
 27 28  1  0
 28 20  1  0
 29 30  1  0
 31 29  2  0
M  END
$$$$
