WDM.pdb
     RDKit          3D

 31 32  0  0  1  0  0  0  0  0999 V2000
   24.4583  -19.4021  -17.7027 N   0  0  0  0  0  0  0  0  0  0  0  0
   23.0601  -19.0151  -17.4070 C   0  0  1  0  0  0  0  0  0  0  0  0
   22.2867  -19.0839  -18.6886 C   0  0  0  0  0  0  0  0  0  0  0  0
   22.7712  -18.2424  -19.7903 C   0  0  0  0  0  0  0  0  0  0  0  0
   23.5071  -18.6619  -20.9076 C   0  0  0  0  0  0  0  0  0  0  0  0
   23.7962  -17.6235  -21.6885 N   0  0  0  0  0  0  0  0  0  0  0  0
   23.2761  -16.5033  -21.1334 C   0  0  0  0  0  0  0  0  0  0  0  0
   23.2966  -15.1927  -21.5649 C   0  0  0  0  0  0  0  0  0  0  0  0
   22.6733  -14.2143  -20.8241 C   0  0  0  0  0  0  0  0  0  0  0  0
   22.0306  -14.5838  -19.6418 C   0  0  0  0  0  0  0  0  0  0  0  0
   22.0199  -15.8881  -19.2276 C   0  0  0  0  0  0  0  0  0  0  0  0
   22.6361  -16.8835  -19.9504 C   0  0  0  0  0  0  0  0  0  0  0  0
   22.4833  -19.8204  -16.3254 C   0  0  0  0  0  0  0  0  0  0  0  0
   22.6553  -21.0545  -16.3337 O   0  0  0  0  0  0  0  0  0  0  0  0
   21.7242  -19.2602  -15.2472 N   0  0  0  0  0  0  0  0  0  0  0  0
   21.1870  -20.1117  -14.2253 C   0  0  1  0  0  0  0  0  0  0  0  0
   21.2255  -19.3419  -12.8987 C   0  0  0  0  0  0  0  0  0  0  0  0
   20.9481  -20.3280  -11.8179 C   0  0  0  0  0  0  0  0  0  0  0  0
   20.8879  -21.5639  -12.0332 O   0  0  0  0  0  0  0  0  0  0  0  0
   19.7563  -20.4564  -14.4739 C   0  0  0  0  0  0  0  0  0  0  0  0
   18.8812  -19.5683  -14.6638 O   0  0  0  0  0  0  0  0  0  0  0  0
   20.7460  -19.8884  -10.5204 O   0  0  0  0  0  0  0  0  0  0  0  0
   17.5607  -25.7859  -16.9734 C   0  0  0  0  0  0  0  0  0  0  0  0
   16.1663  -24.6903  -16.6048 S   0  0  0  0  0  0  0  0  0  0  0  0
   16.3085  -23.9684  -14.9562 C   0  0  0  0  0  0  0  0  0  0  0  0
   17.7627  -23.6920  -14.6306 C   0  0  0  0  0  0  0  0  0  0  0  0
   17.9115  -22.1661  -14.6959 C   0  0  2  0  0  0  0  0  0  0  0  0
   19.3012  -21.8025  -14.5101 N   0  0  0  0  0  0  0  0  0  0  0  0
   17.1462  -21.6255  -13.5448 C   0  0  0  0  0  0  0  0  0  0  0  0
   15.8437  -21.1587  -13.7076 O   0  0  0  0  0  0  0  0  0  0  0  0
   17.6188  -21.5577  -12.3753 O   0  0  0  0  0  0  0  0  0  0  0  0
  2  1  1  6
  2  3  1  0
  4  3  1  0
  5  4  2  0
  6  5  1  0
  7  6  1  0
  7 12  2  0
  8  7  1  0
  9  8  2  0
  9 10  1  0
 10 11  2  0
 11 12  1  0
 12  4  1  0
 13  2  1  0
 14 13  2  0
 15 13  1  0
 16 15  1  0
 16 17  1  1
 17 18  1  0
 18 22  1  0
 19 18  2  0
 20 21  2  0
 20 16  1  0
 23 24  1  0
 24 25  1  0
 25 26  1  0
 27 26  1  1
 27 29  1  0
 27 28  1  0
 28 20  1  0
 29 30  1  0
 31 29  2  0
M  END
$$$$
