PVW.pdb
     RDKit          3D

 29 31  0  0  1  0  0  0  0  0999 V2000
   31.2645  -23.3867  -17.4818 N   0  0  0  0  0  0  0  0  0  0  0  0
   32.1128  -24.5724  -17.6373 C   0  0  0  0  0  0  0  0  0  0  0  0
   32.1796  -25.2283  -16.2779 C   0  0  0  0  0  0  0  0  0  0  0  0
   31.3173  -24.3235  -15.3871 C   0  0  0  0  0  0  0  0  0  0  0  0
   30.3968  -23.6983  -16.3838 C   0  0  1  0  0  0  0  0  0  0  0  0
   29.7227  -22.4597  -15.8669 C   0  0  0  0  0  0  0  0  0  0  0  0
   30.2812  -21.3395  -15.9377 O   0  0  0  0  0  0  0  0  0  0  0  0
   27.6348  -20.2573  -16.8842 C   0  0  0  0  0  0  0  0  0  0  0  0
   26.7877  -20.7107  -15.6836 C   0  0  1  0  0  0  0  0  0  0  0  0
   25.6484  -21.4836  -16.2206 C   0  0  0  0  0  0  0  0  0  0  0  0
   27.7180  -21.3845  -14.7432 C   0  0  2  0  0  0  0  0  0  0  0  0
   28.4293  -22.5174  -15.2797 N   0  0  0  0  0  0  0  0  0  0  0  0
   27.1848  -21.5875  -13.3743 C   0  0  0  0  0  0  0  0  0  0  0  0
   26.6309  -22.6896  -13.1363 O   0  0  0  0  0  0  0  0  0  0  0  0
   27.2390  -20.6522  -12.3158 N   0  0  0  0  0  0  0  0  0  0  0  0
   26.6479  -20.9570  -10.9992 C   0  0  1  0  0  0  0  0  0  0  0  0
   27.6028  -20.8109   -9.8791 C   0  0  0  0  0  0  0  0  0  0  0  0
   27.0530  -20.5609   -8.5463 C   0  0  0  0  0  0  0  0  0  0  0  0
   25.6812  -20.7013   -8.2754 C   0  0  0  0  0  0  0  0  0  0  0  0
   25.4453  -20.4356   -6.9766 N   0  0  0  0  0  0  0  0  0  0  0  0
   26.6020  -20.1230   -6.3711 C   0  0  0  0  0  0  0  0  0  0  0  0
   26.8918  -19.7707   -5.0731 C   0  0  0  0  0  0  0  0  0  0  0  0
   28.1814  -19.4836   -4.7056 C   0  0  0  0  0  0  0  0  0  0  0  0
   29.1522  -19.5609   -5.6710 C   0  0  0  0  0  0  0  0  0  0  0  0
   28.8837  -19.9118   -6.9773 C   0  0  0  0  0  0  0  0  0  0  0  0
   27.5906  -20.1996   -7.3389 C   0  0  0  0  0  0  0  0  0  0  0  0
   25.3877  -20.2047  -10.9006 C   0  0  0  0  0  0  0  0  0  0  0  0
   24.3780  -20.6177  -10.0322 O   0  0  0  0  0  0  0  0  0  0  0  0
   25.1235  -19.1654  -11.5655 O   0  0  0  0  0  0  0  0  0  0  0  0
  2  1  1  0
  3  2  1  0
  4  3  1  0
  4  5  1  0
  5  6  1  1
  5  1  1  0
  6  7  2  0
  9  8  1  6
 10  9  1  0
 11  9  1  0
 11 12  1  6
 12  6  1  0
 13 11  1  0
 14 13  2  0
 15 13  1  0
 16 15  1  0
 16 17  1  1
 18 17  1  0
 19 18  2  0
 20 19  1  0
 21 20  1  0
 21 26  2  0
 22 21  1  0
 23 22  2  0
 23 24  1  0
 24 25  2  0
 25 26  1  0
 26 18  1  0
 27 16  1  0
 27 28  1  0
 29 27  2  0
M  END
$$$$
