PVW.pdb
     RDKit          3D

 29 31  0  0  1  0  0  0  0  0999 V2000
   26.4196  -16.0402  -14.1240 N   0  0  0  0  0  0  0  0  0  0  0  0
   26.3068  -14.8907  -15.0273 C   0  0  0  0  0  0  0  0  0  0  0  0
   25.6594  -15.4058  -16.2915 C   0  0  0  0  0  0  0  0  0  0  0  0
   25.4330  -16.8977  -16.0107 C   0  0  0  0  0  0  0  0  0  0  0  0
   25.3602  -16.9219  -14.5188 C   0  0  1  0  0  0  0  0  0  0  0  0
   25.5632  -18.2935  -13.9416 C   0  0  0  0  0  0  0  0  0  0  0  0
   24.7446  -19.2175  -14.1613 O   0  0  0  0  0  0  0  0  0  0  0  0
   28.2449  -21.9618  -12.5496 C   0  0  0  0  0  0  0  0  0  0  0  0
   28.2153  -20.5370  -13.1270 C   0  0  1  0  0  0  0  0  0  0  0  0
   28.3547  -20.6573  -14.5932 C   0  0  0  0  0  0  0  0  0  0  0  0
   26.9951  -19.8886  -12.5842 C   0  0  2  0  0  0  0  0  0  0  0  0
   26.6900  -18.5887  -13.1267 N   0  0  0  0  0  0  0  0  0  0  0  0
   26.8334  -19.9926  -11.1136 C   0  0  0  0  0  0  0  0  0  0  0  0
   27.7405  -19.4912  -10.4039 O   0  0  0  0  0  0  0  0  0  0  0  0
   25.7545  -20.6085  -10.4392 N   0  0  0  0  0  0  0  0  0  0  0  0
   25.7585  -20.7564   -8.9716 C   0  0  1  0  0  0  0  0  0  0  0  0
   25.7596  -19.4644   -8.2515 C   0  0  0  0  0  0  0  0  0  0  0  0
   26.9274  -19.1463   -7.4293 C   0  0  0  0  0  0  0  0  0  0  0  0
   27.7584  -18.0508   -7.7198 C   0  0  0  0  0  0  0  0  0  0  0  0
   28.7404  -17.9698   -6.8020 N   0  0  0  0  0  0  0  0  0  0  0  0
   28.5993  -18.9658   -5.9129 C   0  0  0  0  0  0  0  0  0  0  0  0
   29.3374  -19.3196   -4.8071 C   0  0  0  0  0  0  0  0  0  0  0  0
   28.9802  -20.4106   -4.0570 C   0  0  0  0  0  0  0  0  0  0  0  0
   27.8754  -21.1212   -4.4502 C   0  0  0  0  0  0  0  0  0  0  0  0
   27.1216  -20.7842   -5.5546 C   0  0  0  0  0  0  0  0  0  0  0  0
   27.4833  -19.6898   -6.3010 C   0  0  0  0  0  0  0  0  0  0  0  0
   24.6930  -21.7095   -8.6251 C   0  0  0  0  0  0  0  0  0  0  0  0
   24.6241  -22.2673   -7.3490 O   0  0  0  0  0  0  0  0  0  0  0  0
   23.7887  -22.0882   -9.4192 O   0  0  0  0  0  0  0  0  0  0  0  0
  2  1  1  0
  3  2  1  0
  4  3  1  0
  4  5  1  0
  5  6  1  1
  5  1  1  0
  6  7  2  0
  9  8  1  1
 10  9  1  0
 11  9  1  0
 11 12  1  1
 12  6  1  0
 13 11  1  0
 14 13  2  0
 15 13  1  0
 16 15  1  0
 16 17  1  1
 18 17  1  0
 19 18  2  0
 20 19  1  0
 21 20  1  0
 21 26  2  0
 22 21  1  0
 23 22  2  0
 23 24  1  0
 24 25  2  0
 25 26  1  0
 26 18  1  0
 27 16  1  0
 27 28  1  0
 29 27  2  0
M  END
$$$$
