PVW.pdb
     RDKit          3D

 29 31  0  0  1  0  0  0  0  0999 V2000
   26.9417  -22.9233  -17.1127 N   0  0  0  0  0  0  0  0  0  0  0  0
   27.1638  -23.6175  -18.3849 C   0  0  0  0  0  0  0  0  0  0  0  0
   28.6208  -23.4159  -18.7302 C   0  0  0  0  0  0  0  0  0  0  0  0
   29.1640  -22.5734  -17.5679 C   0  0  0  0  0  0  0  0  0  0  0  0
   28.2208  -22.9272  -16.4648 C   0  0  1  0  0  0  0  0  0  0  0  0
   28.2478  -21.9448  -15.3292 C   0  0  0  0  0  0  0  0  0  0  0  0
   29.2724  -21.7995  -14.6213 O   0  0  0  0  0  0  0  0  0  0  0  0
   26.5059  -17.8303  -13.3584 C   0  0  0  0  0  0  0  0  0  0  0  0
   26.5832  -18.7726  -14.5711 C   0  0  1  0  0  0  0  0  0  0  0  0
   27.3516  -18.0712  -15.6205 C   0  0  0  0  0  0  0  0  0  0  0  0
   27.1000  -20.0687  -14.0641 C   0  0  2  0  0  0  0  0  0  0  0  0
   27.1121  -21.1478  -15.0194 N   0  0  0  0  0  0  0  0  0  0  0  0
   26.6166  -20.4498  -12.7148 C   0  0  0  0  0  0  0  0  0  0  0  0
   25.4542  -20.9198  -12.6378 O   0  0  0  0  0  0  0  0  0  0  0  0
   27.3429  -20.3273  -11.5083 N   0  0  0  0  0  0  0  0  0  0  0  0
   26.7458  -20.7168  -10.2170 C   0  0  1  0  0  0  0  0  0  0  0  0
   27.7338  -20.8225   -9.1215 C   0  0  0  0  0  0  0  0  0  0  0  0
   27.2468  -20.6676   -7.7505 C   0  0  0  0  0  0  0  0  0  0  0  0
   25.9950  -21.1663   -7.3510 C   0  0  0  0  0  0  0  0  0  0  0  0
   25.8012  -20.9117   -6.0431 N   0  0  0  0  0  0  0  0  0  0  0  0
   26.8705  -20.2634   -5.5545 C   0  0  0  0  0  0  0  0  0  0  0  0
   27.1556  -19.7812   -4.2979 C   0  0  0  0  0  0  0  0  0  0  0  0
   28.3398  -19.1326   -4.0580 C   0  0  0  0  0  0  0  0  0  0  0  0
   29.2116  -18.9877   -5.1064 C   0  0  0  0  0  0  0  0  0  0  0  0
   28.9460  -19.4631   -6.3732 C   0  0  0  0  0  0  0  0  0  0  0  0
   27.7591  -20.1131   -6.6071 C   0  0  0  0  0  0  0  0  0  0  0  0
   25.5895  -19.8372   -9.9866 C   0  0  0  0  0  0  0  0  0  0  0  0
   24.3583  -20.3660   -9.6008 O   0  0  0  0  0  0  0  0  0  0  0  0
   25.6116  -18.5820  -10.1134 O   0  0  0  0  0  0  0  0  0  0  0  0
  2  1  1  0
  3  2  1  0
  4  3  1  0
  4  5  1  0
  5  6  1  1
  5  1  1  0
  6  7  2  0
  9  8  1  1
 10  9  1  0
 11  9  1  0
 11 12  1  6
 12  6  1  0
 13 11  1  0
 14 13  2  0
 15 13  1  0
 16 15  1  0
 16 17  1  1
 18 17  1  0
 19 18  2  0
 20 19  1  0
 21 20  1  0
 21 26  2  0
 22 21  1  0
 23 22  2  0
 23 24  1  0
 24 25  2  0
 25 26  1  0
 26 18  1  0
 27 16  1  0
 27 28  1  0
 29 27  2  0
M  END
$$$$
