PVW.pdb
     RDKit          3D

 29 31  0  0  1  0  0  0  0  0999 V2000
   29.2521  -24.6321  -17.9795 N   0  0  0  0  0  0  0  0  0  0  0  0
   29.4402  -26.0282  -18.3858 C   0  0  0  0  0  0  0  0  0  0  0  0
   28.4451  -26.8401  -17.5899 C   0  0  0  0  0  0  0  0  0  0  0  0
   27.7145  -25.7958  -16.7346 C   0  0  0  0  0  0  0  0  0  0  0  0
   27.8862  -24.5561  -17.5503 C   0  0  1  0  0  0  0  0  0  0  0  0
   27.6409  -23.2978  -16.7678 C   0  0  0  0  0  0  0  0  0  0  0  0
   28.5442  -22.7829  -16.0673 O   0  0  0  0  0  0  0  0  0  0  0  0
   25.3402  -19.1411  -15.9231 C   0  0  0  0  0  0  0  0  0  0  0  0
   25.7706  -20.2527  -16.8943 C   0  0  1  0  0  0  0  0  0  0  0  0
   26.8614  -19.7058  -17.7277 C   0  0  0  0  0  0  0  0  0  0  0  0
   26.0488  -21.4517  -16.0643 C   0  0  2  0  0  0  0  0  0  0  0  0
   26.3758  -22.6498  -16.7955 N   0  0  0  0  0  0  0  0  0  0  0  0
   25.1126  -21.6600  -14.9332 C   0  0  0  0  0  0  0  0  0  0  0  0
   23.9366  -21.9949  -15.2212 O   0  0  0  0  0  0  0  0  0  0  0  0
   25.4221  -21.5111  -13.5620 N   0  0  0  0  0  0  0  0  0  0  0  0
   24.4090  -21.7655  -12.5206 C   0  0  1  0  0  0  0  0  0  0  0  0
   24.9843  -22.2563  -11.2494 C   0  0  0  0  0  0  0  0  0  0  0  0
   25.8803  -21.3597  -10.5186 C   0  0  0  0  0  0  0  0  0  0  0  0
   25.4178  -20.5496   -9.4674 C   0  0  0  0  0  0  0  0  0  0  0  0
   26.4425  -19.8425   -8.9545 N   0  0  0  0  0  0  0  0  0  0  0  0
   27.5680  -20.1466   -9.6202 C   0  0  0  0  0  0  0  0  0  0  0  0
   28.8615  -19.6967   -9.4886 C   0  0  0  0  0  0  0  0  0  0  0  0
   29.8458  -20.1680  -10.3190 C   0  0  0  0  0  0  0  0  0  0  0  0
   29.4910  -21.0902  -11.2698 C   0  0  0  0  0  0  0  0  0  0  0  0
   28.2011  -21.5545  -11.4189 C   0  0  0  0  0  0  0  0  0  0  0  0
   27.2201  -21.0800  -10.5834 C   0  0  0  0  0  0  0  0  0  0  0  0
   23.5503  -20.5736  -12.4450 C   0  0  0  0  0  0  0  0  0  0  0  0
   22.2375  -20.6698  -11.9847 O   0  0  0  0  0  0  0  0  0  0  0  0
   23.9125  -19.4113  -12.7764 O   0  0  0  0  0  0  0  0  0  0  0  0
  2  1  1  0
  3  2  1  0
  4  3  1  0
  4  5  1  0
  5  6  1  1
  5  1  1  0
  6  7  2  0
  9  8  1  1
 10  9  1  0
 11  9  1  0
 11 12  1  6
 12  6  1  0
 13 11  1  0
 14 13  2  0
 15 13  1  0
 16 15  1  0
 16 17  1  1
 18 17  1  0
 19 18  2  0
 20 19  1  0
 21 20  1  0
 21 26  2  0
 22 21  1  0
 23 22  2  0
 23 24  1  0
 24 25  2  0
 25 26  1  0
 26 18  1  0
 27 16  1  0
 27 28  1  0
 29 27  2  0
M  END
$$$$
