PVW.pdb
     RDKit          3D

 29 31  0  0  1  0  0  0  0  0999 V2000
   20.2089  -12.1231  -21.0149 N   0  0  0  0  0  0  0  0  0  0  0  0
   20.6527  -13.2680  -21.8161 C   0  0  0  0  0  0  0  0  0  0  0  0
   21.5960  -12.7163  -22.8595 C   0  0  0  0  0  0  0  0  0  0  0  0
   21.6301  -11.2096  -22.5686 C   0  0  0  0  0  0  0  0  0  0  0  0
   21.2737  -11.1685  -21.1184 C   0  0  1  0  0  0  0  0  0  0  0  0
   20.8212   -9.8113  -20.6616 C   0  0  0  0  0  0  0  0  0  0  0  0
   21.6349   -8.8666  -20.5294 O   0  0  0  0  0  0  0  0  0  0  0  0
   17.3877   -6.4207  -20.1072 C   0  0  0  0  0  0  0  0  0  0  0  0
   17.8041   -7.7524  -20.7533 C   0  0  1  0  0  0  0  0  0  0  0  0
   18.0334   -7.4880  -22.1890 C   0  0  0  0  0  0  0  0  0  0  0  0
   18.9313   -8.2785  -19.9430 C   0  0  2  0  0  0  0  0  0  0  0  0
   19.4553   -9.5535  -20.3637 N   0  0  0  0  0  0  0  0  0  0  0  0
   18.7659   -8.1374  -18.4760 C   0  0  0  0  0  0  0  0  0  0  0  0
   18.0374   -8.9838  -17.9008 O   0  0  0  0  0  0  0  0  0  0  0  0
   19.3493   -7.1349  -17.6681 N   0  0  0  0  0  0  0  0  0  0  0  0
   19.3674   -7.2562  -16.1982 C   0  0  1  0  0  0  0  0  0  0  0  0
   20.1174   -8.4362  -15.7157 C   0  0  0  0  0  0  0  0  0  0  0  0
   20.3941   -8.5253  -14.2817 C   0  0  0  0  0  0  0  0  0  0  0  0
   19.5158   -7.9872  -13.3256 C   0  0  0  0  0  0  0  0  0  0  0  0
   19.9917   -8.2231  -12.0883 N   0  0  0  0  0  0  0  0  0  0  0  0
   21.1505   -8.8948  -12.1797 C   0  0  0  0  0  0  0  0  0  0  0  0
   22.0206   -9.3576  -11.2198 C   0  0  0  0  0  0  0  0  0  0  0  0
   23.1654  -10.0187  -11.5846 C   0  0  0  0  0  0  0  0  0  0  0  0
   23.4012  -10.1948  -12.9238 C   0  0  0  0  0  0  0  0  0  0  0  0
   22.5429   -9.7392  -13.9022 C   0  0  0  0  0  0  0  0  0  0  0  0
   21.3974   -9.0792  -13.5307 C   0  0  0  0  0  0  0  0  0  0  0  0
   19.7662   -5.9482  -15.6561 C   0  0  0  0  0  0  0  0  0  0  0  0
   19.0508   -5.3618  -14.6127 O   0  0  0  0  0  0  0  0  0  0  0  0
   20.7479   -5.2732  -16.0714 O   0  0  0  0  0  0  0  0  0  0  0  0
  2  1  1  0
  3  2  1  0
  4  3  1  0
  4  5  1  0
  5  6  1  6
  5  1  1  0
  6  7  2  0
  9  8  1  1
 10  9  1  0
 11  9  1  0
 11 12  1  1
 12  6  1  0
 13 11  1  0
 14 13  2  0
 15 13  1  0
 16 15  1  0
 16 17  1  6
 18 17  1  0
 19 18  2  0
 20 19  1  0
 21 20  1  0
 21 26  2  0
 22 21  1  0
 23 22  2  0
 23 24  1  0
 24 25  2  0
 25 26  1  0
 26 18  1  0
 27 16  1  0
 27 28  1  0
 29 27  2  0
M  END
$$$$
