PVW.pdb
     RDKit          3D

 29 31  0  0  1  0  0  0  0  0999 V2000
   27.6383  -17.6173  -16.9432 N   0  0  0  0  0  0  0  0  0  0  0  0
   28.7592  -17.1718  -17.7767 C   0  0  0  0  0  0  0  0  0  0  0  0
   29.9481  -17.0384  -16.8540 C   0  0  0  0  0  0  0  0  0  0  0  0
   29.3966  -17.4388  -15.4787 C   0  0  0  0  0  0  0  0  0  0  0  0
   28.2490  -18.3192  -15.8523 C   0  0  1  0  0  0  0  0  0  0  0  0
   27.2707  -18.5191  -14.7305 C   0  0  0  0  0  0  0  0  0  0  0  0
   26.7333  -17.5425  -14.1566 O   0  0  0  0  0  0  0  0  0  0  0  0
   23.8048  -20.7126  -12.3760 C   0  0  0  0  0  0  0  0  0  0  0  0
   24.6541  -20.5832  -13.6514 C   0  0  1  0  0  0  0  0  0  0  0  0
   23.8862  -19.7555  -14.6048 C   0  0  0  0  0  0  0  0  0  0  0  0
   25.9916  -20.1057  -13.2191 C   0  0  2  0  0  0  0  0  0  0  0  0
   26.9224  -19.8225  -14.2824 N   0  0  0  0  0  0  0  0  0  0  0  0
   26.5768  -20.8404  -12.0714 C   0  0  0  0  0  0  0  0  0  0  0  0
   27.1290  -21.9407  -12.3211 O   0  0  0  0  0  0  0  0  0  0  0  0
   26.5651  -20.4173  -10.7227 N   0  0  0  0  0  0  0  0  0  0  0  0
   26.5941  -21.3940   -9.6178 C   0  0  1  0  0  0  0  0  0  0  0  0
   27.8143  -21.3041   -8.7867 C   0  0  0  0  0  0  0  0  0  0  0  0
   27.8239  -20.3265   -7.6981 C   0  0  0  0  0  0  0  0  0  0  0  0
   26.8590  -19.3083   -7.6117 C   0  0  0  0  0  0  0  0  0  0  0  0
   27.0810  -18.5645   -6.5115 N   0  0  0  0  0  0  0  0  0  0  0  0
   28.1538  -19.0434   -5.8618 C   0  0  0  0  0  0  0  0  0  0  0  0
   28.7842  -18.6377   -4.7081 C   0  0  0  0  0  0  0  0  0  0  0  0
   29.8922  -19.3056   -4.2535 C   0  0  0  0  0  0  0  0  0  0  0  0
   30.3371  -20.3760   -4.9860 C   0  0  0  0  0  0  0  0  0  0  0  0
   29.7206  -20.7994   -6.1445 C   0  0  0  0  0  0  0  0  0  0  0  0
   28.6106  -20.1275   -6.5940 C   0  0  0  0  0  0  0  0  0  0  0  0
   25.3042  -21.3003   -8.9170 C   0  0  0  0  0  0  0  0  0  0  0  0
   24.8233  -22.3712   -8.1644 O   0  0  0  0  0  0  0  0  0  0  0  0
   24.5540  -20.2860   -8.9361 O   0  0  0  0  0  0  0  0  0  0  0  0
  2  1  1  0
  3  2  1  0
  4  3  1  0
  4  5  1  0
  5  6  1  1
  5  1  1  0
  6  7  2  0
  9  8  1  1
 10  9  1  0
 11  9  1  0
 11 12  1  6
 12  6  1  0
 13 11  1  0
 14 13  2  0
 15 13  1  0
 16 15  1  0
 16 17  1  1
 18 17  1  0
 19 18  2  0
 20 19  1  0
 21 20  1  0
 21 26  2  0
 22 21  1  0
 23 22  2  0
 23 24  1  0
 24 25  2  0
 25 26  1  0
 26 18  1  0
 27 16  1  0
 27 28  1  0
 29 27  2  0
M  END
$$$$
