PVW.pdb
     RDKit          3D

 29 31  0  0  1  0  0  0  0  0999 V2000
   28.0945  -22.6191  -16.2783 N   0  0  0  0  0  0  0  0  0  0  0  0
   28.7055  -22.9568  -17.5677 C   0  0  0  0  0  0  0  0  0  0  0  0
   29.1208  -21.6474  -18.1969 C   0  0  0  0  0  0  0  0  0  0  0  0
   28.6958  -20.5906  -17.1681 C   0  0  0  0  0  0  0  0  0  0  0  0
   28.7027  -21.3776  -15.8984 C   0  0  1  0  0  0  0  0  0  0  0  0
   27.9280  -20.7189  -14.7932 C   0  0  0  0  0  0  0  0  0  0  0  0
   28.2477  -19.5854  -14.3630 O   0  0  0  0  0  0  0  0  0  0  0  0
   23.7427  -19.8746  -12.5978 C   0  0  0  0  0  0  0  0  0  0  0  0
   24.5246  -20.5110  -13.7589 C   0  0  1  0  0  0  0  0  0  0  0  0
   24.3360  -19.6428  -14.9396 C   0  0  0  0  0  0  0  0  0  0  0  0
   25.9050  -20.7375  -13.2618 C   0  0  2  0  0  0  0  0  0  0  0  0
   26.8070  -21.3595  -14.1982 N   0  0  0  0  0  0  0  0  0  0  0  0
   25.9926  -21.2697  -11.8803 C   0  0  0  0  0  0  0  0  0  0  0  0
   25.6975  -22.4796  -11.7161 O   0  0  0  0  0  0  0  0  0  0  0  0
   26.3731  -20.5382  -10.7322 N   0  0  0  0  0  0  0  0  0  0  0  0
   26.4459  -21.1832   -9.4077 C   0  0  1  0  0  0  0  0  0  0  0  0
   27.7286  -20.9478   -8.7098 C   0  0  0  0  0  0  0  0  0  0  0  0
   27.7213  -20.0377   -7.5641 C   0  0  0  0  0  0  0  0  0  0  0  0
   26.9111  -18.8896   -7.5385 C   0  0  0  0  0  0  0  0  0  0  0  0
   27.0764  -18.2432   -6.3689 N   0  0  0  0  0  0  0  0  0  0  0  0
   27.9633  -18.9117   -5.6146 C   0  0  0  0  0  0  0  0  0  0  0  0
   28.4717  -18.6641   -4.3604 C   0  0  0  0  0  0  0  0  0  0  0  0
   29.3942  -19.5149   -3.8074 C   0  0  0  0  0  0  0  0  0  0  0  0
   29.7813  -20.6034   -4.5459 C   0  0  0  0  0  0  0  0  0  0  0  0
   29.2847  -20.8704   -5.8043 C   0  0  0  0  0  0  0  0  0  0  0  0
   28.3601  -20.0156   -6.3522 C   0  0  0  0  0  0  0  0  0  0  0  0
   25.2182  -20.8275   -8.6797 C   0  0  0  0  0  0  0  0  0  0  0  0
   24.8623  -21.5012   -7.5118 O   0  0  0  0  0  0  0  0  0  0  0  0
   24.4157  -19.9209   -9.0347 O   0  0  0  0  0  0  0  0  0  0  0  0
  2  1  1  0
  3  2  1  0
  4  3  1  0
  4  5  1  0
  5  6  1  1
  5  1  1  0
  6  7  2  0
  9  8  1  1
 10  9  1  0
 11  9  1  0
 11 12  1  6
 12  6  1  0
 13 11  1  0
 14 13  2  0
 15 13  1  0
 16 15  1  0
 16 17  1  1
 18 17  1  0
 19 18  2  0
 20 19  1  0
 21 20  1  0
 21 26  2  0
 22 21  1  0
 23 22  2  0
 23 24  1  0
 24 25  2  0
 25 26  1  0
 26 18  1  0
 27 16  1  0
 27 28  1  0
 29 27  2  0
M  END
$$$$
