PVW.pdb
     RDKit          3D

 29 31  0  0  1  0  0  0  0  0999 V2000
   28.4067  -21.2810  -16.0124 N   0  0  0  0  0  0  0  0  0  0  0  0
   29.4458  -21.3477  -17.0447 C   0  0  0  0  0  0  0  0  0  0  0  0
   29.6912  -19.9258  -17.4928 C   0  0  0  0  0  0  0  0  0  0  0  0
   28.7224  -19.0958  -16.6394 C   0  0  0  0  0  0  0  0  0  0  0  0
   28.5388  -19.9717  -15.4434 C   0  0  1  0  0  0  0  0  0  0  0  0
   27.3250  -19.6157  -14.6337 C   0  0  0  0  0  0  0  0  0  0  0  0
   27.2258  -18.5006  -14.0691 O   0  0  0  0  0  0  0  0  0  0  0  0
   22.5823  -19.9297  -13.8885 C   0  0  0  0  0  0  0  0  0  0  0  0
   23.8006  -20.2977  -14.7514 C   0  0  1  0  0  0  0  0  0  0  0  0
   23.7643  -19.4327  -15.9490 C   0  0  0  0  0  0  0  0  0  0  0  0
   24.9855  -20.2212  -13.8604 C   0  0  2  0  0  0  0  0  0  0  0  0
   26.2489  -20.5320  -14.4805 N   0  0  0  0  0  0  0  0  0  0  0  0
   24.7976  -20.8217  -12.5174 C   0  0  0  0  0  0  0  0  0  0  0  0
   24.7691  -22.0759  -12.4530 O   0  0  0  0  0  0  0  0  0  0  0  0
   24.6429  -20.1111  -11.3053 N   0  0  0  0  0  0  0  0  0  0  0  0
   24.4895  -20.8202  -10.0210 C   0  0  1  0  0  0  0  0  0  0  0  0
   25.0861  -20.0976   -8.8766 C   0  0  0  0  0  0  0  0  0  0  0  0
   26.4875  -20.3708   -8.5570 C   0  0  0  0  0  0  0  0  0  0  0  0
   27.3004  -21.1441   -9.4033 C   0  0  0  0  0  0  0  0  0  0  0  0
   28.5433  -21.2231   -8.8913 N   0  0  0  0  0  0  0  0  0  0  0  0
   28.5925  -20.5358   -7.7391 C   0  0  0  0  0  0  0  0  0  0  0  0
   29.6136  -20.3202   -6.8426 C   0  0  0  0  0  0  0  0  0  0  0  0
   29.3961  -19.5741   -5.7127 C   0  0  0  0  0  0  0  0  0  0  0  0
   28.1391  -19.0620   -5.5184 C   0  0  0  0  0  0  0  0  0  0  0  0
   27.1017  -19.2658   -6.4037 C   0  0  0  0  0  0  0  0  0  0  0  0
   27.3259  -20.0125   -7.5342 C   0  0  0  0  0  0  0  0  0  0  0  0
   23.0749  -21.2046   -9.8997 C   0  0  0  0  0  0  0  0  0  0  0  0
   22.6731  -22.1545   -8.9613 O   0  0  0  0  0  0  0  0  0  0  0  0
   22.1432  -20.7282  -10.6048 O   0  0  0  0  0  0  0  0  0  0  0  0
  2  1  1  0
  3  2  1  0
  4  3  1  0
  4  5  1  0
  5  6  1  6
  5  1  1  0
  6  7  2  0
  9  8  1  1
 10  9  1  0
 11  9  1  0
 11 12  1  6
 12  6  1  0
 13 11  1  0
 14 13  2  0
 15 13  1  0
 16 15  1  0
 16 17  1  1
 18 17  1  0
 19 18  2  0
 20 19  1  0
 21 20  1  0
 21 26  2  0
 22 21  1  0
 23 22  2  0
 23 24  1  0
 24 25  2  0
 25 26  1  0
 26 18  1  0
 27 16  1  0
 27 28  1  0
 29 27  2  0
M  END
$$$$
