PVW.pdb
     RDKit          3D

 29 31  0  0  1  0  0  0  0  0999 V2000
   23.8597  -15.8574  -16.0101 N   0  0  0  0  0  0  0  0  0  0  0  0
   24.5912  -14.7793  -16.6827 C   0  0  0  0  0  0  0  0  0  0  0  0
   25.9483  -14.7101  -16.0219 C   0  0  0  0  0  0  0  0  0  0  0  0
   25.8987  -15.8144  -14.9571 C   0  0  0  0  0  0  0  0  0  0  0  0
   24.8771  -16.7441  -15.5259 C   0  0  1  0  0  0  0  0  0  0  0  0
   24.3165  -17.6963  -14.5088 C   0  0  0  0  0  0  0  0  0  0  0  0
   23.4582  -17.3231  -13.6744 O   0  0  0  0  0  0  0  0  0  0  0  0
   23.3695  -22.0304  -12.6137 C   0  0  0  0  0  0  0  0  0  0  0  0
   23.5962  -21.1631  -13.8630 C   0  0  1  0  0  0  0  0  0  0  0  0
   22.2730  -20.9295  -14.4780 C   0  0  0  0  0  0  0  0  0  0  0  0
   24.3872  -19.9874  -13.4207 C   0  0  2  0  0  0  0  0  0  0  0  0
   24.7412  -19.0521  -14.4586 N   0  0  0  0  0  0  0  0  0  0  0  0
   25.4844  -20.2934  -12.4710 C   0  0  0  0  0  0  0  0  0  0  0  0
   26.4381  -20.9855  -12.9061 O   0  0  0  0  0  0  0  0  0  0  0  0
   25.5514  -19.8814  -11.1205 N   0  0  0  0  0  0  0  0  0  0  0  0
   26.6598  -20.3112  -10.2472 C   0  0  1  0  0  0  0  0  0  0  0  0
   26.8817  -19.4115   -9.0944 C   0  0  0  0  0  0  0  0  0  0  0  0
   27.9403  -19.7674   -8.1491 C   0  0  0  0  0  0  0  0  0  0  0  0
   29.2092  -20.1855   -8.5850 C   0  0  0  0  0  0  0  0  0  0  0  0
   29.9975  -20.4289   -7.5208 N   0  0  0  0  0  0  0  0  0  0  0  0
   29.3069  -20.1915   -6.3942 C   0  0  0  0  0  0  0  0  0  0  0  0
   29.6530  -20.2967   -5.0668 C   0  0  0  0  0  0  0  0  0  0  0  0
   28.7398  -19.9989   -4.0881 C   0  0  0  0  0  0  0  0  0  0  0  0
   27.4889  -19.5993   -4.4828 C   0  0  0  0  0  0  0  0  0  0  0  0
   27.1212  -19.4871   -5.8071 C   0  0  0  0  0  0  0  0  0  0  0  0
   28.0403  -19.7853   -6.7827 C   0  0  0  0  0  0  0  0  0  0  0  0
   26.4535  -21.7365   -9.9479 C   0  0  0  0  0  0  0  0  0  0  0  0
   27.4737  -22.6634  -10.1591 O   0  0  0  0  0  0  0  0  0  0  0  0
   25.3812  -22.2221   -9.4938 O   0  0  0  0  0  0  0  0  0  0  0  0
  2  1  1  0
  3  2  1  0
  4  3  1  0
  4  5  1  0
  5  6  1  1
  5  1  1  0
  6  7  2  0
  9  8  1  1
 10  9  1  0
 11  9  1  0
 11 12  1  6
 12  6  1  0
 13 11  1  0
 14 13  2  0
 15 13  1  0
 16 15  1  0
 16 17  1  1
 18 17  1  0
 19 18  2  0
 20 19  1  0
 21 20  1  0
 21 26  2  0
 22 21  1  0
 23 22  2  0
 23 24  1  0
 24 25  2  0
 25 26  1  0
 26 18  1  0
 27 16  1  0
 27 28  1  0
 29 27  2  0
M  END
$$$$
