PVW.pdb
     RDKit          3D

 29 31  0  0  1  0  0  0  0  0999 V2000
   25.5820  -20.7316  -16.5828 N   0  0  0  0  0  0  0  0  0  0  0  0
   25.7014  -20.6334  -18.0408 C   0  0  0  0  0  0  0  0  0  0  0  0
   25.0796  -19.3125  -18.4300 C   0  0  0  0  0  0  0  0  0  0  0  0
   24.6211  -18.7110  -17.0944 C   0  0  0  0  0  0  0  0  0  0  0  0
   25.5455  -19.3732  -16.1257 C   0  0  1  0  0  0  0  0  0  0  0  0
   25.0617  -19.2997  -14.7058 C   0  0  0  0  0  0  0  0  0  0  0  0
   25.0092  -18.2066  -14.0940 O   0  0  0  0  0  0  0  0  0  0  0  0
   22.1869  -20.9932  -11.2119 C   0  0  0  0  0  0  0  0  0  0  0  0
   22.6489  -21.0611  -12.6770 C   0  0  1  0  0  0  0  0  0  0  0  0
   21.5896  -20.4383  -13.4978 C   0  0  0  0  0  0  0  0  0  0  0  0
   24.0110  -20.4721  -12.7160 C   0  0  2  0  0  0  0  0  0  0  0  0
   24.6479  -20.4677  -14.0089 N   0  0  0  0  0  0  0  0  0  0  0  0
   24.8979  -20.8731  -11.5970 C   0  0  0  0  0  0  0  0  0  0  0  0
   25.2890  -22.0667  -11.5797 O   0  0  0  0  0  0  0  0  0  0  0  0
   25.3383  -20.0359  -10.5466 N   0  0  0  0  0  0  0  0  0  0  0  0
   26.2071  -20.5540   -9.4731 C   0  0  1  0  0  0  0  0  0  0  0  0
   27.3338  -19.6540   -9.1441 C   0  0  0  0  0  0  0  0  0  0  0  0
   28.2589  -20.0801   -8.0936 C   0  0  0  0  0  0  0  0  0  0  0  0
   29.1053  -21.1895   -8.2608 C   0  0  0  0  0  0  0  0  0  0  0  0
   29.8651  -21.3507   -7.1609 N   0  0  0  0  0  0  0  0  0  0  0  0
   29.5599  -20.3962   -6.2675 C   0  0  0  0  0  0  0  0  0  0  0  0
   30.0403  -20.1339   -5.0053 C   0  0  0  0  0  0  0  0  0  0  0  0
   29.5427  -19.0813   -4.2806 C   0  0  0  0  0  0  0  0  0  0  0  0
   28.5627  -18.3157   -4.8581 C   0  0  0  0  0  0  0  0  0  0  0  0
   28.0671  -18.5608   -6.1213 C   0  0  0  0  0  0  0  0  0  0  0  0
   28.5703  -19.6153   -6.8428 C   0  0  0  0  0  0  0  0  0  0  0  0
   25.3340  -20.9597   -8.3610 C   0  0  0  0  0  0  0  0  0  0  0  0
   25.6947  -22.0116   -7.5197 O   0  0  0  0  0  0  0  0  0  0  0  0
   24.2304  -20.4140   -8.0849 O   0  0  0  0  0  0  0  0  0  0  0  0
  2  1  1  0
  3  2  1  0
  4  3  1  0
  4  5  1  0
  5  6  1  1
  5  1  1  0
  6  7  2  0
  9  8  1  1
 10  9  1  0
 11  9  1  0
 11 12  1  6
 12  6  1  0
 13 11  1  0
 14 13  2  0
 15 13  1  0
 16 15  1  0
 16 17  1  1
 18 17  1  0
 19 18  2  0
 20 19  1  0
 21 20  1  0
 21 26  2  0
 22 21  1  0
 23 22  2  0
 23 24  1  0
 24 25  2  0
 25 26  1  0
 26 18  1  0
 27 16  1  0
 27 28  1  0
 29 27  2  0
M  END
$$$$
