PVW.pdb
     RDKit          3D

 29 31  0  0  1  0  0  0  0  0999 V2000
   28.1267  -20.9869  -15.4616 N   0  0  0  0  0  0  0  0  0  0  0  0
   28.8052  -20.1166  -16.4270 C   0  0  0  0  0  0  0  0  0  0  0  0
   28.1997  -18.7426  -16.2591 C   0  0  0  0  0  0  0  0  0  0  0  0
   27.1580  -18.9300  -15.1475 C   0  0  0  0  0  0  0  0  0  0  0  0
   27.7042  -20.1087  -14.4100 C   0  0  1  0  0  0  0  0  0  0  0  0
   26.6858  -20.7773  -13.5318 C   0  0  0  0  0  0  0  0  0  0  0  0
   26.1796  -21.8798  -13.8486 O   0  0  0  0  0  0  0  0  0  0  0  0
   24.2592  -21.2778   -9.3239 C   0  0  0  0  0  0  0  0  0  0  0  0
   25.4461  -20.5828  -10.0113 C   0  0  1  0  0  0  0  0  0  0  0  0
   26.6804  -21.1767   -9.4567 C   0  0  0  0  0  0  0  0  0  0  0  0
   25.2061  -20.6882  -11.4726 C   0  0  2  0  0  0  0  0  0  0  0  0
   26.2621  -20.1816  -12.3125 N   0  0  0  0  0  0  0  0  0  0  0  0
   23.8402  -20.3116  -11.9106 C   0  0  0  0  0  0  0  0  0  0  0  0
   23.4943  -19.1170  -11.7338 O   0  0  0  0  0  0  0  0  0  0  0  0
   22.8916  -21.1755  -12.5038 N   0  0  0  0  0  0  0  0  0  0  0  0
   21.6067  -20.6608  -13.0134 C   0  0  1  0  0  0  0  0  0  0  0  0
   21.7505  -19.8066  -14.2123 C   0  0  0  0  0  0  0  0  0  0  0  0
   22.6488  -20.2680  -15.2711 C   0  0  0  0  0  0  0  0  0  0  0  0
   22.7565  -21.6283  -15.6071 C   0  0  0  0  0  0  0  0  0  0  0  0
   23.6294  -21.7778  -16.6214 N   0  0  0  0  0  0  0  0  0  0  0  0
   24.1086  -20.5746  -16.9747 C   0  0  0  0  0  0  0  0  0  0  0  0
   25.0182  -20.1953  -17.9347 C   0  0  0  0  0  0  0  0  0  0  0  0
   25.3511  -18.8739  -18.0888 C   0  0  0  0  0  0  0  0  0  0  0  0
   24.7492  -17.9634  -17.2588 C   0  0  0  0  0  0  0  0  0  0  0  0
   23.8352  -18.3217  -16.2905 C   0  0  0  0  0  0  0  0  0  0  0  0
   23.5047  -19.6462  -16.1419 C   0  0  0  0  0  0  0  0  0  0  0  0
   20.6880  -21.8048  -13.1188 C   0  0  0  0  0  0  0  0  0  0  0  0
   19.3346  -21.6083  -13.3910 O   0  0  0  0  0  0  0  0  0  0  0  0
   21.0312  -23.0107  -12.9776 O   0  0  0  0  0  0  0  0  0  0  0  0
  2  1  1  0
  3  2  1  0
  4  3  1  0
  4  5  1  0
  5  6  1  6
  5  1  1  0
  6  7  2  0
  9  8  1  1
 10  9  1  0
 11  9  1  0
 11 12  1  6
 12  6  1  0
 13 11  1  0
 14 13  2  0
 15 13  1  0
 16 15  1  0
 16 17  1  6
 18 17  1  0
 19 18  2  0
 20 19  1  0
 21 20  1  0
 21 26  2  0
 22 21  1  0
 23 22  2  0
 23 24  1  0
 24 25  2  0
 25 26  1  0
 26 18  1  0
 27 16  1  0
 27 28  1  0
 29 27  2  0
M  END
$$$$
