PVW.pdb
     RDKit          3D

 29 31  0  0  1  0  0  0  0  0999 V2000
   27.3372  -18.1877  -16.1404 N   0  0  0  0  0  0  0  0  0  0  0  0
   28.6183  -17.8232  -16.7533 C   0  0  0  0  0  0  0  0  0  0  0  0
   29.6594  -17.9436  -15.6650 C   0  0  0  0  0  0  0  0  0  0  0  0
   28.8594  -18.3937  -14.4349 C   0  0  0  0  0  0  0  0  0  0  0  0
   27.6836  -19.0679  -15.0629 C   0  0  1  0  0  0  0  0  0  0  0  0
   26.5282  -19.2373  -14.1185 C   0  0  0  0  0  0  0  0  0  0  0  0
   25.6869  -18.3227  -13.9519 O   0  0  0  0  0  0  0  0  0  0  0  0
   24.9029  -22.9987  -13.1193 C   0  0  0  0  0  0  0  0  0  0  0  0
   24.2216  -21.6290  -12.9639 C   0  0  1  0  0  0  0  0  0  0  0  0
   23.0131  -21.8339  -12.1385 C   0  0  0  0  0  0  0  0  0  0  0  0
   25.2642  -20.6945  -12.4703 C   0  0  2  0  0  0  0  0  0  0  0  0
   26.3511  -20.4403  -13.3820 N   0  0  0  0  0  0  0  0  0  0  0  0
   25.6817  -20.9101  -11.0636 C   0  0  0  0  0  0  0  0  0  0  0  0
   26.6218  -21.7194  -10.8659 O   0  0  0  0  0  0  0  0  0  0  0  0
   25.1146  -20.2917   -9.9260 N   0  0  0  0  0  0  0  0  0  0  0  0
   25.5936  -20.6101   -8.5677 C   0  0  1  0  0  0  0  0  0  0  0  0
   25.9576  -19.4136   -7.7781 C   0  0  0  0  0  0  0  0  0  0  0  0
   27.3298  -19.3214   -7.2786 C   0  0  0  0  0  0  0  0  0  0  0  0
   28.3462  -18.6991   -8.0235 C   0  0  0  0  0  0  0  0  0  0  0  0
   29.5008  -18.7310   -7.3313 N   0  0  0  0  0  0  0  0  0  0  0  0
   29.2967  -19.3491   -6.1571 C   0  0  0  0  0  0  0  0  0  0  0  0
   30.1451  -19.6390   -5.1136 C   0  0  0  0  0  0  0  0  0  0  0  0
   29.6798  -20.3033   -4.0077 C   0  0  0  0  0  0  0  0  0  0  0  0
   28.3560  -20.6601   -3.9879 C   0  0  0  0  0  0  0  0  0  0  0  0
   27.4886  -20.3795   -5.0225 C   0  0  0  0  0  0  0  0  0  0  0  0
   27.9600  -19.7128   -6.1266 C   0  0  0  0  0  0  0  0  0  0  0  0
   24.6191  -21.5328   -7.9653 C   0  0  0  0  0  0  0  0  0  0  0  0
   23.3781  -21.7479   -8.5636 O   0  0  0  0  0  0  0  0  0  0  0  0
   24.8143  -22.1809   -6.9005 O   0  0  0  0  0  0  0  0  0  0  0  0
  2  1  1  0
  3  2  1  0
  4  3  1  0
  4  5  1  0
  5  6  1  1
  5  1  1  0
  6  7  2  0
  9  8  1  1
 10  9  1  0
 11  9  1  0
 11 12  1  6
 12  6  1  0
 13 11  1  0
 14 13  2  0
 15 13  1  0
 16 15  1  0
 16 17  1  1
 18 17  1  0
 19 18  2  0
 20 19  1  0
 21 20  1  0
 21 26  2  0
 22 21  1  0
 23 22  2  0
 23 24  1  0
 24 25  2  0
 25 26  1  0
 26 18  1  0
 27 16  1  0
 27 28  1  0
 29 27  2  0
M  END
$$$$
