PVW.pdb
     RDKit          3D

 29 31  0  0  1  0  0  0  0  0999 V2000
   27.5613  -19.7869  -15.0390 N   0  0  0  0  0  0  0  0  0  0  0  0
   28.8380  -20.1102  -15.6834 C   0  0  0  0  0  0  0  0  0  0  0  0
   29.7677  -20.5618  -14.5813 C   0  0  0  0  0  0  0  0  0  0  0  0
   28.9128  -20.4607  -13.3106 C   0  0  0  0  0  0  0  0  0  0  0  0
   27.5301  -20.6001  -13.8586 C   0  0  1  0  0  0  0  0  0  0  0  0
   26.4694  -20.1230  -12.9085 C   0  0  0  0  0  0  0  0  0  0  0  0
   26.2480  -18.8998  -12.7443 O   0  0  0  0  0  0  0  0  0  0  0  0
   22.2616  -20.3282  -10.7686 C   0  0  0  0  0  0  0  0  0  0  0  0
   23.2381  -20.8078  -11.8553 C   0  0  1  0  0  0  0  0  0  0  0  0
   22.9186  -20.0608  -13.0896 C   0  0  0  0  0  0  0  0  0  0  0  0
   24.6016  -20.6765  -11.2829 C   0  0  2  0  0  0  0  0  0  0  0  0
   25.6818  -21.0429  -12.1638 N   0  0  0  0  0  0  0  0  0  0  0  0
   24.7472  -21.1752   -9.8938 C   0  0  0  0  0  0  0  0  0  0  0  0
   24.8656  -22.4168   -9.7437 O   0  0  0  0  0  0  0  0  0  0  0  0
   24.7597  -20.3812   -8.7244 N   0  0  0  0  0  0  0  0  0  0  0  0
   24.8299  -20.9974   -7.3861 C   0  0  1  0  0  0  0  0  0  0  0  0
   25.3464  -20.0826   -6.3450 C   0  0  0  0  0  0  0  0  0  0  0  0
   26.7294  -19.6218   -6.4713 C   0  0  0  0  0  0  0  0  0  0  0  0
   27.1775  -18.9358   -7.6131 C   0  0  0  0  0  0  0  0  0  0  0  0
   28.4751  -18.6075   -7.4654 N   0  0  0  0  0  0  0  0  0  0  0  0
   28.9106  -19.0469   -6.2740 C   0  0  0  0  0  0  0  0  0  0  0  0
   30.1408  -18.9719   -5.6625 C   0  0  0  0  0  0  0  0  0  0  0  0
   30.3308  -19.5220   -4.4207 C   0  0  0  0  0  0  0  0  0  0  0  0
   29.2608  -20.1395   -3.8259 C   0  0  0  0  0  0  0  0  0  0  0  0
   28.0197  -20.2260   -4.4207 C   0  0  0  0  0  0  0  0  0  0  0  0
   27.8350  -19.6720   -5.6636 C   0  0  0  0  0  0  0  0  0  0  0  0
   23.5279  -21.6311   -7.1274 C   0  0  0  0  0  0  0  0  0  0  0  0
   23.4325  -22.7512   -6.3023 O   0  0  0  0  0  0  0  0  0  0  0  0
   22.4322  -21.2326   -7.6098 O   0  0  0  0  0  0  0  0  0  0  0  0
  2  1  1  0
  3  2  1  0
  4  3  1  0
  4  5  1  0
  5  6  1  1
  5  1  1  0
  6  7  2  0
  9  8  1  1
 10  9  1  0
 11  9  1  0
 11 12  1  6
 12  6  1  0
 13 11  1  0
 14 13  2  0
 15 13  1  0
 16 15  1  0
 16 17  1  1
 18 17  1  0
 19 18  2  0
 20 19  1  0
 21 20  1  0
 21 26  2  0
 22 21  1  0
 23 22  2  0
 23 24  1  0
 24 25  2  0
 25 26  1  0
 26 18  1  0
 27 16  1  0
 27 28  1  0
 29 27  2  0
M  END
$$$$
