ARS.pdb
     RDKit          3D

 23 22  0  0  1  0  0  0  0  0999 V2000
   20.0879   -8.6044  -13.7102 C   0  0  0  0  0  0  0  0  0  0  0  0
   18.9494   -9.4676  -13.2262 C   0  0  2  0  0  0  0  0  0  0  0  0
   18.4788  -10.3720  -14.2276 N   0  0  0  0  0  0  0  0  0  0  0  0
   17.8534   -8.6603  -12.6238 C   0  0  0  0  0  0  0  0  0  0  0  0
   17.1785   -7.8458  -13.3041 O   0  0  0  0  0  0  0  0  0  0  0  0
   11.0359  -10.4880   -8.2354 N   0  0  0  0  0  0  0  0  0  0  0  0
   11.0893   -9.0939   -7.8882 C   0  0  0  0  0  0  0  0  0  0  0  0
    9.9984   -8.5020   -7.5586 N   0  0  0  0  0  0  0  0  0  0  0  0
   12.3213   -8.3964   -7.9126 N   0  0  0  0  0  0  0  0  0  0  0  0
   13.5373   -9.0536   -8.3187 C   0  0  0  0  0  0  0  0  0  0  0  0
   14.3600   -8.1379   -9.2291 C   0  0  0  0  0  0  0  0  0  0  0  0
   15.5813   -8.8856   -9.7231 C   0  0  0  0  0  0  0  0  0  0  0  0
   16.3996   -8.0391  -10.6569 C   0  0  2  0  0  0  0  0  0  0  0  0
   17.5045   -8.7602  -11.2483 N   0  0  0  0  0  0  0  0  0  0  0  0
   16.7928   -6.7434  -10.0999 C   0  0  0  0  0  0  0  0  0  0  0  0
   17.6720   -6.7051   -9.2112 O   0  0  0  0  0  0  0  0  0  0  0  0
   10.0297   -7.4810   -7.3617 O   0  0  0  0  0  0  0  0  0  0  0  0
   15.7092   -3.4048  -12.1689 C   0  0  0  0  0  0  0  0  0  0  0  0
   16.8479   -3.3179  -11.3671 C   0  0  1  0  0  0  0  0  0  0  0  0
   16.6797   -4.2375  -10.2131 N   0  0  0  0  0  0  0  0  0  0  0  0
   16.2131   -5.5405  -10.5321 C   0  0  0  0  0  0  0  0  0  0  0  0
   15.7862   -3.5740   -9.2245 O   0  0  0  0  0  0  0  0  0  0  0  0
   14.7184   -4.1653   -8.9163 O   0  0  0  0  0  0  0  0  0  0  0  0
  2  1  1  6
  2  3  1  0
  4  2  1  0
  4  5  2  0
  6  7  1  0
  7  8  2  0
  7  9  1  0
  9 10  1  0
 10 11  1  0
 11 12  1  0
 13 12  1  1
 13 15  1  0
 13 14  1  0
 14  4  1  0
 15 20  1  0
 16 15  2  0
 18 17  1  0
 19 18  1  6
 19 21  1  0
 20 19  1  0
 21 22  2  0
 21 23  1  0
M  END
$$$$
