ARS.pdb
     RDKit          3D

 23 22  0  0  1  0  0  0  0  0999 V2000
   21.2328  -20.6043  -16.0179 C   0  0  0  0  0  0  0  0  0  0  0  0
   22.6339  -21.1348  -15.8407 C   0  0  2  0  0  0  0  0  0  0  0  0
   22.7546  -22.0084  -14.7162 N   0  0  0  0  0  0  0  0  0  0  0  0
   23.6467  -20.0440  -15.8291 C   0  0  0  0  0  0  0  0  0  0  0  0
   23.3152  -18.8315  -15.7870 O   0  0  0  0  0  0  0  0  0  0  0  0
   25.8164  -20.3821  -10.1933 N   0  0  0  0  0  0  0  0  0  0  0  0
   25.2312  -20.9243  -11.3893 C   0  0  0  0  0  0  0  0  0  0  0  0
   24.0248  -21.3611  -11.3379 N   0  0  0  0  0  0  0  0  0  0  0  0
   25.9759  -20.9725  -12.5927 N   0  0  0  0  0  0  0  0  0  0  0  0
   27.2684  -20.3438  -12.6903 C   0  0  0  0  0  0  0  0  0  0  0  0
   27.2099  -19.1498  -13.6471 C   0  0  0  0  0  0  0  0  0  0  0  0
   27.2773  -19.6470  -15.0763 C   0  0  0  0  0  0  0  0  0  0  0  0
   26.0461  -19.2626  -15.8473 C   0  0  2  0  0  0  0  0  0  0  0  0
   25.0446  -20.3053  -15.8652 N   0  0  0  0  0  0  0  0  0  0  0  0
   26.3205  -18.7081  -17.1743 C   0  0  0  0  0  0  0  0  0  0  0  0
   26.5209  -19.4893  -18.1302 O   0  0  0  0  0  0  0  0  0  0  0  0
   23.6068  -21.7621  -12.2020 O   0  0  0  0  0  0  0  0  0  0  0  0
   26.4586  -14.8409  -20.0620 C   0  0  0  0  0  0  0  0  0  0  0  0
   26.2372  -15.2723  -18.7536 C   0  0  2  0  0  0  0  0  0  0  0  0
   26.6087  -16.7075  -18.6642 N   0  0  0  0  0  0  0  0  0  0  0  0
   26.3664  -17.3250  -17.4083 C   0  0  0  0  0  0  0  0  0  0  0  0
   28.0379  -16.8367  -19.0595 O   0  0  0  0  0  0  0  0  0  0  0  0
   28.9084  -16.6042  -18.1803 O   0  0  0  0  0  0  0  0  0  0  0  0
  2  1  1  1
  2  3  1  0
  4  2  1  0
  4  5  2  0
  6  7  1  0
  7  8  2  0
  7  9  1  0
  9 10  1  0
 10 11  1  0
 11 12  1  0
 13 12  1  6
 13 15  1  0
 13 14  1  0
 14  4  1  0
 15 20  1  0
 16 15  2  0
 18 17  1  0
 19 18  1  6
 19 21  1  0
 20 19  1  0
 21 22  2  0
 21 23  1  0
M  END
$$$$
