ARS.pdb
     RDKit          3D

 23 22  0  0  1  0  0  0  0  0999 V2000
   29.4192  -23.9269  -17.0965 C   0  0  0  0  0  0  0  0  0  0  0  0
   28.4759  -22.7729  -17.3292 C   0  0  2  0  0  0  0  0  0  0  0  0
   29.1339  -21.5051  -17.2844 N   0  0  0  0  0  0  0  0  0  0  0  0
   27.2882  -22.8331  -16.4339 C   0  0  0  0  0  0  0  0  0  0  0  0
   26.5349  -23.8395  -16.3981 O   0  0  0  0  0  0  0  0  0  0  0  0
   22.6003  -19.9017  -11.4087 N   0  0  0  0  0  0  0  0  0  0  0  0
   22.9303  -20.6468  -10.2243 C   0  0  0  0  0  0  0  0  0  0  0  0
   22.0191  -20.8220   -9.3364 N   0  0  0  0  0  0  0  0  0  0  0  0
   24.2335  -21.1717  -10.0482 N   0  0  0  0  0  0  0  0  0  0  0  0
   25.2807  -20.8892  -10.9963 C   0  0  0  0  0  0  0  0  0  0  0  0
   24.9550  -21.5178  -12.3539 C   0  0  0  0  0  0  0  0  0  0  0  0
   26.0858  -21.2375  -13.3220 C   0  0  0  0  0  0  0  0  0  0  0  0
   25.7917  -21.8009  -14.6838 C   0  0  2  0  0  0  0  0  0  0  0  0
   26.9345  -21.7608  -15.5685 N   0  0  0  0  0  0  0  0  0  0  0  0
   24.5717  -21.2736  -15.2982 C   0  0  0  0  0  0  0  0  0  0  0  0
   24.5286  -20.0675  -15.6262 O   0  0  0  0  0  0  0  0  0  0  0  0
   22.2553  -21.3758   -8.4881 O   0  0  0  0  0  0  0  0  0  0  0  0
   21.4732  -23.8786  -16.2286 C   0  0  0  0  0  0  0  0  0  0  0  0
   21.6264  -22.7529  -17.0387 C   0  0  1  0  0  0  0  0  0  0  0  0
   22.2805  -21.6858  -16.2391 N   0  0  0  0  0  0  0  0  0  0  0  0
   23.4468  -22.0800  -15.5309 C   0  0  0  0  0  0  0  0  0  0  0  0
   21.2610  -21.1126  -15.3183 O   0  0  0  0  0  0  0  0  0  0  0  0
   20.2326  -20.6015  -15.8340 O   0  0  0  0  0  0  0  0  0  0  0  0
  2  1  1  1
  2  3  1  0
  4  2  1  0
  4  5  2  0
  6  7  1  0
  7  8  2  0
  7  9  1  0
  9 10  1  0
 10 11  1  0
 11 12  1  0
 13 12  1  1
 13 15  1  0
 13 14  1  0
 14  4  1  0
 15 20  1  0
 16 15  2  0
 18 17  1  0
 19 18  1  6
 19 21  1  0
 20 19  1  0
 21 22  2  0
 21 23  1  0
M  END
$$$$
