ARS.pdb
     RDKit          3D

 23 22  0  0  1  0  0  0  0  0999 V2000
   24.9912  -11.5930  -15.0962 C   0  0  0  0  0  0  0  0  0  0  0  0
   23.6925  -11.7038  -15.8557 C   0  0  2  0  0  0  0  0  0  0  0  0
   23.8466  -12.3522  -17.1198 N   0  0  0  0  0  0  0  0  0  0  0  0
   22.9966  -10.3926  -15.9662 C   0  0  0  0  0  0  0  0  0  0  0  0
   23.3510   -9.5219  -16.8018 O   0  0  0  0  0  0  0  0  0  0  0  0
   16.4123  -12.5982  -14.3407 N   0  0  0  0  0  0  0  0  0  0  0  0
   16.2494  -12.2307  -15.7210 C   0  0  0  0  0  0  0  0  0  0  0  0
   15.6123  -13.0308  -16.4975 N   0  0  0  0  0  0  0  0  0  0  0  0
   16.7836  -11.0121  -16.2055 N   0  0  0  0  0  0  0  0  0  0  0  0
   17.5047  -10.1202  -15.3337 C   0  0  0  0  0  0  0  0  0  0  0  0
   18.9172   -9.8751  -15.8713 C   0  0  0  0  0  0  0  0  0  0  0  0
   19.6815   -9.0024  -14.8973 C   0  0  0  0  0  0  0  0  0  0  0  0
   21.1153   -8.8409  -15.3173 C   0  0  2  0  0  0  0  0  0  0  0  0
   21.8938  -10.0459  -15.1371 N   0  0  0  0  0  0  0  0  0  0  0  0
   21.7677   -7.6494  -14.7711 C   0  0  0  0  0  0  0  0  0  0  0  0
   22.3180   -7.7175  -13.6501 O   0  0  0  0  0  0  0  0  0  0  0  0
   15.5192  -12.7758  -17.5018 O   0  0  0  0  0  0  0  0  0  0  0  0
   23.3134   -3.1277  -15.5354 C   0  0  0  0  0  0  0  0  0  0  0  0
   22.5233   -4.1568  -16.0490 C   0  0  2  0  0  0  0  0  0  0  0  0
   22.4893   -5.2613  -15.0567 N   0  0  0  0  0  0  0  0  0  0  0  0
   21.7950   -6.4306  -15.4666 C   0  0  0  0  0  0  0  0  0  0  0  0
   21.9290   -4.7208  -13.7880 O   0  0  0  0  0  0  0  0  0  0  0  0
   20.6760   -4.6947  -13.6695 O   0  0  0  0  0  0  0  0  0  0  0  0
  2  1  1  6
  2  3  1  0
  4  2  1  0
  4  5  2  0
  6  7  1  0
  7  8  2  0
  7  9  1  0
  9 10  1  0
 10 11  1  0
 11 12  1  0
 13 12  1  1
 13 15  1  0
 13 14  1  0
 14  4  1  0
 15 20  1  0
 16 15  2  0
 18 17  1  0
 19 18  1  6
 19 21  1  0
 20 19  1  0
 21 22  2  0
 21 23  1  0
M  END
$$$$
