ARS.pdb
     RDKit          3D

 23 22  0  0  1  0  0  0  0  0999 V2000
   26.5478  -10.2917  -14.7585 C   0  0  0  0  0  0  0  0  0  0  0  0
   25.5440  -10.8095  -15.7585 C   0  0  2  0  0  0  0  0  0  0  0  0
   26.1483  -11.2067  -16.9911 N   0  0  0  0  0  0  0  0  0  0  0  0
   24.4121   -9.8629  -15.9549 C   0  0  0  0  0  0  0  0  0  0  0  0
   24.5051   -8.8669  -16.7172 O   0  0  0  0  0  0  0  0  0  0  0  0
   15.5176  -10.5881  -15.2233 N   0  0  0  0  0  0  0  0  0  0  0  0
   15.7966   -9.2938  -15.7835 C   0  0  0  0  0  0  0  0  0  0  0  0
   14.8137   -8.5839  -16.2064 N   0  0  0  0  0  0  0  0  0  0  0  0
   17.1286   -8.8204  -15.8640 N   0  0  0  0  0  0  0  0  0  0  0  0
   18.2374   -9.6582  -15.4843 C   0  0  0  0  0  0  0  0  0  0  0  0
   19.5625   -8.9274  -15.7175 C   0  0  0  0  0  0  0  0  0  0  0  0
   20.7122   -9.8372  -15.3369 C   0  0  0  0  0  0  0  0  0  0  0  0
   22.0354   -9.1448  -15.5039 C   0  0  2  0  0  0  0  0  0  0  0  0
   23.1623  -10.0263  -15.2954 N   0  0  0  0  0  0  0  0  0  0  0  0
   22.1483   -7.8851  -14.7662 C   0  0  0  0  0  0  0  0  0  0  0  0
   22.5701   -7.9056  -13.5890 O   0  0  0  0  0  0  0  0  0  0  0  0
   15.0180   -7.6480  -16.6119 O   0  0  0  0  0  0  0  0  0  0  0  0
   23.1751   -3.3666  -14.6127 C   0  0  0  0  0  0  0  0  0  0  0  0
   23.0831   -4.5585  -15.3324 C   0  0  2  0  0  0  0  0  0  0  0  0
   21.9945   -5.3789  -14.7429 N   0  0  0  0  0  0  0  0  0  0  0  0
   21.7972   -6.6529  -15.3391 C   0  0  0  0  0  0  0  0  0  0  0  0
   20.7440   -4.5720  -14.7737 O   0  0  0  0  0  0  0  0  0  0  0  0
   20.0873   -4.5569  -15.8476 O   0  0  0  0  0  0  0  0  0  0  0  0
  2  1  1  1
  2  3  1  0
  4  2  1  0
  4  5  2  0
  6  7  1  0
  7  8  2  0
  7  9  1  0
  9 10  1  0
 10 11  1  0
 11 12  1  0
 13 12  1  1
 13 15  1  0
 13 14  1  0
 14  4  1  0
 15 20  1  0
 16 15  2  0
 18 17  1  0
 19 18  1  1
 19 21  1  0
 20 19  1  0
 21 22  2  0
 21 23  1  0
M  END
$$$$
