ARS.pdb
     RDKit          3D

 23 22  0  0  1  0  0  0  0  0999 V2000
   20.6092   -8.3224  -12.1031 C   0  0  0  0  0  0  0  0  0  0  0  0
   19.3088   -9.0867  -12.1178 C   0  0  2  0  0  0  0  0  0  0  0  0
   19.0974   -9.7918  -13.3427 N   0  0  0  0  0  0  0  0  0  0  0  0
   18.1517   -8.2275  -11.7452 C   0  0  0  0  0  0  0  0  0  0  0  0
   17.5293   -7.5461  -12.5996 O   0  0  0  0  0  0  0  0  0  0  0  0
   10.9748   -9.5682   -7.1243 N   0  0  0  0  0  0  0  0  0  0  0  0
   10.9454   -8.1545   -7.3836 C   0  0  0  0  0  0  0  0  0  0  0  0
    9.8765   -7.5014   -7.1011 N   0  0  0  0  0  0  0  0  0  0  0  0
   12.0742   -7.5047   -7.9391 N   0  0  0  0  0  0  0  0  0  0  0  0
   13.3085   -8.2163   -8.1530 C   0  0  0  0  0  0  0  0  0  0  0  0
   14.3427   -7.3028   -8.8165 C   0  0  0  0  0  0  0  0  0  0  0  0
   15.6082   -8.0898   -9.0878 C   0  0  0  0  0  0  0  0  0  0  0  0
   16.5169   -7.3549  -10.0324 C   0  0  2  0  0  0  0  0  0  0  0  0
   17.6820   -8.1250  -10.4063 N   0  0  0  0  0  0  0  0  0  0  0  0
   16.8420   -5.9913   -9.6098 C   0  0  0  0  0  0  0  0  0  0  0  0
   17.5763   -5.8229   -8.6115 O   0  0  0  0  0  0  0  0  0  0  0  0
    9.8766   -6.4700   -7.2369 O   0  0  0  0  0  0  0  0  0  0  0  0
   16.8011   -1.2722  -10.6139 C   0  0  0  0  0  0  0  0  0  0  0  0
   16.3333   -2.5202  -11.0269 C   0  0  2  0  0  0  0  0  0  0  0  0
   16.6523   -3.5135   -9.9699 N   0  0  0  0  0  0  0  0  0  0  0  0
   16.3546   -4.8648  -10.2904 C   0  0  0  0  0  0  0  0  0  0  0  0
   15.9601   -3.0926   -8.7211 O   0  0  0  0  0  0  0  0  0  0  0  0
   16.6274   -2.4379   -7.8780 O   0  0  0  0  0  0  0  0  0  0  0  0
  2  1  1  6
  2  3  1  0
  4  2  1  0
  4  5  2  0
  6  7  1  0
  7  8  2  0
  7  9  1  0
  9 10  1  0
 10 11  1  0
 11 12  1  0
 13 12  1  1
 13 15  1  0
 13 14  1  0
 14  4  1  0
 15 20  1  0
 16 15  2  0
 18 17  1  0
 19 18  1  6
 19 21  1  0
 20 19  1  0
 21 22  2  0
 21 23  1  0
M  END
$$$$
