ARS.pdb
     RDKit          3D

 23 22  0  0  1  0  0  0  0  0999 V2000
   16.4909  -11.5584  -16.3132 C   0  0  0  0  0  0  0  0  0  0  0  0
   17.7866  -11.4351  -15.5506 C   0  0  2  0  0  0  0  0  0  0  0  0
   17.9891  -12.5092  -14.6301 N   0  0  0  0  0  0  0  0  0  0  0  0
   17.9336  -10.0986  -14.9118 C   0  0  0  0  0  0  0  0  0  0  0  0
   17.8849   -9.0347  -15.5807 O   0  0  0  0  0  0  0  0  0  0  0  0
   14.8794   -7.4110   -7.2627 N   0  0  0  0  0  0  0  0  0  0  0  0
   14.3362   -6.7901   -8.4401 C   0  0  0  0  0  0  0  0  0  0  0  0
   13.2013   -6.1959   -8.3517 N   0  0  0  0  0  0  0  0  0  0  0  0
   15.0431   -6.8382   -9.6660 N   0  0  0  0  0  0  0  0  0  0  0  0
   16.1577   -7.7334   -9.8445 C   0  0  0  0  0  0  0  0  0  0  0  0
   16.6373   -7.7048  -11.2982 C   0  0  0  0  0  0  0  0  0  0  0  0
   17.8211   -8.6367  -11.4555 C   0  0  0  0  0  0  0  0  0  0  0  0
   18.3145   -8.6587  -12.8748 C   0  0  2  0  0  0  0  0  0  0  0  0
   18.1376   -9.9442  -13.5124 N   0  0  0  0  0  0  0  0  0  0  0  0
   19.6621   -8.1130  -13.0478 C   0  0  0  0  0  0  0  0  0  0  0  0
   20.6481   -8.8224  -12.7497 O   0  0  0  0  0  0  0  0  0  0  0  0
   12.8225   -5.7247   -9.1983 O   0  0  0  0  0  0  0  0  0  0  0  0
   22.7616   -5.5220  -15.3423 C   0  0  0  0  0  0  0  0  0  0  0  0
   21.4476   -5.9802  -15.2390 C   0  0  2  0  0  0  0  0  0  0  0  0
   21.1535   -6.2409  -13.8068 N   0  0  0  0  0  0  0  0  0  0  0  0
   19.8832   -6.8167  -13.5381 C   0  0  0  0  0  0  0  0  0  0  0  0
   21.3331   -4.9647  -13.0620 O   0  0  0  0  0  0  0  0  0  0  0  0
   20.3119   -4.2540  -12.8700 O   0  0  0  0  0  0  0  0  0  0  0  0
  2  1  1  1
  2  3  1  0
  4  2  1  0
  4  5  2  0
  6  7  1  0
  7  8  2  0
  7  9  1  0
  9 10  1  0
 10 11  1  0
 11 12  1  0
 13 12  1  1
 13 15  1  0
 13 14  1  0
 14  4  1  0
 15 20  1  0
 16 15  2  0
 18 17  1  0
 19 18  1  6
 19 21  1  0
 20 19  1  0
 21 22  2  0
 21 23  1  0
M  END
$$$$
