ARS.pdb
     RDKit          3D

 23 22  0  0  1  0  0  0  0  0999 V2000
   26.4591  -19.7643  -18.6583 C   0  0  0  0  0  0  0  0  0  0  0  0
   26.2197  -21.0751  -17.9512 C   0  0  2  0  0  0  0  0  0  0  0  0
   25.5055  -22.0143  -18.7575 N   0  0  0  0  0  0  0  0  0  0  0  0
   25.5989  -20.8821  -16.6121 C   0  0  0  0  0  0  0  0  0  0  0  0
   26.1108  -20.1270  -15.7463 O   0  0  0  0  0  0  0  0  0  0  0  0
   17.9717  -20.0184  -13.2511 N   0  0  0  0  0  0  0  0  0  0  0  0
   18.3059  -20.4738  -14.5732 C   0  0  0  0  0  0  0  0  0  0  0  0
   17.5127  -20.1833  -15.5404 N   0  0  0  0  0  0  0  0  0  0  0  0
   19.4848  -21.2260  -14.7949 N   0  0  0  0  0  0  0  0  0  0  0  0
   20.1597  -21.8846  -13.7058 C   0  0  0  0  0  0  0  0  0  0  0  0
   21.6258  -21.4473  -13.6444 C   0  0  0  0  0  0  0  0  0  0  0  0
   22.2812  -21.6955  -14.9873 C   0  0  0  0  0  0  0  0  0  0  0  0
   23.7323  -21.3056  -14.9676 C   0  0  2  0  0  0  0  0  0  0  0  0
   24.3946  -21.5369  -16.2318 N   0  0  0  0  0  0  0  0  0  0  0  0
   24.4781  -21.8348  -13.8241 C   0  0  0  0  0  0  0  0  0  0  0  0
   24.5218  -23.0720  -13.6467 O   0  0  0  0  0  0  0  0  0  0  0  0
   17.7700  -20.4907  -16.5003 O   0  0  0  0  0  0  0  0  0  0  0  0
   27.2539  -19.5349  -11.8919 C   0  0  0  0  0  0  0  0  0  0  0  0
   27.2792  -20.9167  -11.6999 C   0  0  1  0  0  0  0  0  0  0  0  0
   25.8871  -21.4273  -11.7860 N   0  0  0  0  0  0  0  0  0  0  0  0
   25.1464  -20.9961  -12.9187 C   0  0  0  0  0  0  0  0  0  0  0  0
   25.1890  -21.0713  -10.5204 O   0  0  0  0  0  0  0  0  0  0  0  0
   25.6826  -21.4976   -9.4436 O   0  0  0  0  0  0  0  0  0  0  0  0
  2  1  1  6
  2  3  1  0
  4  2  1  0
  4  5  2  0
  6  7  1  0
  7  8  2  0
  7  9  1  0
  9 10  1  0
 10 11  1  0
 11 12  1  0
 13 12  1  6
 13 15  1  0
 13 14  1  0
 14  4  1  0
 15 20  1  0
 16 15  2  0
 18 17  1  0
 19 18  1  6
 19 21  1  0
 20 19  1  0
 21 22  2  0
 21 23  1  0
M  END
$$$$
