ARS.pdb
     RDKit          3D

 23 22  0  0  1  0  0  0  0  0999 V2000
   14.2753  -22.2536   -1.9894 C   0  0  0  0  0  0  0  0  0  0  0  0
   14.2177  -22.6957   -3.4306 C   0  0  2  0  0  0  0  0  0  0  0  0
   12.9084  -22.5788   -3.9913 N   0  0  0  0  0  0  0  0  0  0  0  0
   14.8037  -24.0505   -3.6231 C   0  0  0  0  0  0  0  0  0  0  0  0
   14.2625  -25.0810   -3.1467 O   0  0  0  0  0  0  0  0  0  0  0  0
   19.5579  -25.5133  -10.4764 N   0  0  0  0  0  0  0  0  0  0  0  0
   19.0992  -26.6188   -9.6800 C   0  0  0  0  0  0  0  0  0  0  0  0
   19.4697  -27.8045  -10.0058 N   0  0  0  0  0  0  0  0  0  0  0  0
   18.2572  -26.3966   -8.5636 N   0  0  0  0  0  0  0  0  0  0  0  0
   18.0046  -25.0634   -8.0794 C   0  0  0  0  0  0  0  0  0  0  0  0
   16.9475  -25.0896   -6.9720 C   0  0  0  0  0  0  0  0  0  0  0  0
   17.5739  -25.6004   -5.6909 C   0  0  0  0  0  0  0  0  0  0  0  0
   16.5939  -25.5669   -4.5522 C   0  0  2  0  0  0  0  0  0  0  0  0
   16.0059  -24.2610   -4.3538 N   0  0  0  0  0  0  0  0  0  0  0  0
   17.0962  -26.1641   -3.3133 C   0  0  0  0  0  0  0  0  0  0  0  0
   17.7604  -25.4576   -2.5235 O   0  0  0  0  0  0  0  0  0  0  0  0
   19.0772  -28.6086   -9.4752 O   0  0  0  0  0  0  0  0  0  0  0  0
   15.2561  -27.8856   -0.5916 C   0  0  0  0  0  0  0  0  0  0  0  0
   16.1702  -28.8412   -1.0368 C   0  0  2  0  0  0  0  0  0  0  0  0
   17.2526  -28.1448   -1.7779 N   0  0  0  0  0  0  0  0  0  0  0  0
   16.8560  -27.5070   -2.9834 C   0  0  0  0  0  0  0  0  0  0  0  0
   18.3449  -29.1258   -2.0234 O   0  0  0  0  0  0  0  0  0  0  0  0
   18.7295  -29.2835   -3.2116 O   0  0  0  0  0  0  0  0  0  0  0  0
  2  1  1  1
  2  3  1  0
  4  2  1  0
  4  5  2  0
  6  7  1  0
  7  8  2  0
  7  9  1  0
  9 10  1  0
 10 11  1  0
 11 12  1  0
 13 12  1  6
 13 15  1  0
 13 14  1  0
 14  4  1  0
 15 20  1  0
 16 15  2  0
 18 17  1  0
 19 18  1  1
 19 21  1  0
 20 19  1  0
 21 22  2  0
 21 23  1  0
M  END
$$$$
