ARS.pdb
     RDKit          3D

 23 22  0  0  1  0  0  0  0  0999 V2000
   19.4161  -18.9068  -15.6593 C   0  0  0  0  0  0  0  0  0  0  0  0
   20.5861  -19.1883  -16.5691 C   0  0  2  0  0  0  0  0  0  0  0  0
   20.6387  -20.5518  -16.9938 N   0  0  0  0  0  0  0  0  0  0  0  0
   21.8729  -18.7209  -15.9848 C   0  0  0  0  0  0  0  0  0  0  0  0
   22.0343  -17.5347  -15.5993 O   0  0  0  0  0  0  0  0  0  0  0  0
   26.8308  -19.9449  -10.5054 N   0  0  0  0  0  0  0  0  0  0  0  0
   25.7114  -20.7814  -10.1676 C   0  0  0  0  0  0  0  0  0  0  0  0
   25.1866  -20.6620   -9.0017 N   0  0  0  0  0  0  0  0  0  0  0  0
   25.2057  -21.7141  -11.1053 N   0  0  0  0  0  0  0  0  0  0  0  0
   25.4890  -21.5795  -12.5114 C   0  0  0  0  0  0  0  0  0  0  0  0
   24.7384  -20.3790  -13.0942 C   0  0  0  0  0  0  0  0  0  0  0  0
   24.9875  -20.3065  -14.5865 C   0  0  0  0  0  0  0  0  0  0  0  0
   24.2333  -19.1670  -15.2118 C   0  0  2  0  0  0  0  0  0  0  0  0
   22.9933  -19.5833  -15.8279 N   0  0  0  0  0  0  0  0  0  0  0  0
   25.0483  -18.3160  -16.0809 C   0  0  0  0  0  0  0  0  0  0  0  0
   25.1737  -18.6219  -17.2870 O   0  0  0  0  0  0  0  0  0  0  0  0
   24.3401  -21.2247   -8.7805 O   0  0  0  0  0  0  0  0  0  0  0  0
   27.5442  -14.2089  -16.6284 C   0  0  0  0  0  0  0  0  0  0  0  0
   26.8857  -15.0182  -15.7019 C   0  0  2  0  0  0  0  0  0  0  0  0
   26.4767  -16.2730  -16.3829 N   0  0  0  0  0  0  0  0  0  0  0  0
   25.6949  -17.1658  -15.6025 C   0  0  0  0  0  0  0  0  0  0  0  0
   27.7062  -16.9402  -16.8919 O   0  0  0  0  0  0  0  0  0  0  0  0
   28.2405  -17.8134  -16.1592 O   0  0  0  0  0  0  0  0  0  0  0  0
  2  1  1  1
  2  3  1  0
  4  2  1  0
  4  5  2  0
  6  7  1  0
  7  8  2  0
  7  9  1  0
  9 10  1  0
 10 11  1  0
 11 12  1  0
 13 12  1  6
 13 15  1  0
 13 14  1  0
 14  4  1  0
 15 20  1  0
 16 15  2  0
 18 17  1  0
 19 18  1  6
 19 21  1  0
 20 19  1  0
 21 22  2  0
 21 23  1  0
M  END
$$$$
