ARS.pdb
     RDKit          3D

 23 22  0  0  1  0  0  0  0  0999 V2000
   19.4441  -11.5366  -18.5909 C   0  0  0  0  0  0  0  0  0  0  0  0
   20.2243  -11.4117  -17.3058 C   0  0  2  0  0  0  0  0  0  0  0  0
   20.1676  -12.5966  -16.5089 N   0  0  0  0  0  0  0  0  0  0  0  0
   19.8504  -10.1900  -16.5420 C   0  0  0  0  0  0  0  0  0  0  0  0
   19.9774   -9.0379  -17.0300 O   0  0  0  0  0  0  0  0  0  0  0  0
   15.0082   -8.5441   -9.1314 N   0  0  0  0  0  0  0  0  0  0  0  0
   15.6943   -7.3224   -9.4530 C   0  0  0  0  0  0  0  0  0  0  0  0
   15.4333   -6.2723   -8.7615 N   0  0  0  0  0  0  0  0  0  0  0  0
   16.6348   -7.2863  -10.5109 N   0  0  0  0  0  0  0  0  0  0  0  0
   16.9130   -8.4618  -11.2959 C   0  0  0  0  0  0  0  0  0  0  0  0
   17.8577   -8.1202  -12.4514 C   0  0  0  0  0  0  0  0  0  0  0  0
   18.1386   -9.3714  -13.2578 C   0  0  0  0  0  0  0  0  0  0  0  0
   19.0295   -9.0765  -14.4315 C   0  0  2  0  0  0  0  0  0  0  0  0
   19.3295  -10.2509  -15.2196 N   0  0  0  0  0  0  0  0  0  0  0  0
   20.2189   -8.2910  -14.0968 C   0  0  0  0  0  0  0  0  0  0  0  0
   21.1776   -8.8536  -13.5237 O   0  0  0  0  0  0  0  0  0  0  0  0
   15.9286   -5.3886   -8.9979 O   0  0  0  0  0  0  0  0  0  0  0  0
   23.2065   -4.8460  -15.1413 C   0  0  0  0  0  0  0  0  0  0  0  0
   22.0152   -5.4986  -15.4605 C   0  0  2  0  0  0  0  0  0  0  0  0
   21.4762   -6.1212  -14.2244 N   0  0  0  0  0  0  0  0  0  0  0  0
   20.3176   -6.9239  -14.3990 C   0  0  0  0  0  0  0  0  0  0  0  0
   21.2345   -5.0375  -13.2330 O   0  0  0  0  0  0  0  0  0  0  0  0
   20.0387   -4.7377  -12.9783 O   0  0  0  0  0  0  0  0  0  0  0  0
  2  1  1  6
  2  3  1  0
  4  2  1  0
  4  5  2  0
  6  7  1  0
  7  8  2  0
  7  9  1  0
  9 10  1  0
 10 11  1  0
 11 12  1  0
 13 12  1  1
 13 15  1  0
 13 14  1  0
 14  4  1  0
 15 20  1  0
 16 15  2  0
 18 17  1  0
 19 18  1  6
 19 21  1  0
 20 19  1  0
 21 22  2  0
 21 23  1  0
M  END
$$$$
