ARS.pdb
     RDKit          3D

 23 22  0  0  1  0  0  0  0  0999 V2000
   30.2025  -24.8241  -18.9806 C   0  0  0  0  0  0  0  0  0  0  0  0
   30.3150  -24.4179  -17.5322 C   0  0  2  0  0  0  0  0  0  0  0  0
   31.3774  -25.0893  -16.8521 N   0  0  0  0  0  0  0  0  0  0  0  0
   29.0145  -24.5335  -16.8171 C   0  0  0  0  0  0  0  0  0  0  0  0
   28.7262  -25.5425  -16.1240 O   0  0  0  0  0  0  0  0  0  0  0  0
   22.6915  -20.9008  -15.4261 N   0  0  0  0  0  0  0  0  0  0  0  0
   22.5462  -21.0186  -14.0006 C   0  0  0  0  0  0  0  0  0  0  0  0
   21.3625  -21.0162  -13.5028 N   0  0  0  0  0  0  0  0  0  0  0  0
   23.6881  -21.1335  -13.1714 N   0  0  0  0  0  0  0  0  0  0  0  0
   25.0135  -21.1658  -13.7353 C   0  0  0  0  0  0  0  0  0  0  0  0
   25.1644  -22.3654  -14.6746 C   0  0  0  0  0  0  0  0  0  0  0  0
   26.5534  -22.3592  -15.2789 C   0  0  0  0  0  0  0  0  0  0  0  0
   26.7830  -23.5738  -16.1335 C   0  0  2  0  0  0  0  0  0  0  0  0
   28.0233  -23.5147  -16.8742 N   0  0  0  0  0  0  0  0  0  0  0  0
   25.6361  -23.9460  -16.9640 C   0  0  0  0  0  0  0  0  0  0  0  0
   25.3299  -23.2225  -17.9371 O   0  0  0  0  0  0  0  0  0  0  0  0
   21.2605  -21.0776  -12.4693 O   0  0  0  0  0  0  0  0  0  0  0  0
   24.5509  -27.7806  -17.4467 C   0  0  0  0  0  0  0  0  0  0  0  0
   23.4153  -26.9867  -17.2823 C   0  0  2  0  0  0  0  0  0  0  0  0
   23.7984  -25.5692  -17.5054 N   0  0  0  0  0  0  0  0  0  0  0  0
   24.8676  -25.0908  -16.7021 C   0  0  0  0  0  0  0  0  0  0  0  0
   22.5798  -24.7321  -17.3319 O   0  0  0  0  0  0  0  0  0  0  0  0
   22.5865  -23.8792  -16.4059 O   0  0  0  0  0  0  0  0  0  0  0  0
  2  1  1  6
  2  3  1  0
  4  2  1  0
  4  5  2  0
  6  7  1  0
  7  8  2  0
  7  9  1  0
  9 10  1  0
 10 11  1  0
 11 12  1  0
 13 12  1  6
 13 15  1  0
 13 14  1  0
 14  4  1  0
 15 20  1  0
 16 15  2  0
 18 17  1  0
 19 18  1  6
 19 21  1  0
 20 19  1  0
 21 22  2  0
 21 23  1  0
M  END
$$$$
