ARS.pdb
     RDKit          3D

 23 22  0  0  1  0  0  0  0  0999 V2000
   27.6011  -19.8208  -18.0426 C   0  0  0  0  0  0  0  0  0  0  0  0
   28.1013  -20.9388  -17.1620 C   0  0  2  0  0  0  0  0  0  0  0  0
   28.5378  -22.0761  -17.9092 N   0  0  0  0  0  0  0  0  0  0  0  0
   27.1209  -21.2942  -16.0997 C   0  0  0  0  0  0  0  0  0  0  0  0
   26.2142  -22.1445  -16.2914 O   0  0  0  0  0  0  0  0  0  0  0  0
   23.4249  -19.9250   -9.9098 N   0  0  0  0  0  0  0  0  0  0  0  0
   23.9869  -20.7418   -8.8688 C   0  0  0  0  0  0  0  0  0  0  0  0
   23.2269  -21.1114   -7.9019 N   0  0  0  0  0  0  0  0  0  0  0  0
   25.3491  -21.1251   -8.9159 N   0  0  0  0  0  0  0  0  0  0  0  0
   26.2201  -20.6404   -9.9560 C   0  0  0  0  0  0  0  0  0  0  0  0
   25.6860  -21.0480  -11.3319 C   0  0  0  0  0  0  0  0  0  0  0  0
   26.6637  -20.6069  -12.4015 C   0  0  0  0  0  0  0  0  0  0  0  0
   26.1917  -21.0058  -13.7713 C   0  0  2  0  0  0  0  0  0  0  0  0
   27.1495  -20.6963  -14.8092 N   0  0  0  0  0  0  0  0  0  0  0  0
   24.8350  -20.5570  -14.0905 C   0  0  0  0  0  0  0  0  0  0  0  0
   24.6231  -19.3365  -14.2623 O   0  0  0  0  0  0  0  0  0  0  0  0
   23.6497  -21.6499   -7.1186 O   0  0  0  0  0  0  0  0  0  0  0  0
   22.4003  -22.8085  -16.1794 C   0  0  0  0  0  0  0  0  0  0  0  0
   21.6338  -22.2036  -15.1826 C   0  0  2  0  0  0  0  0  0  0  0  0
   22.4340  -21.1100  -14.5749 N   0  0  0  0  0  0  0  0  0  0  0  0
   23.7626  -21.4546  -14.2095 C   0  0  0  0  0  0  0  0  0  0  0  0
   21.6761  -20.5810  -13.4081 O   0  0  0  0  0  0  0  0  0  0  0  0
   20.5481  -20.0683  -13.6307 O   0  0  0  0  0  0  0  0  0  0  0  0
  2  1  1  6
  2  3  1  0
  4  2  1  0
  4  5  2  0
  6  7  1  0
  7  8  2  0
  7  9  1  0
  9 10  1  0
 10 11  1  0
 11 12  1  0
 13 12  1  1
 13 15  1  0
 13 14  1  0
 14  4  1  0
 15 20  1  0
 16 15  2  0
 18 17  1  0
 19 18  1  6
 19 21  1  0
 20 19  1  0
 21 22  2  0
 21 23  1  0
M  END
$$$$
