VKE.pdb
     RDKit          3D

 26 25  0  0  1  0  0  0  0  0999 V2000
   27.9104  -12.0677  -15.2585 C   0  0  0  0  0  0  0  0  0  0  0  0
   26.6542  -11.3409  -15.5858 C   0  0  1  0  0  0  0  0  0  0  0  0
   26.9274  -10.1940  -16.5798 C   0  0  0  0  0  0  0  0  0  0  0  0
   25.5471  -12.1473  -16.1614 C   0  0  2  0  0  0  0  0  0  0  0  0
   26.0748  -12.8815  -17.3276 N   0  0  0  0  0  0  0  0  0  0  0  0
   24.3493  -11.3793  -16.5210 C   0  0  0  0  0  0  0  0  0  0  0  0
   24.2273  -10.9261  -17.6766 O   0  0  0  0  0  0  0  0  0  0  0  0
   23.2938  -11.1174  -15.5834 N   0  0  0  0  0  0  0  0  0  0  0  0
   22.1393  -10.3083  -15.9836 C   0  0  1  0  0  0  0  0  0  0  0  0
   20.8726  -11.0497  -15.8119 C   0  0  0  0  0  0  0  0  0  0  0  0
   19.6311  -10.2757  -16.1156 C   0  0  0  0  0  0  0  0  0  0  0  0
   18.4203  -11.1747  -15.8020 C   0  0  0  0  0  0  0  0  0  0  0  0
   17.1310  -10.5097  -16.1851 C   0  0  0  0  0  0  0  0  0  0  0  0
   16.0153  -11.3257  -15.7279 N   0  0  0  0  0  0  0  0  0  0  0  0
   22.2731   -9.0111  -15.2998 C   0  0  0  0  0  0  0  0  0  0  0  0
   22.6908   -8.9878  -14.1021 O   0  0  0  0  0  0  0  0  0  0  0  0
   21.9960   -7.7450  -15.8232 N   0  0  0  0  0  0  0  0  0  0  0  0
   22.1585   -6.4792  -15.1041 C   0  0  1  0  0  0  0  0  0  0  0  0
   22.2214   -5.3331  -15.9974 C   0  0  0  0  0  0  0  0  0  0  0  0
   22.3503   -4.0082  -15.3496 C   0  0  0  0  0  0  0  0  0  0  0  0
   22.3734   -2.8310  -16.2094 C   0  0  0  0  0  0  0  0  0  0  0  0
   21.2612   -2.3604  -16.6386 O   0  0  0  0  0  0  0  0  0  0  0  0
   21.1973   -6.4361  -14.0425 C   0  0  0  0  0  0  0  0  0  0  0  0
   19.8693   -6.7787  -14.2726 O   0  0  0  0  0  0  0  0  0  0  0  0
   23.5956   -2.2392  -16.5492 O   0  0  0  0  0  0  0  0  0  0  0  0
   21.5006   -6.0938  -12.8807 O   0  0  0  0  0  0  0  0  0  0  0  0
  2  4  1  0
  2  1  1  6
  3  2  1  0
  4  5  1  6
  6  4  1  0
  6  7  2  0
  8  6  1  0
  9  8  1  0
  9 10  1  1
 11 12  1  0
 11 10  1  0
 12 13  1  0
 13 14  1  0
 15 17  1  0
 15  9  1  0
 16 15  2  0
 18 17  1  0
 18 19  1  6
 19 20  1  0
 20 21  1  0
 21 22  2  0
 23 18  1  0
 24 23  1  0
 25 21  1  0
 26 23  2  0
M  END
$$$$
