VKE.pdb
     RDKit          3D

 26 25  0  0  1  0  0  0  0  0999 V2000
   19.3553  -12.3503  -16.3947 C   0  0  0  0  0  0  0  0  0  0  0  0
   18.2634  -11.3404  -16.3600 C   0  0  1  0  0  0  0  0  0  0  0  0
   16.9060  -12.0104  -16.0655 C   0  0  0  0  0  0  0  0  0  0  0  0
   18.4107  -10.2312  -15.3826 C   0  0  2  0  0  0  0  0  0  0  0  0
   18.6937  -10.8220  -14.0603 N   0  0  0  0  0  0  0  0  0  0  0  0
   17.2665   -9.3146  -15.3154 C   0  0  0  0  0  0  0  0  0  0  0  0
   17.0991   -8.4652  -16.2132 O   0  0  0  0  0  0  0  0  0  0  0  0
   16.3160   -9.3492  -14.2397 N   0  0  0  0  0  0  0  0  0  0  0  0
   15.1654   -8.4415  -14.2462 C   0  0  1  0  0  0  0  0  0  0  0  0
   14.0204   -9.0132  -13.5074 C   0  0  0  0  0  0  0  0  0  0  0  0
   12.7945   -8.1597  -13.4656 C   0  0  0  0  0  0  0  0  0  0  0  0
   11.7516   -8.8666  -12.5795 C   0  0  0  0  0  0  0  0  0  0  0  0
   11.3626   -8.0152  -11.4068 C   0  0  0  0  0  0  0  0  0  0  0  0
   10.3626   -8.7169  -10.6146 N   0  0  0  0  0  0  0  0  0  0  0  0
   15.6640   -7.1218  -13.8246 C   0  0  0  0  0  0  0  0  0  0  0  0
   16.3900   -7.0416  -12.7874 O   0  0  0  0  0  0  0  0  0  0  0  0
   15.4395   -5.8921  -14.4500 N   0  0  0  0  0  0  0  0  0  0  0  0
   16.0385   -4.6173  -14.0473 C   0  0  1  0  0  0  0  0  0  0  0  0
   17.0002   -4.1202  -15.0188 C   0  0  0  0  0  0  0  0  0  0  0  0
   17.6148   -2.8083  -14.7146 C   0  0  0  0  0  0  0  0  0  0  0  0
   18.5880   -2.2780  -15.6619 C   0  0  0  0  0  0  0  0  0  0  0  0
   18.9340   -3.0038  -16.6600 O   0  0  0  0  0  0  0  0  0  0  0  0
   14.9869   -3.7305  -13.6468 C   0  0  0  0  0  0  0  0  0  0  0  0
   13.6828   -3.9313  -14.0860 O   0  0  0  0  0  0  0  0  0  0  0  0
   19.1238   -0.9993  -15.4693 O   0  0  0  0  0  0  0  0  0  0  0  0
   15.1879   -2.7516  -12.8983 O   0  0  0  0  0  0  0  0  0  0  0  0
  2  4  1  0
  2  1  1  1
  3  2  1  0
  4  5  1  1
  6  4  1  0
  6  7  2  0
  8  6  1  0
  9  8  1  0
  9 10  1  1
 11 12  1  0
 11 10  1  0
 12 13  1  0
 13 14  1  0
 15 17  1  0
 15  9  1  0
 16 15  2  0
 18 17  1  0
 18 19  1  6
 19 20  1  0
 20 21  1  0
 21 22  2  0
 23 18  1  0
 24 23  1  0
 25 21  1  0
 26 23  2  0
M  END
$$$$
