VKE.pdb
     RDKit          3D

 26 25  0  0  1  0  0  0  0  0999 V2000
   25.4966  -24.2065  -16.9168 C   0  0  0  0  0  0  0  0  0  0  0  0
   26.8079  -23.7761  -16.3614 C   0  0  1  0  0  0  0  0  0  0  0  0
   27.9685  -24.5068  -17.0663 C   0  0  0  0  0  0  0  0  0  0  0  0
   27.1170  -22.3244  -16.4279 C   0  0  2  0  0  0  0  0  0  0  0  0
   28.4849  -22.1243  -15.9118 N   0  0  0  0  0  0  0  0  0  0  0  0
   26.1593  -21.4590  -15.7296 C   0  0  0  0  0  0  0  0  0  0  0  0
   26.0421  -21.5373  -14.4903 O   0  0  0  0  0  0  0  0  0  0  0  0
   25.3321  -20.5116  -16.4225 N   0  0  0  0  0  0  0  0  0  0  0  0
   24.4640  -19.6036  -15.6677 C   0  0  1  0  0  0  0  0  0  0  0  0
   24.6039  -18.2083  -16.1337 C   0  0  0  0  0  0  0  0  0  0  0  0
   25.8300  -17.4956  -15.6629 C   0  0  0  0  0  0  0  0  0  0  0  0
   25.7895  -16.0596  -16.2184 C   0  0  0  0  0  0  0  0  0  0  0  0
   27.0117  -15.2847  -15.8221 C   0  0  0  0  0  0  0  0  0  0  0  0
   26.9400  -13.9483  -16.3954 N   0  0  0  0  0  0  0  0  0  0  0  0
   23.1171  -20.1986  -15.6779 C   0  0  0  0  0  0  0  0  0  0  0  0
   22.7901  -20.9633  -16.6359 O   0  0  0  0  0  0  0  0  0  0  0  0
   22.1096  -20.0305  -14.7238 N   0  0  0  0  0  0  0  0  0  0  0  0
   20.8135  -20.7131  -14.7342 C   0  0  1  0  0  0  0  0  0  0  0  0
   20.9449  -22.1615  -14.7562 C   0  0  0  0  0  0  0  0  0  0  0  0
   21.3522  -22.7982  -13.4833 C   0  0  0  0  0  0  0  0  0  0  0  0
   20.5765  -23.9411  -13.0166 C   0  0  0  0  0  0  0  0  0  0  0  0
   19.3574  -23.7561  -12.6671 O   0  0  0  0  0  0  0  0  0  0  0  0
   19.9931  -20.1406  -13.7086 C   0  0  0  0  0  0  0  0  0  0  0  0
   20.5290  -19.2486  -12.7860 O   0  0  0  0  0  0  0  0  0  0  0  0
   21.1680  -25.2085  -12.9580 O   0  0  0  0  0  0  0  0  0  0  0  0
   18.7795  -20.4113  -13.5955 O   0  0  0  0  0  0  0  0  0  0  0  0
  2  4  1  0
  2  1  1  6
  3  2  1  0
  4  5  1  1
  6  4  1  0
  6  7  2  0
  8  6  1  0
  9  8  1  0
  9 10  1  6
 11 12  1  0
 11 10  1  0
 12 13  1  0
 13 14  1  0
 15 17  1  0
 15  9  1  0
 16 15  2  0
 18 17  1  0
 18 19  1  1
 19 20  1  0
 20 21  1  0
 21 22  2  0
 23 18  1  0
 24 23  1  0
 25 21  1  0
 26 23  2  0
M  END
$$$$
