VKE.pdb
     RDKit          3D

 26 25  0  0  1  0  0  0  0  0999 V2000
   27.2078  -10.7432  -18.7367 C   0  0  0  0  0  0  0  0  0  0  0  0
   26.9173  -11.5833  -17.5437 C   0  0  1  0  0  0  0  0  0  0  0  0
   28.1552  -12.4097  -17.1405 C   0  0  0  0  0  0  0  0  0  0  0  0
   26.4645  -10.8720  -16.3205 C   0  0  2  0  0  0  0  0  0  0  0  0
   26.3901  -11.8542  -15.2218 N   0  0  0  0  0  0  0  0  0  0  0  0
   25.1969  -10.1465  -16.4644 C   0  0  0  0  0  0  0  0  0  0  0  0
   25.1314   -9.1569  -17.2208 O   0  0  0  0  0  0  0  0  0  0  0  0
   24.0075  -10.5291  -15.7567 N   0  0  0  0  0  0  0  0  0  0  0  0
   22.7426   -9.8362  -16.0167 C   0  0  1  0  0  0  0  0  0  0  0  0
   21.5816  -10.6675  -15.6366 C   0  0  0  0  0  0  0  0  0  0  0  0
   20.2487  -10.0053  -15.7693 C   0  0  0  0  0  0  0  0  0  0  0  0
   19.1760  -10.9871  -15.2615 C   0  0  0  0  0  0  0  0  0  0  0  0
   17.7925  -10.4567  -15.4981 C   0  0  0  0  0  0  0  0  0  0  0  0
   16.8339  -11.2712  -14.7650 N   0  0  0  0  0  0  0  0  0  0  0  0
   22.8583   -8.5002  -15.4086 C   0  0  0  0  0  0  0  0  0  0  0  0
   23.4731   -8.3779  -14.3057 O   0  0  0  0  0  0  0  0  0  0  0  0
   22.3651   -7.2939  -15.9139 N   0  0  0  0  0  0  0  0  0  0  0  0
   22.6468   -5.9674  -15.3599 C   0  0  1  0  0  0  0  0  0  0  0  0
   23.1253   -5.0319  -16.3656 C   0  0  0  0  0  0  0  0  0  0  0  0
   23.4125   -3.6584  -15.8938 C   0  0  0  0  0  0  0  0  0  0  0  0
   23.7846   -2.6616  -16.8906 C   0  0  0  0  0  0  0  0  0  0  0  0
   22.9830   -1.6871  -17.1154 O   0  0  0  0  0  0  0  0  0  0  0  0
   21.5267   -5.5635  -14.5630 C   0  0  0  0  0  0  0  0  0  0  0  0
   21.7099   -4.7956  -13.4181 O   0  0  0  0  0  0  0  0  0  0  0  0
   24.9973   -2.7823  -17.5790 O   0  0  0  0  0  0  0  0  0  0  0  0
   20.3535   -5.8771  -14.8528 O   0  0  0  0  0  0  0  0  0  0  0  0
  2  4  1  0
  2  1  1  6
  3  2  1  0
  4  5  1  1
  6  4  1  0
  6  7  2  0
  8  6  1  0
  9  8  1  0
  9 10  1  1
 11 12  1  0
 11 10  1  0
 12 13  1  0
 13 14  1  0
 15 17  1  0
 15  9  1  0
 16 15  2  0
 18 17  1  0
 18 19  1  6
 19 20  1  0
 20 21  1  0
 21 22  2  0
 23 18  1  0
 24 23  1  0
 25 21  1  0
 26 23  2  0
M  END
$$$$
