VKE.pdb
     RDKit          3D

 26 25  0  0  1  0  0  0  0  0999 V2000
   23.2672  -14.6538  -15.9926 C   0  0  0  0  0  0  0  0  0  0  0  0
   24.3195  -14.6799  -17.0439 C   0  0  1  0  0  0  0  0  0  0  0  0
   24.7037  -13.2488  -17.4707 C   0  0  0  0  0  0  0  0  0  0  0  0
   25.5867  -15.3763  -16.7028 C   0  0  2  0  0  0  0  0  0  0  0  0
   26.5131  -15.2230  -17.8412 N   0  0  0  0  0  0  0  0  0  0  0  0
   25.4329  -16.7890  -16.3361 C   0  0  0  0  0  0  0  0  0  0  0  0
   25.0433  -17.6118  -17.1886 O   0  0  0  0  0  0  0  0  0  0  0  0
   25.7116  -17.2748  -15.0140 N   0  0  0  0  0  0  0  0  0  0  0  0
   25.5099  -18.6905  -14.6935 C   0  0  1  0  0  0  0  0  0  0  0  0
   26.5297  -19.1814  -13.7433 C   0  0  0  0  0  0  0  0  0  0  0  0
   27.8504  -19.5341  -14.3468 C   0  0  0  0  0  0  0  0  0  0  0  0
   27.6394  -20.7371  -15.2854 C   0  0  0  0  0  0  0  0  0  0  0  0
   28.9290  -21.1701  -15.9185 C   0  0  0  0  0  0  0  0  0  0  0  0
   28.6674  -22.2671  -16.8394 N   0  0  0  0  0  0  0  0  0  0  0  0
   24.0939  -18.8430  -14.3195 C   0  0  0  0  0  0  0  0  0  0  0  0
   23.7078  -18.4186  -13.1881 O   0  0  0  0  0  0  0  0  0  0  0  0
   23.0721  -19.4117  -15.0852 N   0  0  0  0  0  0  0  0  0  0  0  0
   21.6871  -19.5938  -14.6443 C   0  0  1  0  0  0  0  0  0  0  0  0
   20.7822  -18.6148  -15.2260 C   0  0  0  0  0  0  0  0  0  0  0  0
   19.3516  -18.7596  -14.8739 C   0  0  0  0  0  0  0  0  0  0  0  0
   18.4068  -17.8233  -15.4708 C   0  0  0  0  0  0  0  0  0  0  0  0
   18.7088  -16.5779  -15.4983 O   0  0  0  0  0  0  0  0  0  0  0  0
   21.3446  -20.9773  -14.7905 C   0  0  0  0  0  0  0  0  0  0  0  0
   20.3719  -21.5572  -13.9833 O   0  0  0  0  0  0  0  0  0  0  0  0
   17.1983  -18.2928  -15.9985 O   0  0  0  0  0  0  0  0  0  0  0  0
   21.8942  -21.7156  -15.6341 O   0  0  0  0  0  0  0  0  0  0  0  0
  2  4  1  0
  2  1  1  1
  3  2  1  0
  4  5  1  6
  6  4  1  0
  6  7  2  0
  8  6  1  0
  9  8  1  0
  9 10  1  1
 11 12  1  0
 11 10  1  0
 12 13  1  0
 13 14  1  0
 15 17  1  0
 15  9  1  0
 16 15  2  0
 18 17  1  0
 18 19  1  6
 19 20  1  0
 20 21  1  0
 21 22  2  0
 23 18  1  0
 24 23  1  0
 25 21  1  0
 26 23  2  0
M  END
$$$$
