VKE.pdb
     RDKit          3D

 26 25  0  0  1  0  0  0  0  0999 V2000
   26.1735  -10.3800  -15.0232 C   0  0  0  0  0  0  0  0  0  0  0  0
   26.3286  -11.5553  -15.9220 C   0  0  1  0  0  0  0  0  0  0  0  0
   27.4073  -12.5176  -15.3851 C   0  0  0  0  0  0  0  0  0  0  0  0
   25.1130  -12.3736  -16.1668 C   0  0  2  0  0  0  0  0  0  0  0  0
   25.4880  -13.4970  -17.0471 N   0  0  0  0  0  0  0  0  0  0  0  0
   23.9726  -11.6317  -16.7173 C   0  0  0  0  0  0  0  0  0  0  0  0
   23.9482  -11.3432  -17.9304 O   0  0  0  0  0  0  0  0  0  0  0  0
   22.8652  -11.2111  -15.9058 N   0  0  0  0  0  0  0  0  0  0  0  0
   21.7552  -10.4660  -16.5062 C   0  0  1  0  0  0  0  0  0  0  0  0
   20.6550  -11.3658  -16.9106 C   0  0  0  0  0  0  0  0  0  0  0  0
   20.0874  -12.2142  -15.8194 C   0  0  0  0  0  0  0  0  0  0  0  0
   18.8925  -12.9964  -16.3964 C   0  0  0  0  0  0  0  0  0  0  0  0
   18.2458  -13.8572  -15.3513 C   0  0  0  0  0  0  0  0  0  0  0  0
   17.1398  -14.5906  -15.9502 N   0  0  0  0  0  0  0  0  0  0  0  0
   21.4362   -9.3638  -15.5836 C   0  0  0  0  0  0  0  0  0  0  0  0
   21.6209   -9.5304  -14.3396 O   0  0  0  0  0  0  0  0  0  0  0  0
   20.9424   -8.0986  -15.9141 N   0  0  0  0  0  0  0  0  0  0  0  0
   20.7108   -7.0073  -14.9645 C   0  0  1  0  0  0  0  0  0  0  0  0
   21.5517   -5.8500  -15.2274 C   0  0  0  0  0  0  0  0  0  0  0  0
   21.4303   -4.7258  -14.2719 C   0  0  0  0  0  0  0  0  0  0  0  0
   22.2744   -3.5568  -14.4874 C   0  0  0  0  0  0  0  0  0  0  0  0
   23.1598   -3.5993  -15.4131 O   0  0  0  0  0  0  0  0  0  0  0  0
   19.2985   -6.7876  -14.8646 C   0  0  0  0  0  0  0  0  0  0  0  0
   18.7538   -6.1673  -13.7455 O   0  0  0  0  0  0  0  0  0  0  0  0
   22.1073   -2.4190  -13.6894 O   0  0  0  0  0  0  0  0  0  0  0  0
   18.5033   -7.1376  -15.7613 O   0  0  0  0  0  0  0  0  0  0  0  0
  2  4  1  0
  2  1  1  1
  3  2  1  0
  4  5  1  6
  6  4  1  0
  6  7  2  0
  8  6  1  0
  9  8  1  0
  9 10  1  1
 11 12  1  0
 11 10  1  0
 12 13  1  0
 13 14  1  0
 15 17  1  0
 15  9  1  0
 16 15  2  0
 18 17  1  0
 18 19  1  6
 19 20  1  0
 20 21  1  0
 21 22  2  0
 23 18  1  0
 24 23  1  0
 25 21  1  0
 26 23  2  0
M  END
$$$$
