VKE.pdb
     RDKit          3D

 26 25  0  0  1  0  0  0  0  0999 V2000
   21.9849  -17.6301  -15.3043 C   0  0  0  0  0  0  0  0  0  0  0  0
   21.9508  -18.4017  -16.5758 C   0  0  1  0  0  0  0  0  0  0  0  0
   21.1429  -17.6492  -17.6523 C   0  0  0  0  0  0  0  0  0  0  0  0
   23.2620  -18.7394  -17.1872 C   0  0  2  0  0  0  0  0  0  0  0  0
   23.0059  -19.4717  -18.4425 N   0  0  0  0  0  0  0  0  0  0  0  0
   24.1718  -19.4918  -16.3153 C   0  0  0  0  0  0  0  0  0  0  0  0
   23.9092  -20.6743  -16.0184 O   0  0  0  0  0  0  0  0  0  0  0  0
   25.3707  -18.9153  -15.7749 N   0  0  0  0  0  0  0  0  0  0  0  0
   26.2463  -19.7140  -14.9128 C   0  0  1  0  0  0  0  0  0  0  0  0
   27.6719  -19.4826  -15.2256 C   0  0  0  0  0  0  0  0  0  0  0  0
   28.1482  -20.0692  -16.5147 C   0  0  0  0  0  0  0  0  0  0  0  0
   28.5942  -21.5183  -16.2429 C   0  0  0  0  0  0  0  0  0  0  0  0
   29.0597  -22.1926  -17.4998 C   0  0  0  0  0  0  0  0  0  0  0  0
   29.5241  -23.5352  -17.1809 N   0  0  0  0  0  0  0  0  0  0  0  0
   25.8017  -19.4846  -13.5279 C   0  0  0  0  0  0  0  0  0  0  0  0
   25.7328  -18.2946  -13.0936 O   0  0  0  0  0  0  0  0  0  0  0  0
   25.4205  -20.4483  -12.5900 N   0  0  0  0  0  0  0  0  0  0  0  0
   24.9738  -20.1673  -11.2235 C   0  0  1  0  0  0  0  0  0  0  0  0
   23.5443  -19.9104  -11.1446 C   0  0  0  0  0  0  0  0  0  0  0  0
   22.6673  -20.8943  -11.8185 C   0  0  0  0  0  0  0  0  0  0  0  0
   21.2256  -20.7171  -11.6932 C   0  0  0  0  0  0  0  0  0  0  0  0
   20.7843  -19.7452  -10.9838 O   0  0  0  0  0  0  0  0  0  0  0  0
   25.5122  -21.1728  -10.3564 C   0  0  0  0  0  0  0  0  0  0  0  0
   25.3434  -21.0871   -8.9787 O   0  0  0  0  0  0  0  0  0  0  0  0
   20.3551  -21.6008  -12.3419 O   0  0  0  0  0  0  0  0  0  0  0  0
   26.1484  -22.1563  -10.7888 O   0  0  0  0  0  0  0  0  0  0  0  0
  2  4  1  0
  2  1  1  1
  3  2  1  0
  4  5  1  6
  6  4  1  0
  6  7  2  0
  8  6  1  0
  9  8  1  0
  9 10  1  1
 11 12  1  0
 11 10  1  0
 12 13  1  0
 13 14  1  0
 15 17  1  0
 15  9  1  0
 16 15  2  0
 18 17  1  0
 18 19  1  6
 19 20  1  0
 20 21  1  0
 21 22  2  0
 23 18  1  0
 24 23  1  0
 25 21  1  0
 26 23  2  0
M  END
$$$$
