VKE.pdb
     RDKit          3D

 26 25  0  0  1  0  0  0  0  0999 V2000
   20.9762  -13.5937  -19.7997 C   0  0  0  0  0  0  0  0  0  0  0  0
   20.6560  -13.8637  -18.3722 C   0  0  1  0  0  0  0  0  0  0  0  0
   21.5761  -14.9620  -17.8021 C   0  0  0  0  0  0  0  0  0  0  0  0
   20.7420  -12.7108  -17.4391 C   0  0  2  0  0  0  0  0  0  0  0  0
   20.5708  -13.2211  -16.0651 N   0  0  0  0  0  0  0  0  0  0  0  0
   19.7978  -11.6223  -17.7175 C   0  0  0  0  0  0  0  0  0  0  0  0
   19.8508  -11.0195  -18.8081 O   0  0  0  0  0  0  0  0  0  0  0  0
   18.8000  -11.2092  -16.7711 N   0  0  0  0  0  0  0  0  0  0  0  0
   17.9239  -10.0744  -17.0750 C   0  0  1  0  0  0  0  0  0  0  0  0
   16.5074  -10.3956  -16.8028 C   0  0  0  0  0  0  0  0  0  0  0  0
   16.2406  -11.0497  -15.4861 C   0  0  0  0  0  0  0  0  0  0  0  0
   14.7259  -11.3092  -15.3811 C   0  0  0  0  0  0  0  0  0  0  0  0
   14.3759  -11.9940  -14.0927 C   0  0  0  0  0  0  0  0  0  0  0  0
   12.9445  -12.2589  -14.0630 N   0  0  0  0  0  0  0  0  0  0  0  0
   18.5028   -8.8998  -16.4018 C   0  0  0  0  0  0  0  0  0  0  0  0
   19.1329   -9.0637  -15.3130 O   0  0  0  0  0  0  0  0  0  0  0  0
   18.4542   -7.5695  -16.8283 N   0  0  0  0  0  0  0  0  0  0  0  0
   18.9691   -6.4220  -16.0773 C   0  0  1  0  0  0  0  0  0  0  0  0
   19.3870   -5.3300  -16.9425 C   0  0  0  0  0  0  0  0  0  0  0  0
   18.3129   -4.4320  -17.4235 C   0  0  0  0  0  0  0  0  0  0  0  0
   18.6901   -3.3313  -18.3020 C   0  0  0  0  0  0  0  0  0  0  0  0
   18.7884   -2.1537  -17.8057 O   0  0  0  0  0  0  0  0  0  0  0  0
   18.0418   -6.1152  -15.0290 C   0  0  0  0  0  0  0  0  0  0  0  0
   18.4110   -5.2878  -13.9741 O   0  0  0  0  0  0  0  0  0  0  0  0
   18.9363   -3.5743  -19.6584 O   0  0  0  0  0  0  0  0  0  0  0  0
   16.8789   -6.5692  -15.0124 O   0  0  0  0  0  0  0  0  0  0  0  0
  2  4  1  0
  2  1  1  6
  3  2  1  0
  4  5  1  1
  6  4  1  0
  6  7  2  0
  8  6  1  0
  9  8  1  0
  9 10  1  1
 11 12  1  0
 11 10  1  0
 12 13  1  0
 13 14  1  0
 15 17  1  0
 15  9  1  0
 16 15  2  0
 18 17  1  0
 18 19  1  6
 19 20  1  0
 20 21  1  0
 21 22  2  0
 23 18  1  0
 24 23  1  0
 25 21  1  0
 26 23  2  0
M  END
$$$$
