VKE.pdb
     RDKit          3D

 26 25  0  0  1  0  0  0  0  0999 V2000
   16.6259  -15.4672  -16.8753 C   0  0  0  0  0  0  0  0  0  0  0  0
   15.7622  -14.2777  -16.6468 C   0  0  1  0  0  0  0  0  0  0  0  0
   14.4419  -14.6824  -15.9606 C   0  0  0  0  0  0  0  0  0  0  0  0
   16.3428  -13.1770  -15.8352 C   0  0  2  0  0  0  0  0  0  0  0  0
   16.8269  -13.7520  -14.5653 N   0  0  0  0  0  0  0  0  0  0  0  0
   15.4365  -12.0490  -15.5905 C   0  0  0  0  0  0  0  0  0  0  0  0
   15.0794  -11.3234  -16.5400 O   0  0  0  0  0  0  0  0  0  0  0  0
   14.9367  -11.7344  -14.2817 N   0  0  0  0  0  0  0  0  0  0  0  0
   14.0693  -10.5693  -14.0867 C   0  0  1  0  0  0  0  0  0  0  0  0
   13.0575  -10.8168  -13.0385 C   0  0  0  0  0  0  0  0  0  0  0  0
   12.1210   -9.6833  -12.7718 C   0  0  0  0  0  0  0  0  0  0  0  0
   11.0339  -10.1816  -11.8010 C   0  0  0  0  0  0  0  0  0  0  0  0
   10.1123   -9.0697  -11.3939 C   0  0  0  0  0  0  0  0  0  0  0  0
   10.8283   -8.1462  -10.5254 N   0  0  0  0  0  0  0  0  0  0  0  0
   14.9547   -9.4040  -13.9241 C   0  0  0  0  0  0  0  0  0  0  0  0
   15.9178   -9.4738  -13.1014 O   0  0  0  0  0  0  0  0  0  0  0  0
   14.8747   -8.1795  -14.5934 N   0  0  0  0  0  0  0  0  0  0  0  0
   15.8111   -7.0648  -14.4308 C   0  0  1  0  0  0  0  0  0  0  0  0
   16.8804   -7.0850  -15.4167 C   0  0  0  0  0  0  0  0  0  0  0  0
   17.8132   -5.9358  -15.3899 C   0  0  0  0  0  0  0  0  0  0  0  0
   18.9093   -5.9279  -16.3512 C   0  0  0  0  0  0  0  0  0  0  0  0
   19.6697   -4.8979  -16.4091 O   0  0  0  0  0  0  0  0  0  0  0  0
   15.0550   -5.8547  -14.3023 C   0  0  0  0  0  0  0  0  0  0  0  0
   15.6549   -4.6883  -13.8401 O   0  0  0  0  0  0  0  0  0  0  0  0
   19.1123   -7.0324  -17.1868 O   0  0  0  0  0  0  0  0  0  0  0  0
   13.8425   -5.7910  -14.5931 O   0  0  0  0  0  0  0  0  0  0  0  0
  2  4  1  0
  2  1  1  1
  3  2  1  0
  4  5  1  1
  6  4  1  0
  6  7  2  0
  8  6  1  0
  9  8  1  0
  9 10  1  1
 11 12  1  0
 11 10  1  0
 12 13  1  0
 13 14  1  0
 15 17  1  0
 15  9  1  0
 16 15  2  0
 18 17  1  0
 18 19  1  6
 19 20  1  0
 20 21  1  0
 21 22  2  0
 23 18  1  0
 24 23  1  0
 25 21  1  0
 26 23  2  0
M  END
$$$$
