VKE.pdb
     RDKit          3D

 26 25  0  0  1  0  0  0  0  0999 V2000
   26.1872  -32.3042  -10.4607 C   0  0  0  0  0  0  0  0  0  0  0  0
   25.9746  -33.3679   -9.4426 C   0  0  1  0  0  0  0  0  0  0  0  0
   26.2219  -32.8235   -8.0211 C   0  0  0  0  0  0  0  0  0  0  0  0
   24.6376  -34.0155   -9.4229 C   0  0  2  0  0  0  0  0  0  0  0  0
   23.6282  -32.9721   -9.1584 N   0  0  0  0  0  0  0  0  0  0  0  0
   24.5066  -35.1272   -8.4737 C   0  0  0  0  0  0  0  0  0  0  0  0
   23.8632  -34.9676   -7.4172 O   0  0  0  0  0  0  0  0  0  0  0  0
   25.1008  -36.4130   -8.7089 N   0  0  0  0  0  0  0  0  0  0  0  0
   24.8376  -37.5235   -7.7895 C   0  0  1  0  0  0  0  0  0  0  0  0
   24.8803  -38.8257   -8.4869 C   0  0  0  0  0  0  0  0  0  0  0  0
   24.5554  -40.0152   -7.6429 C   0  0  0  0  0  0  0  0  0  0  0  0
   24.6734  -41.2722   -8.5253 C   0  0  0  0  0  0  0  0  0  0  0  0
   24.2016  -42.4972   -7.7987 C   0  0  0  0  0  0  0  0  0  0  0  0
   24.4540  -43.6711   -8.6222 N   0  0  0  0  0  0  0  0  0  0  0  0
   25.7279  -37.3356   -6.6318 C   0  0  0  0  0  0  0  0  0  0  0  0
   26.8517  -36.7733   -6.8055 O   0  0  0  0  0  0  0  0  0  0  0  0
   25.4827  -37.7044   -5.3061 N   0  0  0  0  0  0  0  0  0  0  0  0
   26.3942  -37.4744   -4.1826 C   0  0  1  0  0  0  0  0  0  0  0  0
   26.1840  -36.1825   -3.5481 C   0  0  0  0  0  0  0  0  0  0  0  0
   26.9914  -35.9123   -2.3371 C   0  0  0  0  0  0  0  0  0  0  0  0
   26.8130  -34.6257   -1.6747 C   0  0  0  0  0  0  0  0  0  0  0  0
   27.2503  -34.4836   -0.4783 O   0  0  0  0  0  0  0  0  0  0  0  0
   26.3754  -38.6336   -3.3409 C   0  0  0  0  0  0  0  0  0  0  0  0
   25.4324  -39.6370   -3.5352 O   0  0  0  0  0  0  0  0  0  0  0  0
   26.1743  -33.5774   -2.3474 O   0  0  0  0  0  0  0  0  0  0  0  0
   27.1898  -38.7948   -2.4083 O   0  0  0  0  0  0  0  0  0  0  0  0
  2  4  1  0
  2  1  1  6
  3  2  1  0
  4  5  1  1
  6  4  1  0
  6  7  2  0
  8  6  1  0
  9  8  1  0
  9 10  1  6
 11 12  1  0
 11 10  1  0
 12 13  1  0
 13 14  1  0
 15 17  1  0
 15  9  1  0
 16 15  2  0
 18 17  1  0
 18 19  1  1
 19 20  1  0
 20 21  1  0
 21 22  2  0
 23 18  1  0
 24 23  1  0
 25 21  1  0
 26 23  2  0
M  END
$$$$
