DWQ.pdb
     RDKit          3D

 32 33  0  0  1  0  0  0  0  0999 V2000
   28.5978  -22.8771  -17.2985 N   0  0  0  0  0  0  0  0  0  0  0  0
   27.8792  -21.6925  -16.9271 C   0  0  1  0  0  0  0  0  0  0  0  0
   26.9980  -21.2754  -18.0664 C   0  0  0  0  0  0  0  0  0  0  0  0
   27.8821  -20.7222  -19.1265 C   0  0  0  0  0  0  0  0  0  0  0  0
   28.8326  -19.9296  -18.8750 O   0  0  0  0  0  0  0  0  0  0  0  0
   27.1558  -21.8883  -15.6496 C   0  0  0  0  0  0  0  0  0  0  0  0
   26.4378  -22.9242  -15.5051 O   0  0  0  0  0  0  0  0  0  0  0  0
   27.7167  -21.0455  -20.4726 O   0  0  0  0  0  0  0  0  0  0  0  0
   27.2100  -20.9941  -14.5693 N   0  0  0  0  0  0  0  0  0  0  0  0
   26.4818  -21.2037  -13.3013 C   0  0  1  0  0  0  0  0  0  0  0  0
   27.2509  -20.4501  -12.2802 C   0  0  0  0  0  0  0  0  0  0  0  0
   26.6843  -20.3150  -10.9467 C   0  0  0  0  0  0  0  0  0  0  0  0
   25.3719  -19.9490  -10.5953 C   0  0  0  0  0  0  0  0  0  0  0  0
   25.2862  -19.9222   -9.2635 N   0  0  0  0  0  0  0  0  0  0  0  0
   26.4912  -20.2569   -8.7275 C   0  0  0  0  0  0  0  0  0  0  0  0
   26.9064  -20.3804   -7.4200 C   0  0  0  0  0  0  0  0  0  0  0  0
   28.2032  -20.7529   -7.1011 C   0  0  0  0  0  0  0  0  0  0  0  0
   29.1049  -21.0077   -8.1065 C   0  0  0  0  0  0  0  0  0  0  0  0
   28.6684  -20.8777   -9.4062 C   0  0  0  0  0  0  0  0  0  0  0  0
   27.3860  -20.5086   -9.7647 C   0  0  0  0  0  0  0  0  0  0  0  0
   25.0566  -20.9301  -13.4127 C   0  0  0  0  0  0  0  0  0  0  0  0
   24.6391  -19.8514  -13.9066 O   0  0  0  0  0  0  0  0  0  0  0  0
   20.0412  -24.9186  -12.7256 N   0  0  0  0  0  0  0  0  0  0  0  0
   19.4797  -23.6592  -12.9997 C   0  0  0  0  0  0  0  0  0  0  0  0
   18.2453  -23.5434  -13.1455 O   0  0  0  0  0  0  0  0  0  0  0  0
   20.3105  -22.4030  -13.1313 C   0  0  0  0  0  0  0  0  0  0  0  0
   21.7537  -22.6919  -12.8528 C   0  0  0  0  0  0  0  0  0  0  0  0
   22.6106  -21.5150  -13.1184 C   0  0  2  0  0  0  0  0  0  0  0  0
   24.0317  -21.8293  -12.9872 N   0  0  0  0  0  0  0  0  0  0  0  0
   22.2853  -20.2919  -12.3452 C   0  0  0  0  0  0  0  0  0  0  0  0
   21.4465  -19.2972  -12.9039 O   0  0  0  0  0  0  0  0  0  0  0  0
   22.6895  -20.0242  -11.1928 O   0  0  0  0  0  0  0  0  0  0  0  0
  2  1  1  6
  2  3  1  0
  4  3  1  0
  4  8  1  0
  5  4  2  0
  6  7  2  0
  6  2  1  0
  9  6  1  0
 10  9  1  0
 10 11  1  1
 11 12  1  0
 12 13  2  0
 12 20  1  0
 13 14  1  0
 14 15  1  0
 15 16  2  0
 16 17  1  0
 18 17  2  0
 19 18  1  0
 20 19  2  0
 20 15  1  0
 21 10  1  0
 22 21  2  0
 23 24  1  0
 24 25  2  0
 26 24  1  0
 26 27  1  0
 28 27  1  1
 28 29  1  0
 29 21  1  0
 30 28  1  0
 31 30  1  0
 32 30  2  0
M  END
$$$$
