DWQ.pdb
     RDKit          3D

 32 33  0  0  1  0  0  0  0  0999 V2000
   29.6924  -21.0936  -14.4628 N   0  0  0  0  0  0  0  0  0  0  0  0
   28.3274  -20.7847  -14.7774 C   0  0  1  0  0  0  0  0  0  0  0  0
   27.9406  -21.4984  -16.0382 C   0  0  0  0  0  0  0  0  0  0  0  0
   28.9179  -21.1007  -17.0862 C   0  0  0  0  0  0  0  0  0  0  0  0
   29.1016  -19.8978  -17.4242 O   0  0  0  0  0  0  0  0  0  0  0  0
   27.4388  -21.0729  -13.6280 C   0  0  0  0  0  0  0  0  0  0  0  0
   26.4035  -21.7812  -13.8171 O   0  0  0  0  0  0  0  0  0  0  0  0
   29.6975  -22.0358  -17.7656 O   0  0  0  0  0  0  0  0  0  0  0  0
   27.6656  -20.6105  -12.3225 N   0  0  0  0  0  0  0  0  0  0  0  0
   26.8156  -20.9745  -11.1705 C   0  0  1  0  0  0  0  0  0  0  0  0
   27.4884  -20.3840   -9.9869 C   0  0  0  0  0  0  0  0  0  0  0  0
   26.8080  -20.4440   -8.7020 C   0  0  0  0  0  0  0  0  0  0  0  0
   25.4396  -20.6593   -8.4547 C   0  0  0  0  0  0  0  0  0  0  0  0
   25.2390  -20.6112   -7.1360 N   0  0  0  0  0  0  0  0  0  0  0  0
   26.4226  -20.3733   -6.5084 C   0  0  0  0  0  0  0  0  0  0  0  0
   26.7395  -20.2476   -5.1739 C   0  0  0  0  0  0  0  0  0  0  0  0
   28.0401  -20.0144   -4.7543 C   0  0  0  0  0  0  0  0  0  0  0  0
   29.0459  -19.9042   -5.6844 C   0  0  0  0  0  0  0  0  0  0  0  0
   28.7064  -20.0327   -7.0129 C   0  0  0  0  0  0  0  0  0  0  0  0
   27.4235  -20.2646   -7.4708 C   0  0  0  0  0  0  0  0  0  0  0  0
   25.4105  -20.6568  -11.3784 C   0  0  0  0  0  0  0  0  0  0  0  0
   25.0523  -19.5105  -11.7516 O   0  0  0  0  0  0  0  0  0  0  0  0
   21.4592  -22.6389  -14.6796 N   0  0  0  0  0  0  0  0  0  0  0  0
   20.4924  -22.2562  -13.7335 C   0  0  0  0  0  0  0  0  0  0  0  0
   19.3408  -21.9497  -14.1053 O   0  0  0  0  0  0  0  0  0  0  0  0
   20.7778  -22.1933  -12.2502 C   0  0  0  0  0  0  0  0  0  0  0  0
   22.2197  -22.4924  -11.9760 C   0  0  0  0  0  0  0  0  0  0  0  0
   22.9636  -21.2807  -11.5657 C   0  0  2  0  0  0  0  0  0  0  0  0
   24.3416  -21.5843  -11.1856 N   0  0  0  0  0  0  0  0  0  0  0  0
   22.3177  -20.4496  -10.5208 C   0  0  0  0  0  0  0  0  0  0  0  0
   21.3617  -19.4687  -10.8798 O   0  0  0  0  0  0  0  0  0  0  0  0
   22.5331  -20.5203   -9.2912 O   0  0  0  0  0  0  0  0  0  0  0  0
  2  1  1  1
  2  3  1  0
  4  3  1  0
  4  8  1  0
  5  4  2  0
  6  7  2  0
  6  2  1  0
  9  6  1  0
 10  9  1  0
 10 11  1  1
 11 12  1  0
 12 13  2  0
 12 20  1  0
 13 14  1  0
 14 15  1  0
 15 16  2  0
 16 17  1  0
 18 17  2  0
 19 18  1  0
 20 19  2  0
 20 15  1  0
 21 10  1  0
 22 21  2  0
 23 24  1  0
 24 25  2  0
 26 24  1  0
 26 27  1  0
 28 27  1  1
 28 29  1  0
 29 21  1  0
 30 28  1  0
 31 30  1  0
 32 30  2  0
M  END
$$$$
