DWQ.pdb
     RDKit          3D

 32 33  0  0  1  0  0  0  0  0999 V2000
   29.1185  -21.7065  -14.3870 N   0  0  0  0  0  0  0  0  0  0  0  0
   27.9777  -20.8376  -14.3511 C   0  0  1  0  0  0  0  0  0  0  0  0
   27.1999  -20.9959  -15.6233 C   0  0  0  0  0  0  0  0  0  0  0  0
   28.0890  -20.5730  -16.7378 C   0  0  0  0  0  0  0  0  0  0  0  0
   28.4931  -21.3734  -17.6272 O   0  0  0  0  0  0  0  0  0  0  0  0
   27.1764  -21.0630  -13.1260 C   0  0  0  0  0  0  0  0  0  0  0  0
   26.0167  -21.5652  -13.2366 O   0  0  0  0  0  0  0  0  0  0  0  0
   28.5352  -19.2589  -16.8721 O   0  0  0  0  0  0  0  0  0  0  0  0
   27.6173  -20.7555  -11.8295 N   0  0  0  0  0  0  0  0  0  0  0  0
   26.7871  -20.9404  -10.6218 C   0  0  1  0  0  0  0  0  0  0  0  0
   27.6910  -20.6568   -9.4795 C   0  0  0  0  0  0  0  0  0  0  0  0
   27.1205  -20.6027   -8.1419 C   0  0  0  0  0  0  0  0  0  0  0  0
   25.8111  -20.9297   -7.7439 C   0  0  0  0  0  0  0  0  0  0  0  0
   25.7047  -20.7112   -6.4314 N   0  0  0  0  0  0  0  0  0  0  0  0
   26.8936  -20.2541   -5.9528 C   0  0  0  0  0  0  0  0  0  0  0  0
   27.2910  -19.8997   -4.6825 C   0  0  0  0  0  0  0  0  0  0  0  0
   28.5809  -19.4648   -4.4190 C   0  0  0  0  0  0  0  0  0  0  0  0
   29.4936  -19.3815   -5.4432 C   0  0  0  0  0  0  0  0  0  0  0  0
   29.0745  -19.7404   -6.7051 C   0  0  0  0  0  0  0  0  0  0  0  0
   27.7993  -20.1776   -7.0081 C   0  0  0  0  0  0  0  0  0  0  0  0
   25.5262  -20.2159  -10.6827 C   0  0  0  0  0  0  0  0  0  0  0  0
   25.4873  -19.0086  -11.0327 O   0  0  0  0  0  0  0  0  0  0  0  0
   23.2530  -22.7323  -14.9523 N   0  0  0  0  0  0  0  0  0  0  0  0
   22.2392  -21.7835  -14.7317 C   0  0  0  0  0  0  0  0  0  0  0  0
   21.4431  -21.4946  -15.6489 O   0  0  0  0  0  0  0  0  0  0  0  0
   22.0547  -21.0742  -13.4094 C   0  0  0  0  0  0  0  0  0  0  0  0
   23.2341  -21.3069  -12.5156 C   0  0  0  0  0  0  0  0  0  0  0  0
   23.0833  -20.6150  -11.2162 C   0  0  2  0  0  0  0  0  0  0  0  0
   24.2569  -20.7870  -10.3625 N   0  0  0  0  0  0  0  0  0  0  0  0
   21.8492  -20.9302  -10.4562 C   0  0  0  0  0  0  0  0  0  0  0  0
   20.6854  -20.1419  -10.6273 O   0  0  0  0  0  0  0  0  0  0  0  0
   21.7119  -21.8642   -9.6365 O   0  0  0  0  0  0  0  0  0  0  0  0
  2  1  1  6
  2  3  1  0
  4  3  1  0
  4  8  1  0
  5  4  2  0
  6  7  2  0
  6  2  1  0
  9  6  1  0
 10  9  1  0
 10 11  1  1
 11 12  1  0
 12 13  2  0
 12 20  1  0
 13 14  1  0
 14 15  1  0
 15 16  2  0
 16 17  1  0
 18 17  2  0
 19 18  1  0
 20 19  2  0
 20 15  1  0
 21 10  1  0
 22 21  2  0
 23 24  1  0
 24 25  2  0
 26 24  1  0
 26 27  1  0
 28 27  1  6
 28 29  1  0
 29 21  1  0
 30 28  1  0
 31 30  1  0
 32 30  2  0
M  END
$$$$
