DWQ.pdb
     RDKit          3D

 32 33  0  0  1  0  0  0  0  0999 V2000
   28.1601  -21.8301  -14.8297 N   0  0  0  0  0  0  0  0  0  0  0  0
   27.9421  -20.8109  -13.8440 C   0  0  1  0  0  0  0  0  0  0  0  0
   27.5206  -19.5462  -14.5305 C   0  0  0  0  0  0  0  0  0  0  0  0
   28.6562  -19.1108  -15.3863 C   0  0  0  0  0  0  0  0  0  0  0  0
   29.5641  -19.9019  -15.7667 O   0  0  0  0  0  0  0  0  0  0  0  0
   26.9955  -21.2725  -12.8026 C   0  0  0  0  0  0  0  0  0  0  0  0
   25.9304  -21.8611  -13.1610 O   0  0  0  0  0  0  0  0  0  0  0  0
   28.7910  -17.7943  -15.8252 O   0  0  0  0  0  0  0  0  0  0  0  0
   27.1975  -21.1024  -11.4242 N   0  0  0  0  0  0  0  0  0  0  0  0
   26.1740  -21.4163  -10.4064 C   0  0  1  0  0  0  0  0  0  0  0  0
   26.9348  -21.7297   -9.1714 C   0  0  0  0  0  0  0  0  0  0  0  0
   27.1312  -20.6716   -8.1919 C   0  0  0  0  0  0  0  0  0  0  0  0
   26.6485  -19.3506   -8.2339 C   0  0  0  0  0  0  0  0  0  0  0  0
   27.0843  -18.7099   -7.1471 N   0  0  0  0  0  0  0  0  0  0  0  0
   27.8338  -19.5594   -6.3934 C   0  0  0  0  0  0  0  0  0  0  0  0
   28.4858  -19.3818   -5.1932 C   0  0  0  0  0  0  0  0  0  0  0  0
   29.1923  -20.4111   -4.5903 C   0  0  0  0  0  0  0  0  0  0  0  0
   29.2501  -21.6432   -5.1965 C   0  0  0  0  0  0  0  0  0  0  0  0
   28.5914  -21.7982   -6.3960 C   0  0  0  0  0  0  0  0  0  0  0  0
   27.8779  -20.7981   -7.0285 C   0  0  0  0  0  0  0  0  0  0  0  0
   25.1302  -20.4057  -10.3198 C   0  0  0  0  0  0  0  0  0  0  0  0
   25.4119  -19.1801  -10.3141 O   0  0  0  0  0  0  0  0  0  0  0  0
   23.6204  -20.1075  -15.2952 N   0  0  0  0  0  0  0  0  0  0  0  0
   22.3692  -20.2320  -14.6663 C   0  0  0  0  0  0  0  0  0  0  0  0
   21.3211  -20.0303  -15.3139 O   0  0  0  0  0  0  0  0  0  0  0  0
   22.2184  -20.6068  -13.2095 C   0  0  0  0  0  0  0  0  0  0  0  0
   23.0255  -19.6908  -12.3416 C   0  0  0  0  0  0  0  0  0  0  0  0
   22.7224  -19.8855  -10.9063 C   0  0  2  0  0  0  0  0  0  0  0  0
   23.7349  -20.6991  -10.2364 N   0  0  0  0  0  0  0  0  0  0  0  0
   21.3668  -20.4017  -10.5969 C   0  0  0  0  0  0  0  0  0  0  0  0
   20.3157  -19.5047  -10.2876 O   0  0  0  0  0  0  0  0  0  0  0  0
   21.0278  -21.6049  -10.5769 O   0  0  0  0  0  0  0  0  0  0  0  0
  2  1  1  6
  2  3  1  0
  4  3  1  0
  4  8  1  0
  5  4  2  0
  6  7  2  0
  6  2  1  0
  9  6  1  0
 10  9  1  0
 10 11  1  1
 11 12  1  0
 12 13  2  0
 12 20  1  0
 13 14  1  0
 14 15  1  0
 15 16  2  0
 16 17  1  0
 18 17  2  0
 19 18  1  0
 20 19  2  0
 20 15  1  0
 21 10  1  0
 22 21  2  0
 23 24  1  0
 24 25  2  0
 26 24  1  0
 26 27  1  0
 28 27  1  6
 28 29  1  0
 29 21  1  0
 30 28  1  0
 31 30  1  0
 32 30  2  0
M  END
$$$$
