DWQ.pdb
     RDKit          3D

 32 33  0  0  1  0  0  0  0  0999 V2000
   27.6819  -21.7267  -15.2240 N   0  0  0  0  0  0  0  0  0  0  0  0
   27.5546  -20.6290  -14.3094 C   0  0  1  0  0  0  0  0  0  0  0  0
   26.8687  -19.4897  -15.0023 C   0  0  0  0  0  0  0  0  0  0  0  0
   27.8175  -18.9558  -16.0153 C   0  0  0  0  0  0  0  0  0  0  0  0
   29.0278  -18.7100  -15.7513 O   0  0  0  0  0  0  0  0  0  0  0  0
   26.8909  -21.0559  -13.0560 C   0  0  0  0  0  0  0  0  0  0  0  0
   25.8904  -21.8326  -13.1267 O   0  0  0  0  0  0  0  0  0  0  0  0
   27.4287  -18.6913  -17.3279 O   0  0  0  0  0  0  0  0  0  0  0  0
   27.2982  -20.6556  -11.7739 N   0  0  0  0  0  0  0  0  0  0  0  0
   26.5064  -20.9068  -10.5525 C   0  0  1  0  0  0  0  0  0  0  0  0
   27.4335  -20.6408   -9.4246 C   0  0  0  0  0  0  0  0  0  0  0  0
   26.9014  -20.6650   -8.0705 C   0  0  0  0  0  0  0  0  0  0  0  0
   25.6485  -21.1388   -7.6395 C   0  0  0  0  0  0  0  0  0  0  0  0
   25.5587  -20.9483   -6.3214 N   0  0  0  0  0  0  0  0  0  0  0  0
   26.7042  -20.3684   -5.8708 C   0  0  0  0  0  0  0  0  0  0  0  0
   27.0987  -19.9869   -4.6075 C   0  0  0  0  0  0  0  0  0  0  0  0
   28.3404  -19.4155   -4.3752 C   0  0  0  0  0  0  0  0  0  0  0  0
   29.2069  -19.2205   -5.4240 C   0  0  0  0  0  0  0  0  0  0  0  0
   28.7917  -19.6090   -6.6783 C   0  0  0  0  0  0  0  0  0  0  0  0
   27.5635  -20.1806   -6.9507 C   0  0  0  0  0  0  0  0  0  0  0  0
   25.2259  -20.2148  -10.5532 C   0  0  0  0  0  0  0  0  0  0  0  0
   25.1579  -18.9750  -10.7530 O   0  0  0  0  0  0  0  0  0  0  0  0
   23.5925  -19.8232  -14.5669 N   0  0  0  0  0  0  0  0  0  0  0  0
   22.4358  -20.5445  -14.2229 C   0  0  0  0  0  0  0  0  0  0  0  0
   21.8914  -21.2905  -15.0628 O   0  0  0  0  0  0  0  0  0  0  0  0
   21.7971  -20.4645  -12.8550 C   0  0  0  0  0  0  0  0  0  0  0  0
   22.6163  -19.6086  -11.9382 C   0  0  0  0  0  0  0  0  0  0  0  0
   22.6941  -20.1811  -10.5759 C   0  0  2  0  0  0  0  0  0  0  0  0
   23.9681  -20.8553  -10.3351 N   0  0  0  0  0  0  0  0  0  0  0  0
   21.5683  -21.0620  -10.1804 C   0  0  0  0  0  0  0  0  0  0  0  0
   21.7072  -22.4696  -10.2460 O   0  0  0  0  0  0  0  0  0  0  0  0
   20.4488  -20.6823   -9.7733 O   0  0  0  0  0  0  0  0  0  0  0  0
  2  1  1  6
  2  3  1  0
  4  3  1  0
  4  8  1  0
  5  4  2  0
  6  7  2  0
  6  2  1  0
  9  6  1  0
 10  9  1  0
 10 11  1  1
 11 12  1  0
 12 13  2  0
 12 20  1  0
 13 14  1  0
 14 15  1  0
 15 16  2  0
 16 17  1  0
 18 17  2  0
 19 18  1  0
 20 19  2  0
 20 15  1  0
 21 10  1  0
 22 21  2  0
 23 24  1  0
 24 25  2  0
 26 24  1  0
 26 27  1  0
 28 27  1  6
 28 29  1  0
 29 21  1  0
 30 28  1  0
 31 30  1  0
 32 30  2  0
M  END
$$$$
