DWQ.pdb
     RDKit          3D

 32 33  0  0  1  0  0  0  0  0999 V2000
   27.2425  -23.6412  -16.1540 N   0  0  0  0  0  0  0  0  0  0  0  0
   26.1393  -22.7279  -16.0725 C   0  0  1  0  0  0  0  0  0  0  0  0
   25.0905  -23.1352  -17.0638 C   0  0  0  0  0  0  0  0  0  0  0  0
   25.4411  -22.4989  -18.3614 C   0  0  0  0  0  0  0  0  0  0  0  0
   26.1506  -21.4570  -18.4388 O   0  0  0  0  0  0  0  0  0  0  0  0
   25.6408  -22.6195  -14.6820 C   0  0  0  0  0  0  0  0  0  0  0  0
   25.3632  -23.6818  -14.0465 O   0  0  0  0  0  0  0  0  0  0  0  0
   25.0062  -23.0152  -19.5813 O   0  0  0  0  0  0  0  0  0  0  0  0
   25.4514  -21.4041  -14.0063 N   0  0  0  0  0  0  0  0  0  0  0  0
   24.9925  -21.3142  -12.6051 C   0  0  1  0  0  0  0  0  0  0  0  0
   25.8299  -20.2564  -11.9871 C   0  0  0  0  0  0  0  0  0  0  0  0
   27.0575  -20.6508  -11.3127 C   0  0  0  0  0  0  0  0  0  0  0  0
   28.2390  -21.1548  -11.8873 C   0  0  0  0  0  0  0  0  0  0  0  0
   29.1065  -21.4114  -10.9059 N   0  0  0  0  0  0  0  0  0  0  0  0
   28.5404  -21.0947   -9.7098 C   0  0  0  0  0  0  0  0  0  0  0  0
   29.0250  -21.1670   -8.4225 C   0  0  0  0  0  0  0  0  0  0  0  0
   28.2619  -20.7707   -7.3350 C   0  0  0  0  0  0  0  0  0  0  0  0
   26.9891  -20.2922   -7.5348 C   0  0  0  0  0  0  0  0  0  0  0  0
   26.5248  -20.2290   -8.8299 C   0  0  0  0  0  0  0  0  0  0  0  0
   27.2533  -20.6145   -9.9389 C   0  0  0  0  0  0  0  0  0  0  0  0
   23.5472  -21.1878  -12.4876 C   0  0  0  0  0  0  0  0  0  0  0  0
   22.8829  -20.5274  -13.3268 O   0  0  0  0  0  0  0  0  0  0  0  0
   19.4046  -24.2313   -8.5568 N   0  0  0  0  0  0  0  0  0  0  0  0
   18.6524  -23.2255   -9.1885 C   0  0  0  0  0  0  0  0  0  0  0  0
   17.4369  -23.1001   -8.9328 O   0  0  0  0  0  0  0  0  0  0  0  0
   19.2500  -22.2610  -10.1876 C   0  0  0  0  0  0  0  0  0  0  0  0
   20.7298  -22.4651  -10.2995 C   0  0  0  0  0  0  0  0  0  0  0  0
   21.3238  -21.6118  -11.3526 C   0  0  2  0  0  0  0  0  0  0  0  0
   22.7724  -21.7812  -11.4448 N   0  0  0  0  0  0  0  0  0  0  0  0
   20.9823  -20.1702  -11.2844 C   0  0  0  0  0  0  0  0  0  0  0  0
   19.8653  -19.6677  -11.9951 O   0  0  0  0  0  0  0  0  0  0  0  0
   21.6023  -19.3000  -10.6352 O   0  0  0  0  0  0  0  0  0  0  0  0
  2  1  1  1
  2  3  1  0
  4  3  1  0
  4  8  1  0
  5  4  2  0
  6  7  2  0
  6  2  1  0
  9  6  1  0
 10  9  1  0
 10 11  1  6
 11 12  1  0
 12 13  2  0
 12 20  1  0
 13 14  1  0
 14 15  1  0
 15 16  2  0
 16 17  1  0
 18 17  2  0
 19 18  1  0
 20 19  2  0
 20 15  1  0
 21 10  1  0
 22 21  2  0
 23 24  1  0
 24 25  2  0
 26 24  1  0
 26 27  1  0
 28 27  1  1
 28 29  1  0
 29 21  1  0
 30 28  1  0
 31 30  1  0
 32 30  2  0
M  END
$$$$
