DWQ.pdb
     RDKit          3D

 32 33  0  0  1  0  0  0  0  0999 V2000
   18.5118  -14.1314  -17.2232 N   0  0  0  0  0  0  0  0  0  0  0  0
   18.7570  -12.8312  -17.7772 C   0  0  1  0  0  0  0  0  0  0  0  0
   17.8170  -12.6003  -18.9225 C   0  0  0  0  0  0  0  0  0  0  0  0
   18.2748  -13.4589  -20.0471 C   0  0  0  0  0  0  0  0  0  0  0  0
   19.3255  -13.2164  -20.7045 O   0  0  0  0  0  0  0  0  0  0  0  0
   18.6938  -11.7865  -16.7292 C   0  0  0  0  0  0  0  0  0  0  0  0
   17.7441  -11.8190  -15.8887 O   0  0  0  0  0  0  0  0  0  0  0  0
   17.5690  -14.5921  -20.4490 O   0  0  0  0  0  0  0  0  0  0  0  0
   19.6265  -10.7461  -16.5977 N   0  0  0  0  0  0  0  0  0  0  0  0
   19.4996   -9.6592  -15.6054 C   0  0  1  0  0  0  0  0  0  0  0  0
   20.8703   -9.4520  -15.0759 C   0  0  0  0  0  0  0  0  0  0  0  0
   21.1063   -8.3238  -14.1877 C   0  0  0  0  0  0  0  0  0  0  0  0
   20.7646   -8.2044  -12.8279 C   0  0  0  0  0  0  0  0  0  0  0  0
   21.1401   -6.9952  -12.4055 N   0  0  0  0  0  0  0  0  0  0  0  0
   21.7155   -6.3168  -13.4351 C   0  0  0  0  0  0  0  0  0  0  0  0
   22.2652   -5.0557  -13.5037 C   0  0  0  0  0  0  0  0  0  0  0  0
   22.8172   -4.5660  -14.6775 C   0  0  0  0  0  0  0  0  0  0  0  0
   22.8213   -5.3498  -15.8064 C   0  0  0  0  0  0  0  0  0  0  0  0
   22.2661   -6.6069  -15.7152 C   0  0  0  0  0  0  0  0  0  0  0  0
   21.7064   -7.1304  -14.5655 C   0  0  0  0  0  0  0  0  0  0  0  0
   18.7915   -8.4975  -16.1227 C   0  0  0  0  0  0  0  0  0  0  0  0
   19.0061   -8.0713  -17.2863 O   0  0  0  0  0  0  0  0  0  0  0  0
   13.3654   -7.4059  -14.4562 N   0  0  0  0  0  0  0  0  0  0  0  0
   13.6773   -7.7784  -15.7755 C   0  0  0  0  0  0  0  0  0  0  0  0
   12.8953   -8.5067  -16.4209 O   0  0  0  0  0  0  0  0  0  0  0  0
   14.9416   -7.3338  -16.4750 C   0  0  0  0  0  0  0  0  0  0  0  0
   15.7624   -6.4588  -15.5781 C   0  0  0  0  0  0  0  0  0  0  0  0
   17.2039   -6.5371  -15.9036 C   0  0  2  0  0  0  0  0  0  0  0  0
   17.8189   -7.7568  -15.3842 N   0  0  0  0  0  0  0  0  0  0  0  0
   18.0163   -5.3553  -15.5254 C   0  0  0  0  0  0  0  0  0  0  0  0
   18.6588   -5.3056  -14.2645 O   0  0  0  0  0  0  0  0  0  0  0  0
   18.2093   -4.3422  -16.2321 O   0  0  0  0  0  0  0  0  0  0  0  0
  2  1  1  1
  2  3  1  0
  4  3  1  0
  4  8  1  0
  5  4  2  0
  6  7  2  0
  6  2  1  0
  9  6  1  0
 10  9  1  0
 10 11  1  6
 11 12  1  0
 12 13  2  0
 12 20  1  0
 13 14  1  0
 14 15  1  0
 15 16  2  0
 16 17  1  0
 18 17  2  0
 19 18  1  0
 20 19  2  0
 20 15  1  0
 21 10  1  0
 22 21  2  0
 23 24  1  0
 24 25  2  0
 26 24  1  0
 26 27  1  0
 28 27  1  1
 28 29  1  0
 29 21  1  0
 30 28  1  0
 31 30  1  0
 32 30  2  0
M  END
$$$$
