DWQ.pdb
     RDKit          3D

 32 33  0  0  1  0  0  0  0  0999 V2000
   27.7336  -22.1711  -16.0558 N   0  0  0  0  0  0  0  0  0  0  0  0
   27.8412  -21.1196  -15.0861 C   0  0  1  0  0  0  0  0  0  0  0  0
   27.4253  -19.8247  -15.7178 C   0  0  0  0  0  0  0  0  0  0  0  0
   28.4115  -19.5212  -16.7887 C   0  0  0  0  0  0  0  0  0  0  0  0
   29.6450  -19.3796  -16.5577 O   0  0  0  0  0  0  0  0  0  0  0  0
   27.0906  -21.4543  -13.8538 C   0  0  0  0  0  0  0  0  0  0  0  0
   25.9920  -22.0801  -13.9570 O   0  0  0  0  0  0  0  0  0  0  0  0
   28.0346  -19.3730  -18.1228 O   0  0  0  0  0  0  0  0  0  0  0  0
   27.5166  -21.1228  -12.5583 N   0  0  0  0  0  0  0  0  0  0  0  0
   26.6420  -21.1949  -11.3701 C   0  0  1  0  0  0  0  0  0  0  0  0
   27.5490  -21.0308  -10.2071 C   0  0  0  0  0  0  0  0  0  0  0  0
   26.9604  -20.7881   -8.8986 C   0  0  0  0  0  0  0  0  0  0  0  0
   25.6033  -20.8538   -8.5327 C   0  0  0  0  0  0  0  0  0  0  0  0
   25.5010  -20.5323   -7.2412 N   0  0  0  0  0  0  0  0  0  0  0  0
   26.7383  -20.2589   -6.7455 C   0  0  0  0  0  0  0  0  0  0  0  0
   27.1568  -19.8949   -5.4848 C   0  0  0  0  0  0  0  0  0  0  0  0
   28.4955  -19.6754   -5.1983 C   0  0  0  0  0  0  0  0  0  0  0  0
   29.4365  -19.8218   -6.1892 C   0  0  0  0  0  0  0  0  0  0  0  0
   28.9956  -20.1859   -7.4421 C   0  0  0  0  0  0  0  0  0  0  0  0
   27.6720  -20.4129   -7.7673 C   0  0  0  0  0  0  0  0  0  0  0  0
   25.4891  -20.3109  -11.4588 C   0  0  0  0  0  0  0  0  0  0  0  0
   25.5991  -19.1442  -11.9154 O   0  0  0  0  0  0  0  0  0  0  0  0
   23.4443  -20.7460  -16.0193 N   0  0  0  0  0  0  0  0  0  0  0  0
   22.9319  -19.5368  -15.5175 C   0  0  0  0  0  0  0  0  0  0  0  0
   22.6218  -18.6160  -16.3013 O   0  0  0  0  0  0  0  0  0  0  0  0
   22.7303  -19.2827  -14.0409 C   0  0  0  0  0  0  0  0  0  0  0  0
   23.1081  -20.4909  -13.2400 C   0  0  0  0  0  0  0  0  0  0  0  0
   22.9790  -20.2483  -11.7859 C   0  0  2  0  0  0  0  0  0  0  0  0
   24.1688  -20.6713  -11.0504 N   0  0  0  0  0  0  0  0  0  0  0  0
   21.7604  -20.7999  -11.1451 C   0  0  0  0  0  0  0  0  0  0  0  0
   21.6843  -22.1771  -10.8249 O   0  0  0  0  0  0  0  0  0  0  0  0
   20.7363  -20.1516  -10.8384 O   0  0  0  0  0  0  0  0  0  0  0  0
  2  1  1  6
  2  3  1  0
  4  3  1  0
  4  8  1  0
  5  4  2  0
  6  7  2  0
  6  2  1  0
  9  6  1  0
 10  9  1  0
 10 11  1  1
 11 12  1  0
 12 13  2  0
 12 20  1  0
 13 14  1  0
 14 15  1  0
 15 16  2  0
 16 17  1  0
 18 17  2  0
 19 18  1  0
 20 19  2  0
 20 15  1  0
 21 10  1  0
 22 21  2  0
 23 24  1  0
 24 25  2  0
 26 24  1  0
 26 27  1  0
 28 27  1  6
 28 29  1  0
 29 21  1  0
 30 28  1  0
 31 30  1  0
 32 30  2  0
M  END
$$$$
