DWQ.pdb
     RDKit          3D

 32 33  0  0  1  0  0  0  0  0999 V2000
   29.7202  -22.4980  -17.3400 N   0  0  0  0  0  0  0  0  0  0  0  0
   28.4506  -21.8324  -17.2886 C   0  0  1  0  0  0  0  0  0  0  0  0
   27.6180  -22.2725  -18.4554 C   0  0  0  0  0  0  0  0  0  0  0  0
   28.1844  -21.6256  -19.6688 C   0  0  0  0  0  0  0  0  0  0  0  0
   28.4226  -20.3869  -19.7313 O   0  0  0  0  0  0  0  0  0  0  0  0
   27.7971  -22.0350  -15.9749 C   0  0  0  0  0  0  0  0  0  0  0  0
   27.5241  -23.2167  -15.6026 O   0  0  0  0  0  0  0  0  0  0  0  0
   28.4901  -22.3496  -20.8204 O   0  0  0  0  0  0  0  0  0  0  0  0
   27.4535  -20.9945  -15.0980 N   0  0  0  0  0  0  0  0  0  0  0  0
   26.7697  -21.2104  -13.8065 C   0  0  1  0  0  0  0  0  0  0  0  0
   27.3859  -20.2372  -12.8710 C   0  0  0  0  0  0  0  0  0  0  0  0
   26.9573  -20.2467  -11.4804 C   0  0  0  0  0  0  0  0  0  0  0  0
   25.7012  -19.8877  -10.9577 C   0  0  0  0  0  0  0  0  0  0  0  0
   25.7463  -20.0184   -9.6301 N   0  0  0  0  0  0  0  0  0  0  0  0
   26.9830  -20.4497   -9.2615 C   0  0  0  0  0  0  0  0  0  0  0  0
   27.5177  -20.7412   -8.0261 C   0  0  0  0  0  0  0  0  0  0  0  0
   28.8231  -21.1867   -7.8856 C   0  0  0  0  0  0  0  0  0  0  0  0
   29.6118  -21.3450   -8.9999 C   0  0  0  0  0  0  0  0  0  0  0  0
   29.0569  -21.0475  -10.2247 C   0  0  0  0  0  0  0  0  0  0  0  0
   27.7619  -20.6010  -10.4061 C   0  0  0  0  0  0  0  0  0  0  0  0
   25.3190  -21.2097  -13.9248 C   0  0  0  0  0  0  0  0  0  0  0  0
   24.7212  -20.3167  -14.5781 O   0  0  0  0  0  0  0  0  0  0  0  0
   21.1164  -25.9545  -13.8542 N   0  0  0  0  0  0  0  0  0  0  0  0
   20.3249  -24.7940  -13.7982 C   0  0  0  0  0  0  0  0  0  0  0  0
   19.0818  -24.8808  -13.8742 O   0  0  0  0  0  0  0  0  0  0  0  0
   20.9115  -23.4089  -13.6469 C   0  0  0  0  0  0  0  0  0  0  0  0
   22.4019  -23.4775  -13.5141 C   0  0  0  0  0  0  0  0  0  0  0  0
   23.0096  -22.1301  -13.4435 C   0  0  2  0  0  0  0  0  0  0  0  0
   24.4655  -22.1891  -13.3312 N   0  0  0  0  0  0  0  0  0  0  0  0
   22.4546  -21.2249  -12.4079 C   0  0  0  0  0  0  0  0  0  0  0  0
   22.5775  -19.8212  -12.5478 O   0  0  0  0  0  0  0  0  0  0  0  0
   21.8576  -21.5797  -11.3683 O   0  0  0  0  0  0  0  0  0  0  0  0
  2  1  1  1
  2  3  1  0
  4  3  1  0
  4  8  1  0
  5  4  2  0
  6  7  2  0
  6  2  1  0
  9  6  1  0
 10  9  1  0
 10 11  1  1
 11 12  1  0
 12 13  2  0
 12 20  1  0
 13 14  1  0
 14 15  1  0
 15 16  2  0
 16 17  1  0
 18 17  2  0
 19 18  1  0
 20 19  2  0
 20 15  1  0
 21 10  1  0
 22 21  2  0
 23 24  1  0
 24 25  2  0
 26 24  1  0
 26 27  1  0
 28 27  1  1
 28 29  1  0
 29 21  1  0
 30 28  1  0
 31 30  1  0
 32 30  2  0
M  END
$$$$
