DWQ.pdb
     RDKit          3D

 32 33  0  0  1  0  0  0  0  0999 V2000
   27.8492  -22.5066  -16.1774 N   0  0  0  0  0  0  0  0  0  0  0  0
   27.8076  -21.3399  -15.3439 C   0  0  1  0  0  0  0  0  0  0  0  0
   27.2190  -20.2013  -16.1222 C   0  0  0  0  0  0  0  0  0  0  0  0
   28.2098  -19.8223  -17.1644 C   0  0  0  0  0  0  0  0  0  0  0  0
   29.4061  -19.5250  -16.8901 O   0  0  0  0  0  0  0  0  0  0  0  0
   27.1066  -21.6216  -14.0700 C   0  0  0  0  0  0  0  0  0  0  0  0
   26.0158  -22.2686  -14.1014 O   0  0  0  0  0  0  0  0  0  0  0  0
   27.8787  -19.7709  -18.5178 O   0  0  0  0  0  0  0  0  0  0  0  0
   27.5721  -21.2172  -12.8093 N   0  0  0  0  0  0  0  0  0  0  0  0
   26.7711  -21.3237  -11.5728 C   0  0  1  0  0  0  0  0  0  0  0  0
   27.7109  -21.0031  -10.4699 C   0  0  0  0  0  0  0  0  0  0  0  0
   27.1590  -20.6317   -9.1757 C   0  0  0  0  0  0  0  0  0  0  0  0
   25.8087  -20.4319   -8.8340 C   0  0  0  0  0  0  0  0  0  0  0  0
   25.7494  -20.0762   -7.5488 N   0  0  0  0  0  0  0  0  0  0  0  0
   27.0082  -20.0355   -7.0340 C   0  0  0  0  0  0  0  0  0  0  0  0
   27.4688  -19.7378   -5.7705 C   0  0  0  0  0  0  0  0  0  0  0  0
   28.8201  -19.7726   -5.4622 C   0  0  0  0  0  0  0  0  0  0  0  0
   29.7312  -20.1115   -6.4337 C   0  0  0  0  0  0  0  0  0  0  0  0
   29.2487  -20.4050   -7.6898 C   0  0  0  0  0  0  0  0  0  0  0  0
   27.9113  -20.3809   -8.0364 C   0  0  0  0  0  0  0  0  0  0  0  0
   25.5240  -20.5760  -11.6376 C   0  0  0  0  0  0  0  0  0  0  0  0
   25.5025  -19.3821  -12.0323 O   0  0  0  0  0  0  0  0  0  0  0  0
   22.3370  -21.9967  -15.8815 N   0  0  0  0  0  0  0  0  0  0  0  0
   21.3573  -21.2150  -15.2446 C   0  0  0  0  0  0  0  0  0  0  0  0
   20.3081  -20.9126  -15.8497 O   0  0  0  0  0  0  0  0  0  0  0  0
   21.5082  -20.7062  -13.8290 C   0  0  0  0  0  0  0  0  0  0  0  0
   22.8146  -21.1484  -13.2446 C   0  0  0  0  0  0  0  0  0  0  0  0
   23.0032  -20.6346  -11.8697 C   0  0  2  0  0  0  0  0  0  0  0  0
   24.2500  -21.1082  -11.2723 N   0  0  0  0  0  0  0  0  0  0  0  0
   21.8729  -20.8587  -10.9360 C   0  0  0  0  0  0  0  0  0  0  0  0
   20.7536  -19.9914  -10.9501 O   0  0  0  0  0  0  0  0  0  0  0  0
   21.7912  -21.7768  -10.0912 O   0  0  0  0  0  0  0  0  0  0  0  0
  2  1  1  6
  2  3  1  0
  4  3  1  0
  4  8  1  0
  5  4  2  0
  6  7  2  0
  6  2  1  0
  9  6  1  0
 10  9  1  0
 10 11  1  1
 11 12  1  0
 12 13  2  0
 12 20  1  0
 13 14  1  0
 14 15  1  0
 15 16  2  0
 16 17  1  0
 18 17  2  0
 19 18  1  0
 20 19  2  0
 20 15  1  0
 21 10  1  0
 22 21  2  0
 23 24  1  0
 24 25  2  0
 26 24  1  0
 26 27  1  0
 28 27  1  6
 28 29  1  0
 29 21  1  0
 30 28  1  0
 31 30  1  0
 32 30  2  0
M  END
$$$$
