DWQ.pdb
     RDKit          3D

 32 33  0  0  1  0  0  0  0  0999 V2000
   29.0163  -20.8026  -14.5448 N   0  0  0  0  0  0  0  0  0  0  0  0
   27.6170  -21.0277  -14.7664 C   0  0  1  0  0  0  0  0  0  0  0  0
   27.4501  -22.1063  -15.7946 C   0  0  0  0  0  0  0  0  0  0  0  0
   28.4067  -21.8162  -16.8956 C   0  0  0  0  0  0  0  0  0  0  0  0
   28.2888  -20.8123  -17.6528 O   0  0  0  0  0  0  0  0  0  0  0  0
   26.9141  -21.3000  -13.4915 C   0  0  0  0  0  0  0  0  0  0  0  0
   25.8167  -21.9359  -13.5211 O   0  0  0  0  0  0  0  0  0  0  0  0
   29.5002  -22.6386  -17.1632 O   0  0  0  0  0  0  0  0  0  0  0  0
   27.3846  -20.8981  -12.2318 N   0  0  0  0  0  0  0  0  0  0  0  0
   26.6172  -21.0736  -10.9819 C   0  0  1  0  0  0  0  0  0  0  0  0
   27.5976  -20.8601   -9.8886 C   0  0  0  0  0  0  0  0  0  0  0  0
   27.1030  -20.7671   -8.5233 C   0  0  0  0  0  0  0  0  0  0  0  0
   25.8213  -21.0913   -8.0414 C   0  0  0  0  0  0  0  0  0  0  0  0
   25.7869  -20.8312   -6.7326 N   0  0  0  0  0  0  0  0  0  0  0  0
   26.9964  -20.3495   -6.3370 C   0  0  0  0  0  0  0  0  0  0  0  0
   27.4613  -19.9509   -5.1033 C   0  0  0  0  0  0  0  0  0  0  0  0
   28.7597  -19.4975   -4.9273 C   0  0  0  0  0  0  0  0  0  0  0  0
   29.6123  -19.4403   -6.0037 C   0  0  0  0  0  0  0  0  0  0  0  0
   29.1264  -19.8432   -7.2277 C   0  0  0  0  0  0  0  0  0  0  0  0
   27.8404  -20.3001   -7.4439 C   0  0  0  0  0  0  0  0  0  0  0  0
   25.3909  -20.2901  -10.9534 C   0  0  0  0  0  0  0  0  0  0  0  0
   25.4148  -19.0411  -11.0984 O   0  0  0  0  0  0  0  0  0  0  0  0
   21.0740  -18.6176  -14.3327 N   0  0  0  0  0  0  0  0  0  0  0  0
   21.7549  -19.8383  -14.4830 C   0  0  0  0  0  0  0  0  0  0  0  0
   21.6052  -20.5138  -15.5222 O   0  0  0  0  0  0  0  0  0  0  0  0
   22.6837  -20.3937  -13.4273 C   0  0  0  0  0  0  0  0  0  0  0  0
   22.8651  -19.4100  -12.3123 C   0  0  0  0  0  0  0  0  0  0  0  0
   22.8683  -20.0736  -10.9896 C   0  0  2  0  0  0  0  0  0  0  0  0
   24.0886  -20.8456  -10.7650 N   0  0  0  0  0  0  0  0  0  0  0  0
   21.6771  -20.9010  -10.6795 C   0  0  0  0  0  0  0  0  0  0  0  0
   20.4215  -20.2867  -10.4529 O   0  0  0  0  0  0  0  0  0  0  0  0
   21.6539  -22.1478  -10.5905 O   0  0  0  0  0  0  0  0  0  0  0  0
  2  1  1  1
  2  3  1  0
  4  3  1  0
  4  8  1  0
  5  4  2  0
  6  7  2  0
  6  2  1  0
  9  6  1  0
 10  9  1  0
 10 11  1  1
 11 12  1  0
 12 13  2  0
 12 20  1  0
 13 14  1  0
 14 15  1  0
 15 16  2  0
 16 17  1  0
 18 17  2  0
 19 18  1  0
 20 19  2  0
 20 15  1  0
 21 10  1  0
 22 21  2  0
 23 24  1  0
 24 25  2  0
 26 24  1  0
 26 27  1  0
 28 27  1  6
 28 29  1  0
 29 21  1  0
 30 28  1  0
 31 30  1  0
 32 30  2  0
M  END
$$$$
