NEW.pdb
     RDKit          3D

 32 33  0  0  1  0  0  0  0  0999 V2000
   31.4697  -18.2856  -18.6355 N   0  0  0  0  0  0  0  0  0  0  0  0
   31.0199  -17.1043  -18.0130 C   0  0  0  0  0  0  0  0  0  0  0  0
   31.6608  -16.0452  -18.1362 O   0  0  0  0  0  0  0  0  0  0  0  0
   29.7816  -17.1213  -17.2079 C   0  0  0  0  0  0  0  0  0  0  0  0
   29.3035  -18.5532  -16.9730 C   0  0  2  0  0  0  0  0  0  0  0  0
   29.0219  -19.2002  -18.2469 N   0  0  0  0  0  0  0  0  0  0  0  0
   28.1473  -18.5504  -16.0784 C   0  0  0  0  0  0  0  0  0  0  0  0
   28.1196  -18.0285  -14.9338 O   0  0  0  0  0  0  0  0  0  0  0  0
   26.9351  -19.1716  -16.4867 N   0  0  0  0  0  0  0  0  0  0  0  0
   25.7249  -19.1945  -15.6795 C   0  0  1  0  0  0  0  0  0  0  0  0
   24.5331  -18.6970  -16.4006 C   0  0  0  0  0  0  0  0  0  0  0  0
   24.4733  -17.1952  -16.3764 C   0  0  0  0  0  0  0  0  0  0  0  0
   23.5213  -16.7250  -15.3087 C   0  0  0  0  0  0  0  0  0  0  0  0
   22.3204  -16.5891  -15.5836 O   0  0  0  0  0  0  0  0  0  0  0  0
   25.5796  -20.4844  -14.9669 C   0  0  0  0  0  0  0  0  0  0  0  0
   25.7135  -21.6132  -15.5108 O   0  0  0  0  0  0  0  0  0  0  0  0
   23.9894  -16.4543  -14.0513 O   0  0  0  0  0  0  0  0  0  0  0  0
   25.2669  -20.5001  -13.5603 N   0  0  0  0  0  0  0  0  0  0  0  0
   24.9542  -21.7500  -12.9163 C   0  0  1  0  0  0  0  0  0  0  0  0
   26.0144  -22.1283  -11.8979 C   0  0  0  0  0  0  0  0  0  0  0  0
   25.9803  -21.1823  -10.7558 C   0  0  0  0  0  0  0  0  0  0  0  0
   24.9572  -20.4416  -10.2214 C   0  0  0  0  0  0  0  0  0  0  0  0
   25.3952  -19.7087   -9.1758 N   0  0  0  0  0  0  0  0  0  0  0  0
   26.6979  -19.9504   -9.0050 C   0  0  0  0  0  0  0  0  0  0  0  0
   27.6246  -19.4795   -8.1032 C   0  0  0  0  0  0  0  0  0  0  0  0
   28.9269  -19.9001   -8.1478 C   0  0  0  0  0  0  0  0  0  0  0  0
   29.3336  -20.8032   -9.0985 C   0  0  0  0  0  0  0  0  0  0  0  0
   28.4094  -21.2722   -9.9981 C   0  0  0  0  0  0  0  0  0  0  0  0
   27.0908  -20.8654   -9.9754 C   0  0  0  0  0  0  0  0  0  0  0  0
   23.6503  -21.6073  -12.2226 C   0  0  0  0  0  0  0  0  0  0  0  0
   23.0085  -22.7342  -11.7303 O   0  0  0  0  0  0  0  0  0  0  0  0
   23.1200  -20.4523  -12.0781 O   0  0  0  0  0  0  0  0  0  0  0  0
  2  1  1  0
  3  2  2  0
  4  2  1  0
  4  5  1  0
  5  6  1  6
  7  5  1  0
  7  8  2  0
  9  7  1  0
 10  9  1  0
 10 11  1  6
 12 11  1  0
 12 13  1  0
 13 14  2  0
 15 18  1  0
 15 10  1  0
 16 15  2  0
 17 13  1  0
 19 18  1  0
 19 30  1  0
 20 21  1  0
 19 20  1  1
 21 29  1  0
 21 22  2  0
 22 23  1  0
 24 23  1  0
 24 25  2  0
 26 25  1  0
 27 26  2  0
 28 27  1  0
 28 29  2  0
 29 24  1  0
 30 31  1  0
 32 30  2  0
M  END
$$$$
