NEW.pdb
     RDKit          3D

 32 33  0  0  1  0  0  0  0  0999 V2000
   28.2912  -25.8865  -20.0598 N   0  0  0  0  0  0  0  0  0  0  0  0
   27.0673  -26.1857  -19.4289 C   0  0  0  0  0  0  0  0  0  0  0  0
   26.2769  -26.9976  -19.9424 O   0  0  0  0  0  0  0  0  0  0  0  0
   26.7178  -25.5316  -18.1514 C   0  0  0  0  0  0  0  0  0  0  0  0
   27.8384  -24.6010  -17.6906 C   0  0  2  0  0  0  0  0  0  0  0  0
   28.9601  -25.3820  -17.1881 N   0  0  0  0  0  0  0  0  0  0  0  0
   27.3244  -23.6571  -16.6998 C   0  0  0  0  0  0  0  0  0  0  0  0
   27.0581  -23.9385  -15.5027 O   0  0  0  0  0  0  0  0  0  0  0  0
   27.0909  -22.3032  -17.0665 N   0  0  0  0  0  0  0  0  0  0  0  0
   26.6834  -21.2687  -16.1283 C   0  0  1  0  0  0  0  0  0  0  0  0
   27.1246  -19.9139  -16.5257 C   0  0  0  0  0  0  0  0  0  0  0  0
   28.6234  -19.8352  -16.6086 C   0  0  0  0  0  0  0  0  0  0  0  0
   29.0516  -18.4741  -17.0896 C   0  0  0  0  0  0  0  0  0  0  0  0
   28.1912  -17.6092  -17.3080 O   0  0  0  0  0  0  0  0  0  0  0  0
   25.2599  -21.4190  -15.7490 C   0  0  0  0  0  0  0  0  0  0  0  0
   24.3425  -21.7369  -16.5522 O   0  0  0  0  0  0  0  0  0  0  0  0
   30.3807  -18.2069  -17.2791 O   0  0  0  0  0  0  0  0  0  0  0  0
   24.8498  -21.1992  -14.3851 N   0  0  0  0  0  0  0  0  0  0  0  0
   23.4498  -21.2411  -14.0490 C   0  0  1  0  0  0  0  0  0  0  0  0
   23.2252  -21.8853  -12.6930 C   0  0  0  0  0  0  0  0  0  0  0  0
   21.7904  -21.8047  -12.3253 C   0  0  0  0  0  0  0  0  0  0  0  0
   20.7037  -22.5276  -12.7465 C   0  0  0  0  0  0  0  0  0  0  0  0
   19.5793  -22.0970  -12.1362 N   0  0  0  0  0  0  0  0  0  0  0  0
   19.9010  -21.0955  -11.3128 C   0  0  0  0  0  0  0  0  0  0  0  0
   19.1565  -20.3090  -10.4637 C   0  0  0  0  0  0  0  0  0  0  0  0
   19.7480  -19.3289   -9.7124 C   0  0  0  0  0  0  0  0  0  0  0  0
   21.1012  -19.1117   -9.7937 C   0  0  0  0  0  0  0  0  0  0  0  0
   21.8432  -19.8959  -10.6410 C   0  0  0  0  0  0  0  0  0  0  0  0
   21.2729  -20.8906  -11.4090 C   0  0  0  0  0  0  0  0  0  0  0  0
   22.9341  -19.8502  -14.0120 C   0  0  0  0  0  0  0  0  0  0  0  0
   23.7578  -18.8250  -13.5710 O   0  0  0  0  0  0  0  0  0  0  0  0
   21.7370  -19.5965  -14.3847 O   0  0  0  0  0  0  0  0  0  0  0  0
  2  1  1  0
  3  2  2  0
  4  2  1  0
  4  5  1  0
  5  6  1  1
  7  5  1  0
  7  8  2  0
  9  7  1  0
 10  9  1  0
 10 11  1  6
 12 11  1  0
 12 13  1  0
 13 14  2  0
 15 18  1  0
 15 10  1  0
 16 15  2  0
 17 13  1  0
 19 18  1  0
 19 30  1  0
 20 21  1  0
 19 20  1  1
 21 29  1  0
 21 22  2  0
 22 23  1  0
 24 23  1  0
 24 25  2  0
 26 25  1  0
 27 26  2  0
 28 27  1  0
 28 29  2  0
 29 24  1  0
 30 31  1  0
 32 30  2  0
M  END
$$$$
