NEW.pdb
     RDKit          3D

 32 33  0  0  1  0  0  0  0  0999 V2000
   13.9135  -12.7015    4.4279 N   0  0  0  0  0  0  0  0  0  0  0  0
   13.9939  -13.8264    5.2727 C   0  0  0  0  0  0  0  0  0  0  0  0
   13.0617  -14.0966    6.0509 O   0  0  0  0  0  0  0  0  0  0  0  0
   15.1916  -14.6903    5.2371 C   0  0  0  0  0  0  0  0  0  0  0  0
   15.9201  -14.6682    6.5798 C   0  0  2  0  0  0  0  0  0  0  0  0
   16.3879  -13.3202    6.8712 N   0  0  0  0  0  0  0  0  0  0  0  0
   17.0047  -15.6483    6.5728 C   0  0  0  0  0  0  0  0  0  0  0  0
   18.1023  -15.5081    5.9739 O   0  0  0  0  0  0  0  0  0  0  0  0
   16.8581  -16.8711    7.2836 N   0  0  0  0  0  0  0  0  0  0  0  0
   17.8870  -17.8976    7.3500 C   0  0  1  0  0  0  0  0  0  0  0  0
   18.0743  -18.4488    8.7098 C   0  0  0  0  0  0  0  0  0  0  0  0
   18.8676  -17.5066    9.5714 C   0  0  0  0  0  0  0  0  0  0  0  0
   19.9721  -18.2463   10.2789 C   0  0  0  0  0  0  0  0  0  0  0  0
   19.7203  -18.8513   11.3309 O   0  0  0  0  0  0  0  0  0  0  0  0
   17.7384  -18.8782    6.2504 C   0  0  0  0  0  0  0  0  0  0  0  0
   16.6305  -19.2878    5.8115 O   0  0  0  0  0  0  0  0  0  0  0  0
   21.2367  -18.2434    9.7553 O   0  0  0  0  0  0  0  0  0  0  0  0
   18.9071  -19.4260    5.6097 N   0  0  0  0  0  0  0  0  0  0  0  0
   18.7502  -20.3832    4.5449 C   0  0  1  0  0  0  0  0  0  0  0  0
   19.6011  -20.0176    3.3421 C   0  0  0  0  0  0  0  0  0  0  0  0
   18.9473  -18.9327    2.5701 C   0  0  0  0  0  0  0  0  0  0  0  0
   17.6479  -18.7627    2.1658 C   0  0  0  0  0  0  0  0  0  0  0  0
   17.5108  -17.6120    1.4735 N   0  0  0  0  0  0  0  0  0  0  0  0
   18.7022  -17.0111    1.4102 C   0  0  0  0  0  0  0  0  0  0  0  0
   19.1252  -15.8344    0.8355 C   0  0  0  0  0  0  0  0  0  0  0  0
   20.4338  -15.4405    0.9200 C   0  0  0  0  0  0  0  0  0  0  0  0
   21.3523  -16.2168    1.5824 C   0  0  0  0  0  0  0  0  0  0  0  0
   20.9303  -17.3904    2.1549 C   0  0  0  0  0  0  0  0  0  0  0  0
   19.6176  -17.8109    2.0852 C   0  0  0  0  0  0  0  0  0  0  0  0
   19.1718  -21.7151    5.0451 C   0  0  0  0  0  0  0  0  0  0  0  0
   18.9708  -22.8387    4.2569 O   0  0  0  0  0  0  0  0  0  0  0  0
   19.7180  -21.8281    6.1962 O   0  0  0  0  0  0  0  0  0  0  0  0
  2  1  1  0
  3  2  2  0
  4  2  1  0
  4  5  1  0
  5  6  1  6
  7  5  1  0
  7  8  2  0
  9  7  1  0
 10  9  1  0
 10 11  1  1
 12 11  1  0
 12 13  1  0
 13 14  2  0
 15 18  1  0
 15 10  1  0
 16 15  2  0
 17 13  1  0
 19 18  1  0
 19 30  1  0
 20 21  1  0
 19 20  1  6
 21 29  1  0
 21 22  2  0
 22 23  1  0
 24 23  1  0
 24 25  2  0
 26 25  1  0
 27 26  2  0
 28 27  1  0
 28 29  2  0
 29 24  1  0
 30 31  1  0
 32 30  2  0
M  END
$$$$
