NEW.pdb
     RDKit          3D

 32 33  0  0  1  0  0  0  0  0999 V2000
   19.5574  -18.0146  -14.5425 N   0  0  0  0  0  0  0  0  0  0  0  0
   19.1182  -18.9732  -13.6078 C   0  0  0  0  0  0  0  0  0  0  0  0
   17.9128  -19.0565  -13.3115 O   0  0  0  0  0  0  0  0  0  0  0  0
   20.0927  -19.8842  -12.9736 C   0  0  0  0  0  0  0  0  0  0  0  0
   21.5156  -19.5623  -13.4274 C   0  0  2  0  0  0  0  0  0  0  0  0
   21.6691  -19.8695  -14.8426 N   0  0  0  0  0  0  0  0  0  0  0  0
   22.4776  -20.2781  -12.5912 C   0  0  0  0  0  0  0  0  0  0  0  0
   22.2956  -20.5926  -11.3866 O   0  0  0  0  0  0  0  0  0  0  0  0
   23.7311  -20.6730  -13.1342 N   0  0  0  0  0  0  0  0  0  0  0  0
   24.7075  -21.4776  -12.4160 C   0  0  1  0  0  0  0  0  0  0  0  0
   25.4370  -22.4248  -13.2869 C   0  0  0  0  0  0  0  0  0  0  0  0
   24.5405  -23.5420  -13.7425 C   0  0  0  0  0  0  0  0  0  0  0  0
   25.2782  -24.4560  -14.6847 C   0  0  0  0  0  0  0  0  0  0  0  0
   26.4527  -24.1981  -14.9851 O   0  0  0  0  0  0  0  0  0  0  0  0
   25.5278  -20.6426  -11.5089 C   0  0  0  0  0  0  0  0  0  0  0  0
   25.9178  -19.4755  -11.7796 O   0  0  0  0  0  0  0  0  0  0  0  0
   24.6475  -25.5575  -15.1969 O   0  0  0  0  0  0  0  0  0  0  0  0
   25.9288  -21.1546  -10.2229 N   0  0  0  0  0  0  0  0  0  0  0  0
   26.7555  -20.3468   -9.3635 C   0  0  1  0  0  0  0  0  0  0  0  0
   26.3869  -20.5364   -7.9031 C   0  0  0  0  0  0  0  0  0  0  0  0
   27.1800  -19.6123   -7.0563 C   0  0  0  0  0  0  0  0  0  0  0  0
   27.3621  -18.2544   -7.1193 C   0  0  0  0  0  0  0  0  0  0  0  0
   28.1814  -17.8371   -6.1309 N   0  0  0  0  0  0  0  0  0  0  0  0
   28.5491  -18.8990   -5.4086 C   0  0  0  0  0  0  0  0  0  0  0  0
   29.3599  -19.0429   -4.3060 C   0  0  0  0  0  0  0  0  0  0  0  0
   29.5744  -20.2739   -3.7461 C   0  0  0  0  0  0  0  0  0  0  0  0
   28.9819  -21.3924   -4.2778 C   0  0  0  0  0  0  0  0  0  0  0  0
   28.1738  -21.2486   -5.3777 C   0  0  0  0  0  0  0  0  0  0  0  0
   27.9403  -20.0201   -5.9615 C   0  0  0  0  0  0  0  0  0  0  0  0
   28.1702  -20.7497   -9.5585 C   0  0  0  0  0  0  0  0  0  0  0  0
   29.1682  -19.7870   -9.5257 O   0  0  0  0  0  0  0  0  0  0  0  0
   28.4693  -21.9778   -9.7555 O   0  0  0  0  0  0  0  0  0  0  0  0
  2  1  1  0
  3  2  2  0
  4  2  1  0
  4  5  1  0
  5  6  1  6
  7  5  1  0
  7  8  2  0
  9  7  1  0
 10  9  1  0
 10 11  1  6
 12 11  1  0
 12 13  1  0
 13 14  2  0
 15 18  1  0
 15 10  1  0
 16 15  2  0
 17 13  1  0
 19 18  1  0
 19 30  1  0
 20 21  1  0
 19 20  1  1
 21 29  1  0
 21 22  2  0
 22 23  1  0
 24 23  1  0
 24 25  2  0
 26 25  1  0
 27 26  2  0
 28 27  1  0
 28 29  2  0
 29 24  1  0
 30 31  1  0
 32 30  2  0
M  END
$$$$
