NEW.pdb
     RDKit          3D

 32 33  0  0  1  0  0  0  0  0999 V2000
   19.5362  -18.9358  -15.1831 N   0  0  0  0  0  0  0  0  0  0  0  0
   20.0632  -18.2872  -14.0486 C   0  0  0  0  0  0  0  0  0  0  0  0
   19.8398  -17.0789  -13.8544 O   0  0  0  0  0  0  0  0  0  0  0  0
   20.8872  -19.0437  -13.0839 C   0  0  0  0  0  0  0  0  0  0  0  0
   21.0488  -20.4970  -13.5265 C   0  0  2  0  0  0  0  0  0  0  0  0
   19.7791  -21.1997  -13.4037 N   0  0  0  0  0  0  0  0  0  0  0  0
   22.1180  -21.1339  -12.7597 C   0  0  0  0  0  0  0  0  0  0  0  0
   22.0382  -21.4721  -11.5503 O   0  0  0  0  0  0  0  0  0  0  0  0
   23.3647  -21.4157  -13.3829 N   0  0  0  0  0  0  0  0  0  0  0  0
   24.5024  -22.0011  -12.6904 C   0  0  1  0  0  0  0  0  0  0  0  0
   25.3695  -22.8109  -13.5737 C   0  0  0  0  0  0  0  0  0  0  0  0
   24.6348  -24.0116  -14.1008 C   0  0  0  0  0  0  0  0  0  0  0  0
   25.5207  -24.8055  -15.0241 C   0  0  0  0  0  0  0  0  0  0  0  0
   26.6257  -24.3468  -15.3478 O   0  0  0  0  0  0  0  0  0  0  0  0
   25.1780  -21.0033  -11.8297 C   0  0  0  0  0  0  0  0  0  0  0  0
   25.4384  -19.8225  -12.1842 O   0  0  0  0  0  0  0  0  0  0  0  0
   25.0989  -26.0200  -15.4937 O   0  0  0  0  0  0  0  0  0  0  0  0
   25.5808  -21.3591  -10.4926 N   0  0  0  0  0  0  0  0  0  0  0  0
   26.3441  -20.4228   -9.7082 C   0  0  1  0  0  0  0  0  0  0  0  0
   26.3864  -20.8304   -8.2465 C   0  0  0  0  0  0  0  0  0  0  0  0
   27.1132  -19.8071   -7.4560 C   0  0  0  0  0  0  0  0  0  0  0  0
   27.2142  -18.4476   -7.6061 C   0  0  0  0  0  0  0  0  0  0  0  0
   27.9960  -17.9185   -6.6412 N   0  0  0  0  0  0  0  0  0  0  0  0
   28.4186  -18.9073   -5.8485 C   0  0  0  0  0  0  0  0  0  0  0  0
   29.2243  -18.9303   -4.7331 C   0  0  0  0  0  0  0  0  0  0  0  0
   29.5060  -20.1073   -4.0926 C   0  0  0  0  0  0  0  0  0  0  0  0
   28.9875  -21.2916   -4.5545 C   0  0  0  0  0  0  0  0  0  0  0  0
   28.1846  -21.2684   -5.6672 C   0  0  0  0  0  0  0  0  0  0  0  0
   27.8843  -20.0966   -6.3316 C   0  0  0  0  0  0  0  0  0  0  0  0
   27.7299  -20.3868  -10.2375 C   0  0  0  0  0  0  0  0  0  0  0  0
   28.4430  -19.1973  -10.2120 O   0  0  0  0  0  0  0  0  0  0  0  0
   28.2654  -21.4459  -10.7147 O   0  0  0  0  0  0  0  0  0  0  0  0
  2  1  1  0
  3  2  2  0
  4  2  1  0
  4  5  1  0
  5  6  1  1
  7  5  1  0
  7  8  2  0
  9  7  1  0
 10  9  1  0
 10 11  1  6
 12 11  1  0
 12 13  1  0
 13 14  2  0
 15 18  1  0
 15 10  1  0
 16 15  2  0
 17 13  1  0
 19 18  1  0
 19 30  1  0
 20 21  1  0
 19 20  1  1
 21 29  1  0
 21 22  2  0
 22 23  1  0
 24 23  1  0
 24 25  2  0
 26 25  1  0
 27 26  2  0
 28 27  1  0
 28 29  2  0
 29 24  1  0
 30 31  1  0
 32 30  2  0
M  END
$$$$
