NEW.pdb
     RDKit          3D

 32 33  0  0  1  0  0  0  0  0999 V2000
   28.8390  -34.2373   -2.9740 N   0  0  0  0  0  0  0  0  0  0  0  0
   27.7708  -33.4312   -2.5331 C   0  0  0  0  0  0  0  0  0  0  0  0
   27.2600  -32.5915   -3.2958 O   0  0  0  0  0  0  0  0  0  0  0  0
   27.2538  -33.5808   -1.1575 C   0  0  0  0  0  0  0  0  0  0  0  0
   28.1167  -34.5517   -0.3532 C   0  0  2  0  0  0  0  0  0  0  0  0
   27.9344  -35.9089   -0.8489 N   0  0  0  0  0  0  0  0  0  0  0  0
   27.8075  -34.4290    1.0703 C   0  0  0  0  0  0  0  0  0  0  0  0
   26.8896  -35.0490    1.6672 O   0  0  0  0  0  0  0  0  0  0  0  0
   28.5750  -33.5551    1.8884 N   0  0  0  0  0  0  0  0  0  0  0  0
   28.3875  -33.4171    3.3245 C   0  0  1  0  0  0  0  0  0  0  0  0
   29.6544  -33.4707    4.0862 C   0  0  0  0  0  0  0  0  0  0  0  0
   29.3948  -33.5218    5.5658 C   0  0  0  0  0  0  0  0  0  0  0  0
   30.6910  -33.4499    6.3289 C   0  0  0  0  0  0  0  0  0  0  0  0
   31.5418  -34.3360    6.1647 O   0  0  0  0  0  0  0  0  0  0  0  0
   27.4691  -32.2993    3.6407 C   0  0  0  0  0  0  0  0  0  0  0  0
   27.6237  -31.1179    3.2307 O   0  0  0  0  0  0  0  0  0  0  0  0
   30.9156  -32.4111    7.1915 O   0  0  0  0  0  0  0  0  0  0  0  0
   26.3101  -32.5294    4.4655 N   0  0  0  0  0  0  0  0  0  0  0  0
   25.4848  -31.4157    4.8570 C   0  0  1  0  0  0  0  0  0  0  0  0
   24.0132  -31.7101    4.6286 C   0  0  0  0  0  0  0  0  0  0  0  0
   23.2812  -30.4496    4.3537 C   0  0  0  0  0  0  0  0  0  0  0  0
   23.3892  -29.5421    3.3311 C   0  0  0  0  0  0  0  0  0  0  0  0
   22.5106  -28.5307    3.4968 N   0  0  0  0  0  0  0  0  0  0  0  0
   21.8172  -28.7510    4.6171 C   0  0  0  0  0  0  0  0  0  0  0  0
   20.8142  -28.0506    5.2474 C   0  0  0  0  0  0  0  0  0  0  0  0
   20.2612  -28.5089    6.4132 C   0  0  0  0  0  0  0  0  0  0  0  0
   20.7002  -29.6810    6.9773 C   0  0  0  0  0  0  0  0  0  0  0  0
   21.7009  -30.3789    6.3488 C   0  0  0  0  0  0  0  0  0  0  0  0
   22.2754  -29.9402    5.1732 C   0  0  0  0  0  0  0  0  0  0  0  0
   25.7043  -31.1536    6.3010 C   0  0  0  0  0  0  0  0  0  0  0  0
   25.5065  -29.8760    6.8038 O   0  0  0  0  0  0  0  0  0  0  0  0
   26.0734  -32.0994    7.0790 O   0  0  0  0  0  0  0  0  0  0  0  0
  2  1  1  0
  3  2  2  0
  4  2  1  0
  4  5  1  0
  5  6  1  6
  7  5  1  0
  7  8  2  0
  9  7  1  0
 10  9  1  0
 10 11  1  1
 12 11  1  0
 12 13  1  0
 13 14  2  0
 15 18  1  0
 15 10  1  0
 16 15  2  0
 17 13  1  0
 19 18  1  0
 19 30  1  0
 20 21  1  0
 19 20  1  1
 21 29  1  0
 21 22  2  0
 22 23  1  0
 24 23  1  0
 24 25  2  0
 26 25  1  0
 27 26  2  0
 28 27  1  0
 28 29  2  0
 29 24  1  0
 30 31  1  0
 32 30  2  0
M  END
$$$$
