NEW.pdb
     RDKit          3D

 32 33  0  0  1  0  0  0  0  0999 V2000
   26.5383  -14.6710  -16.0064 N   0  0  0  0  0  0  0  0  0  0  0  0
   26.4177  -14.3043  -17.3616 C   0  0  0  0  0  0  0  0  0  0  0  0
   26.9959  -14.9622  -18.2451 O   0  0  0  0  0  0  0  0  0  0  0  0
   25.6021  -13.1315  -17.7376 C   0  0  0  0  0  0  0  0  0  0  0  0
   25.0830  -12.4076  -16.4965 C   0  0  2  0  0  0  0  0  0  0  0  0
   24.5176  -13.3680  -15.5590 N   0  0  0  0  0  0  0  0  0  0  0  0
   24.1243  -11.3758  -16.8878 C   0  0  0  0  0  0  0  0  0  0  0  0
   24.3576  -10.4414  -17.6976 O   0  0  0  0  0  0  0  0  0  0  0  0
   22.8120  -11.3845  -16.3401 N   0  0  0  0  0  0  0  0  0  0  0  0
   21.7638  -10.4557  -16.7338 C   0  0  1  0  0  0  0  0  0  0  0  0
   20.4567  -11.1114  -16.9565 C   0  0  0  0  0  0  0  0  0  0  0  0
   19.4532  -10.1421  -17.5159 C   0  0  0  0  0  0  0  0  0  0  0  0
   18.1388  -10.8331  -17.7654 C   0  0  0  0  0  0  0  0  0  0  0  0
   17.2483  -10.7720  -16.9055 O   0  0  0  0  0  0  0  0  0  0  0  0
   21.7643   -9.2502  -15.8738 C   0  0  0  0  0  0  0  0  0  0  0  0
   21.7547   -9.2787  -14.6141 O   0  0  0  0  0  0  0  0  0  0  0  0
   17.9414  -11.5180  -18.9340 O   0  0  0  0  0  0  0  0  0  0  0  0
   21.7778   -7.9386  -16.4705 N   0  0  0  0  0  0  0  0  0  0  0  0
   21.7184   -6.7735  -15.6257 C   0  0  1  0  0  0  0  0  0  0  0  0
   22.1401   -5.5234  -16.3765 C   0  0  0  0  0  0  0  0  0  0  0  0
   21.9906   -4.3335  -15.5034 C   0  0  0  0  0  0  0  0  0  0  0  0
   22.5347   -4.0305  -14.2815 C   0  0  0  0  0  0  0  0  0  0  0  0
   22.1085   -2.8222  -13.8565 N   0  0  0  0  0  0  0  0  0  0  0  0
   21.2866   -2.3142  -14.7790 C   0  0  0  0  0  0  0  0  0  0  0  0
   20.5837   -1.1335  -14.8548 C   0  0  0  0  0  0  0  0  0  0  0  0
   19.7956   -0.8520  -15.9385 C   0  0  0  0  0  0  0  0  0  0  0  0
   19.6914   -1.7475  -16.9738 C   0  0  0  0  0  0  0  0  0  0  0  0
   20.3920   -2.9251  -16.8977 C   0  0  0  0  0  0  0  0  0  0  0  0
   21.1938   -3.2339  -15.8177 C   0  0  0  0  0  0  0  0  0  0  0  0
   20.3208   -6.6043  -15.1568 C   0  0  0  0  0  0  0  0  0  0  0  0
   19.2750   -6.7250  -16.0601 O   0  0  0  0  0  0  0  0  0  0  0  0
   20.0800   -6.3490  -13.9268 O   0  0  0  0  0  0  0  0  0  0  0  0
  2  1  1  0
  3  2  2  0
  4  2  1  0
  4  5  1  0
  5  6  1  1
  7  5  1  0
  7  8  2  0
  9  7  1  0
 10  9  1  0
 10 11  1  1
 12 11  1  0
 12 13  1  0
 13 14  2  0
 15 18  1  0
 15 10  1  0
 16 15  2  0
 17 13  1  0
 19 18  1  0
 19 30  1  0
 20 21  1  0
 19 20  1  6
 21 29  1  0
 21 22  2  0
 22 23  1  0
 24 23  1  0
 24 25  2  0
 26 25  1  0
 27 26  2  0
 28 27  1  0
 28 29  2  0
 29 24  1  0
 30 31  1  0
 32 30  2  0
M  END
$$$$
