NEW.pdb
     RDKit          3D

 32 33  0  0  1  0  0  0  0  0999 V2000
   32.1254  -16.8426  -18.4545 N   0  0  0  0  0  0  0  0  0  0  0  0
   30.7543  -17.0070  -18.7348 C   0  0  0  0  0  0  0  0  0  0  0  0
   30.3661  -17.1631  -19.9065 O   0  0  0  0  0  0  0  0  0  0  0  0
   29.7703  -16.9927  -17.6333 C   0  0  0  0  0  0  0  0  0  0  0  0
   29.1985  -18.3891  -17.3945 C   0  0  2  0  0  0  0  0  0  0  0  0
   28.4044  -18.8058  -18.5420 N   0  0  0  0  0  0  0  0  0  0  0  0
   28.4344  -18.4067  -16.1484 C   0  0  0  0  0  0  0  0  0  0  0  0
   28.8738  -18.0474  -15.0254 O   0  0  0  0  0  0  0  0  0  0  0  0
   27.0849  -18.8549  -16.1519 N   0  0  0  0  0  0  0  0  0  0  0  0
   26.2209  -18.8321  -14.9816 C   0  0  1  0  0  0  0  0  0  0  0  0
   24.8918  -18.2406  -15.2491 C   0  0  0  0  0  0  0  0  0  0  0  0
   23.8166  -19.2906  -15.2226 C   0  0  0  0  0  0  0  0  0  0  0  0
   22.5194  -18.7267  -15.7392 C   0  0  0  0  0  0  0  0  0  0  0  0
   22.3418  -17.5002  -15.7232 O   0  0  0  0  0  0  0  0  0  0  0  0
   26.2388  -20.1339  -14.2761 C   0  0  0  0  0  0  0  0  0  0  0  0
   26.3480  -21.2498  -14.8510 O   0  0  0  0  0  0  0  0  0  0  0  0
   21.5545  -19.5704  -16.2195 O   0  0  0  0  0  0  0  0  0  0  0  0
   26.1283  -20.1775  -12.8399 N   0  0  0  0  0  0  0  0  0  0  0  0
   26.0955  -21.4514  -12.1686 C   0  0  1  0  0  0  0  0  0  0  0  0
   27.2269  -21.5770  -11.1644 C   0  0  0  0  0  0  0  0  0  0  0  0
   26.9228  -20.7732   -9.9554 C   0  0  0  0  0  0  0  0  0  0  0  0
   25.7991  -20.0788   -9.5864 C   0  0  0  0  0  0  0  0  0  0  0  0
   25.9779  -19.4855   -8.3871 N   0  0  0  0  0  0  0  0  0  0  0  0
   27.2068  -19.7747   -7.9503 C   0  0  0  0  0  0  0  0  0  0  0  0
   27.8959  -19.4352   -6.8085 C   0  0  0  0  0  0  0  0  0  0  0  0
   29.1754  -19.8763   -6.6014 C   0  0  0  0  0  0  0  0  0  0  0  0
   29.7973  -20.6686   -7.5343 C   0  0  0  0  0  0  0  0  0  0  0  0
   29.1101  -21.0065   -8.6731 C   0  0  0  0  0  0  0  0  0  0  0  0
   27.8198  -20.5762   -8.9069 C   0  0  0  0  0  0  0  0  0  0  0  0
   24.8015  -21.5716  -11.4526 C   0  0  0  0  0  0  0  0  0  0  0  0
   24.3767  -22.8149  -11.0079 O   0  0  0  0  0  0  0  0  0  0  0  0
   24.0808  -20.5353  -11.2453 O   0  0  0  0  0  0  0  0  0  0  0  0
  2  1  1  0
  3  2  2  0
  4  2  1  0
  4  5  1  0
  5  6  1  6
  7  5  1  0
  7  8  2  0
  9  7  1  0
 10  9  1  0
 10 11  1  6
 12 11  1  0
 12 13  1  0
 13 14  2  0
 15 18  1  0
 15 10  1  0
 16 15  2  0
 17 13  1  0
 19 18  1  0
 19 30  1  0
 20 21  1  0
 19 20  1  1
 21 29  1  0
 21 22  2  0
 22 23  1  0
 24 23  1  0
 24 25  2  0
 26 25  1  0
 27 26  2  0
 28 27  1  0
 28 29  2  0
 29 24  1  0
 30 31  1  0
 32 30  2  0
M  END
$$$$
