NEW.pdb
     RDKit          3D

 32 33  0  0  1  0  0  0  0  0999 V2000
   30.7398  -17.1939  -19.9862 N   0  0  0  0  0  0  0  0  0  0  0  0
   31.3113  -17.3309  -18.7055 C   0  0  0  0  0  0  0  0  0  0  0  0
   32.5464  -17.3975  -18.5717 O   0  0  0  0  0  0  0  0  0  0  0  0
   30.4411  -17.3976  -17.5138 C   0  0  0  0  0  0  0  0  0  0  0  0
   28.9741  -17.5379  -17.9168 C   0  0  2  0  0  0  0  0  0  0  0  0
   28.5478  -16.3628  -18.6640 N   0  0  0  0  0  0  0  0  0  0  0  0
   28.1536  -17.7756  -16.7306 C   0  0  0  0  0  0  0  0  0  0  0  0
   28.3491  -17.2585  -15.6003 O   0  0  0  0  0  0  0  0  0  0  0  0
   27.0350  -18.6503  -16.8074 N   0  0  0  0  0  0  0  0  0  0  0  0
   26.0888  -18.8523  -15.7211 C   0  0  1  0  0  0  0  0  0  0  0  0
   24.6771  -18.7419  -16.1488 C   0  0  0  0  0  0  0  0  0  0  0  0
   23.7416  -19.0473  -15.0126 C   0  0  0  0  0  0  0  0  0  0  0  0
   22.3191  -19.0996  -15.5035 C   0  0  0  0  0  0  0  0  0  0  0  0
   21.6301  -18.0697  -15.4782 O   0  0  0  0  0  0  0  0  0  0  0  0
   26.4466  -20.0395  -14.9116 C   0  0  0  0  0  0  0  0  0  0  0  0
   27.1788  -20.9804  -15.3195 O   0  0  0  0  0  0  0  0  0  0  0  0
   21.8039  -20.2784  -15.9712 O   0  0  0  0  0  0  0  0  0  0  0  0
   25.9505  -20.1706  -13.5651 N   0  0  0  0  0  0  0  0  0  0  0  0
   26.2346  -21.3683  -12.8171 C   0  0  1  0  0  0  0  0  0  0  0  0
   27.3572  -21.1449  -11.8200 C   0  0  0  0  0  0  0  0  0  0  0  0
   26.8062  -20.6246  -10.5449 C   0  0  0  0  0  0  0  0  0  0  0  0
   25.5602  -20.1521  -10.2206 C   0  0  0  0  0  0  0  0  0  0  0  0
   25.5153  -19.7770   -8.9246 N   0  0  0  0  0  0  0  0  0  0  0  0
   26.7155  -19.9929   -8.3791 C   0  0  0  0  0  0  0  0  0  0  0  0
   27.2151  -19.7932   -7.1125 C   0  0  0  0  0  0  0  0  0  0  0  0
   28.5128  -20.1081   -6.8101 C   0  0  0  0  0  0  0  0  0  0  0  0
   29.3433  -20.6308   -7.7703 C   0  0  0  0  0  0  0  0  0  0  0  0
   28.8450  -20.8293   -9.0335 C   0  0  0  0  0  0  0  0  0  0  0  0
   27.5413  -20.5212   -9.3651 C   0  0  0  0  0  0  0  0  0  0  0  0
   25.0087  -21.7636  -12.0803 C   0  0  0  0  0  0  0  0  0  0  0  0
   24.8923  -23.0541  -11.5853 O   0  0  0  0  0  0  0  0  0  0  0  0
   24.0640  -20.9199  -11.9014 O   0  0  0  0  0  0  0  0  0  0  0  0
  2  1  1  0
  3  2  2  0
  4  2  1  0
  4  5  1  0
  5  6  1  1
  7  5  1  0
  7  8  2  0
  9  7  1  0
 10  9  1  0
 10 11  1  6
 12 11  1  0
 12 13  1  0
 13 14  2  0
 15 18  1  0
 15 10  1  0
 16 15  2  0
 17 13  1  0
 19 18  1  0
 19 30  1  0
 20 21  1  0
 19 20  1  1
 21 29  1  0
 21 22  2  0
 22 23  1  0
 24 23  1  0
 24 25  2  0
 26 25  1  0
 27 26  2  0
 28 27  1  0
 28 29  2  0
 29 24  1  0
 30 31  1  0
 32 30  2  0
M  END
$$$$
