NEW.pdb
     RDKit          3D

 32 33  0  0  1  0  0  0  0  0999 V2000
   25.0220  -21.2392  -22.5173 N   0  0  0  0  0  0  0  0  0  0  0  0
   25.5416  -21.8313  -21.3490 C   0  0  0  0  0  0  0  0  0  0  0  0
   25.9327  -23.0122  -21.3628 O   0  0  0  0  0  0  0  0  0  0  0  0
   25.6219  -21.0480  -20.0993 C   0  0  0  0  0  0  0  0  0  0  0  0
   25.0835  -19.6334  -20.3067 C   0  0  2  0  0  0  0  0  0  0  0  0
   26.1126  -18.7900  -20.8987 N   0  0  0  0  0  0  0  0  0  0  0  0
   24.5833  -19.1015  -19.0402 C   0  0  0  0  0  0  0  0  0  0  0  0
   25.1245  -19.2770  -17.9179 O   0  0  0  0  0  0  0  0  0  0  0  0
   23.3971  -18.3176  -19.0210 N   0  0  0  0  0  0  0  0  0  0  0  0
   22.8370  -17.7255  -17.8159 C   0  0  1  0  0  0  0  0  0  0  0  0
   22.1182  -16.4577  -18.0684 C   0  0  0  0  0  0  0  0  0  0  0  0
   21.5449  -15.8977  -16.7968 C   0  0  0  0  0  0  0  0  0  0  0  0
   20.6680  -14.7104  -17.0946 C   0  0  0  0  0  0  0  0  0  0  0  0
   20.2235  -14.5567  -18.2413 O   0  0  0  0  0  0  0  0  0  0  0  0
   22.1302  -18.7385  -16.9990 C   0  0  0  0  0  0  0  0  0  0  0  0
   21.4052  -19.6524  -17.4755 O   0  0  0  0  0  0  0  0  0  0  0  0
   20.3714  -13.8175  -16.1003 O   0  0  0  0  0  0  0  0  0  0  0  0
   22.2501  -18.7186  -15.5632 N   0  0  0  0  0  0  0  0  0  0  0  0
   21.5407  -19.6956  -14.7778 C   0  0  1  0  0  0  0  0  0  0  0  0
   22.0638  -19.7466  -13.3537 C   0  0  0  0  0  0  0  0  0  0  0  0
   21.2175  -20.6489  -12.5352 C   0  0  0  0  0  0  0  0  0  0  0  0
   21.1912  -22.0157  -12.4246 C   0  0  0  0  0  0  0  0  0  0  0  0
   20.2396  -22.4048  -11.5498 N   0  0  0  0  0  0  0  0  0  0  0  0
   19.6297  -21.3154  -11.0748 C   0  0  0  0  0  0  0  0  0  0  0  0
   18.6064  -21.1369  -10.1721 C   0  0  0  0  0  0  0  0  0  0  0  0
   18.1607  -19.8822   -9.8526 C   0  0  0  0  0  0  0  0  0  0  0  0
   18.7292  -18.7743  -10.4306 C   0  0  0  0  0  0  0  0  0  0  0  0
   19.7492  -18.9526  -11.3312 C   0  0  0  0  0  0  0  0  0  0  0  0
   20.2180  -20.2054  -11.6708 C   0  0  0  0  0  0  0  0  0  0  0  0
   20.1048  -19.3223  -14.7495 C   0  0  0  0  0  0  0  0  0  0  0  0
   19.1371  -20.3145  -14.8055 O   0  0  0  0  0  0  0  0  0  0  0  0
   19.7598  -18.0929  -14.6735 O   0  0  0  0  0  0  0  0  0  0  0  0
  2  1  1  0
  3  2  2  0
  4  2  1  0
  4  5  1  0
  5  6  1  1
  7  5  1  0
  7  8  2  0
  9  7  1  0
 10  9  1  0
 10 11  1  6
 12 11  1  0
 12 13  1  0
 13 14  2  0
 15 18  1  0
 15 10  1  0
 16 15  2  0
 17 13  1  0
 19 18  1  0
 19 30  1  0
 20 21  1  0
 19 20  1  1
 21 29  1  0
 21 22  2  0
 22 23  1  0
 24 23  1  0
 24 25  2  0
 26 25  1  0
 27 26  2  0
 28 27  1  0
 28 29  2  0
 29 24  1  0
 30 31  1  0
 32 30  2  0
M  END
$$$$
