NEW.pdb
     RDKit          3D

 32 33  0  0  1  0  0  0  0  0999 V2000
   28.3169  -22.0465  -19.4042 N   0  0  0  0  0  0  0  0  0  0  0  0
   28.5713  -20.8723  -18.6679 C   0  0  0  0  0  0  0  0  0  0  0  0
   29.6172  -20.2256  -18.8568 O   0  0  0  0  0  0  0  0  0  0  0  0
   27.5930  -20.4055  -17.6644 C   0  0  0  0  0  0  0  0  0  0  0  0
   28.0391  -20.7806  -16.2522 C   0  0  2  0  0  0  0  0  0  0  0  0
   28.3507  -22.2018  -16.1887 N   0  0  0  0  0  0  0  0  0  0  0  0
   27.0140  -20.3882  -15.2868 C   0  0  0  0  0  0  0  0  0  0  0  0
   26.4606  -19.2591  -15.2381 O   0  0  0  0  0  0  0  0  0  0  0  0
   26.5721  -21.3184  -14.3061 N   0  0  0  0  0  0  0  0  0  0  0  0
   25.4782  -21.0625  -13.3819 C   0  0  1  0  0  0  0  0  0  0  0  0
   24.1460  -21.3312  -13.9658 C   0  0  0  0  0  0  0  0  0  0  0  0
   23.6116  -20.1190  -14.6760 C   0  0  0  0  0  0  0  0  0  0  0  0
   22.1774  -20.3370  -15.0797 C   0  0  0  0  0  0  0  0  0  0  0  0
   21.6537  -21.4433  -14.8853 O   0  0  0  0  0  0  0  0  0  0  0  0
   25.7512  -21.6517  -12.0510 C   0  0  0  0  0  0  0  0  0  0  0  0
   26.7259  -22.4092  -11.7982 O   0  0  0  0  0  0  0  0  0  0  0  0
   21.4698  -19.3157  -15.6541 O   0  0  0  0  0  0  0  0  0  0  0  0
   24.8744  -21.3683  -10.9431 N   0  0  0  0  0  0  0  0  0  0  0  0
   25.4326  -21.1526   -9.6330 C   0  0  1  0  0  0  0  0  0  0  0  0
   26.3761  -19.9635   -9.6223 C   0  0  0  0  0  0  0  0  0  0  0  0
   27.6262  -20.3151   -8.9055 C   0  0  0  0  0  0  0  0  0  0  0  0
   28.7527  -20.9796   -9.3182 C   0  0  0  0  0  0  0  0  0  0  0  0
   29.6465  -21.0735   -8.3110 N   0  0  0  0  0  0  0  0  0  0  0  0
   29.1314  -20.4803   -7.2306 C   0  0  0  0  0  0  0  0  0  0  0  0
   29.6076  -20.2898   -5.9536 C   0  0  0  0  0  0  0  0  0  0  0  0
   28.8596  -19.6314   -5.0145 C   0  0  0  0  0  0  0  0  0  0  0  0
   27.6145  -19.1476   -5.3316 C   0  0  0  0  0  0  0  0  0  0  0  0
   27.1397  -19.3382   -6.6050 C   0  0  0  0  0  0  0  0  0  0  0  0
   27.8726  -19.9977   -7.5708 C   0  0  0  0  0  0  0  0  0  0  0  0
   24.3204  -20.8924   -8.6858 C   0  0  0  0  0  0  0  0  0  0  0  0
   24.3813  -21.4064   -7.3989 O   0  0  0  0  0  0  0  0  0  0  0  0
   23.3107  -20.1979   -9.0524 O   0  0  0  0  0  0  0  0  0  0  0  0
  2  1  1  0
  3  2  2  0
  4  2  1  0
  4  5  1  0
  5  6  1  6
  7  5  1  0
  7  8  2  0
  9  7  1  0
 10  9  1  0
 10 11  1  6
 12 11  1  0
 12 13  1  0
 13 14  2  0
 15 18  1  0
 15 10  1  0
 16 15  2  0
 17 13  1  0
 19 18  1  0
 19 30  1  0
 20 21  1  0
 19 20  1  6
 21 29  1  0
 21 22  2  0
 22 23  1  0
 24 23  1  0
 24 25  2  0
 26 25  1  0
 27 26  2  0
 28 27  1  0
 28 29  2  0
 29 24  1  0
 30 31  1  0
 32 30  2  0
M  END
$$$$
