RQM.pdb
     RDKit          3D

 29 28  0  0  1  0  0  0  0  0999 V2000
    9.1767  -12.4927   15.6778 N   0  0  0  0  0  0  0  0  0  0  0  0
    8.1302  -13.1147   16.4414 C   0  0  0  0  0  0  0  0  0  0  0  0
    7.2287  -13.8343   15.8616 N   0  0  0  0  0  0  0  0  0  0  0  0
    8.0504  -12.9623   17.8490 N   0  0  0  0  0  0  0  0  0  0  0  0
    6.9620  -13.6164   18.5476 C   0  0  0  0  0  0  0  0  0  0  0  0
    7.3478  -15.0770   18.6815 C   0  0  0  0  0  0  0  0  0  0  0  0
    7.9852  -15.3172   20.0322 C   0  0  0  0  0  0  0  0  0  0  0  0
    8.2254  -16.7710   20.2993 C   0  0  2  0  0  0  0  0  0  0  0  0
    7.0169  -17.5437   20.3264 N   0  0  0  0  0  0  0  0  0  0  0  0
    8.9731  -16.8681   21.5981 C   0  0  0  0  0  0  0  0  0  0  0  0
    8.3205  -17.0631   22.6485 O   0  0  0  0  0  0  0  0  0  0  0  0
    6.5434  -14.4244   16.3871 N   0  0  0  0  0  0  0  0  0  0  0  0
   15.0626  -15.8376   22.0617 C   0  0  0  0  0  0  0  0  0  0  0  0
   14.8687  -16.1085   23.4281 O   0  0  0  0  0  0  0  0  0  0  0  0
   15.8505  -16.1228   24.2027 C   0  0  0  0  0  0  0  0  0  0  0  0
   13.4590  -16.3707   23.8856 C   0  0  0  0  0  0  0  0  0  0  0  0
   12.6203  -16.4224   22.6702 C   0  0  2  0  0  0  0  0  0  0  0  0
   11.1682  -16.6307   22.8224 N   0  0  0  0  0  0  0  0  0  0  0  0
   10.3929  -16.7412   21.6287 C   0  0  0  0  0  0  0  0  0  0  0  0
   10.5247  -15.8089   23.8984 O   0  0  0  0  0  0  0  0  0  0  0  0
   10.5410  -14.5620   23.7059 C   0  0  0  0  0  0  0  0  0  0  0  0
    7.0076  -11.3148   25.4281 S   0  0  0  0  0  0  0  0  0  0  0  0
    6.3498  -12.8252   26.2177 C   0  0  0  0  0  0  0  0  0  0  0  0
    7.7309  -13.7981   26.8337 C   0  0  0  0  0  0  0  0  0  0  0  0
    8.3552  -14.6293   25.7815 C   0  0  1  0  0  0  0  0  0  0  0  0
    9.4913  -15.4533   26.2005 N   0  0  0  0  0  0  0  0  0  0  0  0
    9.9363  -16.3030   25.0512 C   0  0  0  0  0  0  0  0  0  0  0  0
    9.3246  -16.3511   27.3344 O   0  0  0  0  0  0  0  0  0  0  0  0
    9.2200  -16.0313   28.6730 O   0  0  0  0  0  0  0  0  0  0  0  0
  2  1  1  0
  3  2  2  0
  4  2  1  0
  4  5  1  0
  6  5  1  0
  7  6  1  0
  8 10  1  0
  8  7  1  0
  8  9  1  1
 10 11  2  0
 13 12  1  0
 13 14  2  0
 15 13  1  0
 16 15  1  0
 17 16  1  6
 17 19  1  0
 18 17  1  0
 18 10  1  0
 19 20  2  0
 22 23  1  0
 22 21  1  0
 23 24  1  0
 25 24  1  6
 25 27  1  0
 26 25  1  0
 26 19  1  0
 27 29  2  0
 27 28  1  0
M  END
$$$$
