RQM.pdb
     RDKit          3D

 29 28  0  0  1  0  0  0  0  0999 V2000
    8.0034  -12.5379   20.9111 N   0  0  0  0  0  0  0  0  0  0  0  0
    8.2620  -13.4123   19.8005 C   0  0  0  0  0  0  0  0  0  0  0  0
    8.5448  -12.9332   18.6354 N   0  0  0  0  0  0  0  0  0  0  0  0
    8.2164  -14.8225   19.9425 N   0  0  0  0  0  0  0  0  0  0  0  0
    7.1192  -15.5378   19.3220 C   0  0  0  0  0  0  0  0  0  0  0  0
    6.2875  -16.1191   20.4491 C   0  0  0  0  0  0  0  0  0  0  0  0
    6.4064  -17.6271   20.4491 C   0  0  0  0  0  0  0  0  0  0  0  0
    5.4492  -18.2750   21.4012 C   0  0  2  0  0  0  0  0  0  0  0  0
    4.0758  -18.0027   21.0882 N   0  0  0  0  0  0  0  0  0  0  0  0
    5.8056  -17.8034   22.7817 C   0  0  0  0  0  0  0  0  0  0  0  0
    5.2852  -16.7458   23.2034 O   0  0  0  0  0  0  0  0  0  0  0  0
    8.6508  -13.5297   17.7827 N   0  0  0  0  0  0  0  0  0  0  0  0
    8.0938  -21.4341   27.1419 C   0  0  0  0  0  0  0  0  0  0  0  0
    7.9034  -20.3096   27.9649 O   0  0  0  0  0  0  0  0  0  0  0  0
    8.0253  -20.4209   29.2046 C   0  0  0  0  0  0  0  0  0  0  0  0
    7.5566  -19.0108   27.2880 C   0  0  0  0  0  0  0  0  0  0  0  0
    7.3695  -19.3153   25.8544 C   0  0  2  0  0  0  0  0  0  0  0  0
    7.0694  -18.2060   24.9300 N   0  0  0  0  0  0  0  0  0  0  0  0
    6.7155  -18.5468   23.5896 C   0  0  0  0  0  0  0  0  0  0  0  0
    7.9903  -17.0285   25.0412 O   0  0  0  0  0  0  0  0  0  0  0  0
    8.8255  -16.9076   24.1031 C   0  0  0  0  0  0  0  0  0  0  0  0
    5.3440  -10.8921   25.8620 S   0  0  0  0  0  0  0  0  0  0  0  0
    6.4780  -11.7941   26.9745 C   0  0  0  0  0  0  0  0  0  0  0  0
    7.3380  -13.0518   26.0195 C   0  0  0  0  0  0  0  0  0  0  0  0
    8.2984  -13.8272   26.8347 C   0  0  2  0  0  0  0  0  0  0  0  0
    8.9527  -14.9524   26.1629 N   0  0  0  0  0  0  0  0  0  0  0  0
    7.9924  -16.0968   26.0666 C   0  0  0  0  0  0  0  0  0  0  0  0
   10.1784  -15.4919   26.7339 O   0  0  0  0  0  0  0  0  0  0  0  0
   11.4598  -14.9864   26.6470 O   0  0  0  0  0  0  0  0  0  0  0  0
  2  1  1  0
  3  2  2  0
  4  2  1  0
  4  5  1  0
  6  5  1  0
  7  6  1  0
  8 10  1  0
  8  7  1  0
  8  9  1  6
 10 11  2  0
 13 12  1  0
 13 14  2  0
 15 13  1  0
 16 15  1  0
 17 16  1  1
 17 19  1  0
 18 17  1  0
 18 10  1  0
 19 20  2  0
 22 23  1  0
 22 21  1  0
 23 24  1  0
 25 24  1  6
 25 27  1  0
 26 25  1  0
 26 19  1  0
 27 29  2  0
 27 28  1  0
M  END
$$$$
