RQM.pdb
     RDKit          3D

 29 28  0  0  1  0  0  0  0  0999 V2000
   10.8295  -20.2971   23.2772 N   0  0  0  0  0  0  0  0  0  0  0  0
   11.4005  -21.0783   22.2148 C   0  0  0  0  0  0  0  0  0  0  0  0
   12.5659  -21.6181   22.3455 N   0  0  0  0  0  0  0  0  0  0  0  0
   10.7098  -21.2834   20.9933 N   0  0  0  0  0  0  0  0  0  0  0  0
    9.4585  -20.5814   20.7884 C   0  0  0  0  0  0  0  0  0  0  0  0
    9.8117  -19.1267   20.5456 C   0  0  0  0  0  0  0  0  0  0  0  0
    8.5509  -18.3262   20.3048 C   0  0  0  0  0  0  0  0  0  0  0  0
    8.8364  -16.8843   20.0184 C   0  0  2  0  0  0  0  0  0  0  0  0
    9.7956  -16.7003   18.9676 N   0  0  0  0  0  0  0  0  0  0  0  0
    9.2963  -16.2571   21.3030 C   0  0  0  0  0  0  0  0  0  0  0  0
   10.5242  -16.0856   21.4767 O   0  0  0  0  0  0  0  0  0  0  0  0
   13.0423  -22.1426   21.5760 N   0  0  0  0  0  0  0  0  0  0  0  0
    5.5469  -13.4157   25.3012 C   0  0  0  0  0  0  0  0  0  0  0  0
    6.7539  -13.0484   25.9227 O   0  0  0  0  0  0  0  0  0  0  0  0
    6.7475  -12.1858   26.8283 C   0  0  0  0  0  0  0  0  0  0  0  0
    8.0087  -13.7316   25.4493 C   0  0  0  0  0  0  0  0  0  0  0  0
    7.6429  -14.5055   24.2450 C   0  0  2  0  0  0  0  0  0  0  0  0
    8.6970  -15.2633   23.5452 N   0  0  0  0  0  0  0  0  0  0  0  0
    8.3526  -15.8672   22.2983 C   0  0  0  0  0  0  0  0  0  0  0  0
    9.5450  -16.1252   24.4312 O   0  0  0  0  0  0  0  0  0  0  0  0
    9.0281  -17.2267   24.7655 C   0  0  0  0  0  0  0  0  0  0  0  0
   10.6668  -13.7801   31.2539 S   0  0  0  0  0  0  0  0  0  0  0  0
   10.3451  -13.5409   29.4716 C   0  0  0  0  0  0  0  0  0  0  0  0
   10.7856  -15.0518   28.6017 C   0  0  0  0  0  0  0  0  0  0  0  0
   10.5746  -14.9493   27.1412 C   0  0  1  0  0  0  0  0  0  0  0  0
   11.2472  -15.9589   26.3204 N   0  0  0  0  0  0  0  0  0  0  0  0
   10.8112  -15.8088   24.8962 C   0  0  0  0  0  0  0  0  0  0  0  0
   11.0731  -17.3645   26.6572 O   0  0  0  0  0  0  0  0  0  0  0  0
   12.0084  -18.2493   27.1546 O   0  0  0  0  0  0  0  0  0  0  0  0
  2  1  1  0
  3  2  2  0
  4  2  1  0
  4  5  1  0
  6  5  1  0
  7  6  1  0
  8 10  1  0
  8  7  1  0
  8  9  1  6
 10 11  2  0
 13 12  1  0
 13 14  2  0
 15 13  1  0
 16 15  1  0
 17 16  1  6
 17 19  1  0
 18 17  1  0
 18 10  1  0
 19 20  2  0
 22 23  1  0
 22 21  1  0
 23 24  1  0
 25 24  1  6
 25 27  1  0
 26 25  1  0
 26 19  1  0
 27 29  2  0
 27 28  1  0
M  END
$$$$
