RQM.pdb
     RDKit          3D

 29 28  0  0  1  0  0  0  0  0999 V2000
    8.7377  -13.6818   16.6109 N   0  0  0  0  0  0  0  0  0  0  0  0
    8.5916  -13.1274   17.9285 C   0  0  0  0  0  0  0  0  0  0  0  0
    9.5487  -12.4505   18.4695 N   0  0  0  0  0  0  0  0  0  0  0  0
    7.3999  -13.3019   18.6770 N   0  0  0  0  0  0  0  0  0  0  0  0
    7.5096  -13.8098   20.0300 C   0  0  0  0  0  0  0  0  0  0  0  0
    6.9378  -15.2144   20.0140 C   0  0  0  0  0  0  0  0  0  0  0  0
    7.1400  -15.8657   21.3643 C   0  0  0  0  0  0  0  0  0  0  0  0
    8.3521  -15.3453   22.0731 C   0  0  2  0  0  0  0  0  0  0  0  0
    9.5170  -15.3051   21.2367 N   0  0  0  0  0  0  0  0  0  0  0  0
    8.5684  -16.2111   23.2810 C   0  0  0  0  0  0  0  0  0  0  0  0
    7.6021  -16.4123   24.0510 O   0  0  0  0  0  0  0  0  0  0  0  0
    9.4894  -12.0462   19.4324 N   0  0  0  0  0  0  0  0  0  0  0  0
   10.8090  -21.2840   24.4697 C   0  0  0  0  0  0  0  0  0  0  0  0
   11.0871  -20.7417   23.2021 O   0  0  0  0  0  0  0  0  0  0  0  0
   11.1692  -21.4973   22.2090 C   0  0  0  0  0  0  0  0  0  0  0  0
   11.2733  -19.2506   23.1161 C   0  0  0  0  0  0  0  0  0  0  0  0
   11.0845  -18.7191   24.4818 C   0  0  2  0  0  0  0  0  0  0  0  0
   10.1529  -17.5929   24.6788 N   0  0  0  0  0  0  0  0  0  0  0  0
    9.8461  -16.7886   23.5399 C   0  0  0  0  0  0  0  0  0  0  0  0
   10.3675  -16.8132   25.9410 O   0  0  0  0  0  0  0  0  0  0  0  0
   10.8843  -17.4607   26.8927 C   0  0  0  0  0  0  0  0  0  0  0  0
    7.1998  -10.8417   25.0257 S   0  0  0  0  0  0  0  0  0  0  0  0
    7.3963  -11.7761   26.5831 C   0  0  0  0  0  0  0  0  0  0  0  0
    8.4636  -13.1897   26.2728 C   0  0  0  0  0  0  0  0  0  0  0  0
    8.7164  -13.9897   27.4910 C   0  0  2  0  0  0  0  0  0  0  0  0
    9.9176  -14.8277   27.4740 N   0  0  0  0  0  0  0  0  0  0  0  0
   10.0470  -15.4789   26.1323 C   0  0  0  0  0  0  0  0  0  0  0  0
   10.0435  -15.8910   28.4603 O   0  0  0  0  0  0  0  0  0  0  0  0
    9.9637  -17.2552   28.2654 O   0  0  0  0  0  0  0  0  0  0  0  0
  2  1  1  0
  3  2  2  0
  4  2  1  0
  4  5  1  0
  6  5  1  0
  7  6  1  0
  8 10  1  0
  8  7  1  0
  8  9  1  6
 10 11  2  0
 13 12  1  0
 13 14  2  0
 15 13  1  0
 16 15  1  0
 17 16  1  6
 17 19  1  0
 18 17  1  0
 18 10  1  0
 19 20  2  0
 22 23  1  0
 22 21  1  0
 23 24  1  0
 25 24  1  6
 25 27  1  0
 26 25  1  0
 26 19  1  0
 27 29  2  0
 27 28  1  0
M  END
$$$$
