RQM.pdb
     RDKit          3D

 29 28  0  0  1  0  0  0  0  0999 V2000
    9.0751  -15.2607   14.4834 N   0  0  0  0  0  0  0  0  0  0  0  0
    8.4351  -13.9875   14.6683 C   0  0  0  0  0  0  0  0  0  0  0  0
    7.7077  -13.4727   13.7341 N   0  0  0  0  0  0  0  0  0  0  0  0
    8.5777  -13.2556   15.8746 N   0  0  0  0  0  0  0  0  0  0  0  0
    8.7296  -13.9966   17.1109 C   0  0  0  0  0  0  0  0  0  0  0  0
    7.3733  -13.9912   17.7894 C   0  0  0  0  0  0  0  0  0  0  0  0
    7.4045  -14.8908   19.0051 C   0  0  0  0  0  0  0  0  0  0  0  0
    8.7678  -14.9728   19.6195 C   0  0  2  0  0  0  0  0  0  0  0  0
    9.6763  -15.7853   18.8627 N   0  0  0  0  0  0  0  0  0  0  0  0
    8.5961  -15.4914   21.0183 C   0  0  0  0  0  0  0  0  0  0  0  0
    7.7418  -14.9484   21.7549 O   0  0  0  0  0  0  0  0  0  0  0  0
    7.2202  -12.5523   13.8311 N   0  0  0  0  0  0  0  0  0  0  0  0
    8.3202  -21.7172   21.8007 C   0  0  0  0  0  0  0  0  0  0  0  0
    8.8761  -20.7138   22.6144 O   0  0  0  0  0  0  0  0  0  0  0  0
    8.8245  -20.8255   23.8590 C   0  0  0  0  0  0  0  0  0  0  0  0
    9.5140  -19.5395   21.9218 C   0  0  0  0  0  0  0  0  0  0  0  0
    9.7924  -18.5307   22.9648 C   0  0  2  0  0  0  0  0  0  0  0  0
    9.2634  -17.1657   22.7863 N   0  0  0  0  0  0  0  0  0  0  0  0
    9.3894  -16.5776   21.4915 C   0  0  0  0  0  0  0  0  0  0  0  0
    9.5532  -16.2263   23.9179 O   0  0  0  0  0  0  0  0  0  0  0  0
   10.7166  -15.7378   23.9277 C   0  0  0  0  0  0  0  0  0  0  0  0
    6.3813  -11.1031   25.6953 S   0  0  0  0  0  0  0  0  0  0  0  0
    6.5986  -11.8504   27.3482 C   0  0  0  0  0  0  0  0  0  0  0  0
    7.9851  -12.9936   27.2827 C   0  0  0  0  0  0  0  0  0  0  0  0
    7.8731  -13.9600   26.1685 C   0  0  1  0  0  0  0  0  0  0  0  0
    8.9827  -14.9048   26.0209 N   0  0  0  0  0  0  0  0  0  0  0  0
    8.6668  -15.8704   24.9214 C   0  0  0  0  0  0  0  0  0  0  0  0
    9.3774  -15.7063   27.1704 O   0  0  0  0  0  0  0  0  0  0  0  0
   10.0591  -15.3055   28.3016 O   0  0  0  0  0  0  0  0  0  0  0  0
  2  1  1  0
  3  2  2  0
  4  2  1  0
  4  5  1  0
  6  5  1  0
  7  6  1  0
  8 10  1  0
  8  7  1  0
  8  9  1  6
 10 11  2  0
 13 12  1  0
 13 14  2  0
 15 13  1  0
 16 15  1  0
 17 16  1  6
 17 19  1  0
 18 17  1  0
 18 10  1  0
 19 20  2  0
 22 23  1  0
 22 21  1  0
 23 24  1  0
 25 24  1  6
 25 27  1  0
 26 25  1  0
 26 19  1  0
 27 29  2  0
 27 28  1  0
M  END
$$$$
