RQM.pdb
     RDKit          3D

 29 28  0  0  1  0  0  0  0  0999 V2000
    6.7528  -12.6651   18.2235 N   0  0  0  0  0  0  0  0  0  0  0  0
    8.1362  -12.9090   18.5264 C   0  0  0  0  0  0  0  0  0  0  0  0
    8.9693  -11.9293   18.6407 N   0  0  0  0  0  0  0  0  0  0  0  0
    8.6330  -14.2245   18.7096 N   0  0  0  0  0  0  0  0  0  0  0  0
    7.8304  -15.3321   18.2305 C   0  0  0  0  0  0  0  0  0  0  0  0
    6.8644  -15.6824   19.3459 C   0  0  0  0  0  0  0  0  0  0  0  0
    7.6341  -16.0182   20.6041 C   0  0  0  0  0  0  0  0  0  0  0  0
    8.2173  -17.3969   20.5655 C   0  0  2  0  0  0  0  0  0  0  0  0
    7.2274  -18.4284   20.6849 N   0  0  0  0  0  0  0  0  0  0  0  0
    9.2380  -17.4803   21.6639 C   0  0  0  0  0  0  0  0  0  0  0  0
    8.9688  -18.1641   22.6773 O   0  0  0  0  0  0  0  0  0  0  0  0
   10.0042  -12.0645   18.7102 N   0  0  0  0  0  0  0  0  0  0  0  0
   14.2845  -14.1153   21.7557 C   0  0  0  0  0  0  0  0  0  0  0  0
   13.9899  -14.8777   20.6111 O   0  0  0  0  0  0  0  0  0  0  0  0
   14.3955  -14.4967   19.4911 C   0  0  0  0  0  0  0  0  0  0  0  0
   13.1858  -16.1346   20.8084 C   0  0  0  0  0  0  0  0  0  0  0  0
   12.7825  -16.1626   22.2295 C   0  0  2  0  0  0  0  0  0  0  0  0
   11.4703  -16.7373   22.5801 N   0  0  0  0  0  0  0  0  0  0  0  0
   10.4834  -16.7952   21.5501 C   0  0  0  0  0  0  0  0  0  0  0  0
   10.9379  -16.3189   23.9174 O   0  0  0  0  0  0  0  0  0  0  0  0
   11.7598  -16.3943   24.8718 C   0  0  0  0  0  0  0  0  0  0  0  0
    7.2308  -11.5776   27.2852 S   0  0  0  0  0  0  0  0  0  0  0  0
    6.2714  -12.9038   26.4741 C   0  0  0  0  0  0  0  0  0  0  0  0
    7.1692  -14.4517   26.6517 C   0  0  0  0  0  0  0  0  0  0  0  0
    7.8190  -14.8797   25.3936 C   0  0  1  0  0  0  0  0  0  0  0  0
    9.1506  -15.4751   25.5263 N   0  0  0  0  0  0  0  0  0  0  0  0
    9.6510  -15.8736   24.1728 C   0  0  0  0  0  0  0  0  0  0  0  0
    9.3144  -16.6401   26.3838 O   0  0  0  0  0  0  0  0  0  0  0  0
    9.0022  -17.9565   26.1107 O   0  0  0  0  0  0  0  0  0  0  0  0
  2  1  1  0
  3  2  2  0
  4  2  1  0
  4  5  1  0
  6  5  1  0
  7  6  1  0
  8 10  1  0
  8  7  1  0
  8  9  1  1
 10 11  2  0
 13 12  1  0
 13 14  2  0
 15 13  1  0
 16 15  1  0
 17 16  1  6
 17 19  1  0
 18 17  1  0
 18 10  1  0
 19 20  2  0
 22 23  1  0
 22 21  1  0
 23 24  1  0
 25 24  1  6
 25 27  1  0
 26 25  1  0
 26 19  1  0
 27 29  2  0
 27 28  1  0
M  END
$$$$
