RQM.pdb
     RDKit          3D

 29 28  0  0  1  0  0  0  0  0999 V2000
    6.7162  -13.5253   14.6285 N   0  0  0  0  0  0  0  0  0  0  0  0
    8.1313  -13.3345   14.7899 C   0  0  0  0  0  0  0  0  0  0  0  0
    8.8453  -12.8484   13.8303 N   0  0  0  0  0  0  0  0  0  0  0  0
    8.7903  -13.6703   15.9998 N   0  0  0  0  0  0  0  0  0  0  0  0
    8.1410  -14.6063   16.8958 C   0  0  0  0  0  0  0  0  0  0  0  0
    9.2421  -15.4308   17.5344 C   0  0  0  0  0  0  0  0  0  0  0  0
    9.8327  -14.6778   18.7059 C   0  0  0  0  0  0  0  0  0  0  0  0
   10.8874  -15.4668   19.4182 C   0  0  2  0  0  0  0  0  0  0  0  0
   11.4211  -16.5354   18.6236 N   0  0  0  0  0  0  0  0  0  0  0  0
   10.2785  -15.9765   20.6929 C   0  0  0  0  0  0  0  0  0  0  0  0
    9.7107  -15.1582   21.4513 O   0  0  0  0  0  0  0  0  0  0  0  0
    9.8854  -12.7521   13.8841 N   0  0  0  0  0  0  0  0  0  0  0  0
    9.7072  -21.9360   22.6526 C   0  0  0  0  0  0  0  0  0  0  0  0
    9.3896  -21.5614   21.3347 O   0  0  0  0  0  0  0  0  0  0  0  0
    9.1055  -22.4405   20.4918 C   0  0  0  0  0  0  0  0  0  0  0  0
    9.4116  -20.0915   21.0116 C   0  0  0  0  0  0  0  0  0  0  0  0
    9.6482  -19.3799   22.2847 C   0  0  2  0  0  0  0  0  0  0  0  0
    9.8678  -17.9220   22.2487 N   0  0  0  0  0  0  0  0  0  0  0  0
   10.3475  -17.3610   21.0266 C   0  0  0  0  0  0  0  0  0  0  0  0
   10.5079  -17.3522   23.4786 O   0  0  0  0  0  0  0  0  0  0  0  0
   11.7424  -17.1105   23.3804 C   0  0  0  0  0  0  0  0  0  0  0  0
    9.6875  -12.7363   29.7444 S   0  0  0  0  0  0  0  0  0  0  0  0
    8.9458  -13.5647   28.2950 C   0  0  0  0  0  0  0  0  0  0  0  0
   10.1278  -14.7555   27.6480 C   0  0  0  0  0  0  0  0  0  0  0  0
    9.6243  -15.4636   26.4509 C   0  0  1  0  0  0  0  0  0  0  0  0
   10.5241  -16.4603   25.8658 N   0  0  0  0  0  0  0  0  0  0  0  0
    9.8641  -17.0840   24.6756 C   0  0  0  0  0  0  0  0  0  0  0  0
   10.9892  -17.5590   26.7000 O   0  0  0  0  0  0  0  0  0  0  0  0
   12.0841  -17.5940   27.5398 O   0  0  0  0  0  0  0  0  0  0  0  0
  2  1  1  0
  3  2  2  0
  4  2  1  0
  4  5  1  0
  6  5  1  0
  7  6  1  0
  8 10  1  0
  8  7  1  0
  8  9  1  6
 10 11  2  0
 13 12  1  0
 13 14  2  0
 15 13  1  0
 16 15  1  0
 17 16  1  6
 17 19  1  0
 18 17  1  0
 18 10  1  0
 19 20  2  0
 22 23  1  0
 22 21  1  0
 23 24  1  0
 25 24  1  6
 25 27  1  0
 26 25  1  0
 26 19  1  0
 27 29  2  0
 27 28  1  0
M  END
$$$$
