RQM.pdb
     RDKit          3D

 29 28  0  0  1  0  0  0  0  0999 V2000
    7.3991  -13.1669   14.9120 N   0  0  0  0  0  0  0  0  0  0  0  0
    8.5798  -13.9466   15.1630 C   0  0  0  0  0  0  0  0  0  0  0  0
    9.3145  -14.3643   14.1871 N   0  0  0  0  0  0  0  0  0  0  0  0
    8.9780  -14.2830   16.4818 N   0  0  0  0  0  0  0  0  0  0  0  0
    8.0149  -14.9434   17.3402 C   0  0  0  0  0  0  0  0  0  0  0  0
    7.5436  -13.9067   18.3417 C   0  0  0  0  0  0  0  0  0  0  0  0
    7.7943  -14.4020   19.7488 C   0  0  0  0  0  0  0  0  0  0  0  0
    7.6225  -15.8846   19.8710 C   0  0  2  0  0  0  0  0  0  0  0  0
    6.2933  -16.3232   19.5561 N   0  0  0  0  0  0  0  0  0  0  0  0
    8.0133  -16.2650   21.2702 C   0  0  0  0  0  0  0  0  0  0  0  0
    7.1731  -16.1138   22.1859 O   0  0  0  0  0  0  0  0  0  0  0  0
   10.1239  -15.0138   14.3184 N   0  0  0  0  0  0  0  0  0  0  0  0
   13.4925  -19.6664   23.5556 C   0  0  0  0  0  0  0  0  0  0  0  0
   12.1703  -19.7948   24.0176 O   0  0  0  0  0  0  0  0  0  0  0  0
   11.6931  -20.9324   24.2231 C   0  0  0  0  0  0  0  0  0  0  0  0
   11.3922  -18.5260   24.2415 C   0  0  0  0  0  0  0  0  0  0  0  0
   10.9321  -18.0695   22.9138 C   0  0  2  0  0  0  0  0  0  0  0  0
    9.7763  -17.1561   22.8424 N   0  0  0  0  0  0  0  0  0  0  0  0
    9.3118  -16.7864   21.5441 C   0  0  0  0  0  0  0  0  0  0  0  0
    9.8053  -16.0273   23.8283 O   0  0  0  0  0  0  0  0  0  0  0  0
   10.5745  -15.0723   23.5310 C   0  0  0  0  0  0  0  0  0  0  0  0
    6.5411  -11.2511   25.1492 S   0  0  0  0  0  0  0  0  0  0  0  0
    6.5423  -11.9004   26.8567 C   0  0  0  0  0  0  0  0  0  0  0  0
    7.9624  -12.9854   27.0565 C   0  0  0  0  0  0  0  0  0  0  0  0
    8.0366  -14.0241   26.0060 C   0  0  1  0  0  0  0  0  0  0  0  0
    9.2253  -14.8797   26.0285 N   0  0  0  0  0  0  0  0  0  0  0  0
    9.0756  -15.9610   25.0041 C   0  0  0  0  0  0  0  0  0  0  0  0
    9.5885  -15.5410   27.2735 O   0  0  0  0  0  0  0  0  0  0  0  0
    9.7096  -16.8933   27.5225 O   0  0  0  0  0  0  0  0  0  0  0  0
  2  1  1  0
  3  2  2  0
  4  2  1  0
  4  5  1  0
  6  5  1  0
  7  6  1  0
  8 10  1  0
  8  7  1  0
  8  9  1  1
 10 11  2  0
 13 12  1  0
 13 14  2  0
 15 13  1  0
 16 15  1  0
 17 16  1  6
 17 19  1  0
 18 17  1  0
 18 10  1  0
 19 20  2  0
 22 23  1  0
 22 21  1  0
 23 24  1  0
 25 24  1  6
 25 27  1  0
 26 25  1  0
 26 19  1  0
 27 29  2  0
 27 28  1  0
M  END
$$$$
