RQM.pdb
     RDKit          3D

 29 28  0  0  1  0  0  0  0  0999 V2000
    7.2131  -13.8098   15.0444 N   0  0  0  0  0  0  0  0  0  0  0  0
    8.4058  -14.4340   15.5471 C   0  0  0  0  0  0  0  0  0  0  0  0
    8.8328  -15.5433   15.0431 N   0  0  0  0  0  0  0  0  0  0  0  0
    9.1519  -13.8587   16.6070 N   0  0  0  0  0  0  0  0  0  0  0  0
    8.4278  -13.1900   17.6695 C   0  0  0  0  0  0  0  0  0  0  0  0
    7.2871  -14.1090   18.0624 C   0  0  0  0  0  0  0  0  0  0  0  0
    7.4663  -14.5659   19.4932 C   0  0  0  0  0  0  0  0  0  0  0  0
    8.8960  -14.8677   19.8210 C   0  0  2  0  0  0  0  0  0  0  0  0
    9.5070  -15.7702   18.8881 N   0  0  0  0  0  0  0  0  0  0  0  0
    8.9271  -15.4135   21.2197 C   0  0  0  0  0  0  0  0  0  0  0  0
    8.2583  -14.8299   22.1025 O   0  0  0  0  0  0  0  0  0  0  0  0
    9.7096  -16.0159   15.3622 N   0  0  0  0  0  0  0  0  0  0  0  0
   12.2023  -20.4038   22.8668 C   0  0  0  0  0  0  0  0  0  0  0  0
   11.7754  -20.0908   24.1698 O   0  0  0  0  0  0  0  0  0  0  0  0
   12.1449  -20.8010   25.1306 C   0  0  0  0  0  0  0  0  0  0  0  0
   10.8791  -18.8926   24.3323 C   0  0  0  0  0  0  0  0  0  0  0  0
   10.7187  -18.2965   22.9900 C   0  0  2  0  0  0  0  0  0  0  0  0
    9.8369  -17.1240   22.8386 N   0  0  0  0  0  0  0  0  0  0  0  0
    9.7014  -16.5699   21.5298 C   0  0  0  0  0  0  0  0  0  0  0  0
    9.9577  -16.1018   23.9284 O   0  0  0  0  0  0  0  0  0  0  0  0
   10.9821  -15.3678   23.8671 C   0  0  0  0  0  0  0  0  0  0  0  0
    6.1876  -10.8217   28.1923 S   0  0  0  0  0  0  0  0  0  0  0  0
    6.2187  -12.0992   26.8867 C   0  0  0  0  0  0  0  0  0  0  0  0
    7.7796  -12.9861   26.9896 C   0  0  0  0  0  0  0  0  0  0  0  0
    7.9096  -14.0308   25.9505 C   0  0  1  0  0  0  0  0  0  0  0  0
    9.1503  -14.8091   25.9708 N   0  0  0  0  0  0  0  0  0  0  0  0
    9.0575  -15.9136   24.9646 C   0  0  0  0  0  0  0  0  0  0  0  0
    9.5691  -15.4266   27.2208 O   0  0  0  0  0  0  0  0  0  0  0  0
    9.7738  -16.7648   27.4898 O   0  0  0  0  0  0  0  0  0  0  0  0
  2  1  1  0
  3  2  2  0
  4  2  1  0
  4  5  1  0
  6  5  1  0
  7  6  1  0
  8 10  1  0
  8  7  1  0
  8  9  1  6
 10 11  2  0
 13 12  1  0
 13 14  2  0
 15 13  1  0
 16 15  1  0
 17 16  1  6
 17 19  1  0
 18 17  1  0
 18 10  1  0
 19 20  2  0
 22 23  1  0
 22 21  1  0
 23 24  1  0
 25 24  1  6
 25 27  1  0
 26 25  1  0
 26 19  1  0
 27 29  2  0
 27 28  1  0
M  END
$$$$
