RQM.pdb
     RDKit          3D

 29 28  0  0  1  0  0  0  0  0999 V2000
    9.9660  -15.5206   15.9713 N   0  0  0  0  0  0  0  0  0  0  0  0
    9.1389  -14.4363   15.5183 C   0  0  0  0  0  0  0  0  0  0  0  0
    8.9707  -14.2170   14.2572 N   0  0  0  0  0  0  0  0  0  0  0  0
    8.4820  -13.5744   16.4328 N   0  0  0  0  0  0  0  0  0  0  0  0
    8.4711  -13.9437   17.8343 C   0  0  0  0  0  0  0  0  0  0  0  0
    7.0374  -14.2991   18.1783 C   0  0  0  0  0  0  0  0  0  0  0  0
    6.8998  -14.4847   19.6733 C   0  0  0  0  0  0  0  0  0  0  0  0
    7.8556  -15.5038   20.2122 C   0  0  2  0  0  0  0  0  0  0  0  0
    7.9253  -16.6888   19.4065 N   0  0  0  0  0  0  0  0  0  0  0  0
    7.4294  -15.8153   21.6181 C   0  0  0  0  0  0  0  0  0  0  0  0
    6.9052  -14.9041   22.2980 O   0  0  0  0  0  0  0  0  0  0  0  0
    8.3556  -13.4566   13.8864 N   0  0  0  0  0  0  0  0  0  0  0  0
    7.3466  -21.4867   24.0516 C   0  0  0  0  0  0  0  0  0  0  0  0
    7.1521  -20.8238   25.2767 O   0  0  0  0  0  0  0  0  0  0  0  0
    7.0348  -21.4886   26.3295 C   0  0  0  0  0  0  0  0  0  0  0  0
    7.0956  -19.3201   25.2454 C   0  0  0  0  0  0  0  0  0  0  0  0
    7.2838  -18.9168   23.8365 C   0  0  1  0  0  0  0  0  0  0  0  0
    7.3453  -17.4787   23.5156 N   0  0  0  0  0  0  0  0  0  0  0  0
    7.6188  -17.1200   22.1610 C   0  0  0  0  0  0  0  0  0  0  0  0
    8.0615  -16.6384   24.5295 O   0  0  0  0  0  0  0  0  0  0  0  0
    9.3173  -16.6048   24.4108 C   0  0  0  0  0  0  0  0  0  0  0  0
    5.8100  -11.1813   26.8847 S   0  0  0  0  0  0  0  0  0  0  0  0
    7.4985  -11.3609   27.5587 C   0  0  0  0  0  0  0  0  0  0  0  0
    7.7476  -13.0780   28.0311 C   0  0  0  0  0  0  0  0  0  0  0  0
    7.2136  -14.0265   27.0295 C   0  0  1  0  0  0  0  0  0  0  0  0
    8.1844  -14.9448   26.4298 N   0  0  0  0  0  0  0  0  0  0  0  0
    7.4644  -15.9231   25.5548 C   0  0  0  0  0  0  0  0  0  0  0  0
    9.0394  -15.7310   27.3075 O   0  0  0  0  0  0  0  0  0  0  0  0
   10.1648  -15.3258   27.9963 O   0  0  0  0  0  0  0  0  0  0  0  0
  2  1  1  0
  3  2  2  0
  4  2  1  0
  4  5  1  0
  6  5  1  0
  7  6  1  0
  8 10  1  0
  8  7  1  0
  8  9  1  6
 10 11  2  0
 13 12  1  0
 13 14  2  0
 15 13  1  0
 16 15  1  0
 17 16  1  6
 17 19  1  0
 18 17  1  0
 18 10  1  0
 19 20  2  0
 22 23  1  0
 22 21  1  0
 23 24  1  0
 25 24  1  6
 25 27  1  0
 26 25  1  0
 26 19  1  0
 27 29  2  0
 27 28  1  0
M  END
$$$$
