RQM.pdb
     RDKit          3D

 29 28  0  0  1  0  0  0  0  0999 V2000
    8.8788  -13.2431   17.3874 N   0  0  0  0  0  0  0  0  0  0  0  0
    8.2167  -12.6903   18.5367 C   0  0  0  0  0  0  0  0  0  0  0  0
    8.4433  -11.4746   18.9076 N   0  0  0  0  0  0  0  0  0  0  0  0
    7.2969  -13.4539   19.2996 N   0  0  0  0  0  0  0  0  0  0  0  0
    7.0027  -14.8048   18.8648 C   0  0  0  0  0  0  0  0  0  0  0  0
    8.2616  -15.6186   19.0946 C   0  0  0  0  0  0  0  0  0  0  0  0
    8.5339  -15.7339   20.5781 C   0  0  0  0  0  0  0  0  0  0  0  0
    9.7981  -16.4819   20.8698 C   0  0  2  0  0  0  0  0  0  0  0  0
    9.9904  -17.6150   20.0111 N   0  0  0  0  0  0  0  0  0  0  0  0
    9.7542  -16.8850   22.3157 C   0  0  0  0  0  0  0  0  0  0  0  0
    8.7011  -16.6788   22.9605 O   0  0  0  0  0  0  0  0  0  0  0  0
    8.0330  -11.0555   19.7737 N   0  0  0  0  0  0  0  0  0  0  0  0
   13.8171  -20.5366   25.1421 C   0  0  0  0  0  0  0  0  0  0  0  0
   13.2642  -20.0320   26.3328 O   0  0  0  0  0  0  0  0  0  0  0  0
   13.6798  -20.4508   27.4356 C   0  0  0  0  0  0  0  0  0  0  0  0
   12.1811  -18.9948   26.2045 C   0  0  0  0  0  0  0  0  0  0  0  0
   11.9934  -18.7527   24.7592 C   0  0  1  0  0  0  0  0  0  0  0  0
   11.0014  -17.7475   24.3344 N   0  0  0  0  0  0  0  0  0  0  0  0
   10.8878  -17.4887   22.9350 C   0  0  0  0  0  0  0  0  0  0  0  0
   10.9437  -16.5196   25.1923 O   0  0  0  0  0  0  0  0  0  0  0  0
   11.3260  -15.4544   24.6343 C   0  0  0  0  0  0  0  0  0  0  0  0
    6.2762  -11.4594   27.7321 S   0  0  0  0  0  0  0  0  0  0  0  0
    6.7958  -12.9548   26.8204 C   0  0  0  0  0  0  0  0  0  0  0  0
    8.3850  -13.4959   27.4648 C   0  0  0  0  0  0  0  0  0  0  0  0
    8.8889  -14.7112   26.7887 C   0  0  1  0  0  0  0  0  0  0  0  0
   10.1887  -15.2099   27.2439 N   0  0  0  0  0  0  0  0  0  0  0  0
   10.5184  -16.4723   26.5099 C   0  0  0  0  0  0  0  0  0  0  0  0
   10.3715  -15.4981   28.6591 O   0  0  0  0  0  0  0  0  0  0  0  0
   10.5088  -14.6076   29.7047 O   0  0  0  0  0  0  0  0  0  0  0  0
  2  1  1  0
  3  2  2  0
  4  2  1  0
  4  5  1  0
  6  5  1  0
  7  6  1  0
  8 10  1  0
  8  7  1  0
  8  9  1  6
 10 11  2  0
 13 12  1  0
 13 14  2  0
 15 13  1  0
 16 15  1  0
 17 16  1  6
 17 19  1  0
 18 17  1  0
 18 10  1  0
 19 20  2  0
 22 23  1  0
 22 21  1  0
 23 24  1  0
 25 24  1  6
 25 27  1  0
 26 25  1  0
 26 19  1  0
 27 29  2  0
 27 28  1  0
M  END
$$$$
