RQM.pdb
     RDKit          3D

 29 28  0  0  1  0  0  0  0  0999 V2000
    9.3158  -13.4537   13.9525 N   0  0  0  0  0  0  0  0  0  0  0  0
    8.4265  -14.1392   14.8494 C   0  0  0  0  0  0  0  0  0  0  0  0
    7.1476  -14.0818   14.6824 N   0  0  0  0  0  0  0  0  0  0  0  0
    8.9175  -14.8979   15.9421 N   0  0  0  0  0  0  0  0  0  0  0  0
    9.0890  -14.2302   17.2170 C   0  0  0  0  0  0  0  0  0  0  0  0
    7.7116  -13.7706   17.6549 C   0  0  0  0  0  0  0  0  0  0  0  0
    7.2703  -14.5580   18.8688 C   0  0  0  0  0  0  0  0  0  0  0  0
    8.4183  -15.2146   19.5714 C   0  0  2  0  0  0  0  0  0  0  0  0
    8.9255  -16.3583   18.8694 N   0  0  0  0  0  0  0  0  0  0  0  0
    7.9488  -15.5761   20.9512 C   0  0  0  0  0  0  0  0  0  0  0  0
    7.4160  -14.6860   21.6520 O   0  0  0  0  0  0  0  0  0  0  0  0
    6.4680  -14.5884   15.2953 N   0  0  0  0  0  0  0  0  0  0  0  0
    6.0450  -21.3605   24.5135 C   0  0  0  0  0  0  0  0  0  0  0  0
    7.2999  -20.7683   24.2842 O   0  0  0  0  0  0  0  0  0  0  0  0
    8.2893  -21.4904   24.0314 C   0  0  0  0  0  0  0  0  0  0  0  0
    7.3776  -19.2670   24.3587 C   0  0  0  0  0  0  0  0  0  0  0  0
    7.5929  -18.7835   22.9792 C   0  0  1  0  0  0  0  0  0  0  0  0
    7.7138  -17.3316   22.7505 N   0  0  0  0  0  0  0  0  0  0  0  0
    8.1077  -16.9036   21.4467 C   0  0  0  0  0  0  0  0  0  0  0  0
    8.3617  -16.5710   23.8680 O   0  0  0  0  0  0  0  0  0  0  0  0
    9.6176  -16.6739   23.9322 C   0  0  0  0  0  0  0  0  0  0  0  0
    6.5600  -10.8672   26.4054 S   0  0  0  0  0  0  0  0  0  0  0  0
    6.8953  -11.8065   27.9360 C   0  0  0  0  0  0  0  0  0  0  0  0
    7.9735  -13.1888   27.5357 C   0  0  0  0  0  0  0  0  0  0  0  0
    7.5026  -13.9560   26.3620 C   0  0  1  0  0  0  0  0  0  0  0  0
    8.3866  -15.0264   25.8948 N   0  0  0  0  0  0  0  0  0  0  0  0
    7.7027  -15.7923   24.8054 C   0  0  0  0  0  0  0  0  0  0  0  0
    8.8600  -16.0128   26.8552 O   0  0  0  0  0  0  0  0  0  0  0  0
    9.9889  -15.9646   27.6480 O   0  0  0  0  0  0  0  0  0  0  0  0
  2  1  1  0
  3  2  2  0
  4  2  1  0
  4  5  1  0
  6  5  1  0
  7  6  1  0
  8 10  1  0
  8  7  1  0
  8  9  1  6
 10 11  2  0
 13 12  1  0
 13 14  2  0
 15 13  1  0
 16 15  1  0
 17 16  1  6
 17 19  1  0
 18 17  1  0
 18 10  1  0
 19 20  2  0
 22 23  1  0
 22 21  1  0
 23 24  1  0
 25 24  1  6
 25 27  1  0
 26 25  1  0
 26 19  1  0
 27 29  2  0
 27 28  1  0
M  END
$$$$
