RQM.pdb
     RDKit          3D

 29 28  0  0  1  0  0  0  0  0999 V2000
    8.8577  -15.8433   14.6592 N   0  0  0  0  0  0  0  0  0  0  0  0
    8.2927  -14.5259   14.5581 C   0  0  0  0  0  0  0  0  0  0  0  0
    8.6196  -13.7404   13.5871 N   0  0  0  0  0  0  0  0  0  0  0  0
    7.3623  -14.0443   15.5138 N   0  0  0  0  0  0  0  0  0  0  0  0
    6.8230  -14.9830   16.4775 C   0  0  0  0  0  0  0  0  0  0  0  0
    7.8279  -15.0673   17.6103 C   0  0  0  0  0  0  0  0  0  0  0  0
    7.1689  -14.6653   18.9112 C   0  0  0  0  0  0  0  0  0  0  0  0
    7.5232  -15.5852   20.0385 C   0  0  2  0  0  0  0  0  0  0  0  0
    7.0835  -15.1025   21.3159 N   0  0  0  0  0  0  0  0  0  0  0  0
    9.0118  -15.7804   20.0036 C   0  0  0  0  0  0  0  0  0  0  0  0
    9.4768  -16.6924   19.2831 O   0  0  0  0  0  0  0  0  0  0  0  0
    8.3022  -12.7457   13.5251 N   0  0  0  0  0  0  0  0  0  0  0  0
   14.5105  -13.4305   20.2277 C   0  0  0  0  0  0  0  0  0  0  0  0
   14.7246  -14.6946   20.8057 O   0  0  0  0  0  0  0  0  0  0  0  0
   15.8243  -15.2695   20.6495 C   0  0  0  0  0  0  0  0  0  0  0  0
   13.5912  -15.2925   21.5952 C   0  0  0  0  0  0  0  0  0  0  0  0
   12.3400  -14.8199   20.9673 C   0  0  2  0  0  0  0  0  0  0  0  0
   11.0599  -15.3896   21.4274 N   0  0  0  0  0  0  0  0  0  0  0  0
    9.8712  -14.9436   20.7745 C   0  0  0  0  0  0  0  0  0  0  0  0
   10.9298  -15.5236   22.9147 O   0  0  0  0  0  0  0  0  0  0  0  0
   11.9594  -15.2142   23.5753 C   0  0  0  0  0  0  0  0  0  0  0  0
    7.9292  -11.7523   26.1838 S   0  0  0  0  0  0  0  0  0  0  0  0
    7.3238  -13.1881   27.1373 C   0  0  0  0  0  0  0  0  0  0  0  0
    8.4251  -14.5785   26.8412 C   0  0  0  0  0  0  0  0  0  0  0  0
    8.7187  -14.7756   25.4049 C   0  0  1  0  0  0  0  0  0  0  0  0
    9.6299  -15.8749   25.0783 N   0  0  0  0  0  0  0  0  0  0  0  0
    9.8000  -15.9513   23.5930 C   0  0  0  0  0  0  0  0  0  0  0  0
    9.2923  -17.2195   25.5226 O   0  0  0  0  0  0  0  0  0  0  0  0
    9.0612  -18.3433   24.7552 O   0  0  0  0  0  0  0  0  0  0  0  0
  2  1  1  0
  3  2  2  0
  4  2  1  0
  4  5  1  0
  6  5  1  0
  7  6  1  0
  8 10  1  0
  8  7  1  0
  8  9  1  1
 10 11  2  0
 13 12  1  0
 13 14  2  0
 15 13  1  0
 16 15  1  0
 17 16  1  6
 17 19  1  0
 18 17  1  0
 18 10  1  0
 19 20  2  0
 22 23  1  0
 22 21  1  0
 23 24  1  0
 25 24  1  1
 25 27  1  0
 26 25  1  0
 26 19  1  0
 27 29  2  0
 27 28  1  0
M  END
$$$$
