RQM.pdb
     RDKit          3D

 29 28  0  0  1  0  0  0  0  0999 V2000
    9.0467  -12.1897   17.0042 N   0  0  0  0  0  0  0  0  0  0  0  0
    8.4337  -12.6683   18.2125 C   0  0  0  0  0  0  0  0  0  0  0  0
    8.4510  -11.9550   19.2885 N   0  0  0  0  0  0  0  0  0  0  0  0
    7.7920  -13.9317   18.2668 N   0  0  0  0  0  0  0  0  0  0  0  0
    8.0660  -14.7903   19.4019 C   0  0  0  0  0  0  0  0  0  0  0  0
    6.7223  -15.1659   19.9963 C   0  0  0  0  0  0  0  0  0  0  0  0
    6.9278  -15.9744   21.2582 C   0  0  0  0  0  0  0  0  0  0  0  0
    8.2460  -16.6848   21.2724 C   0  0  2  0  0  0  0  0  0  0  0  0
    8.2363  -17.9004   20.5106 N   0  0  0  0  0  0  0  0  0  0  0  0
    8.6018  -16.9358   22.7096 C   0  0  0  0  0  0  0  0  0  0  0  0
    7.7180  -16.7691   23.5805 O   0  0  0  0  0  0  0  0  0  0  0  0
    7.9997  -12.2579   20.1822 N   0  0  0  0  0  0  0  0  0  0  0  0
   13.6548  -19.8471   24.6664 C   0  0  0  0  0  0  0  0  0  0  0  0
   13.2795  -19.3827   25.9398 O   0  0  0  0  0  0  0  0  0  0  0  0
   13.9588  -19.7006   26.9407 C   0  0  0  0  0  0  0  0  0  0  0  0
   12.0550  -18.5114   26.0225 C   0  0  0  0  0  0  0  0  0  0  0  0
   11.5505  -18.3552   24.6426 C   0  0  2  0  0  0  0  0  0  0  0  0
   10.3855  -17.4809   24.4112 N   0  0  0  0  0  0  0  0  0  0  0  0
    9.9165  -17.3547   23.0687 C   0  0  0  0  0  0  0  0  0  0  0  0
   10.4038  -16.1932   25.1785 O   0  0  0  0  0  0  0  0  0  0  0  0
   11.1678  -15.3017   24.7163 C   0  0  0  0  0  0  0  0  0  0  0  0
    7.3524  -10.7305   25.5471 S   0  0  0  0  0  0  0  0  0  0  0  0
    6.9903  -11.6164   27.1032 C   0  0  0  0  0  0  0  0  0  0  0  0
    8.4418  -12.5690   27.5717 C   0  0  0  0  0  0  0  0  0  0  0  0
    8.5714  -13.8244   26.8003 C   0  0  1  0  0  0  0  0  0  0  0  0
    9.7522  -14.6408   27.0916 N   0  0  0  0  0  0  0  0  0  0  0  0
    9.6695  -15.9220   26.3216 C   0  0  0  0  0  0  0  0  0  0  0  0
   10.0251  -15.0091   28.4733 O   0  0  0  0  0  0  0  0  0  0  0  0
   10.3985  -14.1915   29.5209 O   0  0  0  0  0  0  0  0  0  0  0  0
  2  1  1  0
  3  2  2  0
  4  2  1  0
  4  5  1  0
  6  5  1  0
  7  6  1  0
  8 10  1  0
  8  7  1  0
  8  9  1  6
 10 11  2  0
 13 12  1  0
 13 14  2  0
 15 13  1  0
 16 15  1  0
 17 16  1  1
 17 19  1  0
 18 17  1  0
 18 10  1  0
 19 20  2  0
 22 23  1  0
 22 21  1  0
 23 24  1  0
 25 24  1  6
 25 27  1  0
 26 25  1  0
 26 19  1  0
 27 29  2  0
 27 28  1  0
M  END
$$$$
