EVH.pdb
     RDKit          3D

 27 27  0  0  1  0  0  0  0  0999 V2000
    8.9077  -17.2263   16.8178 N   0  0  0  0  0  0  0  0  0  0  0  0
    8.7195  -17.6340   18.1456 C   0  0  1  0  0  0  0  0  0  0  0  0
    9.3749  -18.9160   18.4942 C   0  0  0  0  0  0  0  0  0  0  0  0
    8.8132  -20.1017   17.8262 C   0  0  0  0  0  0  0  0  0  0  0  0
    9.5113  -21.3499   18.1553 C   0  0  0  0  0  0  0  0  0  0  0  0
   10.4832  -21.3852   18.9447 O   0  0  0  0  0  0  0  0  0  0  0  0
    9.1123  -16.6168   19.1850 C   0  0  0  0  0  0  0  0  0  0  0  0
   10.2034  -15.9876   19.0139 O   0  0  0  0  0  0  0  0  0  0  0  0
    9.0877  -22.5730   17.5699 O   0  0  0  0  0  0  0  0  0  0  0  0
    6.5041  -14.8904   22.2400 C   0  0  0  0  0  0  0  0  0  0  0  0
    7.7687  -14.3210   21.6566 C   0  0  2  0  0  0  0  0  0  0  0  0
    7.4790  -13.3931   20.4858 C   0  0  0  0  0  0  0  0  0  0  0  0
    8.8140  -15.3296   21.3249 C   0  0  2  0  0  0  0  0  0  0  0  0
    8.3713  -16.3032   20.3337 N   0  0  0  0  0  0  0  0  0  0  0  0
    9.2632  -16.0648   22.5555 C   0  0  0  0  0  0  0  0  0  0  0  0
    8.6338  -17.0968   22.9061 O   0  0  0  0  0  0  0  0  0  0  0  0
   10.3714  -15.6155   23.3140 N   0  0  0  0  0  0  0  0  0  0  0  0
   10.8511  -16.3231   24.5063 C   0  0  1  0  0  0  0  0  0  0  0  0
   12.2255  -15.9157   24.8689 C   0  0  0  0  0  0  0  0  0  0  0  0
   13.1977  -16.2774   23.8104 C   0  0  0  0  0  0  0  0  0  0  0  0
   13.1999  -17.5086   23.1413 C   0  0  0  0  0  0  0  0  0  0  0  0
   14.2017  -17.5008   22.2548 N   0  0  0  0  0  0  0  0  0  0  0  0
   14.8414  -16.3298   22.3205 C   0  0  0  0  0  0  0  0  0  0  0  0
   14.2211  -15.6101   23.2618 N   0  0  0  0  0  0  0  0  0  0  0  0
    9.8941  -15.9826   25.5950 C   0  0  0  0  0  0  0  0  0  0  0  0
    8.9955  -15.1434   25.4607 O   0  0  0  0  0  0  0  0  0  0  0  0
    9.9896  -16.6281   26.8530 O   0  0  0  0  0  0  0  0  0  0  0  0
  2  3  1  0
  2  1  1  6
  3  4  1  0
  5  4  1  0
  6  5  2  0
  7  2  1  0
  8  7  2  0
  9  5  1  0
 11 13  1  0
 11 10  1  6
 12 11  1  0
 13 14  1  6
 14  7  1  0
 15 13  1  0
 15 16  2  0
 17 15  1  0
 18 17  1  0
 18 19  1  1
 20 19  1  0
 21 20  2  0
 22 21  1  0
 23 22  1  0
 23 24  2  0
 24 20  1  0
 25 18  1  0
 26 25  2  0
 27 25  1  0
M  END
$$$$
