EVH.pdb
     RDKit          3D

 27 27  0  0  1  0  0  0  0  0999 V2000
   10.4249  -18.2256   18.4750 N   0  0  0  0  0  0  0  0  0  0  0  0
    9.3186  -18.0401   19.3155 C   0  0  1  0  0  0  0  0  0  0  0  0
    8.9691  -19.2191   20.1415 C   0  0  0  0  0  0  0  0  0  0  0  0
    8.9721  -20.5036   19.4220 C   0  0  0  0  0  0  0  0  0  0  0  0
    8.4780  -21.6294   20.2233 C   0  0  0  0  0  0  0  0  0  0  0  0
    7.4971  -22.3233   19.8696 O   0  0  0  0  0  0  0  0  0  0  0  0
    9.4074  -16.8458   20.2293 C   0  0  0  0  0  0  0  0  0  0  0  0
   10.5460  -16.5551   20.7137 O   0  0  0  0  0  0  0  0  0  0  0  0
    9.1189  -21.9620   21.4468 O   0  0  0  0  0  0  0  0  0  0  0  0
    7.4774  -13.3019   19.7496 C   0  0  0  0  0  0  0  0  0  0  0  0
    7.4861  -13.7880   21.1735 C   0  0  2  0  0  0  0  0  0  0  0  0
    7.5878  -12.6341   22.1603 C   0  0  0  0  0  0  0  0  0  0  0  0
    8.4800  -14.8598   21.4625 C   0  0  2  0  0  0  0  0  0  0  0  0
    8.3327  -16.0218   20.5940 N   0  0  0  0  0  0  0  0  0  0  0  0
    8.3853  -15.3114   22.8921 C   0  0  0  0  0  0  0  0  0  0  0  0
    7.4628  -16.1043   23.2152 O   0  0  0  0  0  0  0  0  0  0  0  0
    9.3096  -14.8609   23.8657 N   0  0  0  0  0  0  0  0  0  0  0  0
    9.2157  -15.2419   25.2794 C   0  0  1  0  0  0  0  0  0  0  0  0
    7.8110  -15.3107   25.7359 C   0  0  0  0  0  0  0  0  0  0  0  0
    7.2335  -13.9591   25.9258 C   0  0  0  0  0  0  0  0  0  0  0  0
    7.9932  -12.7819   25.9422 C   0  0  0  0  0  0  0  0  0  0  0  0
    7.1623  -11.7508   26.1318 N   0  0  0  0  0  0  0  0  0  0  0  0
    5.9104  -12.2052   26.2379 C   0  0  0  0  0  0  0  0  0  0  0  0
    5.9767  -13.5350   26.1110 N   0  0  0  0  0  0  0  0  0  0  0  0
    9.8725  -16.5739   25.3870 C   0  0  0  0  0  0  0  0  0  0  0  0
    9.2814  -17.6347   25.1521 O   0  0  0  0  0  0  0  0  0  0  0  0
   11.2325  -16.6667   25.7744 O   0  0  0  0  0  0  0  0  0  0  0  0
  2  3  1  0
  2  1  1  1
  3  4  1  0
  5  4  1  0
  6  5  2  0
  7  2  1  0
  8  7  2  0
  9  5  1  0
 11 13  1  0
 11 10  1  6
 12 11  1  0
 13 14  1  6
 14  7  1  0
 15 13  1  0
 15 16  2  0
 17 15  1  0
 18 17  1  0
 18 19  1  6
 20 19  1  0
 21 20  2  0
 22 21  1  0
 23 22  1  0
 23 24  2  0
 24 20  1  0
 25 18  1  0
 26 25  2  0
 27 25  1  0
M  END
$$$$
