EVH.pdb
     RDKit          3D

 27 27  0  0  1  0  0  0  0  0999 V2000
   10.1750  -17.8564   17.2234 N   0  0  0  0  0  0  0  0  0  0  0  0
    9.0206  -17.6011   17.9762 C   0  0  1  0  0  0  0  0  0  0  0  0
    8.3410  -18.8130   18.4903 C   0  0  0  0  0  0  0  0  0  0  0  0
    9.2382  -19.9279   18.8360 C   0  0  0  0  0  0  0  0  0  0  0  0
    8.7418  -20.7653   19.9343 C   0  0  0  0  0  0  0  0  0  0  0  0
    7.9260  -21.6975   19.7492 O   0  0  0  0  0  0  0  0  0  0  0  0
    9.2113  -16.6534   19.1315 C   0  0  0  0  0  0  0  0  0  0  0  0
   10.3536  -16.6219   19.6881 O   0  0  0  0  0  0  0  0  0  0  0  0
    9.1882  -20.5284   21.2620 O   0  0  0  0  0  0  0  0  0  0  0  0
    7.6508  -12.8484   19.5903 C   0  0  0  0  0  0  0  0  0  0  0  0
    7.5535  -13.7342   20.8027 C   0  0  2  0  0  0  0  0  0  0  0  0
    7.6769  -12.9363   22.0925 C   0  0  0  0  0  0  0  0  0  0  0  0
    8.4601  -14.9165   20.7879 C   0  0  2  0  0  0  0  0  0  0  0  0
    8.2286  -15.7972   19.6490 N   0  0  0  0  0  0  0  0  0  0  0  0
    8.3228  -15.7167   22.0518 C   0  0  0  0  0  0  0  0  0  0  0  0
    7.3860  -16.5528   22.1386 O   0  0  0  0  0  0  0  0  0  0  0  0
    9.2232  -15.5428   23.1308 N   0  0  0  0  0  0  0  0  0  0  0  0
    9.1544  -16.3493   24.3545 C   0  0  1  0  0  0  0  0  0  0  0  0
    9.3947  -17.7822   24.0802 C   0  0  0  0  0  0  0  0  0  0  0  0
   10.7765  -18.0204   23.6002 C   0  0  0  0  0  0  0  0  0  0  0  0
   11.7447  -17.0145   23.4812 C   0  0  0  0  0  0  0  0  0  0  0  0
   12.8719  -17.5713   23.0239 N   0  0  0  0  0  0  0  0  0  0  0  0
   12.6769  -18.8807   22.8436 C   0  0  0  0  0  0  0  0  0  0  0  0
   11.4108  -19.1285   23.1963 N   0  0  0  0  0  0  0  0  0  0  0  0
   10.2000  -15.8022   25.2625 C   0  0  0  0  0  0  0  0  0  0  0  0
   11.0104  -14.9373   24.9089 O   0  0  0  0  0  0  0  0  0  0  0  0
   10.3000  -16.2718   26.5959 O   0  0  0  0  0  0  0  0  0  0  0  0
  2  3  1  0
  2  1  1  1
  3  4  1  0
  5  4  1  0
  6  5  2  0
  7  2  1  0
  8  7  2  0
  9  5  1  0
 11 13  1  0
 11 10  1  6
 12 11  1  0
 13 14  1  6
 14  7  1  0
 15 13  1  0
 15 16  2  0
 17 15  1  0
 18 17  1  0
 18 19  1  6
 20 19  1  0
 21 20  2  0
 22 21  1  0
 23 22  1  0
 23 24  2  0
 24 20  1  0
 25 18  1  0
 26 25  2  0
 27 25  1  0
M  END
$$$$
