EVH.pdb
     RDKit          3D

 27 27  0  0  1  0  0  0  0  0999 V2000
    9.1191  -15.5978   20.8208 N   0  0  0  0  0  0  0  0  0  0  0  0
    8.3853  -15.9892   21.9491 C   0  0  1  0  0  0  0  0  0  0  0  0
    8.3935  -17.4469   22.2130 C   0  0  0  0  0  0  0  0  0  0  0  0
    7.9408  -18.2834   21.0892 C   0  0  0  0  0  0  0  0  0  0  0  0
    8.9845  -18.5456   20.0915 C   0  0  0  0  0  0  0  0  0  0  0  0
    9.8689  -19.4163   20.2609 O   0  0  0  0  0  0  0  0  0  0  0  0
    8.7609  -15.2862   23.2273 C   0  0  0  0  0  0  0  0  0  0  0  0
    9.9943  -15.0635   23.4393 O   0  0  0  0  0  0  0  0  0  0  0  0
    9.0127  -17.7979   18.8839 O   0  0  0  0  0  0  0  0  0  0  0  0
    6.6859  -12.2821   25.1246 C   0  0  0  0  0  0  0  0  0  0  0  0
    7.2235  -13.3450   26.0440 C   0  0  2  0  0  0  0  0  0  0  0  0
    7.6482  -12.7651   27.3852 C   0  0  0  0  0  0  0  0  0  0  0  0
    8.2807  -14.2102   25.4492 C   0  0  2  0  0  0  0  0  0  0  0  0
    7.8591  -14.8540   24.2106 N   0  0  0  0  0  0  0  0  0  0  0  0
    8.7179  -15.2707   26.4191 C   0  0  0  0  0  0  0  0  0  0  0  0
    7.8905  -16.1559   26.7597 O   0  0  0  0  0  0  0  0  0  0  0  0
   10.0320  -15.2849   26.9464 N   0  0  0  0  0  0  0  0  0  0  0  0
   10.4827  -16.2887   27.9167 C   0  0  1  0  0  0  0  0  0  0  0  0
   11.9112  -16.6241   27.7342 C   0  0  0  0  0  0  0  0  0  0  0  0
   12.1362  -17.3846   26.4822 C   0  0  0  0  0  0  0  0  0  0  0  0
   11.1074  -17.7970   25.6249 C   0  0  0  0  0  0  0  0  0  0  0  0
   11.6577  -18.4532   24.5972 N   0  0  0  0  0  0  0  0  0  0  0  0
   12.9845  -18.4832   24.7507 C   0  0  0  0  0  0  0  0  0  0  0  0
   13.2499  -17.8350   25.8902 N   0  0  0  0  0  0  0  0  0  0  0  0
   10.2474  -15.6914   29.2602 C   0  0  0  0  0  0  0  0  0  0  0  0
    9.9509  -14.5017   29.4233 O   0  0  0  0  0  0  0  0  0  0  0  0
   10.3613  -16.4921   30.4239 O   0  0  0  0  0  0  0  0  0  0  0  0
  2  3  1  0
  2  1  1  6
  3  4  1  0
  5  4  1  0
  6  5  2  0
  7  2  1  0
  8  7  2  0
  9  5  1  0
 11 13  1  0
 11 10  1  6
 12 11  1  0
 13 14  1  6
 14  7  1  0
 15 13  1  0
 15 16  2  0
 17 15  1  0
 18 17  1  0
 18 19  1  6
 20 19  1  0
 21 20  2  0
 22 21  1  0
 23 22  1  0
 23 24  2  0
 24 20  1  0
 25 18  1  0
 26 25  2  0
 27 25  1  0
M  END
$$$$
