EVH.pdb
     RDKit          3D

 27 27  0  0  1  0  0  0  0  0999 V2000
    9.4035  -19.9784   16.4661 N   0  0  0  0  0  0  0  0  0  0  0  0
   10.1105  -19.8393   17.6683 C   0  0  1  0  0  0  0  0  0  0  0  0
   11.2928  -18.9504   17.5872 C   0  0  0  0  0  0  0  0  0  0  0  0
   12.3080  -19.3565   16.6013 C   0  0  0  0  0  0  0  0  0  0  0  0
   13.5093  -18.5138   16.6106 C   0  0  0  0  0  0  0  0  0  0  0  0
   14.6015  -18.9102   17.0784 O   0  0  0  0  0  0  0  0  0  0  0  0
    9.2814  -19.3988   18.8464 C   0  0  0  0  0  0  0  0  0  0  0  0
    8.2471  -18.6980   18.6126 O   0  0  0  0  0  0  0  0  0  0  0  0
   13.4551  -17.1987   16.0759 O   0  0  0  0  0  0  0  0  0  0  0  0
    7.5378  -21.5488   21.4716 C   0  0  0  0  0  0  0  0  0  0  0  0
    8.2987  -20.4499   22.1626 C   0  0  2  0  0  0  0  0  0  0  0  0
    7.5923  -19.9881   23.4288 C   0  0  0  0  0  0  0  0  0  0  0  0
    8.6799  -19.3065   21.2866 C   0  0  2  0  0  0  0  0  0  0  0  0
    9.5561  -19.6981   20.1887 N   0  0  0  0  0  0  0  0  0  0  0  0
    9.3541  -18.2225   22.0783 C   0  0  0  0  0  0  0  0  0  0  0  0
   10.5614  -18.3721   22.4011 O   0  0  0  0  0  0  0  0  0  0  0  0
    8.6558  -17.0511   22.4596 N   0  0  0  0  0  0  0  0  0  0  0  0
    9.2847  -15.9727   23.2304 C   0  0  1  0  0  0  0  0  0  0  0  0
    8.5307  -14.7059   23.1155 C   0  0  0  0  0  0  0  0  0  0  0  0
    8.6117  -14.1465   21.7454 C   0  0  0  0  0  0  0  0  0  0  0  0
    9.4323  -14.6692   20.7371 C   0  0  0  0  0  0  0  0  0  0  0  0
    9.2613  -13.9312   19.6345 N   0  0  0  0  0  0  0  0  0  0  0  0
    8.3746  -12.9633   19.8831 C   0  0  0  0  0  0  0  0  0  0  0  0
    7.9973  -13.1118   21.1577 N   0  0  0  0  0  0  0  0  0  0  0  0
    9.3139  -16.4443   24.6424 C   0  0  0  0  0  0  0  0  0  0  0  0
    8.6046  -17.3694   25.0558 O   0  0  0  0  0  0  0  0  0  0  0  0
   10.1791  -15.8276   25.5801 O   0  0  0  0  0  0  0  0  0  0  0  0
  2  3  1  0
  2  1  1  6
  3  4  1  0
  5  4  1  0
  6  5  2  0
  7  2  1  0
  8  7  2  0
  9  5  1  0
 11 13  1  0
 11 10  1  6
 12 11  1  0
 13 14  1  6
 14  7  1  0
 15 13  1  0
 15 16  2  0
 17 15  1  0
 18 17  1  0
 18 19  1  1
 20 19  1  0
 21 20  2  0
 22 21  1  0
 23 22  1  0
 23 24  2  0
 24 20  1  0
 25 18  1  0
 26 25  2  0
 27 25  1  0
M  END
$$$$
