EVH.pdb
     RDKit          3D

 27 27  0  0  1  0  0  0  0  0999 V2000
    9.1822  -17.1873   16.4321 N   0  0  0  0  0  0  0  0  0  0  0  0
    8.3312  -17.2429   17.5445 C   0  0  1  0  0  0  0  0  0  0  0  0
    7.9348  -18.6121   17.9478 C   0  0  0  0  0  0  0  0  0  0  0  0
    9.0538  -19.5094   18.2802 C   0  0  0  0  0  0  0  0  0  0  0  0
    8.6329  -20.8687   18.6391 C   0  0  0  0  0  0  0  0  0  0  0  0
    7.7494  -21.0909   19.4987 O   0  0  0  0  0  0  0  0  0  0  0  0
    8.8390  -16.5291   18.7700 C   0  0  0  0  0  0  0  0  0  0  0  0
    9.9860  -16.8539   19.2108 O   0  0  0  0  0  0  0  0  0  0  0  0
    9.2350  -21.9869   18.0025 O   0  0  0  0  0  0  0  0  0  0  0  0
    6.5103  -13.8697   21.4392 C   0  0  0  0  0  0  0  0  0  0  0  0
    7.9377  -13.6362   21.0243 C   0  0  2  0  0  0  0  0  0  0  0  0
    8.0427  -12.5577   19.9559 C   0  0  0  0  0  0  0  0  0  0  0  0
    8.6901  -14.8671   20.6517 C   0  0  2  0  0  0  0  0  0  0  0  0
    8.1485  -15.5298   19.4711 N   0  0  0  0  0  0  0  0  0  0  0  0
    8.7130  -15.8494   21.7880 C   0  0  0  0  0  0  0  0  0  0  0  0
    7.7668  -16.6727   21.8939 O   0  0  0  0  0  0  0  0  0  0  0  0
    9.7724  -15.8588   22.7274 N   0  0  0  0  0  0  0  0  0  0  0  0
    9.8066  -16.7786   23.8699 C   0  0  1  0  0  0  0  0  0  0  0  0
   10.5031  -18.0397   23.5370 C   0  0  0  0  0  0  0  0  0  0  0  0
   11.8696  -17.7873   23.0218 C   0  0  0  0  0  0  0  0  0  0  0  0
   12.2228  -17.8820   21.6691 C   0  0  0  0  0  0  0  0  0  0  0  0
   13.5235  -17.5910   21.5554 N   0  0  0  0  0  0  0  0  0  0  0  0
   14.0224  -17.3148   22.7636 C   0  0  0  0  0  0  0  0  0  0  0  0
   13.0109  -17.4388   23.6298 N   0  0  0  0  0  0  0  0  0  0  0  0
   10.5192  -16.0521   24.9569 C   0  0  0  0  0  0  0  0  0  0  0  0
   11.0774  -14.9624   24.7821 O   0  0  0  0  0  0  0  0  0  0  0  0
   10.5810  -16.6057   26.2600 O   0  0  0  0  0  0  0  0  0  0  0  0
  2  3  1  0
  2  1  1  6
  3  4  1  0
  5  4  1  0
  6  5  2  0
  7  2  1  0
  8  7  2  0
  9  5  1  0
 11 13  1  0
 11 10  1  6
 12 11  1  0
 13 14  1  6
 14  7  1  0
 15 13  1  0
 15 16  2  0
 17 15  1  0
 18 17  1  0
 18 19  1  6
 20 19  1  0
 21 20  2  0
 22 21  1  0
 23 22  1  0
 23 24  2  0
 24 20  1  0
 25 18  1  0
 26 25  2  0
 27 25  1  0
M  END
$$$$
