EVH.pdb
     RDKit          3D

 27 27  0  0  1  0  0  0  0  0999 V2000
   10.4952  -16.7906   17.7784 N   0  0  0  0  0  0  0  0  0  0  0  0
    9.9747  -17.4377   18.9075 C   0  0  1  0  0  0  0  0  0  0  0  0
   10.6132  -18.7374   19.2206 C   0  0  0  0  0  0  0  0  0  0  0  0
   10.5901  -19.7199   18.1244 C   0  0  0  0  0  0  0  0  0  0  0  0
   11.7087  -20.6692   18.1599 C   0  0  0  0  0  0  0  0  0  0  0  0
   11.6784  -21.7139   18.8502 O   0  0  0  0  0  0  0  0  0  0  0  0
    9.9673  -16.6115   20.1671 C   0  0  0  0  0  0  0  0  0  0  0  0
   11.0413  -16.0117   20.4873 O   0  0  0  0  0  0  0  0  0  0  0  0
   12.8770  -20.4148   17.3928 O   0  0  0  0  0  0  0  0  0  0  0  0
    7.3837  -13.8630   21.2345 C   0  0  0  0  0  0  0  0  0  0  0  0
    7.6875  -14.7791   22.3889 C   0  0  2  0  0  0  0  0  0  0  0  0
    7.6863  -14.0317   23.7143 C   0  0  0  0  0  0  0  0  0  0  0  0
    8.9093  -15.6148   22.2195 C   0  0  2  0  0  0  0  0  0  0  0  0
    8.8684  -16.4470   21.0228 N   0  0  0  0  0  0  0  0  0  0  0  0
    9.1273  -16.4990   23.4142 C   0  0  0  0  0  0  0  0  0  0  0  0
    8.2194  -17.3068   23.7416 O   0  0  0  0  0  0  0  0  0  0  0  0
   10.3262  -16.4341   24.1650 N   0  0  0  0  0  0  0  0  0  0  0  0
   10.5788  -17.2956   25.3253 C   0  0  1  0  0  0  0  0  0  0  0  0
   12.0260  -17.4858   25.5615 C   0  0  0  0  0  0  0  0  0  0  0  0
   12.6737  -18.1930   24.4316 C   0  0  0  0  0  0  0  0  0  0  0  0
   12.0854  -19.2599   23.7394 C   0  0  0  0  0  0  0  0  0  0  0  0
   12.9351  -19.6591   22.7864 N   0  0  0  0  0  0  0  0  0  0  0  0
   14.0366  -18.9045   22.8314 C   0  0  0  0  0  0  0  0  0  0  0  0
   13.8578  -18.0300   23.8274 N   0  0  0  0  0  0  0  0  0  0  0  0
    9.9388  -16.6154   26.4850 C   0  0  0  0  0  0  0  0  0  0  0  0
    9.4338  -15.4890   26.4074 O   0  0  0  0  0  0  0  0  0  0  0  0
    9.8902  -17.2574   27.7475 O   0  0  0  0  0  0  0  0  0  0  0  0
  2  3  1  0
  2  1  1  6
  3  4  1  0
  5  4  1  0
  6  5  2  0
  7  2  1  0
  8  7  2  0
  9  5  1  0
 11 13  1  0
 11 10  1  6
 12 11  1  0
 13 14  1  6
 14  7  1  0
 15 13  1  0
 15 16  2  0
 17 15  1  0
 18 17  1  0
 18 19  1  1
 20 19  1  0
 21 20  2  0
 22 21  1  0
 23 22  1  0
 23 24  2  0
 24 20  1  0
 25 18  1  0
 26 25  2  0
 27 25  1  0
M  END
$$$$
