EVH.pdb
     RDKit          3D

 27 27  0  0  1  0  0  0  0  0999 V2000
    9.0435  -15.1861   14.4886 N   0  0  0  0  0  0  0  0  0  0  0  0
    8.7963  -15.8078   15.7203 C   0  0  1  0  0  0  0  0  0  0  0  0
    9.2263  -17.2237   15.7918 C   0  0  0  0  0  0  0  0  0  0  0  0
   10.6806  -17.4356   15.7040 C   0  0  0  0  0  0  0  0  0  0  0  0
   11.0686  -18.8502   15.6598 C   0  0  0  0  0  0  0  0  0  0  0  0
   11.0729  -19.5102   14.5953 O   0  0  0  0  0  0  0  0  0  0  0  0
    9.3622  -15.0921   16.9189 C   0  0  0  0  0  0  0  0  0  0  0  0
   10.5207  -14.5807   16.8098 O   0  0  0  0  0  0  0  0  0  0  0  0
   11.4563  -19.5151   16.8539 O   0  0  0  0  0  0  0  0  0  0  0  0
    7.2233  -14.2738   20.7091 C   0  0  0  0  0  0  0  0  0  0  0  0
    8.2886  -13.4387   20.0519 C   0  0  2  0  0  0  0  0  0  0  0  0
    7.6884  -12.3016   19.2381 C   0  0  0  0  0  0  0  0  0  0  0  0
    9.2974  -14.2111   19.2736 C   0  0  2  0  0  0  0  0  0  0  0  0
    8.7150  -14.9415   18.1539 N   0  0  0  0  0  0  0  0  0  0  0  0
   10.0290  -15.1831   20.1549 C   0  0  0  0  0  0  0  0  0  0  0  0
    9.6427  -16.3806   20.1845 O   0  0  0  0  0  0  0  0  0  0  0  0
   11.1327  -14.7722   20.9411 N   0  0  0  0  0  0  0  0  0  0  0  0
   11.8569  -15.6908   21.8267 C   0  0  1  0  0  0  0  0  0  0  0  0
   13.1935  -15.1683   22.1829 C   0  0  0  0  0  0  0  0  0  0  0  0
   14.1234  -15.2207   21.0301 C   0  0  0  0  0  0  0  0  0  0  0  0
   13.9027  -15.9976   19.8850 C   0  0  0  0  0  0  0  0  0  0  0  0
   14.9299  -15.8105   19.0486 N   0  0  0  0  0  0  0  0  0  0  0  0
   15.7970  -14.9549   19.5973 C   0  0  0  0  0  0  0  0  0  0  0  0
   15.2921  -14.6133   20.7878 N   0  0  0  0  0  0  0  0  0  0  0  0
   11.0075  -15.8414   23.0404 C   0  0  0  0  0  0  0  0  0  0  0  0
   10.0529  -15.0950   23.2885 O   0  0  0  0  0  0  0  0  0  0  0  0
   11.2776  -16.8733   23.9734 O   0  0  0  0  0  0  0  0  0  0  0  0
  2  3  1  0
  2  1  1  6
  3  4  1  0
  5  4  1  0
  6  5  2  0
  7  2  1  0
  8  7  2  0
  9  5  1  0
 11 13  1  0
 11 10  1  6
 12 11  1  0
 13 14  1  6
 14  7  1  0
 15 13  1  0
 15 16  2  0
 17 15  1  0
 18 17  1  0
 18 19  1  1
 20 19  1  0
 21 20  2  0
 22 21  1  0
 23 22  1  0
 23 24  2  0
 24 20  1  0
 25 18  1  0
 26 25  2  0
 27 25  1  0
M  END
$$$$
