EVH.pdb
     RDKit          3D

 27 27  0  0  1  0  0  0  0  0999 V2000
   12.3962  -14.6323   15.9230 N   0  0  0  0  0  0  0  0  0  0  0  0
   11.2214  -15.2502   16.3730 C   0  0  1  0  0  0  0  0  0  0  0  0
   11.2047  -16.7238   16.2220 C   0  0  0  0  0  0  0  0  0  0  0  0
   12.4815  -17.3927   16.5219 C   0  0  0  0  0  0  0  0  0  0  0  0
   12.4493  -18.8450   16.3141 C   0  0  0  0  0  0  0  0  0  0  0  0
   13.3173  -19.6094   16.7949 O   0  0  0  0  0  0  0  0  0  0  0  0
   10.8366  -14.9270   17.7931 C   0  0  0  0  0  0  0  0  0  0  0  0
   11.6947  -15.1505   18.7038 O   0  0  0  0  0  0  0  0  0  0  0  0
   11.4069  -19.4266   15.5438 O   0  0  0  0  0  0  0  0  0  0  0  0
    7.7015  -12.2942   18.9274 C   0  0  0  0  0  0  0  0  0  0  0  0
    7.9238  -13.5231   19.7668 C   0  0  2  0  0  0  0  0  0  0  0  0
    7.5951  -13.2701   21.2308 C   0  0  0  0  0  0  0  0  0  0  0  0
    9.2580  -14.1641   19.5962 C   0  0  2  0  0  0  0  0  0  0  0  0
    9.6031  -14.3971   18.1987 N   0  0  0  0  0  0  0  0  0  0  0  0
    9.3263  -15.4708   20.3340 C   0  0  0  0  0  0  0  0  0  0  0  0
    8.9292  -16.5142   19.7527 O   0  0  0  0  0  0  0  0  0  0  0  0
    9.8256  -15.5401   21.6573 N   0  0  0  0  0  0  0  0  0  0  0  0
   11.0749  -16.2316   21.9946 C   0  0  1  0  0  0  0  0  0  0  0  0
   12.2242  -15.6839   21.2427 C   0  0  0  0  0  0  0  0  0  0  0  0
   13.4707  -16.4312   21.5331 C   0  0  0  0  0  0  0  0  0  0  0  0
   13.5267  -17.8223   21.6918 C   0  0  0  0  0  0  0  0  0  0  0  0
   14.7959  -18.1637   21.9412 N   0  0  0  0  0  0  0  0  0  0  0  0
   15.5559  -17.0650   21.9508 C   0  0  0  0  0  0  0  0  0  0  0  0
   14.7388  -16.0355   21.7032 N   0  0  0  0  0  0  0  0  0  0  0  0
   11.2628  -16.0422   23.4595 C   0  0  0  0  0  0  0  0  0  0  0  0
   12.1728  -16.5873   24.0955 O   0  0  0  0  0  0  0  0  0  0  0  0
   10.3776  -15.2090   24.1878 O   0  0  0  0  0  0  0  0  0  0  0  0
  2  3  1  0
  2  1  1  1
  3  4  1  0
  5  4  1  0
  6  5  2  0
  7  2  1  0
  8  7  2  0
  9  5  1  0
 11 13  1  0
 11 10  1  6
 12 11  1  0
 13 14  1  6
 14  7  1  0
 15 13  1  0
 15 16  2  0
 17 15  1  0
 18 17  1  0
 18 19  1  6
 20 19  1  0
 21 20  2  0
 22 21  1  0
 23 22  1  0
 23 24  2  0
 24 20  1  0
 25 18  1  0
 26 25  2  0
 27 25  1  0
M  END
$$$$
