MGG.pdb
     RDKit          3D

 17 16  0  0  1  0  0  0  0  0999 V2000
   28.7171  -19.3926   -3.9133 C   0  0  0  0  0  0  0  0  0  0  0  0
   28.3792  -19.0597   -5.6668 S   0  0  0  0  0  0  0  0  0  0  0  0
   26.9320  -20.0059   -6.2047 C   0  0  0  0  0  0  0  0  0  0  0  0
   26.6565  -19.7282   -7.6548 C   0  0  0  0  0  0  0  0  0  0  0  0
   26.8978  -20.9420   -8.5255 C   0  0  2  0  0  0  0  0  0  0  0  0
   28.2034  -21.5080   -8.3263 N   0  0  0  0  0  0  0  0  0  0  0  0
   26.6900  -20.6354   -9.9617 C   0  0  0  0  0  0  0  0  0  0  0  0
   27.6491  -20.0848  -10.5811 O   0  0  0  0  0  0  0  0  0  0  0  0
   25.4778  -20.9367  -10.6341 N   0  0  0  0  0  0  0  0  0  0  0  0
   25.3289  -20.4878  -11.9857 C   0  0  0  0  0  0  0  0  0  0  0  0
   24.0308  -20.7858  -12.6045 C   0  0  0  0  0  0  0  0  0  0  0  0
   23.8681  -20.3826  -13.8070 O   0  0  0  0  0  0  0  0  0  0  0  0
   22.9573  -21.4641  -12.0136 N   0  0  0  0  0  0  0  0  0  0  0  0
   21.6731  -21.6554  -12.6766 C   0  0  0  0  0  0  0  0  0  0  0  0
   20.7461  -20.6107  -12.1871 C   0  0  0  0  0  0  0  0  0  0  0  0
   21.1828  -19.4594  -11.9736 O   0  0  0  0  0  0  0  0  0  0  0  0
   19.3933  -20.8984  -11.9627 O   0  0  0  0  0  0  0  0  0  0  0  0
  1  2  1  0
  2  3  1  0
  4  3  1  0
  5  4  1  0
  5  6  1  6
  7  9  1  0
  7  5  1  0
  8  7  2  0
 10 11  1  0
 10  9  1  0
 11 13  1  0
 12 11  2  0
 13 14  1  0
 14 15  1  0
 15 16  2  0
 15 17  1  0
M  END
$$$$
