MGG.pdb
     RDKit          3D

 17 16  0  0  1  0  0  0  0  0999 V2000
   21.8159  -15.0809  -21.0894 C   0  0  0  0  0  0  0  0  0  0  0  0
   21.4453  -14.5419  -19.3946 S   0  0  0  0  0  0  0  0  0  0  0  0
   21.9134  -12.8052  -19.1853 C   0  0  0  0  0  0  0  0  0  0  0  0
   21.5751  -12.3544  -17.7931 C   0  0  0  0  0  0  0  0  0  0  0  0
   21.9704  -10.9149  -17.5462 C   0  0  2  0  0  0  0  0  0  0  0  0
   23.3927  -10.7508  -17.4241 N   0  0  0  0  0  0  0  0  0  0  0  0
   21.2896  -10.3575  -16.3522 C   0  0  0  0  0  0  0  0  0  0  0  0
   20.0224  -10.3333  -16.3664 O   0  0  0  0  0  0  0  0  0  0  0  0
   22.0061   -9.8665  -15.2305 N   0  0  0  0  0  0  0  0  0  0  0  0
   21.2594   -9.2692  -14.1645 C   0  0  0  0  0  0  0  0  0  0  0  0
   21.0929   -7.8130  -14.2567 C   0  0  0  0  0  0  0  0  0  0  0  0
   20.3702   -7.2650  -13.3554 O   0  0  0  0  0  0  0  0  0  0  0  0
   21.6433   -6.9669  -15.2278 N   0  0  0  0  0  0  0  0  0  0  0  0
   21.4190   -5.5265  -15.2497 C   0  0  0  0  0  0  0  0  0  0  0  0
   22.2640   -4.9166  -14.1988 C   0  0  0  0  0  0  0  0  0  0  0  0
   22.3067   -3.6718  -14.0969 O   0  0  0  0  0  0  0  0  0  0  0  0
   23.0110   -5.7160  -13.3236 O   0  0  0  0  0  0  0  0  0  0  0  0
  1  2  1  0
  2  3  1  0
  4  3  1  0
  5  4  1  0
  5  6  1  1
  7  9  1  0
  7  5  1  0
  8  7  2  0
 10 11  1  0
 10  9  1  0
 11 13  1  0
 12 11  2  0
 13 14  1  0
 14 15  1  0
 15 16  2  0
 15 17  1  0
M  END
$$$$
