MGG.pdb
     RDKit          3D

 17 16  0  0  1  0  0  0  0  0999 V2000
   20.5690  -20.1901    7.4017 C   0  0  0  0  0  0  0  0  0  0  0  0
   20.6593  -18.4947    6.7554 S   0  0  0  0  0  0  0  0  0  0  0  0
   19.0719  -17.6582    6.9993 C   0  0  0  0  0  0  0  0  0  0  0  0
   19.1761  -16.2319    6.5404 C   0  0  0  0  0  0  0  0  0  0  0  0
   17.8426  -15.5181    6.5845 C   0  0  2  0  0  0  0  0  0  0  0  0
   17.0079  -15.8472    5.4622 N   0  0  0  0  0  0  0  0  0  0  0  0
   18.0118  -14.0477    6.6788 C   0  0  0  0  0  0  0  0  0  0  0  0
   17.6277  -13.4878    7.7493 O   0  0  0  0  0  0  0  0  0  0  0  0
   18.5769  -13.2801    5.6281 N   0  0  0  0  0  0  0  0  0  0  0  0
   18.8338  -11.8925    5.8719 C   0  0  0  0  0  0  0  0  0  0  0  0
   20.1978  -11.5774    6.3155 C   0  0  0  0  0  0  0  0  0  0  0  0
   20.9370  -12.5717    6.6316 O   0  0  0  0  0  0  0  0  0  0  0  0
   20.7689  -10.3033    6.4271 N   0  0  0  0  0  0  0  0  0  0  0  0
   22.1497  -10.0819    6.8389 C   0  0  0  0  0  0  0  0  0  0  0  0
   22.1741   -9.9704    8.3145 C   0  0  0  0  0  0  0  0  0  0  0  0
   21.1494  -10.2665    8.9654 O   0  0  0  0  0  0  0  0  0  0  0  0
   23.3273   -9.5390    8.9834 O   0  0  0  0  0  0  0  0  0  0  0  0
  1  2  1  0
  2  3  1  0
  4  3  1  0
  5  4  1  0
  5  6  1  6
  7  9  1  0
  7  5  1  0
  8  7  2  0
 10 11  1  0
 10  9  1  0
 11 13  1  0
 12 11  2  0
 13 14  1  0
 14 15  1  0
 15 16  2  0
 15 17  1  0
M  END
$$$$
