MGG.pdb
     RDKit          3D

 17 16  0  0  1  0  0  0  0  0999 V2000
   28.7797  -18.3670   -4.1042 C   0  0  0  0  0  0  0  0  0  0  0  0
   28.0994  -18.6841   -5.7585 S   0  0  0  0  0  0  0  0  0  0  0  0
   27.8727  -20.4645   -5.9993 C   0  0  0  0  0  0  0  0  0  0  0  0
   27.5622  -20.7442   -7.4419 C   0  0  0  0  0  0  0  0  0  0  0  0
   26.1589  -20.3208   -7.8174 C   0  0  2  0  0  0  0  0  0  0  0  0
   25.2034  -20.6157   -6.7856 N   0  0  0  0  0  0  0  0  0  0  0  0
   25.7279  -20.9302   -9.0991 C   0  0  0  0  0  0  0  0  0  0  0  0
   25.0522  -22.0007   -9.0333 O   0  0  0  0  0  0  0  0  0  0  0  0
   26.0467  -20.3568  -10.3569 N   0  0  0  0  0  0  0  0  0  0  0  0
   25.1839  -20.6413  -11.4638 C   0  0  0  0  0  0  0  0  0  0  0  0
   25.6106  -20.0769  -12.7507 C   0  0  0  0  0  0  0  0  0  0  0  0
   25.0995  -18.9506  -13.0752 O   0  0  0  0  0  0  0  0  0  0  0  0
   26.5170  -20.6447  -13.6551 N   0  0  0  0  0  0  0  0  0  0  0  0
   27.2227  -19.8703  -14.6687 C   0  0  0  0  0  0  0  0  0  0  0  0
   28.1280  -20.7875  -15.3964 C   0  0  0  0  0  0  0  0  0  0  0  0
   28.6517  -21.7417  -14.7824 O   0  0  0  0  0  0  0  0  0  0  0  0
   28.4011  -20.5974  -16.7575 O   0  0  0  0  0  0  0  0  0  0  0  0
  1  2  1  0
  2  3  1  0
  4  3  1  0
  5  4  1  0
  5  6  1  1
  7  9  1  0
  7  5  1  0
  8  7  2  0
 10 11  1  0
 10  9  1  0
 11 13  1  0
 12 11  2  0
 13 14  1  0
 14 15  1  0
 15 16  2  0
 15 17  1  0
M  END
$$$$
