MGG.pdb
     RDKit          3D

 17 16  0  0  1  0  0  0  0  0999 V2000
   12.0301  -25.7709   -3.1951 C   0  0  0  0  0  0  0  0  0  0  0  0
   12.1426  -24.0217   -2.7183 S   0  0  0  0  0  0  0  0  0  0  0  0
   13.1556  -23.1208   -3.9188 C   0  0  0  0  0  0  0  0  0  0  0  0
   14.2902  -23.9914   -4.3776 C   0  0  0  0  0  0  0  0  0  0  0  0
   15.0947  -23.3460   -5.4849 C   0  0  2  0  0  0  0  0  0  0  0  0
   14.2986  -23.0643   -6.6474 N   0  0  0  0  0  0  0  0  0  0  0  0
   16.2691  -24.1705   -5.8601 C   0  0  0  0  0  0  0  0  0  0  0  0
   16.8689  -23.8688   -6.9353 O   0  0  0  0  0  0  0  0  0  0  0  0
   16.7197  -25.2554   -5.0648 N   0  0  0  0  0  0  0  0  0  0  0  0
   17.9233  -25.0806   -4.3088 C   0  0  0  0  0  0  0  0  0  0  0  0
   18.3337  -26.2418   -3.5089 C   0  0  0  0  0  0  0  0  0  0  0  0
   19.3972  -26.1053   -2.8122 O   0  0  0  0  0  0  0  0  0  0  0  0
   17.6812  -27.4788   -3.4320 N   0  0  0  0  0  0  0  0  0  0  0  0
   18.3891  -28.7475   -3.3119 C   0  0  0  0  0  0  0  0  0  0  0  0
   18.5174  -29.0647   -1.8721 C   0  0  0  0  0  0  0  0  0  0  0  0
   17.9205  -28.3537   -1.0355 O   0  0  0  0  0  0  0  0  0  0  0  0
   19.2962  -30.1469   -1.4413 O   0  0  0  0  0  0  0  0  0  0  0  0
  1  2  1  0
  2  3  1  0
  4  3  1  0
  5  4  1  0
  5  6  1  6
  7  9  1  0
  7  5  1  0
  8  7  2  0
 10 11  1  0
 10  9  1  0
 11 13  1  0
 12 11  2  0
 13 14  1  0
 14 15  1  0
 15 16  2  0
 15 17  1  0
M  END
$$$$
