MGG.pdb
     RDKit          3D

 17 16  0  0  1  0  0  0  0  0999 V2000
   23.2864  -33.1425  -11.0593 C   0  0  0  0  0  0  0  0  0  0  0  0
   24.1222  -32.3756   -9.6403 S   0  0  0  0  0  0  0  0  0  0  0  0
   25.7699  -33.0975   -9.4333 C   0  0  0  0  0  0  0  0  0  0  0  0
   26.4433  -32.4864   -8.2379 C   0  0  0  0  0  0  0  0  0  0  0  0
   26.7635  -33.5141   -7.1745 C   0  0  2  0  0  0  0  0  0  0  0  0
   26.1655  -33.1954   -5.9073 N   0  0  0  0  0  0  0  0  0  0  0  0
   28.2264  -33.6987   -7.0145 C   0  0  0  0  0  0  0  0  0  0  0  0
   28.8720  -34.1116   -8.0242 O   0  0  0  0  0  0  0  0  0  0  0  0
   28.8958  -33.4307   -5.7928 N   0  0  0  0  0  0  0  0  0  0  0  0
   30.2431  -33.8942   -5.6485 C   0  0  0  0  0  0  0  0  0  0  0  0
   30.4759  -34.7967   -4.5136 C   0  0  0  0  0  0  0  0  0  0  0  0
   31.6963  -35.0597   -4.2372 O   0  0  0  0  0  0  0  0  0  0  0  0
   29.5007  -35.3963   -3.7065 N   0  0  0  0  0  0  0  0  0  0  0  0
   29.8055  -36.0462   -2.4376 C   0  0  0  0  0  0  0  0  0  0  0  0
   28.8748  -35.5148   -1.4170 C   0  0  0  0  0  0  0  0  0  0  0  0
   28.1534  -34.5347   -1.7009 O   0  0  0  0  0  0  0  0  0  0  0  0
   28.7956  -36.0963   -0.1446 O   0  0  0  0  0  0  0  0  0  0  0  0
  1  2  1  0
  2  3  1  0
  4  3  1  0
  5  4  1  0
  5  6  1  1
  7  9  1  0
  7  5  1  0
  8  7  2  0
 10 11  1  0
 10  9  1  0
 11 13  1  0
 12 11  2  0
 13 14  1  0
 14 15  1  0
 15 16  2  0
 15 17  1  0
M  END
$$$$
