MGG.pdb
     RDKit          3D

 17 16  0  0  1  0  0  0  0  0999 V2000
   27.5382  -18.1279  -20.1093 C   0  0  0  0  0  0  0  0  0  0  0  0
   27.5429  -19.4131  -18.8255 S   0  0  0  0  0  0  0  0  0  0  0  0
   26.9413  -18.7238  -17.2628 C   0  0  0  0  0  0  0  0  0  0  0  0
   27.0538  -19.7563  -16.1779 C   0  0  0  0  0  0  0  0  0  0  0  0
   26.4819  -19.2701  -14.8641 C   0  0  2  0  0  0  0  0  0  0  0  0
   27.0480  -18.0156  -14.4512 N   0  0  0  0  0  0  0  0  0  0  0  0
   26.6440  -20.2795  -13.7896 C   0  0  0  0  0  0  0  0  0  0  0  0
   26.1668  -21.4343  -14.0029 O   0  0  0  0  0  0  0  0  0  0  0  0
   27.3015  -19.9872  -12.5670 N   0  0  0  0  0  0  0  0  0  0  0  0
   27.3199  -20.9997  -11.5545 C   0  0  0  0  0  0  0  0  0  0  0  0
   26.1492  -21.0192  -10.6680 C   0  0  0  0  0  0  0  0  0  0  0  0
   26.1332  -21.9263   -9.7669 O   0  0  0  0  0  0  0  0  0  0  0  0
   25.0529  -20.1485  -10.7091 N   0  0  0  0  0  0  0  0  0  0  0  0
   23.8236  -20.3785   -9.9599 C   0  0  0  0  0  0  0  0  0  0  0  0
   22.7510  -20.6971  -10.9286 C   0  0  0  0  0  0  0  0  0  0  0  0
   23.0603  -21.0425  -12.0891 O   0  0  0  0  0  0  0  0  0  0  0  0
   21.4018  -20.6156  -10.5592 O   0  0  0  0  0  0  0  0  0  0  0  0
  1  2  1  0
  2  3  1  0
  4  3  1  0
  5  4  1  0
  5  6  1  1
  7  9  1  0
  7  5  1  0
  8  7  2  0
 10 11  1  0
 10  9  1  0
 11 13  1  0
 12 11  2  0
 13 14  1  0
 14 15  1  0
 15 16  2  0
 15 17  1  0
M  END
$$$$
