MGG.pdb
     RDKit          3D

 17 16  0  0  1  0  0  0  0  0999 V2000
   30.0690  -19.1408   -5.1272 C   0  0  0  0  0  0  0  0  0  0  0  0
   28.5706  -19.6855   -4.2566 S   0  0  0  0  0  0  0  0  0  0  0  0
   27.1651  -19.6957   -5.3983 C   0  0  0  0  0  0  0  0  0  0  0  0
   27.6140  -20.1759   -6.7488 C   0  0  0  0  0  0  0  0  0  0  0  0
   26.5023  -20.1212   -7.7738 C   0  0  2  0  0  0  0  0  0  0  0  0
   25.3206  -20.8125   -7.3375 N   0  0  0  0  0  0  0  0  0  0  0  0
   26.9435  -20.6477   -9.0883 C   0  0  0  0  0  0  0  0  0  0  0  0
   28.0878  -21.1904   -9.1405 O   0  0  0  0  0  0  0  0  0  0  0  0
   26.1357  -20.5586  -10.2511 N   0  0  0  0  0  0  0  0  0  0  0  0
   26.6965  -20.9946  -11.4946 C   0  0  0  0  0  0  0  0  0  0  0  0
   25.8281  -20.8238  -12.6665 C   0  0  0  0  0  0  0  0  0  0  0  0
   26.2758  -21.2737  -13.7765 O   0  0  0  0  0  0  0  0  0  0  0  0
   24.5643  -20.2205  -12.6916 N   0  0  0  0  0  0  0  0  0  0  0  0
   23.7366  -20.1535  -13.8899 C   0  0  0  0  0  0  0  0  0  0  0  0
   22.6307  -21.1250  -13.7362 C   0  0  0  0  0  0  0  0  0  0  0  0
   22.8897  -22.3475  -13.7277 O   0  0  0  0  0  0  0  0  0  0  0  0
   21.3057  -20.6898  -13.6012 O   0  0  0  0  0  0  0  0  0  0  0  0
  1  2  1  0
  2  3  1  0
  4  3  1  0
  5  4  1  0
  5  6  1  1
  7  9  1  0
  7  5  1  0
  8  7  2  0
 10 11  1  0
 10  9  1  0
 11 13  1  0
 12 11  2  0
 13 14  1  0
 14 15  1  0
 15 16  2  0
 15 17  1  0
M  END
$$$$
