MGG.pdb
     RDKit          3D

 17 16  0  0  1  0  0  0  0  0999 V2000
   26.8434  -16.2734  -15.0019 C   0  0  0  0  0  0  0  0  0  0  0  0
   25.2552  -15.4029  -15.1419 S   0  0  0  0  0  0  0  0  0  0  0  0
   25.4629  -13.8993  -16.1293 C   0  0  0  0  0  0  0  0  0  0  0  0
   24.1524  -13.1717  -16.2245 C   0  0  0  0  0  0  0  0  0  0  0  0
   24.2646  -11.8943  -17.0278 C   0  0  2  0  0  0  0  0  0  0  0  0
   25.3368  -11.0532  -16.5721 N   0  0  0  0  0  0  0  0  0  0  0  0
   22.9898  -11.1362  -17.0312 C   0  0  0  0  0  0  0  0  0  0  0  0
   21.9715  -11.7174  -17.5131 O   0  0  0  0  0  0  0  0  0  0  0  0
   22.8909   -9.8158  -16.5222 N   0  0  0  0  0  0  0  0  0  0  0  0
   21.6285   -9.1477  -16.6259 C   0  0  0  0  0  0  0  0  0  0  0  0
   21.6121   -7.7622  -16.1393 C   0  0  0  0  0  0  0  0  0  0  0  0
   20.4812   -7.1659  -16.1590 O   0  0  0  0  0  0  0  0  0  0  0  0
   22.7051   -7.0306  -15.6578 N   0  0  0  0  0  0  0  0  0  0  0  0
   22.6194   -5.6254  -15.2794 C   0  0  0  0  0  0  0  0  0  0  0  0
   22.1496   -5.5575  -13.8776 C   0  0  0  0  0  0  0  0  0  0  0  0
   21.8646   -6.6162  -13.2780 O   0  0  0  0  0  0  0  0  0  0  0  0
   22.0224   -4.3260  -13.2213 O   0  0  0  0  0  0  0  0  0  0  0  0
  1  2  1  0
  2  3  1  0
  4  3  1  0
  5  4  1  0
  5  6  1  1
  7  9  1  0
  7  5  1  0
  8  7  2  0
 10 11  1  0
 10  9  1  0
 11 13  1  0
 12 11  2  0
 13 14  1  0
 14 15  1  0
 15 16  2  0
 15 17  1  0
M  END
$$$$
