MGG.pdb
     RDKit          3D

 17 16  0  0  1  0  0  0  0  0999 V2000
   29.4870  -20.4533   -6.0287 C   0  0  0  0  0  0  0  0  0  0  0  0
   28.2191  -19.2402   -5.5589 S   0  0  0  0  0  0  0  0  0  0  0  0
   26.7132  -19.5188   -6.5251 C   0  0  0  0  0  0  0  0  0  0  0  0
   27.0766  -19.8438   -7.9457 C   0  0  0  0  0  0  0  0  0  0  0  0
   25.8558  -20.0592   -8.8133 C   0  0  2  0  0  0  0  0  0  0  0  0
   25.0847  -21.1992   -8.4005 N   0  0  0  0  0  0  0  0  0  0  0  0
   26.2176  -20.1818  -10.2464 C   0  0  0  0  0  0  0  0  0  0  0  0
   26.6646  -19.1445  -10.8218 O   0  0  0  0  0  0  0  0  0  0  0  0
   26.0777  -21.3982  -10.9629 N   0  0  0  0  0  0  0  0  0  0  0  0
   26.2922  -21.3734  -12.3785 C   0  0  0  0  0  0  0  0  0  0  0  0
   25.0848  -21.1765  -13.1909 C   0  0  0  0  0  0  0  0  0  0  0  0
   25.0378  -21.8077  -14.3020 O   0  0  0  0  0  0  0  0  0  0  0  0
   23.9839  -20.3709  -12.8735 N   0  0  0  0  0  0  0  0  0  0  0  0
   22.8211  -20.2317  -13.7418 C   0  0  0  0  0  0  0  0  0  0  0  0
   21.8152  -21.2329  -13.3222 C   0  0  0  0  0  0  0  0  0  0  0  0
   20.7498  -20.8441  -12.7975 O   0  0  0  0  0  0  0  0  0  0  0  0
   22.0447  -22.6029  -13.5066 O   0  0  0  0  0  0  0  0  0  0  0  0
  1  2  1  0
  2  3  1  0
  4  3  1  0
  5  4  1  0
  5  6  1  1
  7  9  1  0
  7  5  1  0
  8  7  2  0
 10 11  1  0
 10  9  1  0
 11 13  1  0
 12 11  2  0
 13 14  1  0
 14 15  1  0
 15 16  2  0
 15 17  1  0
M  END
$$$$
