MGG.pdb
     RDKit          3D

 17 16  0  0  1  0  0  0  0  0999 V2000
   29.1468  -19.7115   -6.5054 C   0  0  0  0  0  0  0  0  0  0  0  0
   27.4672  -19.0891   -6.2029 S   0  0  0  0  0  0  0  0  0  0  0  0
   26.2503  -20.2620   -6.8529 C   0  0  0  0  0  0  0  0  0  0  0  0
   26.6830  -20.7399   -8.2095 C   0  0  0  0  0  0  0  0  0  0  0  0
   25.8514  -20.1368   -9.3204 C   0  0  2  0  0  0  0  0  0  0  0  0
   24.4680  -20.5160   -9.2366 N   0  0  0  0  0  0  0  0  0  0  0  0
   26.3929  -20.4803  -10.6578 C   0  0  0  0  0  0  0  0  0  0  0  0
   27.3063  -21.3580  -10.7049 O   0  0  0  0  0  0  0  0  0  0  0  0
   25.9237  -19.8656  -11.8470 N   0  0  0  0  0  0  0  0  0  0  0  0
   25.8191  -20.6728  -13.0253 C   0  0  0  0  0  0  0  0  0  0  0  0
   24.4738  -20.7580  -13.6079 C   0  0  0  0  0  0  0  0  0  0  0  0
   24.3751  -21.3755  -14.7232 O   0  0  0  0  0  0  0  0  0  0  0  0
   23.2925  -20.2335  -13.0680 N   0  0  0  0  0  0  0  0  0  0  0  0
   21.9961  -20.3483  -13.7249 C   0  0  0  0  0  0  0  0  0  0  0  0
   21.1211  -21.1780  -12.8669 C   0  0  0  0  0  0  0  0  0  0  0  0
   20.6609  -22.2481  -13.3193 O   0  0  0  0  0  0  0  0  0  0  0  0
   20.8062  -20.7776  -11.5616 O   0  0  0  0  0  0  0  0  0  0  0  0
  1  2  1  0
  2  3  1  0
  4  3  1  0
  5  4  1  0
  5  6  1  6
  7  9  1  0
  7  5  1  0
  8  7  2  0
 10 11  1  0
 10  9  1  0
 11 13  1  0
 12 11  2  0
 13 14  1  0
 14 15  1  0
 15 16  2  0
 15 17  1  0
M  END
$$$$
