MGG.pdb
     RDKit          3D

 17 16  0  0  1  0  0  0  0  0999 V2000
   27.1816  -15.4559  -20.2671 C   0  0  0  0  0  0  0  0  0  0  0  0
   27.4844  -16.3472  -18.7134 S   0  0  0  0  0  0  0  0  0  0  0  0
   26.7902  -15.4155  -17.3245 C   0  0  0  0  0  0  0  0  0  0  0  0
   27.3131  -14.0077  -17.3480 C   0  0  0  0  0  0  0  0  0  0  0  0
   26.7658  -13.1753  -16.2092 C   0  0  2  0  0  0  0  0  0  0  0  0
   25.3518  -13.3564  -16.0286 N   0  0  0  0  0  0  0  0  0  0  0  0
   27.0758  -11.7356  -16.3853 C   0  0  0  0  0  0  0  0  0  0  0  0
   26.1404  -10.9883  -16.8015 O   0  0  0  0  0  0  0  0  0  0  0  0
   28.3577  -11.1959  -16.1060 N   0  0  0  0  0  0  0  0  0  0  0  0
   28.5805   -9.8102  -16.3903 C   0  0  0  0  0  0  0  0  0  0  0  0
   28.9775   -9.5110  -17.7721 C   0  0  0  0  0  0  0  0  0  0  0  0
   29.4406   -8.3392  -17.9898 O   0  0  0  0  0  0  0  0  0  0  0  0
   28.9007  -10.3755  -18.8715 N   0  0  0  0  0  0  0  0  0  0  0  0
   29.3361  -10.0016  -20.2116 C   0  0  0  0  0  0  0  0  0  0  0  0
   30.7398  -10.4410  -20.3752 C   0  0  0  0  0  0  0  0  0  0  0  0
   31.5881  -10.1025  -19.5223 O   0  0  0  0  0  0  0  0  0  0  0  0
   31.1236  -11.2274  -21.4696 O   0  0  0  0  0  0  0  0  0  0  0  0
  1  2  1  0
  2  3  1  0
  4  3  1  0
  5  4  1  0
  5  6  1  6
  7  9  1  0
  7  5  1  0
  8  7  2  0
 10 11  1  0
 10  9  1  0
 11 13  1  0
 12 11  2  0
 13 14  1  0
 14 15  1  0
 15 16  2  0
 15 17  1  0
M  END
$$$$
