MGG.pdb
     RDKit          3D

 17 16  0  0  1  0  0  0  0  0999 V2000
   19.7970  -14.9484  -16.8247 C   0  0  0  0  0  0  0  0  0  0  0  0
   19.7912  -14.6277  -18.6128 S   0  0  0  0  0  0  0  0  0  0  0  0
   20.3830  -12.9476  -18.9382 C   0  0  0  0  0  0  0  0  0  0  0  0
   19.6045  -11.9674  -18.1082 C   0  0  0  0  0  0  0  0  0  0  0  0
   20.1215  -10.5533  -18.2584 C   0  0  2  0  0  0  0  0  0  0  0  0
   21.5449  -10.4689  -18.0807 N   0  0  0  0  0  0  0  0  0  0  0  0
   19.4370   -9.6190  -17.3319 C   0  0  0  0  0  0  0  0  0  0  0  0
   18.1697   -9.6025  -17.3575 O   0  0  0  0  0  0  0  0  0  0  0  0
   20.1498   -8.7707  -16.4461 N   0  0  0  0  0  0  0  0  0  0  0  0
   19.3998   -8.0193  -15.4850 C   0  0  0  0  0  0  0  0  0  0  0  0
   20.1988   -7.1632  -14.5988 C   0  0  0  0  0  0  0  0  0  0  0  0
   19.5584   -6.5287  -13.6920 O   0  0  0  0  0  0  0  0  0  0  0  0
   21.5855   -6.9718  -14.6459 N   0  0  0  0  0  0  0  0  0  0  0  0
   22.3267   -6.2546  -13.6156 C   0  0  0  0  0  0  0  0  0  0  0  0
   22.0319   -4.8117  -13.7614 C   0  0  0  0  0  0  0  0  0  0  0  0
   22.6687   -3.9865  -13.0721 O   0  0  0  0  0  0  0  0  0  0  0  0
   21.0524   -4.3656  -14.6586 O   0  0  0  0  0  0  0  0  0  0  0  0
  1  2  1  0
  2  3  1  0
  4  3  1  0
  5  4  1  0
  5  6  1  1
  7  9  1  0
  7  5  1  0
  8  7  2  0
 10 11  1  0
 10  9  1  0
 11 13  1  0
 12 11  2  0
 13 14  1  0
 14 15  1  0
 15 16  2  0
 15 17  1  0
M  END
$$$$
