MGG.pdb
     RDKit          3D

 17 16  0  0  1  0  0  0  0  0999 V2000
   29.2507  -18.5272   -5.9836 C   0  0  0  0  0  0  0  0  0  0  0  0
   28.1889  -19.9938   -5.8374 S   0  0  0  0  0  0  0  0  0  0  0  0
   26.6961  -19.7746   -6.8387 C   0  0  0  0  0  0  0  0  0  0  0  0
   26.8600  -20.4830   -8.1529 C   0  0  0  0  0  0  0  0  0  0  0  0
   25.6991  -20.2273   -9.0891 C   0  0  2  0  0  0  0  0  0  0  0  0
   24.4342  -20.5686   -8.4990 N   0  0  0  0  0  0  0  0  0  0  0  0
   25.8682  -20.9410  -10.3782 C   0  0  0  0  0  0  0  0  0  0  0  0
   24.9518  -21.7483  -10.7179 O   0  0  0  0  0  0  0  0  0  0  0  0
   26.9991  -20.7442  -11.2118 N   0  0  0  0  0  0  0  0  0  0  0  0
   26.7732  -20.3489  -12.5695 C   0  0  0  0  0  0  0  0  0  0  0  0
   25.7770  -21.1469  -13.2958 C   0  0  0  0  0  0  0  0  0  0  0  0
   26.2057  -22.2054  -13.8709 O   0  0  0  0  0  0  0  0  0  0  0  0
   24.4103  -20.8673  -13.4220 N   0  0  0  0  0  0  0  0  0  0  0  0
   23.4968  -21.6916  -14.2039 C   0  0  0  0  0  0  0  0  0  0  0  0
   22.1219  -21.1951  -13.9728 C   0  0  0  0  0  0  0  0  0  0  0  0
   21.4526  -20.7792  -14.9427 O   0  0  0  0  0  0  0  0  0  0  0  0
   21.5677  -21.1872  -12.6859 O   0  0  0  0  0  0  0  0  0  0  0  0
  1  2  1  0
  2  3  1  0
  4  3  1  0
  5  4  1  0
  5  6  1  1
  7  9  1  0
  7  5  1  0
  8  7  2  0
 10 11  1  0
 10  9  1  0
 11 13  1  0
 12 11  2  0
 13 14  1  0
 14 15  1  0
 15 16  2  0
 15 17  1  0
M  END
$$$$
