FYQ.pdb
     RDKit          3D

 33 34  0  0  1  0  0  0  0  0999 V2000
    6.3232  -18.5898   26.5467 N   0  0  0  0  0  0  0  0  0  0  0  0
    6.5950  -17.1899   26.3733 C   0  0  1  0  0  0  0  0  0  0  0  0
    7.4340  -16.5936   27.4451 C   0  0  0  0  0  0  0  0  0  0  0  0
    7.6600  -15.1449   27.3198 C   0  0  0  0  0  0  0  0  0  0  0  0
    6.5379  -14.3471   27.1734 C   0  0  0  0  0  0  0  0  0  0  0  0
    6.6454  -12.9780   27.0477 C   0  0  0  0  0  0  0  0  0  0  0  0
    7.8918  -12.3570   27.0646 C   0  0  0  0  0  0  0  0  0  0  0  0
    8.9780  -13.1934   27.2125 C   0  0  0  0  0  0  0  0  0  0  0  0
    8.8966  -14.5532   27.3389 C   0  0  0  0  0  0  0  0  0  0  0  0
    7.2157  -16.8980   25.0509 C   0  0  0  0  0  0  0  0  0  0  0  0
    8.1294  -17.6202   24.5775 O   0  0  0  0  0  0  0  0  0  0  0  0
    8.6271  -13.1072   17.0757 O   0  0  0  0  0  0  0  0  0  0  0  0
    8.1481  -13.4255   18.3512 C   0  0  0  0  0  0  0  0  0  0  0  0
    8.3445  -12.5688   19.4136 C   0  0  0  0  0  0  0  0  0  0  0  0
    7.8670  -12.8852   20.6865 C   0  0  0  0  0  0  0  0  0  0  0  0
    7.1867  -14.0552   20.9302 C   0  0  0  0  0  0  0  0  0  0  0  0
    6.6814  -14.3833   22.2835 C   0  0  0  0  0  0  0  0  0  0  0  0
    7.4175  -15.4877   22.9629 C   0  0  2  0  0  0  0  0  0  0  0  0
    6.8047  -15.7880   24.2604 N   0  0  0  0  0  0  0  0  0  0  0  0
    8.8563  -15.2758   23.1504 C   0  0  0  0  0  0  0  0  0  0  0  0
    9.2770  -14.7919   24.2328 O   0  0  0  0  0  0  0  0  0  0  0  0
    6.9976  -14.9036   19.8558 C   0  0  0  0  0  0  0  0  0  0  0  0
    7.4660  -14.5989   18.5945 C   0  0  0  0  0  0  0  0  0  0  0  0
   11.9791  -18.7200   25.6605 N   0  0  0  0  0  0  0  0  0  0  0  0
   13.0495  -17.9465   25.0738 C   0  0  0  0  0  0  0  0  0  0  0  0
   14.1829  -18.2065   25.5044 O   0  0  0  0  0  0  0  0  0  0  0  0
   12.7892  -16.9402   24.0562 C   0  0  0  0  0  0  0  0  0  0  0  0
   11.4071  -16.6214   23.6768 C   0  0  0  0  0  0  0  0  0  0  0  0
   11.2000  -15.7208   22.4956 C   0  0  2  0  0  0  0  0  0  0  0  0
    9.8101  -15.5969   22.1560 N   0  0  0  0  0  0  0  0  0  0  0  0
   12.1191  -15.9624   21.3898 C   0  0  0  0  0  0  0  0  0  0  0  0
   11.7013  -16.2042   20.2404 O   0  0  0  0  0  0  0  0  0  0  0  0
   13.4851  -15.9197   21.6055 O   0  0  0  0  0  0  0  0  0  0  0  0
  2  1  1  1
  3  2  1  0
  4  5  2  0
  4  3  1  0
  6  5  1  0
  7  6  2  0
  8  7  1  0
  8  9  2  0
  9  4  1  0
 10  2  1  0
 11 10  2  0
 13 12  1  0
 13 14  2  0
 15 14  1  0
 16 15  2  0
 17 16  1  0
 18 17  1  1
 18 19  1  0
 19 10  1  0
 20 21  2  0
 20 18  1  0
 22 23  2  0
 22 16  1  0
 23 13  1  0
 25 24  1  0
 26 25  2  0
 27 25  1  0
 28 27  1  0
 29 28  1  1
 29 30  1  0
 30 20  1  0
 31 33  1  0
 31 29  1  0
 32 31  2  0
M  END
$$$$
