FYQ.pdb
     RDKit          3D

 33 34  0  0  1  0  0  0  0  0999 V2000
    9.4869  -17.4892   25.7815 N   0  0  0  0  0  0  0  0  0  0  0  0
    8.9256  -16.1890   26.0228 C   0  0  1  0  0  0  0  0  0  0  0  0
    9.9310  -15.1350   26.3169 C   0  0  0  0  0  0  0  0  0  0  0  0
   10.6056  -15.2694   27.6179 C   0  0  0  0  0  0  0  0  0  0  0  0
   10.1093  -14.5069   28.6615 C   0  0  0  0  0  0  0  0  0  0  0  0
   10.6733  -14.5622   29.9186 C   0  0  0  0  0  0  0  0  0  0  0  0
   11.7632  -15.3906   30.1745 C   0  0  0  0  0  0  0  0  0  0  0  0
   12.2206  -16.1295   29.1040 C   0  0  0  0  0  0  0  0  0  0  0  0
   11.6781  -16.0917   27.8486 C   0  0  0  0  0  0  0  0  0  0  0  0
    8.0591  -15.7343   24.8996 C   0  0  0  0  0  0  0  0  0  0  0  0
    6.9643  -15.1516   25.1054 O   0  0  0  0  0  0  0  0  0  0  0  0
    5.6194  -12.8473   28.0190 O   0  0  0  0  0  0  0  0  0  0  0  0
    6.0449  -13.1114   26.7125 C   0  0  0  0  0  0  0  0  0  0  0  0
    5.5131  -14.1621   25.9951 C   0  0  0  0  0  0  0  0  0  0  0  0
    5.9369  -14.4264   24.6917 C   0  0  0  0  0  0  0  0  0  0  0  0
    6.8944  -13.6556   24.0754 C   0  0  0  0  0  0  0  0  0  0  0  0
    7.3377  -13.9412   22.6911 C   0  0  0  0  0  0  0  0  0  0  0  0
    7.6529  -15.3751   22.4307 C   0  0  2  0  0  0  0  0  0  0  0  0
    8.4287  -15.9376   23.5401 N   0  0  0  0  0  0  0  0  0  0  0  0
    8.3459  -15.6580   21.1697 C   0  0  0  0  0  0  0  0  0  0  0  0
    7.7208  -16.2103   20.2279 O   0  0  0  0  0  0  0  0  0  0  0  0
    7.4180  -12.6064   24.8068 C   0  0  0  0  0  0  0  0  0  0  0  0
    7.0052  -12.3378   26.0954 C   0  0  0  0  0  0  0  0  0  0  0  0
    7.6597  -12.9869   18.9173 N   0  0  0  0  0  0  0  0  0  0  0  0
    8.9303  -13.0292   18.2303 C   0  0  0  0  0  0  0  0  0  0  0  0
    8.9274  -12.5428   17.0897 O   0  0  0  0  0  0  0  0  0  0  0  0
   10.1107  -13.6082   18.8526 C   0  0  0  0  0  0  0  0  0  0  0  0
   10.4223  -15.0291   18.6537 C   0  0  0  0  0  0  0  0  0  0  0  0
   10.4308  -15.9155   19.8633 C   0  0  2  0  0  0  0  0  0  0  0  0
    9.7062  -15.3323   20.9576 N   0  0  0  0  0  0  0  0  0  0  0  0
   11.7352  -16.4853   20.1792 C   0  0  0  0  0  0  0  0  0  0  0  0
   12.2143  -16.4110   21.3277 O   0  0  0  0  0  0  0  0  0  0  0  0
   12.4640  -17.1291   19.1951 O   0  0  0  0  0  0  0  0  0  0  0  0
  2  1  1  6
  3  2  1  0
  4  5  2  0
  4  3  1  0
  6  5  1  0
  7  6  2  0
  8  7  1  0
  8  9  2  0
  9  4  1  0
 10  2  1  0
 11 10  2  0
 13 12  1  0
 13 14  2  0
 15 14  1  0
 16 15  2  0
 17 16  1  0
 18 17  1  1
 18 19  1  0
 19 10  1  0
 20 21  2  0
 20 18  1  0
 22 23  2  0
 22 16  1  0
 23 13  1  0
 25 24  1  0
 26 25  2  0
 27 25  1  0
 28 27  1  0
 29 28  1  6
 29 30  1  0
 30 20  1  0
 31 33  1  0
 31 29  1  0
 32 31  2  0
M  END
$$$$
