FYQ.pdb
     RDKit          3D

 33 34  0  0  1  0  0  0  0  0999 V2000
    6.1813  -18.1371   26.2994 N   0  0  0  0  0  0  0  0  0  0  0  0
    6.6082  -16.7941   26.0200 C   0  0  1  0  0  0  0  0  0  0  0  0
    7.5404  -16.2275   27.0291 C   0  0  0  0  0  0  0  0  0  0  0  0
    7.7214  -14.7690   26.9538 C   0  0  0  0  0  0  0  0  0  0  0  0
    6.5725  -13.9976   26.9095 C   0  0  0  0  0  0  0  0  0  0  0  0
    6.6373  -12.6220   26.8374 C   0  0  0  0  0  0  0  0  0  0  0  0
    7.8662  -11.9675   26.8071 C   0  0  0  0  0  0  0  0  0  0  0  0
    8.9803  -12.7786   26.8533 C   0  0  0  0  0  0  0  0  0  0  0  0
    8.9415  -14.1442   26.9250 C   0  0  0  0  0  0  0  0  0  0  0  0
    7.2211  -16.6696   24.6680 C   0  0  0  0  0  0  0  0  0  0  0  0
    7.9596  -17.5694   24.1933 O   0  0  0  0  0  0  0  0  0  0  0  0
    9.1379  -13.3694   16.5745 O   0  0  0  0  0  0  0  0  0  0  0  0
    8.6432  -13.5645   17.8686 C   0  0  0  0  0  0  0  0  0  0  0  0
    8.9536  -12.6844   18.8837 C   0  0  0  0  0  0  0  0  0  0  0  0
    8.4606  -12.8781   20.1751 C   0  0  0  0  0  0  0  0  0  0  0  0
    7.6516  -13.9461   20.4846 C   0  0  0  0  0  0  0  0  0  0  0  0
    7.1307  -14.1439   21.8571 C   0  0  0  0  0  0  0  0  0  0  0  0
    7.5968  -15.3975   22.5162 C   0  0  2  0  0  0  0  0  0  0  0  0
    7.0002  -15.5264   23.8491 N   0  0  0  0  0  0  0  0  0  0  0  0
    9.0501  -15.5601   22.6242 C   0  0  0  0  0  0  0  0  0  0  0  0
    9.6907  -14.8770   23.4642 O   0  0  0  0  0  0  0  0  0  0  0  0
    7.3492  -14.8194   19.4570 C   0  0  0  0  0  0  0  0  0  0  0  0
    7.8320  -14.6359   18.1779 C   0  0  0  0  0  0  0  0  0  0  0  0
   12.6310  -14.1874   18.1096 N   0  0  0  0  0  0  0  0  0  0  0  0
   13.3986  -14.1877   19.3340 C   0  0  0  0  0  0  0  0  0  0  0  0
   14.4131  -13.4750   19.3184 O   0  0  0  0  0  0  0  0  0  0  0  0
   12.9906  -14.9775   20.4854 C   0  0  0  0  0  0  0  0  0  0  0  0
   11.5647  -15.2087   20.7480 C   0  0  0  0  0  0  0  0  0  0  0  0
   11.2008  -16.3301   21.6749 C   0  0  2  0  0  0  0  0  0  0  0  0
    9.7780  -16.4653   21.8165 N   0  0  0  0  0  0  0  0  0  0  0  0
   11.9818  -16.3673   22.9055 C   0  0  0  0  0  0  0  0  0  0  0  0
   11.4301  -16.3816   24.0235 O   0  0  0  0  0  0  0  0  0  0  0  0
   13.3638  -16.3933   22.8457 O   0  0  0  0  0  0  0  0  0  0  0  0
  2  1  1  1
  3  2  1  0
  4  5  2  0
  4  3  1  0
  6  5  1  0
  7  6  2  0
  8  7  1  0
  8  9  2  0
  9  4  1  0
 10  2  1  0
 11 10  2  0
 13 12  1  0
 13 14  2  0
 15 14  1  0
 16 15  2  0
 17 16  1  0
 18 17  1  1
 18 19  1  0
 19 10  1  0
 20 21  2  0
 20 18  1  0
 22 23  2  0
 22 16  1  0
 23 13  1  0
 25 24  1  0
 26 25  2  0
 27 25  1  0
 28 27  1  0
 29 28  1  1
 29 30  1  0
 30 20  1  0
 31 33  1  0
 31 29  1  0
 32 31  2  0
M  END
$$$$
