FYQ.pdb
     RDKit          3D

 33 34  0  0  1  0  0  0  0  0999 V2000
    5.6900  -14.8205   21.9754 N   0  0  0  0  0  0  0  0  0  0  0  0
    7.0369  -15.3155   22.0426 C   0  0  1  0  0  0  0  0  0  0  0  0
    8.0801  -14.2752   21.8475 C   0  0  0  0  0  0  0  0  0  0  0  0
    8.0613  -13.6198   20.5301 C   0  0  0  0  0  0  0  0  0  0  0  0
    7.8002  -12.2602   20.5115 C   0  0  0  0  0  0  0  0  0  0  0  0
    7.7604  -11.5560   19.3265 C   0  0  0  0  0  0  0  0  0  0  0  0
    7.9829  -12.1960   18.1098 C   0  0  0  0  0  0  0  0  0  0  0  0
    8.2385  -13.5491   18.1805 C   0  0  0  0  0  0  0  0  0  0  0  0
    8.2831  -14.2690   19.3430 C   0  0  0  0  0  0  0  0  0  0  0  0
    7.3058  -16.0407   23.3157 C   0  0  0  0  0  0  0  0  0  0  0  0
    6.8342  -15.6455   24.4121 O   0  0  0  0  0  0  0  0  0  0  0  0
    6.8552  -22.1882   29.3320 O   0  0  0  0  0  0  0  0  0  0  0  0
    6.8515  -21.2987   28.2520 C   0  0  0  0  0  0  0  0  0  0  0  0
    7.0204  -19.9448   28.4514 C   0  0  0  0  0  0  0  0  0  0  0  0
    7.0169  -19.0565   27.3746 C   0  0  0  0  0  0  0  0  0  0  0  0
    6.8462  -19.4926   26.0817 C   0  0  0  0  0  0  0  0  0  0  0  0
    6.8454  -18.5440   24.9440 C   0  0  0  0  0  0  0  0  0  0  0  0
    8.1986  -18.0596   24.5473 C   0  0  2  0  0  0  0  0  0  0  0  0
    8.1091  -17.2152   23.3522 N   0  0  0  0  0  0  0  0  0  0  0  0
    9.2093  -19.0985   24.3251 C   0  0  0  0  0  0  0  0  0  0  0  0
    8.8886  -20.1599   23.7307 O   0  0  0  0  0  0  0  0  0  0  0  0
    6.6781  -20.8520   25.8978 C   0  0  0  0  0  0  0  0  0  0  0  0
    6.6802  -21.7371   26.9559 C   0  0  0  0  0  0  0  0  0  0  0  0
    9.8971  -19.0899   30.1807 N   0  0  0  0  0  0  0  0  0  0  0  0
   11.1871  -19.4653   29.6484 C   0  0  0  0  0  0  0  0  0  0  0  0
   12.1441  -19.2895   30.4171 O   0  0  0  0  0  0  0  0  0  0  0  0
   11.3259  -20.0049   28.3047 C   0  0  0  0  0  0  0  0  0  0  0  0
   10.8680  -19.2229   27.1495 C   0  0  0  0  0  0  0  0  0  0  0  0
   11.0748  -19.8107   25.7854 C   0  0  2  0  0  0  0  0  0  0  0  0
   10.5508  -18.9609   24.7529 N   0  0  0  0  0  0  0  0  0  0  0  0
   10.7468  -21.2280   25.6879 C   0  0  0  0  0  0  0  0  0  0  0  0
   11.6159  -22.0770   25.4087 O   0  0  0  0  0  0  0  0  0  0  0  0
    9.4497  -21.6535   25.9130 O   0  0  0  0  0  0  0  0  0  0  0  0
  2  1  1  1
  3  2  1  0
  4  5  2  0
  4  3  1  0
  6  5  1  0
  7  6  2  0
  8  7  1  0
  8  9  2  0
  9  4  1  0
 10  2  1  0
 11 10  2  0
 13 12  1  0
 13 14  2  0
 15 14  1  0
 16 15  2  0
 17 16  1  0
 18 17  1  6
 18 19  1  0
 19 10  1  0
 20 21  2  0
 20 18  1  0
 22 23  2  0
 22 16  1  0
 23 13  1  0
 25 24  1  0
 26 25  2  0
 27 25  1  0
 28 27  1  0
 29 28  1  1
 29 30  1  0
 30 20  1  0
 31 33  1  0
 31 29  1  0
 32 31  2  0
M  END
$$$$
