FYQ.pdb
     RDKit          3D

 33 34  0  0  1  0  0  0  0  0999 V2000
    5.8719  -18.3006   26.2634 N   0  0  0  0  0  0  0  0  0  0  0  0
    6.4504  -17.0007   26.0657 C   0  0  1  0  0  0  0  0  0  0  0  0
    7.5022  -16.6440   27.0530 C   0  0  0  0  0  0  0  0  0  0  0  0
    7.8007  -15.2060   27.1465 C   0  0  0  0  0  0  0  0  0  0  0  0
    6.7507  -14.3330   26.9180 C   0  0  0  0  0  0  0  0  0  0  0  0
    6.9296  -12.9672   26.9819 C   0  0  0  0  0  0  0  0  0  0  0  0
    8.1776  -12.4254   27.2795 C   0  0  0  0  0  0  0  0  0  0  0  0
    9.1905  -13.3349   27.4988 C   0  0  0  0  0  0  0  0  0  0  0  0
    9.0377  -14.6932   27.4410 C   0  0  0  0  0  0  0  0  0  0  0  0
    6.9977  -16.8329   24.6903 C   0  0  0  0  0  0  0  0  0  0  0  0
    7.4875  -17.7995   24.0530 O   0  0  0  0  0  0  0  0  0  0  0  0
    8.5785  -13.0538   16.7383 O   0  0  0  0  0  0  0  0  0  0  0  0
    8.2946  -13.2780   18.0899 C   0  0  0  0  0  0  0  0  0  0  0  0
    7.2054  -14.0348   18.4669 C   0  0  0  0  0  0  0  0  0  0  0  0
    6.9213  -14.2590   19.8150 C   0  0  0  0  0  0  0  0  0  0  0  0
    7.7102  -13.7382   20.8137 C   0  0  0  0  0  0  0  0  0  0  0  0
    7.4033  -13.9821   22.2422 C   0  0  0  0  0  0  0  0  0  0  0  0
    7.4111  -15.4204   22.6353 C   0  0  2  0  0  0  0  0  0  0  0  0
    6.9924  -15.5708   24.0321 N   0  0  0  0  0  0  0  0  0  0  0  0
    8.6788  -16.1301   22.4362 C   0  0  0  0  0  0  0  0  0  0  0  0
    8.7394  -17.0715   21.6037 O   0  0  0  0  0  0  0  0  0  0  0  0
    8.7981  -12.9820   20.4204 C   0  0  0  0  0  0  0  0  0  0  0  0
    9.0864  -12.7552   19.0906 C   0  0  0  0  0  0  0  0  0  0  0  0
   12.4110  -15.1048   18.8573 N   0  0  0  0  0  0  0  0  0  0  0  0
   12.9283  -14.5569   20.0904 C   0  0  0  0  0  0  0  0  0  0  0  0
   13.8833  -13.7770   19.9591 O   0  0  0  0  0  0  0  0  0  0  0  0
   12.3543  -14.9128   21.3787 C   0  0  0  0  0  0  0  0  0  0  0  0
   11.6384  -16.1849   21.5364 C   0  0  0  0  0  0  0  0  0  0  0  0
   11.0812  -16.5064   22.8910 C   0  0  2  0  0  0  0  0  0  0  0  0
    9.8571  -15.7998   23.1462 N   0  0  0  0  0  0  0  0  0  0  0  0
   12.0700  -16.4992   23.9625 C   0  0  0  0  0  0  0  0  0  0  0  0
   13.1230  -17.1610   23.8776 O   0  0  0  0  0  0  0  0  0  0  0  0
   11.8503  -15.7423   25.0997 O   0  0  0  0  0  0  0  0  0  0  0  0
  2  1  1  1
  3  2  1  0
  4  5  2  0
  4  3  1  0
  6  5  1  0
  7  6  2  0
  8  7  1  0
  8  9  2  0
  9  4  1  0
 10  2  1  0
 11 10  2  0
 13 12  1  0
 13 14  2  0
 15 14  1  0
 16 15  2  0
 17 16  1  0
 18 17  1  1
 18 19  1  0
 19 10  1  0
 20 21  2  0
 20 18  1  0
 22 23  2  0
 22 16  1  0
 23 13  1  0
 25 24  1  0
 26 25  2  0
 27 25  1  0
 28 27  1  0
 29 28  1  6
 29 30  1  0
 30 20  1  0
 31 33  1  0
 31 29  1  0
 32 31  2  0
M  END
$$$$
