FYQ.pdb
     RDKit          3D

 33 34  0  0  1  0  0  0  0  0999 V2000
    6.2610  -18.5007   26.1584 N   0  0  0  0  0  0  0  0  0  0  0  0
    6.4751  -17.0923   25.9739 C   0  0  1  0  0  0  0  0  0  0  0  0
    7.1769  -16.4284   27.1031 C   0  0  0  0  0  0  0  0  0  0  0  0
    7.1356  -14.9576   27.0781 C   0  0  0  0  0  0  0  0  0  0  0  0
    8.3401  -14.2952   27.2434 C   0  0  0  0  0  0  0  0  0  0  0  0
    8.4054  -12.9177   27.2358 C   0  0  0  0  0  0  0  0  0  0  0  0
    7.2561  -12.1511   27.0606 C   0  0  0  0  0  0  0  0  0  0  0  0
    6.0821  -12.8564   26.9002 C   0  0  0  0  0  0  0  0  0  0  0  0
    5.9921  -14.2215   26.9042 C   0  0  0  0  0  0  0  0  0  0  0  0
    7.2025  -16.7960   24.7080 C   0  0  0  0  0  0  0  0  0  0  0  0
    8.1344  -17.5319   24.2952 O   0  0  0  0  0  0  0  0  0  0  0  0
    8.6901  -13.3505   16.6022 O   0  0  0  0  0  0  0  0  0  0  0  0
    8.2594  -13.5575   17.9172 C   0  0  0  0  0  0  0  0  0  0  0  0
    7.6910  -14.7559   18.2940 C   0  0  0  0  0  0  0  0  0  0  0  0
    7.2610  -14.9635   19.6056 C   0  0  0  0  0  0  0  0  0  0  0  0
    7.3860  -13.9886   20.5674 C   0  0  0  0  0  0  0  0  0  0  0  0
    6.9289  -14.2170   21.9578 C   0  0  0  0  0  0  0  0  0  0  0  0
    7.5081  -15.4298   22.6033 C   0  0  2  0  0  0  0  0  0  0  0  0
    6.8776  -15.6661   23.9056 N   0  0  0  0  0  0  0  0  0  0  0  0
    8.9651  -15.4311   22.7693 C   0  0  0  0  0  0  0  0  0  0  0  0
    9.4947  -14.6619   23.6122 O   0  0  0  0  0  0  0  0  0  0  0  0
    7.9574  -12.7931   20.1748 C   0  0  0  0  0  0  0  0  0  0  0  0
    8.3851  -12.5792   18.8809 C   0  0  0  0  0  0  0  0  0  0  0  0
   15.2605  -18.6522   23.7084 N   0  0  0  0  0  0  0  0  0  0  0  0
   13.8576  -18.6447   23.3620 C   0  0  0  0  0  0  0  0  0  0  0  0
   13.1775  -19.5281   23.9048 O   0  0  0  0  0  0  0  0  0  0  0  0
   13.3090  -17.6633   22.4390 C   0  0  0  0  0  0  0  0  0  0  0  0
   11.8571  -17.5767   22.2383 C   0  0  0  0  0  0  0  0  0  0  0  0
   11.2413  -16.2100   22.1934 C   0  0  2  0  0  0  0  0  0  0  0  0
    9.8175  -16.2716   22.0154 N   0  0  0  0  0  0  0  0  0  0  0  0
   11.9592  -15.2568   21.3557 C   0  0  0  0  0  0  0  0  0  0  0  0
   12.7926  -14.4665   21.8405 O   0  0  0  0  0  0  0  0  0  0  0  0
   11.7246  -15.2220   19.9926 O   0  0  0  0  0  0  0  0  0  0  0  0
  2  1  1  1
  3  2  1  0
  4  5  2  0
  4  3  1  0
  6  5  1  0
  7  6  2  0
  8  7  1  0
  8  9  2  0
  9  4  1  0
 10  2  1  0
 11 10  2  0
 13 12  1  0
 13 14  2  0
 15 14  1  0
 16 15  2  0
 17 16  1  0
 18 17  1  1
 18 19  1  0
 19 10  1  0
 20 21  2  0
 20 18  1  0
 22 23  2  0
 22 16  1  0
 23 13  1  0
 25 24  1  0
 26 25  2  0
 27 25  1  0
 28 27  1  0
 29 28  1  6
 29 30  1  0
 30 20  1  0
 31 33  1  0
 31 29  1  0
 32 31  2  0
M  END
$$$$
