FYQ.pdb
     RDKit          3D

 33 34  0  0  1  0  0  0  0  0999 V2000
    5.9414  -14.3508   21.5875 N   0  0  0  0  0  0  0  0  0  0  0  0
    7.3230  -14.7432   21.5593 C   0  0  1  0  0  0  0  0  0  0  0  0
    8.1801  -13.8978   20.6880 C   0  0  0  0  0  0  0  0  0  0  0  0
    7.7450  -13.8159   19.2846 C   0  0  0  0  0  0  0  0  0  0  0  0
    7.0892  -12.6588   18.8996 C   0  0  0  0  0  0  0  0  0  0  0  0
    6.6420  -12.4871   17.6065 C   0  0  0  0  0  0  0  0  0  0  0  0
    6.8385  -13.4775   16.6473 C   0  0  0  0  0  0  0  0  0  0  0  0
    7.4959  -14.6100   17.0791 C   0  0  0  0  0  0  0  0  0  0  0  0
    7.9486  -14.8034   18.3556 C   0  0  0  0  0  0  0  0  0  0  0  0
    7.9196  -14.7966   22.9233 C   0  0  0  0  0  0  0  0  0  0  0  0
    7.3480  -14.2746   23.9139 O   0  0  0  0  0  0  0  0  0  0  0  0
   11.3553  -15.0052   30.7273 O   0  0  0  0  0  0  0  0  0  0  0  0
   10.7661  -15.1536   29.4670 C   0  0  0  0  0  0  0  0  0  0  0  0
   10.5282  -14.0575   28.6649 C   0  0  0  0  0  0  0  0  0  0  0  0
    9.9404  -14.2045   27.4074 C   0  0  0  0  0  0  0  0  0  0  0  0
    9.5778  -15.4388   26.9217 C   0  0  0  0  0  0  0  0  0  0  0  0
    8.9561  -15.5869   25.5853 C   0  0  0  0  0  0  0  0  0  0  0  0
    9.8737  -15.2996   24.4457 C   0  0  2  0  0  0  0  0  0  0  0  0
    9.1646  -15.4407   23.1704 N   0  0  0  0  0  0  0  0  0  0  0  0
   11.1044  -16.0956   24.4001 C   0  0  0  0  0  0  0  0  0  0  0  0
   11.6087  -16.3962   23.2874 O   0  0  0  0  0  0  0  0  0  0  0  0
    9.8224  -16.5277   27.7369 C   0  0  0  0  0  0  0  0  0  0  0  0
   10.4028  -16.3918   28.9809 C   0  0  0  0  0  0  0  0  0  0  0  0
   16.4028  -16.9803   22.8893 N   0  0  0  0  0  0  0  0  0  0  0  0
   16.1791  -15.9348   23.8615 C   0  0  0  0  0  0  0  0  0  0  0  0
   17.1187  -15.1379   24.0019 O   0  0  0  0  0  0  0  0  0  0  0  0
   14.9347  -15.8477   24.6097 C   0  0  0  0  0  0  0  0  0  0  0  0
   13.8365  -16.7773   24.3171 C   0  0  0  0  0  0  0  0  0  0  0  0
   13.0073  -17.2594   25.4699 C   0  0  2  0  0  0  0  0  0  0  0  0
   11.7636  -16.5476   25.5675 N   0  0  0  0  0  0  0  0  0  0  0  0
   13.7522  -17.4370   26.7106 C   0  0  0  0  0  0  0  0  0  0  0  0
   13.4206  -16.8451   27.7565 O   0  0  0  0  0  0  0  0  0  0  0  0
   14.8480  -18.2811   26.7432 O   0  0  0  0  0  0  0  0  0  0  0  0
  2  1  1  1
  3  2  1  0
  4  5  2  0
  4  3  1  0
  6  5  1  0
  7  6  2  0
  8  7  1  0
  8  9  2  0
  9  4  1  0
 10  2  1  0
 11 10  2  0
 13 12  1  0
 13 14  2  0
 15 14  1  0
 16 15  2  0
 17 16  1  0
 18 17  1  1
 18 19  1  0
 19 10  1  0
 20 21  2  0
 20 18  1  0
 22 23  2  0
 22 16  1  0
 23 13  1  0
 25 24  1  0
 26 25  2  0
 27 25  1  0
 28 27  1  0
 29 28  1  6
 29 30  1  0
 30 20  1  0
 31 33  1  0
 31 29  1  0
 32 31  2  0
M  END
$$$$
