FYQ.pdb
     RDKit          3D

 33 34  0  0  1  0  0  0  0  0999 V2000
    5.0184  -15.7227   25.7454 N   0  0  0  0  0  0  0  0  0  0  0  0
    6.4015  -15.9082   25.4043 C   0  0  1  0  0  0  0  0  0  0  0  0
    7.3254  -14.9429   26.0547 C   0  0  0  0  0  0  0  0  0  0  0  0
    7.0260  -13.5264   25.7912 C   0  0  0  0  0  0  0  0  0  0  0  0
    6.5207  -12.7870   26.8471 C   0  0  0  0  0  0  0  0  0  0  0  0
    6.2081  -11.4520   26.7001 C   0  0  0  0  0  0  0  0  0  0  0  0
    6.3929  -10.8074   25.4796 C   0  0  0  0  0  0  0  0  0  0  0  0
    6.8980  -11.5856   24.4595 C   0  0  0  0  0  0  0  0  0  0  0  0
    7.2154  -12.9108   24.5809 C   0  0  0  0  0  0  0  0  0  0  0  0
    6.8686  -17.2942   25.6871 C   0  0  0  0  0  0  0  0  0  0  0  0
    6.4911  -17.9217   26.7089 O   0  0  0  0  0  0  0  0  0  0  0  0
    9.8385  -25.5748   24.6687 O   0  0  0  0  0  0  0  0  0  0  0  0
    9.3918  -24.2622   24.4807 C   0  0  0  0  0  0  0  0  0  0  0  0
    9.4362  -23.3465   25.5106 C   0  0  0  0  0  0  0  0  0  0  0  0
    8.9908  -22.0369   25.3241 C   0  0  0  0  0  0  0  0  0  0  0  0
    8.4938  -21.6104   24.1150 C   0  0  0  0  0  0  0  0  0  0  0  0
    8.0247  -20.2184   23.9242 C   0  0  0  0  0  0  0  0  0  0  0  0
    8.2495  -19.3280   25.0989 C   0  0  2  0  0  0  0  0  0  0  0  0
    7.7642  -17.9743   24.8145 N   0  0  0  0  0  0  0  0  0  0  0  0
    9.6304  -19.2494   25.5859 C   0  0  0  0  0  0  0  0  0  0  0  0
   10.5480  -18.9031   24.7979 O   0  0  0  0  0  0  0  0  0  0  0  0
    8.4556  -22.5394   23.0924 C   0  0  0  0  0  0  0  0  0  0  0  0
    8.8935  -23.8357   23.2677 C   0  0  0  0  0  0  0  0  0  0  0  0
   12.1409  -15.5398   29.0412 N   0  0  0  0  0  0  0  0  0  0  0  0
   10.7755  -15.9927   28.9035 C   0  0  0  0  0  0  0  0  0  0  0  0
    9.9111  -15.1449   29.1710 O   0  0  0  0  0  0  0  0  0  0  0  0
   10.4649  -17.3501   28.4828 C   0  0  0  0  0  0  0  0  0  0  0  0
   11.5401  -18.3413   28.3514 C   0  0  0  0  0  0  0  0  0  0  0  0
   11.3523  -19.4431   27.3515 C   0  0  2  0  0  0  0  0  0  0  0  0
    9.9856  -19.5474   26.9225 N   0  0  0  0  0  0  0  0  0  0  0  0
   12.0189  -20.6911   27.7033 C   0  0  0  0  0  0  0  0  0  0  0  0
   11.3909  -21.7662   27.7672 O   0  0  0  0  0  0  0  0  0  0  0  0
   13.3768  -20.6976   27.9685 O   0  0  0  0  0  0  0  0  0  0  0  0
  2  1  1  1
  3  2  1  0
  4  5  2  0
  4  3  1  0
  6  5  1  0
  7  6  2  0
  8  7  1  0
  8  9  2  0
  9  4  1  0
 10  2  1  0
 11 10  2  0
 13 12  1  0
 13 14  2  0
 15 14  1  0
 16 15  2  0
 17 16  1  0
 18 17  1  6
 18 19  1  0
 19 10  1  0
 20 21  2  0
 20 18  1  0
 22 23  2  0
 22 16  1  0
 23 13  1  0
 25 24  1  0
 26 25  2  0
 27 25  1  0
 28 27  1  0
 29 28  1  1
 29 30  1  0
 30 20  1  0
 31 33  1  0
 31 29  1  0
 32 31  2  0
M  END
$$$$
