FYQ.pdb
     RDKit          3D

 33 34  0  0  1  0  0  0  0  0999 V2000
    6.6121  -17.8012   26.3162 N   0  0  0  0  0  0  0  0  0  0  0  0
    6.7982  -16.4566   25.8458 C   0  0  1  0  0  0  0  0  0  0  0  0
    7.6985  -15.6324   26.6935 C   0  0  0  0  0  0  0  0  0  0  0  0
    7.2279  -14.2608   26.9441 C   0  0  0  0  0  0  0  0  0  0  0  0
    7.9463  -13.5104   27.8594 C   0  0  0  0  0  0  0  0  0  0  0  0
    7.5843  -12.2149   28.1629 C   0  0  0  0  0  0  0  0  0  0  0  0
    6.4807  -11.6225   27.5541 C   0  0  0  0  0  0  0  0  0  0  0  0
    5.7983  -12.4096   26.6508 C   0  0  0  0  0  0  0  0  0  0  0  0
    6.1378  -13.6963   26.3334 C   0  0  0  0  0  0  0  0  0  0  0  0
    7.2843  -16.4164   24.4382 C   0  0  0  0  0  0  0  0  0  0  0  0
    8.0240  -17.3186   23.9699 O   0  0  0  0  0  0  0  0  0  0  0  0
    8.7098  -13.6649   16.0668 O   0  0  0  0  0  0  0  0  0  0  0  0
    8.2358  -13.8098   17.3753 C   0  0  0  0  0  0  0  0  0  0  0  0
    8.5835  -12.9059   18.3567 C   0  0  0  0  0  0  0  0  0  0  0  0
    8.1113  -13.0495   19.6624 C   0  0  0  0  0  0  0  0  0  0  0  0
    7.2865  -14.0902   20.0196 C   0  0  0  0  0  0  0  0  0  0  0  0
    6.7878  -14.2350   21.4069 C   0  0  0  0  0  0  0  0  0  0  0  0
    7.5617  -15.1991   22.2403 C   0  0  2  0  0  0  0  0  0  0  0  0
    6.9350  -15.3550   23.5563 N   0  0  0  0  0  0  0  0  0  0  0  0
    8.9837  -14.8898   22.4206 C   0  0  0  0  0  0  0  0  0  0  0  0
    9.3385  -14.1177   23.3484 O   0  0  0  0  0  0  0  0  0  0  0  0
    6.9468  -14.9880   19.0252 C   0  0  0  0  0  0  0  0  0  0  0  0
    7.4088  -14.8539   17.7324 C   0  0  0  0  0  0  0  0  0  0  0  0
   11.0815  -18.2752   25.7848 N   0  0  0  0  0  0  0  0  0  0  0  0
   12.3426  -17.9163   25.1773 C   0  0  0  0  0  0  0  0  0  0  0  0
   13.3469  -18.3770   25.7400 O   0  0  0  0  0  0  0  0  0  0  0  0
   12.4021  -17.0724   23.9940 C   0  0  0  0  0  0  0  0  0  0  0  0
   11.1627  -16.5671   23.3905 C   0  0  0  0  0  0  0  0  0  0  0  0
   11.2801  -15.7627   22.1303 C   0  0  2  0  0  0  0  0  0  0  0  0
    9.9927  -15.4288   21.5882 N   0  0  0  0  0  0  0  0  0  0  0  0
   12.2699  -16.2687   21.1868 C   0  0  0  0  0  0  0  0  0  0  0  0
   13.4524  -16.4640   21.5300 O   0  0  0  0  0  0  0  0  0  0  0  0
   11.9014  -16.5473   19.8827 O   0  0  0  0  0  0  0  0  0  0  0  0
  2  1  1  1
  3  2  1  0
  4  5  2  0
  4  3  1  0
  6  5  1  0
  7  6  2  0
  8  7  1  0
  8  9  2  0
  9  4  1  0
 10  2  1  0
 11 10  2  0
 13 12  1  0
 13 14  2  0
 15 14  1  0
 16 15  2  0
 17 16  1  0
 18 17  1  1
 18 19  1  0
 19 10  1  0
 20 21  2  0
 20 18  1  0
 22 23  2  0
 22 16  1  0
 23 13  1  0
 25 24  1  0
 26 25  2  0
 27 25  1  0
 28 27  1  0
 29 28  1  1
 29 30  1  0
 30 20  1  0
 31 33  1  0
 31 29  1  0
 32 31  2  0
M  END
$$$$
