FYQ.pdb
     RDKit          3D

 33 34  0  0  1  0  0  0  0  0999 V2000
    6.4292  -18.3963   26.2057 N   0  0  0  0  0  0  0  0  0  0  0  0
    6.7145  -17.0212   25.9030 C   0  0  1  0  0  0  0  0  0  0  0  0
    7.6010  -16.3503   26.8890 C   0  0  0  0  0  0  0  0  0  0  0  0
    7.4184  -14.8939   26.9945 C   0  0  0  0  0  0  0  0  0  0  0  0
    8.4861  -14.1637   27.4883 C   0  0  0  0  0  0  0  0  0  0  0  0
    8.4126  -12.7936   27.6257 C   0  0  0  0  0  0  0  0  0  0  0  0
    7.2568  -12.1030   27.2699 C   0  0  0  0  0  0  0  0  0  0  0  0
    6.2220  -12.8738   26.7837 C   0  0  0  0  0  0  0  0  0  0  0  0
    6.2711  -14.2332   26.6383 C   0  0  0  0  0  0  0  0  0  0  0  0
    7.2902  -16.8542   24.5392 C   0  0  0  0  0  0  0  0  0  0  0  0
    7.6987  -17.8376   23.8708 O   0  0  0  0  0  0  0  0  0  0  0  0
    8.4735  -13.0941   16.5211 O   0  0  0  0  0  0  0  0  0  0  0  0
    8.1720  -13.3467   17.8638 C   0  0  0  0  0  0  0  0  0  0  0  0
    8.6213  -12.5048   18.8591 C   0  0  0  0  0  0  0  0  0  0  0  0
    8.3211  -12.7559   20.1990 C   0  0  0  0  0  0  0  0  0  0  0  0
    7.5710  -13.8446   20.5773 C   0  0  0  0  0  0  0  0  0  0  0  0
    7.2551  -14.1034   22.0012 C   0  0  0  0  0  0  0  0  0  0  0  0
    7.7438  -15.4170   22.5099 C   0  0  2  0  0  0  0  0  0  0  0  0
    7.4055  -15.5741   23.9276 N   0  0  0  0  0  0  0  0  0  0  0  0
    9.1746  -15.6807   22.3268 C   0  0  0  0  0  0  0  0  0  0  0  0
    9.6573  -15.7089   21.1653 O   0  0  0  0  0  0  0  0  0  0  0  0
    7.1280  -14.6791   19.5687 C   0  0  0  0  0  0  0  0  0  0  0  0
    7.4198  -14.4388   18.2421 C   0  0  0  0  0  0  0  0  0  0  0  0
   12.8869  -19.8889   24.5758 N   0  0  0  0  0  0  0  0  0  0  0  0
   13.5905  -19.0408   23.6410 C   0  0  0  0  0  0  0  0  0  0  0  0
   14.8217  -19.0085   23.7847 O   0  0  0  0  0  0  0  0  0  0  0  0
   12.8821  -18.2882   22.6173 C   0  0  0  0  0  0  0  0  0  0  0  0
   11.5407  -17.7587   22.8928 C   0  0  0  0  0  0  0  0  0  0  0  0
   11.4165  -16.2912   23.1758 C   0  0  2  0  0  0  0  0  0  0  0  0
   10.0531  -15.9067   23.4125 N   0  0  0  0  0  0  0  0  0  0  0  0
   12.1834  -15.4404   22.2737 C   0  0  0  0  0  0  0  0  0  0  0  0
   11.6423  -14.5124   21.6409 O   0  0  0  0  0  0  0  0  0  0  0  0
   13.5410  -15.6525   22.1117 O   0  0  0  0  0  0  0  0  0  0  0  0
  2  1  1  1
  3  2  1  0
  4  5  2  0
  4  3  1  0
  6  5  1  0
  7  6  2  0
  8  7  1  0
  8  9  2  0
  9  4  1  0
 10  2  1  0
 11 10  2  0
 13 12  1  0
 13 14  2  0
 15 14  1  0
 16 15  2  0
 17 16  1  0
 18 17  1  1
 18 19  1  0
 19 10  1  0
 20 21  2  0
 20 18  1  0
 22 23  2  0
 22 16  1  0
 23 13  1  0
 25 24  1  0
 26 25  2  0
 27 25  1  0
 28 27  1  0
 29 28  1  6
 29 30  1  0
 30 20  1  0
 31 33  1  0
 31 29  1  0
 32 31  2  0
M  END
$$$$
