FYQ.pdb
     RDKit          3D

 33 34  0  0  1  0  0  0  0  0999 V2000
    8.5070  -15.7765   20.8084 N   0  0  0  0  0  0  0  0  0  0  0  0
    8.3499  -14.9750   21.9902 C   0  0  1  0  0  0  0  0  0  0  0  0
    6.9600  -14.5067   22.2299 C   0  0  0  0  0  0  0  0  0  0  0  0
    6.7832  -13.6881   23.4399 C   0  0  0  0  0  0  0  0  0  0  0  0
    7.2159  -12.3745   23.3753 C   0  0  0  0  0  0  0  0  0  0  0  0
    7.0944  -11.5277   24.4568 C   0  0  0  0  0  0  0  0  0  0  0  0
    6.5304  -11.9726   25.6499 C   0  0  0  0  0  0  0  0  0  0  0  0
    6.1151  -13.2873   25.6647 C   0  0  0  0  0  0  0  0  0  0  0  0
    6.2249  -14.1461   24.6054 C   0  0  0  0  0  0  0  0  0  0  0  0
    8.8456  -15.6708   23.2105 C   0  0  0  0  0  0  0  0  0  0  0  0
    8.7877  -16.9213   23.3261 O   0  0  0  0  0  0  0  0  0  0  0  0
   11.6706  -16.8732   31.5956 O   0  0  0  0  0  0  0  0  0  0  0  0
   11.3510  -16.3290   30.3468 C   0  0  0  0  0  0  0  0  0  0  0  0
   10.6672  -15.1356   30.2504 C   0  0  0  0  0  0  0  0  0  0  0  0
   10.3478  -14.5918   29.0051 C   0  0  0  0  0  0  0  0  0  0  0  0
   10.6997  -15.2197   27.8334 C   0  0  0  0  0  0  0  0  0  0  0  0
   10.3589  -14.6355   26.5155 C   0  0  0  0  0  0  0  0  0  0  0  0
    9.9285  -15.6329   25.4943 C   0  0  2  0  0  0  0  0  0  0  0  0
    9.4084  -14.9537   24.3038 N   0  0  0  0  0  0  0  0  0  0  0  0
    8.9489  -16.6267   25.9451 C   0  0  0  0  0  0  0  0  0  0  0  0
    7.7199  -16.3807   25.8366 O   0  0  0  0  0  0  0  0  0  0  0  0
   11.3845  -16.4148   27.9461 C   0  0  0  0  0  0  0  0  0  0  0  0
   11.7043  -16.9595   29.1725 C   0  0  0  0  0  0  0  0  0  0  0  0
    6.5954  -20.8152   23.3577 N   0  0  0  0  0  0  0  0  0  0  0  0
    5.9547  -20.9335   24.6475 C   0  0  0  0  0  0  0  0  0  0  0  0
    5.0313  -21.7593   24.7018 O   0  0  0  0  0  0  0  0  0  0  0  0
    6.3792  -20.1289   25.7826 C   0  0  0  0  0  0  0  0  0  0  0  0
    7.4480  -19.1357   25.6186 C   0  0  0  0  0  0  0  0  0  0  0  0
    8.3339  -18.8658   26.7982 C   0  0  2  0  0  0  0  0  0  0  0  0
    9.3265  -17.8704   26.5036 N   0  0  0  0  0  0  0  0  0  0  0  0
    8.8011  -20.0651   27.4832 C   0  0  0  0  0  0  0  0  0  0  0  0
   10.0173  -20.2937   27.6338 O   0  0  0  0  0  0  0  0  0  0  0  0
    7.8865  -20.9734   27.9862 O   0  0  0  0  0  0  0  0  0  0  0  0
  2  1  1  6
  3  2  1  0
  4  5  2  0
  4  3  1  0
  6  5  1  0
  7  6  2  0
  8  7  1  0
  8  9  2  0
  9  4  1  0
 10  2  1  0
 11 10  2  0
 13 12  1  0
 13 14  2  0
 15 14  1  0
 16 15  2  0
 17 16  1  0
 18 17  1  1
 18 19  1  0
 19 10  1  0
 20 21  2  0
 20 18  1  0
 22 23  2  0
 22 16  1  0
 23 13  1  0
 25 24  1  0
 26 25  2  0
 27 25  1  0
 28 27  1  0
 29 28  1  6
 29 30  1  0
 30 20  1  0
 31 33  1  0
 31 29  1  0
 32 31  2  0
M  END
$$$$
