FYQ.pdb
     RDKit          3D

 33 34  0  0  1  0  0  0  0  0999 V2000
    6.2013  -18.2974   26.4596 N   0  0  0  0  0  0  0  0  0  0  0  0
    6.3595  -16.9029   26.1532 C   0  0  1  0  0  0  0  0  0  0  0  0
    6.9829  -16.1056   27.2414 C   0  0  0  0  0  0  0  0  0  0  0  0
    7.0180  -14.6540   27.0025 C   0  0  0  0  0  0  0  0  0  0  0  0
    8.2650  -14.0527   26.9860 C   0  0  0  0  0  0  0  0  0  0  0  0
    8.4026  -12.6976   26.7708 C   0  0  0  0  0  0  0  0  0  0  0  0
    7.2855  -11.8924   26.5630 C   0  0  0  0  0  0  0  0  0  0  0  0
    6.0669  -12.5372   26.5887 C   0  0  0  0  0  0  0  0  0  0  0  0
    5.9052  -13.8791   26.8001 C   0  0  0  0  0  0  0  0  0  0  0  0
    7.1251  -16.6881   24.8934 C   0  0  0  0  0  0  0  0  0  0  0  0
    8.1664  -17.3433   24.6347 O   0  0  0  0  0  0  0  0  0  0  0  0
    9.2659  -13.6029   16.7777 O   0  0  0  0  0  0  0  0  0  0  0  0
    8.6568  -13.8255   18.0175 C   0  0  0  0  0  0  0  0  0  0  0  0
    8.6572  -12.8484   18.9904 C   0  0  0  0  0  0  0  0  0  0  0  0
    8.0498  -13.0695   20.2276 C   0  0  0  0  0  0  0  0  0  0  0  0
    7.4313  -14.2614   20.5236 C   0  0  0  0  0  0  0  0  0  0  0  0
    6.7873  -14.4880   21.8382 C   0  0  0  0  0  0  0  0  0  0  0  0
    7.4872  -15.4815   22.7020 C   0  0  2  0  0  0  0  0  0  0  0  0
    6.7148  -15.7313   23.9227 N   0  0  0  0  0  0  0  0  0  0  0  0
    8.8677  -15.1494   23.0682 C   0  0  0  0  0  0  0  0  0  0  0  0
    9.0954  -14.1342   23.7755 O   0  0  0  0  0  0  0  0  0  0  0  0
    7.4391  -15.2310   19.5387 C   0  0  0  0  0  0  0  0  0  0  0  0
    8.0369  -15.0212   18.3133 C   0  0  0  0  0  0  0  0  0  0  0  0
   11.8415  -15.5592   27.5841 N   0  0  0  0  0  0  0  0  0  0  0  0
   12.0348  -16.7791   26.8339 C   0  0  0  0  0  0  0  0  0  0  0  0
   12.4399  -17.7453   27.4971 O   0  0  0  0  0  0  0  0  0  0  0  0
   11.7690  -16.8417   25.4051 C   0  0  0  0  0  0  0  0  0  0  0  0
   11.2664  -15.6559   24.7001 C   0  0  0  0  0  0  0  0  0  0  0  0
   11.2803  -15.6801   23.2006 C   0  0  2  0  0  0  0  0  0  0  0  0
    9.9740  -15.9304   22.6587 N   0  0  0  0  0  0  0  0  0  0  0  0
   12.3794  -16.4452   22.6241 C   0  0  0  0  0  0  0  0  0  0  0  0
   13.5380  -15.9865   22.5843 O   0  0  0  0  0  0  0  0  0  0  0  0
   12.1469  -17.7094   22.1125 O   0  0  0  0  0  0  0  0  0  0  0  0
  2  1  1  1
  3  2  1  0
  4  5  2  0
  4  3  1  0
  6  5  1  0
  7  6  2  0
  8  7  1  0
  8  9  2  0
  9  4  1  0
 10  2  1  0
 11 10  2  0
 13 12  1  0
 13 14  2  0
 15 14  1  0
 16 15  2  0
 17 16  1  0
 18 17  1  1
 18 19  1  0
 19 10  1  0
 20 21  2  0
 20 18  1  0
 22 23  2  0
 22 16  1  0
 23 13  1  0
 25 24  1  0
 26 25  2  0
 27 25  1  0
 28 27  1  0
 29 28  1  1
 29 30  1  0
 30 20  1  0
 31 33  1  0
 31 29  1  0
 32 31  2  0
M  END
$$$$
