FYQ.pdb
     RDKit          3D

 33 34  0  0  1  0  0  0  0  0999 V2000
    5.6669  -18.1277   26.0236 N   0  0  0  0  0  0  0  0  0  0  0  0
    6.1502  -16.7832   25.8739 C   0  0  1  0  0  0  0  0  0  0  0  0
    6.9265  -16.2805   27.0370 C   0  0  0  0  0  0  0  0  0  0  0  0
    7.3183  -14.8645   26.9539 C   0  0  0  0  0  0  0  0  0  0  0  0
    6.3085  -13.9270   27.0903 C   0  0  0  0  0  0  0  0  0  0  0  0
    6.5744  -12.5754   27.0265 C   0  0  0  0  0  0  0  0  0  0  0  0
    7.8722  -12.1136   26.8222 C   0  0  0  0  0  0  0  0  0  0  0  0
    8.8421  -13.0851   26.6923 C   0  0  0  0  0  0  0  0  0  0  0  0
    8.6032  -14.4308   26.7519 C   0  0  0  0  0  0  0  0  0  0  0  0
    6.9628  -16.6130   24.6370 C   0  0  0  0  0  0  0  0  0  0  0  0
    7.6960  -17.5349   24.1976 O   0  0  0  0  0  0  0  0  0  0  0  0
    9.0489  -13.5661   16.5493 O   0  0  0  0  0  0  0  0  0  0  0  0
    8.6297  -13.6588   17.8810 C   0  0  0  0  0  0  0  0  0  0  0  0
    7.6755  -14.5797   18.2587 C   0  0  0  0  0  0  0  0  0  0  0  0
    7.2566  -14.6731   19.5869 C   0  0  0  0  0  0  0  0  0  0  0  0
    7.7747  -13.8567   20.5646 C   0  0  0  0  0  0  0  0  0  0  0  0
    7.3264  -13.9630   21.9725 C   0  0  0  0  0  0  0  0  0  0  0  0
    7.6877  -15.2481   22.6368 C   0  0  2  0  0  0  0  0  0  0  0  0
    6.9483  -15.3993   23.8936 N   0  0  0  0  0  0  0  0  0  0  0  0
    9.1165  -15.4547   22.8938 C   0  0  0  0  0  0  0  0  0  0  0  0
    9.7025  -14.7440   23.7508 O   0  0  0  0  0  0  0  0  0  0  0  0
    8.7300  -12.9389   20.1709 C   0  0  0  0  0  0  0  0  0  0  0  0
    9.1499  -12.8396   18.8606 C   0  0  0  0  0  0  0  0  0  0  0  0
   12.0823  -14.4972   17.9936 N   0  0  0  0  0  0  0  0  0  0  0  0
   13.0740  -14.6490   19.0337 C   0  0  0  0  0  0  0  0  0  0  0  0
   14.2403  -14.7780   18.6330 O   0  0  0  0  0  0  0  0  0  0  0  0
   12.7043  -14.6500   20.4406 C   0  0  0  0  0  0  0  0  0  0  0  0
   11.3569  -15.0710   20.8444 C   0  0  0  0  0  0  0  0  0  0  0  0
   11.2462  -16.1703   21.8585 C   0  0  2  0  0  0  0  0  0  0  0  0
    9.8797  -16.4329   22.2140 N   0  0  0  0  0  0  0  0  0  0  0  0
   12.1949  -16.0661   22.9607 C   0  0  0  0  0  0  0  0  0  0  0  0
   11.9176  -15.4313   23.9972 O   0  0  0  0  0  0  0  0  0  0  0  0
   13.4293  -16.6843   22.8699 O   0  0  0  0  0  0  0  0  0  0  0  0
  2  1  1  1
  3  2  1  0
  4  5  2  0
  4  3  1  0
  6  5  1  0
  7  6  2  0
  8  7  1  0
  8  9  2  0
  9  4  1  0
 10  2  1  0
 11 10  2  0
 13 12  1  0
 13 14  2  0
 15 14  1  0
 16 15  2  0
 17 16  1  0
 18 17  1  1
 18 19  1  0
 19 10  1  0
 20 21  2  0
 20 18  1  0
 22 23  2  0
 22 16  1  0
 23 13  1  0
 25 24  1  0
 26 25  2  0
 27 25  1  0
 28 27  1  0
 29 28  1  1
 29 30  1  0
 30 20  1  0
 31 33  1  0
 31 29  1  0
 32 31  2  0
M  END
$$$$
