CGI.pdb
     RDKit          3D

 19 18  0  0  1  0  0  0  0  0999 V2000
    8.3556  -15.4281   17.4963 N   0  0  0  0  0  0  0  0  0  0  0  0
    8.3158  -14.5880   18.6712 C   0  0  1  0  0  0  0  0  0  0  0  0
    7.5553  -13.2944   18.3771 C   0  0  0  0  0  0  0  0  0  0  0  0
    8.5904  -12.0900   17.5498 S   0  0  0  0  0  0  0  0  0  0  0  0
    7.6594  -15.3388   19.7699 C   0  0  0  0  0  0  0  0  0  0  0  0
    6.7580  -16.1845   19.5309 O   0  0  0  0  0  0  0  0  0  0  0  0
    8.0415  -15.1135   21.1265 N   0  0  0  0  0  0  0  0  0  0  0  0
    7.3839  -15.7932   22.2248 C   0  0  0  0  0  0  0  0  0  0  0  0
    8.0825  -15.4471   23.5007 C   0  0  0  0  0  0  0  0  0  0  0  0
    9.3440  -15.3602   23.5606 O   0  0  0  0  0  0  0  0  0  0  0  0
    5.8742  -11.6498   26.3747 C   0  0  0  0  0  0  0  0  0  0  0  0
    6.6881  -12.7058   25.7467 C   0  0  0  0  0  0  0  0  0  0  0  0
    7.3637  -13.6986   26.6296 C   0  0  2  0  0  0  0  0  0  0  0  0
    8.1089  -12.9699   27.7220 C   0  0  0  0  0  0  0  0  0  0  0  0
    8.0368  -14.7964   25.9570 C   0  0  2  0  0  0  0  0  0  0  0  0
    7.4075  -15.1975   24.7029 N   0  0  0  0  0  0  0  0  0  0  0  0
    8.3417  -16.0204   26.6925 C   0  0  0  0  0  0  0  0  0  0  0  0
    9.4198  -16.2598   27.5229 O   0  0  0  0  0  0  0  0  0  0  0  0
    7.5430  -17.0145   26.5783 O   0  0  0  0  0  0  0  0  0  0  0  0
  2  1  1  6
  3  2  1  0
  3  4  1  0
  5  6  2  0
  5  2  1  0
  7  5  1  0
  8  7  1  0
  9  8  1  0
  9 10  2  0
 11 12  1  0
 12 13  1  0
 13 14  1  6
 15 13  1  0
 15 16  1  6
 16  9  1  0
 17 15  1  0
 18 17  1  0
 19 17  2  0
M  END
$$$$
