CGI.pdb
     RDKit          3D

 19 18  0  0  1  0  0  0  0  0999 V2000
    7.9746  -14.9913   17.5053 N   0  0  0  0  0  0  0  0  0  0  0  0
    8.1538  -14.3391   18.7822 C   0  0  1  0  0  0  0  0  0  0  0  0
    7.4945  -12.9595   18.7742 C   0  0  0  0  0  0  0  0  0  0  0  0
    8.4890  -11.7544   17.8992 S   0  0  0  0  0  0  0  0  0  0  0  0
    7.5588  -15.1936   19.8395 C   0  0  0  0  0  0  0  0  0  0  0  0
    6.6231  -15.9940   19.5779 O   0  0  0  0  0  0  0  0  0  0  0  0
    8.0409  -15.1221   21.1810 N   0  0  0  0  0  0  0  0  0  0  0  0
    7.4669  -15.9289   22.2394 C   0  0  0  0  0  0  0  0  0  0  0  0
    8.1700  -15.6214   23.5228 C   0  0  0  0  0  0  0  0  0  0  0  0
    9.4316  -15.6715   23.6133 O   0  0  0  0  0  0  0  0  0  0  0  0
    5.7817  -12.0095   27.3405 C   0  0  0  0  0  0  0  0  0  0  0  0
    6.2404  -13.2766   26.7439 C   0  0  0  0  0  0  0  0  0  0  0  0
    7.6286  -13.3445   26.2056 C   0  0  2  0  0  0  0  0  0  0  0  0
    7.8256  -12.2435   25.1916 C   0  0  0  0  0  0  0  0  0  0  0  0
    8.1222  -14.6714   25.8795 C   0  0  2  0  0  0  0  0  0  0  0  0
    7.4992  -15.2614   24.6991 N   0  0  0  0  0  0  0  0  0  0  0  0
    8.1540  -15.7070   26.9084 C   0  0  0  0  0  0  0  0  0  0  0  0
    8.9425  -15.7464   28.0424 O   0  0  0  0  0  0  0  0  0  0  0  0
    7.3778  -16.7171   26.7800 O   0  0  0  0  0  0  0  0  0  0  0  0
  2  1  1  6
  3  2  1  0
  3  4  1  0
  5  6  2  0
  5  2  1  0
  7  5  1  0
  8  7  1  0
  9  8  1  0
  9 10  2  0
 11 12  1  0
 12 13  1  0
 13 14  1  6
 15 13  1  0
 15 16  1  6
 16  9  1  0
 17 15  1  0
 18 17  1  0
 19 17  2  0
M  END
$$$$
