CGI.pdb
     RDKit          3D

 19 18  0  0  1  0  0  0  0  0999 V2000
    7.5619  -19.4933   20.9491 N   0  0  0  0  0  0  0  0  0  0  0  0
    7.0588  -19.2722   22.2855 C   0  0  1  0  0  0  0  0  0  0  0  0
    8.1330  -19.6036   23.3220 C   0  0  0  0  0  0  0  0  0  0  0  0
    7.5235  -19.4076   24.9944 S   0  0  0  0  0  0  0  0  0  0  0  0
    6.6395  -17.8539   22.4064 C   0  0  0  0  0  0  0  0  0  0  0  0
    5.7674  -17.5034   23.2437 O   0  0  0  0  0  0  0  0  0  0  0  0
    7.2222  -16.8555   21.5692 N   0  0  0  0  0  0  0  0  0  0  0  0
    6.8885  -15.4524   21.7135 C   0  0  0  0  0  0  0  0  0  0  0  0
    7.7237  -14.8623   22.8043 C   0  0  0  0  0  0  0  0  0  0  0  0
    8.8783  -14.3971   22.5741 O   0  0  0  0  0  0  0  0  0  0  0  0
    6.9785  -10.9789   27.3462 C   0  0  0  0  0  0  0  0  0  0  0  0
    7.7719  -12.0721   26.7568 C   0  0  0  0  0  0  0  0  0  0  0  0
    7.1179  -12.9616   25.7555 C   0  0  2  0  0  0  0  0  0  0  0  0
    5.7434  -13.3440   26.2493 C   0  0  0  0  0  0  0  0  0  0  0  0
    7.9545  -14.0035   25.1851 C   0  0  2  0  0  0  0  0  0  0  0  0
    7.3004  -14.7810   24.1376 N   0  0  0  0  0  0  0  0  0  0  0  0
    8.6299  -14.9541   26.0639 C   0  0  0  0  0  0  0  0  0  0  0  0
    9.7483  -14.7340   26.8451 O   0  0  0  0  0  0  0  0  0  0  0  0
    8.1652  -16.1443   26.1455 O   0  0  0  0  0  0  0  0  0  0  0  0
  2  1  1  6
  3  2  1  0
  3  4  1  0
  5  6  2  0
  5  2  1  0
  7  5  1  0
  8  7  1  0
  9  8  1  0
  9 10  2  0
 11 12  1  0
 12 13  1  0
 13 14  1  1
 15 13  1  0
 15 16  1  6
 16  9  1  0
 17 15  1  0
 18 17  1  0
 19 17  2  0
M  END
$$$$
