CGI.pdb
     RDKit          3D

 19 18  0  0  1  0  0  0  0  0999 V2000
   10.9152  -17.5597   19.4199 N   0  0  0  0  0  0  0  0  0  0  0  0
    9.6096  -17.0014   19.1528 C   0  0  1  0  0  0  0  0  0  0  0  0
    8.8474  -17.8776   18.1581 C   0  0  0  0  0  0  0  0  0  0  0  0
    7.1729  -17.2944   17.9081 S   0  0  0  0  0  0  0  0  0  0  0  0
    8.8657  -16.8999   20.4327 C   0  0  0  0  0  0  0  0  0  0  0  0
    8.7732  -17.8854   21.2104 O   0  0  0  0  0  0  0  0  0  0  0  0
    8.2376  -15.6740   20.8069 N   0  0  0  0  0  0  0  0  0  0  0  0
    7.3117  -15.6024   21.9196 C   0  0  0  0  0  0  0  0  0  0  0  0
    8.0531  -15.1689   23.1437 C   0  0  0  0  0  0  0  0  0  0  0  0
    9.3055  -14.9854   23.1271 O   0  0  0  0  0  0  0  0  0  0  0  0
    5.7382  -11.3898   26.0283 C   0  0  0  0  0  0  0  0  0  0  0  0
    6.6142  -12.3870   25.3878 C   0  0  0  0  0  0  0  0  0  0  0  0
    7.3078  -13.3814   26.2547 C   0  0  2  0  0  0  0  0  0  0  0  0
    7.9478  -12.6671   27.4208 C   0  0  0  0  0  0  0  0  0  0  0  0
    8.0841  -14.3974   25.5650 C   0  0  2  0  0  0  0  0  0  0  0  0
    7.4303  -14.9375   24.3773 N   0  0  0  0  0  0  0  0  0  0  0  0
    8.6196  -15.5325   26.3112 C   0  0  0  0  0  0  0  0  0  0  0  0
    9.8091  -15.5968   27.0116 O   0  0  0  0  0  0  0  0  0  0  0  0
    7.9396  -16.6168   26.3415 O   0  0  0  0  0  0  0  0  0  0  0  0
  2  1  1  1
  3  2  1  0
  3  4  1  0
  5  6  2  0
  5  2  1  0
  7  5  1  0
  8  7  1  0
  9  8  1  0
  9 10  2  0
 11 12  1  0
 12 13  1  0
 13 14  1  1
 15 13  1  0
 15 16  1  6
 16  9  1  0
 17 15  1  0
 18 17  1  0
 19 17  2  0
M  END
$$$$
