CGI.pdb
     RDKit          3D

 19 18  0  0  1  0  0  0  0  0999 V2000
    8.0250  -14.8823   17.5708 N   0  0  0  0  0  0  0  0  0  0  0  0
    8.4545  -14.3041   18.8234 C   0  0  1  0  0  0  0  0  0  0  0  0
    8.0794  -12.8230   18.8843 C   0  0  0  0  0  0  0  0  0  0  0  0
    9.1622  -11.8225   17.8678 S   0  0  0  0  0  0  0  0  0  0  0  0
    7.8130  -15.0491   19.9349 C   0  0  0  0  0  0  0  0  0  0  0  0
    6.6159  -15.4301   19.8560 O   0  0  0  0  0  0  0  0  0  0  0  0
    8.5478  -15.3485   21.1214 N   0  0  0  0  0  0  0  0  0  0  0  0
    7.9600  -16.1041   22.2096 C   0  0  0  0  0  0  0  0  0  0  0  0
    8.4671  -15.5634   23.5082 C   0  0  0  0  0  0  0  0  0  0  0  0
    9.7069  -15.4534   23.7390 O   0  0  0  0  0  0  0  0  0  0  0  0
    5.6449  -12.1775   27.4077 C   0  0  0  0  0  0  0  0  0  0  0  0
    6.0726  -13.1432   26.3799 C   0  0  0  0  0  0  0  0  0  0  0  0
    7.5180  -13.2019   26.0210 C   0  0  2  0  0  0  0  0  0  0  0  0
    7.8259  -12.1233   25.0104 C   0  0  0  0  0  0  0  0  0  0  0  0
    8.0657  -14.5283   25.7944 C   0  0  2  0  0  0  0  0  0  0  0  0
    7.6253  -15.1458   24.5476 N   0  0  0  0  0  0  0  0  0  0  0  0
    7.9579  -15.5457   26.8362 C   0  0  0  0  0  0  0  0  0  0  0  0
    8.6323  -15.5947   28.0413 O   0  0  0  0  0  0  0  0  0  0  0  0
    7.1580  -16.5275   26.6482 O   0  0  0  0  0  0  0  0  0  0  0  0
  2  1  1  6
  3  2  1  0
  3  4  1  0
  5  6  2  0
  5  2  1  0
  7  5  1  0
  8  7  1  0
  9  8  1  0
  9 10  2  0
 11 12  1  0
 12 13  1  0
 13 14  1  6
 15 13  1  0
 15 16  1  6
 16  9  1  0
 17 15  1  0
 18 17  1  0
 19 17  2  0
M  END
$$$$
