CGI.pdb
     RDKit          3D

 19 18  0  0  1  0  0  0  0  0999 V2000
    5.2915  -18.3753   24.0753 N   0  0  0  0  0  0  0  0  0  0  0  0
    5.0682  -18.6547   22.6753 C   0  0  1  0  0  0  0  0  0  0  0  0
    3.5772  -18.5746   22.3461 C   0  0  0  0  0  0  0  0  0  0  0  0
    3.2889  -18.5452   20.5790 S   0  0  0  0  0  0  0  0  0  0  0  0
    5.8326  -17.6725   21.8673 C   0  0  0  0  0  0  0  0  0  0  0  0
    6.2982  -17.9814   20.7392 O   0  0  0  0  0  0  0  0  0  0  0  0
    6.0547  -16.3511   22.3588 N   0  0  0  0  0  0  0  0  0  0  0  0
    7.1657  -15.5439   21.8952 C   0  0  0  0  0  0  0  0  0  0  0  0
    7.9712  -15.0999   23.0741 C   0  0  0  0  0  0  0  0  0  0  0  0
    9.0611  -14.4721   22.9308 O   0  0  0  0  0  0  0  0  0  0  0  0
    5.7353  -12.1183   26.2642 C   0  0  0  0  0  0  0  0  0  0  0  0
    6.7608  -12.9078   25.5591 C   0  0  0  0  0  0  0  0  0  0  0  0
    7.5817  -13.8690   26.3489 C   0  0  2  0  0  0  0  0  0  0  0  0
    8.3314  -13.1198   27.4241 C   0  0  0  0  0  0  0  0  0  0  0  0
    8.3030  -14.8712   25.5834 C   0  0  2  0  0  0  0  0  0  0  0  0
    7.5886  -15.3401   24.4004 N   0  0  0  0  0  0  0  0  0  0  0  0
    8.8374  -16.0520   26.2556 C   0  0  0  0  0  0  0  0  0  0  0  0
    9.9279  -16.1207   27.1016 O   0  0  0  0  0  0  0  0  0  0  0  0
    8.2588  -17.1775   26.0615 O   0  0  0  0  0  0  0  0  0  0  0  0
  2  1  1  1
  3  2  1  0
  3  4  1  0
  5  6  2  0
  5  2  1  0
  7  5  1  0
  8  7  1  0
  9  8  1  0
  9 10  2  0
 11 12  1  0
 12 13  1  0
 13 14  1  6
 15 13  1  0
 15 16  1  6
 16  9  1  0
 17 15  1  0
 18 17  1  0
 19 17  2  0
M  END
$$$$
