CGI.pdb
     RDKit          3D

 19 18  0  0  1  0  0  0  0  0999 V2000
    5.7742  -19.4075   22.6035 N   0  0  0  0  0  0  0  0  0  0  0  0
    5.2888  -19.0251   21.2974 C   0  0  1  0  0  0  0  0  0  0  0  0
    3.7599  -19.0189   21.2767 C   0  0  0  0  0  0  0  0  0  0  0  0
    3.0839  -17.9524   22.5465 S   0  0  0  0  0  0  0  0  0  0  0  0
    5.8188  -17.6785   20.9694 C   0  0  0  0  0  0  0  0  0  0  0  0
    5.6275  -17.1631   19.8370 O   0  0  0  0  0  0  0  0  0  0  0  0
    6.5600  -16.9390   21.9394 N   0  0  0  0  0  0  0  0  0  0  0  0
    7.0624  -15.6084   21.6603 C   0  0  0  0  0  0  0  0  0  0  0  0
    7.8556  -15.1305   22.8342 C   0  0  0  0  0  0  0  0  0  0  0  0
    9.0195  -14.6527   22.6947 O   0  0  0  0  0  0  0  0  0  0  0  0
    5.8875  -11.7507   26.1005 C   0  0  0  0  0  0  0  0  0  0  0  0
    6.7737  -12.6705   25.3652 C   0  0  0  0  0  0  0  0  0  0  0  0
    7.4705  -13.7444   26.1285 C   0  0  2  0  0  0  0  0  0  0  0  0
    8.2371  -13.1266   27.2731 C   0  0  0  0  0  0  0  0  0  0  0  0
    8.1316  -14.7654   25.3342 C   0  0  2  0  0  0  0  0  0  0  0  0
    7.3805  -15.1744   24.1517 N   0  0  0  0  0  0  0  0  0  0  0  0
    8.6145  -15.9847   25.9761 C   0  0  0  0  0  0  0  0  0  0  0  0
    8.1611  -17.2760   25.7848 O   0  0  0  0  0  0  0  0  0  0  0  0
    9.5669  -15.8891   26.8265 O   0  0  0  0  0  0  0  0  0  0  0  0
  2  1  1  1
  3  2  1  0
  3  4  1  0
  5  6  2  0
  5  2  1  0
  7  5  1  0
  8  7  1  0
  9  8  1  0
  9 10  2  0
 11 12  1  0
 12 13  1  0
 13 14  1  6
 15 13  1  0
 15 16  1  6
 16  9  1  0
 17 15  1  0
 18 17  1  0
 19 17  2  0
M  END
$$$$
