CGI.pdb
     RDKit          3D

 19 18  0  0  1  0  0  0  0  0999 V2000
    7.5728  -19.7655   20.8968 N   0  0  0  0  0  0  0  0  0  0  0  0
    6.8315  -18.6272   20.4044 C   0  0  1  0  0  0  0  0  0  0  0  0
    5.6281  -19.0890   19.5818 C   0  0  0  0  0  0  0  0  0  0  0  0
    6.0116  -20.5375   18.6012 S   0  0  0  0  0  0  0  0  0  0  0  0
    6.3880  -17.8123   21.5624 C   0  0  0  0  0  0  0  0  0  0  0  0
    5.7926  -16.7158   21.3953 O   0  0  0  0  0  0  0  0  0  0  0  0
    6.6305  -18.2610   22.8955 N   0  0  0  0  0  0  0  0  0  0  0  0
    6.1498  -17.5222   24.0460 C   0  0  0  0  0  0  0  0  0  0  0  0
    7.1927  -16.5347   24.4618 C   0  0  0  0  0  0  0  0  0  0  0  0
    8.2898  -16.4308   23.8388 O   0  0  0  0  0  0  0  0  0  0  0  0
    5.4728  -11.8189   26.4846 C   0  0  0  0  0  0  0  0  0  0  0  0
    6.3028  -12.8299   25.8058 C   0  0  0  0  0  0  0  0  0  0  0  0
    7.3986  -13.4812   26.5781 C   0  0  2  0  0  0  0  0  0  0  0  0
    8.3149  -12.4196   27.1374 C   0  0  0  0  0  0  0  0  0  0  0  0
    8.0019  -14.6524   25.9655 C   0  0  2  0  0  0  0  0  0  0  0  0
    7.0381  -15.6665   25.5507 N   0  0  0  0  0  0  0  0  0  0  0  0
    9.0886  -15.3495   26.6475 C   0  0  0  0  0  0  0  0  0  0  0  0
    8.9952  -16.2080   27.7262 O   0  0  0  0  0  0  0  0  0  0  0  0
   10.2853  -15.1677   26.2303 O   0  0  0  0  0  0  0  0  0  0  0  0
  2  1  1  1
  3  2  1  0
  3  4  1  0
  5  6  2  0
  5  2  1  0
  7  5  1  0
  8  7  1  0
  9  8  1  0
  9 10  2  0
 11 12  1  0
 12 13  1  0
 13 14  1  6
 15 13  1  0
 15 16  1  1
 16  9  1  0
 17 15  1  0
 18 17  1  0
 19 17  2  0
M  END
$$$$
