CGI.pdb
     RDKit          3D

 19 18  0  0  1  0  0  0  0  0999 V2000
    7.6891  -19.7919   22.0850 N   0  0  0  0  0  0  0  0  0  0  0  0
    6.5550  -19.4868   22.9267 C   0  0  1  0  0  0  0  0  0  0  0  0
    6.8544  -19.8550   24.3802 C   0  0  0  0  0  0  0  0  0  0  0  0
    7.2840  -18.4149   25.3541 S   0  0  0  0  0  0  0  0  0  0  0  0
    6.2521  -18.0389   22.8088 C   0  0  0  0  0  0  0  0  0  0  0  0
    5.1789  -17.5608   23.2608 O   0  0  0  0  0  0  0  0  0  0  0  0
    7.1793  -17.1571   22.1764 N   0  0  0  0  0  0  0  0  0  0  0  0
    6.9839  -15.7209   22.1760 C   0  0  0  0  0  0  0  0  0  0  0  0
    7.8750  -15.1074   23.2082 C   0  0  0  0  0  0  0  0  0  0  0  0
    9.0482  -14.7253   22.9252 O   0  0  0  0  0  0  0  0  0  0  0  0
    6.0573  -11.7587   27.4882 C   0  0  0  0  0  0  0  0  0  0  0  0
    6.4170  -12.9339   26.6749 C   0  0  0  0  0  0  0  0  0  0  0  0
    7.6934  -12.8994   25.9060 C   0  0  2  0  0  0  0  0  0  0  0  0
    7.6023  -11.8401   24.8341 C   0  0  0  0  0  0  0  0  0  0  0  0
    8.2570  -14.1894   25.5471 C   0  0  2  0  0  0  0  0  0  0  0  0
    7.4869  -14.9127   24.5404 N   0  0  0  0  0  0  0  0  0  0  0  0
    8.5990  -15.1485   26.5936 C   0  0  0  0  0  0  0  0  0  0  0  0
    9.4099  -14.9441   27.6937 O   0  0  0  0  0  0  0  0  0  0  0  0
    8.1143  -16.3311   26.5180 O   0  0  0  0  0  0  0  0  0  0  0  0
  2  1  1  6
  3  2  1  0
  3  4  1  0
  5  6  2  0
  5  2  1  0
  7  5  1  0
  8  7  1  0
  9  8  1  0
  9 10  2  0
 11 12  1  0
 12 13  1  0
 13 14  1  6
 15 13  1  0
 15 16  1  6
 16  9  1  0
 17 15  1  0
 18 17  1  0
 19 17  2  0
M  END
$$$$
