CGI.pdb
     RDKit          3D

 19 18  0  0  1  0  0  0  0  0999 V2000
    5.8299  -20.1063   19.9819 N   0  0  0  0  0  0  0  0  0  0  0  0
    6.8422  -19.1780   20.4305 C   0  0  1  0  0  0  0  0  0  0  0  0
    7.3222  -18.3087   19.2678 C   0  0  0  0  0  0  0  0  0  0  0  0
    8.3752  -16.9734   19.8290 S   0  0  0  0  0  0  0  0  0  0  0  0
    6.2688  -18.3345   21.5083 C   0  0  0  0  0  0  0  0  0  0  0  0
    5.1900  -17.7083   21.3388 O   0  0  0  0  0  0  0  0  0  0  0  0
    6.9355  -18.2179   22.7649 N   0  0  0  0  0  0  0  0  0  0  0  0
    6.3911  -17.4171   23.8433 C   0  0  0  0  0  0  0  0  0  0  0  0
    7.4062  -16.3995   24.2555 C   0  0  0  0  0  0  0  0  0  0  0  0
    8.5324  -16.3204   23.6829 O   0  0  0  0  0  0  0  0  0  0  0  0
    6.3115  -11.6517   27.5961 C   0  0  0  0  0  0  0  0  0  0  0  0
    6.5117  -12.9829   26.9964 C   0  0  0  0  0  0  0  0  0  0  0  0
    7.3780  -13.0925   25.7885 C   0  0  2  0  0  0  0  0  0  0  0  0
    6.6535  -12.5085   24.5996 C   0  0  0  0  0  0  0  0  0  0  0  0
    8.0716  -14.3570   25.6136 C   0  0  2  0  0  0  0  0  0  0  0  0
    7.1922  -15.4745   25.2860 N   0  0  0  0  0  0  0  0  0  0  0  0
    8.9942  -14.8271   26.6431 C   0  0  0  0  0  0  0  0  0  0  0  0
   10.2167  -14.2857   26.9920 O   0  0  0  0  0  0  0  0  0  0  0  0
    8.6718  -15.8632   27.3227 O   0  0  0  0  0  0  0  0  0  0  0  0
  2  1  1  6
  3  2  1  0
  3  4  1  0
  5  6  2  0
  5  2  1  0
  7  5  1  0
  8  7  1  0
  9  8  1  0
  9 10  2  0
 11 12  1  0
 12 13  1  0
 13 14  1  6
 15 13  1  0
 15 16  1  1
 16  9  1  0
 17 15  1  0
 18 17  1  0
 19 17  2  0
M  END
$$$$
