CGI.pdb
     RDKit          3D

 19 18  0  0  1  0  0  0  0  0999 V2000
    4.5820  -20.2523   22.4027 N   0  0  0  0  0  0  0  0  0  0  0  0
    5.1565  -19.3475   21.4337 C   0  0  1  0  0  0  0  0  0  0  0  0
    4.1680  -19.0843   20.2972 C   0  0  0  0  0  0  0  0  0  0  0  0
    2.5334  -18.6957   20.9168 S   0  0  0  0  0  0  0  0  0  0  0  0
    5.5103  -18.0799   22.1192 C   0  0  0  0  0  0  0  0  0  0  0  0
    6.3348  -17.2752   21.6118 O   0  0  0  0  0  0  0  0  0  0  0  0
    4.9175  -17.7488   23.3746 N   0  0  0  0  0  0  0  0  0  0  0  0
    5.6672  -17.8230   24.6128 C   0  0  0  0  0  0  0  0  0  0  0  0
    6.6443  -16.6921   24.6597 C   0  0  0  0  0  0  0  0  0  0  0  0
    7.2466  -16.2959   23.6192 O   0  0  0  0  0  0  0  0  0  0  0  0
    5.5993  -12.1327   26.5913 C   0  0  0  0  0  0  0  0  0  0  0  0
    6.4624  -13.0511   25.8274 C   0  0  0  0  0  0  0  0  0  0  0  0
    7.5702  -13.7435   26.5449 C   0  0  2  0  0  0  0  0  0  0  0  0
    8.6177  -12.7312   26.9420 C   0  0  0  0  0  0  0  0  0  0  0  0
    8.0167  -15.0000   25.9682 C   0  0  2  0  0  0  0  0  0  0  0  0
    6.9611  -15.9988   25.8355 N   0  0  0  0  0  0  0  0  0  0  0  0
    9.1815  -15.6811   26.5261 C   0  0  0  0  0  0  0  0  0  0  0  0
    9.2073  -16.6063   27.5521 O   0  0  0  0  0  0  0  0  0  0  0  0
   10.3347  -15.4147   26.0377 O   0  0  0  0  0  0  0  0  0  0  0  0
  2  1  1  1
  3  2  1  0
  3  4  1  0
  5  6  2  0
  5  2  1  0
  7  5  1  0
  8  7  1  0
  9  8  1  0
  9 10  2  0
 11 12  1  0
 12 13  1  0
 13 14  1  6
 15 13  1  0
 15 16  1  1
 16  9  1  0
 17 15  1  0
 18 17  1  0
 19 17  2  0
M  END
$$$$
