CGI.pdb
     RDKit          3D

 19 18  0  0  1  0  0  0  0  0999 V2000
    9.0079  -12.6939   18.7421 N   0  0  0  0  0  0  0  0  0  0  0  0
    9.2182  -14.1216   18.6688 C   0  0  1  0  0  0  0  0  0  0  0  0
   10.6630  -14.4677   19.0308 C   0  0  0  0  0  0  0  0  0  0  0  0
   11.5228  -13.0662   19.7401 S   0  0  0  0  0  0  0  0  0  0  0  0
    8.2748  -14.7889   19.5997 C   0  0  0  0  0  0  0  0  0  0  0  0
    8.1030  -16.0356   19.5675 O   0  0  0  0  0  0  0  0  0  0  0  0
    7.5405  -14.0232   20.5545 N   0  0  0  0  0  0  0  0  0  0  0  0
    6.7055  -14.6555   21.5563 C   0  0  0  0  0  0  0  0  0  0  0  0
    7.4606  -14.7288   22.8448 C   0  0  0  0  0  0  0  0  0  0  0  0
    8.7255  -14.6858   22.8726 O   0  0  0  0  0  0  0  0  0  0  0  0
    5.7924  -11.9696   27.3553 C   0  0  0  0  0  0  0  0  0  0  0  0
    5.9815  -13.1683   26.5191 C   0  0  0  0  0  0  0  0  0  0  0  0
    7.3607  -13.5046   26.0648 C   0  0  2  0  0  0  0  0  0  0  0  0
    7.9921  -12.2841   25.4394 C   0  0  0  0  0  0  0  0  0  0  0  0
    7.5154  -14.7793   25.3852 C   0  0  2  0  0  0  0  0  0  0  0  0
    6.8380  -14.8483   24.0944 N   0  0  0  0  0  0  0  0  0  0  0  0
    7.2134  -16.0203   26.0928 C   0  0  0  0  0  0  0  0  0  0  0  0
    7.9116  -16.5844   27.1434 O   0  0  0  0  0  0  0  0  0  0  0  0
    6.1917  -16.6983   25.7244 O   0  0  0  0  0  0  0  0  0  0  0  0
  2  1  1  1
  3  2  1  0
  3  4  1  0
  5  6  2  0
  5  2  1  0
  7  5  1  0
  8  7  1  0
  9  8  1  0
  9 10  2  0
 11 12  1  0
 12 13  1  0
 13 14  1  6
 15 13  1  0
 15 16  1  6
 16  9  1  0
 17 15  1  0
 18 17  1  0
 19 17  2  0
M  END
$$$$
