CGI.pdb
     RDKit          3D

 19 18  0  0  1  0  0  0  0  0999 V2000
    9.3263  -18.8485   20.1359 N   0  0  0  0  0  0  0  0  0  0  0  0
    9.2344  -17.6571   19.3236 C   0  0  1  0  0  0  0  0  0  0  0  0
    8.4885  -17.9544   18.0222 C   0  0  0  0  0  0  0  0  0  0  0  0
    6.8474  -18.6009   18.3313 S   0  0  0  0  0  0  0  0  0  0  0  0
    8.5288  -16.6070   20.0990 C   0  0  0  0  0  0  0  0  0  0  0  0
    8.4934  -15.4150   19.6957 O   0  0  0  0  0  0  0  0  0  0  0  0
    7.8735  -16.9327   21.3244 N   0  0  0  0  0  0  0  0  0  0  0  0
    7.1325  -15.9407   22.0777 C   0  0  0  0  0  0  0  0  0  0  0  0
    7.9764  -15.4620   23.2155 C   0  0  0  0  0  0  0  0  0  0  0  0
    9.2407  -15.4848   23.1555 O   0  0  0  0  0  0  0  0  0  0  0  0
    5.6981  -11.5700   26.1896 C   0  0  0  0  0  0  0  0  0  0  0  0
    6.6835  -12.4032   25.4778 C   0  0  0  0  0  0  0  0  0  0  0  0
    7.4897  -13.3770   26.2672 C   0  0  2  0  0  0  0  0  0  0  0  0
    8.2292  -12.6434   27.3601 C   0  0  0  0  0  0  0  0  0  0  0  0
    8.2159  -14.3742   25.4998 C   0  0  2  0  0  0  0  0  0  0  0  0
    7.4427  -14.9619   24.4106 N   0  0  0  0  0  0  0  0  0  0  0  0
    8.8867  -15.4731   26.1888 C   0  0  0  0  0  0  0  0  0  0  0  0
   10.1736  -15.4939   26.6917 O   0  0  0  0  0  0  0  0  0  0  0  0
    8.2427  -16.5656   26.3641 O   0  0  0  0  0  0  0  0  0  0  0  0
  2  1  1  1
  3  2  1  0
  3  4  1  0
  5  6  2  0
  5  2  1  0
  7  5  1  0
  8  7  1  0
  9  8  1  0
  9 10  2  0
 11 12  1  0
 12 13  1  0
 13 14  1  6
 15 13  1  0
 15 16  1  6
 16  9  1  0
 17 15  1  0
 18 17  1  0
 19 17  2  0
M  END
$$$$
