GLH.pdb
     RDKit          3D

 23 23  0  0  1  0  0  0  0  0999 V2000
    5.8333  -17.6121   21.9585 N   0  0  0  0  0  0  0  0  0  0  0  0
    5.6324  -16.9618   23.2152 C   0  0  0  0  0  0  0  0  0  0  0  0
    6.8419  -16.1619   23.6256 C   0  0  0  0  0  0  0  0  0  0  0  0
    7.8542  -16.2157   22.9087 O   0  0  0  0  0  0  0  0  0  0  0  0
    7.0395  -11.7702   24.7146 C   0  0  0  0  0  0  0  0  0  0  0  0
    6.4226  -12.7033   25.7009 C   0  0  2  0  0  0  0  0  0  0  0  0
    5.7290  -11.8594   26.7726 C   0  0  0  0  0  0  0  0  0  0  0  0
    7.4262  -13.6116   26.3797 C   0  0  0  0  0  0  0  0  0  0  0  0
    7.8549  -14.6678   25.4299 C   0  0  2  0  0  0  0  0  0  0  0  0
    6.7994  -15.3784   24.8008 N   0  0  0  0  0  0  0  0  0  0  0  0
    8.9808  -15.5270   25.9378 C   0  0  0  0  0  0  0  0  0  0  0  0
    9.3801  -15.4397   27.1240 O   0  0  0  0  0  0  0  0  0  0  0  0
    9.6284  -16.4617   25.1029 N   0  0  0  0  0  0  0  0  0  0  0  0
   10.7760  -17.2727   25.5350 C   0  0  1  0  0  0  0  0  0  0  0  0
   10.3509  -18.6851   25.4936 C   0  0  0  0  0  0  0  0  0  0  0  0
    9.4649  -19.1262   26.5807 C   0  0  0  0  0  0  0  0  0  0  0  0
    9.4678  -18.8498   27.9179 C   0  0  0  0  0  0  0  0  0  0  0  0
    8.3958  -19.4585   28.4614 N   0  0  0  0  0  0  0  0  0  0  0  0
    7.7549  -20.0886   27.4808 C   0  0  0  0  0  0  0  0  0  0  0  0
    8.3822  -19.9038   26.3260 N   0  0  0  0  0  0  0  0  0  0  0  0
   11.8742  -16.9422   24.5744 C   0  0  0  0  0  0  0  0  0  0  0  0
   11.5688  -16.1891   23.4422 O   0  0  0  0  0  0  0  0  0  0  0  0
   13.0426  -17.2978   24.7300 O   0  0  0  0  0  0  0  0  0  0  0  0
  1  2  1  0
  3  2  1  0
  3  4  2  0
  6  5  1  6
  6  8  1  0
  7  6  1  0
  9  8  1  1
  9 10  1  0
 10  3  1  0
 11  9  1  0
 11 12  2  0
 13 11  1  0
 14 13  1  0
 14 15  1  6
 14 21  1  0
 16 17  2  0
 16 15  1  0
 18 17  1  0
 19 20  2  0
 19 18  1  0
 20 16  1  0
 21 22  1  0
 23 21  2  0
M  END
$$$$
