GLH.pdb
     RDKit          3D

 23 23  0  0  1  0  0  0  0  0999 V2000
    8.3188  -18.2356   17.4407 N   0  0  0  0  0  0  0  0  0  0  0  0
    7.7334  -17.9952   18.7222 C   0  0  0  0  0  0  0  0  0  0  0  0
    8.6445  -17.1811   19.6044 C   0  0  0  0  0  0  0  0  0  0  0  0
    9.8517  -17.4706   19.6307 O   0  0  0  0  0  0  0  0  0  0  0  0
    7.4942  -11.8338   21.3334 C   0  0  0  0  0  0  0  0  0  0  0  0
    8.0485  -13.1402   20.8752 C   0  0  2  0  0  0  0  0  0  0  0  0
    7.2444  -13.5862   19.6519 C   0  0  0  0  0  0  0  0  0  0  0  0
    7.9698  -14.2290   21.9248 C   0  0  0  0  0  0  0  0  0  0  0  0
    8.7146  -15.4222   21.4525 C   0  0  2  0  0  0  0  0  0  0  0  0
    8.1138  -16.1202   20.3724 N   0  0  0  0  0  0  0  0  0  0  0  0
    9.2331  -16.2979   22.5608 C   0  0  0  0  0  0  0  0  0  0  0  0
    8.5159  -17.1914   23.0719 O   0  0  0  0  0  0  0  0  0  0  0  0
   10.5418  -16.1491   23.0659 N   0  0  0  0  0  0  0  0  0  0  0  0
   11.0742  -16.9477   24.1794 C   0  0  1  0  0  0  0  0  0  0  0  0
   12.5175  -17.1307   23.9327 C   0  0  0  0  0  0  0  0  0  0  0  0
   12.8786  -18.1323   22.9188 C   0  0  0  0  0  0  0  0  0  0  0  0
   12.1132  -18.9927   22.1852 C   0  0  0  0  0  0  0  0  0  0  0  0
   12.9349  -19.6553   21.3480 N   0  0  0  0  0  0  0  0  0  0  0  0
   14.1693  -19.2095   21.5646 C   0  0  0  0  0  0  0  0  0  0  0  0
   14.1652  -18.2825   22.5142 N   0  0  0  0  0  0  0  0  0  0  0  0
   10.7657  -16.1578   25.4118 C   0  0  0  0  0  0  0  0  0  0  0  0
   11.0815  -16.7051   26.6540 O   0  0  0  0  0  0  0  0  0  0  0  0
   10.2472  -15.0413   25.3909 O   0  0  0  0  0  0  0  0  0  0  0  0
  1  2  1  0
  3  2  1  0
  3  4  2  0
  6  5  1  1
  6  8  1  0
  7  6  1  0
  9  8  1  1
  9 10  1  0
 10  3  1  0
 11  9  1  0
 11 12  2  0
 13 11  1  0
 14 13  1  0
 14 15  1  6
 14 21  1  0
 16 17  2  0
 16 15  1  0
 18 17  1  0
 19 20  2  0
 19 18  1  0
 20 16  1  0
 21 22  1  0
 23 21  2  0
M  END
$$$$
