GLH.pdb
     RDKit          3D

 23 23  0  0  1  0  0  0  0  0999 V2000
    7.6101  -17.7947   20.4577 N   0  0  0  0  0  0  0  0  0  0  0  0
    7.2141  -17.5636   21.8114 C   0  0  0  0  0  0  0  0  0  0  0  0
    7.8081  -16.2890   22.3534 C   0  0  0  0  0  0  0  0  0  0  0  0
    8.8630  -15.8704   21.8497 O   0  0  0  0  0  0  0  0  0  0  0  0
    6.4989  -12.2934   27.0333 C   0  0  0  0  0  0  0  0  0  0  0  0
    7.3041  -12.8012   25.8855 C   0  0  2  0  0  0  0  0  0  0  0  0
    7.3854  -11.6856   24.8413 C   0  0  0  0  0  0  0  0  0  0  0  0
    6.7098  -14.0302   25.2301 C   0  0  0  0  0  0  0  0  0  0  0  0
    7.6677  -14.5676   24.2324 C   0  0  2  0  0  0  0  0  0  0  0  0
    7.1615  -15.6065   23.4084 N   0  0  0  0  0  0  0  0  0  0  0  0
    9.0484  -14.8100   24.7789 C   0  0  0  0  0  0  0  0  0  0  0  0
    9.8686  -13.8699   24.9115 O   0  0  0  0  0  0  0  0  0  0  0  0
    9.4726  -16.0994   25.1630 N   0  0  0  0  0  0  0  0  0  0  0  0
   10.8205  -16.3883   25.6738 C   0  0  1  0  0  0  0  0  0  0  0  0
   10.6665  -16.8701   27.0600 C   0  0  0  0  0  0  0  0  0  0  0  0
   10.5942  -15.8343   28.1008 C   0  0  0  0  0  0  0  0  0  0  0  0
   10.4139  -14.4832   28.0206 C   0  0  0  0  0  0  0  0  0  0  0  0
   10.3605  -14.0045   29.2788 N   0  0  0  0  0  0  0  0  0  0  0  0
   10.5032  -15.0373   30.1049 C   0  0  0  0  0  0  0  0  0  0  0  0
   10.6469  -16.1626   29.4165 N   0  0  0  0  0  0  0  0  0  0  0  0
   11.3851  -17.4088   24.7370 C   0  0  0  0  0  0  0  0  0  0  0  0
   12.7053  -17.8197   24.9118 O   0  0  0  0  0  0  0  0  0  0  0  0
   10.7438  -17.9127   23.8147 O   0  0  0  0  0  0  0  0  0  0  0  0
  1  2  1  0
  3  2  1  0
  3  4  2  0
  6  5  1  1
  6  8  1  0
  7  6  1  0
  9  8  1  1
  9 10  1  0
 10  3  1  0
 11  9  1  0
 11 12  2  0
 13 11  1  0
 14 13  1  0
 14 15  1  1
 14 21  1  0
 16 17  2  0
 16 15  1  0
 18 17  1  0
 19 20  2  0
 19 18  1  0
 20 16  1  0
 21 22  1  0
 23 21  2  0
M  END
$$$$
