GLH.pdb
     RDKit          3D

 23 23  0  0  1  0  0  0  0  0999 V2000
    7.7861  -15.8377   20.8351 N   0  0  0  0  0  0  0  0  0  0  0  0
    6.9265  -15.4171   21.8966 C   0  0  0  0  0  0  0  0  0  0  0  0
    7.7088  -15.0465   23.1302 C   0  0  0  0  0  0  0  0  0  0  0  0
    8.9280  -15.2810   23.1467 O   0  0  0  0  0  0  0  0  0  0  0  0
    7.6749  -11.1987   24.8017 C   0  0  0  0  0  0  0  0  0  0  0  0
    6.4795  -11.9389   25.2988 C   0  0  2  0  0  0  0  0  0  0  0  0
    5.5876  -10.9417   26.0419 C   0  0  0  0  0  0  0  0  0  0  0  0
    6.8227  -13.0723   26.2426 C   0  0  0  0  0  0  0  0  0  0  0  0
    7.5729  -14.1177   25.5036 C   0  0  2  0  0  0  0  0  0  0  0  0
    7.0481  -14.4484   24.2269 N   0  0  0  0  0  0  0  0  0  0  0  0
    7.9713  -15.2973   26.3483 C   0  0  0  0  0  0  0  0  0  0  0  0
    8.6281  -15.1460   27.4064 O   0  0  0  0  0  0  0  0  0  0  0  0
    7.6220  -16.6149   25.9849 N   0  0  0  0  0  0  0  0  0  0  0  0
    7.9398  -17.7914   26.8070 C   0  0  1  0  0  0  0  0  0  0  0  0
    7.0730  -18.8925   26.3446 C   0  0  0  0  0  0  0  0  0  0  0  0
    7.3059  -20.2041   26.9666 C   0  0  0  0  0  0  0  0  0  0  0  0
    8.1039  -20.5819   28.0081 C   0  0  0  0  0  0  0  0  0  0  0  0
    7.9009  -21.8968   28.2201 N   0  0  0  0  0  0  0  0  0  0  0  0
    7.0012  -22.3098   27.3316 C   0  0  0  0  0  0  0  0  0  0  0  0
    6.6214  -21.3018   26.5565 N   0  0  0  0  0  0  0  0  0  0  0  0
    9.3995  -18.0383   26.5915 C   0  0  0  0  0  0  0  0  0  0  0  0
   10.1374  -18.6256   27.6176 O   0  0  0  0  0  0  0  0  0  0  0  0
    9.9902  -17.7526   25.5498 O   0  0  0  0  0  0  0  0  0  0  0  0
  1  2  1  0
  3  2  1  0
  3  4  2  0
  6  5  1  1
  6  8  1  0
  7  6  1  0
  9  8  1  1
  9 10  1  0
 10  3  1  0
 11  9  1  0
 11 12  2  0
 13 11  1  0
 14 13  1  0
 14 15  1  6
 14 21  1  0
 16 17  2  0
 16 15  1  0
 18 17  1  0
 19 20  2  0
 19 18  1  0
 20 16  1  0
 21 22  1  0
 23 21  2  0
M  END
$$$$
