GLH.pdb
     RDKit          3D

 23 23  0  0  1  0  0  0  0  0999 V2000
    7.0499  -14.3548   20.3381 N   0  0  0  0  0  0  0  0  0  0  0  0
    6.4728  -14.7180   21.5941 C   0  0  0  0  0  0  0  0  0  0  0  0
    7.4674  -14.5909   22.7192 C   0  0  0  0  0  0  0  0  0  0  0  0
    8.6723  -14.5030   22.4326 O   0  0  0  0  0  0  0  0  0  0  0  0
    7.3342  -11.6466   25.7225 C   0  0  0  0  0  0  0  0  0  0  0  0
    6.3993  -12.7550   26.0709 C   0  0  2  0  0  0  0  0  0  0  0  0
    5.5543  -12.2972   27.2618 C   0  0  0  0  0  0  0  0  0  0  0  0
    7.1043  -14.0410   26.4482 C   0  0  0  0  0  0  0  0  0  0  0  0
    7.7812  -14.6001   25.2520 C   0  0  2  0  0  0  0  0  0  0  0  0
    7.0146  -14.5747   24.0577 N   0  0  0  0  0  0  0  0  0  0  0  0
    8.5090  -15.8917   25.5088 C   0  0  0  0  0  0  0  0  0  0  0  0
    7.8836  -16.9595   25.7151 O   0  0  0  0  0  0  0  0  0  0  0  0
    9.9183  -15.9520   25.5265 N   0  0  0  0  0  0  0  0  0  0  0  0
   10.6712  -17.1590   25.8972 C   0  0  1  0  0  0  0  0  0  0  0  0
   11.8875  -17.1868   25.0622 C   0  0  0  0  0  0  0  0  0  0  0  0
   11.6754  -17.3341   23.6148 C   0  0  0  0  0  0  0  0  0  0  0  0
   10.7468  -18.0394   22.9043 C   0  0  0  0  0  0  0  0  0  0  0  0
   10.9538  -17.7834   21.5979 N   0  0  0  0  0  0  0  0  0  0  0  0
   11.9812  -16.9427   21.5140 C   0  0  0  0  0  0  0  0  0  0  0  0
   12.4398  -16.6519   22.7249 N   0  0  0  0  0  0  0  0  0  0  0  0
   10.9447  -17.0171   27.3611 C   0  0  0  0  0  0  0  0  0  0  0  0
   11.6214  -18.0431   28.0180 O   0  0  0  0  0  0  0  0  0  0  0  0
   10.6058  -16.0361   28.0235 O   0  0  0  0  0  0  0  0  0  0  0  0
  1  2  1  0
  3  2  1  0
  3  4  2  0
  6  5  1  1
  6  8  1  0
  7  6  1  0
  9  8  1  1
  9 10  1  0
 10  3  1  0
 11  9  1  0
 11 12  2  0
 13 11  1  0
 14 13  1  0
 14 15  1  6
 14 21  1  0
 16 17  2  0
 16 15  1  0
 18 17  1  0
 19 20  2  0
 19 18  1  0
 20 16  1  0
 21 22  1  0
 23 21  2  0
M  END
$$$$
