GLH.pdb
     RDKit          3D

 23 23  0  0  1  0  0  0  0  0999 V2000
    9.6641  -17.0867   15.6910 N   0  0  0  0  0  0  0  0  0  0  0  0
    8.9833  -17.3684   16.9157 C   0  0  0  0  0  0  0  0  0  0  0  0
    9.6296  -16.6686   18.0834 C   0  0  0  0  0  0  0  0  0  0  0  0
   10.8603  -16.7629   18.2186 O   0  0  0  0  0  0  0  0  0  0  0  0
    8.8970  -12.4377   19.3288 C   0  0  0  0  0  0  0  0  0  0  0  0
    7.8117  -13.3850   19.7143 C   0  0  2  0  0  0  0  0  0  0  0  0
    6.6384  -12.5599   20.2477 C   0  0  0  0  0  0  0  0  0  0  0  0
    8.2277  -14.3747   20.7823 C   0  0  0  0  0  0  0  0  0  0  0  0
    9.2146  -15.3259   20.2138 C   0  0  2  0  0  0  0  0  0  0  0  0
    8.8331  -15.9302   18.9874 N   0  0  0  0  0  0  0  0  0  0  0  0
    9.8086  -16.2682   21.2252 C   0  0  0  0  0  0  0  0  0  0  0  0
    9.2156  -17.3229   21.5568 O   0  0  0  0  0  0  0  0  0  0  0  0
   11.0519  -16.0037   21.8370 N   0  0  0  0  0  0  0  0  0  0  0  0
   11.6232  -16.8408   22.9020 C   0  0  1  0  0  0  0  0  0  0  0  0
   13.0914  -16.7598   22.7788 C   0  0  0  0  0  0  0  0  0  0  0  0
   13.6936  -17.5444   21.6910 C   0  0  0  0  0  0  0  0  0  0  0  0
   13.3581  -18.7553   21.1568 C   0  0  0  0  0  0  0  0  0  0  0  0
   14.1983  -18.9944   20.1312 N   0  0  0  0  0  0  0  0  0  0  0  0
   15.0241  -17.9554   20.0415 C   0  0  0  0  0  0  0  0  0  0  0  0
   14.7403  -17.0582   20.9771 N   0  0  0  0  0  0  0  0  0  0  0  0
   11.0900  -16.2706   24.1782 C   0  0  0  0  0  0  0  0  0  0  0  0
   11.4508  -16.8725   25.3822 O   0  0  0  0  0  0  0  0  0  0  0  0
   10.3470  -15.2900   24.2259 O   0  0  0  0  0  0  0  0  0  0  0  0
  1  2  1  0
  3  2  1  0
  3  4  2  0
  6  5  1  1
  6  8  1  0
  7  6  1  0
  9  8  1  1
  9 10  1  0
 10  3  1  0
 11  9  1  0
 11 12  2  0
 13 11  1  0
 14 13  1  0
 14 15  1  1
 14 21  1  0
 16 17  2  0
 16 15  1  0
 18 17  1  0
 19 20  2  0
 19 18  1  0
 20 16  1  0
 21 22  1  0
 23 21  2  0
M  END
$$$$
