GLH.pdb
     RDKit          3D

 23 23  0  0  1  0  0  0  0  0999 V2000
    9.2500  -15.7798   19.7273 N   0  0  0  0  0  0  0  0  0  0  0  0
    8.1622  -15.8245   20.6532 C   0  0  0  0  0  0  0  0  0  0  0  0
    8.5872  -15.3834   22.0301 C   0  0  0  0  0  0  0  0  0  0  0  0
    9.7083  -15.7268   22.4385 O   0  0  0  0  0  0  0  0  0  0  0  0
    5.8740  -12.4795   26.8613 C   0  0  0  0  0  0  0  0  0  0  0  0
    7.0792  -12.9811   26.1403 C   0  0  2  0  0  0  0  0  0  0  0  0
    8.1664  -11.9094   26.2448 C   0  0  0  0  0  0  0  0  0  0  0  0
    6.8277  -13.2690   24.6750 C   0  0  0  0  0  0  0  0  0  0  0  0
    7.8303  -14.2479   24.1869 C   0  0  2  0  0  0  0  0  0  0  0  0
    7.7134  -14.5993   22.8167 N   0  0  0  0  0  0  0  0  0  0  0  0
    8.0585  -15.4064   25.1195 C   0  0  0  0  0  0  0  0  0  0  0  0
    7.1334  -16.2060   25.4002 O   0  0  0  0  0  0  0  0  0  0  0  0
    9.3178  -15.6382   25.7116 N   0  0  0  0  0  0  0  0  0  0  0  0
    9.7737  -16.9659   26.1483 C   0  0  1  0  0  0  0  0  0  0  0  0
   10.9071  -17.3434   25.2821 C   0  0  0  0  0  0  0  0  0  0  0  0
   11.5818  -18.6069   25.6135 C   0  0  0  0  0  0  0  0  0  0  0  0
   11.3393  -19.5330   26.5871 C   0  0  0  0  0  0  0  0  0  0  0  0
   12.2134  -20.5434   26.4142 N   0  0  0  0  0  0  0  0  0  0  0  0
   12.9687  -20.2419   25.3615 C   0  0  0  0  0  0  0  0  0  0  0  0
   12.6069  -19.0702   24.8544 N   0  0  0  0  0  0  0  0  0  0  0  0
   10.1410  -16.8007   27.5890 C   0  0  0  0  0  0  0  0  0  0  0  0
    9.9731  -15.5514   28.1834 O   0  0  0  0  0  0  0  0  0  0  0  0
   10.5839  -17.7139   28.2860 O   0  0  0  0  0  0  0  0  0  0  0  0
  1  2  1  0
  3  2  1  0
  3  4  2  0
  6  5  1  6
  6  8  1  0
  7  6  1  0
  9  8  1  1
  9 10  1  0
 10  3  1  0
 11  9  1  0
 11 12  2  0
 13 11  1  0
 14 13  1  0
 14 15  1  6
 14 21  1  0
 16 17  2  0
 16 15  1  0
 18 17  1  0
 19 20  2  0
 19 18  1  0
 20 16  1  0
 21 22  1  0
 23 21  2  0
M  END
$$$$
