GLH.pdb
     RDKit          3D

 23 23  0  0  1  0  0  0  0  0999 V2000
    7.5246  -16.6987   21.3570 N   0  0  0  0  0  0  0  0  0  0  0  0
    6.9726  -16.4116   22.6436 C   0  0  0  0  0  0  0  0  0  0  0  0
    7.9435  -15.6468   23.5058 C   0  0  0  0  0  0  0  0  0  0  0  0
    9.1429  -15.6475   23.1849 O   0  0  0  0  0  0  0  0  0  0  0  0
    7.3573  -11.4538   24.7759 C   0  0  0  0  0  0  0  0  0  0  0  0
    6.5775  -12.4417   25.5759 C   0  0  2  0  0  0  0  0  0  0  0  0
    5.6022  -11.6617   26.4603 C   0  0  0  0  0  0  0  0  0  0  0  0
    7.4408  -13.3123   26.4646 C   0  0  0  0  0  0  0  0  0  0  0  0
    8.2251  -14.2494   25.6229 C   0  0  2  0  0  0  0  0  0  0  0  0
    7.4754  -14.9545   24.6454 N   0  0  0  0  0  0  0  0  0  0  0  0
    9.2067  -15.0893   26.3942 C   0  0  0  0  0  0  0  0  0  0  0  0
   10.0413  -14.5646   27.1701 O   0  0  0  0  0  0  0  0  0  0  0  0
    9.2258  -16.4949   26.2758 N   0  0  0  0  0  0  0  0  0  0  0  0
   10.0933  -17.3627   27.0855 C   0  0  1  0  0  0  0  0  0  0  0  0
    9.2762  -18.5124   27.5188 C   0  0  0  0  0  0  0  0  0  0  0  0
    9.9721  -19.5403   28.3067 C   0  0  0  0  0  0  0  0  0  0  0  0
   11.2288  -19.5742   28.8396 C   0  0  0  0  0  0  0  0  0  0  0  0
   11.3475  -20.7257   29.5288 N   0  0  0  0  0  0  0  0  0  0  0  0
   10.1926  -21.3765   29.4202 C   0  0  0  0  0  0  0  0  0  0  0  0
    9.3374  -20.6793   28.6828 N   0  0  0  0  0  0  0  0  0  0  0  0
   11.2296  -17.7320   26.1853 C   0  0  0  0  0  0  0  0  0  0  0  0
   11.0195  -17.7305   24.8075 O   0  0  0  0  0  0  0  0  0  0  0  0
   12.3497  -18.0367   26.5954 O   0  0  0  0  0  0  0  0  0  0  0  0
  1  2  1  0
  3  2  1  0
  3  4  2  0
  6  5  1  1
  6  8  1  0
  7  6  1  0
  9  8  1  1
  9 10  1  0
 10  3  1  0
 11  9  1  0
 11 12  2  0
 13 11  1  0
 14 13  1  0
 14 15  1  6
 14 21  1  0
 16 17  2  0
 16 15  1  0
 18 17  1  0
 19 20  2  0
 19 18  1  0
 20 16  1  0
 21 22  1  0
 23 21  2  0
M  END
$$$$
