GLH.pdb
     RDKit          3D

 23 23  0  0  1  0  0  0  0  0999 V2000
    7.0749  -17.3083   21.0805 N   0  0  0  0  0  0  0  0  0  0  0  0
    6.7879  -16.9063   22.4216 C   0  0  0  0  0  0  0  0  0  0  0  0
    7.7374  -15.8363   22.8954 C   0  0  0  0  0  0  0  0  0  0  0  0
    8.6808  -15.5162   22.1543 O   0  0  0  0  0  0  0  0  0  0  0  0
    7.0279  -11.6379   24.3408 C   0  0  0  0  0  0  0  0  0  0  0  0
    6.5760  -12.7297   25.2506 C   0  0  2  0  0  0  0  0  0  0  0  0
    5.7430  -12.0943   26.3659 C   0  0  0  0  0  0  0  0  0  0  0  0
    7.7178  -13.4982   25.8822 C   0  0  0  0  0  0  0  0  0  0  0  0
    8.3861  -14.3251   24.8472 C   0  0  2  0  0  0  0  0  0  0  0  0
    7.5373  -15.2279   24.1551 N   0  0  0  0  0  0  0  0  0  0  0  0
    9.7037  -14.9052   25.2845 C   0  0  0  0  0  0  0  0  0  0  0  0
   10.6212  -14.1724   25.7263 O   0  0  0  0  0  0  0  0  0  0  0  0
    9.9574  -16.2912   25.2157 N   0  0  0  0  0  0  0  0  0  0  0  0
   11.0762  -16.9438   25.9111 C   0  0  1  0  0  0  0  0  0  0  0  0
   10.5983  -17.3070   27.2591 C   0  0  0  0  0  0  0  0  0  0  0  0
   10.6807  -16.2527   28.2805 C   0  0  0  0  0  0  0  0  0  0  0  0
   10.8351  -14.9003   28.1735 C   0  0  0  0  0  0  0  0  0  0  0  0
   10.7835  -14.3853   29.4173 N   0  0  0  0  0  0  0  0  0  0  0  0
   10.6010  -15.3974   30.2610 C   0  0  0  0  0  0  0  0  0  0  0  0
   10.5345  -16.5449   29.5977 N   0  0  0  0  0  0  0  0  0  0  0  0
   11.4361  -18.1195   25.0588 C   0  0  0  0  0  0  0  0  0  0  0  0
   10.6696  -18.3839   23.9254 O   0  0  0  0  0  0  0  0  0  0  0  0
   12.3805  -18.8710   25.3021 O   0  0  0  0  0  0  0  0  0  0  0  0
  1  2  1  0
  3  2  1  0
  3  4  2  0
  6  5  1  6
  6  8  1  0
  7  6  1  0
  9  8  1  1
  9 10  1  0
 10  3  1  0
 11  9  1  0
 11 12  2  0
 13 11  1  0
 14 13  1  0
 14 15  1  1
 14 21  1  0
 16 17  2  0
 16 15  1  0
 18 17  1  0
 19 20  2  0
 19 18  1  0
 20 16  1  0
 21 22  1  0
 23 21  2  0
M  END
$$$$
