GLH.pdb
     RDKit          3D

 23 23  0  0  1  0  0  0  0  0999 V2000
    1.9747  -24.6674   23.9602 N   0  0  0  0  0  0  0  0  0  0  0  0
    1.1496  -24.4966   25.1146 C   0  0  0  0  0  0  0  0  0  0  0  0
    0.0478  -23.4989   24.8663 C   0  0  0  0  0  0  0  0  0  0  0  0
   -0.5407  -23.0154   25.8469 O   0  0  0  0  0  0  0  0  0  0  0  0
    0.0895  -19.6133   23.1223 C   0  0  0  0  0  0  0  0  0  0  0  0
    0.2413  -20.7095   22.1227 C   0  0  2  0  0  0  0  0  0  0  0  0
    0.6742  -20.0778   20.7978 C   0  0  0  0  0  0  0  0  0  0  0  0
   -1.0343  -21.4912   21.8880 C   0  0  0  0  0  0  0  0  0  0  0  0
   -1.3425  -22.3025   23.0915 C   0  0  2  0  0  0  0  0  0  0  0  0
   -0.2880  -23.1393   23.5415 N   0  0  0  0  0  0  0  0  0  0  0  0
   -2.6976  -22.9556   23.0584 C   0  0  0  0  0  0  0  0  0  0  0  0
   -3.7184  -22.3157   22.7082 O   0  0  0  0  0  0  0  0  0  0  0  0
   -2.8721  -24.3085   23.4179 N   0  0  0  0  0  0  0  0  0  0  0  0
   -4.1721  -24.9938   23.3799 C   0  0  1  0  0  0  0  0  0  0  0  0
   -3.9688  -26.2740   22.6747 C   0  0  0  0  0  0  0  0  0  0  0  0
   -3.8232  -26.1920   21.2140 C   0  0  0  0  0  0  0  0  0  0  0  0
   -4.6168  -25.6282   20.2566 C   0  0  0  0  0  0  0  0  0  0  0  0
   -3.9925  -25.7759   19.0720 N   0  0  0  0  0  0  0  0  0  0  0  0
   -2.8470  -26.4121   19.3012 C   0  0  0  0  0  0  0  0  0  0  0  0
   -2.7174  -26.6775   20.5950 N   0  0  0  0  0  0  0  0  0  0  0  0
   -4.5765  -25.1486   24.8118 C   0  0  0  0  0  0  0  0  0  0  0  0
   -5.9326  -25.2482   25.1172 O   0  0  0  0  0  0  0  0  0  0  0  0
   -3.7727  -25.1964   25.7432 O   0  0  0  0  0  0  0  0  0  0  0  0
  1  2  1  0
  3  2  1  0
  3  4  2  0
  6  5  1  1
  6  8  1  0
  7  6  1  0
  9  8  1  6
  9 10  1  0
 10  3  1  0
 11  9  1  0
 11 12  2  0
 13 11  1  0
 14 13  1  0
 14 15  1  1
 14 21  1  0
 16 17  2  0
 16 15  1  0
 18 17  1  0
 19 20  2  0
 19 18  1  0
 20 16  1  0
 21 22  1  0
 23 21  2  0
M  END
$$$$
