GLH.pdb
     RDKit          3D

 23 23  0  0  1  0  0  0  0  0999 V2000
    7.0869  -14.6931   20.2120 N   0  0  0  0  0  0  0  0  0  0  0  0
    6.5164  -14.9638   21.4942 C   0  0  0  0  0  0  0  0  0  0  0  0
    7.5414  -14.8489   22.5929 C   0  0  0  0  0  0  0  0  0  0  0  0
    8.7426  -14.9258   22.2879 O   0  0  0  0  0  0  0  0  0  0  0  0
    7.7512  -11.6356   25.4646 C   0  0  0  0  0  0  0  0  0  0  0  0
    6.7172  -12.6519   25.8138 C   0  0  2  0  0  0  0  0  0  0  0  0
    5.8615  -12.0787   26.9456 C   0  0  0  0  0  0  0  0  0  0  0  0
    7.3011  -13.9712   26.2740 C   0  0  0  0  0  0  0  0  0  0  0  0
    7.9011  -14.6750   25.1137 C   0  0  2  0  0  0  0  0  0  0  0  0
    7.1204  -14.6588   23.9284 N   0  0  0  0  0  0  0  0  0  0  0  0
    8.5062  -16.0099   25.4540 C   0  0  0  0  0  0  0  0  0  0  0  0
    7.7849  -17.0123   25.6752 O   0  0  0  0  0  0  0  0  0  0  0  0
    9.9034  -16.1857   25.5364 N   0  0  0  0  0  0  0  0  0  0  0  0
   10.5377  -17.4609   25.9005 C   0  0  1  0  0  0  0  0  0  0  0  0
   11.8423  -17.5101   25.2128 C   0  0  0  0  0  0  0  0  0  0  0  0
   11.7987  -17.6972   23.7552 C   0  0  0  0  0  0  0  0  0  0  0  0
   10.7603  -17.9583   22.9079 C   0  0  0  0  0  0  0  0  0  0  0  0
   11.2523  -17.9727   21.6538 N   0  0  0  0  0  0  0  0  0  0  0  0
   12.5568  -17.7254   21.7341 C   0  0  0  0  0  0  0  0  0  0  0  0
   12.9169  -17.5535   22.9998 N   0  0  0  0  0  0  0  0  0  0  0  0
   10.6401  -17.4366   27.3928 C   0  0  0  0  0  0  0  0  0  0  0  0
   10.3729  -16.2440   28.0625 O   0  0  0  0  0  0  0  0  0  0  0  0
   10.9465  -18.4190   28.0687 O   0  0  0  0  0  0  0  0  0  0  0  0
  1  2  1  0
  3  2  1  0
  3  4  2  0
  6  5  1  1
  6  8  1  0
  7  6  1  0
  9  8  1  1
  9 10  1  0
 10  3  1  0
 11  9  1  0
 11 12  2  0
 13 11  1  0
 14 13  1  0
 14 15  1  6
 14 21  1  0
 16 17  2  0
 16 15  1  0
 18 17  1  0
 19 20  2  0
 19 18  1  0
 20 16  1  0
 21 22  1  0
 23 21  2  0
M  END
$$$$
