GLH.pdb
     RDKit          3D

 23 23  0  0  1  0  0  0  0  0999 V2000
    7.5750  -16.8169   21.2409 N   0  0  0  0  0  0  0  0  0  0  0  0
    7.1060  -15.5472   21.6999 C   0  0  0  0  0  0  0  0  0  0  0  0
    7.9077  -15.0517   22.8758 C   0  0  0  0  0  0  0  0  0  0  0  0
    9.0580  -14.6323   22.6694 O   0  0  0  0  0  0  0  0  0  0  0  0
    7.4672  -11.6869   25.5374 C   0  0  0  0  0  0  0  0  0  0  0  0
    6.4254  -12.7337   25.7444 C   0  0  2  0  0  0  0  0  0  0  0  0
    5.3683  -12.1608   26.6909 C   0  0  0  0  0  0  0  0  0  0  0  0
    6.9682  -14.0122   26.3477 C   0  0  0  0  0  0  0  0  0  0  0  0
    7.9152  -14.6424   25.3951 C   0  0  2  0  0  0  0  0  0  0  0  0
    7.3418  -15.0741   24.1705 N   0  0  0  0  0  0  0  0  0  0  0  0
    8.8603  -15.6250   26.0317 C   0  0  0  0  0  0  0  0  0  0  0  0
    9.3295  -15.4253   27.1780 O   0  0  0  0  0  0  0  0  0  0  0  0
    9.2534  -16.8054   25.3668 N   0  0  0  0  0  0  0  0  0  0  0  0
   10.1436  -17.8114   25.9641 C   0  0  1  0  0  0  0  0  0  0  0  0
    9.5501  -19.1346   25.6912 C   0  0  0  0  0  0  0  0  0  0  0  0
    8.4142  -19.5217   26.5405 C   0  0  0  0  0  0  0  0  0  0  0  0
    8.0072  -19.0750   27.7649 C   0  0  0  0  0  0  0  0  0  0  0  0
    6.8639  -19.7177   28.0730 N   0  0  0  0  0  0  0  0  0  0  0  0
    6.5803  -20.5342   27.0620 C   0  0  0  0  0  0  0  0  0  0  0  0
    7.5056  -20.4359   26.1158 N   0  0  0  0  0  0  0  0  0  0  0  0
   11.4724  -17.5972   25.3111 C   0  0  0  0  0  0  0  0  0  0  0  0
   12.5969  -18.2043   25.8671 O   0  0  0  0  0  0  0  0  0  0  0  0
   11.6299  -16.9119   24.3004 O   0  0  0  0  0  0  0  0  0  0  0  0
  1  2  1  0
  3  2  1  0
  3  4  2  0
  6  5  1  1
  6  8  1  0
  7  6  1  0
  9  8  1  1
  9 10  1  0
 10  3  1  0
 11  9  1  0
 11 12  2  0
 13 11  1  0
 14 13  1  0
 14 15  1  6
 14 21  1  0
 16 17  2  0
 16 15  1  0
 18 17  1  0
 19 20  2  0
 19 18  1  0
 20 16  1  0
 21 22  1  0
 23 21  2  0
M  END
$$$$
