GLH.pdb
     RDKit          3D

 23 23  0  0  1  0  0  0  0  0999 V2000
    5.3463  -18.0195   22.7152 N   0  0  0  0  0  0  0  0  0  0  0  0
    5.3526  -17.3333   23.9688 C   0  0  0  0  0  0  0  0  0  0  0  0
    6.5866  -16.4834   24.1299 C   0  0  0  0  0  0  0  0  0  0  0  0
    7.5265  -16.6539   23.3367 O   0  0  0  0  0  0  0  0  0  0  0  0
    7.0132  -11.8921   24.7049 C   0  0  0  0  0  0  0  0  0  0  0  0
    6.4247  -12.7125   25.8023 C   0  0  2  0  0  0  0  0  0  0  0  0
    5.8451  -11.7532   26.8442 C   0  0  0  0  0  0  0  0  0  0  0  0
    7.4312  -13.6137   26.4864 C   0  0  0  0  0  0  0  0  0  0  0  0
    7.7595  -14.7519   25.5929 C   0  0  2  0  0  0  0  0  0  0  0  0
    6.6476  -15.5238   25.1654 N   0  0  0  0  0  0  0  0  0  0  0  0
    8.9526  -15.5539   26.0369 C   0  0  0  0  0  0  0  0  0  0  0  0
    9.0807  -15.9211   27.2297 O   0  0  0  0  0  0  0  0  0  0  0  0
    9.9697  -15.9235   25.1320 N   0  0  0  0  0  0  0  0  0  0  0  0
   10.9988  -16.9276   25.4386 C   0  0  1  0  0  0  0  0  0  0  0  0
   10.3722  -18.2544   25.2834 C   0  0  0  0  0  0  0  0  0  0  0  0
    9.7686  -18.8305   26.4939 C   0  0  0  0  0  0  0  0  0  0  0  0
    9.9983  -18.5940   27.8190 C   0  0  0  0  0  0  0  0  0  0  0  0
    9.1275  -19.3433   28.5228 N   0  0  0  0  0  0  0  0  0  0  0  0
    8.3851  -20.0182   27.6495 C   0  0  0  0  0  0  0  0  0  0  0  0
    8.7525  -19.7259   26.4083 N   0  0  0  0  0  0  0  0  0  0  0  0
   12.1064  -16.6635   24.4683 C   0  0  0  0  0  0  0  0  0  0  0  0
   11.8100  -16.0012   23.2785 O   0  0  0  0  0  0  0  0  0  0  0  0
   13.2750  -16.9980   24.6640 O   0  0  0  0  0  0  0  0  0  0  0  0
  1  2  1  0
  3  2  1  0
  3  4  2  0
  6  5  1  6
  6  8  1  0
  7  6  1  0
  9  8  1  1
  9 10  1  0
 10  3  1  0
 11  9  1  0
 11 12  2  0
 13 11  1  0
 14 13  1  0
 14 15  1  6
 14 21  1  0
 16 17  2  0
 16 15  1  0
 18 17  1  0
 19 20  2  0
 19 18  1  0
 20 16  1  0
 21 22  1  0
 23 21  2  0
M  END
$$$$
