GLH.pdb
     RDKit          3D

 23 23  0  0  1  0  0  0  0  0999 V2000
    7.7538  -19.4328   19.0402 N   0  0  0  0  0  0  0  0  0  0  0  0
    7.0912  -18.3408   19.6815 C   0  0  0  0  0  0  0  0  0  0  0  0
    8.0745  -17.3863   20.3084 C   0  0  0  0  0  0  0  0  0  0  0  0
    9.2222  -17.7957   20.5471 O   0  0  0  0  0  0  0  0  0  0  0  0
    8.9652  -13.0749   19.1834 C   0  0  0  0  0  0  0  0  0  0  0  0
    7.6562  -13.3131   19.8570 C   0  0  2  0  0  0  0  0  0  0  0  0
    6.8519  -12.0130   19.7888 C   0  0  0  0  0  0  0  0  0  0  0  0
    7.7916  -13.7185   21.3097 C   0  0  0  0  0  0  0  0  0  0  0  0
    8.3525  -15.0900   21.3874 C   0  0  2  0  0  0  0  0  0  0  0  0
    7.6758  -16.0639   20.6074 N   0  0  0  0  0  0  0  0  0  0  0  0
    8.7026  -15.5296   22.7831 C   0  0  0  0  0  0  0  0  0  0  0  0
    7.9092  -15.3510   23.7383 O   0  0  0  0  0  0  0  0  0  0  0  0
    9.9322  -16.1585   23.0705 N   0  0  0  0  0  0  0  0  0  0  0  0
   10.3028  -16.6347   24.4110 C   0  0  1  0  0  0  0  0  0  0  0  0
   10.1451  -18.1019   24.4106 C   0  0  0  0  0  0  0  0  0  0  0  0
    8.7661  -18.6044   24.4953 C   0  0  0  0  0  0  0  0  0  0  0  0
    7.5664  -17.9529   24.5214 C   0  0  0  0  0  0  0  0  0  0  0  0
    6.5962  -18.8875   24.5404 N   0  0  0  0  0  0  0  0  0  0  0  0
    7.1890  -20.0782   24.5251 C   0  0  0  0  0  0  0  0  0  0  0  0
    8.5082  -19.9368   24.4972 N   0  0  0  0  0  0  0  0  0  0  0  0
   11.7123  -16.1770   24.6147 C   0  0  0  0  0  0  0  0  0  0  0  0
   12.2814  -16.3055   25.8803 O   0  0  0  0  0  0  0  0  0  0  0  0
   12.4050  -15.6920   23.7198 O   0  0  0  0  0  0  0  0  0  0  0  0
  1  2  1  0
  3  2  1  0
  3  4  2  0
  6  5  1  1
  6  8  1  0
  7  6  1  0
  9  8  1  1
  9 10  1  0
 10  3  1  0
 11  9  1  0
 11 12  2  0
 13 11  1  0
 14 13  1  0
 14 15  1  6
 14 21  1  0
 16 17  2  0
 16 15  1  0
 18 17  1  0
 19 20  2  0
 19 18  1  0
 20 16  1  0
 21 22  1  0
 23 21  2  0
M  END
$$$$
