GLH.pdb
     RDKit          3D

 23 23  0  0  1  0  0  0  0  0999 V2000
    7.2158  -15.6295   20.6896 N   0  0  0  0  0  0  0  0  0  0  0  0
    6.6258  -15.5035   21.9852 C   0  0  0  0  0  0  0  0  0  0  0  0
    7.6681  -15.2782   23.0501 C   0  0  0  0  0  0  0  0  0  0  0  0
    8.8567  -15.4983   22.7664 O   0  0  0  0  0  0  0  0  0  0  0  0
    7.9314  -11.7496   25.4102 C   0  0  0  0  0  0  0  0  0  0  0  0
    6.9092  -12.6833   25.9645 C   0  0  2  0  0  0  0  0  0  0  0  0
    6.1154  -11.9275   27.0323 C   0  0  0  0  0  0  0  0  0  0  0  0
    7.5063  -13.9228   26.5973 C   0  0  0  0  0  0  0  0  0  0  0  0
    8.0309  -14.8142   25.5334 C   0  0  2  0  0  0  0  0  0  0  0  0
    7.2768  -14.8276   24.3310 N   0  0  0  0  0  0  0  0  0  0  0  0
    8.4582  -16.1699   26.0268 C   0  0  0  0  0  0  0  0  0  0  0  0
    7.6480  -16.9372   26.6002 O   0  0  0  0  0  0  0  0  0  0  0  0
    9.7819  -16.6294   25.8636 N   0  0  0  0  0  0  0  0  0  0  0  0
   10.2647  -17.9105   26.3992 C   0  0  1  0  0  0  0  0  0  0  0  0
   11.0957  -18.5347   25.3517 C   0  0  0  0  0  0  0  0  0  0  0  0
   10.3716  -19.1114   24.2095 C   0  0  0  0  0  0  0  0  0  0  0  0
    9.0438  -19.3637   24.0150 C   0  0  0  0  0  0  0  0  0  0  0  0
    8.8996  -19.8407   22.7633 N   0  0  0  0  0  0  0  0  0  0  0  0
   10.1079  -19.8772   22.2085 C   0  0  0  0  0  0  0  0  0  0  0  0
   11.0224  -19.4392   23.0647 N   0  0  0  0  0  0  0  0  0  0  0  0
   11.0201  -17.5572   27.6412 C   0  0  0  0  0  0  0  0  0  0  0  0
   11.5047  -18.5870   28.4454 O   0  0  0  0  0  0  0  0  0  0  0  0
   11.2424  -16.3990   27.9947 O   0  0  0  0  0  0  0  0  0  0  0  0
  1  2  1  0
  3  2  1  0
  3  4  2  0
  6  5  1  1
  6  8  1  0
  7  6  1  0
  9  8  1  1
  9 10  1  0
 10  3  1  0
 11  9  1  0
 11 12  2  0
 13 11  1  0
 14 13  1  0
 14 15  1  6
 14 21  1  0
 16 17  2  0
 16 15  1  0
 18 17  1  0
 19 20  2  0
 19 18  1  0
 20 16  1  0
 21 22  1  0
 23 21  2  0
M  END
$$$$
