GLH.pdb
     RDKit          3D

 23 23  0  0  1  0  0  0  0  0999 V2000
    6.1781  -19.0490   22.8167 N   0  0  0  0  0  0  0  0  0  0  0  0
    6.1365  -18.3401   24.0570 C   0  0  0  0  0  0  0  0  0  0  0  0
    6.8109  -16.9966   23.9511 C   0  0  0  0  0  0  0  0  0  0  0  0
    7.5089  -16.7655   22.9505 O   0  0  0  0  0  0  0  0  0  0  0  0
    7.1032  -12.0068   24.5211 C   0  0  0  0  0  0  0  0  0  0  0  0
    6.1153  -12.6506   25.4341 C   0  0  2  0  0  0  0  0  0  0  0  0
    5.7202  -11.6218   26.4959 C   0  0  0  0  0  0  0  0  0  0  0  0
    6.6547  -13.8803   26.1341 C   0  0  0  0  0  0  0  0  0  0  0  0
    7.2757  -14.7831   25.1336 C   0  0  2  0  0  0  0  0  0  0  0  0
    6.6375  -16.0414   24.9779 N   0  0  0  0  0  0  0  0  0  0  0  0
    8.7772  -14.8410   25.2105 C   0  0  0  0  0  0  0  0  0  0  0  0
    9.4742  -13.8057   25.0834 O   0  0  0  0  0  0  0  0  0  0  0  0
    9.4571  -16.0576   25.4287 N   0  0  0  0  0  0  0  0  0  0  0  0
   10.9189  -16.1565   25.5489 C   0  0  1  0  0  0  0  0  0  0  0  0
   11.2090  -16.7167   26.8828 C   0  0  0  0  0  0  0  0  0  0  0  0
   10.9929  -15.8154   28.0241 C   0  0  0  0  0  0  0  0  0  0  0  0
   10.7076  -14.4814   28.0812 C   0  0  0  0  0  0  0  0  0  0  0  0
   10.5434  -14.1556   29.3781 N   0  0  0  0  0  0  0  0  0  0  0  0
   10.7225  -15.2627   30.0933 C   0  0  0  0  0  0  0  0  0  0  0  0
   10.9968  -16.2877   29.2963 N   0  0  0  0  0  0  0  0  0  0  0  0
   11.3476  -17.0351   24.4165 C   0  0  0  0  0  0  0  0  0  0  0  0
   12.7079  -17.2781   24.2360 O   0  0  0  0  0  0  0  0  0  0  0  0
   10.5603  -17.5625   23.6304 O   0  0  0  0  0  0  0  0  0  0  0  0
  1  2  1  0
  3  2  1  0
  3  4  2  0
  6  5  1  6
  6  8  1  0
  7  6  1  0
  9  8  1  1
  9 10  1  0
 10  3  1  0
 11  9  1  0
 11 12  2  0
 13 11  1  0
 14 13  1  0
 14 15  1  1
 14 21  1  0
 16 17  2  0
 16 15  1  0
 18 17  1  0
 19 20  2  0
 19 18  1  0
 20 16  1  0
 21 22  1  0
 23 21  2  0
M  END
$$$$
