GLH.pdb
     RDKit          3D

 23 23  0  0  1  0  0  0  0  0999 V2000
   10.8138  -18.5495   19.0874 N   0  0  0  0  0  0  0  0  0  0  0  0
    9.5823  -17.9629   19.5139 C   0  0  0  0  0  0  0  0  0  0  0  0
    9.8120  -16.8424   20.4951 C   0  0  0  0  0  0  0  0  0  0  0  0
   10.8950  -16.8033   21.1012 O   0  0  0  0  0  0  0  0  0  0  0  0
    9.0427  -12.5874   19.5694 C   0  0  0  0  0  0  0  0  0  0  0  0
    7.8284  -13.3758   19.9267 C   0  0  2  0  0  0  0  0  0  0  0  0
    6.6024  -12.5202   19.6000 C   0  0  0  0  0  0  0  0  0  0  0  0
    7.7695  -13.7608   21.3901 C   0  0  0  0  0  0  0  0  0  0  0  0
    8.7671  -14.8256   21.6591 C   0  0  2  0  0  0  0  0  0  0  0  0
    8.8046  -15.8733   20.7021 N   0  0  0  0  0  0  0  0  0  0  0  0
    8.8073  -15.2779   23.0936 C   0  0  0  0  0  0  0  0  0  0  0  0
    9.1495  -14.4947   24.0120 O   0  0  0  0  0  0  0  0  0  0  0  0
    8.4621  -16.5956   23.4603 N   0  0  0  0  0  0  0  0  0  0  0  0
    8.4898  -17.0824   24.8472 C   0  0  1  0  0  0  0  0  0  0  0  0
    7.5733  -18.2364   24.9218 C   0  0  0  0  0  0  0  0  0  0  0  0
    7.5536  -18.9655   26.1983 C   0  0  0  0  0  0  0  0  0  0  0  0
    8.1380  -18.6960   27.4025 C   0  0  0  0  0  0  0  0  0  0  0  0
    7.7507  -19.6546   28.2663 N   0  0  0  0  0  0  0  0  0  0  0  0
    6.9497  -20.4865   27.6062 C   0  0  0  0  0  0  0  0  0  0  0  0
    6.8116  -20.0920   26.3467 N   0  0  0  0  0  0  0  0  0  0  0  0
    9.9209  -17.4271   25.1138 C   0  0  0  0  0  0  0  0  0  0  0  0
   10.4026  -17.3228   26.4174 O   0  0  0  0  0  0  0  0  0  0  0  0
   10.7029  -17.8039   24.2407 O   0  0  0  0  0  0  0  0  0  0  0  0
  1  2  1  0
  3  2  1  0
  3  4  2  0
  6  5  1  1
  6  8  1  0
  7  6  1  0
  9  8  1  1
  9 10  1  0
 10  3  1  0
 11  9  1  0
 11 12  2  0
 13 11  1  0
 14 13  1  0
 14 15  1  6
 14 21  1  0
 16 17  2  0
 16 15  1  0
 18 17  1  0
 19 20  2  0
 19 18  1  0
 20 16  1  0
 21 22  1  0
 23 21  2  0
M  END
$$$$
