IRA.pdb
     RDKit          3D

 25 24  0  0  1  0  0  0  0  0999 V2000
    6.6688  -11.3910   28.1333 C   0  0  0  0  0  0  0  0  0  0  0  0
    6.0795  -12.4390   27.2563 C   0  0  0  0  0  0  0  0  0  0  0  0
    7.1265  -13.1628   26.3884 C   0  0  2  0  0  0  0  0  0  0  0  0
    8.0045  -12.1802   25.6923 C   0  0  0  0  0  0  0  0  0  0  0  0
    6.3749  -14.1109   25.5215 C   0  0  2  0  0  0  0  0  0  0  0  0
    5.7379  -15.1286   26.3905 N   0  0  0  0  0  0  0  0  0  0  0  0
    7.1101  -14.8098   24.4879 C   0  0  0  0  0  0  0  0  0  0  0  0
    7.8244  -15.8196   24.7749 O   0  0  0  0  0  0  0  0  0  0  0  0
    7.9060  -12.9887   17.4793 N   0  0  0  0  0  0  0  0  0  0  0  0
    8.2074  -14.2081   16.8282 C   0  0  0  0  0  0  0  0  0  0  0  0
    8.1754  -14.2849   15.5426 N   0  0  0  0  0  0  0  0  0  0  0  0
    8.5650  -15.4115   17.5022 N   0  0  0  0  0  0  0  0  0  0  0  0
    8.2025  -15.6475   18.8607 C   0  0  0  0  0  0  0  0  0  0  0  0
    8.8811  -14.6854   19.8252 C   0  0  0  0  0  0  0  0  0  0  0  0
    7.9147  -14.2647   20.8965 C   0  0  0  0  0  0  0  0  0  0  0  0
    8.0009  -15.0772   22.1391 C   0  0  2  0  0  0  0  0  0  0  0  0
    7.0903  -14.4377   23.1297 N   0  0  0  0  0  0  0  0  0  0  0  0
    9.3233  -15.2846   22.7144 C   0  0  0  0  0  0  0  0  0  0  0  0
    9.9136  -14.2538   23.1835 O   0  0  0  0  0  0  0  0  0  0  0  0
    8.3918  -15.1076   14.9824 C   0  0  0  0  0  0  0  0  0  0  0  0
   11.5732  -17.9942   23.9563 C   0  0  1  0  0  0  0  0  0  0  0  0
   11.3651  -16.6238   23.3355 N   0  0  0  0  0  0  0  0  0  0  0  0
   10.0252  -16.4996   22.8164 C   0  0  0  0  0  0  0  0  0  0  0  0
   12.4034  -16.4040   22.2713 O   0  0  0  0  0  0  0  0  0  0  0  0
   13.7239  -16.1784   22.5464 O   0  0  0  0  0  0  0  0  0  0  0  0
  2  3  1  0
  2  1  1  0
  3  4  1  6
  5  7  1  0
  5  3  1  0
  5  6  1  1
  7  8  2  0
 10 12  1  0
 10  9  1  0
 11 10  2  0
 13 12  1  0
 13 14  1  0
 14 15  1  0
 16 15  1  6
 17 16  1  0
 17  7  1  0
 18 19  2  0
 18 16  1  0
 21 20  1  1
 21 23  1  0
 21 22  1  0
 22 18  1  0
 23 24  1  0
 25 23  2  0
M  END
$$$$
