IRA.pdb
     RDKit          3D

 25 24  0  0  1  0  0  0  0  0999 V2000
    9.8255  -13.9181   29.5716 C   0  0  0  0  0  0  0  0  0  0  0  0
    8.6933  -14.5538   28.8445 C   0  0  0  0  0  0  0  0  0  0  0  0
    9.0980  -15.1252   27.4722 C   0  0  2  0  0  0  0  0  0  0  0  0
    9.8563  -14.1138   26.6829 C   0  0  0  0  0  0  0  0  0  0  0  0
    7.8534  -15.6543   26.8505 C   0  0  2  0  0  0  0  0  0  0  0  0
    7.3533  -16.7687   27.6900 N   0  0  0  0  0  0  0  0  0  0  0  0
    7.9294  -16.1293   25.4846 C   0  0  0  0  0  0  0  0  0  0  0  0
    8.2360  -17.3364   25.2374 O   0  0  0  0  0  0  0  0  0  0  0  0
    8.8835  -12.6465   18.2314 N   0  0  0  0  0  0  0  0  0  0  0  0
    8.0911  -13.6685   17.6575 C   0  0  0  0  0  0  0  0  0  0  0  0
    8.2990  -14.0499   16.4447 N   0  0  0  0  0  0  0  0  0  0  0  0
    7.0390  -14.3468   18.3381 N   0  0  0  0  0  0  0  0  0  0  0  0
    6.7942  -14.1495   19.7287 C   0  0  0  0  0  0  0  0  0  0  0  0
    7.6521  -15.0470   20.6091 C   0  0  0  0  0  0  0  0  0  0  0  0
    7.2880  -14.8494   22.0537 C   0  0  0  0  0  0  0  0  0  0  0  0
    7.9616  -15.7978   22.9804 C   0  0  2  0  0  0  0  0  0  0  0  0
    7.6768  -15.3177   24.3616 N   0  0  0  0  0  0  0  0  0  0  0  0
    9.3903  -16.0154   22.7954 C   0  0  0  0  0  0  0  0  0  0  0  0
   10.1568  -15.0190   23.0203 O   0  0  0  0  0  0  0  0  0  0  0  0
    7.8062  -14.7941   15.9539 C   0  0  0  0  0  0  0  0  0  0  0  0
   11.8415  -18.8275   22.4526 C   0  0  1  0  0  0  0  0  0  0  0  0
   11.4531  -17.3688   22.2847 N   0  0  0  0  0  0  0  0  0  0  0  0
   10.0246  -17.2072   22.3995 C   0  0  0  0  0  0  0  0  0  0  0  0
   11.9713  -16.8716   20.9644 O   0  0  0  0  0  0  0  0  0  0  0  0
   13.2831  -16.5538   20.7446 O   0  0  0  0  0  0  0  0  0  0  0  0
  2  3  1  0
  2  1  1  0
  3  4  1  6
  5  7  1  0
  5  3  1  0
  5  6  1  1
  7  8  2  0
 10 12  1  0
 10  9  1  0
 11 10  2  0
 13 12  1  0
 13 14  1  0
 14 15  1  0
 16 15  1  6
 17 16  1  0
 17  7  1  0
 18 19  2  0
 18 16  1  0
 21 20  1  1
 21 23  1  0
 21 22  1  0
 22 18  1  0
 23 24  1  0
 25 23  2  0
M  END
$$$$
