IRA.pdb
     RDKit          3D

 25 24  0  0  1  0  0  0  0  0999 V2000
    8.3158  -12.1298   18.6025 C   0  0  0  0  0  0  0  0  0  0  0  0
    8.2212  -13.5460   19.0498 C   0  0  0  0  0  0  0  0  0  0  0  0
    7.7218  -13.6922   20.4998 C   0  0  2  0  0  0  0  0  0  0  0  0
    8.5574  -12.8807   21.4295 C   0  0  0  0  0  0  0  0  0  0  0  0
    7.6492  -15.1528   20.7770 C   0  0  2  0  0  0  0  0  0  0  0  0
    6.7075  -15.7624   19.8084 N   0  0  0  0  0  0  0  0  0  0  0  0
    7.2489  -15.5695   22.1049 C   0  0  0  0  0  0  0  0  0  0  0  0
    6.0461  -15.4342   22.4884 O   0  0  0  0  0  0  0  0  0  0  0  0
    9.7345  -19.8612   27.9671 N   0  0  0  0  0  0  0  0  0  0  0  0
    8.4555  -20.3260   28.3543 C   0  0  0  0  0  0  0  0  0  0  0  0
    8.2992  -20.9459   29.4727 N   0  0  0  0  0  0  0  0  0  0  0  0
    7.2709  -20.1548   27.5812 N   0  0  0  0  0  0  0  0  0  0  0  0
    7.3148  -19.7035   26.2296 C   0  0  0  0  0  0  0  0  0  0  0  0
    7.4801  -18.1945   26.1195 C   0  0  0  0  0  0  0  0  0  0  0  0
    7.5882  -17.7934   24.6752 C   0  0  0  0  0  0  0  0  0  0  0  0
    7.7328  -16.3282   24.4655 C   0  0  2  0  0  0  0  0  0  0  0  0
    8.1319  -16.1393   23.0426 N   0  0  0  0  0  0  0  0  0  0  0  0
    8.6373  -15.6097   25.3535 C   0  0  0  0  0  0  0  0  0  0  0  0
    9.8848  -15.8458   25.2161 O   0  0  0  0  0  0  0  0  0  0  0  0
    7.4254  -21.3224   29.8362 C   0  0  0  0  0  0  0  0  0  0  0  0
    8.6577  -12.7577   27.8007 C   0  0  1  0  0  0  0  0  0  0  0  0
    9.2347  -14.0435   27.2344 N   0  0  0  0  0  0  0  0  0  0  0  0
    8.2899  -14.6766   26.3475 C   0  0  0  0  0  0  0  0  0  0  0  0
    9.6322  -14.9449   28.3695 O   0  0  0  0  0  0  0  0  0  0  0  0
   10.6769  -14.6769   29.2102 O   0  0  0  0  0  0  0  0  0  0  0  0
  2  3  1  0
  2  1  1  0
  3  4  1  1
  5  7  1  0
  5  3  1  0
  5  6  1  6
  7  8  2  0
 10 12  1  0
 10  9  1  0
 11 10  2  0
 13 12  1  0
 13 14  1  0
 14 15  1  0
 16 15  1  1
 17 16  1  0
 17  7  1  0
 18 19  2  0
 18 16  1  0
 21 20  1  6
 21 23  1  0
 21 22  1  0
 22 18  1  0
 23 24  1  0
 25 23  2  0
M  END
$$$$
