IRA.pdb
     RDKit          3D

 25 24  0  0  1  0  0  0  0  0999 V2000
    7.0999  -11.9509   19.5552 C   0  0  0  0  0  0  0  0  0  0  0  0
    7.8978  -12.9638   18.8122 C   0  0  0  0  0  0  0  0  0  0  0  0
    8.6004  -13.9782   19.7345 C   0  0  2  0  0  0  0  0  0  0  0  0
    9.4378  -13.2770   20.7484 C   0  0  0  0  0  0  0  0  0  0  0  0
    9.3042  -14.9420   18.8451 C   0  0  2  0  0  0  0  0  0  0  0  0
    8.3106  -15.5209   17.9101 N   0  0  0  0  0  0  0  0  0  0  0  0
   10.0177  -16.0383   19.4666 C   0  0  0  0  0  0  0  0  0  0  0  0
    9.3923  -17.0630   19.8802 O   0  0  0  0  0  0  0  0  0  0  0  0
   13.4210  -16.3132   15.5623 N   0  0  0  0  0  0  0  0  0  0  0  0
   14.0705  -17.5514   15.3460 C   0  0  0  0  0  0  0  0  0  0  0  0
   14.1529  -18.0448   14.1588 N   0  0  0  0  0  0  0  0  0  0  0  0
   14.6734  -18.3324   16.3741 N   0  0  0  0  0  0  0  0  0  0  0  0
   14.6943  -17.8988   17.7320 C   0  0  0  0  0  0  0  0  0  0  0  0
   13.3014  -17.7939   18.3365 C   0  0  0  0  0  0  0  0  0  0  0  0
   13.3965  -17.3766   19.7771 C   0  0  0  0  0  0  0  0  0  0  0  0
   12.0786  -17.1412   20.4248 C   0  0  2  0  0  0  0  0  0  0  0  0
   11.4135  -16.0538   19.6536 N   0  0  0  0  0  0  0  0  0  0  0  0
   12.0765  -16.8370   21.8497 C   0  0  0  0  0  0  0  0  0  0  0  0
   12.5791  -15.7160   22.1983 O   0  0  0  0  0  0  0  0  0  0  0  0
   14.5869  -18.9299   13.9027 C   0  0  0  0  0  0  0  0  0  0  0  0
   10.2644  -17.5261   24.9383 C   0  0  2  0  0  0  0  0  0  0  0  0
   11.6141  -17.2814   24.2862 N   0  0  0  0  0  0  0  0  0  0  0  0
   11.5764  -17.6413   22.8901 C   0  0  0  0  0  0  0  0  0  0  0  0
   12.6677  -18.0471   25.0363 O   0  0  0  0  0  0  0  0  0  0  0  0
   13.0722  -17.7238   26.3020 O   0  0  0  0  0  0  0  0  0  0  0  0
  2  3  1  0
  2  1  1  0
  3  4  1  1
  5  7  1  0
  5  3  1  0
  5  6  1  6
  7  8  2  0
 10 12  1  0
 10  9  1  0
 11 10  2  0
 13 12  1  0
 13 14  1  0
 14 15  1  0
 16 15  1  6
 17 16  1  0
 17  7  1  0
 18 19  2  0
 18 16  1  0
 21 20  1  6
 21 23  1  0
 21 22  1  0
 22 18  1  0
 23 24  1  0
 25 23  2  0
M  END
$$$$
