IRA.pdb
     RDKit          3D

 25 24  0  0  1  0  0  0  0  0999 V2000
    6.8236  -10.7495   27.3984 C   0  0  0  0  0  0  0  0  0  0  0  0
    6.1362  -11.7837   26.5783 C   0  0  0  0  0  0  0  0  0  0  0  0
    7.0577  -12.9516   26.1779 C   0  0  2  0  0  0  0  0  0  0  0  0
    8.2897  -12.4457   25.5092 C   0  0  0  0  0  0  0  0  0  0  0  0
    6.2209  -13.9017   25.3953 C   0  0  2  0  0  0  0  0  0  0  0  0
    5.1217  -14.3786   26.2677 N   0  0  0  0  0  0  0  0  0  0  0  0
    6.8706  -15.0645   24.8269 C   0  0  0  0  0  0  0  0  0  0  0  0
    6.9437  -16.1484   25.4842 O   0  0  0  0  0  0  0  0  0  0  0  0
    8.4433  -20.0441   20.0222 N   0  0  0  0  0  0  0  0  0  0  0  0
    9.3758  -19.5687   19.0703 C   0  0  0  0  0  0  0  0  0  0  0  0
   10.1931  -20.3828   18.4967 N   0  0  0  0  0  0  0  0  0  0  0  0
    9.4902  -18.2062   18.6692 N   0  0  0  0  0  0  0  0  0  0  0  0
    8.8264  -17.1582   19.3717 C   0  0  0  0  0  0  0  0  0  0  0  0
    8.9155  -17.3160   20.8829 C   0  0  0  0  0  0  0  0  0  0  0  0
    8.1735  -16.1987   21.5609 C   0  0  0  0  0  0  0  0  0  0  0  0
    8.1866  -16.2801   23.0458 C   0  0  2  0  0  0  0  0  0  0  0  0
    7.4514  -15.0840   23.5440 N   0  0  0  0  0  0  0  0  0  0  0  0
    9.4834  -16.3964   23.6996 C   0  0  0  0  0  0  0  0  0  0  0  0
   10.2384  -15.3670   23.6650 O   0  0  0  0  0  0  0  0  0  0  0  0
   10.9504  -20.1306   17.8640 C   0  0  0  0  0  0  0  0  0  0  0  0
   11.3124  -18.5020   26.1720 C   0  0  1  0  0  0  0  0  0  0  0  0
   11.3124  -17.5808   24.9646 N   0  0  0  0  0  0  0  0  0  0  0  0
    9.9987  -17.5193   24.3726 C   0  0  0  0  0  0  0  0  0  0  0  0
   12.3492  -18.0550   23.9852 O   0  0  0  0  0  0  0  0  0  0  0  0
   13.6944  -17.9633   24.2132 O   0  0  0  0  0  0  0  0  0  0  0  0
  2  3  1  0
  2  1  1  0
  3  4  1  6
  5  7  1  0
  5  3  1  0
  5  6  1  1
  7  8  2  0
 10 12  1  0
 10  9  1  0
 11 10  2  0
 13 12  1  0
 13 14  1  0
 14 15  1  0
 16 15  1  6
 17 16  1  0
 17  7  1  0
 18 19  2  0
 18 16  1  0
 21 20  1  1
 21 23  1  0
 21 22  1  0
 22 18  1  0
 23 24  1  0
 25 23  2  0
M  END
$$$$
