IRA.pdb
     RDKit          3D

 25 24  0  0  1  0  0  0  0  0999 V2000
    6.5907  -11.5590   28.5253 C   0  0  0  0  0  0  0  0  0  0  0  0
    6.0024  -12.6985   27.7701 C   0  0  0  0  0  0  0  0  0  0  0  0
    6.9797  -13.3237   26.7566 C   0  0  2  0  0  0  0  0  0  0  0  0
    7.6035  -12.2701   25.9070 C   0  0  0  0  0  0  0  0  0  0  0  0
    6.2248  -14.3898   26.0433 C   0  0  2  0  0  0  0  0  0  0  0  0
    5.9318  -15.4756   27.0086 N   0  0  0  0  0  0  0  0  0  0  0  0
    6.8402  -14.9891   24.8773 C   0  0  0  0  0  0  0  0  0  0  0  0
    7.4149  -16.1183   24.9597 O   0  0  0  0  0  0  0  0  0  0  0  0
    9.9703  -13.1929   17.7534 N   0  0  0  0  0  0  0  0  0  0  0  0
    9.0844  -14.0491   17.0578 C   0  0  0  0  0  0  0  0  0  0  0  0
    9.4089  -14.5240   15.9051 N   0  0  0  0  0  0  0  0  0  0  0  0
    7.8090  -14.4540   17.5472 N   0  0  0  0  0  0  0  0  0  0  0  0
    7.2907  -13.9698   18.7839 C   0  0  0  0  0  0  0  0  0  0  0  0
    7.8567  -14.7095   19.9876 C   0  0  0  0  0  0  0  0  0  0  0  0
    7.1420  -14.2795   21.2377 C   0  0  0  0  0  0  0  0  0  0  0  0
    7.5756  -15.0064   22.4605 C   0  0  2  0  0  0  0  0  0  0  0  0
    6.8483  -14.3874   23.6040 N   0  0  0  0  0  0  0  0  0  0  0  0
    9.0056  -15.0676   22.7326 C   0  0  0  0  0  0  0  0  0  0  0  0
    9.5211  -14.0606   23.3251 O   0  0  0  0  0  0  0  0  0  0  0  0
    8.8794  -15.2045   15.3628 C   0  0  0  0  0  0  0  0  0  0  0  0
   11.5018  -17.1774   23.9020 C   0  0  1  0  0  0  0  0  0  0  0  0
   11.2769  -16.1560   22.8006 N   0  0  0  0  0  0  0  0  0  0  0  0
    9.8866  -16.1187   22.4187 C   0  0  0  0  0  0  0  0  0  0  0  0
   12.1712  -16.4831   21.6377 O   0  0  0  0  0  0  0  0  0  0  0  0
   13.5356  -16.4121   21.6970 O   0  0  0  0  0  0  0  0  0  0  0  0
  2  3  1  0
  2  1  1  0
  3  4  1  6
  5  7  1  0
  5  3  1  0
  5  6  1  1
  7  8  2  0
 10 12  1  0
 10  9  1  0
 11 10  2  0
 13 12  1  0
 13 14  1  0
 14 15  1  0
 16 15  1  6
 17 16  1  0
 17  7  1  0
 18 19  2  0
 18 16  1  0
 21 20  1  1
 21 23  1  0
 21 22  1  0
 22 18  1  0
 23 24  1  0
 25 23  2  0
M  END
$$$$
