IRA.pdb
     RDKit          3D

 25 24  0  0  1  0  0  0  0  0999 V2000
    7.1821  -11.8726   28.3117 C   0  0  0  0  0  0  0  0  0  0  0  0
    6.4392  -12.7904   27.4058 C   0  0  0  0  0  0  0  0  0  0  0  0
    7.3501  -13.5152   26.3966 C   0  0  2  0  0  0  0  0  0  0  0  0
    8.1540  -12.5348   25.6134 C   0  0  0  0  0  0  0  0  0  0  0  0
    6.4726  -14.4284   25.6146 C   0  0  2  0  0  0  0  0  0  0  0  0
    6.0754  -15.5544   26.4926 N   0  0  0  0  0  0  0  0  0  0  0  0
    7.0021  -14.9890   24.3888 C   0  0  0  0  0  0  0  0  0  0  0  0
    7.3195  -16.2167   24.3252 O   0  0  0  0  0  0  0  0  0  0  0  0
    8.1500  -16.0698   17.0751 N   0  0  0  0  0  0  0  0  0  0  0  0
    8.3423  -14.7841   16.5167 C   0  0  0  0  0  0  0  0  0  0  0  0
    8.2678  -14.6100   15.2424 N   0  0  0  0  0  0  0  0  0  0  0  0
    8.6183  -13.6113   17.2773 N   0  0  0  0  0  0  0  0  0  0  0  0
    7.9386  -13.3310   18.4987 C   0  0  0  0  0  0  0  0  0  0  0  0
    8.3116  -14.2977   19.6135 C   0  0  0  0  0  0  0  0  0  0  0  0
    7.5808  -13.9338   20.8752 C   0  0  0  0  0  0  0  0  0  0  0  0
    7.8701  -14.8364   22.0213 C   0  0  2  0  0  0  0  0  0  0  0  0
    7.1987  -14.2422   23.2110 N   0  0  0  0  0  0  0  0  0  0  0  0
    9.2684  -15.1260   22.3105 C   0  0  0  0  0  0  0  0  0  0  0  0
    9.9500  -14.1886   22.8466 O   0  0  0  0  0  0  0  0  0  0  0  0
    8.3425  -13.7215   14.7501 C   0  0  0  0  0  0  0  0  0  0  0  0
   11.5100  -18.0703   22.7636 C   0  0  1  0  0  0  0  0  0  0  0  0
   11.3111  -16.5906   22.4849 N   0  0  0  0  0  0  0  0  0  0  0  0
    9.9550  -16.3300   22.0688 C   0  0  0  0  0  0  0  0  0  0  0  0
   12.3110  -16.1462   21.4546 O   0  0  0  0  0  0  0  0  0  0  0  0
   13.6421  -15.9824   21.7224 O   0  0  0  0  0  0  0  0  0  0  0  0
  2  3  1  0
  2  1  1  0
  3  4  1  6
  5  7  1  0
  5  3  1  0
  5  6  1  1
  7  8  2  0
 10 12  1  0
 10  9  1  0
 11 10  2  0
 13 12  1  0
 13 14  1  0
 14 15  1  0
 16 15  1  6
 17 16  1  0
 17  7  1  0
 18 19  2  0
 18 16  1  0
 21 20  1  1
 21 23  1  0
 21 22  1  0
 22 18  1  0
 23 24  1  0
 25 23  2  0
M  END
$$$$
