IRA.pdb
     RDKit          3D

 25 24  0  0  1  0  0  0  0  0999 V2000
    6.6630  -11.8269   28.2195 C   0  0  0  0  0  0  0  0  0  0  0  0
    6.1437  -12.9477   27.3895 C   0  0  0  0  0  0  0  0  0  0  0  0
    7.1881  -13.5082   26.4054 C   0  0  2  0  0  0  0  0  0  0  0  0
    7.8857  -12.4023   25.6905 C   0  0  0  0  0  0  0  0  0  0  0  0
    6.4779  -14.5029   25.5559 C   0  0  2  0  0  0  0  0  0  0  0  0
    6.0937  -15.6518   26.4098 N   0  0  0  0  0  0  0  0  0  0  0  0
    7.1761  -15.0253   24.3997 C   0  0  0  0  0  0  0  0  0  0  0  0
    7.8521  -16.0967   24.4840 O   0  0  0  0  0  0  0  0  0  0  0  0
    8.6665  -13.0939   17.2881 N   0  0  0  0  0  0  0  0  0  0  0  0
    8.0577  -14.2870   16.8322 C   0  0  0  0  0  0  0  0  0  0  0  0
    7.8484  -14.4717   15.5745 N   0  0  0  0  0  0  0  0  0  0  0  0
    7.6425  -15.3524   17.6824 N   0  0  0  0  0  0  0  0  0  0  0  0
    8.2563  -15.5864   18.9476 C   0  0  0  0  0  0  0  0  0  0  0  0
    8.6120  -14.2976   19.6750 C   0  0  0  0  0  0  0  0  0  0  0  0
    7.6699  -14.0801   20.8256 C   0  0  0  0  0  0  0  0  0  0  0  0
    7.9165  -14.9784   21.9849 C   0  0  2  0  0  0  0  0  0  0  0  0
    7.1595  -14.4077   23.1341 N   0  0  0  0  0  0  0  0  0  0  0  0
    9.3029  -15.2296   22.3556 C   0  0  0  0  0  0  0  0  0  0  0  0
    9.9687  -14.2336   22.7977 O   0  0  0  0  0  0  0  0  0  0  0  0
    7.5150  -15.3297   15.1386 C   0  0  0  0  0  0  0  0  0  0  0  0
   11.6637  -18.0398   23.0750 C   0  0  1  0  0  0  0  0  0  0  0  0
   11.3886  -16.6199   22.6113 N   0  0  0  0  0  0  0  0  0  0  0  0
    9.9935  -16.4534   22.2855 C   0  0  0  0  0  0  0  0  0  0  0  0
   12.2806  -16.3031   21.4439 O   0  0  0  0  0  0  0  0  0  0  0  0
   11.8108  -16.0822   20.1787 O   0  0  0  0  0  0  0  0  0  0  0  0
  2  3  1  0
  2  1  1  0
  3  4  1  6
  5  7  1  0
  5  3  1  0
  5  6  1  1
  7  8  2  0
 10 12  1  0
 10  9  1  0
 11 10  2  0
 13 12  1  0
 13 14  1  0
 14 15  1  0
 16 15  1  6
 17 16  1  0
 17  7  1  0
 18 19  2  0
 18 16  1  0
 21 20  1  1
 21 23  1  0
 21 22  1  0
 22 18  1  0
 23 24  1  0
 25 23  2  0
M  END
$$$$
