IRA.pdb
     RDKit          3D

 25 24  0  0  1  0  0  0  0  0999 V2000
    6.4935  -12.0150   28.4310 C   0  0  0  0  0  0  0  0  0  0  0  0
    6.0000  -13.1106   27.5530 C   0  0  0  0  0  0  0  0  0  0  0  0
    7.0591  -13.6089   26.5513 C   0  0  2  0  0  0  0  0  0  0  0  0
    7.7567  -12.4605   25.9068 C   0  0  0  0  0  0  0  0  0  0  0  0
    6.3653  -14.5594   25.6400 C   0  0  2  0  0  0  0  0  0  0  0  0
    5.9780  -15.7555   26.4249 N   0  0  0  0  0  0  0  0  0  0  0  0
    7.0806  -15.0139   24.4656 C   0  0  0  0  0  0  0  0  0  0  0  0
    7.6456  -16.1509   24.4542 O   0  0  0  0  0  0  0  0  0  0  0  0
    9.2710  -15.8461   17.4437 N   0  0  0  0  0  0  0  0  0  0  0  0
    8.7953  -14.6686   16.8200 C   0  0  0  0  0  0  0  0  0  0  0  0
    8.3079  -14.7144   15.6284 N   0  0  0  0  0  0  0  0  0  0  0  0
    8.8041  -13.3791   17.4260 N   0  0  0  0  0  0  0  0  0  0  0  0
    8.1228  -13.1204   18.6513 C   0  0  0  0  0  0  0  0  0  0  0  0
    8.4742  -14.1227   19.7415 C   0  0  0  0  0  0  0  0  0  0  0  0
    7.7098  -13.8063   20.9962 C   0  0  0  0  0  0  0  0  0  0  0  0
    7.9110  -14.7938   22.0899 C   0  0  2  0  0  0  0  0  0  0  0  0
    7.2005  -14.2567   23.2842 N   0  0  0  0  0  0  0  0  0  0  0  0
    9.2826  -15.1529   22.4253 C   0  0  0  0  0  0  0  0  0  0  0  0
   10.0272  -14.2182   22.8755 O   0  0  0  0  0  0  0  0  0  0  0  0
    8.0354  -13.9162   15.0575 C   0  0  0  0  0  0  0  0  0  0  0  0
   11.4837  -18.1721   22.8566 C   0  0  1  0  0  0  0  0  0  0  0  0
   11.2704  -16.6922   22.5901 N   0  0  0  0  0  0  0  0  0  0  0  0
    9.8812  -16.4211   22.3130 C   0  0  0  0  0  0  0  0  0  0  0  0
   12.1636  -16.2631   21.4600 O   0  0  0  0  0  0  0  0  0  0  0  0
   13.5112  -16.0761   21.5981 O   0  0  0  0  0  0  0  0  0  0  0  0
  2  3  1  0
  2  1  1  0
  3  4  1  6
  5  7  1  0
  5  3  1  0
  5  6  1  1
  7  8  2  0
 10 12  1  0
 10  9  1  0
 11 10  2  0
 13 12  1  0
 13 14  1  0
 14 15  1  0
 16 15  1  6
 17 16  1  0
 17  7  1  0
 18 19  2  0
 18 16  1  0
 21 20  1  1
 21 23  1  0
 21 22  1  0
 22 18  1  0
 23 24  1  0
 25 23  2  0
M  END
$$$$
