IRA.pdb
     RDKit          3D

 25 24  0  0  1  0  0  0  0  0999 V2000
   10.2134  -13.8879   29.1464 C   0  0  0  0  0  0  0  0  0  0  0  0
    9.1695  -14.7882   28.5855 C   0  0  0  0  0  0  0  0  0  0  0  0
    8.7555  -14.4160   27.1491 C   0  0  2  0  0  0  0  0  0  0  0  0
    8.3665  -12.9797   27.0679 C   0  0  0  0  0  0  0  0  0  0  0  0
    7.7244  -15.4067   26.7358 C   0  0  2  0  0  0  0  0  0  0  0  0
    7.7483  -16.5310   27.7011 N   0  0  0  0  0  0  0  0  0  0  0  0
    7.8200  -15.9658   25.4033 C   0  0  0  0  0  0  0  0  0  0  0  0
    7.9114  -17.2210   25.2354 O   0  0  0  0  0  0  0  0  0  0  0  0
    8.4920  -12.2908   19.1132 N   0  0  0  0  0  0  0  0  0  0  0  0
    8.1653  -13.2943   18.1708 C   0  0  0  0  0  0  0  0  0  0  0  0
    7.8155  -12.9735   16.9731 N   0  0  0  0  0  0  0  0  0  0  0  0
    8.1966  -14.6926   18.4430 N   0  0  0  0  0  0  0  0  0  0  0  0
    8.3830  -15.1966   19.7635 C   0  0  0  0  0  0  0  0  0  0  0  0
    7.0775  -15.3137   20.5371 C   0  0  0  0  0  0  0  0  0  0  0  0
    7.2638  -14.8061   21.9393 C   0  0  0  0  0  0  0  0  0  0  0  0
    7.8049  -15.8218   22.8812 C   0  0  2  0  0  0  0  0  0  0  0  0
    7.8179  -15.1878   24.2293 N   0  0  0  0  0  0  0  0  0  0  0  0
    9.1067  -16.3979   22.5709 C   0  0  0  0  0  0  0  0  0  0  0  0
    9.1633  -17.1786   21.5618 O   0  0  0  0  0  0  0  0  0  0  0  0
    7.5766  -13.6183   16.2218 C   0  0  0  0  0  0  0  0  0  0  0  0
   12.6159  -15.7120   22.6147 C   0  0  2  0  0  0  0  0  0  0  0  0
   11.5759  -16.7840   22.8904 N   0  0  0  0  0  0  0  0  0  0  0  0
   10.3159  -16.1864   23.2583 C   0  0  0  0  0  0  0  0  0  0  0  0
   12.0934  -17.7074   23.9573 O   0  0  0  0  0  0  0  0  0  0  0  0
   13.2743  -18.3890   23.8517 O   0  0  0  0  0  0  0  0  0  0  0  0
  2  3  1  0
  2  1  1  0
  3  4  1  1
  5  7  1  0
  5  3  1  0
  5  6  1  1
  7  8  2  0
 10 12  1  0
 10  9  1  0
 11 10  2  0
 13 12  1  0
 13 14  1  0
 14 15  1  0
 16 15  1  6
 17 16  1  0
 17  7  1  0
 18 19  2  0
 18 16  1  0
 21 20  1  6
 21 23  1  0
 21 22  1  0
 22 18  1  0
 23 24  1  0
 25 23  2  0
M  END
$$$$
