IRA.pdb
     RDKit          3D

 25 24  0  0  1  0  0  0  0  0999 V2000
    5.6018  -10.8051   27.0298 C   0  0  0  0  0  0  0  0  0  0  0  0
    5.4455  -12.1004   26.3139 C   0  0  0  0  0  0  0  0  0  0  0  0
    6.7722  -12.8657   26.1479 C   0  0  2  0  0  0  0  0  0  0  0  0
    7.8130  -11.9905   25.5382 C   0  0  0  0  0  0  0  0  0  0  0  0
    6.4483  -14.1201   25.4152 C   0  0  2  0  0  0  0  0  0  0  0  0
    5.3704  -14.8221   26.1514 N   0  0  0  0  0  0  0  0  0  0  0  0
    7.5201  -15.0678   25.1907 C   0  0  0  0  0  0  0  0  0  0  0  0
    7.8022  -15.9421   26.0671 O   0  0  0  0  0  0  0  0  0  0  0  0
    9.2408  -13.0251   19.2242 N   0  0  0  0  0  0  0  0  0  0  0  0
    8.1625  -13.9188   19.0233 C   0  0  0  0  0  0  0  0  0  0  0  0
    7.0090  -13.4758   18.6588 N   0  0  0  0  0  0  0  0  0  0  0  0
    8.2479  -15.3311   19.1917 N   0  0  0  0  0  0  0  0  0  0  0  0
    9.1047  -15.9207   20.1667 C   0  0  0  0  0  0  0  0  0  0  0  0
    8.9753  -15.2662   21.5347 C   0  0  0  0  0  0  0  0  0  0  0  0
    9.9619  -15.8750   22.4910 C   0  0  0  0  0  0  0  0  0  0  0  0
    9.4328  -16.0561   23.8691 C   0  0  2  0  0  0  0  0  0  0  0  0
    8.3059  -15.0938   24.0222 N   0  0  0  0  0  0  0  0  0  0  0  0
   10.3757  -15.9242   24.9721 C   0  0  0  0  0  0  0  0  0  0  0  0
   11.5699  -15.5879   24.6696 O   0  0  0  0  0  0  0  0  0  0  0  0
    6.1724  -14.0339   18.4976 C   0  0  0  0  0  0  0  0  0  0  0  0
   10.8743  -14.8144   28.2497 C   0  0  2  0  0  0  0  0  0  0  0  0
   11.1140  -16.0351   27.3784 N   0  0  0  0  0  0  0  0  0  0  0  0
   10.1163  -16.1221   26.3406 C   0  0  0  0  0  0  0  0  0  0  0  0
   11.1317  -17.2620   28.2463 O   0  0  0  0  0  0  0  0  0  0  0  0
   12.0501  -17.4661   29.2388 O   0  0  0  0  0  0  0  0  0  0  0  0
  2  3  1  0
  2  1  1  0
  3  4  1  6
  5  7  1  0
  5  3  1  0
  5  6  1  1
  7  8  2  0
 10 12  1  0
 10  9  1  0
 11 10  2  0
 13 12  1  0
 13 14  1  0
 14 15  1  0
 16 15  1  6
 17 16  1  0
 17  7  1  0
 18 19  2  0
 18 16  1  0
 21 20  1  6
 21 23  1  0
 21 22  1  0
 22 18  1  0
 23 24  1  0
 25 23  2  0
M  END
$$$$
