IRA.pdb
     RDKit          3D

 25 24  0  0  1  0  0  0  0  0999 V2000
    7.6878  -12.0698   18.6699 C   0  0  0  0  0  0  0  0  0  0  0  0
    8.0104  -13.4654   19.0737 C   0  0  0  0  0  0  0  0  0  0  0  0
    7.5223  -13.8145   20.4926 C   0  0  2  0  0  0  0  0  0  0  0  0
    7.9949  -12.8004   21.4770 C   0  0  0  0  0  0  0  0  0  0  0  0
    7.9292  -15.2238   20.7451 C   0  0  2  0  0  0  0  0  0  0  0  0
    7.2499  -16.0879   19.7510 N   0  0  0  0  0  0  0  0  0  0  0  0
    7.6733  -15.7760   22.0592 C   0  0  0  0  0  0  0  0  0  0  0  0
    6.4846  -16.0046   22.4426 O   0  0  0  0  0  0  0  0  0  0  0  0
   11.8957  -21.0052   22.5691 N   0  0  0  0  0  0  0  0  0  0  0  0
   12.6143  -20.4164   23.6362 C   0  0  0  0  0  0  0  0  0  0  0  0
   13.9025  -20.4192   23.6333 N   0  0  0  0  0  0  0  0  0  0  0  0
   12.0084  -19.7872   24.7619 N   0  0  0  0  0  0  0  0  0  0  0  0
   10.6081  -19.5242   24.8118 C   0  0  0  0  0  0  0  0  0  0  0  0
   10.2772  -18.0579   24.5730 C   0  0  0  0  0  0  0  0  0  0  0  0
    8.7877  -17.8585   24.5861 C   0  0  0  0  0  0  0  0  0  0  0  0
    8.3669  -16.4450   24.3944 C   0  0  2  0  0  0  0  0  0  0  0  0
    8.6881  -16.0931   22.9829 N   0  0  0  0  0  0  0  0  0  0  0  0
    8.9143  -15.4524   25.3098 C   0  0  0  0  0  0  0  0  0  0  0  0
   10.0519  -14.9576   25.0069 O   0  0  0  0  0  0  0  0  0  0  0  0
   14.5078  -19.9821   24.3260 C   0  0  0  0  0  0  0  0  0  0  0  0
    7.8428  -13.1093   27.9866 C   0  0  1  0  0  0  0  0  0  0  0  0
    8.9176  -13.9721   27.3486 N   0  0  0  0  0  0  0  0  0  0  0  0
    8.3255  -14.9714   26.4936 C   0  0  0  0  0  0  0  0  0  0  0  0
    9.7612  -14.5857   28.4307 O   0  0  0  0  0  0  0  0  0  0  0  0
   10.5561  -13.8535   29.2686 O   0  0  0  0  0  0  0  0  0  0  0  0
  2  3  1  0
  2  1  1  0
  3  4  1  1
  5  7  1  0
  5  3  1  0
  5  6  1  6
  7  8  2  0
 10 12  1  0
 10  9  1  0
 11 10  2  0
 13 12  1  0
 13 14  1  0
 14 15  1  0
 16 15  1  1
 17 16  1  0
 17  7  1  0
 18 19  2  0
 18 16  1  0
 21 20  1  6
 21 23  1  0
 21 22  1  0
 22 18  1  0
 23 24  1  0
 25 23  2  0
M  END
$$$$
