AQV.pdb
     RDKit          3D

 22 21  0  0  1  0  0  0  0  0999 V2000
    8.2187  -12.7984   19.4609 C   0  0  0  0  0  0  0  0  0  0  0  0
    8.1362  -14.3168   19.5406 C   0  0  2  0  0  0  0  0  0  0  0  0
    7.2533  -14.8563   18.5471 N   0  0  0  0  0  0  0  0  0  0  0  0
    7.5660  -14.6405   20.8749 C   0  0  0  0  0  0  0  0  0  0  0  0
    6.3488  -14.4494   21.0573 O   0  0  0  0  0  0  0  0  0  0  0  0
    7.8795  -19.7106   23.9952 N   0  0  0  0  0  0  0  0  0  0  0  0
    7.4791  -18.8674   25.0402 C   0  0  0  0  0  0  0  0  0  0  0  0
    7.1193  -19.3523   26.1314 O   0  0  0  0  0  0  0  0  0  0  0  0
    7.4805  -17.4043   24.8567 C   0  0  0  0  0  0  0  0  0  0  0  0
    7.9304  -17.0242   23.4486 C   0  0  0  0  0  0  0  0  0  0  0  0
    7.8382  -15.5392   23.2276 C   0  0  2  0  0  0  0  0  0  0  0  0
    8.3575  -15.1540   21.9327 N   0  0  0  0  0  0  0  0  0  0  0  0
    8.4451  -14.7836   24.3262 C   0  0  0  0  0  0  0  0  0  0  0  0
    9.6875  -14.7145   24.4974 O   0  0  0  0  0  0  0  0  0  0  0  0
    5.8589  -12.7921   26.9524 C   0  0  0  0  0  0  0  0  0  0  0  0
    7.2878  -12.2703   26.7931 C   0  0  2  0  0  0  0  0  0  0  0  0
    7.2538  -11.2740   25.6609 C   0  0  0  0  0  0  0  0  0  0  0  0
    8.1457  -13.4573   26.4200 C   0  0  2  0  0  0  0  0  0  0  0  0
    7.6133  -14.0931   25.2479 N   0  0  0  0  0  0  0  0  0  0  0  0
    8.3030  -14.4100   27.5330 C   0  0  0  0  0  0  0  0  0  0  0  0
    7.7910  -15.5507   27.4170 O   0  0  0  0  0  0  0  0  0  0  0  0
    8.9851  -14.1086   28.6947 O   0  0  0  0  0  0  0  0  0  0  0  0
  2  4  1  0
  2  1  1  6
  2  3  1  0
  4 12  1  0
  5  4  2  0
  6  7  1  0
  7  8  2  0
  7  9  1  0
  9 10  1  0
 11 10  1  1
 12 11  1  0
 13 11  1  0
 13 19  1  0
 14 13  2  0
 16 15  1  6
 16 17  1  0
 18 19  1  6
 18 16  1  0
 20 18  1  0
 21 20  2  0
 22 20  1  0
M  END
$$$$
