AQV.pdb
     RDKit          3D

 22 21  0  0  1  0  0  0  0  0999 V2000
   13.0013  -16.4018   21.3234 C   0  0  0  0  0  0  0  0  0  0  0  0
   11.6526  -17.0855   21.1438 C   0  0  2  0  0  0  0  0  0  0  0  0
   11.0036  -16.6759   19.9320 N   0  0  0  0  0  0  0  0  0  0  0  0
   10.8014  -16.6487   22.2817 C   0  0  0  0  0  0  0  0  0  0  0  0
   10.4198  -15.4634   22.3106 O   0  0  0  0  0  0  0  0  0  0  0  0
    6.7342  -20.2648   24.9181 N   0  0  0  0  0  0  0  0  0  0  0  0
    6.6337  -19.4709   23.7679 C   0  0  0  0  0  0  0  0  0  0  0  0
    5.7180  -19.6747   22.9462 O   0  0  0  0  0  0  0  0  0  0  0  0
    7.6081  -18.3918   23.5222 C   0  0  0  0  0  0  0  0  0  0  0  0
    8.5259  -18.1912   24.7252 C   0  0  0  0  0  0  0  0  0  0  0  0
    9.5797  -17.1558   24.4420 C   0  0  2  0  0  0  0  0  0  0  0  0
   10.4161  -17.5309   23.3221 N   0  0  0  0  0  0  0  0  0  0  0  0
   10.3557  -16.8232   25.6392 C   0  0  0  0  0  0  0  0  0  0  0  0
   11.4424  -17.3862   25.9219 O   0  0  0  0  0  0  0  0  0  0  0  0
    8.5360  -14.3817   28.5697 C   0  0  0  0  0  0  0  0  0  0  0  0
   10.0415  -14.2392   28.3402 C   0  0  2  0  0  0  0  0  0  0  0  0
   10.2145  -13.1473   27.3139 C   0  0  0  0  0  0  0  0  0  0  0  0
   10.5242  -15.5597   27.7858 C   0  0  2  0  0  0  0  0  0  0  0  0
    9.8785  -15.8258   26.5313 N   0  0  0  0  0  0  0  0  0  0  0  0
   10.3436  -16.6696   28.7380 C   0  0  0  0  0  0  0  0  0  0  0  0
    9.4060  -17.4802   28.5366 O   0  0  0  0  0  0  0  0  0  0  0  0
   11.1548  -16.8601   29.8387 O   0  0  0  0  0  0  0  0  0  0  0  0
  2  4  1  0
  2  1  1  1
  2  3  1  0
  4 12  1  0
  5  4  2  0
  6  7  1  0
  7  8  2  0
  7  9  1  0
  9 10  1  0
 11 10  1  1
 12 11  1  0
 13 11  1  0
 13 19  1  0
 14 13  2  0
 16 15  1  6
 16 17  1  0
 18 19  1  6
 18 16  1  0
 20 18  1  0
 21 20  2  0
 22 20  1  0
M  END
$$$$
