AQV.pdb
     RDKit          3D

 22 21  0  0  1  0  0  0  0  0999 V2000
    6.3600  -18.2837   24.6380 C   0  0  0  0  0  0  0  0  0  0  0  0
    6.5437  -18.2356   23.1272 C   0  0  2  0  0  0  0  0  0  0  0  0
    7.0829  -19.4625   22.6157 N   0  0  0  0  0  0  0  0  0  0  0  0
    7.5326  -17.1595   22.8548 C   0  0  0  0  0  0  0  0  0  0  0  0
    8.7431  -17.4289   22.9713 O   0  0  0  0  0  0  0  0  0  0  0  0
    8.1341  -12.1584   19.0778 N   0  0  0  0  0  0  0  0  0  0  0  0
    7.8600  -13.4928   18.7493 C   0  0  0  0  0  0  0  0  0  0  0  0
    7.8853  -13.8607   17.5580 O   0  0  0  0  0  0  0  0  0  0  0  0
    7.5406  -14.4683   19.8079 C   0  0  0  0  0  0  0  0  0  0  0  0
    7.5557  -13.8130   21.1863 C   0  0  0  0  0  0  0  0  0  0  0  0
    8.0653  -14.7614   22.2368 C   0  0  2  0  0  0  0  0  0  0  0  0
    7.1430  -15.8518   22.4710 N   0  0  0  0  0  0  0  0  0  0  0  0
    8.4384  -14.0635   23.4696 C   0  0  0  0  0  0  0  0  0  0  0  0
    8.9928  -12.9363   23.4703 O   0  0  0  0  0  0  0  0  0  0  0  0
    7.8411  -11.9257   27.2087 C   0  0  0  0  0  0  0  0  0  0  0  0
    7.3893  -12.8009   26.0385 C   0  0  2  0  0  0  0  0  0  0  0  0
    6.0074  -13.2962   26.3856 C   0  0  0  0  0  0  0  0  0  0  0  0
    8.3567  -13.9595   25.9626 C   0  0  2  0  0  0  0  0  0  0  0  0
    8.1717  -14.6677   24.7274 N   0  0  0  0  0  0  0  0  0  0  0  0
    8.2522  -14.8572   27.1264 C   0  0  0  0  0  0  0  0  0  0  0  0
    8.5068  -14.3896   28.2636 O   0  0  0  0  0  0  0  0  0  0  0  0
    7.8883  -16.1851   27.0259 O   0  0  0  0  0  0  0  0  0  0  0  0
  2  4  1  0
  2  1  1  1
  2  3  1  0
  4 12  1  0
  5  4  2  0
  6  7  1  0
  7  8  2  0
  7  9  1  0
  9 10  1  0
 11 10  1  6
 12 11  1  0
 13 11  1  0
 13 19  1  0
 14 13  2  0
 16 15  1  1
 16 17  1  0
 18 19  1  6
 18 16  1  0
 20 18  1  0
 21 20  2  0
 22 20  1  0
M  END
$$$$
