AQV.pdb
     RDKit          3D

 22 21  0  0  1  0  0  0  0  0999 V2000
    8.8040  -12.3234   19.3389 C   0  0  0  0  0  0  0  0  0  0  0  0
    8.6218  -13.8179   19.1109 C   0  0  2  0  0  0  0  0  0  0  0  0
    7.6571  -14.0875   18.0842 N   0  0  0  0  0  0  0  0  0  0  0  0
    8.0961  -14.3794   20.3831 C   0  0  0  0  0  0  0  0  0  0  0  0
    6.8924  -14.2040   20.6513 O   0  0  0  0  0  0  0  0  0  0  0  0
    9.1610  -18.9270   19.5724 N   0  0  0  0  0  0  0  0  0  0  0  0
    9.1432  -18.8536   20.9716 C   0  0  0  0  0  0  0  0  0  0  0  0
    9.9513  -19.5256   21.6428 O   0  0  0  0  0  0  0  0  0  0  0  0
    8.1708  -17.9831   21.6578 C   0  0  0  0  0  0  0  0  0  0  0  0
    8.8567  -17.0986   22.6956 C   0  0  0  0  0  0  0  0  0  0  0  0
    8.4504  -15.6586   22.5406 C   0  0  2  0  0  0  0  0  0  0  0  0
    8.9145  -15.0998   21.2888 N   0  0  0  0  0  0  0  0  0  0  0  0
    8.8429  -14.8516   23.6986 C   0  0  0  0  0  0  0  0  0  0  0  0
   10.0082  -14.4093   23.8542 O   0  0  0  0  0  0  0  0  0  0  0  0
    7.5334  -11.8338   27.2296 C   0  0  0  0  0  0  0  0  0  0  0  0
    7.1112  -12.6903   26.0348 C   0  0  2  0  0  0  0  0  0  0  0  0
    5.8239  -13.3696   26.4313 C   0  0  0  0  0  0  0  0  0  0  0  0
    8.2017  -13.7158   25.8273 C   0  0  2  0  0  0  0  0  0  0  0  0
    7.8822  -14.5443   24.6991 N   0  0  0  0  0  0  0  0  0  0  0  0
    8.4579  -14.5174   27.0369 C   0  0  0  0  0  0  0  0  0  0  0  0
    7.9624  -15.6692   27.1038 O   0  0  0  0  0  0  0  0  0  0  0  0
    9.2154  -14.0630   28.0978 O   0  0  0  0  0  0  0  0  0  0  0  0
  2  4  1  0
  2  1  1  1
  2  3  1  0
  4 12  1  0
  5  4  2  0
  6  7  1  0
  7  8  2  0
  7  9  1  0
  9 10  1  0
 11 10  1  1
 12 11  1  0
 13 11  1  0
 13 19  1  0
 14 13  2  0
 16 15  1  1
 16 17  1  0
 18 19  1  6
 18 16  1  0
 20 18  1  0
 21 20  2  0
 22 20  1  0
M  END
$$$$
