AQV.pdb
     RDKit          3D

 22 21  0  0  1  0  0  0  0  0999 V2000
    8.0270  -12.4728   19.0800 C   0  0  0  0  0  0  0  0  0  0  0  0
    8.4674  -13.9283   19.1613 C   0  0  2  0  0  0  0  0  0  0  0  0
    7.9494  -14.7043   18.0718 N   0  0  0  0  0  0  0  0  0  0  0  0
    7.8924  -14.4751   20.4185 C   0  0  0  0  0  0  0  0  0  0  0  0
    6.7290  -14.9191   20.3897 O   0  0  0  0  0  0  0  0  0  0  0  0
    9.7305  -18.7119   24.0841 N   0  0  0  0  0  0  0  0  0  0  0  0
   10.4813  -18.0410   23.1096 C   0  0  0  0  0  0  0  0  0  0  0  0
   11.6536  -18.3937   22.8717 O   0  0  0  0  0  0  0  0  0  0  0  0
    9.8913  -16.9160   22.3609 C   0  0  0  0  0  0  0  0  0  0  0  0
    8.4595  -16.6416   22.8128 C   0  0  0  0  0  0  0  0  0  0  0  0
    8.1683  -15.1661   22.8399 C   0  0  2  0  0  0  0  0  0  0  0  0
    8.6206  -14.5056   21.6342 N   0  0  0  0  0  0  0  0  0  0  0  0
    8.6783  -14.5298   24.0569 C   0  0  0  0  0  0  0  0  0  0  0  0
    9.8848  -14.2122   24.2024 O   0  0  0  0  0  0  0  0  0  0  0  0
    5.9051  -13.1188   26.8415 C   0  0  0  0  0  0  0  0  0  0  0  0
    7.3020  -12.5072   26.7224 C   0  0  2  0  0  0  0  0  0  0  0  0
    7.2290  -11.4916   25.6094 C   0  0  0  0  0  0  0  0  0  0  0  0
    8.2387  -13.6314   26.3444 C   0  0  2  0  0  0  0  0  0  0  0  0
    7.7895  -14.2512   25.1297 N   0  0  0  0  0  0  0  0  0  0  0  0
    8.4043  -14.6148   27.4291 C   0  0  0  0  0  0  0  0  0  0  0  0
    7.9889  -15.7847   27.2406 O   0  0  0  0  0  0  0  0  0  0  0  0
    8.9933  -14.3115   28.6403 O   0  0  0  0  0  0  0  0  0  0  0  0
  2  4  1  0
  2  1  1  6
  2  3  1  0
  4 12  1  0
  5  4  2  0
  6  7  1  0
  7  8  2  0
  7  9  1  0
  9 10  1  0
 11 10  1  6
 12 11  1  0
 13 11  1  0
 13 19  1  0
 14 13  2  0
 16 15  1  6
 16 17  1  0
 18 19  1  6
 18 16  1  0
 20 18  1  0
 21 20  2  0
 22 20  1  0
M  END
$$$$
