AQV.pdb
     RDKit          3D

 22 21  0  0  1  0  0  0  0  0999 V2000
    6.7203  -15.4833   19.2596 C   0  0  0  0  0  0  0  0  0  0  0  0
    8.0280  -15.5505   20.0367 C   0  0  2  0  0  0  0  0  0  0  0  0
    8.6912  -16.8098   19.8578 N   0  0  0  0  0  0  0  0  0  0  0  0
    7.6728  -15.4276   21.4751 C   0  0  0  0  0  0  0  0  0  0  0  0
    7.0501  -14.4136   21.8433 O   0  0  0  0  0  0  0  0  0  0  0  0
    7.7722  -20.1862   25.7421 N   0  0  0  0  0  0  0  0  0  0  0  0
    7.2619  -19.1089   26.4787 C   0  0  0  0  0  0  0  0  0  0  0  0
    6.8598  -19.2849   27.6460 O   0  0  0  0  0  0  0  0  0  0  0  0
    7.1973  -17.7631   25.8795 C   0  0  0  0  0  0  0  0  0  0  0  0
    7.6665  -17.7815   24.4272 C   0  0  0  0  0  0  0  0  0  0  0  0
    7.5749  -16.4147   23.8059 C   0  0  2  0  0  0  0  0  0  0  0  0
    8.0177  -16.4185   22.4281 N   0  0  0  0  0  0  0  0  0  0  0  0
    8.2548  -15.3994   24.6141 C   0  0  0  0  0  0  0  0  0  0  0  0
    9.5053  -15.2881   24.6528 O   0  0  0  0  0  0  0  0  0  0  0  0
    5.8630  -12.7068   26.7831 C   0  0  0  0  0  0  0  0  0  0  0  0
    7.2140  -12.2480   26.2320 C   0  0  2  0  0  0  0  0  0  0  0  0
    6.9547  -11.7422   24.8347 C   0  0  0  0  0  0  0  0  0  0  0  0
    8.1041  -13.4687   26.1897 C   0  0  2  0  0  0  0  0  0  0  0  0
    7.4879  -14.4928   25.3942 N   0  0  0  0  0  0  0  0  0  0  0  0
    8.4514  -13.9588   27.5352 C   0  0  0  0  0  0  0  0  0  0  0  0
    9.0732  -13.1882   28.3074 O   0  0  0  0  0  0  0  0  0  0  0  0
    8.1264  -15.2225   27.9861 O   0  0  0  0  0  0  0  0  0  0  0  0
  2  4  1  0
  2  1  1  6
  2  3  1  0
  4 12  1  0
  5  4  2  0
  6  7  1  0
  7  8  2  0
  7  9  1  0
  9 10  1  0
 11 10  1  1
 12 11  1  0
 13 11  1  0
 13 19  1  0
 14 13  2  0
 16 15  1  6
 16 17  1  0
 18 19  1  6
 18 16  1  0
 20 18  1  0
 21 20  2  0
 22 20  1  0
M  END
$$$$
