AQV.pdb
     RDKit          3D

 22 21  0  0  1  0  0  0  0  0999 V2000
    6.0263  -17.8311   19.9077 C   0  0  0  0  0  0  0  0  0  0  0  0
    7.2613  -17.4381   20.7071 C   0  0  2  0  0  0  0  0  0  0  0  0
    8.0747  -18.5756   21.0266 N   0  0  0  0  0  0  0  0  0  0  0  0
    6.7716  -16.8597   21.9861 C   0  0  0  0  0  0  0  0  0  0  0  0
    6.0800  -15.8248   21.9378 O   0  0  0  0  0  0  0  0  0  0  0  0
    6.5340  -19.8536   27.5265 N   0  0  0  0  0  0  0  0  0  0  0  0
    7.8022  -19.4280   27.1093 C   0  0  0  0  0  0  0  0  0  0  0  0
    8.8264  -19.9092   27.6333 O   0  0  0  0  0  0  0  0  0  0  0  0
    7.9335  -18.4105   26.0501 C   0  0  0  0  0  0  0  0  0  0  0  0
    6.5663  -17.9107   25.5912 C   0  0  0  0  0  0  0  0  0  0  0  0
    6.6986  -16.8649   24.5181 C   0  0  2  0  0  0  0  0  0  0  0  0
    7.0650  -17.4443   23.2435 N   0  0  0  0  0  0  0  0  0  0  0  0
    7.5934  -15.7772   24.9214 C   0  0  0  0  0  0  0  0  0  0  0  0
    8.7897  -15.7075   24.5449 O   0  0  0  0  0  0  0  0  0  0  0  0
    5.9990  -12.6558   27.2952 C   0  0  0  0  0  0  0  0  0  0  0  0
    7.0345  -12.3767   26.2047 C   0  0  2  0  0  0  0  0  0  0  0  0
    6.2625  -12.1863   24.9228 C   0  0  0  0  0  0  0  0  0  0  0  0
    7.9098  -13.6052   26.1109 C   0  0  2  0  0  0  0  0  0  0  0  0
    7.1093  -14.7482   25.7730 N   0  0  0  0  0  0  0  0  0  0  0  0
    8.6941  -13.8325   27.3375 C   0  0  0  0  0  0  0  0  0  0  0  0
    8.4774  -14.8786   27.9974 O   0  0  0  0  0  0  0  0  0  0  0  0
    9.6538  -12.9517   27.7945 O   0  0  0  0  0  0  0  0  0  0  0  0
  2  4  1  0
  2  1  1  6
  2  3  1  0
  4 12  1  0
  5  4  2  0
  6  7  1  0
  7  8  2  0
  7  9  1  0
  9 10  1  0
 11 10  1  1
 12 11  1  0
 13 11  1  0
 13 19  1  0
 14 13  2  0
 16 15  1  1
 16 17  1  0
 18 19  1  1
 18 16  1  0
 20 18  1  0
 21 20  2  0
 22 20  1  0
M  END
$$$$
