AQV.pdb
     RDKit          3D

 22 21  0  0  1  0  0  0  0  0999 V2000
    7.1468  -13.6354   19.0378 C   0  0  0  0  0  0  0  0  0  0  0  0
    8.4599  -13.7579   19.7992 C   0  0  2  0  0  0  0  0  0  0  0  0
    9.3175  -14.7554   19.2273 N   0  0  0  0  0  0  0  0  0  0  0  0
    8.1116  -14.1974   21.1760 C   0  0  0  0  0  0  0  0  0  0  0  0
    7.2682  -13.5354   21.8099 O   0  0  0  0  0  0  0  0  0  0  0  0
   10.4316  -19.4686   23.2371 N   0  0  0  0  0  0  0  0  0  0  0  0
    9.5671  -19.2602   22.1542 C   0  0  0  0  0  0  0  0  0  0  0  0
    9.5332  -20.0801   21.2151 O   0  0  0  0  0  0  0  0  0  0  0  0
    8.6939  -18.0726   22.1181 C   0  0  0  0  0  0  0  0  0  0  0  0
    8.8994  -17.1976   23.3517 C   0  0  0  0  0  0  0  0  0  0  0  0
    8.4008  -15.7978   23.1182 C   0  0  2  0  0  0  0  0  0  0  0  0
    8.7040  -15.3341   21.7812 N   0  0  0  0  0  0  0  0  0  0  0  0
    8.8635  -14.8719   24.1549 C   0  0  0  0  0  0  0  0  0  0  0  0
   10.0499  -14.4646   24.2208 O   0  0  0  0  0  0  0  0  0  0  0  0
    6.0388  -13.2707   26.9253 C   0  0  0  0  0  0  0  0  0  0  0  0
    7.2388  -12.4782   26.4045 C   0  0  2  0  0  0  0  0  0  0  0  0
    6.8033  -11.8517   25.1032 C   0  0  0  0  0  0  0  0  0  0  0  0
    8.3467  -13.4766   26.1596 C   0  0  2  0  0  0  0  0  0  0  0  0
    7.9499  -14.4023   25.1363 N   0  0  0  0  0  0  0  0  0  0  0  0
    8.7612  -14.1707   27.3914 C   0  0  0  0  0  0  0  0  0  0  0  0
    9.2396  -13.4855   28.3286 O   0  0  0  0  0  0  0  0  0  0  0  0
    8.6488  -15.5358   27.5637 O   0  0  0  0  0  0  0  0  0  0  0  0
  2  4  1  0
  2  1  1  6
  2  3  1  0
  4 12  1  0
  5  4  2  0
  6  7  1  0
  7  8  2  0
  7  9  1  0
  9 10  1  0
 11 10  1  1
 12 11  1  0
 13 11  1  0
 13 19  1  0
 14 13  2  0
 16 15  1  6
 16 17  1  0
 18 19  1  6
 18 16  1  0
 20 18  1  0
 21 20  2  0
 22 20  1  0
M  END
$$$$
