AQV.pdb
     RDKit          3D

 22 21  0  0  1  0  0  0  0  0999 V2000
   11.6178  -18.6635   21.2989 C   0  0  0  0  0  0  0  0  0  0  0  0
   11.2251  -17.2931   20.7635 C   0  0  2  0  0  0  0  0  0  0  0  0
   12.3196  -16.6455   20.1000 N   0  0  0  0  0  0  0  0  0  0  0  0
   10.8595  -16.4662   21.9436 C   0  0  0  0  0  0  0  0  0  0  0  0
   11.7411  -15.7525   22.4585 O   0  0  0  0  0  0  0  0  0  0  0  0
    5.8780  -14.0507   26.6376 N   0  0  0  0  0  0  0  0  0  0  0  0
    6.3237  -14.8756   25.5962 C   0  0  0  0  0  0  0  0  0  0  0  0
    5.9983  -16.0792   25.5697 O   0  0  0  0  0  0  0  0  0  0  0  0
    7.1784  -14.3268   24.5273 C   0  0  0  0  0  0  0  0  0  0  0  0
    7.6153  -15.4181   23.5538 C   0  0  0  0  0  0  0  0  0  0  0  0
    9.1110  -15.5773   23.5466 C   0  0  2  0  0  0  0  0  0  0  0  0
    9.5531  -16.4661   22.4934 N   0  0  0  0  0  0  0  0  0  0  0  0
    9.6268  -15.9618   24.8627 C   0  0  0  0  0  0  0  0  0  0  0  0
    9.8896  -17.1516   25.1677 O   0  0  0  0  0  0  0  0  0  0  0  0
   11.0645  -14.4762   29.3325 C   0  0  0  0  0  0  0  0  0  0  0  0
   10.4820  -14.0427   27.9863 C   0  0  2  0  0  0  0  0  0  0  0  0
    9.0555  -13.6305   28.2523 C   0  0  0  0  0  0  0  0  0  0  0  0
   10.5169  -15.2560   27.0859 C   0  0  2  0  0  0  0  0  0  0  0  0
    9.8465  -14.9643   25.8502 N   0  0  0  0  0  0  0  0  0  0  0  0
    9.9622  -16.4560   27.7368 C   0  0  0  0  0  0  0  0  0  0  0  0
    8.7462  -16.7181   27.5651 O   0  0  0  0  0  0  0  0  0  0  0  0
   10.7145  -17.3040   28.5247 O   0  0  0  0  0  0  0  0  0  0  0  0
  2  4  1  0
  2  1  1  1
  2  3  1  0
  4 12  1  0
  5  4  2  0
  6  7  1  0
  7  8  2  0
  7  9  1  0
  9 10  1  0
 11 10  1  1
 12 11  1  0
 13 11  1  0
 13 19  1  0
 14 13  2  0
 16 15  1  1
 16 17  1  0
 18 19  1  6
 18 16  1  0
 20 18  1  0
 21 20  2  0
 22 20  1  0
M  END
$$$$
