AQV.pdb
     RDKit          3D

 22 21  0  0  1  0  0  0  0  0999 V2000
    8.1188  -12.1615   19.4077 C   0  0  0  0  0  0  0  0  0  0  0  0
    8.3048  -13.6673   19.2786 C   0  0  2  0  0  0  0  0  0  0  0  0
    7.5131  -14.2136   18.2145 N   0  0  0  0  0  0  0  0  0  0  0  0
    7.8230  -14.2642   20.5521 C   0  0  0  0  0  0  0  0  0  0  0  0
    6.5938  -14.3486   20.7350 O   0  0  0  0  0  0  0  0  0  0  0  0
    9.2569  -19.5167   22.5742 N   0  0  0  0  0  0  0  0  0  0  0  0
    8.4817  -18.9854   21.5349 C   0  0  0  0  0  0  0  0  0  0  0  0
    8.0897  -19.7223   20.6083 O   0  0  0  0  0  0  0  0  0  0  0  0
    8.1252  -17.5546   21.5303 C   0  0  0  0  0  0  0  0  0  0  0  0
    8.6523  -16.8495   22.7771 C   0  0  0  0  0  0  0  0  0  0  0  0
    8.2917  -15.3892   22.7728 C   0  0  2  0  0  0  0  0  0  0  0  0
    8.7108  -14.7345   21.5520 N   0  0  0  0  0  0  0  0  0  0  0  0
    8.7726  -14.7031   23.9746 C   0  0  0  0  0  0  0  0  0  0  0  0
    9.9737  -14.3710   24.1318 O   0  0  0  0  0  0  0  0  0  0  0  0
    5.9496  -13.2425   26.7001 C   0  0  0  0  0  0  0  0  0  0  0  0
    7.3477  -12.6326   26.5871 C   0  0  2  0  0  0  0  0  0  0  0  0
    7.2867  -11.6335   25.4586 C   0  0  0  0  0  0  0  0  0  0  0  0
    8.2883  -13.7621   26.2357 C   0  0  2  0  0  0  0  0  0  0  0  0
    7.8603  -14.3907   25.0179 N   0  0  0  0  0  0  0  0  0  0  0  0
    8.4312  -14.7371   27.3313 C   0  0  0  0  0  0  0  0  0  0  0  0
    7.9706  -15.8931   27.1633 O   0  0  0  0  0  0  0  0  0  0  0  0
    9.0461  -14.4404   28.5311 O   0  0  0  0  0  0  0  0  0  0  0  0
  2  4  1  0
  2  1  1  1
  2  3  1  0
  4 12  1  0
  5  4  2  0
  6  7  1  0
  7  8  2  0
  7  9  1  0
  9 10  1  0
 11 10  1  6
 12 11  1  0
 13 11  1  0
 13 19  1  0
 14 13  2  0
 16 15  1  6
 16 17  1  0
 18 19  1  6
 18 16  1  0
 20 18  1  0
 21 20  2  0
 22 20  1  0
M  END
$$$$
