AQV.pdb
     RDKit          3D

 22 21  0  0  1  0  0  0  0  0999 V2000
    7.1458  -12.9568   19.1261 C   0  0  0  0  0  0  0  0  0  0  0  0
    8.4708  -13.2537   19.8154 C   0  0  2  0  0  0  0  0  0  0  0  0
    9.2379  -14.2314   19.0990 N   0  0  0  0  0  0  0  0  0  0  0  0
    8.1370  -13.8278   21.1455 C   0  0  0  0  0  0  0  0  0  0  0  0
    7.3957  -13.1713   21.9011 O   0  0  0  0  0  0  0  0  0  0  0  0
   10.3873  -19.3792   22.5831 N   0  0  0  0  0  0  0  0  0  0  0  0
    9.7571  -18.8479   21.4499 C   0  0  0  0  0  0  0  0  0  0  0  0
   10.0704  -19.2535   20.3130 O   0  0  0  0  0  0  0  0  0  0  0  0
    8.7217  -17.8081   21.5943 C   0  0  0  0  0  0  0  0  0  0  0  0
    8.8324  -17.1011   22.9425 C   0  0  0  0  0  0  0  0  0  0  0  0
    8.3373  -15.6832   22.8584 C   0  0  2  0  0  0  0  0  0  0  0  0
    8.6315  -15.0853   21.5737 N   0  0  0  0  0  0  0  0  0  0  0  0
    8.8118  -14.8703   23.9810 C   0  0  0  0  0  0  0  0  0  0  0  0
    9.9988  -14.4705   24.0755 O   0  0  0  0  0  0  0  0  0  0  0  0
    5.9838  -13.3999   26.7377 C   0  0  0  0  0  0  0  0  0  0  0  0
    7.2968  -12.6691   26.4524 C   0  0  2  0  0  0  0  0  0  0  0  0
    7.0528  -11.8147   25.2334 C   0  0  0  0  0  0  0  0  0  0  0  0
    8.3289  -13.7308   26.1491 C   0  0  2  0  0  0  0  0  0  0  0  0
    7.9096  -14.5074   25.0167 N   0  0  0  0  0  0  0  0  0  0  0  0
    8.6203  -14.5820   27.3160 C   0  0  0  0  0  0  0  0  0  0  0  0
    8.3043  -15.7960   27.2610 O   0  0  0  0  0  0  0  0  0  0  0  0
    9.2229  -14.1091   28.4645 O   0  0  0  0  0  0  0  0  0  0  0  0
  2  4  1  0
  2  1  1  6
  2  3  1  0
  4 12  1  0
  5  4  2  0
  6  7  1  0
  7  8  2  0
  7  9  1  0
  9 10  1  0
 11 10  1  6
 12 11  1  0
 13 11  1  0
 13 19  1  0
 14 13  2  0
 16 15  1  6
 16 17  1  0
 18 19  1  6
 18 16  1  0
 20 18  1  0
 21 20  2  0
 22 20  1  0
M  END
$$$$
