AQV.pdb
     RDKit          3D

 22 21  0  0  1  0  0  0  0  0999 V2000
    8.0471  -12.1989   19.6016 C   0  0  0  0  0  0  0  0  0  0  0  0
    8.3136  -13.6802   19.3699 C   0  0  2  0  0  0  0  0  0  0  0  0
    7.4616  -14.2229   18.3515 N   0  0  0  0  0  0  0  0  0  0  0  0
    7.9909  -14.3730   20.6451 C   0  0  0  0  0  0  0  0  0  0  0  0
    6.7997  -14.6528   20.8782 O   0  0  0  0  0  0  0  0  0  0  0  0
   10.6591  -19.2312   22.3694 N   0  0  0  0  0  0  0  0  0  0  0  0
    9.5521  -18.9785   21.5483 C   0  0  0  0  0  0  0  0  0  0  0  0
    9.1868  -19.8293   20.7129 O   0  0  0  0  0  0  0  0  0  0  0  0
    8.8138  -17.7076   21.6664 C   0  0  0  0  0  0  0  0  0  0  0  0
    9.4039  -16.8254   22.7633 C   0  0  0  0  0  0  0  0  0  0  0  0
    8.7363  -15.4779   22.7992 C   0  0  2  0  0  0  0  0  0  0  0  0
    8.9870  -14.7203   21.5918 N   0  0  0  0  0  0  0  0  0  0  0  0
    9.0744  -14.7318   24.0137 C   0  0  0  0  0  0  0  0  0  0  0  0
   10.2429  -14.3510   24.2732 O   0  0  0  0  0  0  0  0  0  0  0  0
    5.9379  -13.5193   26.4872 C   0  0  0  0  0  0  0  0  0  0  0  0
    7.2704  -12.7695   26.5298 C   0  0  2  0  0  0  0  0  0  0  0  0
    7.1998  -11.7139   25.4545 C   0  0  0  0  0  0  0  0  0  0  0  0
    8.3479  -13.7777   26.2034 C   0  0  2  0  0  0  0  0  0  0  0  0
    8.0546  -14.4148   24.9506 N   0  0  0  0  0  0  0  0  0  0  0  0
    8.5436  -14.7617   27.2826 C   0  0  0  0  0  0  0  0  0  0  0  0
    8.1758  -15.9455   27.0827 O   0  0  0  0  0  0  0  0  0  0  0  0
    9.1109  -14.4443   28.5005 O   0  0  0  0  0  0  0  0  0  0  0  0
  2  4  1  0
  2  1  1  1
  2  3  1  0
  4 12  1  0
  5  4  2  0
  6  7  1  0
  7  8  2  0
  7  9  1  0
  9 10  1  0
 11 10  1  6
 12 11  1  0
 13 11  1  0
 13 19  1  0
 14 13  2  0
 16 15  1  6
 16 17  1  0
 18 19  1  6
 18 16  1  0
 20 18  1  0
 21 20  2  0
 22 20  1  0
M  END
$$$$
