AQV.pdb
     RDKit          3D

 22 21  0  0  1  0  0  0  0  0999 V2000
    8.2570  -12.9106   19.1270 C   0  0  0  0  0  0  0  0  0  0  0  0
    8.3564  -14.4274   19.2177 C   0  0  2  0  0  0  0  0  0  0  0  0
    7.6605  -15.0732   18.1424 N   0  0  0  0  0  0  0  0  0  0  0  0
    7.6901  -14.8203   20.4872 C   0  0  0  0  0  0  0  0  0  0  0  0
    6.4468  -14.7674   20.5407 O   0  0  0  0  0  0  0  0  0  0  0  0
    7.8613  -19.7257   23.8445 N   0  0  0  0  0  0  0  0  0  0  0  0
    6.6706  -19.1924   23.3335 C   0  0  0  0  0  0  0  0  0  0  0  0
    5.6864  -19.9335   23.1401 O   0  0  0  0  0  0  0  0  0  0  0  0
    6.5738  -17.7544   23.0218 C   0  0  0  0  0  0  0  0  0  0  0  0
    7.9230  -17.0605   23.1890 C   0  0  0  0  0  0  0  0  0  0  0  0
    7.8204  -15.5884   22.8976 C   0  0  2  0  0  0  0  0  0  0  0  0
    8.4195  -15.2483   21.6248 N   0  0  0  0  0  0  0  0  0  0  0  0
    8.3383  -14.7748   24.0003 C   0  0  0  0  0  0  0  0  0  0  0  0
    9.5638  -14.6864   24.2613 O   0  0  0  0  0  0  0  0  0  0  0  0
    7.5145  -11.3095   27.3430 C   0  0  0  0  0  0  0  0  0  0  0  0
    6.9137  -12.1493   26.2146 C   0  0  2  0  0  0  0  0  0  0  0  0
    5.6120  -12.7009   26.7407 C   0  0  0  0  0  0  0  0  0  0  0  0
    7.8868  -13.2734   25.9431 C   0  0  2  0  0  0  0  0  0  0  0  0
    7.4354  -14.0473   24.8212 N   0  0  0  0  0  0  0  0  0  0  0  0
    8.1178  -14.1166   27.1292 C   0  0  0  0  0  0  0  0  0  0  0  0
    7.5070  -15.2107   27.2099 O   0  0  0  0  0  0  0  0  0  0  0  0
    8.9720  -13.7613   28.1539 O   0  0  0  0  0  0  0  0  0  0  0  0
  2  4  1  0
  2  1  1  6
  2  3  1  0
  4 12  1  0
  5  4  2  0
  6  7  1  0
  7  8  2  0
  7  9  1  0
  9 10  1  0
 11 10  1  1
 12 11  1  0
 13 11  1  0
 13 19  1  0
 14 13  2  0
 16 15  1  1
 16 17  1  0
 18 19  1  6
 18 16  1  0
 20 18  1  0
 21 20  2  0
 22 20  1  0
M  END
$$$$
