QQD.pdb
     RDKit          3D

 27 26  0  0  1  0  0  0  0  0999 V2000
    7.8017  -12.1896   17.6518 N   0  0  0  0  0  0  0  0  0  0  0  0
    7.5585  -13.5383   17.3732 C   0  0  0  0  0  0  0  0  0  0  0  0
    7.2002  -13.8861   16.2192 O   0  0  0  0  0  0  0  0  0  0  0  0
    7.7037  -14.6070   18.3887 C   0  0  0  0  0  0  0  0  0  0  0  0
    7.9923  -14.0431   19.7628 C   0  0  0  0  0  0  0  0  0  0  0  0
    8.8325  -15.0644   20.4910 C   0  0  2  0  0  0  0  0  0  0  0  0
    8.1406  -16.3158   20.4610 N   0  0  0  0  0  0  0  0  0  0  0  0
    9.2477  -14.6405   21.8286 C   0  0  0  0  0  0  0  0  0  0  0  0
    9.6029  -13.4500   22.0189 O   0  0  0  0  0  0  0  0  0  0  0  0
    6.0317  -12.0675   24.9927 N   0  0  0  0  0  0  0  0  0  0  0  0
    6.7287  -12.5738   26.1115 C   0  0  0  0  0  0  0  0  0  0  0  0
    6.4574  -12.1420   27.2468 O   0  0  0  0  0  0  0  0  0  0  0  0
    7.7600  -13.6044   25.9274 C   0  0  0  0  0  0  0  0  0  0  0  0
    7.9905  -14.0714   24.5405 C   0  0  0  0  0  0  0  0  0  0  0  0
    9.0791  -15.0596   24.3110 C   0  0  2  0  0  0  0  0  0  0  0  0
    9.2795  -15.5148   22.9764 N   0  0  0  0  0  0  0  0  0  0  0  0
    8.9941  -16.2436   25.1943 C   0  0  0  0  0  0  0  0  0  0  0  0
    8.7152  -16.0995   26.4026 O   0  0  0  0  0  0  0  0  0  0  0  0
    9.2194  -17.5580   24.7207 N   0  0  0  0  0  0  0  0  0  0  0  0
   10.4996  -18.2250   25.0302 C   0  0  1  0  0  0  0  0  0  0  0  0
   11.6168  -17.4152   24.4121 C   0  0  0  0  0  0  0  0  0  0  0  0
   12.9500  -17.9682   24.7053 C   0  0  0  0  0  0  0  0  0  0  0  0
   13.1774  -19.1694   24.9899 O   0  0  0  0  0  0  0  0  0  0  0  0
   10.6269  -18.0959   26.5151 C   0  0  0  0  0  0  0  0  0  0  0  0
   10.1459  -17.1584   27.1816 O   0  0  0  0  0  0  0  0  0  0  0  0
   14.0654  -17.1233   24.6735 O   0  0  0  0  0  0  0  0  0  0  0  0
   11.3202  -19.0588   27.2648 O   0  0  0  0  0  0  0  0  0  0  0  0
  1  2  1  0
  2  3  2  0
  2  4  1  0
  4  5  1  0
  5  6  1  0
  6  8  1  0
  6  7  1  1
  8  9  2  0
 11 10  1  0
 11 12  2  0
 13 11  1  0
 14 13  1  0
 15 14  1  6
 16 15  1  0
 16  8  1  0
 17 15  1  0
 17 18  2  0
 19 17  1  0
 20 19  1  0
 20 24  1  0
 20 21  1  6
 22 21  1  0
 22 26  1  0
 23 22  2  0
 24 25  2  0
 24 27  1  0
M  END
$$$$
