QQD.pdb
     RDKit          3D

 27 26  0  0  1  0  0  0  0  0999 V2000
    7.5228  -12.1093   16.4993 N   0  0  0  0  0  0  0  0  0  0  0  0
    7.2251  -13.4657   16.3345 C   0  0  0  0  0  0  0  0  0  0  0  0
    6.8748  -13.8990   15.2072 O   0  0  0  0  0  0  0  0  0  0  0  0
    7.3017  -14.4453   17.4430 C   0  0  0  0  0  0  0  0  0  0  0  0
    7.7081  -13.7913   18.7456 C   0  0  0  0  0  0  0  0  0  0  0  0
    8.5982  -14.7710   19.4719 C   0  0  2  0  0  0  0  0  0  0  0  0
    8.4798  -16.0435   18.8298 N   0  0  0  0  0  0  0  0  0  0  0  0
    8.3790  -14.8062   20.9183 C   0  0  0  0  0  0  0  0  0  0  0  0
    8.5253  -13.7560   21.5929 O   0  0  0  0  0  0  0  0  0  0  0  0
    6.1920  -19.5737   24.7726 N   0  0  0  0  0  0  0  0  0  0  0  0
    6.3763  -18.4687   25.6321 C   0  0  0  0  0  0  0  0  0  0  0  0
    6.2123  -18.6138   26.8573 O   0  0  0  0  0  0  0  0  0  0  0  0
    6.7629  -17.1644   25.0762 C   0  0  0  0  0  0  0  0  0  0  0  0
    6.9307  -17.0939   23.6059 C   0  0  0  0  0  0  0  0  0  0  0  0
    7.7923  -16.0129   23.0551 C   0  0  2  0  0  0  0  0  0  0  0  0
    7.9964  -15.9925   21.6457 N   0  0  0  0  0  0  0  0  0  0  0  0
    9.1140  -15.9214   23.7140 C   0  0  0  0  0  0  0  0  0  0  0  0
    9.1899  -15.5723   24.9102 O   0  0  0  0  0  0  0  0  0  0  0  0
   10.3196  -16.2180   23.0347 N   0  0  0  0  0  0  0  0  0  0  0  0
   11.5810  -16.2767   23.7997 C   0  0  1  0  0  0  0  0  0  0  0  0
   11.5404  -17.5007   24.6862 C   0  0  0  0  0  0  0  0  0  0  0  0
   12.8038  -17.7208   25.4105 C   0  0  0  0  0  0  0  0  0  0  0  0
   13.5362  -18.7314   25.2770 O   0  0  0  0  0  0  0  0  0  0  0  0
   12.6269  -16.5179   22.7576 C   0  0  0  0  0  0  0  0  0  0  0  0
   13.7944  -16.0853   22.8221 O   0  0  0  0  0  0  0  0  0  0  0  0
   13.2503  -16.7552   26.3201 O   0  0  0  0  0  0  0  0  0  0  0  0
   12.3388  -17.2718   21.6094 O   0  0  0  0  0  0  0  0  0  0  0  0
  1  2  1  0
  2  3  2  0
  2  4  1  0
  4  5  1  0
  5  6  1  0
  6  8  1  0
  6  7  1  6
  8  9  2  0
 11 10  1  0
 11 12  2  0
 13 11  1  0
 14 13  1  0
 15 14  1  6
 16 15  1  0
 16  8  1  0
 17 15  1  0
 17 18  2  0
 19 17  1  0
 20 19  1  0
 20 24  1  0
 20 21  1  1
 22 21  1  0
 22 26  1  0
 23 22  2  0
 24 25  2  0
 24 27  1  0
M  END
$$$$
