QQD.pdb
     RDKit          3D

 27 26  0  0  1  0  0  0  0  0999 V2000
    8.2199  -13.0438   16.7097 N   0  0  0  0  0  0  0  0  0  0  0  0
    7.7980  -14.3723   16.8241 C   0  0  0  0  0  0  0  0  0  0  0  0
    7.2109  -14.9295   15.8618 O   0  0  0  0  0  0  0  0  0  0  0  0
    8.0102  -15.1798   18.0477 C   0  0  0  0  0  0  0  0  0  0  0  0
    8.7292  -14.3948   19.1231 C   0  0  0  0  0  0  0  0  0  0  0  0
    8.8622  -15.3060   20.3196 C   0  0  2  0  0  0  0  0  0  0  0  0
    7.7709  -16.2301   20.3012 N   0  0  0  0  0  0  0  0  0  0  0  0
    9.0240  -14.5938   21.5877 C   0  0  0  0  0  0  0  0  0  0  0  0
   10.0658  -13.9214   21.7921 O   0  0  0  0  0  0  0  0  0  0  0  0
    5.8122  -14.0354   26.7690 N   0  0  0  0  0  0  0  0  0  0  0  0
    6.3673  -12.7380   26.7185 C   0  0  0  0  0  0  0  0  0  0  0  0
    6.3296  -12.0177   27.7328 O   0  0  0  0  0  0  0  0  0  0  0  0
    6.9860  -12.2535   25.4768 C   0  0  0  0  0  0  0  0  0  0  0  0
    6.8917  -13.1451   24.2974 C   0  0  0  0  0  0  0  0  0  0  0  0
    8.1417  -13.7889   23.8103 C   0  0  2  0  0  0  0  0  0  0  0  0
    8.0466  -14.6086   22.6494 N   0  0  0  0  0  0  0  0  0  0  0  0
    8.8559  -14.5529   24.8571 C   0  0  0  0  0  0  0  0  0  0  0  0
    9.1133  -14.0146   25.9536 O   0  0  0  0  0  0  0  0  0  0  0  0
    9.2681  -15.8933   24.6663 N   0  0  0  0  0  0  0  0  0  0  0  0
    9.8786  -16.6258   25.7934 C   0  0  1  0  0  0  0  0  0  0  0  0
    8.8782  -17.6429   26.2942 C   0  0  0  0  0  0  0  0  0  0  0  0
    9.4123  -18.4774   27.3840 C   0  0  0  0  0  0  0  0  0  0  0  0
   10.5543  -18.3474   27.8883 O   0  0  0  0  0  0  0  0  0  0  0  0
   11.0059  -17.3834   25.1663 C   0  0  0  0  0  0  0  0  0  0  0  0
   11.0339  -17.7379   23.9714 O   0  0  0  0  0  0  0  0  0  0  0  0
    8.6174  -19.4974   27.9196 O   0  0  0  0  0  0  0  0  0  0  0  0
   12.1336  -17.7490   25.9177 O   0  0  0  0  0  0  0  0  0  0  0  0
  1  2  1  0
  2  3  2  0
  2  4  1  0
  4  5  1  0
  5  6  1  0
  6  8  1  0
  6  7  1  1
  8  9  2  0
 11 10  1  0
 11 12  2  0
 13 11  1  0
 14 13  1  0
 15 14  1  1
 16 15  1  0
 16  8  1  0
 17 15  1  0
 17 18  2  0
 19 17  1  0
 20 19  1  0
 20 24  1  0
 20 21  1  6
 22 21  1  0
 22 26  1  0
 23 22  2  0
 24 25  2  0
 24 27  1  0
M  END
$$$$
