QQD.pdb
     RDKit          3D

 27 26  0  0  1  0  0  0  0  0999 V2000
   17.5212  -17.0536   18.3087 N   0  0  0  0  0  0  0  0  0  0  0  0
   17.5653  -15.7175   17.8981 C   0  0  0  0  0  0  0  0  0  0  0  0
   18.6737  -15.1599   17.6939 O   0  0  0  0  0  0  0  0  0  0  0  0
   16.3471  -14.9021   17.6849 C   0  0  0  0  0  0  0  0  0  0  0  0
   15.1558  -15.7565   17.3103 C   0  0  0  0  0  0  0  0  0  0  0  0
   13.9772  -14.8258   17.1548 C   0  0  2  0  0  0  0  0  0  0  0  0
   14.4192  -13.6574   16.4583 N   0  0  0  0  0  0  0  0  0  0  0  0
   13.2764  -14.5475   18.4088 C   0  0  0  0  0  0  0  0  0  0  0  0
   13.7731  -13.7350   19.2290 O   0  0  0  0  0  0  0  0  0  0  0  0
    7.2644  -12.2277   18.9472 N   0  0  0  0  0  0  0  0  0  0  0  0
    7.8889  -13.4941   18.9337 C   0  0  0  0  0  0  0  0  0  0  0  0
    7.1916  -14.5176   18.8106 O   0  0  0  0  0  0  0  0  0  0  0  0
    9.3497  -13.5921   19.0597 C   0  0  0  0  0  0  0  0  0  0  0  0
    9.8690  -14.6713   19.9318 C   0  0  0  0  0  0  0  0  0  0  0  0
   11.3432  -14.8625   19.9993 C   0  0  2  0  0  0  0  0  0  0  0  0
   12.0217  -15.1554   18.7818 N   0  0  0  0  0  0  0  0  0  0  0  0
   11.7611  -15.8578   21.0113 C   0  0  0  0  0  0  0  0  0  0  0  0
   11.5254  -17.0697   20.8263 O   0  0  0  0  0  0  0  0  0  0  0  0
   12.4295  -15.4894   22.2031 N   0  0  0  0  0  0  0  0  0  0  0  0
   12.9359  -16.5466   23.1005 C   0  0  1  0  0  0  0  0  0  0  0  0
   14.1448  -16.0080   23.8315 C   0  0  0  0  0  0  0  0  0  0  0  0
   15.2484  -15.6541   22.9225 C   0  0  0  0  0  0  0  0  0  0  0  0
   16.0152  -14.6729   23.0793 O   0  0  0  0  0  0  0  0  0  0  0  0
   11.8462  -16.7181   24.1110 C   0  0  0  0  0  0  0  0  0  0  0  0
   11.9166  -17.4783   25.0966 O   0  0  0  0  0  0  0  0  0  0  0  0
   15.4880  -16.4461   21.7936 O   0  0  0  0  0  0  0  0  0  0  0  0
   10.6420  -16.0058   23.9990 O   0  0  0  0  0  0  0  0  0  0  0  0
  1  2  1  0
  2  3  2  0
  2  4  1  0
  4  5  1  0
  5  6  1  0
  6  8  1  0
  6  7  1  1
  8  9  2  0
 11 10  1  0
 11 12  2  0
 13 11  1  0
 14 13  1  0
 15 14  1  6
 16 15  1  0
 16  8  1  0
 17 15  1  0
 17 18  2  0
 19 17  1  0
 20 19  1  0
 20 24  1  0
 20 21  1  1
 22 21  1  0
 22 26  1  0
 23 22  2  0
 24 25  2  0
 24 27  1  0
M  END
$$$$
