QQD.pdb
     RDKit          3D

 27 26  0  0  1  0  0  0  0  0999 V2000
    7.8664  -12.3667   18.1504 N   0  0  0  0  0  0  0  0  0  0  0  0
    8.6196  -13.5368   18.2894 C   0  0  0  0  0  0  0  0  0  0  0  0
    9.6354  -13.7185   17.5709 O   0  0  0  0  0  0  0  0  0  0  0  0
    8.2779  -14.6011   19.2614 C   0  0  0  0  0  0  0  0  0  0  0  0
    7.0588  -14.2433   20.0833 C   0  0  0  0  0  0  0  0  0  0  0  0
    6.8171  -15.3897   21.0355 C   0  0  2  0  0  0  0  0  0  0  0  0
    5.4178  -15.4411   21.3271 N   0  0  0  0  0  0  0  0  0  0  0  0
    7.6761  -15.3634   22.2198 C   0  0  0  0  0  0  0  0  0  0  0  0
    7.5957  -14.3994   23.0222 O   0  0  0  0  0  0  0  0  0  0  0  0
    7.7796  -17.9694   27.3686 N   0  0  0  0  0  0  0  0  0  0  0  0
    9.0858  -17.4347   27.4090 C   0  0  0  0  0  0  0  0  0  0  0  0
    9.6965  -17.3958   28.4927 O   0  0  0  0  0  0  0  0  0  0  0  0
    9.7117  -16.9356   26.1767 C   0  0  0  0  0  0  0  0  0  0  0  0
    8.8746  -16.9515   24.9545 C   0  0  0  0  0  0  0  0  0  0  0  0
    9.4467  -16.3661   23.7117 C   0  0  2  0  0  0  0  0  0  0  0  0
    8.6351  -16.3927   22.5417 N   0  0  0  0  0  0  0  0  0  0  0  0
   10.7769  -16.9123   23.3629 C   0  0  0  0  0  0  0  0  0  0  0  0
   10.9101  -18.1344   23.1457 O   0  0  0  0  0  0  0  0  0  0  0  0
   11.9275  -16.0944   23.2628 N   0  0  0  0  0  0  0  0  0  0  0  0
   13.2458  -16.7281   23.0626 C   0  0  1  0  0  0  0  0  0  0  0  0
   14.1896  -15.6897   22.4999 C   0  0  0  0  0  0  0  0  0  0  0  0
   14.0999  -15.5739   21.0343 C   0  0  0  0  0  0  0  0  0  0  0  0
   13.6349  -16.4593   20.2757 O   0  0  0  0  0  0  0  0  0  0  0  0
   13.7105  -17.0456   24.4487 C   0  0  0  0  0  0  0  0  0  0  0  0
   13.0911  -16.7341   25.4849 O   0  0  0  0  0  0  0  0  0  0  0  0
   14.5561  -14.4077   20.4091 O   0  0  0  0  0  0  0  0  0  0  0  0
   14.9129  -17.7366   24.6643 O   0  0  0  0  0  0  0  0  0  0  0  0
  1  2  1  0
  2  3  2  0
  2  4  1  0
  4  5  1  0
  5  6  1  0
  6  8  1  0
  6  7  1  1
  8  9  2  0
 11 10  1  0
 11 12  2  0
 13 11  1  0
 14 13  1  0
 15 14  1  1
 16 15  1  0
 16  8  1  0
 17 15  1  0
 17 18  2  0
 19 17  1  0
 20 19  1  0
 20 24  1  0
 20 21  1  1
 22 21  1  0
 22 26  1  0
 23 22  2  0
 24 25  2  0
 24 27  1  0
M  END
$$$$
