QQD.pdb
     RDKit          3D

 27 26  0  0  1  0  0  0  0  0999 V2000
    9.0881  -19.6669   14.2179 N   0  0  0  0  0  0  0  0  0  0  0  0
   10.2386  -18.9255   14.5050 C   0  0  0  0  0  0  0  0  0  0  0  0
   11.3405  -19.5112   14.6593 O   0  0  0  0  0  0  0  0  0  0  0  0
   10.2304  -17.4504   14.6409 C   0  0  0  0  0  0  0  0  0  0  0  0
    8.8486  -16.8725   14.4255 C   0  0  0  0  0  0  0  0  0  0  0  0
    8.9775  -15.3717   14.5281 C   0  0  2  0  0  0  0  0  0  0  0  0
    9.7672  -14.9146   13.4267 N   0  0  0  0  0  0  0  0  0  0  0  0
    9.4453  -14.9083   15.8348 C   0  0  0  0  0  0  0  0  0  0  0  0
   10.6714  -14.6999   16.0158 O   0  0  0  0  0  0  0  0  0  0  0  0
    6.1484  -13.6187   21.3756 N   0  0  0  0  0  0  0  0  0  0  0  0
    7.4448  -13.0933   21.5681 C   0  0  0  0  0  0  0  0  0  0  0  0
    7.7244  -12.5363   22.6454 O   0  0  0  0  0  0  0  0  0  0  0  0
    8.4494  -13.2122   20.5021 C   0  0  0  0  0  0  0  0  0  0  0  0
    8.0008  -13.8349   19.2348 C   0  0  0  0  0  0  0  0  0  0  0  0
    9.0202  -14.0715   18.1769 C   0  0  2  0  0  0  0  0  0  0  0  0
    8.5764  -14.6668   16.9616 N   0  0  0  0  0  0  0  0  0  0  0  0
   10.2003  -14.8250   18.6556 C   0  0  0  0  0  0  0  0  0  0  0  0
   10.2647  -16.0590   18.4774 O   0  0  0  0  0  0  0  0  0  0  0  0
   11.2803  -14.1964   19.3197 N   0  0  0  0  0  0  0  0  0  0  0  0
   12.4252  -15.0147   19.7661 C   0  0  1  0  0  0  0  0  0  0  0  0
   13.6599  -14.1422   19.7644 C   0  0  0  0  0  0  0  0  0  0  0  0
   14.8541  -14.8453   20.2631 C   0  0  0  0  0  0  0  0  0  0  0  0
   14.9535  -16.0914   20.3758 O   0  0  0  0  0  0  0  0  0  0  0  0
   12.1091  -15.3338   21.1931 C   0  0  0  0  0  0  0  0  0  0  0  0
   11.1676  -14.8261   21.8336 O   0  0  0  0  0  0  0  0  0  0  0  0
   15.9766  -14.1029   20.6478 O   0  0  0  0  0  0  0  0  0  0  0  0
   12.8844  -16.2557   21.9134 O   0  0  0  0  0  0  0  0  0  0  0  0
  1  2  1  0
  2  3  2  0
  2  4  1  0
  4  5  1  0
  5  6  1  0
  6  8  1  0
  6  7  1  6
  8  9  2  0
 11 10  1  0
 11 12  2  0
 13 11  1  0
 14 13  1  0
 15 14  1  1
 16 15  1  0
 16  8  1  0
 17 15  1  0
 17 18  2  0
 19 17  1  0
 20 19  1  0
 20 24  1  0
 20 21  1  1
 22 21  1  0
 22 26  1  0
 23 22  2  0
 24 25  2  0
 24 27  1  0
M  END
$$$$
