QQD.pdb
     RDKit          3D

 27 26  0  0  1  0  0  0  0  0999 V2000
    9.6550  -15.4145   16.7352 N   0  0  0  0  0  0  0  0  0  0  0  0
    8.2901  -15.2314   16.4920 C   0  0  0  0  0  0  0  0  0  0  0  0
    7.8483  -15.2925   15.3163 O   0  0  0  0  0  0  0  0  0  0  0  0
    7.3110  -14.9627   17.5706 C   0  0  0  0  0  0  0  0  0  0  0  0
    7.9253  -15.1295   18.9434 C   0  0  0  0  0  0  0  0  0  0  0  0
    7.6603  -13.8520   19.7032 C   0  0  2  0  0  0  0  0  0  0  0  0
    8.2359  -12.7678   18.9692 N   0  0  0  0  0  0  0  0  0  0  0  0
    8.0652  -13.9070   21.1083 C   0  0  0  0  0  0  0  0  0  0  0  0
    9.2417  -13.6004   21.4265 O   0  0  0  0  0  0  0  0  0  0  0  0
    5.9304  -11.6894   26.1774 N   0  0  0  0  0  0  0  0  0  0  0  0
    6.5932  -12.7823   26.7775 C   0  0  0  0  0  0  0  0  0  0  0  0
    6.9247  -12.7128   27.9751 O   0  0  0  0  0  0  0  0  0  0  0  0
    6.8804  -13.9882   25.9883 C   0  0  0  0  0  0  0  0  0  0  0  0
    6.5141  -13.9443   24.5535 C   0  0  0  0  0  0  0  0  0  0  0  0
    7.5696  -14.2681   23.5558 C   0  0  2  0  0  0  0  0  0  0  0  0
    7.1868  -14.2988   22.1843 N   0  0  0  0  0  0  0  0  0  0  0  0
    8.3011  -15.5182   23.8585 C   0  0  0  0  0  0  0  0  0  0  0  0
    7.8100  -16.6199   23.5365 O   0  0  0  0  0  0  0  0  0  0  0  0
    9.5575  -15.5203   24.5099 N   0  0  0  0  0  0  0  0  0  0  0  0
   10.2124  -16.8098   24.8063 C   0  0  1  0  0  0  0  0  0  0  0  0
   11.7064  -16.5822   24.8530 C   0  0  0  0  0  0  0  0  0  0  0  0
   12.3280  -16.6088   23.5180 C   0  0  0  0  0  0  0  0  0  0  0  0
   11.7161  -16.8580   22.4508 O   0  0  0  0  0  0  0  0  0  0  0  0
    9.7687  -17.1312   26.1984 C   0  0  0  0  0  0  0  0  0  0  0  0
    9.0921  -16.3660   26.9133 O   0  0  0  0  0  0  0  0  0  0  0  0
   13.6963  -16.3419   23.3929 O   0  0  0  0  0  0  0  0  0  0  0  0
   10.1029  -18.3565   26.7957 O   0  0  0  0  0  0  0  0  0  0  0  0
  1  2  1  0
  2  3  2  0
  2  4  1  0
  4  5  1  0
  5  6  1  0
  6  8  1  0
  6  7  1  6
  8  9  2  0
 11 10  1  0
 11 12  2  0
 13 11  1  0
 14 13  1  0
 15 14  1  1
 16 15  1  0
 16  8  1  0
 17 15  1  0
 17 18  2  0
 19 17  1  0
 20 19  1  0
 20 24  1  0
 20 21  1  1
 22 21  1  0
 22 26  1  0
 23 22  2  0
 24 25  2  0
 24 27  1  0
M  END
$$$$
