QQD.pdb
     RDKit          3D

 27 26  0  0  1  0  0  0  0  0999 V2000
    8.7237  -13.0095   17.7140 N   0  0  0  0  0  0  0  0  0  0  0  0
    8.2831  -13.7401   16.6059 C   0  0  0  0  0  0  0  0  0  0  0  0
    8.3749  -13.2477   15.4526 O   0  0  0  0  0  0  0  0  0  0  0  0
    7.6995  -15.0969   16.7190 C   0  0  0  0  0  0  0  0  0  0  0  0
    8.7552  -16.1753   16.6082 C   0  0  0  0  0  0  0  0  0  0  0  0
    9.1844  -16.5183   18.0144 C   0  0  2  0  0  0  0  0  0  0  0  0
    8.3288  -15.8224   18.9251 N   0  0  0  0  0  0  0  0  0  0  0  0
   10.6128  -16.3169   18.2603 C   0  0  0  0  0  0  0  0  0  0  0  0
   11.4540  -16.9833   17.6064 O   0  0  0  0  0  0  0  0  0  0  0  0
   15.3238  -14.3372   17.0880 N   0  0  0  0  0  0  0  0  0  0  0  0
   15.4456  -14.6926   18.4491 C   0  0  0  0  0  0  0  0  0  0  0  0
   16.2068  -15.6229   18.7717 O   0  0  0  0  0  0  0  0  0  0  0  0
   14.6801  -13.9617   19.4686 C   0  0  0  0  0  0  0  0  0  0  0  0
   13.2044  -13.9996   19.3434 C   0  0  0  0  0  0  0  0  0  0  0  0
   12.5208  -15.3029   19.5632 C   0  0  2  0  0  0  0  0  0  0  0  0
   11.1394  -15.3827   19.2261 N   0  0  0  0  0  0  0  0  0  0  0  0
   12.6925  -15.8330   20.9339 C   0  0  0  0  0  0  0  0  0  0  0  0
   13.7963  -15.7282   21.5077 O   0  0  0  0  0  0  0  0  0  0  0  0
   11.6401  -16.4661   21.6371 N   0  0  0  0  0  0  0  0  0  0  0  0
   11.8642  -16.8998   23.0304 C   0  0  1  0  0  0  0  0  0  0  0  0
   10.7612  -16.3232   23.8888 C   0  0  0  0  0  0  0  0  0  0  0  0
   10.8228  -16.7907   25.2841 C   0  0  0  0  0  0  0  0  0  0  0  0
   11.7090  -17.5518   25.7432 O   0  0  0  0  0  0  0  0  0  0  0  0
   11.6636  -18.3816   22.9863 C   0  0  0  0  0  0  0  0  0  0  0  0
   10.6666  -18.9401   22.4879 O   0  0  0  0  0  0  0  0  0  0  0  0
    9.8396  -16.3768   26.1903 O   0  0  0  0  0  0  0  0  0  0  0  0
   12.6227  -19.2542   23.5236 O   0  0  0  0  0  0  0  0  0  0  0  0
  1  2  1  0
  2  3  2  0
  2  4  1  0
  4  5  1  0
  5  6  1  0
  6  8  1  0
  6  7  1  1
  8  9  2  0
 11 10  1  0
 11 12  2  0
 13 11  1  0
 14 13  1  0
 15 14  1  1
 16 15  1  0
 16  8  1  0
 17 15  1  0
 17 18  2  0
 19 17  1  0
 20 19  1  0
 20 24  1  0
 20 21  1  1
 22 21  1  0
 22 26  1  0
 23 22  2  0
 24 25  2  0
 24 27  1  0
M  END
$$$$
