QQD.pdb
     RDKit          3D

 27 26  0  0  1  0  0  0  0  0999 V2000
    7.0128  -12.2084   17.8141 N   0  0  0  0  0  0  0  0  0  0  0  0
    7.5516  -13.3553   17.2224 C   0  0  0  0  0  0  0  0  0  0  0  0
    7.6075  -13.4482   15.9697 O   0  0  0  0  0  0  0  0  0  0  0  0
    8.0733  -14.4960   18.0104 C   0  0  0  0  0  0  0  0  0  0  0  0
    7.8053  -14.3280   19.4902 C   0  0  0  0  0  0  0  0  0  0  0  0
    8.5082  -15.4619   20.1971 C   0  0  2  0  0  0  0  0  0  0  0  0
    8.2400  -15.3502   21.5975 N   0  0  0  0  0  0  0  0  0  0  0  0
    9.9291  -15.5727   19.8654 C   0  0  0  0  0  0  0  0  0  0  0  0
   10.2764  -16.1851   18.8243 O   0  0  0  0  0  0  0  0  0  0  0  0
   13.8721  -14.7583   17.0562 N   0  0  0  0  0  0  0  0  0  0  0  0
   14.8375  -14.2840   17.9710 C   0  0  0  0  0  0  0  0  0  0  0  0
   15.9799  -14.0049   17.5634 O   0  0  0  0  0  0  0  0  0  0  0  0
   14.4858  -14.1201   19.3884 C   0  0  0  0  0  0  0  0  0  0  0  0
   13.0435  -13.9956   19.7034 C   0  0  0  0  0  0  0  0  0  0  0  0
   12.3699  -15.1547   20.3492 C   0  0  2  0  0  0  0  0  0  0  0  0
   10.9893  -15.0142   20.6697 N   0  0  0  0  0  0  0  0  0  0  0  0
   13.0749  -15.6486   21.5527 C   0  0  0  0  0  0  0  0  0  0  0  0
   13.9984  -14.9741   22.0533 O   0  0  0  0  0  0  0  0  0  0  0  0
   12.7420  -16.8760   22.1736 N   0  0  0  0  0  0  0  0  0  0  0  0
   13.5005  -17.3095   23.3637 C   0  0  1  0  0  0  0  0  0  0  0  0
   12.7191  -18.4077   24.0487 C   0  0  0  0  0  0  0  0  0  0  0  0
   11.3874  -17.9649   24.4956 C   0  0  0  0  0  0  0  0  0  0  0  0
   10.4223  -18.7319   24.7316 O   0  0  0  0  0  0  0  0  0  0  0  0
   14.7383  -17.9314   22.7989 C   0  0  0  0  0  0  0  0  0  0  0  0
   15.7961  -18.0944   23.4383 O   0  0  0  0  0  0  0  0  0  0  0  0
   11.1451  -16.5988   24.6806 O   0  0  0  0  0  0  0  0  0  0  0  0
   14.7760  -18.3811   21.4698 O   0  0  0  0  0  0  0  0  0  0  0  0
  1  2  1  0
  2  3  2  0
  2  4  1  0
  4  5  1  0
  5  6  1  0
  6  8  1  0
  6  7  1  1
  8  9  2  0
 11 10  1  0
 11 12  2  0
 13 11  1  0
 14 13  1  0
 15 14  1  1
 16 15  1  0
 16  8  1  0
 17 15  1  0
 17 18  2  0
 19 17  1  0
 20 19  1  0
 20 24  1  0
 20 21  1  6
 22 21  1  0
 22 26  1  0
 23 22  2  0
 24 25  2  0
 24 27  1  0
M  END
$$$$
