QQD.pdb
     RDKit          3D

 27 26  0  0  1  0  0  0  0  0999 V2000
    6.8507  -12.5516   18.8311 N   0  0  0  0  0  0  0  0  0  0  0  0
    7.4505  -13.6499   18.2067 C   0  0  0  0  0  0  0  0  0  0  0  0
    6.7982  -14.3337   17.3772 O   0  0  0  0  0  0  0  0  0  0  0  0
    8.8475  -14.0625   18.4755 C   0  0  0  0  0  0  0  0  0  0  0  0
    8.9187  -15.4434   19.0902 C   0  0  0  0  0  0  0  0  0  0  0  0
   10.1642  -15.4830   19.9426 C   0  0  2  0  0  0  0  0  0  0  0  0
   10.2915  -16.7993   20.4872 N   0  0  0  0  0  0  0  0  0  0  0  0
   10.2311  -14.4128   20.9384 C   0  0  0  0  0  0  0  0  0  0  0  0
    9.9587  -13.2335   20.5998 O   0  0  0  0  0  0  0  0  0  0  0  0
    7.0145  -12.6362   24.2930 N   0  0  0  0  0  0  0  0  0  0  0  0
    6.6667  -13.9325   24.7318 C   0  0  0  0  0  0  0  0  0  0  0  0
    5.8940  -14.0631   25.6986 O   0  0  0  0  0  0  0  0  0  0  0  0
    7.2136  -15.1103   24.0438 C   0  0  0  0  0  0  0  0  0  0  0  0
    8.2092  -14.8524   22.9775 C   0  0  0  0  0  0  0  0  0  0  0  0
    9.6504  -14.9030   23.3444 C   0  0  2  0  0  0  0  0  0  0  0  0
   10.5973  -14.6197   22.3190 N   0  0  0  0  0  0  0  0  0  0  0  0
   10.0459  -16.1689   24.0005 C   0  0  0  0  0  0  0  0  0  0  0  0
    9.4109  -16.5795   24.9938 O   0  0  0  0  0  0  0  0  0  0  0  0
   11.1336  -16.9501   23.5428 N   0  0  0  0  0  0  0  0  0  0  0  0
   11.5210  -18.1575   24.2988 C   0  0  1  0  0  0  0  0  0  0  0  0
   11.6434  -19.3071   23.3245 C   0  0  0  0  0  0  0  0  0  0  0  0
   12.2498  -20.5046   23.9307 C   0  0  0  0  0  0  0  0  0  0  0  0
   12.5723  -20.6071   25.1394 O   0  0  0  0  0  0  0  0  0  0  0  0
   12.8977  -17.8486   24.7961 C   0  0  0  0  0  0  0  0  0  0  0  0
   13.5960  -16.9012   24.3849 O   0  0  0  0  0  0  0  0  0  0  0  0
   12.4983  -21.6269   23.1320 O   0  0  0  0  0  0  0  0  0  0  0  0
   13.4986  -18.6382   25.7888 O   0  0  0  0  0  0  0  0  0  0  0  0
  1  2  1  0
  2  3  2  0
  2  4  1  0
  4  5  1  0
  5  6  1  0
  6  8  1  0
  6  7  1  1
  8  9  2  0
 11 10  1  0
 11 12  2  0
 13 11  1  0
 14 13  1  0
 15 14  1  6
 16 15  1  0
 16  8  1  0
 17 15  1  0
 17 18  2  0
 19 17  1  0
 20 19  1  0
 20 24  1  0
 20 21  1  6
 22 21  1  0
 22 26  1  0
 23 22  2  0
 24 25  2  0
 24 27  1  0
M  END
$$$$
