QQD.pdb
     RDKit          3D

 27 26  0  0  1  0  0  0  0  0999 V2000
   10.5897  -13.7439   18.0868 N   0  0  0  0  0  0  0  0  0  0  0  0
    9.2451  -13.5982   17.7310 C   0  0  0  0  0  0  0  0  0  0  0  0
    8.8884  -13.7776   16.5386 O   0  0  0  0  0  0  0  0  0  0  0  0
    8.1910  -13.2349   18.7063 C   0  0  0  0  0  0  0  0  0  0  0  0
    8.5607  -13.6464   20.1148 C   0  0  0  0  0  0  0  0  0  0  0  0
    8.3574  -15.1396   20.2056 C   0  0  2  0  0  0  0  0  0  0  0  0
    6.9522  -15.4028   20.1629 N   0  0  0  0  0  0  0  0  0  0  0  0
    9.0501  -15.7611   21.3348 C   0  0  0  0  0  0  0  0  0  0  0  0
    8.8587  -15.3221   22.4968 O   0  0  0  0  0  0  0  0  0  0  0  0
    9.8445  -21.4865   23.4877 N   0  0  0  0  0  0  0  0  0  0  0  0
   10.8316  -20.7762   24.2054 C   0  0  0  0  0  0  0  0  0  0  0  0
   11.4132  -21.3306   25.1558 O   0  0  0  0  0  0  0  0  0  0  0  0
   11.1654  -19.3971   23.8231 C   0  0  0  0  0  0  0  0  0  0  0  0
   10.4004  -18.8185   22.6940 C   0  0  0  0  0  0  0  0  0  0  0  0
   10.6934  -17.4130   22.3028 C   0  0  2  0  0  0  0  0  0  0  0  0
    9.9620  -16.8724   21.2069 N   0  0  0  0  0  0  0  0  0  0  0  0
   12.1317  -17.1554   22.0695 C   0  0  0  0  0  0  0  0  0  0  0  0
   12.9441  -18.1032   22.0861 O   0  0  0  0  0  0  0  0  0  0  0  0
   12.6371  -15.8566   21.8233 N   0  0  0  0  0  0  0  0  0  0  0  0
   14.0920  -15.6704   21.6553 C   0  0  1  0  0  0  0  0  0  0  0  0
   14.3195  -14.3863   20.8902 C   0  0  0  0  0  0  0  0  0  0  0  0
   14.1579  -14.5543   19.4359 C   0  0  0  0  0  0  0  0  0  0  0  0
   14.0776  -15.6614   18.8500 O   0  0  0  0  0  0  0  0  0  0  0  0
   14.5935  -15.4522   23.0477 C   0  0  0  0  0  0  0  0  0  0  0  0
   15.7967  -15.3244   23.3481 O   0  0  0  0  0  0  0  0  0  0  0  0
   14.0851  -13.4206   18.6183 O   0  0  0  0  0  0  0  0  0  0  0  0
   13.7031  -15.3769   24.1301 O   0  0  0  0  0  0  0  0  0  0  0  0
  1  2  1  0
  2  3  2  0
  2  4  1  0
  4  5  1  0
  5  6  1  0
  6  8  1  0
  6  7  1  1
  8  9  2  0
 11 10  1  0
 11 12  2  0
 13 11  1  0
 14 13  1  0
 15 14  1  6
 16 15  1  0
 16  8  1  0
 17 15  1  0
 17 18  2  0
 19 17  1  0
 20 19  1  0
 20 24  1  0
 20 21  1  6
 22 21  1  0
 22 26  1  0
 23 22  2  0
 24 25  2  0
 24 27  1  0
M  END
$$$$
