MDD.pdb
     RDKit          3D

 25 24  0  0  1  0  0  0  0  0999 V2000
    7.9490  -12.7029   27.7090 C   0  0  0  0  0  0  0  0  0  0  0  0
    6.5244  -12.7470   26.6228 S   0  0  0  0  0  0  0  0  0  0  0  0
    6.6936  -13.7122   25.1450 C   0  0  0  0  0  0  0  0  0  0  0  0
    7.7433  -13.2943   24.1829 C   0  0  0  0  0  0  0  0  0  0  0  0
    7.7665  -14.0393   22.9093 C   0  0  2  0  0  0  0  0  0  0  0  0
    6.4051  -14.1124   22.3687 N   0  0  0  0  0  0  0  0  0  0  0  0
    8.1330  -15.4991   23.1516 C   0  0  0  0  0  0  0  0  0  0  0  0
    7.2870  -16.3171   23.5767 O   0  0  0  0  0  0  0  0  0  0  0  0
    9.4360  -15.9634   22.9024 N   0  0  0  0  0  0  0  0  0  0  0  0
    9.7848  -17.4018   23.0467 C   0  0  1  0  0  0  0  0  0  0  0  0
   10.3743  -17.8634   21.7462 C   0  0  0  0  0  0  0  0  0  0  0  0
   11.5121  -17.0455   21.3227 C   0  0  0  0  0  0  0  0  0  0  0  0
   12.2486  -16.4514   22.1274 O   0  0  0  0  0  0  0  0  0  0  0  0
   10.7438  -17.5144   24.1982 C   0  0  0  0  0  0  0  0  0  0  0  0
   11.1034  -18.6201   24.6511 O   0  0  0  0  0  0  0  0  0  0  0  0
   11.8474  -16.8782   19.9684 O   0  0  0  0  0  0  0  0  0  0  0  0
   11.2850  -16.3623   24.8246 N   0  0  0  0  0  0  0  0  0  0  0  0
   12.1201  -16.3477   26.0018 C   0  0  1  0  0  0  0  0  0  0  0  0
   13.2474  -15.3827   25.9194 C   0  0  0  0  0  0  0  0  0  0  0  0
   14.2998  -15.7700   24.9654 C   0  0  0  0  0  0  0  0  0  0  0  0
   15.4939  -15.4057   25.1249 O   0  0  0  0  0  0  0  0  0  0  0  0
   11.3917  -16.3106   27.2850 C   0  0  0  0  0  0  0  0  0  0  0  0
   12.0348  -16.4636   28.3434 O   0  0  0  0  0  0  0  0  0  0  0  0
   14.0535  -16.5533   23.8382 O   0  0  0  0  0  0  0  0  0  0  0  0
   10.0432  -16.1177   27.3314 O   0  0  0  0  0  0  0  0  0  0  0  0
  2  1  1  0
  3  2  1  0
  4  5  1  0
  4  3  1  0
  5  7  1  0
  5  6  1  1
  7  9  1  0
  8  7  2  0
  9 10  1  0
 10 11  1  6
 12 11  1  0
 13 12  2  0
 14 10  1  0
 14 15  2  0
 16 12  1  0
 17 14  1  0
 18 17  1  0
 18 22  1  0
 19 20  1  0
 18 19  1  6
 20 21  2  0
 22 23  2  0
 22 25  1  0
 24 20  1  0
M  END
$$$$
