MDD.pdb
     RDKit          3D

 25 24  0  0  1  0  0  0  0  0999 V2000
    7.6071  -11.1325   26.0282 C   0  0  0  0  0  0  0  0  0  0  0  0
    6.9120  -12.2296   27.2630 S   0  0  0  0  0  0  0  0  0  0  0  0
    6.8684  -13.9527   26.8467 C   0  0  0  0  0  0  0  0  0  0  0  0
    6.6936  -14.2962   25.4136 C   0  0  0  0  0  0  0  0  0  0  0  0
    6.5631  -15.7364   25.1199 C   0  0  2  0  0  0  0  0  0  0  0  0
    6.5796  -16.4885   26.3790 N   0  0  0  0  0  0  0  0  0  0  0  0
    7.7977  -16.2450   24.3844 C   0  0  0  0  0  0  0  0  0  0  0  0
    8.3697  -17.3018   24.7331 O   0  0  0  0  0  0  0  0  0  0  0  0
    8.3258  -15.5358   23.2919 N   0  0  0  0  0  0  0  0  0  0  0  0
    8.7179  -16.2298   22.0365 C   0  0  1  0  0  0  0  0  0  0  0  0
    8.6015  -15.2434   20.9115 C   0  0  0  0  0  0  0  0  0  0  0  0
    9.0514  -15.7941   19.6320 C   0  0  0  0  0  0  0  0  0  0  0  0
    8.5731  -16.8302   19.1413 O   0  0  0  0  0  0  0  0  0  0  0  0
   10.1189  -16.7388   22.2276 C   0  0  0  0  0  0  0  0  0  0  0  0
   10.7291  -17.3456   21.3240 O   0  0  0  0  0  0  0  0  0  0  0  0
   10.0609  -15.1818   18.8701 O   0  0  0  0  0  0  0  0  0  0  0  0
   10.8130  -16.5509   23.4505 N   0  0  0  0  0  0  0  0  0  0  0  0
   12.2322  -16.7146   23.6565 C   0  0  1  0  0  0  0  0  0  0  0  0
   13.0557  -15.6867   22.9679 C   0  0  0  0  0  0  0  0  0  0  0  0
   14.4952  -15.9940   22.9362 C   0  0  0  0  0  0  0  0  0  0  0  0
   14.9095  -17.1775   22.8283 O   0  0  0  0  0  0  0  0  0  0  0  0
   12.6364  -16.9697   25.0529 C   0  0  0  0  0  0  0  0  0  0  0  0
   13.2340  -18.0324   25.3190 O   0  0  0  0  0  0  0  0  0  0  0  0
   15.4839  -15.0143   23.0220 O   0  0  0  0  0  0  0  0  0  0  0  0
   12.3672  -16.0750   26.0454 O   0  0  0  0  0  0  0  0  0  0  0  0
  2  1  1  0
  3  2  1  0
  4  5  1  0
  4  3  1  0
  5  7  1  0
  5  6  1  1
  7  9  1  0
  8  7  2  0
  9 10  1  0
 10 11  1  6
 12 11  1  0
 13 12  2  0
 14 10  1  0
 14 15  2  0
 16 12  1  0
 17 14  1  0
 18 17  1  0
 18 22  1  0
 19 20  1  0
 18 19  1  1
 20 21  2  0
 22 23  2  0
 22 25  1  0
 24 20  1  0
M  END
$$$$
