MDD.pdb
     RDKit          3D

 25 24  0  0  1  0  0  0  0  0999 V2000
    8.4132  -12.1404   26.6456 C   0  0  0  0  0  0  0  0  0  0  0  0
    6.9020  -13.1033   26.6690 S   0  0  0  0  0  0  0  0  0  0  0  0
    6.8684  -14.5368   25.6259 C   0  0  0  0  0  0  0  0  0  0  0  0
    6.8387  -14.3043   24.1606 C   0  0  0  0  0  0  0  0  0  0  0  0
    6.7656  -15.5209   23.3286 C   0  0  2  0  0  0  0  0  0  0  0  0
    5.7135  -16.3993   23.8507 N   0  0  0  0  0  0  0  0  0  0  0  0
    8.0342  -16.3515   23.4853 C   0  0  0  0  0  0  0  0  0  0  0  0
    8.0931  -17.2954   24.3045 O   0  0  0  0  0  0  0  0  0  0  0  0
    9.1736  -16.0756   22.7100 N   0  0  0  0  0  0  0  0  0  0  0  0
   10.4008  -16.9088   22.8158 C   0  0  1  0  0  0  0  0  0  0  0  0
   11.3393  -16.4837   21.7246 C   0  0  0  0  0  0  0  0  0  0  0  0
   10.9207  -16.9604   20.4054 C   0  0  0  0  0  0  0  0  0  0  0  0
   10.5004  -18.1128   20.2099 O   0  0  0  0  0  0  0  0  0  0  0  0
   10.9664  -16.6963   24.1918 C   0  0  0  0  0  0  0  0  0  0  0  0
   10.6586  -15.7059   24.8856 O   0  0  0  0  0  0  0  0  0  0  0  0
   10.9673  -16.1391   19.2662 O   0  0  0  0  0  0  0  0  0  0  0  0
   11.8803  -17.6173   24.7654 N   0  0  0  0  0  0  0  0  0  0  0  0
   11.9248  -18.0199   26.1508 C   0  0  1  0  0  0  0  0  0  0  0  0
   10.5936  -18.3692   26.7118 C   0  0  0  0  0  0  0  0  0  0  0  0
   10.6211  -18.7361   28.1374 C   0  0  0  0  0  0  0  0  0  0  0  0
   11.6946  -18.7296   28.7942 O   0  0  0  0  0  0  0  0  0  0  0  0
   12.9895  -18.9849   26.4880 C   0  0  0  0  0  0  0  0  0  0  0  0
   12.8722  -20.1655   26.1013 O   0  0  0  0  0  0  0  0  0  0  0  0
    9.4812  -19.1100   28.8484 O   0  0  0  0  0  0  0  0  0  0  0  0
   14.0841  -18.6121   27.2096 O   0  0  0  0  0  0  0  0  0  0  0  0
  2  1  1  0
  3  2  1  0
  4  5  1  0
  4  3  1  0
  5  7  1  0
  5  6  1  1
  7  9  1  0
  8  7  2  0
  9 10  1  0
 10 11  1  6
 12 11  1  0
 13 12  2  0
 14 10  1  0
 14 15  2  0
 16 12  1  0
 17 14  1  0
 18 17  1  0
 18 22  1  0
 19 20  1  0
 18 19  1  6
 20 21  2  0
 22 23  2  0
 22 25  1  0
 24 20  1  0
M  END
$$$$
