MDD.pdb
     RDKit          3D

 25 24  0  0  1  0  0  0  0  0999 V2000
    8.1457  -12.1551   27.7467 C   0  0  0  0  0  0  0  0  0  0  0  0
    6.6788  -12.0643   26.7215 S   0  0  0  0  0  0  0  0  0  0  0  0
    6.2692  -13.5266   25.8060 C   0  0  0  0  0  0  0  0  0  0  0  0
    7.3981  -14.3099   25.2455 C   0  0  0  0  0  0  0  0  0  0  0  0
    7.0140  -15.4830   24.4370 C   0  0  2  0  0  0  0  0  0  0  0  0
    6.2677  -16.4246   25.2781 N   0  0  0  0  0  0  0  0  0  0  0  0
    8.2498  -16.2749   24.0249 C   0  0  0  0  0  0  0  0  0  0  0  0
    8.5224  -17.3735   24.5581 O   0  0  0  0  0  0  0  0  0  0  0  0
    9.1168  -15.7877   23.0317 N   0  0  0  0  0  0  0  0  0  0  0  0
    9.7619  -16.7021   22.0525 C   0  0  1  0  0  0  0  0  0  0  0  0
    9.5660  -16.1201   20.6833 C   0  0  0  0  0  0  0  0  0  0  0  0
    9.0303  -17.0932   19.7299 C   0  0  0  0  0  0  0  0  0  0  0  0
    7.8380  -17.1062   19.3818 O   0  0  0  0  0  0  0  0  0  0  0  0
   11.2096  -16.8188   22.4386 C   0  0  0  0  0  0  0  0  0  0  0  0
   12.0213  -17.4819   21.7614 O   0  0  0  0  0  0  0  0  0  0  0  0
    9.8361  -18.0832   19.1423 O   0  0  0  0  0  0  0  0  0  0  0  0
   11.7197  -16.1769   23.5963 N   0  0  0  0  0  0  0  0  0  0  0  0
   13.0583  -16.3069   24.1204 C   0  0  1  0  0  0  0  0  0  0  0  0
   13.3920  -17.6854   24.5645 C   0  0  0  0  0  0  0  0  0  0  0  0
   12.8989  -18.0174   25.9114 C   0  0  0  0  0  0  0  0  0  0  0  0
   12.1599  -19.0166   26.1098 O   0  0  0  0  0  0  0  0  0  0  0  0
   14.1124  -15.6665   23.3097 C   0  0  0  0  0  0  0  0  0  0  0  0
   13.9028  -15.4803   22.0937 O   0  0  0  0  0  0  0  0  0  0  0  0
   13.2095  -17.2628   27.0423 O   0  0  0  0  0  0  0  0  0  0  0  0
   15.2986  -15.2831   23.8611 O   0  0  0  0  0  0  0  0  0  0  0  0
  2  1  1  0
  3  2  1  0
  4  5  1  0
  4  3  1  0
  5  7  1  0
  5  6  1  1
  7  9  1  0
  8  7  2  0
  9 10  1  0
 10 11  1  6
 12 11  1  0
 13 12  2  0
 14 10  1  0
 14 15  2  0
 16 12  1  0
 17 14  1  0
 18 17  1  0
 18 22  1  0
 19 20  1  0
 18 19  1  6
 20 21  2  0
 22 23  2  0
 22 25  1  0
 24 20  1  0
M  END
$$$$
