MDD.pdb
     RDKit          3D

 25 24  0  0  1  0  0  0  0  0999 V2000
    7.1658  -11.0847   26.9111 C   0  0  0  0  0  0  0  0  0  0  0  0
    6.7072  -12.1352   25.5336 S   0  0  0  0  0  0  0  0  0  0  0  0
    6.9248  -13.8790   25.7699 C   0  0  0  0  0  0  0  0  0  0  0  0
    6.6228  -14.7593   24.6139 C   0  0  0  0  0  0  0  0  0  0  0  0
    6.8638  -16.1983   24.8349 C   0  0  2  0  0  0  0  0  0  0  0  0
    7.3663  -16.3990   26.1981 N   0  0  0  0  0  0  0  0  0  0  0  0
    8.0093  -16.6885   23.9566 C   0  0  0  0  0  0  0  0  0  0  0  0
    7.9160  -17.7526   23.3050 O   0  0  0  0  0  0  0  0  0  0  0  0
    9.2033  -15.9538   23.8571 N   0  0  0  0  0  0  0  0  0  0  0  0
   10.4081  -16.5225   23.1966 C   0  0  1  0  0  0  0  0  0  0  0  0
   10.9633  -15.4759   22.2754 C   0  0  0  0  0  0  0  0  0  0  0  0
   10.5080  -15.6436   20.8943 C   0  0  0  0  0  0  0  0  0  0  0  0
   10.4192  -16.7551   20.3467 O   0  0  0  0  0  0  0  0  0  0  0  0
   11.3683  -16.9162   24.2836 C   0  0  0  0  0  0  0  0  0  0  0  0
   11.9655  -16.0666   24.9754 O   0  0  0  0  0  0  0  0  0  0  0  0
   10.1391  -14.5502   20.0925 O   0  0  0  0  0  0  0  0  0  0  0  0
   11.6395  -18.2784   24.5723 N   0  0  0  0  0  0  0  0  0  0  0  0
   11.7428  -18.8645   25.8873 C   0  0  1  0  0  0  0  0  0  0  0  0
   10.6861  -18.4073   26.8270 C   0  0  0  0  0  0  0  0  0  0  0  0
   10.9171  -18.8009   28.2268 C   0  0  0  0  0  0  0  0  0  0  0  0
   11.9259  -19.4761   28.5587 O   0  0  0  0  0  0  0  0  0  0  0  0
   11.9718  -20.3224   25.9061 C   0  0  0  0  0  0  0  0  0  0  0  0
   13.1193  -20.7454   26.1546 O   0  0  0  0  0  0  0  0  0  0  0  0
   10.0509  -18.4602   29.2653 O   0  0  0  0  0  0  0  0  0  0  0  0
   10.9625  -21.2037   25.6558 O   0  0  0  0  0  0  0  0  0  0  0  0
  2  1  1  0
  3  2  1  0
  4  5  1  0
  4  3  1  0
  5  7  1  0
  5  6  1  1
  7  9  1  0
  8  7  2  0
  9 10  1  0
 10 11  1  6
 12 11  1  0
 13 12  2  0
 14 10  1  0
 14 15  2  0
 16 12  1  0
 17 14  1  0
 18 17  1  0
 18 22  1  0
 19 20  1  0
 18 19  1  1
 20 21  2  0
 22 23  2  0
 22 25  1  0
 24 20  1  0
M  END
$$$$
