MDD.pdb
     RDKit          3D

 25 24  0  0  1  0  0  0  0  0999 V2000
    8.1997  -11.8097   26.5016 C   0  0  0  0  0  0  0  0  0  0  0  0
    6.7089  -12.7584   26.2031 S   0  0  0  0  0  0  0  0  0  0  0  0
    6.7919  -13.9626   24.9041 C   0  0  0  0  0  0  0  0  0  0  0  0
    7.2976  -13.5009   23.5876 C   0  0  0  0  0  0  0  0  0  0  0  0
    7.2493  -14.5026   22.5050 C   0  0  2  0  0  0  0  0  0  0  0  0
    5.9783  -15.2308   22.5786 N   0  0  0  0  0  0  0  0  0  0  0  0
    8.2957  -15.5871   22.7344 C   0  0  0  0  0  0  0  0  0  0  0  0
    8.0029  -16.6576   23.3122 O   0  0  0  0  0  0  0  0  0  0  0  0
    9.6208  -15.4099   22.3006 N   0  0  0  0  0  0  0  0  0  0  0  0
   10.6104  -16.5179   22.3662 C   0  0  1  0  0  0  0  0  0  0  0  0
   11.7651  -16.1548   21.4792 C   0  0  0  0  0  0  0  0  0  0  0  0
   12.7204  -17.2528   21.3219 C   0  0  0  0  0  0  0  0  0  0  0  0
   12.5751  -18.3542   21.8776 O   0  0  0  0  0  0  0  0  0  0  0  0
   11.0054  -16.6778   23.8074 C   0  0  0  0  0  0  0  0  0  0  0  0
   11.4660  -15.7289   24.4741 O   0  0  0  0  0  0  0  0  0  0  0  0
   13.8721  -17.1312   20.5262 O   0  0  0  0  0  0  0  0  0  0  0  0
   10.8714  -17.9214   24.4767 N   0  0  0  0  0  0  0  0  0  0  0  0
   11.1741  -18.1768   25.8647 C   0  0  1  0  0  0  0  0  0  0  0  0
   10.0742  -18.8559   26.5982 C   0  0  0  0  0  0  0  0  0  0  0  0
   10.4056  -19.2016   27.9904 C   0  0  0  0  0  0  0  0  0  0  0  0
   11.1094  -20.2082   28.2649 O   0  0  0  0  0  0  0  0  0  0  0  0
   12.5090  -18.7534   26.1181 C   0  0  0  0  0  0  0  0  0  0  0  0
   13.1371  -19.2525   25.1623 O   0  0  0  0  0  0  0  0  0  0  0  0
    9.9717  -18.4526   29.0838 O   0  0  0  0  0  0  0  0  0  0  0  0
   13.0584  -18.7524   27.3655 O   0  0  0  0  0  0  0  0  0  0  0  0
  2  1  1  0
  3  2  1  0
  4  5  1  0
  4  3  1  0
  5  7  1  0
  5  6  1  1
  7  9  1  0
  8  7  2  0
  9 10  1  0
 10 11  1  6
 12 11  1  0
 13 12  2  0
 14 10  1  0
 14 15  2  0
 16 12  1  0
 17 14  1  0
 18 17  1  0
 18 22  1  0
 19 20  1  0
 18 19  1  6
 20 21  2  0
 22 23  2  0
 22 25  1  0
 24 20  1  0
M  END
$$$$
