MDD.pdb
     RDKit          3D

 25 24  0  0  1  0  0  0  0  0999 V2000
    7.4895  -10.7324   26.6941 C   0  0  0  0  0  0  0  0  0  0  0  0
    7.0473  -12.4528   26.9306 S   0  0  0  0  0  0  0  0  0  0  0  0
    6.0053  -13.1732   25.6898 C   0  0  0  0  0  0  0  0  0  0  0  0
    6.3572  -14.5368   25.2220 C   0  0  0  0  0  0  0  0  0  0  0  0
    7.7770  -14.7395   24.8746 C   0  0  2  0  0  0  0  0  0  0  0  0
    8.1596  -13.7815   23.8320 N   0  0  0  0  0  0  0  0  0  0  0  0
    7.9741  -16.0942   24.2040 C   0  0  0  0  0  0  0  0  0  0  0  0
    7.5048  -17.1397   24.7062 O   0  0  0  0  0  0  0  0  0  0  0  0
    8.6912  -16.2021   23.0000 N   0  0  0  0  0  0  0  0  0  0  0  0
    8.9715  -17.5259   22.3832 C   0  0  1  0  0  0  0  0  0  0  0  0
    8.9346  -17.3545   20.8928 C   0  0  0  0  0  0  0  0  0  0  0  0
    9.2107  -18.6009   20.1765 C   0  0  0  0  0  0  0  0  0  0  0  0
    8.4034  -19.5440   20.1338 O   0  0  0  0  0  0  0  0  0  0  0  0
   10.3127  -17.9779   22.8886 C   0  0  0  0  0  0  0  0  0  0  0  0
   10.8112  -19.0704   22.5495 O   0  0  0  0  0  0  0  0  0  0  0  0
   10.4158  -18.8129   19.4855 O   0  0  0  0  0  0  0  0  0  0  0  0
   11.0749  -17.1781   23.7785 N   0  0  0  0  0  0  0  0  0  0  0  0
   12.3090  -17.5615   24.4214 C   0  0  1  0  0  0  0  0  0  0  0  0
   13.4336  -16.6269   24.1556 C   0  0  0  0  0  0  0  0  0  0  0  0
   13.5842  -16.2575   22.7384 C   0  0  0  0  0  0  0  0  0  0  0  0
   13.5817  -15.0534   22.3721 O   0  0  0  0  0  0  0  0  0  0  0  0
   12.1801  -17.9570   25.8376 C   0  0  0  0  0  0  0  0  0  0  0  0
   13.1795  -18.4210   26.4233 O   0  0  0  0  0  0  0  0  0  0  0  0
   13.7375  -17.1975   21.7198 O   0  0  0  0  0  0  0  0  0  0  0  0
   10.9996  -17.8280   26.5068 O   0  0  0  0  0  0  0  0  0  0  0  0
  2  1  1  0
  3  2  1  0
  4  5  1  0
  4  3  1  0
  5  7  1  0
  5  6  1  6
  7  9  1  0
  8  7  2  0
  9 10  1  0
 10 11  1  6
 12 11  1  0
 13 12  2  0
 14 10  1  0
 14 15  2  0
 16 12  1  0
 17 14  1  0
 18 17  1  0
 18 22  1  0
 19 20  1  0
 18 19  1  1
 20 21  2  0
 22 23  2  0
 22 25  1  0
 24 20  1  0
M  END
$$$$
