MDD.pdb
     RDKit          3D

 25 24  0  0  1  0  0  0  0  0999 V2000
    7.0060  -11.1814   19.4185 C   0  0  0  0  0  0  0  0  0  0  0  0
    8.0207  -12.6050   19.8120 S   0  0  0  0  0  0  0  0  0  0  0  0
    7.5454  -14.1394   19.0611 C   0  0  0  0  0  0  0  0  0  0  0  0
    8.2800  -15.3558   19.4888 C   0  0  0  0  0  0  0  0  0  0  0  0
    9.6809  -15.1375   19.8979 C   0  0  2  0  0  0  0  0  0  0  0  0
   10.4594  -14.6974   18.7355 N   0  0  0  0  0  0  0  0  0  0  0  0
   10.3354  -16.4584   20.2863 C   0  0  0  0  0  0  0  0  0  0  0  0
    9.8251  -17.2040   21.1519 O   0  0  0  0  0  0  0  0  0  0  0  0
   11.5333  -16.8723   19.6789 N   0  0  0  0  0  0  0  0  0  0  0  0
   12.1667  -18.1723   20.0255 C   0  0  1  0  0  0  0  0  0  0  0  0
   12.7230  -18.7626   18.7629 C   0  0  0  0  0  0  0  0  0  0  0  0
   11.7358  -18.8131   17.6832 C   0  0  0  0  0  0  0  0  0  0  0  0
   10.6421  -19.3905   17.7997 O   0  0  0  0  0  0  0  0  0  0  0  0
   13.2231  -17.8923   21.0571 C   0  0  0  0  0  0  0  0  0  0  0  0
   14.0864  -18.7395   21.3637 O   0  0  0  0  0  0  0  0  0  0  0  0
   11.9629  -18.2073   16.4359 O   0  0  0  0  0  0  0  0  0  0  0  0
   13.2853  -16.6458   21.7315 N   0  0  0  0  0  0  0  0  0  0  0  0
   14.1669  -16.3139   22.8252 C   0  0  1  0  0  0  0  0  0  0  0  0
   15.0658  -15.1658   22.5373 C   0  0  0  0  0  0  0  0  0  0  0  0
   15.7836  -15.2728   21.2563 C   0  0  0  0  0  0  0  0  0  0  0  0
   15.7887  -14.3254   20.4279 O   0  0  0  0  0  0  0  0  0  0  0  0
   13.5225  -16.2528   24.1517 C   0  0  0  0  0  0  0  0  0  0  0  0
   13.9682  -16.9732   25.0679 O   0  0  0  0  0  0  0  0  0  0  0  0
   16.4958  -16.4101   20.8765 O   0  0  0  0  0  0  0  0  0  0  0  0
   12.4586  -15.4341   24.3879 O   0  0  0  0  0  0  0  0  0  0  0  0
  2  1  1  0
  3  2  1  0
  4  5  1  0
  4  3  1  0
  5  7  1  0
  5  6  1  6
  7  9  1  0
  8  7  2  0
  9 10  1  0
 10 11  1  6
 12 11  1  0
 13 12  2  0
 14 10  1  0
 14 15  2  0
 16 12  1  0
 17 14  1  0
 18 17  1  0
 18 22  1  0
 19 20  1  0
 18 19  1  6
 20 21  2  0
 22 23  2  0
 22 25  1  0
 24 20  1  0
M  END
$$$$
