MDD.pdb
     RDKit          3D

 25 24  0  0  1  0  0  0  0  0999 V2000
    7.0254  -11.3941   27.8536 C   0  0  0  0  0  0  0  0  0  0  0  0
    6.9077  -12.8856   26.8672 S   0  0  0  0  0  0  0  0  0  0  0  0
    6.9228  -12.6663   25.1078 C   0  0  0  0  0  0  0  0  0  0  0  0
    6.7125  -13.8766   24.2753 C   0  0  0  0  0  0  0  0  0  0  0  0
    7.6085  -15.0112   24.5711 C   0  0  2  0  0  0  0  0  0  0  0  0
    8.9590  -14.5030   24.8335 N   0  0  0  0  0  0  0  0  0  0  0  0
    7.7897  -15.8844   23.3348 C   0  0  0  0  0  0  0  0  0  0  0  0
    6.8162  -16.4614   22.8011 O   0  0  0  0  0  0  0  0  0  0  0  0
    9.0607  -16.0633   22.7619 N   0  0  0  0  0  0  0  0  0  0  0  0
    9.2785  -17.0256   21.6493 C   0  0  1  0  0  0  0  0  0  0  0  0
    9.8564  -16.2651   20.4917 C   0  0  0  0  0  0  0  0  0  0  0  0
   10.1417  -17.1238   19.3410 C   0  0  0  0  0  0  0  0  0  0  0  0
   11.2884  -17.2859   18.8919 O   0  0  0  0  0  0  0  0  0  0  0  0
   10.1961  -18.0996   22.1622 C   0  0  0  0  0  0  0  0  0  0  0  0
   10.7177  -18.9400   21.4015 O   0  0  0  0  0  0  0  0  0  0  0  0
    9.1294  -17.8256   18.6649 O   0  0  0  0  0  0  0  0  0  0  0  0
   10.5111  -18.2058   23.5413 N   0  0  0  0  0  0  0  0  0  0  0  0
   11.8345  -18.3297   24.1041 C   0  0  1  0  0  0  0  0  0  0  0  0
   12.8327  -17.4209   23.4823 C   0  0  0  0  0  0  0  0  0  0  0  0
   14.1988  -17.5813   24.0075 C   0  0  0  0  0  0  0  0  0  0  0  0
   14.5867  -16.9511   25.0255 O   0  0  0  0  0  0  0  0  0  0  0  0
   11.8870  -18.3589   25.5788 C   0  0  0  0  0  0  0  0  0  0  0  0
   12.9942  -18.5036   26.1360 O   0  0  0  0  0  0  0  0  0  0  0  0
   15.1427  -18.4270   23.4256 O   0  0  0  0  0  0  0  0  0  0  0  0
   10.7582  -18.2353   26.3327 O   0  0  0  0  0  0  0  0  0  0  0  0
  2  1  1  0
  3  2  1  0
  4  5  1  0
  4  3  1  0
  5  7  1  0
  5  6  1  6
  7  9  1  0
  8  7  2  0
  9 10  1  0
 10 11  1  6
 12 11  1  0
 13 12  2  0
 14 10  1  0
 14 15  2  0
 16 12  1  0
 17 14  1  0
 18 17  1  0
 18 22  1  0
 19 20  1  0
 18 19  1  1
 20 21  2  0
 22 23  2  0
 22 25  1  0
 24 20  1  0
M  END
$$$$
