MDD.pdb
     RDKit          3D

 25 24  0  0  1  0  0  0  0  0999 V2000
    7.8893  -12.1198   22.0723 C   0  0  0  0  0  0  0  0  0  0  0  0
    7.4521  -12.7621   20.4575 S   0  0  0  0  0  0  0  0  0  0  0  0
    7.0098  -14.4778   20.3886 C   0  0  0  0  0  0  0  0  0  0  0  0
    7.9731  -15.4465   20.9680 C   0  0  0  0  0  0  0  0  0  0  0  0
    8.7456  -16.2335   19.9874 C   0  0  2  0  0  0  0  0  0  0  0  0
    7.8722  -17.2480   19.3883 N   0  0  0  0  0  0  0  0  0  0  0  0
    9.8187  -17.0569   20.6907 C   0  0  0  0  0  0  0  0  0  0  0  0
    9.5612  -18.1853   21.1660 O   0  0  0  0  0  0  0  0  0  0  0  0
   11.1291  -16.5661   20.8228 N   0  0  0  0  0  0  0  0  0  0  0  0
   12.1681  -17.3267   21.5666 C   0  0  1  0  0  0  0  0  0  0  0  0
   13.5036  -16.7339   21.2244 C   0  0  0  0  0  0  0  0  0  0  0  0
   14.6022  -17.3597   21.9621 C   0  0  0  0  0  0  0  0  0  0  0  0
   15.5394  -16.7079   22.4519 O   0  0  0  0  0  0  0  0  0  0  0  0
   11.8366  -17.2209   23.0286 C   0  0  0  0  0  0  0  0  0  0  0  0
   11.9476  -16.1467   23.6539 O   0  0  0  0  0  0  0  0  0  0  0  0
   14.6685  -18.7485   22.1656 O   0  0  0  0  0  0  0  0  0  0  0  0
   11.3807  -18.3437   23.7662 N   0  0  0  0  0  0  0  0  0  0  0  0
   11.0972  -18.3734   25.1811 C   0  0  1  0  0  0  0  0  0  0  0  0
    9.9277  -19.2191   25.5359 C   0  0  0  0  0  0  0  0  0  0  0  0
   10.1832  -20.6660   25.4413 C   0  0  0  0  0  0  0  0  0  0  0  0
   11.3544  -21.1263   25.4603 O   0  0  0  0  0  0  0  0  0  0  0  0
   12.2721  -18.5800   26.0503 C   0  0  0  0  0  0  0  0  0  0  0  0
   13.3410  -18.9619   25.5319 O   0  0  0  0  0  0  0  0  0  0  0  0
    9.1650  -21.6119   25.3261 O   0  0  0  0  0  0  0  0  0  0  0  0
   12.2077  -18.3661   27.3950 O   0  0  0  0  0  0  0  0  0  0  0  0
  2  1  1  0
  3  2  1  0
  4  5  1  0
  4  3  1  0
  5  7  1  0
  5  6  1  1
  7  9  1  0
  8  7  2  0
  9 10  1  0
 10 11  1  1
 12 11  1  0
 13 12  2  0
 14 10  1  0
 14 15  2  0
 16 12  1  0
 17 14  1  0
 18 17  1  0
 18 22  1  0
 19 20  1  0
 18 19  1  6
 20 21  2  0
 22 23  2  0
 22 25  1  0
 24 20  1  0
M  END
$$$$
