MDD.pdb
     RDKit          3D

 25 24  0  0  1  0  0  0  0  0999 V2000
    7.2943  -12.0483   28.0519 C   0  0  0  0  0  0  0  0  0  0  0  0
    7.5079  -12.6666   26.3836 S   0  0  0  0  0  0  0  0  0  0  0  0
    6.2873  -13.8183   25.8111 C   0  0  0  0  0  0  0  0  0  0  0  0
    6.4375  -14.3272   24.4253 C   0  0  0  0  0  0  0  0  0  0  0  0
    6.4725  -15.7964   24.2914 C   0  0  2  0  0  0  0  0  0  0  0  0
    6.1281  -16.4061   25.5801 N   0  0  0  0  0  0  0  0  0  0  0  0
    7.8976  -16.2755   24.0396 C   0  0  0  0  0  0  0  0  0  0  0  0
    8.3477  -17.2955   24.6076 O   0  0  0  0  0  0  0  0  0  0  0  0
    8.7442  -15.5799   23.1593 N   0  0  0  0  0  0  0  0  0  0  0  0
    9.4912  -16.2865   22.0851 C   0  0  1  0  0  0  0  0  0  0  0  0
    9.8491  -15.2764   21.0346 C   0  0  0  0  0  0  0  0  0  0  0  0
   10.5805  -15.8671   19.9125 C   0  0  0  0  0  0  0  0  0  0  0  0
   10.2582  -16.9500   19.3963 O   0  0  0  0  0  0  0  0  0  0  0  0
   10.6949  -16.9212   22.7228 C   0  0  0  0  0  0  0  0  0  0  0  0
   11.5957  -17.4557   22.0446 O   0  0  0  0  0  0  0  0  0  0  0  0
   11.7028  -15.2428   19.3423 O   0  0  0  0  0  0  0  0  0  0  0  0
   10.8608  -16.9409   24.1316 N   0  0  0  0  0  0  0  0  0  0  0  0
   12.1177  -16.9022   24.8403 C   0  0  1  0  0  0  0  0  0  0  0  0
   13.0479  -15.8543   24.3448 C   0  0  0  0  0  0  0  0  0  0  0  0
   14.1680  -16.3765   23.5445 C   0  0  0  0  0  0  0  0  0  0  0  0
   14.1151  -17.5141   23.0089 O   0  0  0  0  0  0  0  0  0  0  0  0
   12.0086  -16.9601   26.3110 C   0  0  0  0  0  0  0  0  0  0  0  0
   10.8926  -16.7721   26.8368 O   0  0  0  0  0  0  0  0  0  0  0  0
   15.3453  -15.6614   23.3269 O   0  0  0  0  0  0  0  0  0  0  0  0
   13.0954  -17.2092   27.0950 O   0  0  0  0  0  0  0  0  0  0  0  0
  2  1  1  0
  3  2  1  0
  4  5  1  0
  4  3  1  0
  5  7  1  0
  5  6  1  1
  7  9  1  0
  8  7  2  0
  9 10  1  0
 10 11  1  6
 12 11  1  0
 13 12  2  0
 14 10  1  0
 14 15  2  0
 16 12  1  0
 17 14  1  0
 18 17  1  0
 18 22  1  0
 19 20  1  0
 18 19  1  1
 20 21  2  0
 22 23  2  0
 22 25  1  0
 24 20  1  0
M  END
$$$$
