MDD.pdb
     RDKit          3D

 25 24  0  0  1  0  0  0  0  0999 V2000
    6.9440  -10.4119   26.3651 C   0  0  0  0  0  0  0  0  0  0  0  0
    6.0225  -11.6281   27.3048 S   0  0  0  0  0  0  0  0  0  0  0  0
    6.5929  -13.3033   27.1928 C   0  0  0  0  0  0  0  0  0  0  0  0
    6.6595  -13.9040   25.8376 C   0  0  0  0  0  0  0  0  0  0  0  0
    7.1934  -15.2786   25.7806 C   0  0  2  0  0  0  0  0  0  0  0  0
    8.5317  -15.3009   26.3802 N   0  0  0  0  0  0  0  0  0  0  0  0
    7.4430  -15.6946   24.3354 C   0  0  0  0  0  0  0  0  0  0  0  0
    6.5780  -16.3209   23.6834 O   0  0  0  0  0  0  0  0  0  0  0  0
    8.6562  -15.3835   23.6977 N   0  0  0  0  0  0  0  0  0  0  0  0
    8.9378  -15.8354   22.3093 C   0  0  1  0  0  0  0  0  0  0  0  0
    8.8856  -14.6311   21.4155 C   0  0  0  0  0  0  0  0  0  0  0  0
    7.8518  -14.7401   20.3848 C   0  0  0  0  0  0  0  0  0  0  0  0
    7.4818  -15.8299   19.9173 O   0  0  0  0  0  0  0  0  0  0  0  0
   10.2862  -16.4989   22.3214 C   0  0  0  0  0  0  0  0  0  0  0  0
   10.7189  -17.1312   21.3365 O   0  0  0  0  0  0  0  0  0  0  0  0
    7.2062  -13.6108   19.8535 O   0  0  0  0  0  0  0  0  0  0  0  0
   11.1308  -16.4352   23.4594 N   0  0  0  0  0  0  0  0  0  0  0  0
   12.5041  -16.8750   23.5246 C   0  0  1  0  0  0  0  0  0  0  0  0
   13.4800  -15.8454   23.0815 C   0  0  0  0  0  0  0  0  0  0  0  0
   14.8802  -16.3002   23.0973 C   0  0  0  0  0  0  0  0  0  0  0  0
   15.3816  -16.9092   22.1167 O   0  0  0  0  0  0  0  0  0  0  0  0
   12.8826  -17.5608   24.7755 C   0  0  0  0  0  0  0  0  0  0  0  0
   14.0482  -17.9904   24.8940 O   0  0  0  0  0  0  0  0  0  0  0  0
   15.7349  -16.0926   24.1795 O   0  0  0  0  0  0  0  0  0  0  0  0
   11.9886  -17.7335   25.7899 O   0  0  0  0  0  0  0  0  0  0  0  0
  2  1  1  0
  3  2  1  0
  4  5  1  0
  4  3  1  0
  5  7  1  0
  5  6  1  1
  7  9  1  0
  8  7  2  0
  9 10  1  0
 10 11  1  6
 12 11  1  0
 13 12  2  0
 14 10  1  0
 14 15  2  0
 16 12  1  0
 17 14  1  0
 18 17  1  0
 18 22  1  0
 19 20  1  0
 18 19  1  1
 20 21  2  0
 22 23  2  0
 22 25  1  0
 24 20  1  0
M  END
$$$$
