YYL.pdb
     RDKit          3D

 33 34  0  0  1  0  0  0  0  0999 V2000
   22.6229  -11.6777  -19.1970 O   0  0  0  0  0  0  0  0  0  0  0  0
   22.4614  -12.9898  -18.7710 C   0  0  0  0  0  0  0  0  0  0  0  0
   22.8240  -13.3235  -17.4736 C   0  0  0  0  0  0  0  0  0  0  0  0
   22.6645  -14.6219  -17.0511 C   0  0  0  0  0  0  0  0  0  0  0  0
   22.1542  -15.5927  -17.8868 C   0  0  0  0  0  0  0  0  0  0  0  0
   21.9837  -16.9939  -17.4256 C   0  0  0  0  0  0  0  0  0  0  0  0
   23.3987  -17.5792  -17.3264 C   0  0  2  0  0  0  0  0  0  0  0  0
   23.9793  -17.7228  -18.6376 N   0  0  0  0  0  0  0  0  0  0  0  0
   23.2265  -18.9362  -16.7251 C   0  0  0  0  0  0  0  0  0  0  0  0
   22.9524  -19.8833  -17.4698 O   0  0  0  0  0  0  0  0  0  0  0  0
   21.8042  -15.2235  -19.1713 C   0  0  0  0  0  0  0  0  0  0  0  0
   21.9551  -13.9203  -19.6225 C   0  0  0  0  0  0  0  0  0  0  0  0
   28.9823  -22.0873  -16.6692 O   0  0  0  0  0  0  0  0  0  0  0  0
   27.8037  -21.8049  -15.9675 C   0  0  0  0  0  0  0  0  0  0  0  0
   27.6414  -20.5437  -15.4362 C   0  0  0  0  0  0  0  0  0  0  0  0
   26.4796  -20.2460  -14.7376 C   0  0  0  0  0  0  0  0  0  0  0  0
   25.5227  -21.2032  -14.5902 C   0  0  0  0  0  0  0  0  0  0  0  0
   24.2783  -20.9389  -13.8752 C   0  0  0  0  0  0  0  0  0  0  0  0
   23.1542  -20.4040  -14.7461 C   0  0  2  0  0  0  0  0  0  0  0  0
   23.3747  -19.1339  -15.3270 N   0  0  0  0  0  0  0  0  0  0  0  0
   21.9094  -20.5004  -13.9513 C   0  0  0  0  0  0  0  0  0  0  0  0
   21.7559  -19.6312  -13.0342 O   0  0  0  0  0  0  0  0  0  0  0  0
   25.7139  -22.4755  -15.1401 C   0  0  0  0  0  0  0  0  0  0  0  0
   26.8480  -22.7757  -15.8252 C   0  0  0  0  0  0  0  0  0  0  0  0
   16.2139  -21.9842  -14.6811 C   0  0  0  0  0  0  0  0  0  0  0  0
   17.1769  -21.2546  -13.8291 C   0  0  2  0  0  0  0  0  0  0  0  0
   16.7854  -19.7758  -13.6741 C   0  0  0  0  0  0  0  0  0  0  0  0
   18.5655  -21.2773  -14.3096 C   0  0  0  0  0  0  0  0  0  0  0  0
   19.6358  -21.4614  -13.3187 C   0  0  2  0  0  0  0  0  0  0  0  0
   20.9154  -21.4488  -14.1270 N   0  0  0  0  0  0  0  0  0  0  0  0
   19.7435  -22.6816  -12.5482 C   0  0  0  0  0  0  0  0  0  0  0  0
   19.2070  -22.7769  -11.2456 O   0  0  0  0  0  0  0  0  0  0  0  0
   20.2991  -23.7190  -12.9494 O   0  0  0  0  0  0  0  0  0  0  0  0
  2  3  2  0
  2  1  1  0
  4  3  1  0
  5  4  2  0
  6  5  1  0
  7  6  1  0
  7  8  1  6
  9 10  2  0
  9  7  1  0
 11  5  1  0
 11 12  2  0
 12  2  1  0
 13 14  1  0
 14 24  2  0
 15 14  1  0
 15 16  2  0
 16 17  1  0
 17 23  2  0
 17 18  1  0
 19 18  1  1
 19 20  1  0
 20  9  1  0
 21 19  1  0
 21 30  1  0
 22 21  2  0
 24 23  1  0
 26 25  1  6
 26 28  1  0
 27 26  1  0
 29 28  1  6
 29 30  1  0
 29 31  1  0
 31 33  2  0
 31 32  1  0
M  END
$$$$
