YYL.pdb
     RDKit          3D

 33 34  0  0  1  0  0  0  0  0999 V2000
   28.7587  -13.9115  -21.2762 O   0  0  0  0  0  0  0  0  0  0  0  0
   28.0724  -15.0587  -20.8993 C   0  0  0  0  0  0  0  0  0  0  0  0
   27.8549  -15.2975  -19.5494 C   0  0  0  0  0  0  0  0  0  0  0  0
   27.1758  -16.4327  -19.1754 C   0  0  0  0  0  0  0  0  0  0  0  0
   26.7096  -17.3329  -20.1101 C   0  0  0  0  0  0  0  0  0  0  0  0
   25.9765  -18.5577  -19.7010 C   0  0  0  0  0  0  0  0  0  0  0  0
   27.0303  -19.4982  -19.1016 C   0  0  2  0  0  0  0  0  0  0  0  0
   27.9279  -19.9699  -20.1258 N   0  0  0  0  0  0  0  0  0  0  0  0
   26.2638  -20.6612  -18.5607 C   0  0  0  0  0  0  0  0  0  0  0  0
   26.0371  -21.6195  -19.3068 O   0  0  0  0  0  0  0  0  0  0  0  0
   26.9449  -17.0620  -21.4444 C   0  0  0  0  0  0  0  0  0  0  0  0
   27.6275  -15.9238  -21.8484 C   0  0  0  0  0  0  0  0  0  0  0  0
   30.2299  -25.4002  -17.1426 O   0  0  0  0  0  0  0  0  0  0  0  0
   29.0858  -24.6918  -16.7547 C   0  0  0  0  0  0  0  0  0  0  0  0
   29.1952  -23.3352  -16.5376 C   0  0  0  0  0  0  0  0  0  0  0  0
   28.0717  -22.6168  -16.1527 C   0  0  0  0  0  0  0  0  0  0  0  0
   26.8838  -23.2638  -15.9971 C   0  0  0  0  0  0  0  0  0  0  0  0
   25.6704  -22.5540  -15.6053 C   0  0  0  0  0  0  0  0  0  0  0  0
   25.0322  -21.7388  -16.7172 C   0  0  2  0  0  0  0  0  0  0  0  0
   25.8051  -20.6655  -17.2170 N   0  0  0  0  0  0  0  0  0  0  0  0
   23.6840  -21.3491  -16.2472 C   0  0  0  0  0  0  0  0  0  0  0  0
   23.6114  -20.2761  -15.5665 O   0  0  0  0  0  0  0  0  0  0  0  0
   26.8017  -24.6420  -16.2241 C   0  0  0  0  0  0  0  0  0  0  0  0
   27.8962  -25.3530  -16.6009 C   0  0  0  0  0  0  0  0  0  0  0  0
   18.0379  -21.8026  -17.0778 C   0  0  0  0  0  0  0  0  0  0  0  0
   19.0557  -20.7309  -17.1131 C   0  0  2  0  0  0  0  0  0  0  0  0
   18.8095  -19.7574  -18.2776 C   0  0  0  0  0  0  0  0  0  0  0  0
   20.4421  -21.2015  -17.2400 C   0  0  0  0  0  0  0  0  0  0  0  0
   21.1572  -21.5807  -16.0128 C   0  0  2  0  0  0  0  0  0  0  0  0
   22.5150  -22.0516  -16.4881 N   0  0  0  0  0  0  0  0  0  0  0  0
   20.6989  -22.6754  -15.1848 C   0  0  0  0  0  0  0  0  0  0  0  0
   19.8423  -22.4546  -14.0843 O   0  0  0  0  0  0  0  0  0  0  0  0
   21.0076  -23.8668  -15.3613 O   0  0  0  0  0  0  0  0  0  0  0  0
  2  3  2  0
  2  1  1  0
  4  3  1  0
  5  4  2  0
  6  5  1  0
  7  6  1  0
  7  8  1  6
  9 10  2  0
  9  7  1  0
 11  5  1  0
 11 12  2  0
 12  2  1  0
 13 14  1  0
 14 24  2  0
 15 14  1  0
 15 16  2  0
 16 17  1  0
 17 23  2  0
 17 18  1  0
 19 18  1  1
 19 20  1  0
 20  9  1  0
 21 19  1  0
 21 30  1  0
 22 21  2  0
 24 23  1  0
 26 25  1  6
 26 28  1  0
 27 26  1  0
 29 28  1  6
 29 30  1  0
 29 31  1  0
 31 33  2  0
 31 32  1  0
M  END
$$$$
