YYL.pdb
     RDKit          3D

 33 34  0  0  1  0  0  0  0  0999 V2000
   31.7490  -16.9071  -19.9882 O   0  0  0  0  0  0  0  0  0  0  0  0
   30.4712  -16.8581  -19.4461 C   0  0  0  0  0  0  0  0  0  0  0  0
   29.5140  -17.7536  -19.9023 C   0  0  0  0  0  0  0  0  0  0  0  0
   28.2490  -17.7059  -19.3664 C   0  0  0  0  0  0  0  0  0  0  0  0
   27.9153  -16.7909  -18.3903 C   0  0  0  0  0  0  0  0  0  0  0  0
   26.5474  -16.7434  -17.8146 C   0  0  0  0  0  0  0  0  0  0  0  0
   26.5018  -17.8448  -16.7472 C   0  0  2  0  0  0  0  0  0  0  0  0
   26.7077  -19.1389  -17.3472 N   0  0  0  0  0  0  0  0  0  0  0  0
   25.1205  -17.7918  -16.1798 C   0  0  0  0  0  0  0  0  0  0  0  0
   24.7253  -16.7324  -15.6819 O   0  0  0  0  0  0  0  0  0  0  0  0
   28.8941  -15.9153  -17.9610 C   0  0  0  0  0  0  0  0  0  0  0  0
   30.1782  -15.9424  -18.4854 C   0  0  0  0  0  0  0  0  0  0  0  0
   21.6965  -13.6590  -19.0485 O   0  0  0  0  0  0  0  0  0  0  0  0
   21.7363  -14.9199  -18.4405 C   0  0  0  0  0  0  0  0  0  0  0  0
   21.2859  -15.0384  -17.1434 C   0  0  0  0  0  0  0  0  0  0  0  0
   21.3179  -16.2805  -16.5248 C   0  0  0  0  0  0  0  0  0  0  0  0
   21.7926  -17.3576  -17.2091 C   0  0  0  0  0  0  0  0  0  0  0  0
   21.8372  -18.6874  -16.6096 C   0  0  0  0  0  0  0  0  0  0  0  0
   22.9866  -18.9014  -15.6395 C   0  0  2  0  0  0  0  0  0  0  0  0
   24.2790  -18.9350  -16.2120 N   0  0  0  0  0  0  0  0  0  0  0  0
   22.6506  -20.0929  -14.8284 C   0  0  0  0  0  0  0  0  0  0  0  0
   22.5469  -21.1941  -15.4582 O   0  0  0  0  0  0  0  0  0  0  0  0
   22.2437  -17.2083  -18.5251 C   0  0  0  0  0  0  0  0  0  0  0  0
   22.2161  -15.9963  -19.1384 C   0  0  0  0  0  0  0  0  0  0  0  0
   23.2915  -19.2493  -10.7826 C   0  0  0  0  0  0  0  0  0  0  0  0
   23.4073  -20.7079  -10.5713 C   0  0  2  0  0  0  0  0  0  0  0  0
   24.7197  -21.0721   -9.8578 C   0  0  0  0  0  0  0  0  0  0  0  0
   23.3541  -21.5146  -11.7986 C   0  0  0  0  0  0  0  0  0  0  0  0
   22.1807  -21.3661  -12.6717 C   0  0  2  0  0  0  0  0  0  0  0  0
   22.4441  -20.1004  -13.4589 N   0  0  0  0  0  0  0  0  0  0  0  0
   20.8600  -21.1454  -12.1231 C   0  0  0  0  0  0  0  0  0  0  0  0
   20.1768  -22.1633  -11.4225 O   0  0  0  0  0  0  0  0  0  0  0  0
   20.2300  -20.0776  -12.2165 O   0  0  0  0  0  0  0  0  0  0  0  0
  2  3  2  0
  2  1  1  0
  4  3  1  0
  5  4  2  0
  6  5  1  0
  7  6  1  0
  7  8  1  6
  9 10  2  0
  9  7  1  0
 11  5  1  0
 11 12  2  0
 12  2  1  0
 13 14  1  0
 14 24  2  0
 15 14  1  0
 15 16  2  0
 16 17  1  0
 17 23  2  0
 17 18  1  0
 19 18  1  6
 19 20  1  0
 20  9  1  0
 21 19  1  0
 21 30  1  0
 22 21  2  0
 24 23  1  0
 26 25  1  6
 26 28  1  0
 27 26  1  0
 29 28  1  1
 29 30  1  0
 29 31  1  0
 31 33  2  0
 31 32  1  0
M  END
$$$$
