YYL.pdb
     RDKit          3D

 33 34  0  0  1  0  0  0  0  0999 V2000
   23.3207  -32.2539  -22.3968 O   0  0  0  0  0  0  0  0  0  0  0  0
   24.7044  -32.2562  -22.2765 C   0  0  0  0  0  0  0  0  0  0  0  0
   25.4327  -31.2447  -22.8871 C   0  0  0  0  0  0  0  0  0  0  0  0
   26.8022  -31.2461  -22.7686 C   0  0  0  0  0  0  0  0  0  0  0  0
   27.4619  -32.2272  -22.0590 C   0  0  0  0  0  0  0  0  0  0  0  0
   28.9415  -32.2242  -21.9338 C   0  0  0  0  0  0  0  0  0  0  0  0
   29.2706  -31.1804  -20.8584 C   0  0  2  0  0  0  0  0  0  0  0  0
   30.6842  -30.9001  -20.8420 N   0  0  0  0  0  0  0  0  0  0  0  0
   28.8907  -31.8141  -19.5596 C   0  0  0  0  0  0  0  0  0  0  0  0
   29.2221  -32.9864  -19.3535 O   0  0  0  0  0  0  0  0  0  0  0  0
   26.7039  -33.2178  -21.4648 C   0  0  0  0  0  0  0  0  0  0  0  0
   25.3207  -33.2396  -21.5691 C   0  0  0  0  0  0  0  0  0  0  0  0
   34.0408  -31.9756  -16.0488 O   0  0  0  0  0  0  0  0  0  0  0  0
   32.6570  -31.7620  -16.0721 C   0  0  0  0  0  0  0  0  0  0  0  0
   31.8446  -32.6428  -15.3912 C   0  0  0  0  0  0  0  0  0  0  0  0
   30.4706  -32.4467  -15.4033 C   0  0  0  0  0  0  0  0  0  0  0  0
   29.9508  -31.3896  -16.0860 C   0  0  0  0  0  0  0  0  0  0  0  0
   28.5149  -31.1314  -16.1211 C   0  0  0  0  0  0  0  0  0  0  0  0
   27.8077  -31.6785  -17.3494 C   0  0  2  0  0  0  0  0  0  0  0  0
   28.1638  -31.0846  -18.5822 N   0  0  0  0  0  0  0  0  0  0  0  0
   26.3566  -31.6519  -17.0594 C   0  0  0  0  0  0  0  0  0  0  0  0
   25.6500  -30.8788  -17.7826 O   0  0  0  0  0  0  0  0  0  0  0  0
   30.7992  -30.5111  -16.7688 C   0  0  0  0  0  0  0  0  0  0  0  0
   32.1452  -30.6955  -16.7625 C   0  0  0  0  0  0  0  0  0  0  0  0
   21.5605  -33.9809  -16.9626 C   0  0  0  0  0  0  0  0  0  0  0  0
   22.1821  -32.6835  -17.3030 C   0  0  2  0  0  0  0  0  0  0  0  0
   21.8475  -32.2580  -18.7421 C   0  0  0  0  0  0  0  0  0  0  0  0
   23.6463  -32.6506  -17.1809 C   0  0  0  0  0  0  0  0  0  0  0  0
   24.2223  -32.3588  -15.8602 C   0  0  2  0  0  0  0  0  0  0  0  0
   25.7199  -32.3922  -16.0772 N   0  0  0  0  0  0  0  0  0  0  0  0
   24.0301  -33.2575  -14.7423 C   0  0  0  0  0  0  0  0  0  0  0  0
   25.0183  -34.1982  -14.3786 O   0  0  0  0  0  0  0  0  0  0  0  0
   23.0134  -33.2817  -14.0272 O   0  0  0  0  0  0  0  0  0  0  0  0
  2  3  2  0
  2  1  1  0
  4  3  1  0
  5  4  2  0
  6  5  1  0
  7  6  1  0
  7  8  1  1
  9 10  2  0
  9  7  1  0
 11  5  1  0
 11 12  2  0
 12  2  1  0
 13 14  1  0
 14 24  2  0
 15 14  1  0
 15 16  2  0
 16 17  1  0
 17 23  2  0
 17 18  1  0
 19 18  1  1
 19 20  1  0
 20  9  1  0
 21 19  1  0
 21 30  1  0
 22 21  2  0
 24 23  1  0
 26 25  1  6
 26 28  1  0
 27 26  1  0
 29 28  1  6
 29 30  1  0
 29 31  1  0
 31 33  2  0
 31 32  1  0
M  END
$$$$
