YYL.pdb
     RDKit          3D

 33 34  0  0  1  0  0  0  0  0999 V2000
   31.5349  -23.6882  -18.0652 O   0  0  0  0  0  0  0  0  0  0  0  0
   30.8176  -22.8747  -17.1976 C   0  0  0  0  0  0  0  0  0  0  0  0
   30.4507  -23.3761  -15.9565 C   0  0  0  0  0  0  0  0  0  0  0  0
   29.7408  -22.5716  -15.0971 C   0  0  0  0  0  0  0  0  0  0  0  0
   29.3886  -21.2840  -15.4427 C   0  0  0  0  0  0  0  0  0  0  0  0
   28.6217  -20.4190  -14.5108 C   0  0  0  0  0  0  0  0  0  0  0  0
   27.1564  -20.8553  -14.6413 C   0  0  2  0  0  0  0  0  0  0  0  0
   26.5523  -20.2562  -15.8045 N   0  0  0  0  0  0  0  0  0  0  0  0
   26.4746  -20.3293  -13.4201 C   0  0  0  0  0  0  0  0  0  0  0  0
   26.2918  -19.1113  -13.3224 O   0  0  0  0  0  0  0  0  0  0  0  0
   29.7712  -20.8191  -16.6863 C   0  0  0  0  0  0  0  0  0  0  0  0
   30.4879  -21.6104  -17.5721 C   0  0  0  0  0  0  0  0  0  0  0  0
   20.8179  -19.0130  -15.4323 O   0  0  0  0  0  0  0  0  0  0  0  0
   21.5828  -19.5331  -14.3809 C   0  0  0  0  0  0  0  0  0  0  0  0
   21.6193  -18.8407  -13.1898 C   0  0  0  0  0  0  0  0  0  0  0  0
   22.3722  -19.3413  -12.1367 C   0  0  0  0  0  0  0  0  0  0  0  0
   23.0597  -20.5052  -12.2987 C   0  0  0  0  0  0  0  0  0  0  0  0
   23.8568  -21.0807  -11.2202 C   0  0  0  0  0  0  0  0  0  0  0  0
   25.3333  -20.7263  -11.2716 C   0  0  2  0  0  0  0  0  0  0  0  0
   26.0454  -21.2106  -12.3930 N   0  0  0  0  0  0  0  0  0  0  0  0
   25.9160  -21.1152   -9.9679 C   0  0  0  0  0  0  0  0  0  0  0  0
   26.3565  -22.3061   -9.8788 O   0  0  0  0  0  0  0  0  0  0  0  0
   23.0049  -21.1873  -13.5191 C   0  0  0  0  0  0  0  0  0  0  0  0
   22.2707  -20.7046  -14.5553 C   0  0  0  0  0  0  0  0  0  0  0  0
   29.2570  -20.0588   -6.9008 C   0  0  0  0  0  0  0  0  0  0  0  0
   28.1488  -19.0905   -7.0411 C   0  0  2  0  0  0  0  0  0  0  0  0
   28.3513  -17.8660   -6.1335 C   0  0  0  0  0  0  0  0  0  0  0  0
   26.8165  -19.6297   -6.7344 C   0  0  0  0  0  0  0  0  0  0  0  0
   26.3637  -20.8146   -7.4775 C   0  0  2  0  0  0  0  0  0  0  0  0
   26.0169  -20.2953   -8.8563 N   0  0  0  0  0  0  0  0  0  0  0  0
   25.1716  -21.5356   -7.0863 C   0  0  0  0  0  0  0  0  0  0  0  0
   25.2163  -22.5505   -6.1056 O   0  0  0  0  0  0  0  0  0  0  0  0
   24.0408  -21.3339   -7.5620 O   0  0  0  0  0  0  0  0  0  0  0  0
  2  3  2  0
  2  1  1  0
  4  3  1  0
  5  4  2  0
  6  5  1  0
  7  6  1  0
  7  8  1  6
  9 10  2  0
  9  7  1  0
 11  5  1  0
 11 12  2  0
 12  2  1  0
 13 14  1  0
 14 24  2  0
 15 14  1  0
 15 16  2  0
 16 17  1  0
 17 23  2  0
 17 18  1  0
 19 18  1  1
 19 20  1  0
 20  9  1  0
 21 19  1  0
 21 30  1  0
 22 21  2  0
 24 23  1  0
 26 25  1  1
 26 28  1  0
 27 26  1  0
 29 28  1  1
 29 30  1  0
 29 31  1  0
 31 33  2  0
 31 32  1  0
M  END
$$$$
