YYL.pdb
     RDKit          3D

 33 34  0  0  1  0  0  0  0  0999 V2000
   26.1457  -37.7036  -16.0147 O   0  0  0  0  0  0  0  0  0  0  0  0
   26.2863  -36.8283  -14.9455 C   0  0  0  0  0  0  0  0  0  0  0  0
   26.6871  -37.3307  -13.7153 C   0  0  0  0  0  0  0  0  0  0  0  0
   26.8266  -36.4651  -12.6565 C   0  0  0  0  0  0  0  0  0  0  0  0
   26.5773  -35.1158  -12.7927 C   0  0  0  0  0  0  0  0  0  0  0  0
   26.7295  -34.1849  -11.6459 C   0  0  0  0  0  0  0  0  0  0  0  0
   25.4975  -34.4060  -10.7583 C   0  0  2  0  0  0  0  0  0  0  0  0
   24.3357  -33.7846  -11.3424 N   0  0  0  0  0  0  0  0  0  0  0  0
   25.8102  -33.7230   -9.4666 C   0  0  0  0  0  0  0  0  0  0  0  0
   25.1419  -32.7358   -9.1419 O   0  0  0  0  0  0  0  0  0  0  0  0
   26.1802  -34.6520  -14.0321 C   0  0  0  0  0  0  0  0  0  0  0  0
   26.0318  -35.5042  -15.1167 C   0  0  0  0  0  0  0  0  0  0  0  0
   26.2499  -32.3349   -1.1091 O   0  0  0  0  0  0  0  0  0  0  0  0
   26.1097  -32.7046   -2.4525 C   0  0  0  0  0  0  0  0  0  0  0  0
   26.3993  -34.0036   -2.8102 C   0  0  0  0  0  0  0  0  0  0  0  0
   26.2661  -34.3879   -4.1373 C   0  0  0  0  0  0  0  0  0  0  0  0
   25.8521  -33.4765   -5.0602 C   0  0  0  0  0  0  0  0  0  0  0  0
   25.6845  -33.8314   -6.4657 C   0  0  0  0  0  0  0  0  0  0  0  0
   26.9609  -33.7665   -7.2871 C   0  0  2  0  0  0  0  0  0  0  0  0
   26.8537  -34.1982   -8.6292 N   0  0  0  0  0  0  0  0  0  0  0  0
   28.0110  -34.4602   -6.5082 C   0  0  0  0  0  0  0  0  0  0  0  0
   27.8617  -35.7143   -6.3504 O   0  0  0  0  0  0  0  0  0  0  0  0
   25.5651  -32.1641   -4.6690 C   0  0  0  0  0  0  0  0  0  0  0  0
   25.6929  -31.7793   -3.3724 C   0  0  0  0  0  0  0  0  0  0  0  0
   32.3402  -35.2063   -7.4269 C   0  0  0  0  0  0  0  0  0  0  0  0
   31.9786  -33.8722   -6.9026 C   0  0  2  0  0  0  0  0  0  0  0  0
   33.1823  -32.9156   -6.9157 C   0  0  0  0  0  0  0  0  0  0  0  0
   31.4513  -33.8712   -5.5308 C   0  0  0  0  0  0  0  0  0  0  0  0
   30.2264  -34.6381   -5.2617 C   0  0  2  0  0  0  0  0  0  0  0  0
   29.1252  -33.8582   -5.9475 N   0  0  0  0  0  0  0  0  0  0  0  0
   29.7248  -34.8030   -3.9144 C   0  0  0  0  0  0  0  0  0  0  0  0
   30.4542  -35.5224   -2.9427 O   0  0  0  0  0  0  0  0  0  0  0  0
   28.6445  -34.3430   -3.5057 O   0  0  0  0  0  0  0  0  0  0  0  0
  2  3  2  0
  2  1  1  0
  4  3  1  0
  5  4  2  0
  6  5  1  0
  7  6  1  0
  7  8  1  6
  9 10  2  0
  9  7  1  0
 11  5  1  0
 11 12  2  0
 12  2  1  0
 13 14  1  0
 14 24  2  0
 15 14  1  0
 15 16  2  0
 16 17  1  0
 17 23  2  0
 17 18  1  0
 19 18  1  1
 19 20  1  0
 20  9  1  0
 21 19  1  0
 21 30  1  0
 22 21  2  0
 24 23  1  0
 26 25  1  1
 26 28  1  0
 27 26  1  0
 29 28  1  1
 29 30  1  0
 29 31  1  0
 31 33  2  0
 31 32  1  0
M  END
$$$$
