YYL.pdb
     RDKit          3D

 33 34  0  0  1  0  0  0  0  0999 V2000
   27.2619  -17.9606  -21.8722 O   0  0  0  0  0  0  0  0  0  0  0  0
   26.6605  -17.9446  -20.6203 C   0  0  0  0  0  0  0  0  0  0  0  0
   27.3771  -17.4535  -19.5379 C   0  0  0  0  0  0  0  0  0  0  0  0
   26.7828  -17.4372  -18.2984 C   0  0  0  0  0  0  0  0  0  0  0  0
   25.4962  -17.8968  -18.1115 C   0  0  0  0  0  0  0  0  0  0  0  0
   24.8586  -17.8771  -16.7706 C   0  0  0  0  0  0  0  0  0  0  0  0
   25.7194  -18.7849  -15.8821 C   0  0  2  0  0  0  0  0  0  0  0  0
   25.8020  -20.1099  -16.4430 N   0  0  0  0  0  0  0  0  0  0  0  0
   24.9998  -18.8598  -14.5747 C   0  0  0  0  0  0  0  0  0  0  0  0
   24.6078  -17.8103  -14.0537 O   0  0  0  0  0  0  0  0  0  0  0  0
   24.8138  -18.3784  -19.2121 C   0  0  0  0  0  0  0  0  0  0  0  0
   25.3905  -18.4058  -20.4735 C   0  0  0  0  0  0  0  0  0  0  0  0
   18.5495  -19.0265  -15.5963 O   0  0  0  0  0  0  0  0  0  0  0  0
   19.6254  -19.5362  -14.8589 C   0  0  0  0  0  0  0  0  0  0  0  0
   20.5556  -20.3183  -15.5088 C   0  0  0  0  0  0  0  0  0  0  0  0
   21.6286  -20.8322  -14.7938 C   0  0  0  0  0  0  0  0  0  0  0  0
   21.7430  -20.5546  -13.4658 C   0  0  0  0  0  0  0  0  0  0  0  0
   22.8575  -21.0600  -12.6707 C   0  0  0  0  0  0  0  0  0  0  0  0
   24.0994  -20.1854  -12.7016 C   0  0  2  0  0  0  0  0  0  0  0  0
   24.7709  -20.1109  -13.9437 N   0  0  0  0  0  0  0  0  0  0  0  0
   24.9561  -20.6124  -11.5729 C   0  0  0  0  0  0  0  0  0  0  0  0
   25.6740  -21.6452  -11.7678 O   0  0  0  0  0  0  0  0  0  0  0  0
   20.7837  -19.7577  -12.8314 C   0  0  0  0  0  0  0  0  0  0  0  0
   19.7302  -19.2508  -13.5234 C   0  0  0  0  0  0  0  0  0  0  0  0
   27.9184  -18.3323   -6.8975 C   0  0  0  0  0  0  0  0  0  0  0  0
   27.5068  -19.5950   -7.5469 C   0  0  2  0  0  0  0  0  0  0  0  0
   28.7223  -20.4582   -7.9230 C   0  0  0  0  0  0  0  0  0  0  0  0
   26.7108  -19.4277   -8.7709 C   0  0  0  0  0  0  0  0  0  0  0  0
   25.8378  -20.5363   -9.1833 C   0  0  2  0  0  0  0  0  0  0  0  0
   25.0346  -19.9839  -10.3412 N   0  0  0  0  0  0  0  0  0  0  0  0
   24.8217  -21.0613   -8.2968 C   0  0  0  0  0  0  0  0  0  0  0  0
   25.1373  -22.0075   -7.2974 O   0  0  0  0  0  0  0  0  0  0  0  0
   23.6216  -20.7384   -8.3345 O   0  0  0  0  0  0  0  0  0  0  0  0
  2  3  2  0
  2  1  1  0
  4  3  1  0
  5  4  2  0
  6  5  1  0
  7  6  1  0
  7  8  1  6
  9 10  2  0
  9  7  1  0
 11  5  1  0
 11 12  2  0
 12  2  1  0
 13 14  1  0
 14 24  2  0
 15 14  1  0
 15 16  2  0
 16 17  1  0
 17 23  2  0
 17 18  1  0
 19 18  1  6
 19 20  1  0
 20  9  1  0
 21 19  1  0
 21 30  1  0
 22 21  2  0
 24 23  1  0
 26 25  1  6
 26 28  1  0
 27 26  1  0
 29 28  1  1
 29 30  1  0
 29 31  1  0
 31 33  2  0
 31 32  1  0
M  END
$$$$
