YYL.pdb
     RDKit          3D

 33 34  0  0  1  0  0  0  0  0999 V2000
   21.6402  -28.8988  -15.9871 O   0  0  0  0  0  0  0  0  0  0  0  0
   21.1937  -27.5838  -16.0076 C   0  0  0  0  0  0  0  0  0  0  0  0
   22.0497  -26.5916  -16.4649 C   0  0  0  0  0  0  0  0  0  0  0  0
   21.6087  -25.2897  -16.4856 C   0  0  0  0  0  0  0  0  0  0  0  0
   20.3399  -24.9533  -16.0632 C   0  0  0  0  0  0  0  0  0  0  0  0
   19.8682  -23.5455  -16.0875 C   0  0  0  0  0  0  0  0  0  0  0  0
   20.4347  -22.8900  -14.8211 C   0  0  2  0  0  0  0  0  0  0  0  0
   19.8061  -23.4362  -13.6448 N   0  0  0  0  0  0  0  0  0  0  0  0
   20.0788  -21.4429  -14.9289 C   0  0  0  0  0  0  0  0  0  0  0  0
   18.9907  -21.0659  -14.4811 O   0  0  0  0  0  0  0  0  0  0  0  0
   19.5160  -25.9675  -15.6146 C   0  0  0  0  0  0  0  0  0  0  0  0
   19.9365  -27.2892  -15.5835 C   0  0  0  0  0  0  0  0  0  0  0  0
   20.8071  -19.1269   -9.2388 O   0  0  0  0  0  0  0  0  0  0  0  0
   20.9702  -18.9049  -10.6118 C   0  0  0  0  0  0  0  0  0  0  0  0
   20.0762  -18.0759  -11.2542 C   0  0  0  0  0  0  0  0  0  0  0  0
   20.2224  -17.8444  -12.6149 C   0  0  0  0  0  0  0  0  0  0  0  0
   21.2448  -18.4390  -13.2894 C   0  0  0  0  0  0  0  0  0  0  0  0
   21.4503  -18.2200  -14.7175 C   0  0  0  0  0  0  0  0  0  0  0  0
   20.6490  -19.1456  -15.6172 C   0  0  2  0  0  0  0  0  0  0  0  0
   20.9721  -20.5195  -15.5334 N   0  0  0  0  0  0  0  0  0  0  0  0
   20.7222  -18.5869  -16.9858 C   0  0  0  0  0  0  0  0  0  0  0  0
   21.6946  -18.9819  -17.7059 O   0  0  0  0  0  0  0  0  0  0  0  0
   22.1378  -19.2763  -12.6119 C   0  0  0  0  0  0  0  0  0  0  0  0
   22.0021  -19.5087  -11.2802 C   0  0  0  0  0  0  0  0  0  0  0  0
   18.1804  -19.1970  -20.5042 C   0  0  0  0  0  0  0  0  0  0  0  0
   17.6586  -18.1982  -19.5473 C   0  0  2  0  0  0  0  0  0  0  0  0
   16.2666  -17.6934  -19.9618 C   0  0  0  0  0  0  0  0  0  0  0  0
   18.5059  -17.0101  -19.3732 C   0  0  0  0  0  0  0  0  0  0  0  0
   19.9050  -17.2132  -18.9703 C   0  0  2  0  0  0  0  0  0  0  0  0
   19.8278  -17.6822  -17.5332 N   0  0  0  0  0  0  0  0  0  0  0  0
   20.8362  -16.1073  -18.9074 C   0  0  0  0  0  0  0  0  0  0  0  0
   21.7434  -15.8512  -19.9586 O   0  0  0  0  0  0  0  0  0  0  0  0
   20.9186  -15.3116  -17.9557 O   0  0  0  0  0  0  0  0  0  0  0  0
  2  3  2  0
  2  1  1  0
  4  3  1  0
  5  4  2  0
  6  5  1  0
  7  6  1  0
  7  8  1  1
  9 10  2  0
  9  7  1  0
 11  5  1  0
 11 12  2  0
 12  2  1  0
 13 14  1  0
 14 24  2  0
 15 14  1  0
 15 16  2  0
 16 17  1  0
 17 23  2  0
 17 18  1  0
 19 18  1  1
 19 20  1  0
 20  9  1  0
 21 19  1  0
 21 30  1  0
 22 21  2  0
 24 23  1  0
 26 25  1  6
 26 28  1  0
 27 26  1  0
 29 28  1  1
 29 30  1  0
 29 31  1  0
 31 33  2  0
 31 32  1  0
M  END
$$$$
