YYL.pdb
     RDKit          3D

 33 34  0  0  1  0  0  0  0  0999 V2000
   28.9526  -18.9678  -22.9014 O   0  0  0  0  0  0  0  0  0  0  0  0
   28.3027  -19.2968  -21.7188 C   0  0  0  0  0  0  0  0  0  0  0  0
   27.1716  -20.0992  -21.7756 C   0  0  0  0  0  0  0  0  0  0  0  0
   26.5276  -20.4253  -20.6057 C   0  0  0  0  0  0  0  0  0  0  0  0
   26.9814  -19.9732  -19.3847 C   0  0  0  0  0  0  0  0  0  0  0  0
   26.2823  -20.3284  -18.1237 C   0  0  0  0  0  0  0  0  0  0  0  0
   27.2384  -21.2530  -17.3586 C   0  0  2  0  0  0  0  0  0  0  0  0
   27.3438  -22.5295  -18.0193 N   0  0  0  0  0  0  0  0  0  0  0  0
   26.6088  -21.4553  -16.0187 C   0  0  0  0  0  0  0  0  0  0  0  0
   25.5988  -22.1626  -15.9398 O   0  0  0  0  0  0  0  0  0  0  0  0
   28.1102  -19.1768  -19.3672 C   0  0  0  0  0  0  0  0  0  0  0  0
   28.7786  -18.8330  -20.5332 C   0  0  0  0  0  0  0  0  0  0  0  0
   24.5302  -20.7707   -7.5612 O   0  0  0  0  0  0  0  0  0  0  0  0
   25.2244  -20.7070   -8.7757 C   0  0  0  0  0  0  0  0  0  0  0  0
   25.5594  -19.4677   -9.2769 C   0  0  0  0  0  0  0  0  0  0  0  0
   26.2475  -19.3853  -10.4795 C   0  0  0  0  0  0  0  0  0  0  0  0
   26.5790  -20.5282  -11.1412 C   0  0  0  0  0  0  0  0  0  0  0  0
   27.3120  -20.4979  -12.4027 C   0  0  0  0  0  0  0  0  0  0  0  0
   26.5030  -20.9391  -13.6106 C   0  0  2  0  0  0  0  0  0  0  0  0
   27.1594  -20.8476  -14.8596 N   0  0  0  0  0  0  0  0  0  0  0  0
   25.2104  -20.2208  -13.5499 C   0  0  0  0  0  0  0  0  0  0  0  0
   25.2422  -18.9769  -13.8173 O   0  0  0  0  0  0  0  0  0  0  0  0
   26.2260  -21.7732  -10.6092 C   0  0  0  0  0  0  0  0  0  0  0  0
   25.5523  -21.8632   -9.4329 C   0  0  0  0  0  0  0  0  0  0  0  0
   22.8654  -20.3232  -16.7744 C   0  0  0  0  0  0  0  0  0  0  0  0
   22.2735  -20.6688  -15.4646 C   0  0  2  0  0  0  0  0  0  0  0  0
   20.7889  -21.0461  -15.5984 C   0  0  0  0  0  0  0  0  0  0  0  0
   22.3510  -19.6054  -14.4532 C   0  0  0  0  0  0  0  0  0  0  0  0
   22.7171  -19.9837  -13.0807 C   0  0  2  0  0  0  0  0  0  0  0  0
   23.9892  -20.7903  -13.2297 N   0  0  0  0  0  0  0  0  0  0  0  0
   21.8686  -20.8479  -12.2886 C   0  0  0  0  0  0  0  0  0  0  0  0
   22.1977  -22.2043  -12.0752 O   0  0  0  0  0  0  0  0  0  0  0  0
   20.8106  -20.4868  -11.7446 O   0  0  0  0  0  0  0  0  0  0  0  0
  2  3  2  0
  2  1  1  0
  4  3  1  0
  5  4  2  0
  6  5  1  0
  7  6  1  0
  7  8  1  6
  9 10  2  0
  9  7  1  0
 11  5  1  0
 11 12  2  0
 12  2  1  0
 13 14  1  0
 14 24  2  0
 15 14  1  0
 15 16  2  0
 16 17  1  0
 17 23  2  0
 17 18  1  0
 19 18  1  1
 19 20  1  0
 20  9  1  0
 21 19  1  0
 21 30  1  0
 22 21  2  0
 24 23  1  0
 26 25  1  6
 26 28  1  0
 27 26  1  0
 29 28  1  6
 29 30  1  0
 29 31  1  0
 31 33  2  0
 31 32  1  0
M  END
$$$$
