YYL.pdb
     RDKit          3D

 33 34  0  0  1  0  0  0  0  0999 V2000
   29.1169  -11.2904  -16.4075 O   0  0  0  0  0  0  0  0  0  0  0  0
   27.8661  -10.6963  -16.5153 C   0  0  0  0  0  0  0  0  0  0  0  0
   27.0918  -10.9615  -17.6362 C   0  0  0  0  0  0  0  0  0  0  0  0
   25.8536  -10.3740  -17.7439 C   0  0  0  0  0  0  0  0  0  0  0  0
   25.3696   -9.5316  -16.7654 C   0  0  0  0  0  0  0  0  0  0  0  0
   24.0314   -8.8995  -16.8863 C   0  0  0  0  0  0  0  0  0  0  0  0
   23.1221   -9.6481  -15.9028 C   0  0  2  0  0  0  0  0  0  0  0  0
   23.0630  -11.0492  -16.2353 N   0  0  0  0  0  0  0  0  0  0  0  0
   21.7638   -9.0527  -16.0850 C   0  0  0  0  0  0  0  0  0  0  0  0
   20.8383   -9.7881  -16.4443 O   0  0  0  0  0  0  0  0  0  0  0  0
   26.1684   -9.2911  -15.6640 C   0  0  0  0  0  0  0  0  0  0  0  0
   27.4215   -9.8712  -15.5310 C   0  0  0  0  0  0  0  0  0  0  0  0
   17.0785  -12.6334  -16.0390 O   0  0  0  0  0  0  0  0  0  0  0  0
   17.6184  -11.3741  -15.7495 C   0  0  0  0  0  0  0  0  0  0  0  0
   18.5342  -11.2717  -14.7247 C   0  0  0  0  0  0  0  0  0  0  0  0
   19.0798  -10.0314  -14.4236 C   0  0  0  0  0  0  0  0  0  0  0  0
   18.7015   -8.9403  -15.1449 C   0  0  0  0  0  0  0  0  0  0  0  0
   19.2531   -7.6161  -14.8771 C   0  0  0  0  0  0  0  0  0  0  0  0
   20.2391   -7.1226  -15.9223 C   0  0  2  0  0  0  0  0  0  0  0  0
   21.5406   -7.6703  -15.8500 N   0  0  0  0  0  0  0  0  0  0  0  0
   20.2000   -5.6435  -15.8880 C   0  0  0  0  0  0  0  0  0  0  0  0
   20.7568   -5.0867  -14.8880 O   0  0  0  0  0  0  0  0  0  0  0  0
   17.7695   -9.0734  -16.1799 C   0  0  0  0  0  0  0  0  0  0  0  0
   17.2303  -10.2834  -16.4814 C   0  0  0  0  0  0  0  0  0  0  0  0
   21.4221   -2.3354  -19.0828 C   0  0  0  0  0  0  0  0  0  0  0  0
   20.1284   -3.0330  -19.2418 C   0  0  2  0  0  0  0  0  0  0  0  0
   19.3795   -2.5538  -20.4963 C   0  0  0  0  0  0  0  0  0  0  0  0
   19.2024   -2.8797  -18.1110 C   0  0  0  0  0  0  0  0  0  0  0  0
   19.6548   -3.3210  -16.7837 C   0  0  2  0  0  0  0  0  0  0  0  0
   19.6135   -4.8328  -16.8456 N   0  0  0  0  0  0  0  0  0  0  0  0
   18.8924   -3.0181  -15.5916 C   0  0  0  0  0  0  0  0  0  0  0  0
   17.9039   -3.9028  -15.1081 O   0  0  0  0  0  0  0  0  0  0  0  0
   19.0337   -1.9877  -14.9104 O   0  0  0  0  0  0  0  0  0  0  0  0
  2  3  2  0
  2  1  1  0
  4  3  1  0
  5  4  2  0
  6  5  1  0
  7  6  1  0
  7  8  1  6
  9 10  2  0
  9  7  1  0
 11  5  1  0
 11 12  2  0
 12  2  1  0
 13 14  1  0
 14 24  2  0
 15 14  1  0
 15 16  2  0
 16 17  1  0
 17 23  2  0
 17 18  1  0
 19 18  1  1
 19 20  1  0
 20  9  1  0
 21 19  1  0
 21 30  1  0
 22 21  2  0
 24 23  1  0
 26 25  1  1
 26 28  1  0
 27 26  1  0
 29 28  1  6
 29 30  1  0
 29 31  1  0
 31 33  2  0
 31 32  1  0
M  END
$$$$
