YYL.pdb
     RDKit          3D

 33 34  0  0  1  0  0  0  0  0999 V2000
   22.6139  -16.0427  -24.2653 O   0  0  0  0  0  0  0  0  0  0  0  0
   22.1233  -16.6763  -23.1309 C   0  0  0  0  0  0  0  0  0  0  0  0
   21.5280  -17.9230  -23.2632 C   0  0  0  0  0  0  0  0  0  0  0  0
   21.0421  -18.5510  -22.1410 C   0  0  0  0  0  0  0  0  0  0  0  0
   21.1344  -17.9691  -20.8943 C   0  0  0  0  0  0  0  0  0  0  0  0
   20.6081  -18.6515  -19.6851 C   0  0  0  0  0  0  0  0  0  0  0  0
   21.8323  -19.2250  -18.9592 C   0  0  2  0  0  0  0  0  0  0  0  0
   22.3726  -20.3453  -19.6873 N   0  0  0  0  0  0  0  0  0  0  0  0
   21.3223  -19.7089  -17.6407 C   0  0  0  0  0  0  0  0  0  0  0  0
   20.9334  -20.8781  -17.5493 O   0  0  0  0  0  0  0  0  0  0  0  0
   21.7333  -16.7275  -20.8013 C   0  0  0  0  0  0  0  0  0  0  0  0
   22.2318  -16.0725  -21.9181 C   0  0  0  0  0  0  0  0  0  0  0  0
   19.1196  -20.3113   -9.2082 O   0  0  0  0  0  0  0  0  0  0  0  0
   19.6255  -19.8437  -10.4274 C   0  0  0  0  0  0  0  0  0  0  0  0
   19.0102  -18.7642  -11.0235 C   0  0  0  0  0  0  0  0  0  0  0  0
   19.4981  -18.2871  -12.2321 C   0  0  0  0  0  0  0  0  0  0  0  0
   20.5740  -18.8928  -12.8061 C   0  0  0  0  0  0  0  0  0  0  0  0
   21.1334  -18.4238  -14.0697 C   0  0  0  0  0  0  0  0  0  0  0  0
   20.7977  -19.2955  -15.2679 C   0  0  2  0  0  0  0  0  0  0  0  0
   21.2851  -18.8435  -16.5158 N   0  0  0  0  0  0  0  0  0  0  0  0
   19.3366  -19.5295  -15.2354 C   0  0  0  0  0  0  0  0  0  0  0  0
   18.6066  -18.6139  -15.7342 O   0  0  0  0  0  0  0  0  0  0  0  0
   21.1791  -19.9873  -12.1788 C   0  0  0  0  0  0  0  0  0  0  0  0
   20.7081  -20.4610  -10.9958 C   0  0  0  0  0  0  0  0  0  0  0  0
   15.2982  -23.1379  -16.9947 C   0  0  0  0  0  0  0  0  0  0  0  0
   15.4922  -21.9455  -16.1426 C   0  0  2  0  0  0  0  0  0  0  0  0
   14.8131  -20.7047  -16.7456 C   0  0  0  0  0  0  0  0  0  0  0  0
   16.8956  -21.5840  -15.8986 C   0  0  0  0  0  0  0  0  0  0  0  0
   17.2101  -20.8201  -14.6826 C   0  0  2  0  0  0  0  0  0  0  0  0
   18.7139  -20.6506  -14.7123 N   0  0  0  0  0  0  0  0  0  0  0  0
   16.9654  -21.3698  -13.3665 C   0  0  0  0  0  0  0  0  0  0  0  0
   17.8516  -22.3019  -12.7840 O   0  0  0  0  0  0  0  0  0  0  0  0
   15.9869  -21.0814  -12.6557 O   0  0  0  0  0  0  0  0  0  0  0  0
  2  3  2  0
  2  1  1  0
  4  3  1  0
  5  4  2  0
  6  5  1  0
  7  6  1  0
  7  8  1  6
  9 10  2  0
  9  7  1  0
 11  5  1  0
 11 12  2  0
 12  2  1  0
 13 14  1  0
 14 24  2  0
 15 14  1  0
 15 16  2  0
 16 17  1  0
 17 23  2  0
 17 18  1  0
 19 18  1  1
 19 20  1  0
 20  9  1  0
 21 19  1  0
 21 30  1  0
 22 21  2  0
 24 23  1  0
 26 25  1  6
 26 28  1  0
 27 26  1  0
 29 28  1  6
 29 30  1  0
 29 31  1  0
 31 33  2  0
 31 32  1  0
M  END
$$$$
