VMY.pdb
     RDKit          3D

 28 28  0  0  1  0  0  0  0  0999 V2000
   25.4212  -18.9187  -15.5185 C   0  0  0  0  0  0  0  0  0  0  0  0
   26.6447  -18.3926  -14.8470 C   0  0  2  0  0  0  0  0  0  0  0  0
   27.3147  -17.3812  -15.7702 C   0  0  0  0  0  0  0  0  0  0  0  0
   27.6729  -19.4393  -14.5162 C   0  0  2  0  0  0  0  0  0  0  0  0
   28.0680  -20.1580  -15.7146 N   0  0  0  0  0  0  0  0  0  0  0  0
   27.2489  -20.3914  -13.4887 C   0  0  0  0  0  0  0  0  0  0  0  0
   26.9582  -21.5769  -13.7913 O   0  0  0  0  0  0  0  0  0  0  0  0
   27.0121  -18.9650   -6.9684 C   0  0  0  0  0  0  0  0  0  0  0  0
   26.8642  -20.7526   -6.9897 S   0  0  0  0  0  0  0  0  0  0  0  0
   26.5422  -21.3653   -8.6466 C   0  0  0  0  0  0  0  0  0  0  0  0
   26.9891  -20.4522   -9.7231 C   0  0  0  0  0  0  0  0  0  0  0  0
   26.7123  -20.9780  -11.1005 C   0  0  2  0  0  0  0  0  0  0  0  0
   27.1376  -20.0486  -12.0981 N   0  0  0  0  0  0  0  0  0  0  0  0
   25.2821  -21.3467  -11.2135 C   0  0  0  0  0  0  0  0  0  0  0  0
   24.7501  -22.2300  -10.4973 O   0  0  0  0  0  0  0  0  0  0  0  0
   16.6558  -20.4864  -12.3016 O   0  0  0  0  0  0  0  0  0  0  0  0
   18.0295  -20.3620  -12.1144 C   0  0  0  0  0  0  0  0  0  0  0  0
   18.6699  -20.9300  -11.0372 C   0  0  0  0  0  0  0  0  0  0  0  0
   20.0351  -20.7871  -10.8817 C   0  0  0  0  0  0  0  0  0  0  0  0
   20.8197  -20.0809  -11.7789 C   0  0  0  0  0  0  0  0  0  0  0  0
   22.2747  -19.9482  -11.5777 C   0  0  0  0  0  0  0  0  0  0  0  0
   23.0605  -20.9581  -12.3610 C   0  0  2  0  0  0  0  0  0  0  0  0
   24.4853  -20.6805  -12.1624 N   0  0  0  0  0  0  0  0  0  0  0  0
   22.7344  -21.0164  -13.7925 C   0  0  0  0  0  0  0  0  0  0  0  0
   23.3905  -20.3060  -14.5922 O   0  0  0  0  0  0  0  0  0  0  0  0
   20.1662  -19.5114  -12.8623 C   0  0  0  0  0  0  0  0  0  0  0  0
   18.8038  -19.6534  -13.0186 C   0  0  0  0  0  0  0  0  0  0  0  0
   21.7342  -21.8217  -14.3022 O   0  0  0  0  0  0  0  0  0  0  0  0
  2  1  1  6
  2  3  1  0
  4  2  1  0
  4  5  1  6
  6  4  1  0
  6  7  2  0
  9  8  1  0
 10 11  1  0
 10  9  1  0
 12 11  1  1
 13 12  1  0
 13  6  1  0
 14 15  2  0
 14 12  1  0
 16 17  1  0
 17 18  2  0
 18 19  1  0
 20 21  1  0
 20 19  2  0
 22 21  1  1
 22 23  1  0
 22 24  1  0
 23 14  1  0
 24 25  2  0
 24 28  1  0
 26 20  1  0
 27 26  2  0
 27 17  1  0
M  END
$$$$
