VMY.pdb
     RDKit          3D

 28 28  0  0  1  0  0  0  0  0999 V2000
   26.2944  -18.8114  -16.0658 C   0  0  0  0  0  0  0  0  0  0  0  0
   27.5389  -18.8698  -15.2456 C   0  0  2  0  0  0  0  0  0  0  0  0
   28.7035  -18.3547  -16.0837 C   0  0  0  0  0  0  0  0  0  0  0  0
   27.9094  -20.2486  -14.7726 C   0  0  2  0  0  0  0  0  0  0  0  0
   28.1904  -21.1141  -15.9043 N   0  0  0  0  0  0  0  0  0  0  0  0
   26.9063  -20.8756  -13.9108 C   0  0  0  0  0  0  0  0  0  0  0  0
   26.1086  -21.7323  -14.3704 O   0  0  0  0  0  0  0  0  0  0  0  0
   26.3573  -20.5097   -7.2454 C   0  0  0  0  0  0  0  0  0  0  0  0
   27.6737  -21.3065   -8.1673 S   0  0  0  0  0  0  0  0  0  0  0  0
   27.2233  -21.5356   -9.8904 C   0  0  0  0  0  0  0  0  0  0  0  0
   25.9450  -20.8914  -10.2688 C   0  0  0  0  0  0  0  0  0  0  0  0
   25.6445  -20.9848  -11.7356 C   0  0  2  0  0  0  0  0  0  0  0  0
   26.7652  -20.5652  -12.5152 N   0  0  0  0  0  0  0  0  0  0  0  0
   24.4047  -20.2327  -12.0377 C   0  0  0  0  0  0  0  0  0  0  0  0
   24.4042  -19.0089  -12.3177 O   0  0  0  0  0  0  0  0  0  0  0  0
   18.2273  -18.7613  -17.6828 O   0  0  0  0  0  0  0  0  0  0  0  0
   19.2498  -19.1971  -16.8449 C   0  0  0  0  0  0  0  0  0  0  0  0
   19.4032  -20.5242  -16.5160 C   0  0  0  0  0  0  0  0  0  0  0  0
   20.4295  -20.9226  -15.6814 C   0  0  0  0  0  0  0  0  0  0  0  0
   21.3414  -20.0312  -15.1401 C   0  0  0  0  0  0  0  0  0  0  0  0
   22.4227  -20.4944  -14.2507 C   0  0  0  0  0  0  0  0  0  0  0  0
   22.0118  -20.5224  -12.8080 C   0  0  2  0  0  0  0  0  0  0  0  0
   23.1756  -20.9167  -12.0101 N   0  0  0  0  0  0  0  0  0  0  0  0
   20.8595  -21.3850  -12.5125 C   0  0  0  0  0  0  0  0  0  0  0  0
   19.7546  -20.8506  -12.2511 O   0  0  0  0  0  0  0  0  0  0  0  0
   21.1797  -18.6949  -15.4768 C   0  0  0  0  0  0  0  0  0  0  0  0
   20.1560  -18.2961  -16.3097 C   0  0  0  0  0  0  0  0  0  0  0  0
   20.9359  -22.7644  -12.5096 O   0  0  0  0  0  0  0  0  0  0  0  0
  2  1  1  6
  2  3  1  0
  4  2  1  0
  4  5  1  6
  6  4  1  0
  6  7  2  0
  9  8  1  0
 10 11  1  0
 10  9  1  0
 12 11  1  1
 13 12  1  0
 13  6  1  0
 14 15  2  0
 14 12  1  0
 16 17  1  0
 17 18  2  0
 18 19  1  0
 20 21  1  0
 20 19  2  0
 22 21  1  6
 22 23  1  0
 22 24  1  0
 23 14  1  0
 24 25  2  0
 24 28  1  0
 26 20  1  0
 27 26  2  0
 27 17  1  0
M  END
$$$$
