VMY.pdb
     RDKit          3D

 28 28  0  0  1  0  0  0  0  0999 V2000
   19.9433   -7.2995  -21.1410 C   0  0  0  0  0  0  0  0  0  0  0  0
   20.9800   -8.3455  -21.3774 C   0  0  2  0  0  0  0  0  0  0  0  0
   20.9857   -8.7047  -22.8589 C   0  0  0  0  0  0  0  0  0  0  0  0
   20.7624   -9.6225  -20.6129 C   0  0  2  0  0  0  0  0  0  0  0  0
   19.5437  -10.2765  -21.0553 N   0  0  0  0  0  0  0  0  0  0  0  0
   20.7298   -9.4521  -19.1597 C   0  0  0  0  0  0  0  0  0  0  0  0
   19.6423   -9.5038  -18.5304 O   0  0  0  0  0  0  0  0  0  0  0  0
   23.2847  -11.0255  -12.0933 C   0  0  0  0  0  0  0  0  0  0  0  0
   23.4885  -11.1936  -13.8675 S   0  0  0  0  0  0  0  0  0  0  0  0
   22.5648   -9.9366  -14.7568 C   0  0  0  0  0  0  0  0  0  0  0  0
   22.6288  -10.0723  -16.2298 C   0  0  0  0  0  0  0  0  0  0  0  0
   21.8651   -9.0059  -16.9579 C   0  0  2  0  0  0  0  0  0  0  0  0
   21.9069   -9.2199  -18.3694 N   0  0  0  0  0  0  0  0  0  0  0  0
   22.3644   -7.6719  -16.5516 C   0  0  0  0  0  0  0  0  0  0  0  0
   23.4366   -7.1863  -16.9882 O   0  0  0  0  0  0  0  0  0  0  0  0
   22.4178   -3.6500  -21.3007 O   0  0  0  0  0  0  0  0  0  0  0  0
   22.0800   -3.8868  -19.9713 C   0  0  0  0  0  0  0  0  0  0  0  0
   21.0500   -4.7299  -19.6228 C   0  0  0  0  0  0  0  0  0  0  0  0
   20.7413   -4.9426  -18.2932 C   0  0  0  0  0  0  0  0  0  0  0  0
   21.4335   -4.3346  -17.2586 C   0  0  0  0  0  0  0  0  0  0  0  0
   21.0727   -4.5848  -15.8507 C   0  0  0  0  0  0  0  0  0  0  0  0
   21.9852   -5.5743  -15.1879 C   0  0  2  0  0  0  0  0  0  0  0  0
   21.6068   -6.9162  -15.6383 N   0  0  0  0  0  0  0  0  0  0  0  0
   22.0088   -5.5033  -13.7204 C   0  0  0  0  0  0  0  0  0  0  0  0
   21.6770   -6.5175  -13.0600 O   0  0  0  0  0  0  0  0  0  0  0  0
   22.4706   -3.4860  -17.6186 C   0  0  0  0  0  0  0  0  0  0  0  0
   22.7797   -3.2730  -18.9451 C   0  0  0  0  0  0  0  0  0  0  0  0
   22.3817   -4.3663  -13.0299 O   0  0  0  0  0  0  0  0  0  0  0  0
  2  1  1  6
  2  3  1  0
  4  2  1  0
  4  5  1  6
  6  4  1  0
  6  7  2  0
  9  8  1  0
 10 11  1  0
 10  9  1  0
 12 11  1  1
 13 12  1  0
 13  6  1  0
 14 15  2  0
 14 12  1  0
 16 17  1  0
 17 18  2  0
 18 19  1  0
 20 21  1  0
 20 19  2  0
 22 21  1  1
 22 23  1  0
 22 24  1  0
 23 14  1  0
 24 25  2  0
 24 28  1  0
 26 20  1  0
 27 26  2  0
 27 17  1  0
M  END
$$$$
