VMY.pdb
     RDKit          3D

 28 28  0  0  1  0  0  0  0  0999 V2000
   29.8260  -15.2763  -17.1471 C   0  0  0  0  0  0  0  0  0  0  0  0
   29.8469  -13.8191  -16.8295 C   0  0  2  0  0  0  0  0  0  0  0  0
   28.4668  -13.4057  -16.3310 C   0  0  0  0  0  0  0  0  0  0  0  0
   30.1801  -12.9315  -17.9972 C   0  0  2  0  0  0  0  0  0  0  0  0
   31.4110  -13.3693  -18.6313 N   0  0  0  0  0  0  0  0  0  0  0  0
   30.2784  -11.5107  -17.6603 C   0  0  0  0  0  0  0  0  0  0  0  0
   29.3119  -10.9077  -17.1275 O   0  0  0  0  0  0  0  0  0  0  0  0
   35.1672   -7.2657  -15.2791 C   0  0  0  0  0  0  0  0  0  0  0  0
   35.0498   -9.0317  -15.5709 S   0  0  0  0  0  0  0  0  0  0  0  0
   33.3817   -9.5119  -16.0305 C   0  0  0  0  0  0  0  0  0  0  0  0
   32.9033   -8.8953  -17.2887 C   0  0  0  0  0  0  0  0  0  0  0  0
   31.5142   -9.3179  -17.6662 C   0  0  2  0  0  0  0  0  0  0  0  0
   31.4550  -10.7243  -17.9074 N   0  0  0  0  0  0  0  0  0  0  0  0
   31.0416   -8.5056  -18.8112 C   0  0  0  0  0  0  0  0  0  0  0  0
   31.2670   -8.8199  -20.0055 O   0  0  0  0  0  0  0  0  0  0  0  0
   26.1418   -4.4585  -24.5270 O   0  0  0  0  0  0  0  0  0  0  0  0
   26.7812   -5.1680  -23.5144 C   0  0  0  0  0  0  0  0  0  0  0  0
   26.1730   -5.4149  -22.3052 C   0  0  0  0  0  0  0  0  0  0  0  0
   26.8364   -6.1227  -21.3217 C   0  0  0  0  0  0  0  0  0  0  0  0
   28.1210   -6.6129  -21.4910 C   0  0  0  0  0  0  0  0  0  0  0  0
   28.7977   -7.3625  -20.4163 C   0  0  0  0  0  0  0  0  0  0  0  0
   29.7151   -6.5003  -19.6002 C   0  0  2  0  0  0  0  0  0  0  0  0
   30.3096   -7.3327  -18.5512 N   0  0  0  0  0  0  0  0  0  0  0  0
   29.0855   -5.3043  -19.0237 C   0  0  0  0  0  0  0  0  0  0  0  0
   28.8752   -5.2674  -17.7872 O   0  0  0  0  0  0  0  0  0  0  0  0
   28.7271   -6.3596  -22.7133 C   0  0  0  0  0  0  0  0  0  0  0  0
   28.0660   -5.6535  -23.6956 C   0  0  0  0  0  0  0  0  0  0  0  0
   28.7129   -4.2122  -19.7835 O   0  0  0  0  0  0  0  0  0  0  0  0
  2  1  1  6
  2  3  1  0
  4  2  1  0
  4  5  1  1
  6  4  1  0
  6  7  2  0
  9  8  1  0
 10 11  1  0
 10  9  1  0
 12 11  1  6
 13 12  1  0
 13  6  1  0
 14 15  2  0
 14 12  1  0
 16 17  1  0
 17 18  2  0
 18 19  1  0
 20 21  1  0
 20 19  2  0
 22 21  1  1
 22 23  1  0
 22 24  1  0
 23 14  1  0
 24 25  2  0
 24 28  1  0
 26 20  1  0
 27 26  2  0
 27 17  1  0
M  END
$$$$
