VMY.pdb
     RDKit          3D

 28 28  0  0  1  0  0  0  0  0999 V2000
   17.3365  -11.2187  -17.5671 C   0  0  0  0  0  0  0  0  0  0  0  0
   17.5921  -10.8002  -16.1584 C   0  0  2  0  0  0  0  0  0  0  0  0
   16.4638   -9.8796  -15.7076 C   0  0  0  0  0  0  0  0  0  0  0  0
   18.8815  -10.0531  -15.9545 C   0  0  2  0  0  0  0  0  0  0  0  0
   20.0163  -10.9148  -16.2352 N   0  0  0  0  0  0  0  0  0  0  0  0
   19.0282   -9.4644  -14.6226 C   0  0  0  0  0  0  0  0  0  0  0  0
   19.2917  -10.1852  -13.6264 O   0  0  0  0  0  0  0  0  0  0  0  0
   21.7213   -3.8898  -14.4587 C   0  0  0  0  0  0  0  0  0  0  0  0
   22.2518   -5.0833  -13.2291 S   0  0  0  0  0  0  0  0  0  0  0  0
   21.2135   -6.5482  -13.2449 C   0  0  0  0  0  0  0  0  0  0  0  0
   19.7780   -6.2707  -13.0112 C   0  0  0  0  0  0  0  0  0  0  0  0
   18.9214   -7.5016  -13.0505 C   0  0  2  0  0  0  0  0  0  0  0  0
   18.8855   -8.0583  -14.3653 N   0  0  0  0  0  0  0  0  0  0  0  0
   17.5786   -7.1900  -12.5082 C   0  0  0  0  0  0  0  0  0  0  0  0
   16.6539   -6.7185  -13.2144 O   0  0  0  0  0  0  0  0  0  0  0  0
   11.1834   -6.6973   -6.3421 O   0  0  0  0  0  0  0  0  0  0  0  0
   12.3434   -6.9893   -7.0537 C   0  0  0  0  0  0  0  0  0  0  0  0
   12.3742   -7.9646   -8.0237 C   0  0  0  0  0  0  0  0  0  0  0  0
   13.5429   -8.2288   -8.7113 C   0  0  0  0  0  0  0  0  0  0  0  0
   14.7230   -7.5443   -8.4704 C   0  0  0  0  0  0  0  0  0  0  0  0
   15.9517   -7.8566   -9.2237 C   0  0  0  0  0  0  0  0  0  0  0  0
   16.0949   -7.0260  -10.4649 C   0  0  2  0  0  0  0  0  0  0  0  0
   17.3274   -7.4319  -11.1453 N   0  0  0  0  0  0  0  0  0  0  0  0
   16.0766   -5.5741  -10.2398 C   0  0  0  0  0  0  0  0  0  0  0  0
   17.1398   -5.0009   -9.8996 O   0  0  0  0  0  0  0  0  0  0  0  0
   14.6833   -6.5624   -7.4908 C   0  0  0  0  0  0  0  0  0  0  0  0
   13.5177   -6.2978   -6.8040 C   0  0  0  0  0  0  0  0  0  0  0  0
   14.9376   -4.8061  -10.3867 O   0  0  0  0  0  0  0  0  0  0  0  0
  2  1  1  6
  2  3  1  0
  4  2  1  0
  4  5  1  1
  6  4  1  0
  6  7  2  0
  9  8  1  0
 10 11  1  0
 10  9  1  0
 12 11  1  6
 13 12  1  0
 13  6  1  0
 14 15  2  0
 14 12  1  0
 16 17  1  0
 17 18  2  0
 18 19  1  0
 20 21  1  0
 20 19  2  0
 22 21  1  1
 22 23  1  0
 22 24  1  0
 23 14  1  0
 24 25  2  0
 24 28  1  0
 26 20  1  0
 27 26  2  0
 27 17  1  0
M  END
$$$$
