VMY.pdb
     RDKit          3D

 28 28  0  0  1  0  0  0  0  0999 V2000
   25.1034  -32.9540  -10.4191 C   0  0  0  0  0  0  0  0  0  0  0  0
   24.4542  -33.4059   -9.1545 C   0  0  2  0  0  0  0  0  0  0  0  0
   23.4292  -32.3610   -8.7285 C   0  0  0  0  0  0  0  0  0  0  0  0
   25.4007  -33.5938   -8.0008 C   0  0  2  0  0  0  0  0  0  0  0  0
   26.4241  -34.5673   -8.3383 N   0  0  0  0  0  0  0  0  0  0  0  0
   24.7489  -33.9792   -6.7483 C   0  0  0  0  0  0  0  0  0  0  0  0
   24.8890  -35.1382   -6.2806 O   0  0  0  0  0  0  0  0  0  0  0  0
   26.4235  -31.7035   -0.4934 C   0  0  0  0  0  0  0  0  0  0  0  0
   26.1284  -33.0687   -1.6190 S   0  0  0  0  0  0  0  0  0  0  0  0
   24.9437  -32.6249   -2.8932 C   0  0  0  0  0  0  0  0  0  0  0  0
   24.5236  -33.7603   -3.7458 C   0  0  0  0  0  0  0  0  0  0  0  0
   23.4125  -33.4129   -4.6919 C   0  0  2  0  0  0  0  0  0  0  0  0
   23.9246  -33.0846   -5.9841 N   0  0  0  0  0  0  0  0  0  0  0  0
   22.5751  -32.3422   -4.1031 C   0  0  0  0  0  0  0  0  0  0  0  0
   22.7951  -31.1221   -4.3008 O   0  0  0  0  0  0  0  0  0  0  0  0
   18.1382  -26.3837   -0.1204 O   0  0  0  0  0  0  0  0  0  0  0  0
   18.9263  -27.4229   -0.6067 C   0  0  0  0  0  0  0  0  0  0  0  0
   18.8402  -28.6986   -0.0984 C   0  0  0  0  0  0  0  0  0  0  0  0
   19.6373  -29.7070   -0.6043 C   0  0  0  0  0  0  0  0  0  0  0  0
   20.5476  -29.4981   -1.6276 C   0  0  0  0  0  0  0  0  0  0  0  0
   21.3833  -30.5999   -2.1400 C   0  0  0  0  0  0  0  0  0  0  0  0
   20.5697  -31.7373   -2.6833 C   0  0  2  0  0  0  0  0  0  0  0  0
   21.4875  -32.7060   -3.2882 N   0  0  0  0  0  0  0  0  0  0  0  0
   19.5220  -31.3452   -3.6361 C   0  0  0  0  0  0  0  0  0  0  0  0
   18.4161  -30.9523   -3.1918 O   0  0  0  0  0  0  0  0  0  0  0  0
   20.6281  -28.2090   -2.1345 C   0  0  0  0  0  0  0  0  0  0  0  0
   19.8330  -27.2018   -1.6305 C   0  0  0  0  0  0  0  0  0  0  0  0
   19.6988  -31.3883   -5.0056 O   0  0  0  0  0  0  0  0  0  0  0  0
  2  1  1  6
  2  3  1  0
  4  2  1  0
  4  5  1  6
  6  4  1  0
  6  7  2  0
  9  8  1  0
 10 11  1  0
 10  9  1  0
 12 11  1  1
 13 12  1  0
 13  6  1  0
 14 15  2  0
 14 12  1  0
 16 17  1  0
 17 18  2  0
 18 19  1  0
 20 21  1  0
 20 19  2  0
 22 21  1  6
 22 23  1  0
 22 24  1  0
 23 14  1  0
 24 25  2  0
 24 28  1  0
 26 20  1  0
 27 26  2  0
 27 17  1  0
M  END
$$$$
