VMY.pdb
     RDKit          3D

 28 28  0  0  1  0  0  0  0  0999 V2000
   26.1516  -18.6331  -15.7968 C   0  0  0  0  0  0  0  0  0  0  0  0
   27.4299  -18.7697  -15.0403 C   0  0  2  0  0  0  0  0  0  0  0  0
   28.5590  -18.1737  -15.8732 C   0  0  0  0  0  0  0  0  0  0  0  0
   27.8162  -20.1878  -14.7207 C   0  0  2  0  0  0  0  0  0  0  0  0
   27.8927  -20.9784  -15.9364 N   0  0  0  0  0  0  0  0  0  0  0  0
   26.9311  -20.8473  -13.7596 C   0  0  0  0  0  0  0  0  0  0  0  0
   26.0426  -21.6480  -14.1480 O   0  0  0  0  0  0  0  0  0  0  0  0
   27.2416  -20.7053   -6.9082 C   0  0  0  0  0  0  0  0  0  0  0  0
   25.5756  -20.2540   -7.3968 S   0  0  0  0  0  0  0  0  0  0  0  0
   25.2117  -20.7974   -9.0690 C   0  0  0  0  0  0  0  0  0  0  0  0
   26.2555  -20.4426  -10.0575 C   0  0  0  0  0  0  0  0  0  0  0  0
   25.9141  -20.8605  -11.4572 C   0  0  2  0  0  0  0  0  0  0  0  0
   27.0123  -20.6327  -12.3415 N   0  0  0  0  0  0  0  0  0  0  0  0
   24.6659  -20.1881  -11.8861 C   0  0  0  0  0  0  0  0  0  0  0  0
   24.6617  -19.1007  -12.5136 O   0  0  0  0  0  0  0  0  0  0  0  0
   20.9668  -17.6084  -17.9146 O   0  0  0  0  0  0  0  0  0  0  0  0
   21.3883  -18.4743  -16.9095 C   0  0  0  0  0  0  0  0  0  0  0  0
   22.5561  -18.2645  -16.2129 C   0  0  0  0  0  0  0  0  0  0  0  0
   22.9450  -19.1439  -15.2210 C   0  0  0  0  0  0  0  0  0  0  0  0
   22.2006  -20.2609  -14.8784 C   0  0  0  0  0  0  0  0  0  0  0  0
   22.6499  -21.1784  -13.8149 C   0  0  0  0  0  0  0  0  0  0  0  0
   22.2542  -20.7123  -12.4448 C   0  0  2  0  0  0  0  0  0  0  0  0
   23.4330  -20.7916  -11.5782 N   0  0  0  0  0  0  0  0  0  0  0  0
   21.1206  -21.4352  -11.8518 C   0  0  0  0  0  0  0  0  0  0  0  0
   20.0222  -21.4407  -12.4586 O   0  0  0  0  0  0  0  0  0  0  0  0
   21.0244  -20.4651  -15.5856 C   0  0  0  0  0  0  0  0  0  0  0  0
   20.6351  -19.5881  -16.5756 C   0  0  0  0  0  0  0  0  0  0  0  0
   21.2082  -22.1133  -10.6513 O   0  0  0  0  0  0  0  0  0  0  0  0
  2  1  1  6
  2  3  1  0
  4  2  1  0
  4  5  1  6
  6  4  1  0
  6  7  2  0
  9  8  1  0
 10 11  1  0
 10  9  1  0
 12 11  1  1
 13 12  1  0
 13  6  1  0
 14 15  2  0
 14 12  1  0
 16 17  1  0
 17 18  2  0
 18 19  1  0
 20 21  1  0
 20 19  2  0
 22 21  1  6
 22 23  1  0
 22 24  1  0
 23 14  1  0
 24 25  2  0
 24 28  1  0
 26 20  1  0
 27 26  2  0
 27 17  1  0
M  END
$$$$
