VMY.pdb
     RDKit          3D

 28 28  0  0  1  0  0  0  0  0999 V2000
   26.2940  -19.4174  -18.1539 C   0  0  0  0  0  0  0  0  0  0  0  0
   26.9372  -20.7474  -18.3592 C   0  0  2  0  0  0  0  0  0  0  0  0
   25.9317  -21.8381  -18.0082 C   0  0  0  0  0  0  0  0  0  0  0  0
   28.1603  -20.9848  -17.5167 C   0  0  2  0  0  0  0  0  0  0  0  0
   29.1347  -19.9292  -17.7293 N   0  0  0  0  0  0  0  0  0  0  0  0
   28.7915  -22.2877  -17.7312 C   0  0  0  0  0  0  0  0  0  0  0  0
   29.7667  -22.4083  -18.5161 O   0  0  0  0  0  0  0  0  0  0  0  0
   32.9128  -27.6840  -18.1935 C   0  0  0  0  0  0  0  0  0  0  0  0
   31.8950  -26.2071  -18.2197 S   0  0  0  0  0  0  0  0  0  0  0  0
   31.2210  -25.8451  -16.5953 C   0  0  0  0  0  0  0  0  0  0  0  0
   30.4304  -24.5945  -16.5371 C   0  0  0  0  0  0  0  0  0  0  0  0
   29.0705  -24.7225  -17.1574 C   0  0  2  0  0  0  0  0  0  0  0  0
   28.3536  -23.4898  -17.0778 N   0  0  0  0  0  0  0  0  0  0  0  0
   28.3494  -25.8614  -16.5433 C   0  0  0  0  0  0  0  0  0  0  0  0
   28.2982  -26.0427  -15.3021 O   0  0  0  0  0  0  0  0  0  0  0  0
   22.6584  -23.7807  -14.5331 O   0  0  0  0  0  0  0  0  0  0  0  0
   23.3531  -24.7744  -15.2167 C   0  0  0  0  0  0  0  0  0  0  0  0
   23.1523  -26.1106  -14.9570 C   0  0  0  0  0  0  0  0  0  0  0  0
   23.8588  -27.0713  -15.6542 C   0  0  0  0  0  0  0  0  0  0  0  0
   24.7880  -26.7535  -16.6314 C   0  0  0  0  0  0  0  0  0  0  0  0
   25.5248  -27.8077  -17.3530 C   0  0  0  0  0  0  0  0  0  0  0  0
   26.9463  -27.9383  -16.8910 C   0  0  2  0  0  0  0  0  0  0  0  0
   27.6943  -26.7792  -17.3845 N   0  0  0  0  0  0  0  0  0  0  0  0
   27.6078  -29.1912  -17.2807 C   0  0  0  0  0  0  0  0  0  0  0  0
   27.1615  -30.2756  -16.8340 O   0  0  0  0  0  0  0  0  0  0  0  0
   24.9845  -25.4039  -16.8872 C   0  0  0  0  0  0  0  0  0  0  0  0
   24.2799  -24.4443  -16.1921 C   0  0  0  0  0  0  0  0  0  0  0  0
   28.7036  -29.2314  -18.1211 O   0  0  0  0  0  0  0  0  0  0  0  0
  2  1  1  1
  2  3  1  0
  4  2  1  0
  4  5  1  6
  6  4  1  0
  6  7  2  0
  9  8  1  0
 10 11  1  0
 10  9  1  0
 12 11  1  1
 13 12  1  0
 13  6  1  0
 14 15  2  0
 14 12  1  0
 16 17  1  0
 17 18  2  0
 18 19  1  0
 20 21  1  0
 20 19  2  0
 22 21  1  6
 22 23  1  0
 22 24  1  0
 23 14  1  0
 24 25  2  0
 24 28  1  0
 26 20  1  0
 27 26  2  0
 27 17  1  0
M  END
$$$$
