VMY.pdb
     RDKit          3D

 28 28  0  0  1  0  0  0  0  0999 V2000
   18.6273  -20.2395  -15.0370 C   0  0  0  0  0  0  0  0  0  0  0  0
   18.9157  -21.0248  -13.8021 C   0  0  2  0  0  0  0  0  0  0  0  0
   17.9766  -20.5602  -12.6948 C   0  0  0  0  0  0  0  0  0  0  0  0
   20.3197  -20.8767  -13.2832 C   0  0  2  0  0  0  0  0  0  0  0  0
   21.2791  -21.2856  -14.2937 N   0  0  0  0  0  0  0  0  0  0  0  0
   20.5773  -21.6015  -12.0381 C   0  0  0  0  0  0  0  0  0  0  0  0
   20.4780  -22.8543  -11.9910 O   0  0  0  0  0  0  0  0  0  0  0  0
   26.4419  -20.4903   -9.0509 C   0  0  0  0  0  0  0  0  0  0  0  0
   24.8147  -20.2868   -8.3239 S   0  0  0  0  0  0  0  0  0  0  0  0
   23.5582  -21.1478   -9.2747 C   0  0  0  0  0  0  0  0  0  0  0  0
   22.1865  -20.9914   -8.7397 C   0  0  0  0  0  0  0  0  0  0  0  0
   21.1402  -21.6552   -9.5853 C   0  0  2  0  0  0  0  0  0  0  0  0
   20.9521  -20.9507  -10.8134 N   0  0  0  0  0  0  0  0  0  0  0  0
   19.8931  -21.8113   -8.8014 C   0  0  0  0  0  0  0  0  0  0  0  0
   18.9164  -21.0312   -8.9170 O   0  0  0  0  0  0  0  0  0  0  0  0
   12.5797  -25.1123   -5.8413 O   0  0  0  0  0  0  0  0  0  0  0  0
   13.7811  -24.7084   -6.4167 C   0  0  0  0  0  0  0  0  0  0  0  0
   14.7690  -25.6089   -6.7427 C   0  0  0  0  0  0  0  0  0  0  0  0
   15.9497  -25.1740   -7.3128 C   0  0  0  0  0  0  0  0  0  0  0  0
   16.2021  -23.8388   -7.5827 C   0  0  0  0  0  0  0  0  0  0  0  0
   17.4765  -23.4125   -8.1903 C   0  0  0  0  0  0  0  0  0  0  0  0
   18.5657  -23.2251   -7.1758 C   0  0  2  0  0  0  0  0  0  0  0  0
   19.7977  -22.8776   -7.8887 N   0  0  0  0  0  0  0  0  0  0  0  0
   18.7834  -24.3743   -6.2864 C   0  0  0  0  0  0  0  0  0  0  0  0
   17.8618  -24.7207   -5.5083 O   0  0  0  0  0  0  0  0  0  0  0  0
   15.2008  -22.9373   -7.2510 C   0  0  0  0  0  0  0  0  0  0  0  0
   14.0220  -23.3702   -6.6821 C   0  0  0  0  0  0  0  0  0  0  0  0
   19.9615  -25.0957   -6.2670 O   0  0  0  0  0  0  0  0  0  0  0  0
  2  1  1  6
  2  3  1  0
  4  2  1  0
  4  5  1  6
  6  4  1  0
  6  7  2  0
  9  8  1  0
 10 11  1  0
 10  9  1  0
 12 11  1  1
 13 12  1  0
 13  6  1  0
 14 15  2  0
 14 12  1  0
 16 17  1  0
 17 18  2  0
 18 19  1  0
 20 21  1  0
 20 19  2  0
 22 21  1  6
 22 23  1  0
 22 24  1  0
 23 14  1  0
 24 25  2  0
 24 28  1  0
 26 20  1  0
 27 26  2  0
 27 17  1  0
M  END
$$$$
