VMY.pdb
     RDKit          3D

 28 28  0  0  1  0  0  0  0  0999 V2000
   29.5678  -34.7576  -15.0605 C   0  0  0  0  0  0  0  0  0  0  0  0
   28.6692  -34.0958  -16.0500 C   0  0  2  0  0  0  0  0  0  0  0  0
   29.5249  -33.4333  -17.1236 C   0  0  0  0  0  0  0  0  0  0  0  0
   27.7820  -33.0287  -15.4699 C   0  0  2  0  0  0  0  0  0  0  0  0
   28.5797  -31.9228  -14.9704 N   0  0  0  0  0  0  0  0  0  0  0  0
   26.8848  -33.5039  -14.4157 C   0  0  0  0  0  0  0  0  0  0  0  0
   26.0249  -34.3900  -14.6542 O   0  0  0  0  0  0  0  0  0  0  0  0
   27.5612  -33.1516   -7.4788 C   0  0  0  0  0  0  0  0  0  0  0  0
   25.9432  -32.6003   -8.0227 S   0  0  0  0  0  0  0  0  0  0  0  0
   25.5125  -33.3019   -9.6185 C   0  0  0  0  0  0  0  0  0  0  0  0
   26.3135  -32.7711  -10.7449 C   0  0  0  0  0  0  0  0  0  0  0  0
   26.0242  -33.4502  -12.0509 C   0  0  2  0  0  0  0  0  0  0  0  0
   26.9218  -33.0053  -13.0689 N   0  0  0  0  0  0  0  0  0  0  0  0
   24.5977  -33.2625  -12.4032 C   0  0  0  0  0  0  0  0  0  0  0  0
   24.2141  -32.4300  -13.2611 O   0  0  0  0  0  0  0  0  0  0  0  0
   16.5892  -34.3758  -15.1738 O   0  0  0  0  0  0  0  0  0  0  0  0
   17.9233  -34.3445  -14.7783 C   0  0  0  0  0  0  0  0  0  0  0  0
   18.7969  -33.3895  -15.2450 C   0  0  0  0  0  0  0  0  0  0  0  0
   20.1151  -33.3873  -14.8317 C   0  0  0  0  0  0  0  0  0  0  0  0
   20.6220  -34.3235  -13.9453 C   0  0  0  0  0  0  0  0  0  0  0  0
   22.0364  -34.2901  -13.5290 C   0  0  0  0  0  0  0  0  0  0  0  0
   22.2012  -34.0017  -12.0659 C   0  0  2  0  0  0  0  0  0  0  0  0
   23.6312  -34.0490  -11.7503 N   0  0  0  0  0  0  0  0  0  0  0  0
   21.4400  -34.8872  -11.1740 C   0  0  0  0  0  0  0  0  0  0  0  0
   22.0313  -35.8499  -10.6280 O   0  0  0  0  0  0  0  0  0  0  0  0
   19.7345  -35.2829  -13.4793 C   0  0  0  0  0  0  0  0  0  0  0  0
   18.4188  -35.2860  -13.8909 C   0  0  0  0  0  0  0  0  0  0  0  0
   20.0965  -34.7081  -10.9065 O   0  0  0  0  0  0  0  0  0  0  0  0
  2  1  1  1
  2  3  1  0
  4  2  1  0
  4  5  1  1
  6  4  1  0
  6  7  2  0
  9  8  1  0
 10 11  1  0
 10  9  1  0
 12 11  1  1
 13 12  1  0
 13  6  1  0
 14 15  2  0
 14 12  1  0
 16 17  1  0
 17 18  2  0
 18 19  1  0
 20 21  1  0
 20 19  2  0
 22 21  1  6
 22 23  1  0
 22 24  1  0
 23 14  1  0
 24 25  2  0
 24 28  1  0
 26 20  1  0
 27 26  2  0
 27 17  1  0
M  END
$$$$
