VMY.pdb
     RDKit          3D

 28 28  0  0  1  0  0  0  0  0999 V2000
   21.5621  -12.2654  -17.1546 C   0  0  0  0  0  0  0  0  0  0  0  0
   20.3993  -13.0138  -16.5953 C   0  0  2  0  0  0  0  0  0  0  0  0
   20.0119  -14.1190  -17.5712 C   0  0  0  0  0  0  0  0  0  0  0  0
   19.1716  -12.1760  -16.3650 C   0  0  2  0  0  0  0  0  0  0  0  0
   18.6726  -11.6513  -17.6238 N   0  0  0  0  0  0  0  0  0  0  0  0
   19.3652  -11.0782  -15.4165 C   0  0  0  0  0  0  0  0  0  0  0  0
   19.6351  -11.3105  -14.2104 O   0  0  0  0  0  0  0  0  0  0  0  0
   21.6465   -5.1363  -16.7916 C   0  0  0  0  0  0  0  0  0  0  0  0
   20.6942   -4.7620  -15.3182 S   0  0  0  0  0  0  0  0  0  0  0  0
   20.0567   -6.2552  -14.5513 C   0  0  0  0  0  0  0  0  0  0  0  0
   19.7882   -7.3544  -15.5063 C   0  0  0  0  0  0  0  0  0  0  0  0
   19.3590   -8.6281  -14.8399 C   0  0  2  0  0  0  0  0  0  0  0  0
   19.2637   -9.6937  -15.7861 N   0  0  0  0  0  0  0  0  0  0  0  0
   18.1039   -8.3970  -14.0879 C   0  0  0  0  0  0  0  0  0  0  0  0
   16.9678   -8.5587  -14.5971 O   0  0  0  0  0  0  0  0  0  0  0  0
   13.0840   -6.4708   -7.0123 O   0  0  0  0  0  0  0  0  0  0  0  0
   14.0715   -6.9006   -7.8941 C   0  0  0  0  0  0  0  0  0  0  0  0
   15.2165   -6.1700   -8.1142 C   0  0  0  0  0  0  0  0  0  0  0  0
   16.1768   -6.6259   -8.9963 C   0  0  0  0  0  0  0  0  0  0  0  0
   16.0464   -7.8157   -9.6940 C   0  0  0  0  0  0  0  0  0  0  0  0
   17.0927   -8.2683  -10.6296 C   0  0  0  0  0  0  0  0  0  0  0  0
   17.0250   -7.5677  -11.9545 C   0  0  2  0  0  0  0  0  0  0  0  0
   18.1866   -7.9787  -12.7473 N   0  0  0  0  0  0  0  0  0  0  0  0
   16.9403   -6.1030  -11.8730 C   0  0  0  0  0  0  0  0  0  0  0  0
   15.8347   -5.5480  -12.0839 O   0  0  0  0  0  0  0  0  0  0  0  0
   14.8890   -8.5463   -9.4663 C   0  0  0  0  0  0  0  0  0  0  0  0
   13.9299   -8.0924   -8.5861 C   0  0  0  0  0  0  0  0  0  0  0  0
   18.0266   -5.3039  -11.5727 O   0  0  0  0  0  0  0  0  0  0  0  0
  2  1  1  6
  2  3  1  0
  4  2  1  0
  4  5  1  6
  6  4  1  0
  6  7  2  0
  9  8  1  0
 10 11  1  0
 10  9  1  0
 12 11  1  6
 13 12  1  0
 13  6  1  0
 14 15  2  0
 14 12  1  0
 16 17  1  0
 17 18  2  0
 18 19  1  0
 20 21  1  0
 20 19  2  0
 22 21  1  1
 22 23  1  0
 22 24  1  0
 23 14  1  0
 24 25  2  0
 24 28  1  0
 26 20  1  0
 27 26  2  0
 27 17  1  0
M  END
$$$$
