VMY.pdb
     RDKit          3D

 28 28  0  0  1  0  0  0  0  0999 V2000
   27.5653  -18.0895  -15.1139 C   0  0  0  0  0  0  0  0  0  0  0  0
   27.9995  -19.2682  -15.9182 C   0  0  2  0  0  0  0  0  0  0  0  0
   26.8983  -19.6154  -16.9137 C   0  0  0  0  0  0  0  0  0  0  0  0
   28.2729  -20.5072  -15.1105 C   0  0  2  0  0  0  0  0  0  0  0  0
   28.7247  -21.5848  -15.9727 N   0  0  0  0  0  0  0  0  0  0  0  0
   27.1362  -20.9622  -14.3087 C   0  0  0  0  0  0  0  0  0  0  0  0
   26.3349  -21.8209  -14.7583 O   0  0  0  0  0  0  0  0  0  0  0  0
   29.5720  -21.6905   -8.3333 C   0  0  0  0  0  0  0  0  0  0  0  0
   27.8673  -21.2248   -8.6412 S   0  0  0  0  0  0  0  0  0  0  0  0
   27.4500  -21.3734  -10.3813 C   0  0  0  0  0  0  0  0  0  0  0  0
   26.1076  -20.8516  -10.7248 C   0  0  0  0  0  0  0  0  0  0  0  0
   25.7842  -20.9605  -12.1856 C   0  0  2  0  0  0  0  0  0  0  0  0
   26.8620  -20.4733  -12.9860 N   0  0  0  0  0  0  0  0  0  0  0  0
   24.4958  -20.2835  -12.4612 C   0  0  0  0  0  0  0  0  0  0  0  0
   24.4240  -19.0884  -12.8387 O   0  0  0  0  0  0  0  0  0  0  0  0
   17.2627  -18.5104  -16.6060 O   0  0  0  0  0  0  0  0  0  0  0  0
   18.4558  -18.9392  -16.0314 C   0  0  0  0  0  0  0  0  0  0  0  0
   18.7702  -20.2742  -15.9213 C   0  0  0  0  0  0  0  0  0  0  0  0
   19.9633  -20.6654  -15.3454 C   0  0  0  0  0  0  0  0  0  0  0  0
   20.8901  -19.7588  -14.8570 C   0  0  0  0  0  0  0  0  0  0  0  0
   22.1526  -20.2151  -14.2464 C   0  0  0  0  0  0  0  0  0  0  0  0
   22.0018  -20.5538  -12.7926 C   0  0  2  0  0  0  0  0  0  0  0  0
   23.3020  -21.0085  -12.2932 N   0  0  0  0  0  0  0  0  0  0  0  0
   20.9542  -21.5404  -12.4956 C   0  0  0  0  0  0  0  0  0  0  0  0
   19.8147  -21.1323  -12.1645 O   0  0  0  0  0  0  0  0  0  0  0  0
   20.5655  -18.4147  -14.9719 C   0  0  0  0  0  0  0  0  0  0  0  0
   19.3751  -18.0232  -15.5465 C   0  0  0  0  0  0  0  0  0  0  0  0
   21.1660  -22.9039  -12.5649 O   0  0  0  0  0  0  0  0  0  0  0  0
  2  1  1  1
  2  3  1  0
  4  2  1  0
  4  5  1  6
  6  4  1  0
  6  7  2  0
  9  8  1  0
 10 11  1  0
 10  9  1  0
 12 11  1  1
 13 12  1  0
 13  6  1  0
 14 15  2  0
 14 12  1  0
 16 17  1  0
 17 18  2  0
 18 19  1  0
 20 21  1  0
 20 19  2  0
 22 21  1  6
 22 23  1  0
 22 24  1  0
 23 14  1  0
 24 25  2  0
 24 28  1  0
 26 20  1  0
 27 26  2  0
 27 17  1  0
M  END
$$$$
