VMY.pdb
     RDKit          3D

 28 28  0  0  1  0  0  0  0  0999 V2000
   29.2557  -20.1064  -15.2542 C   0  0  0  0  0  0  0  0  0  0  0  0
   28.2103  -19.5220  -16.1432 C   0  0  2  0  0  0  0  0  0  0  0  0
   28.8229  -18.3673  -16.9276 C   0  0  0  0  0  0  0  0  0  0  0  0
   27.0096  -18.9777  -15.4190 C   0  0  2  0  0  0  0  0  0  0  0  0
   27.3625  -17.7753  -14.6852 N   0  0  0  0  0  0  0  0  0  0  0  0
   26.3703  -19.9356  -14.5157 C   0  0  0  0  0  0  0  0  0  0  0  0
   25.7980  -20.9608  -14.9661 O   0  0  0  0  0  0  0  0  0  0  0  0
   27.0142  -19.9792   -7.9536 C   0  0  0  0  0  0  0  0  0  0  0  0
   25.7105  -21.1928   -8.1665 S   0  0  0  0  0  0  0  0  0  0  0  0
   25.1529  -21.2654   -9.8718 C   0  0  0  0  0  0  0  0  0  0  0  0
   25.9389  -20.4191  -10.7983 C   0  0  0  0  0  0  0  0  0  0  0  0
   25.5154  -20.5554  -12.2309 C   0  0  2  0  0  0  0  0  0  0  0  0
   26.3516  -19.7770  -13.0881 N   0  0  0  0  0  0  0  0  0  0  0  0
   24.0767  -20.2259  -12.3573 C   0  0  0  0  0  0  0  0  0  0  0  0
   23.6122  -19.0940  -12.0759 O   0  0  0  0  0  0  0  0  0  0  0  0
   16.8228  -20.1871  -17.1002 O   0  0  0  0  0  0  0  0  0  0  0  0
   18.0196  -20.1340  -16.3914 C   0  0  0  0  0  0  0  0  0  0  0  0
   19.0224  -21.0550  -16.5894 C   0  0  0  0  0  0  0  0  0  0  0  0
   20.1981  -20.9730  -15.8688 C   0  0  0  0  0  0  0  0  0  0  0  0
   20.4304  -19.9832  -14.9277 C   0  0  0  0  0  0  0  0  0  0  0  0
   21.6981  -19.9299  -14.1760 C   0  0  0  0  0  0  0  0  0  0  0  0
   21.7782  -20.9761  -13.1037 C   0  0  2  0  0  0  0  0  0  0  0  0
   23.1927  -21.2217  -12.8112 N   0  0  0  0  0  0  0  0  0  0  0  0
   21.0838  -22.2328  -13.4163 C   0  0  0  0  0  0  0  0  0  0  0  0
   21.7276  -23.1598  -13.9648 O   0  0  0  0  0  0  0  0  0  0  0  0
   19.4142  -19.0585  -14.7341 C   0  0  0  0  0  0  0  0  0  0  0  0
   18.2406  -19.1392  -15.4527 C   0  0  0  0  0  0  0  0  0  0  0  0
   19.7481  -22.4429  -13.1323 O   0  0  0  0  0  0  0  0  0  0  0  0
  2  1  1  1
  2  3  1  0
  4  2  1  0
  4  5  1  1
  6  4  1  0
  6  7  2  0
  9  8  1  0
 10 11  1  0
 10  9  1  0
 12 11  1  1
 13 12  1  0
 13  6  1  0
 14 15  2  0
 14 12  1  0
 16 17  1  0
 17 18  2  0
 18 19  1  0
 20 21  1  0
 20 19  2  0
 22 21  1  6
 22 23  1  0
 22 24  1  0
 23 14  1  0
 24 25  2  0
 24 28  1  0
 26 20  1  0
 27 26  2  0
 27 17  1  0
M  END
$$$$
