VMY.pdb
     RDKit          3D

 28 28  0  0  1  0  0  0  0  0999 V2000
   29.2257  -22.0737  -14.6318 C   0  0  0  0  0  0  0  0  0  0  0  0
   28.4210  -21.8336  -15.8645 C   0  0  2  0  0  0  0  0  0  0  0  0
   29.2690  -21.0486  -16.8589 C   0  0  0  0  0  0  0  0  0  0  0  0
   27.1586  -21.0470  -15.6412 C   0  0  2  0  0  0  0  0  0  0  0  0
   27.4681  -19.6476  -15.4075 N   0  0  0  0  0  0  0  0  0  0  0  0
   26.3217  -21.5544  -14.5529 C   0  0  0  0  0  0  0  0  0  0  0  0
   25.8176  -22.7049  -14.6122 O   0  0  0  0  0  0  0  0  0  0  0  0
   26.7355  -20.7226   -8.1054 C   0  0  0  0  0  0  0  0  0  0  0  0
   24.9573  -20.6319   -8.3236 S   0  0  0  0  0  0  0  0  0  0  0  0
   24.4733  -21.1229   -9.9816 C   0  0  0  0  0  0  0  0  0  0  0  0
   25.4182  -20.6915  -11.0367 C   0  0  0  0  0  0  0  0  0  0  0  0
   25.0658  -21.2130  -12.3985 C   0  0  2  0  0  0  0  0  0  0  0  0
   26.0246  -20.7943  -13.3707 N   0  0  0  0  0  0  0  0  0  0  0  0
   23.6778  -20.8217  -12.7366 C   0  0  0  0  0  0  0  0  0  0  0  0
   23.2800  -19.6315  -12.7002 O   0  0  0  0  0  0  0  0  0  0  0  0
   15.3866  -22.1178  -15.7181 O   0  0  0  0  0  0  0  0  0  0  0  0
   16.7412  -22.2205  -15.4151 C   0  0  0  0  0  0  0  0  0  0  0  0
   17.6888  -21.4562  -16.0563 C   0  0  0  0  0  0  0  0  0  0  0  0
   19.0253  -21.5833  -15.7310 C   0  0  0  0  0  0  0  0  0  0  0  0
   19.4786  -22.4660  -14.7642 C   0  0  0  0  0  0  0  0  0  0  0  0
   20.9145  -22.5751  -14.4461 C   0  0  0  0  0  0  0  0  0  0  0  0
   21.3605  -21.5612  -13.4342 C   0  0  2  0  0  0  0  0  0  0  0  0
   22.7660  -21.8242  -13.1144 N   0  0  0  0  0  0  0  0  0  0  0  0
   20.5471  -21.5124  -12.2114 C   0  0  0  0  0  0  0  0  0  0  0  0
   20.7415  -22.3742  -11.3203 O   0  0  0  0  0  0  0  0  0  0  0  0
   18.5167  -23.2329  -14.1224 C   0  0  0  0  0  0  0  0  0  0  0  0
   17.1826  -23.1069  -14.4461 C   0  0  0  0  0  0  0  0  0  0  0  0
   19.5733  -20.5564  -11.9955 O   0  0  0  0  0  0  0  0  0  0  0  0
  2  1  1  1
  2  3  1  0
  4  2  1  0
  4  5  1  1
  6  4  1  0
  6  7  2  0
  9  8  1  0
 10 11  1  0
 10  9  1  0
 12 11  1  1
 13 12  1  0
 13  6  1  0
 14 15  2  0
 14 12  1  0
 16 17  1  0
 17 18  2  0
 18 19  1  0
 20 21  1  0
 20 19  2  0
 22 21  1  6
 22 23  1  0
 22 24  1  0
 23 14  1  0
 24 25  2  0
 24 28  1  0
 26 20  1  0
 27 26  2  0
 27 17  1  0
M  END
$$$$
