VMY.pdb
     RDKit          3D

 28 28  0  0  1  0  0  0  0  0999 V2000
   29.5690  -22.8456  -20.1569 C   0  0  0  0  0  0  0  0  0  0  0  0
   29.5923  -23.3655  -18.7590 C   0  0  2  0  0  0  0  0  0  0  0  0
   28.7300  -24.6206  -18.6879 C   0  0  0  0  0  0  0  0  0  0  0  0
   29.0636  -22.4059  -17.7285 C   0  0  2  0  0  0  0  0  0  0  0  0
   29.2423  -22.9475  -16.3930 N   0  0  0  0  0  0  0  0  0  0  0  0
   27.6627  -22.0298  -17.9236 C   0  0  0  0  0  0  0  0  0  0  0  0
   27.2803  -21.5127  -19.0043 O   0  0  0  0  0  0  0  0  0  0  0  0
   23.6038  -23.4909  -21.3156 C   0  0  0  0  0  0  0  0  0  0  0  0
   22.5748  -23.4387  -19.8472 S   0  0  0  0  0  0  0  0  0  0  0  0
   23.2998  -22.4008  -18.5738 C   0  0  0  0  0  0  0  0  0  0  0  0
   24.7101  -22.7271  -18.2625 C   0  0  0  0  0  0  0  0  0  0  0  0
   25.2743  -21.9096  -17.1383 C   0  0  2  0  0  0  0  0  0  0  0  0
   26.6514  -22.2197  -16.9211 N   0  0  0  0  0  0  0  0  0  0  0  0
   24.4361  -22.0818  -15.9293 C   0  0  0  0  0  0  0  0  0  0  0  0
   24.4478  -23.1302  -15.2388 O   0  0  0  0  0  0  0  0  0  0  0  0
   19.6581  -19.1604   -9.0294 O   0  0  0  0  0  0  0  0  0  0  0  0
   20.4181  -19.2736  -10.1900 C   0  0  0  0  0  0  0  0  0  0  0  0
   19.8580  -19.1456  -11.4402 C   0  0  0  0  0  0  0  0  0  0  0  0
   20.6416  -19.2637  -12.5718 C   0  0  0  0  0  0  0  0  0  0  0  0
   22.0034  -19.5119  -12.5154 C   0  0  0  0  0  0  0  0  0  0  0  0
   22.8066  -19.6338  -13.7462 C   0  0  0  0  0  0  0  0  0  0  0  0
   22.8170  -21.0309  -14.2930 C   0  0  2  0  0  0  0  0  0  0  0  0
   23.5910  -21.0277  -15.5370 N   0  0  0  0  0  0  0  0  0  0  0  0
   21.4873  -21.6185  -14.5068 C   0  0  0  0  0  0  0  0  0  0  0  0
   21.0175  -22.3870  -13.6330 O   0  0  0  0  0  0  0  0  0  0  0  0
   22.5603  -19.6396  -11.2509 C   0  0  0  0  0  0  0  0  0  0  0  0
   21.7793  -19.5218  -10.1210 C   0  0  0  0  0  0  0  0  0  0  0  0
   20.7256  -21.3626  -15.6306 O   0  0  0  0  0  0  0  0  0  0  0  0
  2  1  1  6
  2  3  1  0
  4  2  1  0
  4  5  1  1
  6  4  1  0
  6  7  2  0
  9  8  1  0
 10 11  1  0
 10  9  1  0
 12 11  1  6
 13 12  1  0
 13  6  1  0
 14 15  2  0
 14 12  1  0
 16 17  1  0
 17 18  2  0
 18 19  1  0
 20 21  1  0
 20 19  2  0
 22 21  1  6
 22 23  1  0
 22 24  1  0
 23 14  1  0
 24 25  2  0
 24 28  1  0
 26 20  1  0
 27 26  2  0
 27 17  1  0
M  END
$$$$
