VMY.pdb
     RDKit          3D

 28 28  0  0  1  0  0  0  0  0999 V2000
   26.8752  -19.6997  -19.1563 C   0  0  0  0  0  0  0  0  0  0  0  0
   25.8673  -20.4553  -18.3574 C   0  0  2  0  0  0  0  0  0  0  0  0
   24.8446  -21.0656  -19.3090 C   0  0  0  0  0  0  0  0  0  0  0  0
   25.1058  -19.6202  -17.3650 C   0  0  2  0  0  0  0  0  0  0  0  0
   25.9038  -18.4833  -16.9413 N   0  0  0  0  0  0  0  0  0  0  0  0
   24.6416  -20.3605  -16.1909 C   0  0  0  0  0  0  0  0  0  0  0  0
   23.8661  -21.3427  -16.3153 O   0  0  0  0  0  0  0  0  0  0  0  0
   25.1213  -21.5688   -8.3545 C   0  0  0  0  0  0  0  0  0  0  0  0
   25.6950  -20.6154   -9.7614 S   0  0  0  0  0  0  0  0  0  0  0  0
   24.7873  -21.0347  -11.2529 C   0  0  0  0  0  0  0  0  0  0  0  0
   25.2849  -20.3556  -12.4709 C   0  0  0  0  0  0  0  0  0  0  0  0
   24.4856  -20.6778  -13.6988 C   0  0  2  0  0  0  0  0  0  0  0  0
   25.0286  -20.0269  -14.8483 N   0  0  0  0  0  0  0  0  0  0  0  0
   23.0592  -20.3567  -13.4616 C   0  0  0  0  0  0  0  0  0  0  0  0
   22.6684  -19.2141  -13.1185 O   0  0  0  0  0  0  0  0  0  0  0  0
   18.6233  -17.5179  -18.2733 O   0  0  0  0  0  0  0  0  0  0  0  0
   18.9536  -18.5381  -17.3859 C   0  0  0  0  0  0  0  0  0  0  0  0
   20.0039  -19.3949  -17.6229 C   0  0  0  0  0  0  0  0  0  0  0  0
   20.3046  -20.3970  -16.7208 C   0  0  0  0  0  0  0  0  0  0  0  0
   19.5841  -20.5933  -15.5540 C   0  0  0  0  0  0  0  0  0  0  0  0
   19.9341  -21.6762  -14.6160 C   0  0  0  0  0  0  0  0  0  0  0  0
   20.6661  -21.1773  -13.4052 C   0  0  2  0  0  0  0  0  0  0  0  0
   22.1010  -21.3735  -13.6271 N   0  0  0  0  0  0  0  0  0  0  0  0
   20.2456  -21.7877  -12.1364 C   0  0  0  0  0  0  0  0  0  0  0  0
   20.8779  -22.7818  -11.7042 O   0  0  0  0  0  0  0  0  0  0  0  0
   18.5267  -19.7251  -15.3226 C   0  0  0  0  0  0  0  0  0  0  0  0
   18.2257  -18.7245  -16.2220 C   0  0  0  0  0  0  0  0  0  0  0  0
   19.1814  -21.3155  -11.3927 O   0  0  0  0  0  0  0  0  0  0  0  0
  2  1  1  6
  2  3  1  0
  4  2  1  0
  4  5  1  1
  6  4  1  0
  6  7  2  0
  9  8  1  0
 10 11  1  0
 10  9  1  0
 12 11  1  1
 13 12  1  0
 13  6  1  0
 14 15  2  0
 14 12  1  0
 16 17  1  0
 17 18  2  0
 18 19  1  0
 20 21  1  0
 20 19  2  0
 22 21  1  6
 22 23  1  0
 22 24  1  0
 23 14  1  0
 24 25  2  0
 24 28  1  0
 26 20  1  0
 27 26  2  0
 27 17  1  0
M  END
$$$$
