FHK.pdb
     RDKit          3D

 31 32  0  0  1  0  0  0  0  0999 V2000
   27.2263   -8.8673  -16.6533 N   0  0  0  0  0  0  0  0  0  0  0  0
   25.9005   -9.4480  -16.5409 C   0  0  1  0  0  0  0  0  0  0  0  0
   26.0499  -10.5942  -15.5305 C   0  0  0  0  0  0  0  0  0  0  0  0
   26.7672  -11.7365  -16.1359 C   0  0  0  0  0  0  0  0  0  0  0  0
   26.1017  -12.6344  -16.9506 C   0  0  0  0  0  0  0  0  0  0  0  0
   26.7673  -13.7000  -17.5189 C   0  0  0  0  0  0  0  0  0  0  0  0
   28.1129  -13.9066  -17.2959 C   0  0  0  0  0  0  0  0  0  0  0  0
   28.7738  -13.0075  -16.4815 C   0  0  0  0  0  0  0  0  0  0  0  0
   28.1114  -11.9217  -15.8981 C   0  0  0  0  0  0  0  0  0  0  0  0
   25.0315   -8.4369  -15.8743 C   0  0  0  0  0  0  0  0  0  0  0  0
   25.4681   -7.6304  -15.0175 O   0  0  0  0  0  0  0  0  0  0  0  0
   23.6264   -8.3308  -16.1829 N   0  0  0  0  0  0  0  0  0  0  0  0
   22.8502   -7.2589  -15.6653 C   0  0  1  0  0  0  0  0  0  0  0  0
   23.4417   -5.9030  -15.7311 C   0  0  0  0  0  0  0  0  0  0  0  0
   22.6411   -4.7899  -15.2365 C   0  0  0  0  0  0  0  0  0  0  0  0
   22.3004   -4.3360  -14.0047 C   0  0  0  0  0  0  0  0  0  0  0  0
   21.5347   -3.2223  -14.1463 N   0  0  0  0  0  0  0  0  0  0  0  0
   21.4045   -2.9912  -15.4454 C   0  0  0  0  0  0  0  0  0  0  0  0
   22.0591   -3.9173  -16.1201 N   0  0  0  0  0  0  0  0  0  0  0  0
   21.4605   -7.2900  -16.2501 C   0  0  0  0  0  0  0  0  0  0  0  0
   21.3679   -7.2859  -17.4971 O   0  0  0  0  0  0  0  0  0  0  0  0
   20.3123   -7.3214  -15.4619 N   0  0  0  0  0  0  0  0  0  0  0  0
   18.9164   -7.2560  -16.0940 C   0  0  1  0  0  0  0  0  0  0  0  0
   18.2582   -8.4949  -15.7313 C   0  0  0  0  0  0  0  0  0  0  0  0
   16.8693   -8.8865  -15.7537 C   0  0  0  0  0  0  0  0  0  0  0  0
   16.3014  -10.1273  -16.2497 C   0  0  0  0  0  0  0  0  0  0  0  0
   14.8654  -10.4430  -16.2598 C   0  0  0  0  0  0  0  0  0  0  0  0
   14.5455  -11.7304  -16.8438 N   0  0  0  0  0  0  0  0  0  0  0  0
   18.4079   -5.9306  -15.8426 C   0  0  0  0  0  0  0  0  0  0  0  0
   18.7218   -5.1490  -14.9325 O   0  0  0  0  0  0  0  0  0  0  0  0
   17.4227   -5.4204  -16.7269 O   0  0  0  0  0  0  0  0  0  0  0  0
  2  1  1  1
  2  3  1  0
  3  4  1  0
  4  9  1  0
  4  5  2  0
  5  6  1  0
  6  7  2  0
  8  7  1  0
  9  8  2  0
 10  2  1  0
 10 12  1  0
 11 10  2  0
 13 12  1  0
 13 14  1  6
 15 14  1  0
 15 16  2  0
 17 16  1  0
 18 17  1  0
 19 18  2  0
 19 15  1  0
 20 13  1  0
 21 20  2  0
 22 20  1  0
 23 24  1  1
 23 22  1  0
 25 24  1  0
 26 25  1  0
 26 27  1  0
 27 28  1  0
 29 23  1  0
 30 29  2  0
 31 29  1  0
M  END
$$$$
