FHK.pdb
     RDKit          3D

 31 32  0  0  1  0  0  0  0  0999 V2000
   23.5516  -11.3673  -14.2577 N   0  0  0  0  0  0  0  0  0  0  0  0
   23.4174   -9.9219  -14.2422 C   0  0  1  0  0  0  0  0  0  0  0  0
   23.6410   -9.4834  -15.6964 C   0  0  0  0  0  0  0  0  0  0  0  0
   25.0623   -9.6314  -16.0759 C   0  0  0  0  0  0  0  0  0  0  0  0
   25.5800  -10.8731  -16.3969 C   0  0  0  0  0  0  0  0  0  0  0  0
   26.9045  -11.0153  -16.7534 C   0  0  0  0  0  0  0  0  0  0  0  0
   27.7548   -9.9300  -16.8021 C   0  0  0  0  0  0  0  0  0  0  0  0
   27.2335   -8.6917  -16.4807 C   0  0  0  0  0  0  0  0  0  0  0  0
   25.8917   -8.5322  -16.1171 C   0  0  0  0  0  0  0  0  0  0  0  0
   21.9891   -9.6148  -13.9461 C   0  0  0  0  0  0  0  0  0  0  0  0
   21.0431  -10.3154  -14.3816 O   0  0  0  0  0  0  0  0  0  0  0  0
   21.6147   -8.4832  -13.1337 N   0  0  0  0  0  0  0  0  0  0  0  0
   20.2486   -8.2200  -12.8440 C   0  0  1  0  0  0  0  0  0  0  0  0
   19.8956   -7.9612  -11.4295 C   0  0  0  0  0  0  0  0  0  0  0  0
   18.4977   -7.6890  -11.1189 C   0  0  0  0  0  0  0  0  0  0  0  0
   17.3798   -7.4884  -11.8601 C   0  0  0  0  0  0  0  0  0  0  0  0
   16.3285   -7.2952  -11.0208 N   0  0  0  0  0  0  0  0  0  0  0  0
   16.7895   -7.3755   -9.7803 C   0  0  0  0  0  0  0  0  0  0  0  0
   18.0875   -7.6113   -9.8125 N   0  0  0  0  0  0  0  0  0  0  0  0
   19.7189   -7.1430  -13.7570 C   0  0  0  0  0  0  0  0  0  0  0  0
   20.4407   -6.1362  -13.9276 O   0  0  0  0  0  0  0  0  0  0  0  0
   18.4843   -7.2368  -14.3953 N   0  0  0  0  0  0  0  0  0  0  0  0
   17.9944   -6.1304  -15.3377 C   0  0  1  0  0  0  0  0  0  0  0  0
   17.1905   -6.7937  -16.3443 C   0  0  0  0  0  0  0  0  0  0  0  0
   15.8421   -7.3073  -16.3111 C   0  0  0  0  0  0  0  0  0  0  0  0
   15.0982   -7.9276  -17.3927 C   0  0  0  0  0  0  0  0  0  0  0  0
   13.7094   -8.3988  -17.2881 C   0  0  0  0  0  0  0  0  0  0  0  0
   13.2533   -9.1593  -18.4345 N   0  0  0  0  0  0  0  0  0  0  0  0
   17.5615   -5.0363  -14.5047 C   0  0  0  0  0  0  0  0  0  0  0  0
   17.0418   -5.0881  -13.3800 O   0  0  0  0  0  0  0  0  0  0  0  0
   17.7357   -3.7179  -14.9993 O   0  0  0  0  0  0  0  0  0  0  0  0
  2  1  1  6
  2  3  1  0
  3  4  1  0
  4  9  1  0
  4  5  2  0
  5  6  1  0
  6  7  2  0
  8  7  1  0
  9  8  2  0
 10  2  1  0
 10 12  1  0
 11 10  2  0
 13 12  1  0
 13 14  1  1
 15 14  1  0
 15 16  2  0
 17 16  1  0
 18 17  1  0
 19 18  2  0
 19 15  1  0
 20 13  1  0
 21 20  2  0
 22 20  1  0
 23 24  1  1
 23 22  1  0
 25 24  1  0
 26 25  1  0
 26 27  1  0
 27 28  1  0
 29 23  1  0
 30 29  2  0
 31 29  1  0
M  END
$$$$
