FHK.pdb
     RDKit          3D

 31 32  0  0  1  0  0  0  0  0999 V2000
   23.8665  -10.7464  -16.9144 N   0  0  0  0  0  0  0  0  0  0  0  0
   23.7204   -9.5584  -16.0930 C   0  0  1  0  0  0  0  0  0  0  0  0
   24.7804   -8.5780  -16.6148 C   0  0  0  0  0  0  0  0  0  0  0  0
   26.1410   -9.1184  -16.4083 C   0  0  0  0  0  0  0  0  0  0  0  0
   27.1066   -8.9897  -17.3901 C   0  0  0  0  0  0  0  0  0  0  0  0
   28.3774   -9.4904  -17.2009 C   0  0  0  0  0  0  0  0  0  0  0  0
   28.7282  -10.1337  -16.0320 C   0  0  0  0  0  0  0  0  0  0  0  0
   27.7607  -10.2602  -15.0540 C   0  0  0  0  0  0  0  0  0  0  0  0
   26.4672   -9.7571  -15.2321 C   0  0  0  0  0  0  0  0  0  0  0  0
   22.4051   -8.9455  -16.4344 C   0  0  0  0  0  0  0  0  0  0  0  0
   21.8017   -9.1943  -17.5064 O   0  0  0  0  0  0  0  0  0  0  0  0
   21.7489   -8.0236  -15.5397 N   0  0  0  0  0  0  0  0  0  0  0  0
   20.4521   -7.5247  -15.8374 C   0  0  1  0  0  0  0  0  0  0  0  0
   19.3938   -7.7474  -14.8260 C   0  0  0  0  0  0  0  0  0  0  0  0
   18.8276   -9.0865  -14.7213 C   0  0  0  0  0  0  0  0  0  0  0  0
   19.0627  -10.2702  -15.3401 C   0  0  0  0  0  0  0  0  0  0  0  0
   18.2315  -11.2091  -14.8163 N   0  0  0  0  0  0  0  0  0  0  0  0
   17.4945  -10.6151  -13.8880 C   0  0  0  0  0  0  0  0  0  0  0  0
   17.8331   -9.3420  -13.8120 N   0  0  0  0  0  0  0  0  0  0  0  0
   20.5316   -6.0769  -16.2517 C   0  0  0  0  0  0  0  0  0  0  0  0
   21.3007   -5.3394  -15.5974 O   0  0  0  0  0  0  0  0  0  0  0  0
   19.7928   -5.5551  -17.3112 N   0  0  0  0  0  0  0  0  0  0  0  0
   19.8265   -4.0568  -17.6375 C   0  0  1  0  0  0  0  0  0  0  0  0
   19.4325   -3.9445  -19.0273 C   0  0  0  0  0  0  0  0  0  0  0  0
   19.1910   -2.7957  -19.8670 C   0  0  0  0  0  0  0  0  0  0  0  0
   18.7804   -2.7806  -21.2596 C   0  0  0  0  0  0  0  0  0  0  0  0
   18.5579   -1.5618  -22.0513 C   0  0  0  0  0  0  0  0  0  0  0  0
   19.3113   -0.4114  -21.5934 N   0  0  0  0  0  0  0  0  0  0  0  0
   19.2023   -3.3762  -16.5305 C   0  0  0  0  0  0  0  0  0  0  0  0
   18.3328   -3.8063  -15.7580 O   0  0  0  0  0  0  0  0  0  0  0  0
   19.6080   -2.0441  -16.2581 O   0  0  0  0  0  0  0  0  0  0  0  0
  2  1  1  6
  2  3  1  0
  3  4  1  0
  4  9  1  0
  4  5  2  0
  5  6  1  0
  6  7  2  0
  8  7  1  0
  9  8  2  0
 10  2  1  0
 10 12  1  0
 11 10  2  0
 13 12  1  0
 13 14  1  1
 15 14  1  0
 15 16  2  0
 17 16  1  0
 18 17  1  0
 19 18  2  0
 19 15  1  0
 20 13  1  0
 21 20  2  0
 22 20  1  0
 23 24  1  6
 23 22  1  0
 25 24  1  0
 26 25  1  0
 26 27  1  0
 27 28  1  0
 29 23  1  0
 30 29  2  0
 31 29  1  0
M  END
$$$$
