FHK.pdb
     RDKit          3D

 31 32  0  0  1  0  0  0  0  0999 V2000
   24.6898  -11.4427  -19.1151 N   0  0  0  0  0  0  0  0  0  0  0  0
   23.3225  -11.0438  -19.3963 C   0  0  1  0  0  0  0  0  0  0  0  0
   22.5669  -12.3559  -19.6502 C   0  0  0  0  0  0  0  0  0  0  0  0
   22.9537  -12.9400  -20.9522 C   0  0  0  0  0  0  0  0  0  0  0  0
   22.5225  -12.3696  -22.1361 C   0  0  0  0  0  0  0  0  0  0  0  0
   22.8825  -12.9100  -23.3527 C   0  0  0  0  0  0  0  0  0  0  0  0
   23.6810  -14.0322  -23.4310 C   0  0  0  0  0  0  0  0  0  0  0  0
   24.1094  -14.5988  -22.2461 C   0  0  0  0  0  0  0  0  0  0  0  0
   23.7520  -14.0615  -21.0044 C   0  0  0  0  0  0  0  0  0  0  0  0
   22.7553  -10.4928  -18.1327 C   0  0  0  0  0  0  0  0  0  0  0  0
   23.3757  -10.5270  -17.0422 O   0  0  0  0  0  0  0  0  0  0  0  0
   21.4482   -9.8838  -18.0966 N   0  0  0  0  0  0  0  0  0  0  0  0
   21.1172   -8.9388  -17.0881 C   0  0  1  0  0  0  0  0  0  0  0  0
   22.0463   -7.8020  -16.8963 C   0  0  0  0  0  0  0  0  0  0  0  0
   21.7536   -6.8616  -15.8219 C   0  0  0  0  0  0  0  0  0  0  0  0
   20.8213   -6.7998  -14.8388 C   0  0  0  0  0  0  0  0  0  0  0  0
   21.0428   -5.6832  -14.0967 N   0  0  0  0  0  0  0  0  0  0  0  0
   22.0958   -5.0645  -14.6128 C   0  0  0  0  0  0  0  0  0  0  0  0
   22.5401   -5.7515  -15.6481 N   0  0  0  0  0  0  0  0  0  0  0  0
   19.6928   -8.4727  -17.2561 C   0  0  0  0  0  0  0  0  0  0  0  0
   19.4146   -7.8627  -18.3116 O   0  0  0  0  0  0  0  0  0  0  0  0
   18.7091   -8.6961  -16.2954 N   0  0  0  0  0  0  0  0  0  0  0  0
   17.2594   -8.2534  -16.5293 C   0  0  1  0  0  0  0  0  0  0  0  0
   16.4294   -9.3035  -15.9745 C   0  0  0  0  0  0  0  0  0  0  0  0
   15.0200   -9.5848  -16.1077 C   0  0  0  0  0  0  0  0  0  0  0  0
   14.2776  -10.7005  -15.5491 C   0  0  0  0  0  0  0  0  0  0  0  0
   12.8415  -10.9363  -15.7585 C   0  0  0  0  0  0  0  0  0  0  0  0
   12.3252  -12.1017  -15.0686 N   0  0  0  0  0  0  0  0  0  0  0  0
   17.1901   -6.8562  -16.1806 C   0  0  0  0  0  0  0  0  0  0  0  0
   16.4619   -5.9794  -16.6691 O   0  0  0  0  0  0  0  0  0  0  0  0
   18.0478   -6.3868  -15.1524 O   0  0  0  0  0  0  0  0  0  0  0  0
  2  1  1  1
  2  3  1  0
  3  4  1  0
  4  9  1  0
  4  5  2  0
  5  6  1  0
  6  7  2  0
  8  7  1  0
  9  8  2  0
 10  2  1  0
 10 12  1  0
 11 10  2  0
 13 12  1  0
 13 14  1  6
 15 14  1  0
 15 16  2  0
 17 16  1  0
 18 17  1  0
 19 18  2  0
 19 15  1  0
 20 13  1  0
 21 20  2  0
 22 20  1  0
 23 24  1  1
 23 22  1  0
 25 24  1  0
 26 25  1  0
 26 27  1  0
 27 28  1  0
 29 23  1  0
 30 29  2  0
 31 29  1  0
M  END
$$$$
