FHK.pdb
     RDKit          3D

 31 32  0  0  1  0  0  0  0  0999 V2000
   25.5141   -9.5464  -22.5207 N   0  0  0  0  0  0  0  0  0  0  0  0
   24.6818   -9.5262  -21.3314 C   0  0  1  0  0  0  0  0  0  0  0  0
   23.2508   -9.3193  -21.8476 C   0  0  0  0  0  0  0  0  0  0  0  0
   23.0508   -7.9236  -22.2928 C   0  0  0  0  0  0  0  0  0  0  0  0
   23.1968   -7.5814  -23.6249 C   0  0  0  0  0  0  0  0  0  0  0  0
   23.0092   -6.2813  -24.0448 C   0  0  0  0  0  0  0  0  0  0  0  0
   22.6711   -5.2822  -23.1557 C   0  0  0  0  0  0  0  0  0  0  0  0
   22.5264   -5.6283  -21.8261 C   0  0  0  0  0  0  0  0  0  0  0  0
   22.7136   -6.9433  -21.3857 C   0  0  0  0  0  0  0  0  0  0  0  0
   24.7047  -10.9002  -20.7539 C   0  0  0  0  0  0  0  0  0  0  0  0
   24.6472  -11.9329  -21.4648 O   0  0  0  0  0  0  0  0  0  0  0  0
   24.7958  -11.1176  -19.3308 N   0  0  0  0  0  0  0  0  0  0  0  0
   24.8419  -12.4354  -18.8011 C   0  0  1  0  0  0  0  0  0  0  0  0
   25.5728  -12.6266  -17.5276 C   0  0  0  0  0  0  0  0  0  0  0  0
   25.6565  -13.9792  -16.9909 C   0  0  0  0  0  0  0  0  0  0  0  0
   25.2161  -15.1947  -17.4007 C   0  0  0  0  0  0  0  0  0  0  0  0
   25.6080  -16.1290  -16.4951 N   0  0  0  0  0  0  0  0  0  0  0  0
   26.2806  -15.5009  -15.5406 C   0  0  0  0  0  0  0  0  0  0  0  0
   26.3236  -14.2109  -15.8151 N   0  0  0  0  0  0  0  0  0  0  0  0
   23.4545  -13.0234  -18.7413 C   0  0  0  0  0  0  0  0  0  0  0  0
   22.5569  -12.3134  -18.2374 O   0  0  0  0  0  0  0  0  0  0  0  0
   23.1556  -14.2980  -19.2174 N   0  0  0  0  0  0  0  0  0  0  0  0
   21.7202  -14.8377  -19.1874 C   0  0  1  0  0  0  0  0  0  0  0  0
   21.5572  -15.5997  -20.4090 C   0  0  0  0  0  0  0  0  0  0  0  0
   20.3849  -16.1414  -21.0536 C   0  0  0  0  0  0  0  0  0  0  0  0
   20.3259  -16.9725  -22.2426 C   0  0  0  0  0  0  0  0  0  0  0  0
   19.0844  -17.4732  -22.8505 C   0  0  0  0  0  0  0  0  0  0  0  0
   19.2896  -18.4686  -23.8839 N   0  0  0  0  0  0  0  0  0  0  0  0
   21.4897  -15.3318  -17.8528 C   0  0  0  0  0  0  0  0  0  0  0  0
   22.3209  -15.7688  -17.0429 O   0  0  0  0  0  0  0  0  0  0  0  0
   20.1561  -15.3341  -17.3685 O   0  0  0  0  0  0  0  0  0  0  0  0
  2  1  1  6
  2  3  1  0
  3  4  1  0
  4  9  1  0
  4  5  2  0
  5  6  1  0
  6  7  2  0
  8  7  1  0
  9  8  2  0
 10  2  1  0
 10 12  1  0
 11 10  2  0
 13 12  1  0
 13 14  1  1
 15 14  1  0
 15 16  2  0
 17 16  1  0
 18 17  1  0
 19 18  2  0
 19 15  1  0
 20 13  1  0
 21 20  2  0
 22 20  1  0
 23 24  1  6
 23 22  1  0
 25 24  1  0
 26 25  1  0
 26 27  1  0
 27 28  1  0
 29 23  1  0
 30 29  2  0
 31 29  1  0
M  END
$$$$
