FHK.pdb
     RDKit          3D

 31 32  0  0  1  0  0  0  0  0999 V2000
   22.9857   -7.0374  -17.1171 N   0  0  0  0  0  0  0  0  0  0  0  0
   22.0597   -7.5881  -16.1441 C   0  0  1  0  0  0  0  0  0  0  0  0
   21.0378   -6.4715  -15.8873 C   0  0  0  0  0  0  0  0  0  0  0  0
   21.6298   -5.3996  -15.0587 C   0  0  0  0  0  0  0  0  0  0  0  0
   21.7465   -5.5512  -13.6890 C   0  0  0  0  0  0  0  0  0  0  0  0
   22.2998   -4.5548  -12.9127 C   0  0  0  0  0  0  0  0  0  0  0  0
   22.7538   -3.3784  -13.4722 C   0  0  0  0  0  0  0  0  0  0  0  0
   22.6352   -3.2310  -14.8407 C   0  0  0  0  0  0  0  0  0  0  0  0
   22.0759   -4.2335  -15.6409 C   0  0  0  0  0  0  0  0  0  0  0  0
   21.3015   -8.6766  -16.8240 C   0  0  0  0  0  0  0  0  0  0  0  0
   21.1959   -8.7484  -18.0726 O   0  0  0  0  0  0  0  0  0  0  0  0
   20.6419   -9.7172  -16.0738 N   0  0  0  0  0  0  0  0  0  0  0  0
   19.9856  -10.7863  -16.7414 C   0  0  1  0  0  0  0  0  0  0  0  0
   20.6381  -12.1147  -16.6936 C   0  0  0  0  0  0  0  0  0  0  0  0
   22.0684  -12.1773  -16.9671 C   0  0  0  0  0  0  0  0  0  0  0  0
   23.1836  -12.2224  -16.1966 C   0  0  0  0  0  0  0  0  0  0  0  0
   24.2717  -12.2938  -17.0075 N   0  0  0  0  0  0  0  0  0  0  0  0
   23.8359  -12.2932  -18.2597 C   0  0  0  0  0  0  0  0  0  0  0  0
   22.5181  -12.2241  -18.2619 N   0  0  0  0  0  0  0  0  0  0  0  0
   18.5405  -10.8593  -16.3164 C   0  0  0  0  0  0  0  0  0  0  0  0
   18.2925  -10.6605  -15.1069 O   0  0  0  0  0  0  0  0  0  0  0  0
   17.5063  -11.1345  -17.2081 N   0  0  0  0  0  0  0  0  0  0  0  0
   16.0560  -11.2576  -16.7244 C   0  0  1  0  0  0  0  0  0  0  0  0
   15.2307  -10.8038  -17.8256 C   0  0  0  0  0  0  0  0  0  0  0  0
   13.8024  -10.6384  -17.9503 C   0  0  0  0  0  0  0  0  0  0  0  0
   13.0537  -10.2119  -19.1188 C   0  0  0  0  0  0  0  0  0  0  0  0
   11.5933  -10.0465  -19.1602 C   0  0  0  0  0  0  0  0  0  0  0  0
   11.0693   -9.7298  -20.4740 N   0  0  0  0  0  0  0  0  0  0  0  0
   15.9453  -12.5336  -16.0628 C   0  0  0  0  0  0  0  0  0  0  0  0
   16.6258  -13.5539  -16.2464 O   0  0  0  0  0  0  0  0  0  0  0  0
   14.9432  -12.6798  -15.0691 O   0  0  0  0  0  0  0  0  0  0  0  0
  2  1  1  6
  2  3  1  0
  3  4  1  0
  4  9  1  0
  4  5  2  0
  5  6  1  0
  6  7  2  0
  8  7  1  0
  9  8  2  0
 10  2  1  0
 10 12  1  0
 11 10  2  0
 13 12  1  0
 13 14  1  1
 15 14  1  0
 15 16  2  0
 17 16  1  0
 18 17  1  0
 19 18  2  0
 19 15  1  0
 20 13  1  0
 21 20  2  0
 22 20  1  0
 23 24  1  6
 23 22  1  0
 25 24  1  0
 26 25  1  0
 26 27  1  0
 27 28  1  0
 29 23  1  0
 30 29  2  0
 31 29  1  0
M  END
$$$$
