FHK.pdb
     RDKit          3D

 31 32  0  0  1  0  0  0  0  0999 V2000
   28.4957  -20.9426   -8.6859 N   0  0  0  0  0  0  0  0  0  0  0  0
   27.0707  -20.6950   -8.5611 C   0  0  1  0  0  0  0  0  0  0  0  0
   26.9592  -19.4050   -7.7362 C   0  0  0  0  0  0  0  0  0  0  0  0
   27.4170  -19.6290   -6.3483 C   0  0  0  0  0  0  0  0  0  0  0  0
   28.5062  -18.9404   -5.8460 C   0  0  0  0  0  0  0  0  0  0  0  0
   28.9352  -19.1449   -4.5515 C   0  0  0  0  0  0  0  0  0  0  0  0
   28.2966  -20.0384   -3.7169 C   0  0  0  0  0  0  0  0  0  0  0  0
   27.2092  -20.7242   -4.2226 C   0  0  0  0  0  0  0  0  0  0  0  0
   26.7626  -20.5270   -5.5340 C   0  0  0  0  0  0  0  0  0  0  0  0
   26.5631  -20.3475   -9.9189 C   0  0  0  0  0  0  0  0  0  0  0  0
   27.2241  -19.6550  -10.7306 O   0  0  0  0  0  0  0  0  0  0  0  0
   25.2703  -20.7945  -10.3768 N   0  0  0  0  0  0  0  0  0  0  0  0
   24.9700  -20.8410  -11.7650 C   0  0  1  0  0  0  0  0  0  0  0  0
   25.8051  -21.7270  -12.6077 C   0  0  0  0  0  0  0  0  0  0  0  0
   25.6257  -21.6544  -14.0524 C   0  0  0  0  0  0  0  0  0  0  0  0
   24.8181  -20.9417  -14.8765 C   0  0  0  0  0  0  0  0  0  0  0  0
   25.1053  -21.2730  -16.1627 N   0  0  0  0  0  0  0  0  0  0  0  0
   26.0756  -22.1761  -16.1341 C   0  0  0  0  0  0  0  0  0  0  0  0
   26.4051  -22.4215  -14.8801 N   0  0  0  0  0  0  0  0  0  0  0  0
   23.4987  -21.0980  -11.9731 C   0  0  0  0  0  0  0  0  0  0  0  0
   23.0037  -22.0818  -11.3808 O   0  0  0  0  0  0  0  0  0  0  0  0
   22.7009  -20.2935  -12.7836 N   0  0  0  0  0  0  0  0  0  0  0  0
   21.2249  -20.6319  -13.0271 C   0  0  1  0  0  0  0  0  0  0  0  0
   21.1530  -21.1418  -14.3815 C   0  0  0  0  0  0  0  0  0  0  0  0
   21.6690  -20.6303  -15.6287 C   0  0  0  0  0  0  0  0  0  0  0  0
   21.5572  -21.2234  -16.9491 C   0  0  0  0  0  0  0  0  0  0  0  0
   22.0818  -20.6196  -18.1828 C   0  0  0  0  0  0  0  0  0  0  0  0
   21.8694  -19.1891  -18.2797 N   0  0  0  0  0  0  0  0  0  0  0  0
   20.7548  -21.3142  -11.8474 C   0  0  0  0  0  0  0  0  0  0  0  0
   20.5686  -22.5298  -11.6878 O   0  0  0  0  0  0  0  0  0  0  0  0
   20.4572  -20.5300  -10.7030 O   0  0  0  0  0  0  0  0  0  0  0  0
  2  1  1  6
  2  3  1  0
  3  4  1  0
  4  9  1  0
  4  5  2  0
  5  6  1  0
  6  7  2  0
  8  7  1  0
  9  8  2  0
 10  2  1  0
 10 12  1  0
 11 10  2  0
 13 12  1  0
 13 14  1  6
 15 14  1  0
 15 16  2  0
 17 16  1  0
 18 17  1  0
 19 18  2  0
 19 15  1  0
 20 13  1  0
 21 20  2  0
 22 20  1  0
 23 24  1  6
 23 22  1  0
 25 24  1  0
 26 25  1  0
 26 27  1  0
 27 28  1  0
 29 23  1  0
 30 29  2  0
 31 29  1  0
M  END
$$$$
