FHK.pdb
     RDKit          3D

 31 32  0  0  1  0  0  0  0  0999 V2000
   28.2936  -21.0508   -8.8550 N   0  0  0  0  0  0  0  0  0  0  0  0
   26.8740  -20.7886   -8.7019 C   0  0  1  0  0  0  0  0  0  0  0  0
   26.7923  -19.4883   -7.8898 C   0  0  0  0  0  0  0  0  0  0  0  0
   27.4013  -19.6653   -6.5542 C   0  0  0  0  0  0  0  0  0  0  0  0
   26.7724  -20.4307   -5.5891 C   0  0  0  0  0  0  0  0  0  0  0  0
   27.3379  -20.6000   -4.3428 C   0  0  0  0  0  0  0  0  0  0  0  0
   28.5440  -20.0151   -4.0170 C   0  0  0  0  0  0  0  0  0  0  0  0
   29.1687  -19.2513   -4.9839 C   0  0  0  0  0  0  0  0  0  0  0  0
   28.6068  -19.0707   -6.2526 C   0  0  0  0  0  0  0  0  0  0  0  0
   26.3398  -20.4519  -10.0522 C   0  0  0  0  0  0  0  0  0  0  0  0
   26.3817  -19.2900  -10.5250 O   0  0  0  0  0  0  0  0  0  0  0  0
   25.7400  -21.4559  -10.8967 N   0  0  0  0  0  0  0  0  0  0  0  0
   25.2094  -21.1095  -12.1686 C   0  0  1  0  0  0  0  0  0  0  0  0
   25.9501  -21.5810  -13.3609 C   0  0  0  0  0  0  0  0  0  0  0  0
   26.9951  -20.7167  -13.8951 C   0  0  0  0  0  0  0  0  0  0  0  0
   27.4589  -19.4806  -13.5845 C   0  0  0  0  0  0  0  0  0  0  0  0
   28.4838  -19.1755  -14.4231 N   0  0  0  0  0  0  0  0  0  0  0  0
   28.6511  -20.2071  -15.2390 C   0  0  0  0  0  0  0  0  0  0  0  0
   27.7705  -21.1441  -14.9424 N   0  0  0  0  0  0  0  0  0  0  0  0
   23.7473  -21.4717  -12.2412 C   0  0  0  0  0  0  0  0  0  0  0  0
   23.4030  -22.5547  -11.7194 O   0  0  0  0  0  0  0  0  0  0  0  0
   22.7992  -20.6569  -12.8559 N   0  0  0  0  0  0  0  0  0  0  0  0
   21.3281  -21.0818  -12.9438 C   0  0  1  0  0  0  0  0  0  0  0  0
   20.6520  -20.3973  -11.8603 C   0  0  0  0  0  0  0  0  0  0  0  0
   19.4415  -20.7051  -11.1372 C   0  0  0  0  0  0  0  0  0  0  0  0
   18.3166  -21.5071  -11.5836 C   0  0  0  0  0  0  0  0  0  0  0  0
   17.1239  -21.7965  -10.7739 C   0  0  0  0  0  0  0  0  0  0  0  0
   16.1338  -22.6131  -11.4475 N   0  0  0  0  0  0  0  0  0  0  0  0
   20.9597  -21.0187  -14.3361 C   0  0  0  0  0  0  0  0  0  0  0  0
   20.0297  -21.6045  -14.9103 O   0  0  0  0  0  0  0  0  0  0  0  0
   21.7350  -20.1920  -15.1897 O   0  0  0  0  0  0  0  0  0  0  0  0
  2  1  1  6
  2  3  1  0
  3  4  1  0
  4  9  1  0
  4  5  2  0
  5  6  1  0
  6  7  2  0
  8  7  1  0
  9  8  2  0
 10  2  1  0
 10 12  1  0
 11 10  2  0
 13 12  1  0
 13 14  1  6
 15 14  1  0
 15 16  2  0
 17 16  1  0
 18 17  1  0
 19 18  2  0
 19 15  1  0
 20 13  1  0
 21 20  2  0
 22 20  1  0
 23 24  1  1
 23 22  1  0
 25 24  1  0
 26 25  1  0
 26 27  1  0
 27 28  1  0
 29 23  1  0
 30 29  2  0
 31 29  1  0
M  END
$$$$
