FHK.pdb
     RDKit          3D

 31 32  0  0  1  0  0  0  0  0999 V2000
   25.3300  -19.4132   -7.6770 N   0  0  0  0  0  0  0  0  0  0  0  0
   26.4867  -19.9403   -8.3781 C   0  0  1  0  0  0  0  0  0  0  0  0
   26.9082  -21.1814   -7.5786 C   0  0  0  0  0  0  0  0  0  0  0  0
   27.6109  -20.7918   -6.3375 C   0  0  0  0  0  0  0  0  0  0  0  0
   26.9857  -20.9043   -5.1090 C   0  0  0  0  0  0  0  0  0  0  0  0
   27.6382  -20.5440   -3.9488 C   0  0  0  0  0  0  0  0  0  0  0  0
   28.9303  -20.0614   -3.9728 C   0  0  0  0  0  0  0  0  0  0  0  0
   29.5510  -19.9505   -5.2020 C   0  0  0  0  0  0  0  0  0  0  0  0
   28.9014  -20.3122   -6.3874 C   0  0  0  0  0  0  0  0  0  0  0  0
   26.0088  -20.4541   -9.6932 C   0  0  0  0  0  0  0  0  0  0  0  0
   24.7970  -20.6784   -9.9310 O   0  0  0  0  0  0  0  0  0  0  0  0
   26.9247  -20.7232  -10.7746 N   0  0  0  0  0  0  0  0  0  0  0  0
   26.6852  -20.1996  -12.0738 C   0  0  1  0  0  0  0  0  0  0  0  0
   27.8668  -19.9523  -12.9311 C   0  0  0  0  0  0  0  0  0  0  0  0
   27.6305  -19.5062  -14.2984 C   0  0  0  0  0  0  0  0  0  0  0  0
   26.5228  -19.2712  -15.0448 C   0  0  0  0  0  0  0  0  0  0  0  0
   26.9084  -18.8420  -16.2752 N   0  0  0  0  0  0  0  0  0  0  0  0
   28.2338  -18.8118  -16.2890 C   0  0  0  0  0  0  0  0  0  0  0  0
   28.6905  -19.2055  -15.1152 N   0  0  0  0  0  0  0  0  0  0  0  0
   25.6427  -21.0247  -12.7857 C   0  0  0  0  0  0  0  0  0  0  0  0
   25.5716  -22.2359  -12.4829 O   0  0  0  0  0  0  0  0  0  0  0  0
   24.7836  -20.4897  -13.7430 N   0  0  0  0  0  0  0  0  0  0  0  0
   23.4517  -21.1714  -14.0803 C   0  0  1  0  0  0  0  0  0  0  0  0
   22.8235  -21.4662  -12.8083 C   0  0  0  0  0  0  0  0  0  0  0  0
   21.7340  -22.3448  -12.4563 C   0  0  0  0  0  0  0  0  0  0  0  0
   20.3196  -22.0251  -12.3835 C   0  0  0  0  0  0  0  0  0  0  0  0
   19.2622  -22.9885  -12.0433 C   0  0  0  0  0  0  0  0  0  0  0  0
   17.9331  -22.4136  -11.9839 N   0  0  0  0  0  0  0  0  0  0  0  0
   22.8580  -20.4150  -15.1544 C   0  0  0  0  0  0  0  0  0  0  0  0
   21.9722  -20.7722  -15.9453 O   0  0  0  0  0  0  0  0  0  0  0  0
   23.3187  -19.0896  -15.3647 O   0  0  0  0  0  0  0  0  0  0  0  0
  2  1  1  1
  2  3  1  0
  3  4  1  0
  4  9  1  0
  4  5  2  0
  5  6  1  0
  6  7  2  0
  8  7  1  0
  9  8  2  0
 10  2  1  0
 10 12  1  0
 11 10  2  0
 13 12  1  0
 13 14  1  6
 15 14  1  0
 15 16  2  0
 17 16  1  0
 18 17  1  0
 19 18  2  0
 19 15  1  0
 20 13  1  0
 21 20  2  0
 22 20  1  0
 23 24  1  1
 23 22  1  0
 25 24  1  0
 26 25  1  0
 26 27  1  0
 27 28  1  0
 29 23  1  0
 30 29  2  0
 31 29  1  0
M  END
$$$$
