FHK.pdb
     RDKit          3D

 31 32  0  0  1  0  0  0  0  0999 V2000
   24.6491  -20.2353   -7.8380 N   0  0  0  0  0  0  0  0  0  0  0  0
   25.9311  -20.0519   -8.4940 C   0  0  1  0  0  0  0  0  0  0  0  0
   26.8913  -21.0066   -7.7704 C   0  0  0  0  0  0  0  0  0  0  0  0
   27.5243  -20.3366   -6.6143 C   0  0  0  0  0  0  0  0  0  0  0  0
   26.8469  -20.2118   -5.4149 C   0  0  0  0  0  0  0  0  0  0  0  0
   27.4343  -19.5895   -4.3335 C   0  0  0  0  0  0  0  0  0  0  0  0
   28.7110  -19.0726   -4.4098 C   0  0  0  0  0  0  0  0  0  0  0  0
   29.3840  -19.1994   -5.6096 C   0  0  0  0  0  0  0  0  0  0  0  0
   28.8006  -19.8283   -6.7152 C   0  0  0  0  0  0  0  0  0  0  0  0
   25.7990  -20.5895   -9.8780 C   0  0  0  0  0  0  0  0  0  0  0  0
   24.7794  -21.2090  -10.2677 O   0  0  0  0  0  0  0  0  0  0  0  0
   26.8483  -20.4235  -10.8538 N   0  0  0  0  0  0  0  0  0  0  0  0
   26.5836  -19.7997  -12.1029 C   0  0  1  0  0  0  0  0  0  0  0  0
   27.6913  -19.0413  -12.7276 C   0  0  0  0  0  0  0  0  0  0  0  0
   27.4816  -18.5199  -14.0725 C   0  0  0  0  0  0  0  0  0  0  0  0
   26.4961  -18.6393  -14.9965 C   0  0  0  0  0  0  0  0  0  0  0  0
   26.8302  -17.9030  -16.0887 N   0  0  0  0  0  0  0  0  0  0  0  0
   28.0038  -17.3369  -15.8434 C   0  0  0  0  0  0  0  0  0  0  0  0
   28.4152  -17.6913  -14.6407 N   0  0  0  0  0  0  0  0  0  0  0  0
   25.9750  -20.7904  -13.0632 C   0  0  0  0  0  0  0  0  0  0  0  0
   26.4895  -21.9293  -13.1077 O   0  0  0  0  0  0  0  0  0  0  0  0
   24.8885  -20.4797  -13.8778 N   0  0  0  0  0  0  0  0  0  0  0  0
   24.2134  -21.5533  -14.7404 C   0  0  1  0  0  0  0  0  0  0  0  0
   22.7978  -21.2446  -14.7222 C   0  0  0  0  0  0  0  0  0  0  0  0
   22.0759  -20.0308  -15.0196 C   0  0  0  0  0  0  0  0  0  0  0  0
   21.5248  -19.6120  -16.2959 C   0  0  0  0  0  0  0  0  0  0  0  0
   20.7857  -18.3602  -16.5159 C   0  0  0  0  0  0  0  0  0  0  0  0
   20.3183  -18.1787  -17.8758 N   0  0  0  0  0  0  0  0  0  0  0  0
   25.0239  -21.7069  -15.9227 C   0  0  0  0  0  0  0  0  0  0  0  0
   25.4111  -20.8272  -16.7062 O   0  0  0  0  0  0  0  0  0  0  0  0
   25.4529  -23.0149  -16.2663 O   0  0  0  0  0  0  0  0  0  0  0  0
  2  1  1  1
  2  3  1  0
  3  4  1  0
  4  9  1  0
  4  5  2  0
  5  6  1  0
  6  7  2  0
  8  7  1  0
  9  8  2  0
 10  2  1  0
 10 12  1  0
 11 10  2  0
 13 12  1  0
 13 14  1  6
 15 14  1  0
 15 16  2  0
 17 16  1  0
 18 17  1  0
 19 18  2  0
 19 15  1  0
 20 13  1  0
 21 20  2  0
 22 20  1  0
 23 24  1  6
 23 22  1  0
 25 24  1  0
 26 25  1  0
 26 27  1  0
 27 28  1  0
 29 23  1  0
 30 29  2  0
 31 29  1  0
M  END
$$$$
