FHK.pdb
     RDKit          3D

 31 32  0  0  1  0  0  0  0  0999 V2000
   28.4605  -26.5850  -16.5711 N   0  0  0  0  0  0  0  0  0  0  0  0
   27.7404  -25.4183  -17.0484 C   0  0  1  0  0  0  0  0  0  0  0  0
   26.2558  -25.7973  -16.9526 C   0  0  0  0  0  0  0  0  0  0  0  0
   25.8951  -26.7733  -18.0029 C   0  0  0  0  0  0  0  0  0  0  0  0
   25.4694  -26.3443  -19.2470 C   0  0  0  0  0  0  0  0  0  0  0  0
   25.1340  -27.2513  -20.2301 C   0  0  0  0  0  0  0  0  0  0  0  0
   25.2109  -28.6107  -20.0084 C   0  0  0  0  0  0  0  0  0  0  0  0
   25.6365  -29.0349  -18.7645 C   0  0  0  0  0  0  0  0  0  0  0  0
   25.9801  -28.1262  -17.7573 C   0  0  0  0  0  0  0  0  0  0  0  0
   27.9429  -24.3345  -16.0452 C   0  0  0  0  0  0  0  0  0  0  0  0
   29.0613  -24.0902  -15.5309 O   0  0  0  0  0  0  0  0  0  0  0  0
   26.8509  -23.4993  -15.6081 N   0  0  0  0  0  0  0  0  0  0  0  0
   26.9447  -22.0837  -15.6890 C   0  0  1  0  0  0  0  0  0  0  0  0
   27.5694  -21.5163  -16.9057 C   0  0  0  0  0  0  0  0  0  0  0  0
   27.7323  -20.0694  -16.9720 C   0  0  0  0  0  0  0  0  0  0  0  0
   27.4394  -19.0396  -16.1395 C   0  0  0  0  0  0  0  0  0  0  0  0
   27.8400  -17.8794  -16.7226 N   0  0  0  0  0  0  0  0  0  0  0  0
   28.3725  -18.1873  -17.8971 C   0  0  0  0  0  0  0  0  0  0  0  0
   28.3199  -19.4945  -18.0698 N   0  0  0  0  0  0  0  0  0  0  0  0
   25.6039  -21.4541  -15.4053 C   0  0  0  0  0  0  0  0  0  0  0  0
   24.7306  -21.5505  -16.2951 O   0  0  0  0  0  0  0  0  0  0  0  0
   25.3216  -20.7878  -14.2150 N   0  0  0  0  0  0  0  0  0  0  0  0
   23.9567  -20.1282  -13.9818 C   0  0  1  0  0  0  0  0  0  0  0  0
   23.8899  -19.0162  -14.9084 C   0  0  0  0  0  0  0  0  0  0  0  0
   23.1043  -18.8057  -16.1007 C   0  0  0  0  0  0  0  0  0  0  0  0
   21.6602  -18.7021  -16.2092 C   0  0  0  0  0  0  0  0  0  0  0  0
   20.9325  -18.4582  -17.4633 C   0  0  0  0  0  0  0  0  0  0  0  0
   19.4902  -18.5196  -17.3336 N   0  0  0  0  0  0  0  0  0  0  0  0
   22.9918  -21.1944  -13.8792 C   0  0  0  0  0  0  0  0  0  0  0  0
   21.8081  -21.1248  -13.5162 O   0  0  0  0  0  0  0  0  0  0  0  0
   23.4116  -22.5036  -14.2298 O   0  0  0  0  0  0  0  0  0  0  0  0
  2  1  1  1
  2  3  1  0
  3  4  1  0
  4  9  1  0
  4  5  2  0
  5  6  1  0
  6  7  2  0
  8  7  1  0
  9  8  2  0
 10  2  1  0
 10 12  1  0
 11 10  2  0
 13 12  1  0
 13 14  1  6
 15 14  1  0
 15 16  2  0
 17 16  1  0
 18 17  1  0
 19 18  2  0
 19 15  1  0
 20 13  1  0
 21 20  2  0
 22 20  1  0
 23 24  1  6
 23 22  1  0
 25 24  1  0
 26 25  1  0
 26 27  1  0
 27 28  1  0
 29 23  1  0
 30 29  2  0
 31 29  1  0
M  END
$$$$
