FHK.pdb
     RDKit          3D

 31 32  0  0  1  0  0  0  0  0999 V2000
   14.0466  -13.9188    6.2261 N   0  0  0  0  0  0  0  0  0  0  0  0
   15.2784  -14.4158    5.6405 C   0  0  1  0  0  0  0  0  0  0  0  0
   16.3280  -13.3360    5.9396 C   0  0  0  0  0  0  0  0  0  0  0  0
   17.4317  -13.3913    4.9573 C   0  0  0  0  0  0  0  0  0  0  0  0
   17.6995  -14.5575    4.2637 C   0  0  0  0  0  0  0  0  0  0  0  0
   18.7266  -14.6129    3.3451 C   0  0  0  0  0  0  0  0  0  0  0  0
   19.5184  -13.5130    3.0873 C   0  0  0  0  0  0  0  0  0  0  0  0
   19.2474  -12.3503    3.7824 C   0  0  0  0  0  0  0  0  0  0  0  0
   18.2087  -12.2794    4.7173 C   0  0  0  0  0  0  0  0  0  0  0  0
   15.6934  -15.6083    6.4327 C   0  0  0  0  0  0  0  0  0  0  0  0
   15.4628  -15.7167    7.6616 O   0  0  0  0  0  0  0  0  0  0  0  0
   16.3896  -16.7138    5.8210 N   0  0  0  0  0  0  0  0  0  0  0  0
   16.8368  -17.8111    6.6054 C   0  0  1  0  0  0  0  0  0  0  0  0
   16.5493  -19.1700    6.0924 C   0  0  0  0  0  0  0  0  0  0  0  0
   15.1843  -19.6660    6.2155 C   0  0  0  0  0  0  0  0  0  0  0  0
   14.0469  -19.1919    6.7821 C   0  0  0  0  0  0  0  0  0  0  0  0
   13.0471  -20.0872    6.5691 N   0  0  0  0  0  0  0  0  0  0  0  0
   13.5584  -21.0988    5.8812 C   0  0  0  0  0  0  0  0  0  0  0  0
   14.8384  -20.8697    5.6566 N   0  0  0  0  0  0  0  0  0  0  0  0
   18.2942  -17.6439    6.9552 C   0  0  0  0  0  0  0  0  0  0  0  0
   19.0647  -17.2991    6.0326 O   0  0  0  0  0  0  0  0  0  0  0  0
   18.7898  -17.8575    8.2394 N   0  0  0  0  0  0  0  0  0  0  0  0
   20.2836  -17.6977    8.5481 C   0  0  1  0  0  0  0  0  0  0  0  0
   20.3621  -16.7740    9.6617 C   0  0  0  0  0  0  0  0  0  0  0  0
   21.2816  -15.7013    9.9564 C   0  0  0  0  0  0  0  0  0  0  0  0
   21.0675  -14.2745    9.7937 C   0  0  0  0  0  0  0  0  0  0  0  0
   22.0997  -13.2470    9.9953 C   0  0  0  0  0  0  0  0  0  0  0  0
   21.7664  -12.2617   11.0047 N   0  0  0  0  0  0  0  0  0  0  0  0
   20.8593  -19.0189    8.5112 C   0  0  0  0  0  0  0  0  0  0  0  0
   20.2912  -20.1078    8.6827 O   0  0  0  0  0  0  0  0  0  0  0  0
   22.2492  -19.1287    8.2479 O   0  0  0  0  0  0  0  0  0  0  0  0
  2  1  1  1
  2  3  1  0
  3  4  1  0
  4  9  1  0
  4  5  2  0
  5  6  1  0
  6  7  2  0
  8  7  1  0
  9  8  2  0
 10  2  1  0
 10 12  1  0
 11 10  2  0
 13 12  1  0
 13 14  1  6
 15 14  1  0
 15 16  2  0
 17 16  1  0
 18 17  1  0
 19 18  2  0
 19 15  1  0
 20 13  1  0
 21 20  2  0
 22 20  1  0
 23 24  1  1
 23 22  1  0
 25 24  1  0
 26 25  1  0
 26 27  1  0
 27 28  1  0
 29 23  1  0
 30 29  2  0
 31 29  1  0
M  END
$$$$
