CCE.pdb
     RDKit          3D

 22 21  0  0  1  0  0  0  0  0999 V2000
   19.5603  -12.6006  -18.2688 N   0  0  0  0  0  0  0  0  0  0  0  0
   20.5714  -11.9000  -17.5426 C   0  0  1  0  0  0  0  0  0  0  0  0
   21.6880  -11.5001  -18.4693 C   0  0  0  0  0  0  0  0  0  0  0  0
   22.7543  -12.9647  -18.7096 S   0  0  0  0  0  0  0  0  0  0  0  0
   20.0485  -10.7597  -16.7579 C   0  0  0  0  0  0  0  0  0  0  0  0
   19.4301   -9.8474  -17.3635 O   0  0  0  0  0  0  0  0  0  0  0  0
   20.1969  -10.6215  -15.3559 N   0  0  0  0  0  0  0  0  0  0  0  0
   19.7612   -9.4599  -14.6092 C   0  0  1  0  0  0  0  0  0  0  0  0
   19.2542   -9.8315  -13.2335 C   0  0  0  0  0  0  0  0  0  0  0  0
   18.7083   -8.3043  -12.4207 S   0  0  0  0  0  0  0  0  0  0  0  0
   20.8164   -8.4510  -14.4543 C   0  0  0  0  0  0  0  0  0  0  0  0
   21.9583   -8.6870  -13.9908 O   0  0  0  0  0  0  0  0  0  0  0  0
   20.5300   -7.1169  -14.8548 N   0  0  0  0  0  0  0  0  0  0  0  0
   21.5295   -6.0669  -14.8446 C   0  0  1  0  0  0  0  0  0  0  0  0
   21.0493   -4.9074  -15.6928 C   0  0  0  0  0  0  0  0  0  0  0  0
   22.0854   -3.7895  -15.7185 C   0  0  0  0  0  0  0  0  0  0  0  0
   21.4903   -2.6874  -16.5545 C   0  0  0  0  0  0  0  0  0  0  0  0
   20.3744   -2.7635  -17.0872 O   0  0  0  0  0  0  0  0  0  0  0  0
   21.6582   -5.5678  -13.4506 C   0  0  0  0  0  0  0  0  0  0  0  0
   20.6933   -5.5107  -12.6469 O   0  0  0  0  0  0  0  0  0  0  0  0
   22.2556   -1.5387  -16.7187 O   0  0  0  0  0  0  0  0  0  0  0  0
   22.8946   -5.1289  -12.9633 O   0  0  0  0  0  0  0  0  0  0  0  0
  2  1  1  6
  2  5  1  0
  3  2  1  0
  4  3  1  0
  5  6  2  0
  7  5  1  0
  7  8  1  0
  8 11  1  0
  8  9  1  1
 10  9  1  0
 11 13  1  0
 11 12  2  0
 13 14  1  0
 14 15  1  6
 15 16  1  0
 17 16  1  0
 18 17  2  0
 19 14  1  0
 19 22  1  0
 20 19  2  0
 21 17  1  0
M  END
$$$$
