CCE.pdb
     RDKit          3D

 22 21  0  0  1  0  0  0  0  0999 V2000
   14.8365  -12.9127  -14.4768 N   0  0  0  0  0  0  0  0  0  0  0  0
   16.0178  -12.1096  -14.4819 C   0  0  1  0  0  0  0  0  0  0  0  0
   16.4204  -11.7941  -15.8975 C   0  0  0  0  0  0  0  0  0  0  0  0
   17.0998  -13.3244  -16.6299 S   0  0  0  0  0  0  0  0  0  0  0  0
   15.9092  -10.8985  -13.6389 C   0  0  0  0  0  0  0  0  0  0  0  0
   14.7659  -10.5174  -13.2797 O   0  0  0  0  0  0  0  0  0  0  0  0
   17.0155  -10.1287  -13.2024 N   0  0  0  0  0  0  0  0  0  0  0  0
   16.9083   -9.0028  -12.2981 C   0  0  1  0  0  0  0  0  0  0  0  0
   16.2997   -9.4009  -10.9719 C   0  0  0  0  0  0  0  0  0  0  0  0
   16.3232   -7.9388   -9.8983 S   0  0  0  0  0  0  0  0  0  0  0  0
   18.1993   -8.3547  -12.0365 C   0  0  0  0  0  0  0  0  0  0  0  0
   19.1264   -8.8696  -11.3659 O   0  0  0  0  0  0  0  0  0  0  0  0
   18.4180   -7.0577  -12.5770 N   0  0  0  0  0  0  0  0  0  0  0  0
   19.7037   -6.6349  -13.0965 C   0  0  1  0  0  0  0  0  0  0  0  0
   20.1360   -7.5796  -14.1988 C   0  0  0  0  0  0  0  0  0  0  0  0
   21.5135   -7.1990  -14.7292 C   0  0  0  0  0  0  0  0  0  0  0  0
   21.8455   -8.2106  -15.7941 C   0  0  0  0  0  0  0  0  0  0  0  0
   22.7865   -9.0113  -15.7031 O   0  0  0  0  0  0  0  0  0  0  0  0
   19.5327   -5.2923  -13.7107 C   0  0  0  0  0  0  0  0  0  0  0  0
   18.4362   -4.8753  -14.1625 O   0  0  0  0  0  0  0  0  0  0  0  0
   21.0373   -8.2226  -16.9249 O   0  0  0  0  0  0  0  0  0  0  0  0
   20.6172   -4.4135  -13.8133 O   0  0  0  0  0  0  0  0  0  0  0  0
  2  1  1  6
  2  5  1  0
  3  2  1  0
  4  3  1  0
  5  6  2  0
  7  5  1  0
  7  8  1  0
  8 11  1  0
  8  9  1  1
 10  9  1  0
 11 13  1  0
 11 12  2  0
 13 14  1  0
 14 15  1  6
 15 16  1  0
 17 16  1  0
 18 17  2  0
 19 14  1  0
 19 22  1  0
 20 19  2  0
 21 17  1  0
M  END
$$$$
