CCE.pdb
     RDKit          3D

 22 21  0  0  1  0  0  0  0  0999 V2000
   21.8732  -12.7548  -19.7530 N   0  0  0  0  0  0  0  0  0  0  0  0
   22.5794  -11.5250  -19.5815 C   0  0  1  0  0  0  0  0  0  0  0  0
   22.2846  -10.5970  -20.7293 C   0  0  0  0  0  0  0  0  0  0  0  0
   23.2138  -11.2052  -22.1807 S   0  0  0  0  0  0  0  0  0  0  0  0
   22.3463  -10.8918  -18.2647 C   0  0  0  0  0  0  0  0  0  0  0  0
   21.1746  -10.5499  -17.9617 O   0  0  0  0  0  0  0  0  0  0  0  0
   23.3620  -10.6404  -17.3096 N   0  0  0  0  0  0  0  0  0  0  0  0
   23.1221  -10.0294  -16.0189 C   0  0  1  0  0  0  0  0  0  0  0  0
   24.1809  -10.4116  -15.0086 C   0  0  0  0  0  0  0  0  0  0  0  0
   23.9723  -12.1751  -14.6382 S   0  0  0  0  0  0  0  0  0  0  0  0
   23.0547   -8.5643  -16.0836 C   0  0  0  0  0  0  0  0  0  0  0  0
   23.9151   -7.8405  -16.6406 O   0  0  0  0  0  0  0  0  0  0  0  0
   21.9426   -7.9186  -15.4766 N   0  0  0  0  0  0  0  0  0  0  0  0
   21.7586   -6.4812  -15.5134 C   0  0  1  0  0  0  0  0  0  0  0  0
   20.3224   -6.1673  -15.8788 C   0  0  0  0  0  0  0  0  0  0  0  0
   20.0722   -4.6639  -15.8498 C   0  0  0  0  0  0  0  0  0  0  0  0
   18.6113   -4.4772  -16.1638 C   0  0  0  0  0  0  0  0  0  0  0  0
   17.8374   -5.4182  -16.3883 O   0  0  0  0  0  0  0  0  0  0  0  0
   21.9889   -5.9526  -14.1436 C   0  0  0  0  0  0  0  0  0  0  0  0
   21.8582   -6.6486  -13.1050 O   0  0  0  0  0  0  0  0  0  0  0  0
   18.1364   -3.1713  -16.1963 O   0  0  0  0  0  0  0  0  0  0  0  0
   22.3717   -4.6203  -13.9501 O   0  0  0  0  0  0  0  0  0  0  0  0
  2  1  1  6
  2  5  1  0
  3  2  1  0
  4  3  1  0
  5  6  2  0
  7  5  1  0
  7  8  1  0
  8 11  1  0
  8  9  1  1
 10  9  1  0
 11 13  1  0
 11 12  2  0
 13 14  1  0
 14 15  1  1
 15 16  1  0
 17 16  1  0
 18 17  2  0
 19 14  1  0
 19 22  1  0
 20 19  2  0
 21 17  1  0
M  END
$$$$
