CCE.pdb
     RDKit          3D

 22 21  0  0  1  0  0  0  0  0999 V2000
   20.0831  -14.3827  -15.6184 N   0  0  0  0  0  0  0  0  0  0  0  0
   20.6775  -13.6157  -16.6667 C   0  0  1  0  0  0  0  0  0  0  0  0
   19.6957  -13.4344  -17.7931 C   0  0  0  0  0  0  0  0  0  0  0  0
   19.3668  -15.0843  -18.5067 S   0  0  0  0  0  0  0  0  0  0  0  0
   21.2538  -12.3341  -16.2035 C   0  0  0  0  0  0  0  0  0  0  0  0
   20.5967  -11.6409  -15.3855 O   0  0  0  0  0  0  0  0  0  0  0  0
   22.5087  -11.8265  -16.6215 N   0  0  0  0  0  0  0  0  0  0  0  0
   23.0700  -10.5767  -16.1526 C   0  0  1  0  0  0  0  0  0  0  0  0
   24.5819  -10.5875  -16.1927 C   0  0  0  0  0  0  0  0  0  0  0  0
   25.1565  -11.6814  -14.8646 S   0  0  0  0  0  0  0  0  0  0  0  0
   22.5972   -9.4155  -16.9163 C   0  0  0  0  0  0  0  0  0  0  0  0
   22.5697   -9.3564  -18.1693 O   0  0  0  0  0  0  0  0  0  0  0  0
   22.1389   -8.2806  -16.1923 N   0  0  0  0  0  0  0  0  0  0  0  0
   21.5755   -7.1143  -16.8434 C   0  0  1  0  0  0  0  0  0  0  0  0
   20.7523   -6.3288  -15.8435 C   0  0  0  0  0  0  0  0  0  0  0  0
   20.0512   -5.1569  -16.5207 C   0  0  0  0  0  0  0  0  0  0  0  0
   19.2538   -4.4684  -15.4447 C   0  0  0  0  0  0  0  0  0  0  0  0
   19.2430   -4.8391  -14.2625 O   0  0  0  0  0  0  0  0  0  0  0  0
   22.6980   -6.2395  -17.2719 C   0  0  0  0  0  0  0  0  0  0  0  0
   23.7526   -6.0938  -16.6035 O   0  0  0  0  0  0  0  0  0  0  0  0
   18.5017   -3.3640  -15.8276 O   0  0  0  0  0  0  0  0  0  0  0  0
   22.6231   -5.5224  -18.4716 O   0  0  0  0  0  0  0  0  0  0  0  0
  2  1  1  1
  2  5  1  0
  3  2  1  0
  4  3  1  0
  5  6  2  0
  7  5  1  0
  7  8  1  0
  8 11  1  0
  8  9  1  6
 10  9  1  0
 11 13  1  0
 11 12  2  0
 13 14  1  0
 14 15  1  1
 15 16  1  0
 17 16  1  0
 18 17  2  0
 19 14  1  0
 19 22  1  0
 20 19  2  0
 21 17  1  0
M  END
$$$$
