CCE.pdb
     RDKit          3D

 22 21  0  0  1  0  0  0  0  0999 V2000
   22.4634  -12.3873  -18.2083 N   0  0  0  0  0  0  0  0  0  0  0  0
   21.0888  -12.2107  -17.8623 C   0  0  1  0  0  0  0  0  0  0  0  0
   20.5676  -13.4444  -17.1754 C   0  0  0  0  0  0  0  0  0  0  0  0
   20.8086  -14.8520  -18.3158 S   0  0  0  0  0  0  0  0  0  0  0  0
   20.8315  -10.9771  -17.0868 C   0  0  0  0  0  0  0  0  0  0  0  0
   19.6506  -10.7234  -16.7366 O   0  0  0  0  0  0  0  0  0  0  0  0
   21.8333  -10.0506  -16.7065 N   0  0  0  0  0  0  0  0  0  0  0  0
   21.5775   -8.8661  -15.9137 C   0  0  1  0  0  0  0  0  0  0  0  0
   22.6615   -8.6310  -14.8854 C   0  0  0  0  0  0  0  0  0  0  0  0
   22.2863   -9.6715  -13.4475 S   0  0  0  0  0  0  0  0  0  0  0  0
   21.4433   -7.6516  -16.7274 C   0  0  0  0  0  0  0  0  0  0  0  0
   22.3159   -7.2361  -17.5276 O   0  0  0  0  0  0  0  0  0  0  0  0
   20.2469   -6.8929  -16.6040 N   0  0  0  0  0  0  0  0  0  0  0  0
   20.0369   -5.6452  -17.3116 C   0  0  1  0  0  0  0  0  0  0  0  0
   18.5780   -5.2502  -17.2124 C   0  0  0  0  0  0  0  0  0  0  0  0
   17.7065   -6.1827  -18.0459 C   0  0  0  0  0  0  0  0  0  0  0  0
   16.3977   -6.3001  -17.3104 C   0  0  0  0  0  0  0  0  0  0  0  0
   15.2950   -6.1465  -17.8540 O   0  0  0  0  0  0  0  0  0  0  0  0
   20.8256   -4.5888  -16.6253 C   0  0  0  0  0  0  0  0  0  0  0  0
   21.2989   -3.5866  -17.2185 O   0  0  0  0  0  0  0  0  0  0  0  0
   16.4622   -6.5967  -15.9540 O   0  0  0  0  0  0  0  0  0  0  0  0
   21.0801   -4.6704  -15.2514 O   0  0  0  0  0  0  0  0  0  0  0  0
  2  1  1  1
  2  5  1  0
  3  2  1  0
  4  3  1  0
  5  6  2  0
  7  5  1  0
  7  8  1  0
  8 11  1  0
  8  9  1  1
 10  9  1  0
 11 13  1  0
 11 12  2  0
 13 14  1  0
 14 15  1  1
 15 16  1  0
 17 16  1  0
 18 17  2  0
 19 14  1  0
 19 22  1  0
 20 19  2  0
 21 17  1  0
M  END
$$$$
