CCE.pdb
     RDKit          3D

 22 21  0  0  1  0  0  0  0  0999 V2000
   15.6713  -12.9847  -11.1470 N   0  0  0  0  0  0  0  0  0  0  0  0
   15.3506  -12.0792  -12.2042 C   0  0  1  0  0  0  0  0  0  0  0  0
   14.0749  -12.5062  -12.8794 C   0  0  0  0  0  0  0  0  0  0  0  0
   14.2856  -14.2441  -13.4040 S   0  0  0  0  0  0  0  0  0  0  0  0
   15.3205  -10.6630  -11.7766 C   0  0  0  0  0  0  0  0  0  0  0  0
   15.1852   -9.7733  -12.6550 O   0  0  0  0  0  0  0  0  0  0  0  0
   15.4348  -10.2334  -10.4315 N   0  0  0  0  0  0  0  0  0  0  0  0
   15.3559   -8.8480  -10.0178 C   0  0  1  0  0  0  0  0  0  0  0  0
   14.5135   -8.6784   -8.7731 C   0  0  0  0  0  0  0  0  0  0  0  0
   12.9593   -9.5756   -9.0381 S   0  0  0  0  0  0  0  0  0  0  0  0
   16.6732   -8.2502   -9.7674 C   0  0  0  0  0  0  0  0  0  0  0  0
   17.4978   -8.6821   -8.9261 O   0  0  0  0  0  0  0  0  0  0  0  0
   17.0435   -7.1061  -10.5265 N   0  0  0  0  0  0  0  0  0  0  0  0
   18.3318   -6.4571  -10.3828 C   0  0  1  0  0  0  0  0  0  0  0  0
   19.1292   -6.6345  -11.6584 C   0  0  0  0  0  0  0  0  0  0  0  0
   20.4439   -5.8663  -11.5867 C   0  0  0  0  0  0  0  0  0  0  0  0
   21.1929   -6.2010  -12.8495 C   0  0  0  0  0  0  0  0  0  0  0  0
   20.7726   -6.9982  -13.6995 O   0  0  0  0  0  0  0  0  0  0  0  0
   18.0962   -4.9997  -10.2111 C   0  0  0  0  0  0  0  0  0  0  0  0
   18.9338   -4.2230   -9.6864 O   0  0  0  0  0  0  0  0  0  0  0  0
   22.4149   -5.5675  -13.0432 O   0  0  0  0  0  0  0  0  0  0  0  0
   16.8976   -4.4176  -10.6392 O   0  0  0  0  0  0  0  0  0  0  0  0
  2  1  1  1
  2  5  1  0
  3  2  1  0
  4  3  1  0
  5  6  2  0
  7  5  1  0
  7  8  1  0
  8 11  1  0
  8  9  1  1
 10  9  1  0
 11 13  1  0
 11 12  2  0
 13 14  1  0
 14 15  1  6
 15 16  1  0
 17 16  1  0
 18 17  2  0
 19 14  1  0
 19 22  1  0
 20 19  2  0
 21 17  1  0
M  END
$$$$
