CCE.pdb
     RDKit          3D

 22 21  0  0  1  0  0  0  0  0999 V2000
   16.9275  -10.8782  -18.0696 N   0  0  0  0  0  0  0  0  0  0  0  0
   18.3065  -10.6445  -17.7795 C   0  0  1  0  0  0  0  0  0  0  0  0
   19.0375  -10.2498  -19.0346 C   0  0  0  0  0  0  0  0  0  0  0  0
   18.4750   -8.5728  -19.4941 S   0  0  0  0  0  0  0  0  0  0  0  0
   18.5203   -9.6866  -16.6723 C   0  0  0  0  0  0  0  0  0  0  0  0
   17.6764   -8.7704  -16.4995 O   0  0  0  0  0  0  0  0  0  0  0  0
   19.6218   -9.7290  -15.7824 N   0  0  0  0  0  0  0  0  0  0  0  0
   19.8441   -8.7624  -14.7274 C   0  0  1  0  0  0  0  0  0  0  0  0
   20.3238   -9.4198  -13.4524 C   0  0  0  0  0  0  0  0  0  0  0  0
   20.2867   -8.1653  -12.1427 S   0  0  0  0  0  0  0  0  0  0  0  0
   20.8094   -7.7211  -15.1002 C   0  0  0  0  0  0  0  0  0  0  0  0
   21.9044   -7.9431  -15.6712 O   0  0  0  0  0  0  0  0  0  0  0  0
   20.4862   -6.3700  -14.7961 N   0  0  0  0  0  0  0  0  0  0  0  0
   21.3655   -5.2644  -15.1219 C   0  0  1  0  0  0  0  0  0  0  0  0
   20.5355   -4.0671  -15.5364 C   0  0  0  0  0  0  0  0  0  0  0  0
   19.9803   -4.2538  -16.9437 C   0  0  0  0  0  0  0  0  0  0  0  0
   18.5256   -4.6051  -16.7759 C   0  0  0  0  0  0  0  0  0  0  0  0
   17.8618   -4.2980  -15.7759 O   0  0  0  0  0  0  0  0  0  0  0  0
   22.1014   -4.8830  -13.8882 C   0  0  0  0  0  0  0  0  0  0  0  0
   21.8652   -5.3866  -12.7609 O   0  0  0  0  0  0  0  0  0  0  0  0
   17.9246   -5.3099  -17.8123 O   0  0  0  0  0  0  0  0  0  0  0  0
   23.1161   -3.9200  -13.9342 O   0  0  0  0  0  0  0  0  0  0  0  0
  2  1  1  6
  2  5  1  0
  3  2  1  0
  4  3  1  0
  5  6  2  0
  7  5  1  0
  7  8  1  0
  8 11  1  0
  8  9  1  1
 10  9  1  0
 11 13  1  0
 11 12  2  0
 13 14  1  0
 14 15  1  1
 15 16  1  0
 17 16  1  0
 18 17  2  0
 19 14  1  0
 19 22  1  0
 20 19  2  0
 21 17  1  0
M  END
$$$$
