CCE.pdb
     RDKit          3D

 22 21  0  0  1  0  0  0  0  0999 V2000
   18.7082  -12.0278  -17.7624 N   0  0  0  0  0  0  0  0  0  0  0  0
   19.6221  -10.9779  -18.0834 C   0  0  1  0  0  0  0  0  0  0  0  0
   18.9831  -10.0152  -19.0479 C   0  0  0  0  0  0  0  0  0  0  0  0
   18.7728  -10.8892  -20.6390 S   0  0  0  0  0  0  0  0  0  0  0  0
   20.1822  -10.3014  -16.8927 C   0  0  0  0  0  0  0  0  0  0  0  0
   19.3883   -9.8716  -16.0172 O   0  0  0  0  0  0  0  0  0  0  0  0
   21.5663  -10.1011  -16.6664 N   0  0  0  0  0  0  0  0  0  0  0  0
   22.1004   -9.3419  -15.5551 C   0  0  1  0  0  0  0  0  0  0  0  0
   23.4319   -9.8867  -15.0881 C   0  0  0  0  0  0  0  0  0  0  0  0
   23.1157  -11.4710  -14.2630 S   0  0  0  0  0  0  0  0  0  0  0  0
   22.2688   -7.9167  -15.8647 C   0  0  0  0  0  0  0  0  0  0  0  0
   22.8426   -7.4788  -16.8911 O   0  0  0  0  0  0  0  0  0  0  0  0
   21.7488   -6.9663  -14.9436 N   0  0  0  0  0  0  0  0  0  0  0  0
   21.7944   -5.5378  -15.1863 C   0  0  1  0  0  0  0  0  0  0  0  0
   20.3938   -5.0290  -15.4581 C   0  0  0  0  0  0  0  0  0  0  0  0
   20.4065   -3.5305  -15.7373 C   0  0  0  0  0  0  0  0  0  0  0  0
   18.9775   -3.1449  -16.0147 C   0  0  0  0  0  0  0  0  0  0  0  0
   18.3086   -3.6289  -16.9384 O   0  0  0  0  0  0  0  0  0  0  0  0
   22.2691   -4.8750  -13.9436 C   0  0  0  0  0  0  0  0  0  0  0  0
   22.1788   -5.3995  -12.8047 O   0  0  0  0  0  0  0  0  0  0  0  0
   18.4073   -2.1954  -15.1748 O   0  0  0  0  0  0  0  0  0  0  0  0
   22.8524   -3.6037  -13.9936 O   0  0  0  0  0  0  0  0  0  0  0  0
  2  1  1  1
  2  5  1  0
  3  2  1  0
  4  3  1  0
  5  6  2  0
  7  5  1  0
  7  8  1  0
  8 11  1  0
  8  9  1  6
 10  9  1  0
 11 13  1  0
 11 12  2  0
 13 14  1  0
 14 15  1  1
 15 16  1  0
 17 16  1  0
 18 17  2  0
 19 14  1  0
 19 22  1  0
 20 19  2  0
 21 17  1  0
M  END
$$$$
