CCE.pdb
     RDKit          3D

 22 21  0  0  1  0  0  0  0  0999 V2000
   25.1600  -15.2627  -17.9186 N   0  0  0  0  0  0  0  0  0  0  0  0
   25.1853  -13.9785  -18.5437 C   0  0  1  0  0  0  0  0  0  0  0  0
   24.1841  -13.9322  -19.6666 C   0  0  0  0  0  0  0  0  0  0  0  0
   24.7966  -15.0277  -20.9949 S   0  0  0  0  0  0  0  0  0  0  0  0
   25.0232  -12.8577  -17.5915 C   0  0  0  0  0  0  0  0  0  0  0  0
   24.1501  -12.9555  -16.6918 O   0  0  0  0  0  0  0  0  0  0  0  0
   25.7914  -11.6678  -17.6220 N   0  0  0  0  0  0  0  0  0  0  0  0
   25.5815  -10.5489  -16.7271 C   0  0  1  0  0  0  0  0  0  0  0  0
   26.8855   -9.8976  -16.3231 C   0  0  0  0  0  0  0  0  0  0  0  0
   27.7373  -11.0332  -15.1938 S   0  0  0  0  0  0  0  0  0  0  0  0
   24.7082   -9.5162  -17.2982 C   0  0  0  0  0  0  0  0  0  0  0  0
   24.8419   -9.0336  -18.4486 O   0  0  0  0  0  0  0  0  0  0  0  0
   23.6388   -9.0276  -16.4982 N   0  0  0  0  0  0  0  0  0  0  0  0
   22.7021   -8.0281  -16.9727 C   0  0  1  0  0  0  0  0  0  0  0  0
   21.5623   -7.8975  -15.9837 C   0  0  0  0  0  0  0  0  0  0  0  0
   20.5984   -6.7963  -16.4104 C   0  0  0  0  0  0  0  0  0  0  0  0
   19.5612   -6.7041  -15.3225 C   0  0  0  0  0  0  0  0  0  0  0  0
   19.3917   -5.6927  -14.6273 O   0  0  0  0  0  0  0  0  0  0  0  0
   23.4050   -6.7191  -17.0084 C   0  0  0  0  0  0  0  0  0  0  0  0
   23.1787   -5.8384  -17.8764 O   0  0  0  0  0  0  0  0  0  0  0  0
   18.7691   -7.8265  -15.1111 O   0  0  0  0  0  0  0  0  0  0  0  0
   24.3749   -6.4060  -16.0491 O   0  0  0  0  0  0  0  0  0  0  0  0
  2  1  1  1
  2  5  1  0
  3  2  1  0
  4  3  1  0
  5  6  2  0
  7  5  1  0
  7  8  1  0
  8 11  1  0
  8  9  1  6
 10  9  1  0
 11 13  1  0
 11 12  2  0
 13 14  1  0
 14 15  1  1
 15 16  1  0
 17 16  1  0
 18 17  2  0
 19 14  1  0
 19 22  1  0
 20 19  2  0
 21 17  1  0
M  END
$$$$
