CCE.pdb
     RDKit          3D

 22 21  0  0  1  0  0  0  0  0999 V2000
   21.6013  -16.6964  -18.0799 N   0  0  0  0  0  0  0  0  0  0  0  0
   22.3474  -15.5630  -18.5264 C   0  0  1  0  0  0  0  0  0  0  0  0
   21.8110  -15.0808  -19.8475 C   0  0  0  0  0  0  0  0  0  0  0  0
   21.8705  -16.4882  -21.0118 S   0  0  0  0  0  0  0  0  0  0  0  0
   22.4339  -14.4822  -17.5197 C   0  0  0  0  0  0  0  0  0  0  0  0
   21.3806  -14.1195  -16.9361 O   0  0  0  0  0  0  0  0  0  0  0  0
   23.6337  -13.8190  -17.1626 N   0  0  0  0  0  0  0  0  0  0  0  0
   23.7177  -12.8001  -16.1371 C   0  0  1  0  0  0  0  0  0  0  0  0
   25.1443  -12.5613  -15.6950 C   0  0  0  0  0  0  0  0  0  0  0  0
   25.7509  -14.1002  -14.9501 S   0  0  0  0  0  0  0  0  0  0  0  0
   23.1451  -11.5158  -16.5590 C   0  0  0  0  0  0  0  0  0  0  0  0
   23.3009  -11.0116  -17.6973 O   0  0  0  0  0  0  0  0  0  0  0  0
   22.3612  -10.7920  -15.6188 N   0  0  0  0  0  0  0  0  0  0  0  0
   21.6784   -9.5586  -15.9564 C   0  0  1  0  0  0  0  0  0  0  0  0
   20.2039   -9.6968  -15.6384 C   0  0  0  0  0  0  0  0  0  0  0  0
   19.4427   -8.4389  -16.0408 C   0  0  0  0  0  0  0  0  0  0  0  0
   17.9974   -8.7009  -15.7090 C   0  0  0  0  0  0  0  0  0  0  0  0
   17.3953   -9.7278  -16.0522 O   0  0  0  0  0  0  0  0  0  0  0  0
   22.2167   -8.4815  -15.0850 C   0  0  0  0  0  0  0  0  0  0  0  0
   22.7405   -8.6993  -13.9633 O   0  0  0  0  0  0  0  0  0  0  0  0
   17.3317   -7.7226  -14.9797 O   0  0  0  0  0  0  0  0  0  0  0  0
   22.1599   -7.1432  -15.4908 O   0  0  0  0  0  0  0  0  0  0  0  0
  2  1  1  1
  2  5  1  0
  3  2  1  0
  4  3  1  0
  5  6  2  0
  7  5  1  0
  7  8  1  0
  8 11  1  0
  8  9  1  6
 10  9  1  0
 11 13  1  0
 11 12  2  0
 13 14  1  0
 14 15  1  1
 15 16  1  0
 17 16  1  0
 18 17  2  0
 19 14  1  0
 19 22  1  0
 20 19  2  0
 21 17  1  0
M  END
$$$$
