CCE.pdb
     RDKit          3D

 22 21  0  0  1  0  0  0  0  0999 V2000
   21.4996  -12.9345  -17.5705 N   0  0  0  0  0  0  0  0  0  0  0  0
   20.9272  -11.9407  -18.4221 C   0  0  1  0  0  0  0  0  0  0  0  0
   19.8637  -12.5569  -19.2909 C   0  0  0  0  0  0  0  0  0  0  0  0
   20.3119  -14.3097  -19.5489 S   0  0  0  0  0  0  0  0  0  0  0  0
   20.4438  -10.7481  -17.6918 C   0  0  0  0  0  0  0  0  0  0  0  0
   20.0401   -9.7597  -18.3564 O   0  0  0  0  0  0  0  0  0  0  0  0
   20.4029  -10.6397  -16.2799 N   0  0  0  0  0  0  0  0  0  0  0  0
   19.8941   -9.4822  -15.5741 C   0  0  1  0  0  0  0  0  0  0  0  0
   19.1662   -9.8699  -14.3063 C   0  0  0  0  0  0  0  0  0  0  0  0
   17.5564  -10.5540  -14.7871 S   0  0  0  0  0  0  0  0  0  0  0  0
   20.9446   -8.5177  -15.2256 C   0  0  0  0  0  0  0  0  0  0  0  0
   22.0633   -8.8307  -14.7514 O   0  0  0  0  0  0  0  0  0  0  0  0
   20.6814   -7.1365  -15.4381 N   0  0  0  0  0  0  0  0  0  0  0  0
   21.6804   -6.1087  -15.2204 C   0  0  1  0  0  0  0  0  0  0  0  0
   21.3972   -4.9315  -16.1307 C   0  0  0  0  0  0  0  0  0  0  0  0
   22.4133   -3.8174  -15.9073 C   0  0  0  0  0  0  0  0  0  0  0  0
   22.0304   -2.7073  -16.8501 C   0  0  0  0  0  0  0  0  0  0  0  0
   21.5060   -1.6484  -16.4780 O   0  0  0  0  0  0  0  0  0  0  0  0
   21.5454   -5.6248  -13.8216 C   0  0  0  0  0  0  0  0  0  0  0  0
   20.4761   -5.7026  -13.1653 O   0  0  0  0  0  0  0  0  0  0  0  0
   22.2909   -2.9103  -18.2003 O   0  0  0  0  0  0  0  0  0  0  0  0
   22.6352   -5.0467  -13.1606 O   0  0  0  0  0  0  0  0  0  0  0  0
  2  1  1  1
  2  5  1  0
  3  2  1  0
  4  3  1  0
  5  6  2  0
  7  5  1  0
  7  8  1  0
  8 11  1  0
  8  9  1  1
 10  9  1  0
 11 13  1  0
 11 12  2  0
 13 14  1  0
 14 15  1  6
 15 16  1  0
 17 16  1  0
 18 17  2  0
 19 14  1  0
 19 22  1  0
 20 19  2  0
 21 17  1  0
M  END
$$$$
