CCE.pdb
     RDKit          3D

 22 21  0  0  1  0  0  0  0  0999 V2000
   18.9446  -12.7093  -17.2123 N   0  0  0  0  0  0  0  0  0  0  0  0
   19.9628  -11.8426  -17.7149 C   0  0  1  0  0  0  0  0  0  0  0  0
   19.4867  -11.1617  -18.9700 C   0  0  0  0  0  0  0  0  0  0  0  0
   19.3080  -12.4457  -20.2581 S   0  0  0  0  0  0  0  0  0  0  0  0
   20.4706  -10.8856  -16.7071 C   0  0  0  0  0  0  0  0  0  0  0  0
   19.6446  -10.3214  -15.9450 O   0  0  0  0  0  0  0  0  0  0  0  0
   21.8380  -10.5561  -16.5381 N   0  0  0  0  0  0  0  0  0  0  0  0
   22.3207   -9.5819  -15.5816 C   0  0  1  0  0  0  0  0  0  0  0  0
   23.6865   -9.9478  -15.0446 C   0  0  0  0  0  0  0  0  0  0  0  0
   23.4399  -11.0712  -13.6418 S   0  0  0  0  0  0  0  0  0  0  0  0
   22.3918   -8.2240  -16.1350 C   0  0  0  0  0  0  0  0  0  0  0  0
   23.0045   -7.9200  -17.1868 O   0  0  0  0  0  0  0  0  0  0  0  0
   21.7235   -7.1813  -15.4361 N   0  0  0  0  0  0  0  0  0  0  0  0
   21.6568   -5.8229  -15.9379 C   0  0  1  0  0  0  0  0  0  0  0  0
   20.2419   -5.3020  -15.7920 C   0  0  0  0  0  0  0  0  0  0  0  0
   20.1566   -3.8400  -16.2153 C   0  0  0  0  0  0  0  0  0  0  0  0
   18.7084   -3.4498  -16.0807 C   0  0  0  0  0  0  0  0  0  0  0  0
   17.8225   -4.2354  -15.7159 O   0  0  0  0  0  0  0  0  0  0  0  0
   22.5277   -4.9737  -15.0838 C   0  0  0  0  0  0  0  0  0  0  0  0
   22.6769   -5.1610  -13.8498 O   0  0  0  0  0  0  0  0  0  0  0  0
   18.3796   -2.1348  -16.3883 O   0  0  0  0  0  0  0  0  0  0  0  0
   23.2369   -3.9007  -15.6358 O   0  0  0  0  0  0  0  0  0  0  0  0
  2  1  1  1
  2  5  1  0
  3  2  1  0
  4  3  1  0
  5  6  2  0
  7  5  1  0
  7  8  1  0
  8 11  1  0
  8  9  1  6
 10  9  1  0
 11 13  1  0
 11 12  2  0
 13 14  1  0
 14 15  1  1
 15 16  1  0
 17 16  1  0
 18 17  2  0
 19 14  1  0
 19 22  1  0
 20 19  2  0
 21 17  1  0
M  END
$$$$
