CCE.pdb
     RDKit          3D

 22 21  0  0  1  0  0  0  0  0999 V2000
   18.2830  -12.8631  -17.8676 N   0  0  0  0  0  0  0  0  0  0  0  0
   18.5378  -11.4763  -18.0962 C   0  0  1  0  0  0  0  0  0  0  0  0
   17.2486  -10.7570  -18.3902 C   0  0  0  0  0  0  0  0  0  0  0  0
   16.6580  -11.3315  -20.0214 S   0  0  0  0  0  0  0  0  0  0  0  0
   19.3120  -10.8340  -17.0112 C   0  0  0  0  0  0  0  0  0  0  0  0
   18.7385  -10.6125  -15.9142 O   0  0  0  0  0  0  0  0  0  0  0  0
   20.6701  -10.4463  -17.1222 N   0  0  0  0  0  0  0  0  0  0  0  0
   21.4116   -9.7933  -16.0637 C   0  0  1  0  0  0  0  0  0  0  0  0
   22.7778  -10.4120  -15.8678 C   0  0  0  0  0  0  0  0  0  0  0  0
   23.5586   -9.5789  -14.4581 S   0  0  0  0  0  0  0  0  0  0  0  0
   21.5863   -8.3536  -16.2920 C   0  0  0  0  0  0  0  0  0  0  0  0
   22.0594   -7.8563  -17.3423 O   0  0  0  0  0  0  0  0  0  0  0  0
   21.1946   -7.4601  -15.2574 N   0  0  0  0  0  0  0  0  0  0  0  0
   21.4261   -6.0309  -15.3308 C   0  0  1  0  0  0  0  0  0  0  0  0
   20.1061   -5.3178  -15.5393 C   0  0  0  0  0  0  0  0  0  0  0  0
   20.2937   -3.8058  -15.4914 C   0  0  0  0  0  0  0  0  0  0  0  0
   18.9306   -3.2080  -15.7201 C   0  0  0  0  0  0  0  0  0  0  0  0
   17.9019   -3.8867  -15.8462 O   0  0  0  0  0  0  0  0  0  0  0  0
   21.9643   -5.5842  -14.0194 C   0  0  0  0  0  0  0  0  0  0  0  0
   21.8751   -6.2680  -12.9683 O   0  0  0  0  0  0  0  0  0  0  0  0
   18.8546   -1.8218  -15.7884 O   0  0  0  0  0  0  0  0  0  0  0  0
   22.6106   -4.3485  -13.8993 O   0  0  0  0  0  0  0  0  0  0  0  0
  2  1  1  1
  2  5  1  0
  3  2  1  0
  4  3  1  0
  5  6  2  0
  7  5  1  0
  7  8  1  0
  8 11  1  0
  8  9  1  6
 10  9  1  0
 11 13  1  0
 11 12  2  0
 13 14  1  0
 14 15  1  1
 15 16  1  0
 17 16  1  0
 18 17  2  0
 19 14  1  0
 19 22  1  0
 20 19  2  0
 21 17  1  0
M  END
$$$$
