TGV.pdb
     RDKit          3D

 19 18  0  0  1  0  0  0  0  0999 V2000
   18.8543  -16.4970  -18.6950 C   0  0  0  0  0  0  0  0  0  0  0  0
   17.9061  -15.3428  -18.5776 C   0  0  1  0  0  0  0  0  0  0  0  0
   16.6060  -15.7909  -18.2484 O   0  0  0  0  0  0  0  0  0  0  0  0
   18.3386  -14.4617  -17.4160 C   0  0  2  0  0  0  0  0  0  0  0  0
   17.3435  -13.4230  -17.2979 N   0  0  0  0  0  0  0  0  0  0  0  0
   19.6524  -13.8345  -17.6676 C   0  0  0  0  0  0  0  0  0  0  0  0
   20.7183  -14.5366  -17.7713 O   0  0  0  0  0  0  0  0  0  0  0  0
   19.8241  -12.4465  -17.8088 N   0  0  0  0  0  0  0  0  0  0  0  0
   21.1097  -11.8273  -18.0808 C   0  0  0  0  0  0  0  0  0  0  0  0
   21.6766  -11.3340  -16.7855 C   0  0  0  0  0  0  0  0  0  0  0  0
   21.0544  -11.5499  -15.6963 O   0  0  0  0  0  0  0  0  0  0  0  0
   25.4549  -10.2627  -13.9444 C   0  0  0  0  0  0  0  0  0  0  0  0
   24.9229  -10.5836  -15.3421 C   0  0  2  0  0  0  0  0  0  0  0  0
   25.6360   -9.7370  -16.3758 C   0  0  0  0  0  0  0  0  0  0  0  0
   23.4479  -10.2622  -15.4342 C   0  0  2  0  0  0  0  0  0  0  0  0
   22.8943  -10.6256  -16.7132 N   0  0  0  0  0  0  0  0  0  0  0  0
   23.2556   -8.8261  -15.1645 C   0  0  0  0  0  0  0  0  0  0  0  0
   23.1811   -7.9864  -16.0785 O   0  0  0  0  0  0  0  0  0  0  0  0
   23.1550   -8.4015  -13.8528 O   0  0  0  0  0  0  0  0  0  0  0  0
  2  1  1  1
  2  3  1  0
  4  6  1  0
  4  2  1  0
  4  5  1  6
  6  7  2  0
  6  8  1  0
  8  9  1  0
  9 10  1  0
 10 11  2  0
 13 12  1  1
 13 15  1  0
 14 13  1  0
 15 17  1  0
 16 10  1  0
 15 16  1  6
 17 18  2  0
 17 19  1  0
M  END
$$$$
