TGV.pdb
     RDKit          3D

 19 18  0  0  1  0  0  0  0  0999 V2000
   16.5883  -12.4130  -17.7259 C   0  0  0  0  0  0  0  0  0  0  0  0
   17.3604  -13.6970  -17.7341 C   0  0  1  0  0  0  0  0  0  0  0  0
   16.5248  -14.7847  -18.0777 O   0  0  0  0  0  0  0  0  0  0  0  0
   18.4158  -13.6342  -18.8272 C   0  0  2  0  0  0  0  0  0  0  0  0
   18.9743  -14.9608  -18.9333 N   0  0  0  0  0  0  0  0  0  0  0  0
   19.4985  -12.6888  -18.4855 C   0  0  0  0  0  0  0  0  0  0  0  0
   20.6032  -13.0935  -17.9801 O   0  0  0  0  0  0  0  0  0  0  0  0
   19.3958  -11.3014  -18.6871 N   0  0  0  0  0  0  0  0  0  0  0  0
   20.4781  -10.3742  -18.4059 C   0  0  0  0  0  0  0  0  0  0  0  0
   20.4515  -10.0511  -16.9438 C   0  0  0  0  0  0  0  0  0  0  0  0
   19.4956  -10.4730  -16.2171 O   0  0  0  0  0  0  0  0  0  0  0  0
   23.9639   -9.1302  -14.8788 C   0  0  0  0  0  0  0  0  0  0  0  0
   22.6994   -9.7233  -14.2552 C   0  0  2  0  0  0  0  0  0  0  0  0
   22.6519  -11.2173  -14.4994 C   0  0  0  0  0  0  0  0  0  0  0  0
   21.4644   -9.1224  -14.8887 C   0  0  2  0  0  0  0  0  0  0  0  0
   21.4577   -9.2842  -16.3198 N   0  0  0  0  0  0  0  0  0  0  0  0
   21.3839   -7.6982  -14.5180 C   0  0  0  0  0  0  0  0  0  0  0  0
   21.6235   -6.7892  -15.3318 O   0  0  0  0  0  0  0  0  0  0  0  0
   21.0304   -7.3649  -13.2239 O   0  0  0  0  0  0  0  0  0  0  0  0
  2  1  1  6
  2  3  1  0
  4  6  1  0
  4  2  1  0
  4  5  1  1
  6  7  2  0
  6  8  1  0
  8  9  1  0
  9 10  1  0
 10 11  2  0
 13 12  1  6
 13 15  1  0
 14 13  1  0
 15 17  1  0
 16 10  1  0
 15 16  1  6
 17 18  2  0
 17 19  1  0
M  END
$$$$
