TGV.pdb
     RDKit          3D

 19 18  0  0  1  0  0  0  0  0999 V2000
   18.2443  -12.9738  -16.0330 C   0  0  0  0  0  0  0  0  0  0  0  0
   16.7834  -12.7009  -16.2240 C   0  0  1  0  0  0  0  0  0  0  0  0
   16.0035  -13.7819  -15.7523 O   0  0  0  0  0  0  0  0  0  0  0  0
   16.3855  -11.5086  -15.3678 C   0  0  2  0  0  0  0  0  0  0  0  0
   14.9527  -11.3810  -15.4849 N   0  0  0  0  0  0  0  0  0  0  0  0
   17.0144  -10.2602  -15.8462 C   0  0  0  0  0  0  0  0  0  0  0  0
   16.6753   -9.7261  -16.9595 O   0  0  0  0  0  0  0  0  0  0  0  0
   18.0126   -9.5808  -15.1264 N   0  0  0  0  0  0  0  0  0  0  0  0
   18.6305   -8.3507  -15.5904 C   0  0  0  0  0  0  0  0  0  0  0  0
   19.6658   -7.9390  -14.5898 C   0  0  0  0  0  0  0  0  0  0  0  0
   19.6215   -8.3986  -13.4038 O   0  0  0  0  0  0  0  0  0  0  0  0
   23.4424   -6.8907  -15.8120 C   0  0  0  0  0  0  0  0  0  0  0  0
   23.0846   -7.3908  -14.4115 C   0  0  2  0  0  0  0  0  0  0  0  0
   22.9253   -8.8969  -14.4232 C   0  0  0  0  0  0  0  0  0  0  0  0
   21.7677   -6.8006  -13.9587 C   0  0  2  0  0  0  0  0  0  0  0  0
   20.7111   -7.0461  -14.9061 N   0  0  0  0  0  0  0  0  0  0  0  0
   21.9468   -5.3557  -13.7301 C   0  0  0  0  0  0  0  0  0  0  0  0
   21.5030   -4.5023  -14.5179 O   0  0  0  0  0  0  0  0  0  0  0  0
   22.6301   -4.9384  -12.6033 O   0  0  0  0  0  0  0  0  0  0  0  0
  2  1  1  1
  2  3  1  0
  4  6  1  0
  4  2  1  0
  4  5  1  6
  6  7  2  0
  6  8  1  0
  8  9  1  0
  9 10  1  0
 10 11  2  0
 13 12  1  6
 13 15  1  0
 14 13  1  0
 15 17  1  0
 16 10  1  0
 15 16  1  6
 17 18  2  0
 17 19  1  0
M  END
$$$$
