TGV.pdb
     RDKit          3D

 19 18  0  0  1  0  0  0  0  0999 V2000
   13.9892  -12.3877  -16.4563 C   0  0  0  0  0  0  0  0  0  0  0  0
   15.4077  -12.5183  -15.9917 C   0  0  1  0  0  0  0  0  0  0  0  0
   16.2543  -12.8959  -17.0593 O   0  0  0  0  0  0  0  0  0  0  0  0
   15.9085  -11.1558  -15.5381 C   0  0  2  0  0  0  0  0  0  0  0  0
   17.3372  -11.2790  -15.3743 N   0  0  0  0  0  0  0  0  0  0  0  0
   15.3143  -10.7598  -14.2448 C   0  0  0  0  0  0  0  0  0  0  0  0
   15.6359  -11.3487  -13.1542 O   0  0  0  0  0  0  0  0  0  0  0  0
   14.3698   -9.7261  -14.1204 N   0  0  0  0  0  0  0  0  0  0  0  0
   13.7011   -9.4053  -12.8713 C   0  0  0  0  0  0  0  0  0  0  0  0
   14.5511   -8.4264  -12.1218 C   0  0  0  0  0  0  0  0  0  0  0  0
   15.4699   -7.7876  -12.7282 O   0  0  0  0  0  0  0  0  0  0  0  0
   13.2819   -6.4699   -8.6766 C   0  0  0  0  0  0  0  0  0  0  0  0
   14.7402   -6.9313   -8.6653 C   0  0  2  0  0  0  0  0  0  0  0  0
   15.6252   -5.8407   -8.0984 C   0  0  0  0  0  0  0  0  0  0  0  0
   15.2171   -7.2145  -10.0724 C   0  0  2  0  0  0  0  0  0  0  0  0
   14.3782   -8.1728  -10.7449 N   0  0  0  0  0  0  0  0  0  0  0  0
   16.6136   -7.6823  -10.0169 C   0  0  0  0  0  0  0  0  0  0  0  0
   16.9052   -8.8612   -9.7502 O   0  0  0  0  0  0  0  0  0  0  0  0
   17.6298   -6.7800  -10.2699 O   0  0  0  0  0  0  0  0  0  0  0  0
  2  1  1  6
  2  3  1  0
  4  6  1  0
  4  2  1  0
  4  5  1  1
  6  7  2  0
  6  8  1  0
  8  9  1  0
  9 10  1  0
 10 11  2  0
 13 12  1  6
 13 15  1  0
 14 13  1  0
 15 17  1  0
 16 10  1  0
 15 16  1  1
 17 18  2  0
 17 19  1  0
M  END
$$$$
