TGV.pdb
     RDKit          3D

 19 18  0  0  1  0  0  0  0  0999 V2000
   18.6812  -13.5756  -18.6264 C   0  0  0  0  0  0  0  0  0  0  0  0
   19.4556  -14.8580  -18.6516 C   0  0  1  0  0  0  0  0  0  0  0  0
   19.1444  -15.6113  -19.8070 O   0  0  0  0  0  0  0  0  0  0  0  0
   20.9387  -14.5398  -18.7611 C   0  0  2  0  0  0  0  0  0  0  0  0
   21.6197  -15.8052  -18.8950 N   0  0  0  0  0  0  0  0  0  0  0  0
   21.4400  -13.8560  -17.5512 C   0  0  0  0  0  0  0  0  0  0  0  0
   21.8975  -14.5150  -16.5532 O   0  0  0  0  0  0  0  0  0  0  0  0
   21.4507  -12.4573  -17.4109 N   0  0  0  0  0  0  0  0  0  0  0  0
   21.9632  -11.7797  -16.2326 C   0  0  0  0  0  0  0  0  0  0  0  0
   21.6690  -10.3175  -16.3667 C   0  0  0  0  0  0  0  0  0  0  0  0
   21.7381   -9.7574  -17.5075 O   0  0  0  0  0  0  0  0  0  0  0  0
   18.6640   -8.4741  -14.4635 C   0  0  0  0  0  0  0  0  0  0  0  0
   19.4426   -7.9875  -15.6868 C   0  0  2  0  0  0  0  0  0  0  0  0
   19.0810   -8.8222  -16.8978 C   0  0  0  0  0  0  0  0  0  0  0  0
   20.9306   -8.1383  -15.4621 C   0  0  2  0  0  0  0  0  0  0  0  0
   21.3108   -9.5134  -15.2644 N   0  0  0  0  0  0  0  0  0  0  0  0
   21.3245   -7.3105  -14.3081 C   0  0  0  0  0  0  0  0  0  0  0  0
   21.5731   -7.8049  -13.1946 O   0  0  0  0  0  0  0  0  0  0  0  0
   21.4197   -5.9412  -14.4712 O   0  0  0  0  0  0  0  0  0  0  0  0
  2  1  1  6
  2  3  1  0
  4  6  1  0
  4  2  1  0
  4  5  1  1
  6  7  2  0
  6  8  1  0
  8  9  1  0
  9 10  1  0
 10 11  2  0
 13 12  1  1
 13 15  1  0
 14 13  1  0
 15 17  1  0
 16 10  1  0
 15 16  1  1
 17 18  2  0
 17 19  1  0
M  END
$$$$
