TGV.pdb
     RDKit          3D

 19 18  0  0  1  0  0  0  0  0999 V2000
   26.4172  -22.3236  -12.7304 C   0  0  0  0  0  0  0  0  0  0  0  0
   25.1676  -21.5481  -13.0170 C   0  0  1  0  0  0  0  0  0  0  0  0
   24.2030  -22.3645  -13.6514 O   0  0  0  0  0  0  0  0  0  0  0  0
   24.5362  -21.1208  -11.7011 C   0  0  2  0  0  0  0  0  0  0  0  0
   23.3078  -20.4423  -12.0381 N   0  0  0  0  0  0  0  0  0  0  0  0
   25.4063  -20.1868  -10.9572 C   0  0  0  0  0  0  0  0  0  0  0  0
   25.7380  -19.0507  -11.4460 O   0  0  0  0  0  0  0  0  0  0  0  0
   25.9236  -20.4729   -9.6819 N   0  0  0  0  0  0  0  0  0  0  0  0
   26.7672  -19.5517   -8.9403 C   0  0  0  0  0  0  0  0  0  0  0  0
   27.1092  -20.1826   -7.6260 C   0  0  0  0  0  0  0  0  0  0  0  0
   26.6202  -21.3169   -7.3192 O   0  0  0  0  0  0  0  0  0  0  0  0
   29.6762  -18.3253   -4.6220 C   0  0  0  0  0  0  0  0  0  0  0  0
   29.6669  -19.8200   -4.9467 C   0  0  2  0  0  0  0  0  0  0  0  0
   30.6798  -20.1218   -6.0316 C   0  0  0  0  0  0  0  0  0  0  0  0
   28.3100  -20.2409   -5.4656 C   0  0  2  0  0  0  0  0  0  0  0  0
   27.9667  -19.5660   -6.6908 N   0  0  0  0  0  0  0  0  0  0  0  0
   27.3010  -19.9865   -4.4220 C   0  0  0  0  0  0  0  0  0  0  0  0
   26.4406  -19.0963   -4.5380 O   0  0  0  0  0  0  0  0  0  0  0  0
   27.3134  -20.7634   -3.2788 O   0  0  0  0  0  0  0  0  0  0  0  0
  2  1  1  1
  2  3  1  0
  4  6  1  0
  4  2  1  0
  4  5  1  6
  6  7  2  0
  6  8  1  0
  8  9  1  0
  9 10  1  0
 10 11  2  0
 13 12  1  6
 13 15  1  0
 14 13  1  0
 15 17  1  0
 16 10  1  0
 15 16  1  6
 17 18  2  0
 17 19  1  0
M  END
$$$$
