TGV.pdb
     RDKit          3D

 19 18  0  0  1  0  0  0  0  0999 V2000
   24.2997  -12.8440  -16.2222 C   0  0  0  0  0  0  0  0  0  0  0  0
   23.7711  -11.6812  -15.4390 C   0  0  1  0  0  0  0  0  0  0  0  0
   24.7991  -10.7498  -15.1649 O   0  0  0  0  0  0  0  0  0  0  0  0
   22.7582  -10.9300  -16.2890 C   0  0  2  0  0  0  0  0  0  0  0  0
   23.4926  -10.3623  -17.3942 N   0  0  0  0  0  0  0  0  0  0  0  0
   22.1169   -9.8352  -15.5322 C   0  0  0  0  0  0  0  0  0  0  0  0
   21.2229  -10.0705  -14.6462 O   0  0  0  0  0  0  0  0  0  0  0  0
   22.4364   -8.4801  -15.7267 N   0  0  0  0  0  0  0  0  0  0  0  0
   21.7933   -7.3988  -15.0005 C   0  0  0  0  0  0  0  0  0  0  0  0
   20.8316   -6.7189  -15.9254 C   0  0  0  0  0  0  0  0  0  0  0  0
   20.9526   -6.8609  -17.1844 O   0  0  0  0  0  0  0  0  0  0  0  0
   17.4209   -7.2340  -16.5616 C   0  0  0  0  0  0  0  0  0  0  0  0
   17.4834   -5.7279  -16.3027 C   0  0  2  0  0  0  0  0  0  0  0  0
   16.6830   -4.9869  -17.3536 C   0  0  0  0  0  0  0  0  0  0  0  0
   18.9103   -5.2340  -16.3901 C   0  0  2  0  0  0  0  0  0  0  0  0
   19.7745   -5.9106  -15.4574 N   0  0  0  0  0  0  0  0  0  0  0  0
   18.9252   -3.7779  -16.1630 C   0  0  0  0  0  0  0  0  0  0  0  0
   19.1036   -3.2871  -15.0346 O   0  0  0  0  0  0  0  0  0  0  0  0
   18.7346   -2.9330  -17.2402 O   0  0  0  0  0  0  0  0  0  0  0  0
  2  1  1  6
  2  3  1  0
  4  6  1  0
  4  2  1  0
  4  5  1  6
  6  7  2  0
  6  8  1  0
  8  9  1  0
  9 10  1  0
 10 11  2  0
 13 12  1  6
 13 15  1  0
 14 13  1  0
 15 17  1  0
 16 10  1  0
 15 16  1  1
 17 18  2  0
 17 19  1  0
M  END
$$$$
