TGV.pdb
     RDKit          3D

 19 18  0  0  1  0  0  0  0  0999 V2000
   19.9023  -15.1079  -16.8756 C   0  0  0  0  0  0  0  0  0  0  0  0
   19.8609  -13.6317  -17.1291 C   0  0  1  0  0  0  0  0  0  0  0  0
   19.5807  -13.3620  -18.4885 O   0  0  0  0  0  0  0  0  0  0  0  0
   18.7047  -13.0266  -16.3481 C   0  0  2  0  0  0  0  0  0  0  0  0
   17.5072  -13.6823  -16.8165 N   0  0  0  0  0  0  0  0  0  0  0  0
   18.5799  -11.5755  -16.5962 C   0  0  0  0  0  0  0  0  0  0  0  0
   17.5729  -11.0891  -17.2199 O   0  0  0  0  0  0  0  0  0  0  0  0
   19.5406  -10.6408  -16.1728 N   0  0  0  0  0  0  0  0  0  0  0  0
   19.3718   -9.2052  -16.3173 C   0  0  0  0  0  0  0  0  0  0  0  0
   20.5535   -8.5285  -15.6943 C   0  0  0  0  0  0  0  0  0  0  0  0
   21.4635   -9.2232  -15.1383 O   0  0  0  0  0  0  0  0  0  0  0  0
   23.7756   -4.9008  -15.7380 C   0  0  0  0  0  0  0  0  0  0  0  0
   22.5091   -5.5700  -16.2744 C   0  0  2  0  0  0  0  0  0  0  0  0
   21.4456   -4.5262  -16.5456 C   0  0  0  0  0  0  0  0  0  0  0  0
   21.9463   -6.5339  -15.2539 C   0  0  2  0  0  0  0  0  0  0  0  0
   20.7098   -7.1265  -15.6944 N   0  0  0  0  0  0  0  0  0  0  0  0
   21.7651   -5.8225  -13.9759 C   0  0  0  0  0  0  0  0  0  0  0  0
   22.7230   -5.5414  -13.2347 O   0  0  0  0  0  0  0  0  0  0  0  0
   20.4886   -5.4572  -13.5912 O   0  0  0  0  0  0  0  0  0  0  0  0
  2  1  1  6
  2  3  1  0
  4  6  1  0
  4  2  1  0
  4  5  1  6
  6  7  2  0
  6  8  1  0
  8  9  1  0
  9 10  1  0
 10 11  2  0
 13 12  1  1
 13 15  1  0
 14 13  1  0
 15 17  1  0
 16 10  1  0
 15 16  1  6
 17 18  2  0
 17 19  1  0
M  END
$$$$
