TGV.pdb
     RDKit          3D

 19 18  0  0  1  0  0  0  0  0999 V2000
   15.1946  -15.7108  -15.2605 C   0  0  0  0  0  0  0  0  0  0  0  0
   15.3707  -14.2947  -15.7172 C   0  0  1  0  0  0  0  0  0  0  0  0
   15.4184  -13.4121  -14.6135 O   0  0  0  0  0  0  0  0  0  0  0  0
   16.7206  -14.1593  -16.4044 C   0  0  2  0  0  0  0  0  0  0  0  0
   17.7191  -14.4690  -15.4092 N   0  0  0  0  0  0  0  0  0  0  0  0
   16.9476  -12.7837  -16.8932 C   0  0  0  0  0  0  0  0  0  0  0  0
   16.2530  -12.2922  -17.8500 O   0  0  0  0  0  0  0  0  0  0  0  0
   17.9253  -11.9304  -16.3527 N   0  0  0  0  0  0  0  0  0  0  0  0
   18.0552  -10.5324  -16.7253 C   0  0  0  0  0  0  0  0  0  0  0  0
   19.2241   -9.9566  -15.9874 C   0  0  0  0  0  0  0  0  0  0  0  0
   19.7154  -10.5779  -14.9911 O   0  0  0  0  0  0  0  0  0  0  0  0
   22.3178   -8.7090  -17.8358 C   0  0  0  0  0  0  0  0  0  0  0  0
   22.0150   -7.7087  -16.7190 C   0  0  2  0  0  0  0  0  0  0  0  0
   23.2850   -7.3716  -15.9657 C   0  0  0  0  0  0  0  0  0  0  0  0
   21.0438   -8.3037  -15.7239 C   0  0  2  0  0  0  0  0  0  0  0  0
   19.8202   -8.7311  -16.3520 N   0  0  0  0  0  0  0  0  0  0  0  0
   20.7764   -7.3115  -14.6675 C   0  0  0  0  0  0  0  0  0  0  0  0
   19.8704   -6.4660  -14.7693 O   0  0  0  0  0  0  0  0  0  0  0  0
   21.5591   -7.3230  -13.5281 O   0  0  0  0  0  0  0  0  0  0  0  0
  2  1  1  1
  2  3  1  0
  4  6  1  0
  4  2  1  0
  4  5  1  1
  6  7  2  0
  6  8  1  0
  8  9  1  0
  9 10  1  0
 10 11  2  0
 13 12  1  6
 13 15  1  0
 14 13  1  0
 15 17  1  0
 16 10  1  0
 15 16  1  6
 17 18  2  0
 17 19  1  0
M  END
$$$$
