TGV.pdb
     RDKit          3D

 19 18  0  0  1  0  0  0  0  0999 V2000
   17.8985  -13.7203  -18.1293 C   0  0  0  0  0  0  0  0  0  0  0  0
   17.8230  -12.2991  -17.6608 C   0  0  1  0  0  0  0  0  0  0  0  0
   16.4798  -11.9064  -17.4588 O   0  0  0  0  0  0  0  0  0  0  0  0
   18.4877  -12.1904  -16.2973 C   0  0  2  0  0  0  0  0  0  0  0  0
   17.9179  -13.2347  -15.4801 N   0  0  0  0  0  0  0  0  0  0  0  0
   18.2140  -10.8858  -15.6602 C   0  0  0  0  0  0  0  0  0  0  0  0
   17.0440  -10.5815  -15.2382 O   0  0  0  0  0  0  0  0  0  0  0  0
   19.2008   -9.9021  -15.4746 N   0  0  0  0  0  0  0  0  0  0  0  0
   18.9273   -8.6012  -14.8888 C   0  0  0  0  0  0  0  0  0  0  0  0
   20.2101   -7.8302  -14.8379 C   0  0  0  0  0  0  0  0  0  0  0  0
   21.3221   -8.4386  -14.9524 O   0  0  0  0  0  0  0  0  0  0  0  0
   21.2956   -4.9827  -16.9638 C   0  0  0  0  0  0  0  0  0  0  0  0
   21.5574   -4.5481  -15.5209 C   0  0  2  0  0  0  0  0  0  0  0  0
   22.9402   -3.9412  -15.4044 C   0  0  0  0  0  0  0  0  0  0  0  0
   21.5073   -5.7400  -14.5912 C   0  0  2  0  0  0  0  0  0  0  0  0
   20.2456   -6.4306  -14.6651 N   0  0  0  0  0  0  0  0  0  0  0  0
   21.7798   -5.2838  -13.2166 C   0  0  0  0  0  0  0  0  0  0  0  0
   20.8677   -4.9724  -12.4309 O   0  0  0  0  0  0  0  0  0  0  0  0
   23.0917   -5.2001  -12.7893 O   0  0  0  0  0  0  0  0  0  0  0  0
  2  1  1  1
  2  3  1  0
  4  6  1  0
  4  2  1  0
  4  5  1  1
  6  7  2  0
  6  8  1  0
  8  9  1  0
  9 10  1  0
 10 11  2  0
 13 12  1  6
 13 15  1  0
 14 13  1  0
 15 17  1  0
 16 10  1  0
 15 16  1  1
 17 18  2  0
 17 19  1  0
M  END
$$$$
