IKF.pdb
     RDKit          3D

 29 29  0  0  1  0  0  0  0  0999 V2000
    7.6629  -11.3952   19.8176 C   0  0  0  0  0  0  0  0  0  0  0  0
    7.8290  -12.8536   19.4581 C   0  0  0  0  0  0  0  0  0  0  0  0
    7.9665  -13.7078   20.7186 C   0  0  2  0  0  0  0  0  0  0  0  0
    9.1561  -13.2297   21.5090 C   0  0  0  0  0  0  0  0  0  0  0  0
    8.0579  -15.1788   20.3254 C   0  0  2  0  0  0  0  0  0  0  0  0
    6.7453  -15.4444   19.6960 N   0  0  0  0  0  0  0  0  0  0  0  0
    8.0632  -16.0030   21.5546 C   0  0  0  0  0  0  0  0  0  0  0  0
    6.9881  -16.2571   22.2061 O   0  0  0  0  0  0  0  0  0  0  0  0
    9.2729  -16.5526   22.0606 N   0  0  0  0  0  0  0  0  0  0  0  0
    9.2793  -17.6744   22.9810 C   0  0  1  0  0  0  0  0  0  0  0  0
   10.4136  -18.6444   22.6145 C   0  0  0  0  0  0  0  0  0  0  0  0
   10.4343  -19.8249   23.5366 C   0  0  0  0  0  0  0  0  0  0  0  0
   11.5043  -20.7752   23.0453 C   0  0  0  0  0  0  0  0  0  0  0  0
   11.4121  -22.1179   23.7388 C   0  0  0  0  0  0  0  0  0  0  0  0
   12.3943  -22.9993   23.1432 N   0  0  0  0  0  0  0  0  0  0  0  0
    9.4029  -17.2782   24.3981 C   0  0  0  0  0  0  0  0  0  0  0  0
    9.3363  -18.1436   25.3368 O   0  0  0  0  0  0  0  0  0  0  0  0
    9.6010  -15.9353   24.7961 N   0  0  0  0  0  0  0  0  0  0  0  0
    9.5790  -15.5171   26.1920 C   0  0  1  0  0  0  0  0  0  0  0  0
    8.1955  -15.5406   26.7506 C   0  0  0  0  0  0  0  0  0  0  0  0
    7.4401  -14.3097   26.4648 C   0  0  0  0  0  0  0  0  0  0  0  0
    6.0712  -14.2993   26.2458 C   0  0  0  0  0  0  0  0  0  0  0  0
    5.3706  -13.1387   25.9977 C   0  0  0  0  0  0  0  0  0  0  0  0
    6.0416  -11.9282   25.9619 C   0  0  0  0  0  0  0  0  0  0  0  0
    7.3994  -11.9055   26.1753 C   0  0  0  0  0  0  0  0  0  0  0  0
    8.0816  -13.0944   26.4240 C   0  0  0  0  0  0  0  0  0  0  0  0
   10.4810  -16.3949   26.9591 C   0  0  0  0  0  0  0  0  0  0  0  0
   11.1827  -17.4126   26.3222 O   0  0  0  0  0  0  0  0  0  0  0  0
   10.6706  -16.2885   28.1925 O   0  0  0  0  0  0  0  0  0  0  0  0
  2  1  1  0
  3  2  1  0
  3  4  1  6
  5  3  1  0
  5  6  1  6
  7  8  2  0
  7  5  1  0
  9  7  1  0
 10  9  1  0
 11 12  1  0
 10 11  1  6
 12 13  1  0
 13 14  1  0
 14 15  1  0
 16 17  2  0
 16 10  1  0
 18 16  1  0
 19 20  1  1
 19 18  1  0
 20 21  1  0
 21 26  2  0
 21 22  1  0
 22 23  2  0
 23 24  1  0
 25 24  2  0
 26 25  1  0
 27 19  1  0
 28 27  1  0
 29 27  2  0
M  END
$$$$
