IKF.pdb
     RDKit          3D

 29 29  0  0  1  0  0  0  0  0999 V2000
    7.7918  -12.1102   20.0133 C   0  0  0  0  0  0  0  0  0  0  0  0
    7.5956  -13.5751   19.6980 C   0  0  0  0  0  0  0  0  0  0  0  0
    8.8100  -14.1347   18.9567 C   0  0  2  0  0  0  0  0  0  0  0  0
    8.9764  -13.3937   17.6562 C   0  0  0  0  0  0  0  0  0  0  0  0
    8.6416  -15.6397   18.7737 C   0  0  2  0  0  0  0  0  0  0  0  0
    7.3762  -15.7501   18.0146 N   0  0  0  0  0  0  0  0  0  0  0  0
    8.3498  -16.2519   20.0892 C   0  0  0  0  0  0  0  0  0  0  0  0
    7.2347  -16.0621   20.6938 O   0  0  0  0  0  0  0  0  0  0  0  0
    9.3036  -17.0851   20.7350 N   0  0  0  0  0  0  0  0  0  0  0  0
    9.0782  -17.6206   22.0647 C   0  0  1  0  0  0  0  0  0  0  0  0
    9.7612  -18.9907   22.1989 C   0  0  0  0  0  0  0  0  0  0  0  0
    9.1621  -19.9880   21.2552 C   0  0  0  0  0  0  0  0  0  0  0  0
    9.8661  -21.3096   21.4727 C   0  0  0  0  0  0  0  0  0  0  0  0
    9.3160  -22.3858   20.5609 C   0  0  0  0  0  0  0  0  0  0  0  0
   10.1204  -23.5768   20.7357 N   0  0  0  0  0  0  0  0  0  0  0  0
    9.5364  -16.7287   23.1488 C   0  0  0  0  0  0  0  0  0  0  0  0
   10.2962  -15.7290   22.9084 O   0  0  0  0  0  0  0  0  0  0  0  0
    9.1657  -16.9241   24.4999 N   0  0  0  0  0  0  0  0  0  0  0  0
    8.8352  -15.8204   25.3923 C   0  0  1  0  0  0  0  0  0  0  0  0
    7.7393  -14.9738   24.8365 C   0  0  0  0  0  0  0  0  0  0  0  0
    7.3465  -13.8785   25.7383 C   0  0  0  0  0  0  0  0  0  0  0  0
    6.0769  -13.7706   26.2846 C   0  0  0  0  0  0  0  0  0  0  0  0
    5.7251  -12.7514   27.1429 C   0  0  0  0  0  0  0  0  0  0  0  0
    6.6609  -11.7898   27.4842 C   0  0  0  0  0  0  0  0  0  0  0  0
    7.9288  -11.8694   26.9590 C   0  0  0  0  0  0  0  0  0  0  0  0
    8.2562  -12.9110   26.0938 C   0  0  0  0  0  0  0  0  0  0  0  0
    8.4687  -16.3745   26.7081 C   0  0  0  0  0  0  0  0  0  0  0  0
    9.0712  -15.8955   27.8663 O   0  0  0  0  0  0  0  0  0  0  0  0
    7.6203  -17.2818   26.8678 O   0  0  0  0  0  0  0  0  0  0  0  0
  2  1  1  0
  3  2  1  0
  3  4  1  6
  5  3  1  0
  5  6  1  6
  7  8  2  0
  7  5  1  0
  9  7  1  0
 10  9  1  0
 11 12  1  0
 10 11  1  6
 12 13  1  0
 13 14  1  0
 14 15  1  0
 16 17  2  0
 16 10  1  0
 18 16  1  0
 19 20  1  6
 19 18  1  0
 20 21  1  0
 21 26  2  0
 21 22  1  0
 22 23  2  0
 23 24  1  0
 25 24  2  0
 26 25  1  0
 27 19  1  0
 28 27  1  0
 29 27  2  0
M  END
$$$$
