IKF.pdb
     RDKit          3D

 29 29  0  0  1  0  0  0  0  0999 V2000
    7.8978  -11.7151   19.8086 C   0  0  0  0  0  0  0  0  0  0  0  0
    7.8715  -13.2138   19.6165 C   0  0  0  0  0  0  0  0  0  0  0  0
    7.4536  -13.9161   20.9086 C   0  0  2  0  0  0  0  0  0  0  0  0
    8.3653  -13.4766   22.0239 C   0  0  0  0  0  0  0  0  0  0  0  0
    7.4579  -15.4255   20.6883 C   0  0  2  0  0  0  0  0  0  0  0  0
    6.3196  -15.6376   19.7669 N   0  0  0  0  0  0  0  0  0  0  0  0
    7.0575  -16.0938   21.9465 C   0  0  0  0  0  0  0  0  0  0  0  0
    5.9184  -15.8803   22.4957 O   0  0  0  0  0  0  0  0  0  0  0  0
    7.9289  -17.0100   22.5966 N   0  0  0  0  0  0  0  0  0  0  0  0
    7.6578  -17.5104   23.9314 C   0  0  1  0  0  0  0  0  0  0  0  0
    7.8327  -19.0369   23.9626 C   0  0  0  0  0  0  0  0  0  0  0  0
    7.4758  -19.5945   25.3063 C   0  0  0  0  0  0  0  0  0  0  0  0
    7.8252  -21.0667   25.3024 C   0  0  0  0  0  0  0  0  0  0  0  0
    7.3193  -21.7584   26.5506 C   0  0  0  0  0  0  0  0  0  0  0  0
    7.6384  -23.1666   26.4443 N   0  0  0  0  0  0  0  0  0  0  0  0
    8.4966  -16.8927   24.9781 C   0  0  0  0  0  0  0  0  0  0  0  0
    9.7470  -16.6979   24.7966 O   0  0  0  0  0  0  0  0  0  0  0  0
    7.9729  -16.4840   26.2270 N   0  0  0  0  0  0  0  0  0  0  0  0
    8.7989  -15.8876   27.2690 C   0  0  1  0  0  0  0  0  0  0  0  0
    8.0965  -14.7599   27.9485 C   0  0  0  0  0  0  0  0  0  0  0  0
    7.8736  -13.6054   27.0628 C   0  0  0  0  0  0  0  0  0  0  0  0
    6.6404  -13.3138   26.5006 C   0  0  0  0  0  0  0  0  0  0  0  0
    6.4381  -12.2195   25.6877 C   0  0  0  0  0  0  0  0  0  0  0  0
    7.4939  -11.3679   25.4104 C   0  0  0  0  0  0  0  0  0  0  0  0
    8.7294  -11.6301   25.9531 C   0  0  0  0  0  0  0  0  0  0  0  0
    8.9045  -12.7437   26.7715 C   0  0  0  0  0  0  0  0  0  0  0  0
    9.1753  -16.9403   28.2295 C   0  0  0  0  0  0  0  0  0  0  0  0
   10.1421  -16.6960   29.1988 O   0  0  0  0  0  0  0  0  0  0  0  0
    8.6688  -18.0857   28.2385 O   0  0  0  0  0  0  0  0  0  0  0  0
  2  1  1  0
  3  2  1  0
  3  4  1  1
  5  3  1  0
  5  6  1  6
  7  8  2  0
  7  5  1  0
  9  7  1  0
 10  9  1  0
 11 12  1  0
 10 11  1  6
 12 13  1  0
 13 14  1  0
 14 15  1  0
 16 17  2  0
 16 10  1  0
 18 16  1  0
 19 20  1  1
 19 18  1  0
 20 21  1  0
 21 26  2  0
 21 22  1  0
 22 23  2  0
 23 24  1  0
 25 24  2  0
 26 25  1  0
 27 19  1  0
 28 27  1  0
 29 27  2  0
M  END
$$$$
