IKF.pdb
     RDKit          3D

 29 29  0  0  1  0  0  0  0  0999 V2000
    7.4202  -12.0159   18.6421 C   0  0  0  0  0  0  0  0  0  0  0  0
    7.8991  -13.4060   18.2926 C   0  0  0  0  0  0  0  0  0  0  0  0
    8.1485  -14.2251   19.5591 C   0  0  2  0  0  0  0  0  0  0  0  0
    9.1187  -13.4838   20.4409 C   0  0  0  0  0  0  0  0  0  0  0  0
    8.6317  -15.6194   19.1729 C   0  0  2  0  0  0  0  0  0  0  0  0
    7.5010  -16.1663   18.3905 N   0  0  0  0  0  0  0  0  0  0  0  0
    8.6923  -16.4590   20.3902 C   0  0  0  0  0  0  0  0  0  0  0  0
    7.6447  -16.7367   21.0760 O   0  0  0  0  0  0  0  0  0  0  0  0
    9.9267  -16.9976   20.8456 N   0  0  0  0  0  0  0  0  0  0  0  0
   10.0398  -17.6864   22.1178 C   0  0  1  0  0  0  0  0  0  0  0  0
   11.2435  -18.6414   22.0896 C   0  0  0  0  0  0  0  0  0  0  0  0
   11.0794  -19.6868   21.0293 C   0  0  0  0  0  0  0  0  0  0  0  0
   12.3568  -20.4962   20.9780 C   0  0  0  0  0  0  0  0  0  0  0  0
   12.3168  -21.5224   19.8654 C   0  0  0  0  0  0  0  0  0  0  0  0
   13.5742  -22.2401   19.8711 N   0  0  0  0  0  0  0  0  0  0  0  0
   10.1535  -16.7777   23.2763 C   0  0  0  0  0  0  0  0  0  0  0  0
   10.9599  -15.7857   23.2642 O   0  0  0  0  0  0  0  0  0  0  0  0
    9.3860  -16.9478   24.4523 N   0  0  0  0  0  0  0  0  0  0  0  0
    9.1761  -15.8755   25.4165 C   0  0  1  0  0  0  0  0  0  0  0  0
    8.0083  -15.0239   25.0453 C   0  0  0  0  0  0  0  0  0  0  0  0
    7.7418  -13.9570   26.0240 C   0  0  0  0  0  0  0  0  0  0  0  0
    6.5375  -13.2729   26.0839 C   0  0  0  0  0  0  0  0  0  0  0  0
    6.2915  -12.2885   27.0165 C   0  0  0  0  0  0  0  0  0  0  0  0
    7.2716  -11.9563   27.9363 C   0  0  0  0  0  0  0  0  0  0  0  0
    8.4767  -12.6167   27.9027 C   0  0  0  0  0  0  0  0  0  0  0  0
    8.6973  -13.6077   26.9487 C   0  0  0  0  0  0  0  0  0  0  0  0
    8.9996  -16.4733   26.7522 C   0  0  0  0  0  0  0  0  0  0  0  0
    9.7116  -15.9843   27.8420 O   0  0  0  0  0  0  0  0  0  0  0  0
    8.2245  -17.4281   26.9889 O   0  0  0  0  0  0  0  0  0  0  0  0
  2  1  1  0
  3  2  1  0
  3  4  1  1
  5  3  1  0
  5  6  1  6
  7  8  2  0
  7  5  1  0
  9  7  1  0
 10  9  1  0
 11 12  1  0
 10 11  1  6
 12 13  1  0
 13 14  1  0
 14 15  1  0
 16 17  2  0
 16 10  1  0
 18 16  1  0
 19 20  1  6
 19 18  1  0
 20 21  1  0
 21 26  2  0
 21 22  1  0
 22 23  2  0
 23 24  1  0
 25 24  2  0
 26 25  1  0
 27 19  1  0
 28 27  1  0
 29 27  2  0
M  END
$$$$
