IKF.pdb
     RDKit          3D

 29 29  0  0  1  0  0  0  0  0999 V2000
    7.0675  -12.4417   18.1585 C   0  0  0  0  0  0  0  0  0  0  0  0
    8.1961  -13.2552   18.7487 C   0  0  0  0  0  0  0  0  0  0  0  0
    7.7962  -13.8246   20.1100 C   0  0  2  0  0  0  0  0  0  0  0  0
    7.4361  -12.6889   21.0313 C   0  0  0  0  0  0  0  0  0  0  0  0
    8.9270  -14.6973   20.6452 C   0  0  2  0  0  0  0  0  0  0  0  0
    8.9563  -15.8340   19.6982 N   0  0  0  0  0  0  0  0  0  0  0  0
    8.5057  -15.2885   21.9349 C   0  0  0  0  0  0  0  0  0  0  0  0
    8.2326  -14.5635   22.9569 O   0  0  0  0  0  0  0  0  0  0  0  0
    8.3827  -16.6966   22.0877 N   0  0  0  0  0  0  0  0  0  0  0  0
    7.9487  -17.2974   23.3352 C   0  0  1  0  0  0  0  0  0  0  0  0
    7.9397  -18.8285   23.2024 C   0  0  0  0  0  0  0  0  0  0  0  0
    7.2137  -19.2595   21.9650 C   0  0  0  0  0  0  0  0  0  0  0  0
    7.4395  -20.7456   21.7918 C   0  0  0  0  0  0  0  0  0  0  0  0
    6.8290  -21.2510   20.5018 C   0  0  0  0  0  0  0  0  0  0  0  0
    7.2204  -22.6344   20.3315 N   0  0  0  0  0  0  0  0  0  0  0  0
    8.7677  -16.9044   24.4994 C   0  0  0  0  0  0  0  0  0  0  0  0
   10.0378  -16.7897   24.4081 O   0  0  0  0  0  0  0  0  0  0  0  0
    8.2031  -16.6337   25.7678 N   0  0  0  0  0  0  0  0  0  0  0  0
    8.9998  -16.1920   26.9053 C   0  0  1  0  0  0  0  0  0  0  0  0
    8.2585  -15.2064   27.7454 C   0  0  0  0  0  0  0  0  0  0  0  0
    7.7726  -14.0482   26.9774 C   0  0  0  0  0  0  0  0  0  0  0  0
    6.4831  -13.9641   26.4754 C   0  0  0  0  0  0  0  0  0  0  0  0
    6.0325  -12.8669   25.7737 C   0  0  0  0  0  0  0  0  0  0  0  0
    6.8849  -11.7987   25.5517 C   0  0  0  0  0  0  0  0  0  0  0  0
    8.1699  -11.8520   26.0370 C   0  0  0  0  0  0  0  0  0  0  0  0
    8.5980  -12.9740   26.7430 C   0  0  0  0  0  0  0  0  0  0  0  0
    9.3933  -17.3757   27.6905 C   0  0  0  0  0  0  0  0  0  0  0  0
    8.8827  -18.6305   27.3764 O   0  0  0  0  0  0  0  0  0  0  0  0
   10.1858  -17.3344   28.6594 O   0  0  0  0  0  0  0  0  0  0  0  0
  2  1  1  0
  3  2  1  0
  3  4  1  1
  5  3  1  0
  5  6  1  6
  7  8  2  0
  7  5  1  0
  9  7  1  0
 10  9  1  0
 11 12  1  0
 10 11  1  6
 12 13  1  0
 13 14  1  0
 14 15  1  0
 16 17  2  0
 16 10  1  0
 18 16  1  0
 19 20  1  1
 19 18  1  0
 20 21  1  0
 21 26  2  0
 21 22  1  0
 22 23  2  0
 23 24  1  0
 25 24  2  0
 26 25  1  0
 27 19  1  0
 28 27  1  0
 29 27  2  0
M  END
$$$$
