IKF.pdb
     RDKit          3D

 29 29  0  0  1  0  0  0  0  0999 V2000
    6.9362  -20.9118   27.3747 C   0  0  0  0  0  0  0  0  0  0  0  0
    6.4122  -20.6975   25.9735 C   0  0  0  0  0  0  0  0  0  0  0  0
    7.0051  -19.4267   25.3643 C   0  0  2  0  0  0  0  0  0  0  0  0
    6.7097  -18.2622   26.2726 C   0  0  0  0  0  0  0  0  0  0  0  0
    6.4598  -19.2408   23.9519 C   0  0  2  0  0  0  0  0  0  0  0  0
    6.8893  -20.4745   23.2568 N   0  0  0  0  0  0  0  0  0  0  0  0
    7.2101  -18.1509   23.2891 C   0  0  0  0  0  0  0  0  0  0  0  0
    8.4601  -18.2528   23.0209 O   0  0  0  0  0  0  0  0  0  0  0  0
    6.5643  -16.9400   22.9177 N   0  0  0  0  0  0  0  0  0  0  0  0
    7.3118  -15.7726   22.4889 C   0  0  1  0  0  0  0  0  0  0  0  0
    6.3623  -14.7538   21.8390 C   0  0  0  0  0  0  0  0  0  0  0  0
    7.1248  -13.6225   21.2203 C   0  0  0  0  0  0  0  0  0  0  0  0
    7.5184  -14.0424   19.8209 C   0  0  0  0  0  0  0  0  0  0  0  0
    8.1879  -12.9098   19.0716 C   0  0  0  0  0  0  0  0  0  0  0  0
    8.4390  -13.3544   17.7168 N   0  0  0  0  0  0  0  0  0  0  0  0
    8.0703  -15.1218   23.5760 C   0  0  0  0  0  0  0  0  0  0  0  0
    7.7357  -13.9709   24.0211 O   0  0  0  0  0  0  0  0  0  0  0  0
    9.1966  -15.7256   24.1824 N   0  0  0  0  0  0  0  0  0  0  0  0
    9.8577  -15.1606   25.3518 C   0  0  1  0  0  0  0  0  0  0  0  0
    8.9418  -15.1079   26.5287 C   0  0  0  0  0  0  0  0  0  0  0  0
    8.0453  -13.9405   26.5064 C   0  0  0  0  0  0  0  0  0  0  0  0
    8.5091  -12.6341   26.4977 C   0  0  0  0  0  0  0  0  0  0  0  0
    7.6613  -11.5483   26.4578 C   0  0  0  0  0  0  0  0  0  0  0  0
    6.2919  -11.7497   26.4247 C   0  0  0  0  0  0  0  0  0  0  0  0
    5.8008  -13.0336   26.4322 C   0  0  0  0  0  0  0  0  0  0  0  0
    6.6816  -14.1121   26.4728 C   0  0  0  0  0  0  0  0  0  0  0  0
   11.0597  -15.9622   25.6443 C   0  0  0  0  0  0  0  0  0  0  0  0
   11.9441  -15.5665   26.6418 O   0  0  0  0  0  0  0  0  0  0  0  0
   11.3563  -17.0164   25.0368 O   0  0  0  0  0  0  0  0  0  0  0  0
  2  1  1  0
  3  2  1  0
  3  4  1  1
  5  3  1  0
  5  6  1  6
  7  8  2  0
  7  5  1  0
  9  7  1  0
 10  9  1  0
 11 12  1  0
 10 11  1  1
 12 13  1  0
 13 14  1  0
 14 15  1  0
 16 17  2  0
 16 10  1  0
 18 16  1  0
 19 20  1  1
 19 18  1  0
 20 21  1  0
 21 26  2  0
 21 22  1  0
 22 23  2  0
 23 24  1  0
 25 24  2  0
 26 25  1  0
 27 19  1  0
 28 27  1  0
 29 27  2  0
M  END
$$$$
