IKF.pdb
     RDKit          3D

 29 29  0  0  1  0  0  0  0  0999 V2000
    7.3939  -11.4378   19.9848 C   0  0  0  0  0  0  0  0  0  0  0  0
    7.4313  -12.9164   19.6749 C   0  0  0  0  0  0  0  0  0  0  0  0
    7.6632  -13.7290   20.9490 C   0  0  2  0  0  0  0  0  0  0  0  0
    8.9144  -13.2350   21.6261 C   0  0  0  0  0  0  0  0  0  0  0  0
    7.7144  -15.2131   20.6001 C   0  0  2  0  0  0  0  0  0  0  0  0
    6.3447  -15.4960   20.1169 N   0  0  0  0  0  0  0  0  0  0  0  0
    7.8447  -15.9942   21.8504 C   0  0  0  0  0  0  0  0  0  0  0  0
    6.8700  -16.1251   22.6736 O   0  0  0  0  0  0  0  0  0  0  0  0
    9.0671  -16.6382   22.1856 N   0  0  0  0  0  0  0  0  0  0  0  0
    9.2160  -17.4149   23.4022 C   0  0  1  0  0  0  0  0  0  0  0  0
   10.1760  -18.5898   23.1579 C   0  0  0  0  0  0  0  0  0  0  0  0
   10.2849  -19.4603   24.3721 C   0  0  0  0  0  0  0  0  0  0  0  0
   11.1637  -20.6397   24.0168 C   0  0  0  0  0  0  0  0  0  0  0  0
   11.2166  -21.6493   25.1439 C   0  0  0  0  0  0  0  0  0  0  0  0
   12.2058  -22.6504   24.8040 N   0  0  0  0  0  0  0  0  0  0  0  0
    9.6836  -16.6232   24.5578 C   0  0  0  0  0  0  0  0  0  0  0  0
   10.6304  -15.7723   24.4389 O   0  0  0  0  0  0  0  0  0  0  0  0
    9.1184  -16.7565   25.8476 N   0  0  0  0  0  0  0  0  0  0  0  0
    9.5823  -15.9845   26.9933 C   0  0  1  0  0  0  0  0  0  0  0  0
    8.4472  -15.3445   27.7204 C   0  0  0  0  0  0  0  0  0  0  0  0
    7.8060  -14.2671   26.9489 C   0  0  0  0  0  0  0  0  0  0  0  0
    6.6155  -14.4394   26.2597 C   0  0  0  0  0  0  0  0  0  0  0  0
    6.0137  -13.4187   25.5559 C   0  0  0  0  0  0  0  0  0  0  0  0
    6.6052  -12.1673   25.5242 C   0  0  0  0  0  0  0  0  0  0  0  0
    7.7862  -11.9647   26.1978 C   0  0  0  0  0  0  0  0  0  0  0  0
    8.3717  -13.0150   26.9011 C   0  0  0  0  0  0  0  0  0  0  0  0
   10.3510  -16.8765   27.8799 C   0  0  0  0  0  0  0  0  0  0  0  0
   11.0449  -16.3598   28.9686 O   0  0  0  0  0  0  0  0  0  0  0  0
   10.4293  -18.1162   27.7196 O   0  0  0  0  0  0  0  0  0  0  0  0
  2  1  1  0
  3  2  1  0
  3  4  1  6
  5  3  1  0
  5  6  1  1
  7  8  2  0
  7  5  1  0
  9  7  1  0
 10  9  1  0
 11 12  1  0
 10 11  1  6
 12 13  1  0
 13 14  1  0
 14 15  1  0
 16 17  2  0
 16 10  1  0
 18 16  1  0
 19 20  1  1
 19 18  1  0
 20 21  1  0
 21 26  2  0
 21 22  1  0
 22 23  2  0
 23 24  1  0
 25 24  2  0
 26 25  1  0
 27 19  1  0
 28 27  1  0
 29 27  2  0
M  END
$$$$
