IKF.pdb
     RDKit          3D

 29 29  0  0  1  0  0  0  0  0999 V2000
    4.1616  -22.0546   22.5751 C   0  0  0  0  0  0  0  0  0  0  0  0
    4.7836  -21.1284   23.5944 C   0  0  0  0  0  0  0  0  0  0  0  0
    5.9125  -20.3125   22.9640 C   0  0  2  0  0  0  0  0  0  0  0  0
    6.8579  -21.2467   22.2557 C   0  0  0  0  0  0  0  0  0  0  0  0
    6.5918  -19.4725   24.0409 C   0  0  2  0  0  0  0  0  0  0  0  0
    5.4993  -18.6052   24.5348 N   0  0  0  0  0  0  0  0  0  0  0  0
    7.5480  -18.5469   23.3933 C   0  0  0  0  0  0  0  0  0  0  0  0
    8.7000  -18.9366   22.9860 O   0  0  0  0  0  0  0  0  0  0  0  0
    7.2187  -17.1784   23.1932 N   0  0  0  0  0  0  0  0  0  0  0  0
    8.1983  -16.2143   22.7279 C   0  0  1  0  0  0  0  0  0  0  0  0
    7.5141  -15.1595   21.8441 C   0  0  0  0  0  0  0  0  0  0  0  0
    8.3283  -14.8690   20.6206 C   0  0  0  0  0  0  0  0  0  0  0  0
    7.6408  -13.7541   19.8631 C   0  0  0  0  0  0  0  0  0  0  0  0
    8.3867  -13.4076   18.5918 C   0  0  0  0  0  0  0  0  0  0  0  0
    7.7158  -12.2858   17.9692 N   0  0  0  0  0  0  0  0  0  0  0  0
    8.9368  -15.5458   23.8180 C   0  0  0  0  0  0  0  0  0  0  0  0
    9.0962  -14.2773   23.8303 O   0  0  0  0  0  0  0  0  0  0  0  0
    9.5033  -16.2596   24.8998 N   0  0  0  0  0  0  0  0  0  0  0  0
    9.3649  -15.8286   26.2851 C   0  0  1  0  0  0  0  0  0  0  0  0
    7.9329  -15.7624   26.6993 C   0  0  0  0  0  0  0  0  0  0  0  0
    7.3300  -14.4389   26.4709 C   0  0  0  0  0  0  0  0  0  0  0  0
    6.0393  -14.2710   25.9934 C   0  0  0  0  0  0  0  0  0  0  0  0
    5.4778  -13.0272   25.8010 C   0  0  0  0  0  0  0  0  0  0  0  0
    6.2145  -11.8911   26.0897 C   0  0  0  0  0  0  0  0  0  0  0  0
    7.4974  -12.0246   26.5649 C   0  0  0  0  0  0  0  0  0  0  0  0
    8.0392  -13.2947   26.7498 C   0  0  0  0  0  0  0  0  0  0  0  0
   10.1280  -16.7532   27.1427 C   0  0  0  0  0  0  0  0  0  0  0  0
   10.2863  -16.4873   28.4984 O   0  0  0  0  0  0  0  0  0  0  0  0
   10.6667  -17.8036   26.7245 O   0  0  0  0  0  0  0  0  0  0  0  0
  2  1  1  0
  3  2  1  0
  3  4  1  1
  5  3  1  0
  5  6  1  6
  7  8  2  0
  7  5  1  0
  9  7  1  0
 10  9  1  0
 11 12  1  0
 10 11  1  1
 12 13  1  0
 13 14  1  0
 14 15  1  0
 16 17  2  0
 16 10  1  0
 18 16  1  0
 19 20  1  1
 19 18  1  0
 20 21  1  0
 21 26  2  0
 21 22  1  0
 22 23  2  0
 23 24  1  0
 25 24  2  0
 26 25  1  0
 27 19  1  0
 28 27  1  0
 29 27  2  0
M  END
$$$$
