IKF.pdb
     RDKit          3D

 29 29  0  0  1  0  0  0  0  0999 V2000
    7.6283  -11.9780   21.7649 C   0  0  0  0  0  0  0  0  0  0  0  0
    7.1377  -13.4021   21.6425 C   0  0  0  0  0  0  0  0  0  0  0  0
    7.9870  -14.1808   20.6377 C   0  0  2  0  0  0  0  0  0  0  0  0
    7.9038  -13.5038   19.2949 C   0  0  0  0  0  0  0  0  0  0  0  0
    7.5281  -15.6352   20.6071 C   0  0  2  0  0  0  0  0  0  0  0  0
    6.0661  -15.5259   20.4061 N   0  0  0  0  0  0  0  0  0  0  0  0
    7.6830  -16.2143   21.9602 C   0  0  0  0  0  0  0  0  0  0  0  0
    6.7613  -16.1228   22.8473 O   0  0  0  0  0  0  0  0  0  0  0  0
    8.8704  -16.9043   22.3281 N   0  0  0  0  0  0  0  0  0  0  0  0
    9.0101  -17.5565   23.6167 C   0  0  1  0  0  0  0  0  0  0  0  0
    9.8905  -18.8083   23.4760 C   0  0  0  0  0  0  0  0  0  0  0  0
    9.9341  -19.5850   24.7562 C   0  0  0  0  0  0  0  0  0  0  0  0
   10.8855  -20.7451   24.5596 C   0  0  0  0  0  0  0  0  0  0  0  0
   10.9437  -21.6269   25.7890 C   0  0  0  0  0  0  0  0  0  0  0  0
   11.8010  -22.7552   25.4922 N   0  0  0  0  0  0  0  0  0  0  0  0
    9.5593  -16.6786   24.6695 C   0  0  0  0  0  0  0  0  0  0  0  0
   10.5074  -15.8579   24.4204 O   0  0  0  0  0  0  0  0  0  0  0  0
    9.0745  -16.6923   25.9982 N   0  0  0  0  0  0  0  0  0  0  0  0
    9.7287  -15.9699   27.0817 C   0  0  1  0  0  0  0  0  0  0  0  0
    8.7488  -15.1873   27.8905 C   0  0  0  0  0  0  0  0  0  0  0  0
    8.2467  -13.9952   27.1876 C   0  0  0  0  0  0  0  0  0  0  0  0
    7.0488  -13.9804   26.4899 C   0  0  0  0  0  0  0  0  0  0  0  0
    6.5787  -12.8533   25.8511 C   0  0  0  0  0  0  0  0  0  0  0  0
    7.3163  -11.6825   25.8965 C   0  0  0  0  0  0  0  0  0  0  0  0
    8.5085  -11.6652   26.5806 C   0  0  0  0  0  0  0  0  0  0  0  0
    8.9590  -12.8196   27.2171 C   0  0  0  0  0  0  0  0  0  0  0  0
   10.4597  -16.9391   27.9177 C   0  0  0  0  0  0  0  0  0  0  0  0
   10.3816  -18.3011   27.6482 O   0  0  0  0  0  0  0  0  0  0  0  0
   11.1755  -16.6145   28.8928 O   0  0  0  0  0  0  0  0  0  0  0  0
  2  1  1  0
  3  2  1  0
  3  4  1  6
  5  3  1  0
  5  6  1  1
  7  8  2  0
  7  5  1  0
  9  7  1  0
 10  9  1  0
 11 12  1  0
 10 11  1  6
 12 13  1  0
 13 14  1  0
 14 15  1  0
 16 17  2  0
 16 10  1  0
 18 16  1  0
 19 20  1  1
 19 18  1  0
 20 21  1  0
 21 26  2  0
 21 22  1  0
 22 23  2  0
 23 24  1  0
 25 24  2  0
 26 25  1  0
 27 19  1  0
 28 27  1  0
 29 27  2  0
M  END
$$$$
