IKF.pdb
     RDKit          3D

 29 29  0  0  1  0  0  0  0  0999 V2000
    7.3269  -11.5062   19.6886 C   0  0  0  0  0  0  0  0  0  0  0  0
    7.5608  -12.9745   19.4180 C   0  0  0  0  0  0  0  0  0  0  0  0
    7.8199  -13.7289   20.7222 C   0  0  2  0  0  0  0  0  0  0  0  0
    9.0431  -13.1549   21.3874 C   0  0  0  0  0  0  0  0  0  0  0  0
    7.9398  -15.2209   20.4283 C   0  0  2  0  0  0  0  0  0  0  0  0
    6.6075  -15.5686   19.8862 N   0  0  0  0  0  0  0  0  0  0  0  0
    8.0314  -15.9551   21.7101 C   0  0  0  0  0  0  0  0  0  0  0  0
    7.0121  -16.1242   22.4698 O   0  0  0  0  0  0  0  0  0  0  0  0
    9.2652  -16.5094   22.1480 N   0  0  0  0  0  0  0  0  0  0  0  0
    9.3549  -17.3373   23.3363 C   0  0  1  0  0  0  0  0  0  0  0  0
   10.2622  -18.5472   23.0629 C   0  0  0  0  0  0  0  0  0  0  0  0
    9.6858  -19.4245   21.9943 C   0  0  0  0  0  0  0  0  0  0  0  0
   10.6329  -20.5869   21.7911 C   0  0  0  0  0  0  0  0  0  0  0  0
   10.0919  -21.5698   20.7744 C   0  0  0  0  0  0  0  0  0  0  0  0
   11.0116  -22.6852   20.6946 N   0  0  0  0  0  0  0  0  0  0  0  0
    9.8386  -16.6129   24.5288 C   0  0  0  0  0  0  0  0  0  0  0  0
   10.8475  -15.8303   24.4652 O   0  0  0  0  0  0  0  0  0  0  0  0
    9.2217  -16.7392   25.7954 N   0  0  0  0  0  0  0  0  0  0  0  0
    9.6777  -16.0055   26.9691 C   0  0  1  0  0  0  0  0  0  0  0  0
    8.5356  -15.4111   27.7233 C   0  0  0  0  0  0  0  0  0  0  0  0
    7.9109  -14.2784   27.0204 C   0  0  0  0  0  0  0  0  0  0  0  0
    6.7048  -14.3832   26.3451 C   0  0  0  0  0  0  0  0  0  0  0  0
    6.1193  -13.3116   25.7061 C   0  0  0  0  0  0  0  0  0  0  0  0
    6.7440  -12.0763   25.7284 C   0  0  0  0  0  0  0  0  0  0  0  0
    7.9412  -11.9402   26.3899 C   0  0  0  0  0  0  0  0  0  0  0  0
    8.5097  -13.0409   27.0272 C   0  0  0  0  0  0  0  0  0  0  0  0
   10.4623  -16.9197   27.8185 C   0  0  0  0  0  0  0  0  0  0  0  0
   11.1760  -16.4307   28.9072 O   0  0  0  0  0  0  0  0  0  0  0  0
   10.5373  -18.1548   27.6252 O   0  0  0  0  0  0  0  0  0  0  0  0
  2  1  1  0
  3  2  1  0
  3  4  1  6
  5  3  1  0
  5  6  1  1
  7  8  2  0
  7  5  1  0
  9  7  1  0
 10  9  1  0
 11 12  1  0
 10 11  1  6
 12 13  1  0
 13 14  1  0
 14 15  1  0
 16 17  2  0
 16 10  1  0
 18 16  1  0
 19 20  1  1
 19 18  1  0
 20 21  1  0
 21 26  2  0
 21 22  1  0
 22 23  2  0
 23 24  1  0
 25 24  2  0
 26 25  1  0
 27 19  1  0
 28 27  1  0
 29 27  2  0
M  END
$$$$
