IKF.pdb
     RDKit          3D

 29 29  0  0  1  0  0  0  0  0999 V2000
    7.5369  -11.5980   19.5071 C   0  0  0  0  0  0  0  0  0  0  0  0
    7.5577  -13.0925   19.2836 C   0  0  0  0  0  0  0  0  0  0  0  0
    7.7914  -13.8319   20.6012 C   0  0  2  0  0  0  0  0  0  0  0  0
    9.0413  -13.2975   21.2497 C   0  0  0  0  0  0  0  0  0  0  0  0
    7.8464  -15.3330   20.3361 C   0  0  2  0  0  0  0  0  0  0  0  0
    6.4714  -15.6500   19.8907 N   0  0  0  0  0  0  0  0  0  0  0  0
    8.0003  -16.0414   21.6264 C   0  0  0  0  0  0  0  0  0  0  0  0
    7.0264  -16.1689   22.4510 O   0  0  0  0  0  0  0  0  0  0  0  0
    9.2457  -16.6162   22.0004 N   0  0  0  0  0  0  0  0  0  0  0  0
    9.3888  -17.4233   23.1977 C   0  0  1  0  0  0  0  0  0  0  0  0
   10.4038  -18.5503   22.9500 C   0  0  0  0  0  0  0  0  0  0  0  0
   10.4972  -19.4634   24.1338 C   0  0  0  0  0  0  0  0  0  0  0  0
   11.5110  -20.5385   23.8082 C   0  0  0  0  0  0  0  0  0  0  0  0
   12.8290  -20.2863   24.5094 C   0  0  0  0  0  0  0  0  0  0  0  0
   13.7600  -21.3166   24.0995 N   0  0  0  0  0  0  0  0  0  0  0  0
    9.7871  -16.6493   24.3906 C   0  0  0  0  0  0  0  0  0  0  0  0
   10.7350  -15.7930   24.3393 O   0  0  0  0  0  0  0  0  0  0  0  0
    9.1509  -16.8063   25.6443 N   0  0  0  0  0  0  0  0  0  0  0  0
    9.5825  -16.0938   26.8400 C   0  0  1  0  0  0  0  0  0  0  0  0
    8.4218  -15.5541   27.6069 C   0  0  0  0  0  0  0  0  0  0  0  0
    7.8688  -14.3225   27.0198 C   0  0  0  0  0  0  0  0  0  0  0  0
    8.6000  -13.1509   26.8991 C   0  0  0  0  0  0  0  0  0  0  0  0
    8.0787  -12.0087   26.3307 C   0  0  0  0  0  0  0  0  0  0  0  0
    6.7778  -12.0121   25.8567 C   0  0  0  0  0  0  0  0  0  0  0  0
    6.0270  -13.1588   25.9619 C   0  0  0  0  0  0  0  0  0  0  0  0
    6.5802  -14.2986   26.5411 C   0  0  0  0  0  0  0  0  0  0  0  0
   10.3905  -17.0093   27.6657 C   0  0  0  0  0  0  0  0  0  0  0  0
   10.5954  -18.3246   27.2636 O   0  0  0  0  0  0  0  0  0  0  0  0
   10.9285  -16.6775   28.7469 O   0  0  0  0  0  0  0  0  0  0  0  0
  2  1  1  0
  3  2  1  0
  3  4  1  6
  5  3  1  0
  5  6  1  1
  7  8  2  0
  7  5  1  0
  9  7  1  0
 10  9  1  0
 11 12  1  0
 10 11  1  6
 12 13  1  0
 13 14  1  0
 14 15  1  0
 16 17  2  0
 16 10  1  0
 18 16  1  0
 19 20  1  1
 19 18  1  0
 20 21  1  0
 21 26  2  0
 21 22  1  0
 22 23  2  0
 23 24  1  0
 25 24  2  0
 26 25  1  0
 27 19  1  0
 28 27  1  0
 29 27  2  0
M  END
$$$$
