IKF.pdb
     RDKit          3D

 29 29  0  0  1  0  0  0  0  0999 V2000
    6.8698  -20.7891   27.4254 C   0  0  0  0  0  0  0  0  0  0  0  0
    6.2403  -20.5492   26.0726 C   0  0  0  0  0  0  0  0  0  0  0  0
    6.9852  -19.4475   25.3185 C   0  0  2  0  0  0  0  0  0  0  0  0
    7.0585  -18.2199   26.1880 C   0  0  0  0  0  0  0  0  0  0  0  0
    6.2973  -19.1962   23.9805 C   0  0  2  0  0  0  0  0  0  0  0  0
    6.3996  -20.5036   23.2950 N   0  0  0  0  0  0  0  0  0  0  0  0
    7.1356  -18.2793   23.1763 C   0  0  0  0  0  0  0  0  0  0  0  0
    8.2759  -18.6356   22.7097 O   0  0  0  0  0  0  0  0  0  0  0  0
    6.7005  -16.9575   22.8850 N   0  0  0  0  0  0  0  0  0  0  0  0
    7.5577  -15.9989   22.2127 C   0  0  1  0  0  0  0  0  0  0  0  0
    6.7241  -14.8016   21.7296 C   0  0  0  0  0  0  0  0  0  0  0  0
    7.5861  -13.7817   21.0508 C   0  0  0  0  0  0  0  0  0  0  0  0
    7.3517  -13.8981   19.5605 C   0  0  0  0  0  0  0  0  0  0  0  0
    8.3862  -13.1196   18.7755 C   0  0  0  0  0  0  0  0  0  0  0  0
    8.1565  -13.3616   17.3667 N   0  0  0  0  0  0  0  0  0  0  0  0
    8.6792  -15.5199   23.0454 C   0  0  0  0  0  0  0  0  0  0  0  0
    9.6033  -14.7857   22.5541 O   0  0  0  0  0  0  0  0  0  0  0  0
    8.7955  -15.8396   24.4184 N   0  0  0  0  0  0  0  0  0  0  0  0
    9.8673  -15.3211   25.2587 C   0  0  1  0  0  0  0  0  0  0  0  0
    9.7412  -13.8484   25.4635 C   0  0  0  0  0  0  0  0  0  0  0  0
    8.4627  -13.4625   26.0828 C   0  0  0  0  0  0  0  0  0  0  0  0
    8.3466  -12.4118   26.9797 C   0  0  0  0  0  0  0  0  0  0  0  0
    7.1412  -12.0467   27.5394 C   0  0  0  0  0  0  0  0  0  0  0  0
    5.9923  -12.7434   27.2056 C   0  0  0  0  0  0  0  0  0  0  0  0
    6.0747  -13.7904   26.3187 C   0  0  0  0  0  0  0  0  0  0  0  0
    7.3067  -14.1370   25.7686 C   0  0  0  0  0  0  0  0  0  0  0  0
    9.8479  -16.0438   26.5433 C   0  0  0  0  0  0  0  0  0  0  0  0
   10.8261  -15.8024   27.5017 O   0  0  0  0  0  0  0  0  0  0  0  0
    8.9805  -16.8940   26.8488 O   0  0  0  0  0  0  0  0  0  0  0  0
  2  1  1  0
  3  2  1  0
  3  4  1  1
  5  3  1  0
  5  6  1  6
  7  8  2  0
  7  5  1  0
  9  7  1  0
 10  9  1  0
 11 12  1  0
 10 11  1  1
 12 13  1  0
 13 14  1  0
 14 15  1  0
 16 17  2  0
 16 10  1  0
 18 16  1  0
 19 20  1  1
 19 18  1  0
 20 21  1  0
 21 26  2  0
 21 22  1  0
 22 23  2  0
 23 24  1  0
 25 24  2  0
 26 25  1  0
 27 19  1  0
 28 27  1  0
 29 27  2  0
M  END
$$$$
