IKF.pdb
     RDKit          3D

 29 29  0  0  1  0  0  0  0  0999 V2000
    6.9323  -22.0564   21.4508 C   0  0  0  0  0  0  0  0  0  0  0  0
    6.7167  -20.8661   20.5449 C   0  0  0  0  0  0  0  0  0  0  0  0
    7.4430  -19.6357   21.0887 C   0  0  2  0  0  0  0  0  0  0  0  0
    7.0275  -19.4117   22.5189 C   0  0  0  0  0  0  0  0  0  0  0  0
    7.1580  -18.4398   20.1856 C   0  0  2  0  0  0  0  0  0  0  0  0
    7.7530  -18.8417   18.8917 N   0  0  0  0  0  0  0  0  0  0  0  0
    7.9751  -17.2923   20.6392 C   0  0  0  0  0  0  0  0  0  0  0  0
    9.2568  -17.3357   20.6544 O   0  0  0  0  0  0  0  0  0  0  0  0
    7.3623  -16.0857   21.0749 N   0  0  0  0  0  0  0  0  0  0  0  0
    8.1250  -15.0200   21.6978 C   0  0  1  0  0  0  0  0  0  0  0  0
    7.4998  -13.6592   21.3521 C   0  0  0  0  0  0  0  0  0  0  0  0
    7.1948  -13.5607   19.8888 C   0  0  0  0  0  0  0  0  0  0  0  0
    8.5118  -13.4970   19.1465 C   0  0  0  0  0  0  0  0  0  0  0  0
    8.2991  -13.3572   17.6540 C   0  0  0  0  0  0  0  0  0  0  0  0
    8.1869  -11.9468   17.3465 N   0  0  0  0  0  0  0  0  0  0  0  0
    8.2438  -15.1541   23.1636 C   0  0  0  0  0  0  0  0  0  0  0  0
    7.2143  -15.3422   23.8979 O   0  0  0  0  0  0  0  0  0  0  0  0
    9.4878  -15.0848   23.8335 N   0  0  0  0  0  0  0  0  0  0  0  0
    9.6270  -15.3376   25.2620 C   0  0  1  0  0  0  0  0  0  0  0  0
    8.2990  -15.4166   25.9378 C   0  0  0  0  0  0  0  0  0  0  0  0
    7.7617  -14.0957   26.3038 C   0  0  0  0  0  0  0  0  0  0  0  0
    8.5579  -13.0614   26.7710 C   0  0  0  0  0  0  0  0  0  0  0  0
    8.0474  -11.8225   27.0931 C   0  0  0  0  0  0  0  0  0  0  0  0
    6.6912  -11.5827   26.9513 C   0  0  0  0  0  0  0  0  0  0  0  0
    5.8753  -12.5883   26.4902 C   0  0  0  0  0  0  0  0  0  0  0  0
    6.4191  -13.8308   26.1723 C   0  0  0  0  0  0  0  0  0  0  0  0
   10.3959  -16.5817   25.4456 C   0  0  0  0  0  0  0  0  0  0  0  0
   10.6895  -17.0458   26.7232 O   0  0  0  0  0  0  0  0  0  0  0  0
   10.8222  -17.2809   24.4981 O   0  0  0  0  0  0  0  0  0  0  0  0
  2  1  1  0
  3  2  1  0
  3  4  1  1
  5  3  1  0
  5  6  1  6
  7  8  2  0
  7  5  1  0
  9  7  1  0
 10  9  1  0
 11 12  1  0
 10 11  1  1
 12 13  1  0
 13 14  1  0
 14 15  1  0
 16 17  2  0
 16 10  1  0
 18 16  1  0
 19 20  1  6
 19 18  1  0
 20 21  1  0
 21 26  2  0
 21 22  1  0
 22 23  2  0
 23 24  1  0
 25 24  2  0
 26 25  1  0
 27 19  1  0
 28 27  1  0
 29 27  2  0
M  END
$$$$
