IKF.pdb
     RDKit          3D

 29 29  0  0  1  0  0  0  0  0999 V2000
    9.2499  -12.9873   18.1956 C   0  0  0  0  0  0  0  0  0  0  0  0
    7.7687  -12.9407   18.4915 C   0  0  0  0  0  0  0  0  0  0  0  0
    7.4764  -13.5210   19.8754 C   0  0  2  0  0  0  0  0  0  0  0  0
    8.0562  -12.6081   20.9236 C   0  0  0  0  0  0  0  0  0  0  0  0
    8.0187  -14.9447   19.9518 C   0  0  2  0  0  0  0  0  0  0  0  0
    7.2875  -15.6451   18.8726 N   0  0  0  0  0  0  0  0  0  0  0  0
    7.5403  -15.5723   21.2038 C   0  0  0  0  0  0  0  0  0  0  0  0
    6.5815  -15.0699   21.8916 O   0  0  0  0  0  0  0  0  0  0  0  0
    8.1299  -16.7702   21.6923 N   0  0  0  0  0  0  0  0  0  0  0  0
    7.8886  -17.2490   23.0406 C   0  0  1  0  0  0  0  0  0  0  0  0
    7.7357  -18.7782   23.0325 C   0  0  0  0  0  0  0  0  0  0  0  0
    7.5180  -19.3070   24.4170 C   0  0  0  0  0  0  0  0  0  0  0  0
    7.4285  -20.8147   24.3262 C   0  0  0  0  0  0  0  0  0  0  0  0
    7.1698  -21.4360   25.6824 C   0  0  0  0  0  0  0  0  0  0  0  0
    7.0551  -22.8685   25.5057 N   0  0  0  0  0  0  0  0  0  0  0  0
    8.9370  -16.8596   24.0049 C   0  0  0  0  0  0  0  0  0  0  0  0
   10.1746  -17.0641   23.7573 O   0  0  0  0  0  0  0  0  0  0  0  0
    8.6385  -16.2441   25.2429 N   0  0  0  0  0  0  0  0  0  0  0  0
    9.6707  -15.8335   26.1863 C   0  0  1  0  0  0  0  0  0  0  0  0
    9.8778  -14.3558   26.1651 C   0  0  0  0  0  0  0  0  0  0  0  0
    8.6154  -13.5989   26.1915 C   0  0  0  0  0  0  0  0  0  0  0  0
    8.1688  -12.9170   27.3129 C   0  0  0  0  0  0  0  0  0  0  0  0
    6.9945  -12.1957   27.3212 C   0  0  0  0  0  0  0  0  0  0  0  0
    6.2183  -12.1380   26.1762 C   0  0  0  0  0  0  0  0  0  0  0  0
    6.6342  -12.8036   25.0477 C   0  0  0  0  0  0  0  0  0  0  0  0
    7.8259  -13.5249   25.0684 C   0  0  0  0  0  0  0  0  0  0  0  0
    9.2902  -16.3014   27.5312 C   0  0  0  0  0  0  0  0  0  0  0  0
   10.1581  -16.1377   28.6053 O   0  0  0  0  0  0  0  0  0  0  0  0
    8.1987  -16.8585   27.7898 O   0  0  0  0  0  0  0  0  0  0  0  0
  2  1  1  0
  3  2  1  0
  3  4  1  1
  5  3  1  0
  5  6  1  6
  7  8  2  0
  7  5  1  0
  9  7  1  0
 10  9  1  0
 11 12  1  0
 10 11  1  6
 12 13  1  0
 13 14  1  0
 14 15  1  0
 16 17  2  0
 16 10  1  0
 18 16  1  0
 19 20  1  1
 19 18  1  0
 20 21  1  0
 21 26  2  0
 21 22  1  0
 22 23  2  0
 23 24  1  0
 25 24  2  0
 26 25  1  0
 27 19  1  0
 28 27  1  0
 29 27  2  0
M  END
$$$$
