IKF.pdb
     RDKit          3D

 29 29  0  0  1  0  0  0  0  0999 V2000
    6.9689  -12.8979   18.3108 C   0  0  0  0  0  0  0  0  0  0  0  0
    8.2356  -13.1107   19.1070 C   0  0  0  0  0  0  0  0  0  0  0  0
    7.9444  -13.9010   20.3830 C   0  0  2  0  0  0  0  0  0  0  0  0
    6.9001  -13.1708   21.1858 C   0  0  0  0  0  0  0  0  0  0  0  0
    9.2449  -14.1226   21.1487 C   0  0  2  0  0  0  0  0  0  0  0  0
   10.0735  -14.8932   20.1952 N   0  0  0  0  0  0  0  0  0  0  0  0
    8.9878  -15.0555   22.2684 C   0  0  0  0  0  0  0  0  0  0  0  0
    8.1081  -14.8094   23.1686 O   0  0  0  0  0  0  0  0  0  0  0  0
    9.7116  -16.2736   22.3854 N   0  0  0  0  0  0  0  0  0  0  0  0
    9.5973  -17.1239   23.5557 C   0  0  1  0  0  0  0  0  0  0  0  0
   10.4011  -18.4164   23.3429 C   0  0  0  0  0  0  0  0  0  0  0  0
   10.1930  -19.3749   24.4752 C   0  0  0  0  0  0  0  0  0  0  0  0
   11.0233  -20.6082   24.1939 C   0  0  0  0  0  0  0  0  0  0  0  0
   10.8984  -21.6249   25.3089 C   0  0  0  0  0  0  0  0  0  0  0  0
   11.7569  -22.7468   24.9918 N   0  0  0  0  0  0  0  0  0  0  0  0
   10.0289  -16.4709   24.8078 C   0  0  0  0  0  0  0  0  0  0  0  0
   11.1389  -15.8405   24.8784 O   0  0  0  0  0  0  0  0  0  0  0  0
    9.2495  -16.5024   25.9879 N   0  0  0  0  0  0  0  0  0  0  0  0
    9.7088  -15.9354   27.2493 C   0  0  1  0  0  0  0  0  0  0  0  0
    8.6109  -15.2181   27.9612 C   0  0  0  0  0  0  0  0  0  0  0  0
    8.0611  -14.0947   27.1846 C   0  0  0  0  0  0  0  0  0  0  0  0
    8.6763  -12.8543   27.1148 C   0  0  0  0  0  0  0  0  0  0  0  0
    8.1630  -11.8149   26.3694 C   0  0  0  0  0  0  0  0  0  0  0  0
    6.9900  -11.9972   25.6569 C   0  0  0  0  0  0  0  0  0  0  0  0
    6.3562  -13.2160   25.7058 C   0  0  0  0  0  0  0  0  0  0  0  0
    6.8982  -14.2487   26.4676 C   0  0  0  0  0  0  0  0  0  0  0  0
   10.2639  -17.0211   28.0774 C   0  0  0  0  0  0  0  0  0  0  0  0
   10.1796  -18.3429   27.6539 O   0  0  0  0  0  0  0  0  0  0  0  0
   10.8291  -16.8345   29.1793 O   0  0  0  0  0  0  0  0  0  0  0  0
  2  1  1  0
  3  2  1  0
  3  4  1  1
  5  3  1  0
  5  6  1  6
  7  8  2  0
  7  5  1  0
  9  7  1  0
 10  9  1  0
 11 12  1  0
 10 11  1  6
 12 13  1  0
 13 14  1  0
 14 15  1  0
 16 17  2  0
 16 10  1  0
 18 16  1  0
 19 20  1  1
 19 18  1  0
 20 21  1  0
 21 26  2  0
 21 22  1  0
 22 23  2  0
 23 24  1  0
 25 24  2  0
 26 25  1  0
 27 19  1  0
 28 27  1  0
 29 27  2  0
M  END
$$$$
