IKF.pdb
     RDKit          3D

 29 29  0  0  1  0  0  0  0  0999 V2000
    7.6320  -11.7098   19.2488 C   0  0  0  0  0  0  0  0  0  0  0  0
    7.7496  -13.1499   18.8057 C   0  0  0  0  0  0  0  0  0  0  0  0
    8.0182  -14.0624   20.0025 C   0  0  2  0  0  0  0  0  0  0  0  0
    9.2659  -13.5966   20.7056 C   0  0  0  0  0  0  0  0  0  0  0  0
    8.1009  -15.5094   19.5269 C   0  0  2  0  0  0  0  0  0  0  0  0
    6.7272  -15.7906   19.0539 N   0  0  0  0  0  0  0  0  0  0  0  0
    8.2853  -16.3896   20.7023 C   0  0  0  0  0  0  0  0  0  0  0  0
    7.3392  -16.6113   21.5393 O   0  0  0  0  0  0  0  0  0  0  0  0
    9.5301  -17.0315   20.9463 N   0  0  0  0  0  0  0  0  0  0  0  0
    9.7734  -17.7988   22.1536 C   0  0  1  0  0  0  0  0  0  0  0  0
   10.9253  -18.7890   21.9202 C   0  0  0  0  0  0  0  0  0  0  0  0
   10.4581  -19.9919   21.1594 C   0  0  0  0  0  0  0  0  0  0  0  0
   11.6526  -20.8962   20.9475 C   0  0  0  0  0  0  0  0  0  0  0  0
   11.2758  -22.1355   20.1636 C   0  0  0  0  0  0  0  0  0  0  0  0
   11.1135  -21.7568   18.7756 N   0  0  0  0  0  0  0  0  0  0  0  0
   10.0667  -16.9654   23.3369 C   0  0  0  0  0  0  0  0  0  0  0  0
   10.9066  -16.0033   23.2786 O   0  0  0  0  0  0  0  0  0  0  0  0
    9.4431  -17.1786   24.5886 N   0  0  0  0  0  0  0  0  0  0  0  0
    9.0466  -16.0848   25.4662 C   0  0  1  0  0  0  0  0  0  0  0  0
    8.0893  -15.1594   24.7925 C   0  0  0  0  0  0  0  0  0  0  0  0
    7.7012  -14.0191   25.6389 C   0  0  0  0  0  0  0  0  0  0  0  0
    8.6158  -13.1026   26.1344 C   0  0  0  0  0  0  0  0  0  0  0  0
    8.2396  -12.0277   26.9104 C   0  0  0  0  0  0  0  0  0  0  0  0
    6.9028  -11.8393   27.2174 C   0  0  0  0  0  0  0  0  0  0  0  0
    5.9714  -12.7310   26.7408 C   0  0  0  0  0  0  0  0  0  0  0  0
    6.3808  -13.8085   25.9584 C   0  0  0  0  0  0  0  0  0  0  0  0
    8.4648  -16.6558   26.6942 C   0  0  0  0  0  0  0  0  0  0  0  0
    8.9119  -16.2410   27.9439 O   0  0  0  0  0  0  0  0  0  0  0  0
    7.5606  -17.5224   26.6966 O   0  0  0  0  0  0  0  0  0  0  0  0
  2  1  1  0
  3  2  1  0
  3  4  1  6
  5  3  1  0
  5  6  1  1
  7  8  2  0
  7  5  1  0
  9  7  1  0
 10  9  1  0
 11 12  1  0
 10 11  1  6
 12 13  1  0
 13 14  1  0
 14 15  1  0
 16 17  2  0
 16 10  1  0
 18 16  1  0
 19 20  1  6
 19 18  1  0
 20 21  1  0
 21 26  2  0
 21 22  1  0
 22 23  2  0
 23 24  1  0
 25 24  2  0
 26 25  1  0
 27 19  1  0
 28 27  1  0
 29 27  2  0
M  END
$$$$
