GKE.pdb
     RDKit          3D

 23 22  0  0  1  0  0  0  0  0999 V2000
    8.6787  -17.1997   18.4593 N   0  0  0  0  0  0  0  0  0  0  0  0
    7.7444  -17.1414   19.5649 C   0  0  0  0  0  0  0  0  0  0  0  0
    8.2929  -16.2412   20.6387 C   0  0  0  0  0  0  0  0  0  0  0  0
    9.4379  -15.7767   20.5130 O   0  0  0  0  0  0  0  0  0  0  0  0
    7.5302  -15.9144   21.7871 N   0  0  0  0  0  0  0  0  0  0  0  0
    8.0752  -15.1130   22.8603 C   0  0  1  0  0  0  0  0  0  0  0  0
    6.9612  -14.5688   23.7572 C   0  0  0  0  0  0  0  0  0  0  0  0
    7.5299  -13.7038   24.8499 C   0  0  0  0  0  0  0  0  0  0  0  0
    6.5165  -13.1650   25.7934 C   0  0  0  0  0  0  0  0  0  0  0  0
    7.1555  -12.3660   26.8900 C   0  0  0  0  0  0  0  0  0  0  0  0
    6.1727  -12.0278   27.9301 N   0  0  0  0  0  0  0  0  0  0  0  0
    9.0325  -15.9266   23.6299 C   0  0  0  0  0  0  0  0  0  0  0  0
    8.6842  -17.0680   24.0400 O   0  0  0  0  0  0  0  0  0  0  0  0
   10.3399  -15.5235   23.9538 N   0  0  0  0  0  0  0  0  0  0  0  0
   11.3838  -16.4462   24.4533 C   0  0  1  0  0  0  0  0  0  0  0  0
   12.7022  -16.0366   23.9423 C   0  0  0  0  0  0  0  0  0  0  0  0
   13.8206  -16.9503   24.2597 C   0  0  0  0  0  0  0  0  0  0  0  0
   15.1622  -16.5249   23.8073 C   0  0  0  0  0  0  0  0  0  0  0  0
   15.4016  -15.5072   23.1020 O   0  0  0  0  0  0  0  0  0  0  0  0
   11.2843  -16.6780   25.8777 C   0  0  0  0  0  0  0  0  0  0  0  0
   10.7294  -15.9161   26.7174 O   0  0  0  0  0  0  0  0  0  0  0  0
   16.2549  -17.3005   24.1827 O   0  0  0  0  0  0  0  0  0  0  0  0
   11.8693  -17.8765   26.3595 O   0  0  0  0  0  0  0  0  0  0  0  0
  2  1  1  0
  2  3  1  0
  3  4  2  0
  5  3  1  0
  5  6  1  0
  6  7  1  1
  8  7  1  0
  9  8  1  0
  9 10  1  0
 10 11  1  0
 12  6  1  0
 12 14  1  0
 13 12  2  0
 15 14  1  0
 15 16  1  1
 16 17  1  0
 17 18  1  0
 18 22  1  0
 19 18  2  0
 20 23  1  0
 20 15  1  0
 21 20  2  0
M  END
$$$$
