GKE.pdb
     RDKit          3D

 23 22  0  0  1  0  0  0  0  0999 V2000
    9.3019  -17.3818   17.6396 N   0  0  0  0  0  0  0  0  0  0  0  0
    8.3824  -17.5236   18.7501 C   0  0  0  0  0  0  0  0  0  0  0  0
    8.8891  -16.7323   19.9254 C   0  0  0  0  0  0  0  0  0  0  0  0
   10.1132  -16.6519   20.1189 O   0  0  0  0  0  0  0  0  0  0  0  0
    7.9985  -16.0791   20.8129 N   0  0  0  0  0  0  0  0  0  0  0  0
    8.4716  -15.3710   21.9817 C   0  0  1  0  0  0  0  0  0  0  0  0
    7.3199  -14.6562   22.6920 C   0  0  0  0  0  0  0  0  0  0  0  0
    7.8233  -13.8851   23.8826 C   0  0  0  0  0  0  0  0  0  0  0  0
    6.7543  -13.2561   24.7005 C   0  0  0  0  0  0  0  0  0  0  0  0
    7.3201  -12.5478   25.8953 C   0  0  0  0  0  0  0  0  0  0  0  0
    6.2471  -11.9562   26.7080 N   0  0  0  0  0  0  0  0  0  0  0  0
    9.1461  -16.3235   22.8809 C   0  0  0  0  0  0  0  0  0  0  0  0
    8.6170  -17.4479   23.0997 O   0  0  0  0  0  0  0  0  0  0  0  0
   10.3662  -16.0745   23.5336 N   0  0  0  0  0  0  0  0  0  0  0  0
   11.0841  -17.0827   24.3453 C   0  0  1  0  0  0  0  0  0  0  0  0
   12.5377  -16.9042   24.1970 C   0  0  0  0  0  0  0  0  0  0  0  0
   13.0623  -17.0619   22.8236 C   0  0  0  0  0  0  0  0  0  0  0  0
   14.5077  -16.8104   22.6418 C   0  0  0  0  0  0  0  0  0  0  0  0
   15.0020  -15.8147   22.0463 O   0  0  0  0  0  0  0  0  0  0  0  0
   10.5765  -17.1708   25.6970 C   0  0  0  0  0  0  0  0  0  0  0  0
   10.8651  -18.0627   26.5424 O   0  0  0  0  0  0  0  0  0  0  0  0
   15.4034  -17.7385   23.1642 O   0  0  0  0  0  0  0  0  0  0  0  0
    9.6720  -16.1533   26.0938 O   0  0  0  0  0  0  0  0  0  0  0  0
  2  1  1  0
  2  3  1  0
  3  4  2  0
  5  3  1  0
  5  6  1  0
  6  7  1  1
  8  7  1  0
  9  8  1  0
  9 10  1  0
 10 11  1  0
 12  6  1  0
 12 14  1  0
 13 12  2  0
 15 14  1  0
 15 16  1  1
 16 17  1  0
 17 18  1  0
 18 22  1  0
 19 18  2  0
 20 23  1  0
 20 15  1  0
 21 20  2  0
M  END
$$$$
