GKE.pdb
     RDKit          3D

 23 22  0  0  1  0  0  0  0  0999 V2000
    5.2771  -19.6617   23.6430 N   0  0  0  0  0  0  0  0  0  0  0  0
    5.4325  -18.2636   23.9891 C   0  0  0  0  0  0  0  0  0  0  0  0
    6.6510  -17.7090   23.3021 C   0  0  0  0  0  0  0  0  0  0  0  0
    7.5418  -18.4884   22.9264 O   0  0  0  0  0  0  0  0  0  0  0  0
    6.8007  -16.3183   23.0765 N   0  0  0  0  0  0  0  0  0  0  0  0
    7.9593  -15.7770   22.4014 C   0  0  1  0  0  0  0  0  0  0  0  0
    7.6530  -14.4005   21.8069 C   0  0  0  0  0  0  0  0  0  0  0  0
    7.4537  -14.4943   20.3180 C   0  0  0  0  0  0  0  0  0  0  0  0
    7.9323  -13.3088   19.5610 C   0  0  0  0  0  0  0  0  0  0  0  0
    7.5847  -13.4082   18.1054 C   0  0  0  0  0  0  0  0  0  0  0  0
    8.0637  -12.2270   17.3725 N   0  0  0  0  0  0  0  0  0  0  0  0
    9.0830  -15.7113   23.3521 C   0  0  0  0  0  0  0  0  0  0  0  0
    8.8932  -15.2251   24.5009 O   0  0  0  0  0  0  0  0  0  0  0  0
   10.3867  -16.1592   23.0757 N   0  0  0  0  0  0  0  0  0  0  0  0
   11.4444  -16.2920   24.1025 C   0  0  1  0  0  0  0  0  0  0  0  0
   11.0116  -17.2305   25.1507 C   0  0  0  0  0  0  0  0  0  0  0  0
   12.0182  -17.5325   26.1908 C   0  0  0  0  0  0  0  0  0  0  0  0
   11.5791  -18.4193   27.2891 C   0  0  0  0  0  0  0  0  0  0  0  0
   12.2983  -18.7853   28.2582 O   0  0  0  0  0  0  0  0  0  0  0  0
   12.7514  -16.5216   23.5265 C   0  0  0  0  0  0  0  0  0  0  0  0
   12.9870  -17.0670   22.4127 O   0  0  0  0  0  0  0  0  0  0  0  0
   10.2714  -18.8943   27.2626 O   0  0  0  0  0  0  0  0  0  0  0  0
   13.8602  -16.0882   24.2969 O   0  0  0  0  0  0  0  0  0  0  0  0
  2  1  1  0
  2  3  1  0
  3  4  2  0
  5  3  1  0
  5  6  1  0
  6  7  1  1
  8  7  1  0
  9  8  1  0
  9 10  1  0
 10 11  1  0
 12  6  1  0
 12 14  1  0
 13 12  2  0
 15 14  1  0
 15 16  1  1
 16 17  1  0
 17 18  1  0
 18 22  1  0
 19 18  2  0
 20 23  1  0
 20 15  1  0
 21 20  2  0
M  END
$$$$
