GKE.pdb
     RDKit          3D

 23 22  0  0  1  0  0  0  0  0999 V2000
    8.4522  -15.7366   18.3773 N   0  0  0  0  0  0  0  0  0  0  0  0
    7.5252  -15.9422   19.4714 C   0  0  0  0  0  0  0  0  0  0  0  0
    8.1352  -15.4320   20.7488 C   0  0  0  0  0  0  0  0  0  0  0  0
    9.3719  -15.3976   20.8578 O   0  0  0  0  0  0  0  0  0  0  0  0
    7.3278  -14.9914   21.8264 N   0  0  0  0  0  0  0  0  0  0  0  0
    7.9042  -14.4736   23.0474 C   0  0  1  0  0  0  0  0  0  0  0  0
    6.8475  -13.7562   23.8903 C   0  0  0  0  0  0  0  0  0  0  0  0
    7.4644  -13.1634   25.1287 C   0  0  0  0  0  0  0  0  0  0  0  0
    6.4958  -12.4918   26.0331 C   0  0  0  0  0  0  0  0  0  0  0  0
    7.1807  -11.8903   27.2242 C   0  0  0  0  0  0  0  0  0  0  0  0
    6.1993  -11.3121   28.1539 N   0  0  0  0  0  0  0  0  0  0  0  0
    8.5230  -15.5822   23.7951 C   0  0  0  0  0  0  0  0  0  0  0  0
    7.8491  -16.6234   24.0272 O   0  0  0  0  0  0  0  0  0  0  0  0
    9.8408  -15.5742   24.2850 N   0  0  0  0  0  0  0  0  0  0  0  0
   10.4410  -16.6930   25.0457 C   0  0  1  0  0  0  0  0  0  0  0  0
   11.8871  -16.7624   24.7796 C   0  0  0  0  0  0  0  0  0  0  0  0
   12.2736  -16.7532   23.3524 C   0  0  0  0  0  0  0  0  0  0  0  0
   13.7237  -16.7195   23.0669 C   0  0  0  0  0  0  0  0  0  0  0  0
   14.5020  -15.7754   23.3724 O   0  0  0  0  0  0  0  0  0  0  0  0
   10.0365  -16.6999   26.4346 C   0  0  0  0  0  0  0  0  0  0  0  0
    9.4457  -15.7637   27.0410 O   0  0  0  0  0  0  0  0  0  0  0  0
   14.2859  -17.8096   22.4095 O   0  0  0  0  0  0  0  0  0  0  0  0
   10.3390  -17.8746   27.1690 O   0  0  0  0  0  0  0  0  0  0  0  0
  2  1  1  0
  2  3  1  0
  3  4  2  0
  5  3  1  0
  5  6  1  0
  6  7  1  1
  8  7  1  0
  9  8  1  0
  9 10  1  0
 10 11  1  0
 12  6  1  0
 12 14  1  0
 13 12  2  0
 15 14  1  0
 15 16  1  1
 16 17  1  0
 17 18  1  0
 18 22  1  0
 19 18  2  0
 20 23  1  0
 20 15  1  0
 21 20  2  0
M  END
$$$$
