GKE.pdb
     RDKit          3D

 23 22  0  0  1  0  0  0  0  0999 V2000
    6.1723  -20.6762   19.1788 N   0  0  0  0  0  0  0  0  0  0  0  0
    5.8224  -19.7947   20.2739 C   0  0  0  0  0  0  0  0  0  0  0  0
    6.8436  -18.6944   20.3784 C   0  0  0  0  0  0  0  0  0  0  0  0
    7.9139  -18.8007   19.7576 O   0  0  0  0  0  0  0  0  0  0  0  0
    6.6077  -17.5429   21.1695 N   0  0  0  0  0  0  0  0  0  0  0  0
    7.5609  -16.4575   21.2371 C   0  0  1  0  0  0  0  0  0  0  0  0
    6.9058  -15.1871   21.7835 C   0  0  0  0  0  0  0  0  0  0  0  0
    7.7763  -13.9857   21.5294 C   0  0  0  0  0  0  0  0  0  0  0  0
    8.1449  -13.7881   20.1037 C   0  0  0  0  0  0  0  0  0  0  0  0
    9.0000  -12.5696   19.9201 C   0  0  0  0  0  0  0  0  0  0  0  0
    9.3648  -12.3961   18.5064 N   0  0  0  0  0  0  0  0  0  0  0  0
    8.7031  -16.8716   22.0706 C   0  0  0  0  0  0  0  0  0  0  0  0
    8.4890  -17.4874   23.1509 O   0  0  0  0  0  0  0  0  0  0  0  0
   10.0507  -16.6295   21.7512 N   0  0  0  0  0  0  0  0  0  0  0  0
   11.1885  -17.1546   22.5388 C   0  0  1  0  0  0  0  0  0  0  0  0
   12.3691  -17.3099   21.6734 C   0  0  0  0  0  0  0  0  0  0  0  0
   13.5872  -17.8154   22.3419 C   0  0  0  0  0  0  0  0  0  0  0  0
   14.7861  -17.9679   21.4904 C   0  0  0  0  0  0  0  0  0  0  0  0
   15.4962  -17.0188   21.0600 O   0  0  0  0  0  0  0  0  0  0  0  0
   11.3840  -16.4356   23.7788 C   0  0  0  0  0  0  0  0  0  0  0  0
   11.1385  -15.2131   23.9753 O   0  0  0  0  0  0  0  0  0  0  0  0
   15.1713  -19.2552   21.1285 O   0  0  0  0  0  0  0  0  0  0  0  0
   11.8997  -17.1881   24.8644 O   0  0  0  0  0  0  0  0  0  0  0  0
  2  1  1  0
  2  3  1  0
  3  4  2  0
  5  3  1  0
  5  6  1  0
  6  7  1  1
  8  7  1  0
  9  8  1  0
  9 10  1  0
 10 11  1  0
 12  6  1  0
 12 14  1  0
 13 12  2  0
 15 14  1  0
 15 16  1  6
 16 17  1  0
 17 18  1  0
 18 22  1  0
 19 18  2  0
 20 23  1  0
 20 15  1  0
 21 20  2  0
M  END
$$$$
