GKE.pdb
     RDKit          3D

 23 22  0  0  1  0  0  0  0  0999 V2000
   15.6023  -14.3905   15.7187 N   0  0  0  0  0  0  0  0  0  0  0  0
   14.2238  -14.8352   15.7489 C   0  0  0  0  0  0  0  0  0  0  0  0
   13.5909  -14.4199   17.0493 C   0  0  0  0  0  0  0  0  0  0  0  0
   14.2940  -13.8825   17.9206 O   0  0  0  0  0  0  0  0  0  0  0  0
   12.2120  -14.6299   17.2979 N   0  0  0  0  0  0  0  0  0  0  0  0
   11.5993  -14.2568   18.5535 C   0  0  1  0  0  0  0  0  0  0  0  0
   10.0742  -14.2272   18.4309 C   0  0  0  0  0  0  0  0  0  0  0  0
    9.4428  -13.7921   19.7261 C   0  0  0  0  0  0  0  0  0  0  0  0
    7.9976  -14.1170   19.8415 C   0  0  0  0  0  0  0  0  0  0  0  0
    7.4118  -13.5771   21.1122 C   0  0  0  0  0  0  0  0  0  0  0  0
    6.0256  -14.0362   21.2844 N   0  0  0  0  0  0  0  0  0  0  0  0
   12.0339  -15.1989   19.5995 C   0  0  0  0  0  0  0  0  0  0  0  0
   12.0048  -16.4386   19.3659 O   0  0  0  0  0  0  0  0  0  0  0  0
   12.4917  -14.8183   20.8732 N   0  0  0  0  0  0  0  0  0  0  0  0
   13.1280  -15.7514   21.8299 C   0  0  1  0  0  0  0  0  0  0  0  0
   14.5259  -15.3542   22.0645 C   0  0  0  0  0  0  0  0  0  0  0  0
   15.2900  -16.2245   22.9837 C   0  0  0  0  0  0  0  0  0  0  0  0
   16.6838  -15.8185   23.2627 C   0  0  0  0  0  0  0  0  0  0  0  0
   17.0878  -15.3029   24.3404 O   0  0  0  0  0  0  0  0  0  0  0  0
   12.3145  -15.9834   23.0033 C   0  0  0  0  0  0  0  0  0  0  0  0
   11.2878  -15.3291   23.3368 O   0  0  0  0  0  0  0  0  0  0  0  0
   17.6342  -16.0156   22.2655 O   0  0  0  0  0  0  0  0  0  0  0  0
   12.7215  -17.0481   23.8469 O   0  0  0  0  0  0  0  0  0  0  0  0
  2  1  1  0
  2  3  1  0
  3  4  2  0
  5  3  1  0
  5  6  1  0
  6  7  1  6
  8  7  1  0
  9  8  1  0
  9 10  1  0
 10 11  1  0
 12  6  1  0
 12 14  1  0
 13 12  2  0
 15 14  1  0
 15 16  1  1
 16 17  1  0
 17 18  1  0
 18 22  1  0
 19 18  2  0
 20 23  1  0
 20 15  1  0
 21 20  2  0
M  END
$$$$
