GKE.pdb
     RDKit          3D

 23 22  0  0  1  0  0  0  0  0999 V2000
   11.4410  -18.9874   17.8385 N   0  0  0  0  0  0  0  0  0  0  0  0
   10.3232  -18.8913   18.7550 C   0  0  0  0  0  0  0  0  0  0  0  0
   10.6163  -17.8452   19.7961 C   0  0  0  0  0  0  0  0  0  0  0  0
   11.7951  -17.6283   20.1215 O   0  0  0  0  0  0  0  0  0  0  0  0
    9.5760  -17.1052   20.4105 N   0  0  0  0  0  0  0  0  0  0  0  0
    9.8450  -16.1175   21.4319 C   0  0  1  0  0  0  0  0  0  0  0  0
    8.6358  -15.2034   21.6414 C   0  0  0  0  0  0  0  0  0  0  0  0
    8.3330  -14.4234   20.3902 C   0  0  0  0  0  0  0  0  0  0  0  0
    7.0693  -13.6439   20.4461 C   0  0  0  0  0  0  0  0  0  0  0  0
    6.8347  -12.8839   19.1747 C   0  0  0  0  0  0  0  0  0  0  0  0
    5.4991  -12.2691   19.1728 N   0  0  0  0  0  0  0  0  0  0  0  0
   10.2183  -16.8056   22.6801 C   0  0  0  0  0  0  0  0  0  0  0  0
    9.5213  -17.7774   23.0825 O   0  0  0  0  0  0  0  0  0  0  0  0
   11.3194  -16.4578   23.4821 N   0  0  0  0  0  0  0  0  0  0  0  0
   11.8448  -17.3119   24.5708 C   0  0  1  0  0  0  0  0  0  0  0  0
   13.2798  -17.5649   24.3625 C   0  0  0  0  0  0  0  0  0  0  0  0
   14.1552  -16.3762   24.4458 C   0  0  0  0  0  0  0  0  0  0  0  0
   15.4652  -16.4789   23.7683 C   0  0  0  0  0  0  0  0  0  0  0  0
   16.0512  -15.5335   23.1741 O   0  0  0  0  0  0  0  0  0  0  0  0
   11.4530  -16.8431   25.8821 C   0  0  0  0  0  0  0  0  0  0  0  0
   11.7109  -17.4084   26.9808 O   0  0  0  0  0  0  0  0  0  0  0  0
   16.1124  -17.7107   23.7803 O   0  0  0  0  0  0  0  0  0  0  0  0
   10.7111  -15.6352   25.9195 O   0  0  0  0  0  0  0  0  0  0  0  0
  2  1  1  0
  2  3  1  0
  3  4  2  0
  5  3  1  0
  5  6  1  0
  6  7  1  1
  8  7  1  0
  9  8  1  0
  9 10  1  0
 10 11  1  0
 12  6  1  0
 12 14  1  0
 13 12  2  0
 15 14  1  0
 15 16  1  1
 16 17  1  0
 17 18  1  0
 18 22  1  0
 19 18  2  0
 20 23  1  0
 20 15  1  0
 21 20  2  0
M  END
$$$$
