GKE.pdb
     RDKit          3D

 23 22  0  0  1  0  0  0  0  0999 V2000
   10.4476  -18.4402   17.1501 N   0  0  0  0  0  0  0  0  0  0  0  0
    9.3990  -18.1801   18.1152 C   0  0  0  0  0  0  0  0  0  0  0  0
    9.8787  -17.1639   19.1159 C   0  0  0  0  0  0  0  0  0  0  0  0
   11.0675  -16.8054   19.0926 O   0  0  0  0  0  0  0  0  0  0  0  0
    9.0023  -16.6100   20.0816 N   0  0  0  0  0  0  0  0  0  0  0  0
    9.4468  -15.6130   21.0301 C   0  0  1  0  0  0  0  0  0  0  0  0
    8.2569  -14.8687   21.6398 C   0  0  0  0  0  0  0  0  0  0  0  0
    7.8990  -13.6642   20.8111 C   0  0  0  0  0  0  0  0  0  0  0  0
    7.4413  -13.9833   19.4342 C   0  0  0  0  0  0  0  0  0  0  0  0
    7.1628  -12.7389   18.6445 C   0  0  0  0  0  0  0  0  0  0  0  0
    6.7607  -13.0720   17.2700 N   0  0  0  0  0  0  0  0  0  0  0  0
   10.2590  -16.2674   22.0707 C   0  0  0  0  0  0  0  0  0  0  0  0
    9.8653  -17.3586   22.5671 O   0  0  0  0  0  0  0  0  0  0  0  0
   11.4717  -15.7606   22.5699 N   0  0  0  0  0  0  0  0  0  0  0  0
   12.4331  -16.5614   23.3605 C   0  0  1  0  0  0  0  0  0  0  0  0
   13.7992  -16.0540   23.1532 C   0  0  0  0  0  0  0  0  0  0  0  0
   14.8749  -16.8392   23.7956 C   0  0  0  0  0  0  0  0  0  0  0  0
   16.2593  -16.3950   23.5276 C   0  0  0  0  0  0  0  0  0  0  0  0
   16.7548  -16.2146   22.3821 O   0  0  0  0  0  0  0  0  0  0  0  0
   12.0097  -16.7415   24.7320 C   0  0  0  0  0  0  0  0  0  0  0  0
   12.4192  -17.6344   25.5248 O   0  0  0  0  0  0  0  0  0  0  0  0
   17.0909  -16.1540   24.6170 O   0  0  0  0  0  0  0  0  0  0  0  0
   11.0450  -15.8215   25.2155 O   0  0  0  0  0  0  0  0  0  0  0  0
  2  1  1  0
  2  3  1  0
  3  4  2  0
  5  3  1  0
  5  6  1  0
  6  7  1  1
  8  7  1  0
  9  8  1  0
  9 10  1  0
 10 11  1  0
 12  6  1  0
 12 14  1  0
 13 12  2  0
 15 14  1  0
 15 16  1  1
 16 17  1  0
 17 18  1  0
 18 22  1  0
 19 18  2  0
 20 23  1  0
 20 15  1  0
 21 20  2  0
M  END
$$$$
