GKE.pdb
     RDKit          3D

 23 22  0  0  1  0  0  0  0  0999 V2000
    8.6241  -16.4137   18.5270 N   0  0  0  0  0  0  0  0  0  0  0  0
    7.8423  -16.8143   19.6790 C   0  0  0  0  0  0  0  0  0  0  0  0
    8.3525  -16.1039   20.9034 C   0  0  0  0  0  0  0  0  0  0  0  0
    9.5725  -15.9058   21.0243 O   0  0  0  0  0  0  0  0  0  0  0  0
    7.4699  -15.6582   21.9182 N   0  0  0  0  0  0  0  0  0  0  0  0
    7.9494  -14.9683   23.0952 C   0  0  1  0  0  0  0  0  0  0  0  0
    6.7864  -14.3780   23.8956 C   0  0  0  0  0  0  0  0  0  0  0  0
    7.2950  -13.5574   25.0503 C   0  0  0  0  0  0  0  0  0  0  0  0
    6.2274  -12.9438   25.8817 C   0  0  0  0  0  0  0  0  0  0  0  0
    6.8006  -12.0579   26.9475 C   0  0  0  0  0  0  0  0  0  0  0  0
    5.7299  -11.4051   27.7153 N   0  0  0  0  0  0  0  0  0  0  0  0
    8.7408  -15.9045   23.9125 C   0  0  0  0  0  0  0  0  0  0  0  0
    8.2813  -17.0545   24.1546 O   0  0  0  0  0  0  0  0  0  0  0  0
   10.0024  -15.6127   24.4601 N   0  0  0  0  0  0  0  0  0  0  0  0
   10.8157  -16.5911   25.2163 C   0  0  1  0  0  0  0  0  0  0  0  0
   12.2431  -16.3994   24.9118 C   0  0  0  0  0  0  0  0  0  0  0  0
   12.7082  -16.9909   23.6389 C   0  0  0  0  0  0  0  0  0  0  0  0
   14.0669  -16.6102   23.1978 C   0  0  0  0  0  0  0  0  0  0  0  0
   14.3302  -15.8986   22.1905 O   0  0  0  0  0  0  0  0  0  0  0  0
   10.4538  -16.6502   26.6156 C   0  0  0  0  0  0  0  0  0  0  0  0
   10.8759  -17.4909   27.4573 O   0  0  0  0  0  0  0  0  0  0  0  0
   15.1486  -17.0672   23.9444 O   0  0  0  0  0  0  0  0  0  0  0  0
    9.5392  -15.6655   27.0680 O   0  0  0  0  0  0  0  0  0  0  0  0
  2  1  1  0
  2  3  1  0
  3  4  2  0
  5  3  1  0
  5  6  1  0
  6  7  1  1
  8  7  1  0
  9  8  1  0
  9 10  1  0
 10 11  1  0
 12  6  1  0
 12 14  1  0
 13 12  2  0
 15 14  1  0
 15 16  1  1
 16 17  1  0
 17 18  1  0
 18 22  1  0
 19 18  2  0
 20 23  1  0
 20 15  1  0
 21 20  2  0
M  END
$$$$
