GKE.pdb
     RDKit          3D

 23 22  0  0  1  0  0  0  0  0999 V2000
    5.3601  -19.6586   23.3700 N   0  0  0  0  0  0  0  0  0  0  0  0
    5.2801  -18.2401   23.6537 C   0  0  0  0  0  0  0  0  0  0  0  0
    6.3480  -17.5130   22.8823 C   0  0  0  0  0  0  0  0  0  0  0  0
    7.2064  -18.1696   22.2704 O   0  0  0  0  0  0  0  0  0  0  0  0
    6.3927  -16.0975   22.8411 N   0  0  0  0  0  0  0  0  0  0  0  0
    7.4117  -15.3893   22.0985 C   0  0  1  0  0  0  0  0  0  0  0  0
    6.9993  -13.9363   21.8525 C   0  0  0  0  0  0  0  0  0  0  0  0
    7.9750  -13.2529   20.9324 C   0  0  0  0  0  0  0  0  0  0  0  0
    7.9058  -13.7085   19.5200 C   0  0  0  0  0  0  0  0  0  0  0  0
    8.8303  -12.9195   18.6412 C   0  0  0  0  0  0  0  0  0  0  0  0
    8.6747  -13.3132   17.2332 N   0  0  0  0  0  0  0  0  0  0  0  0
    8.6852  -15.4668   22.8353 C   0  0  0  0  0  0  0  0  0  0  0  0
    8.7663  -14.9539   23.9853 O   0  0  0  0  0  0  0  0  0  0  0  0
    9.8508  -16.0833   22.3475 N   0  0  0  0  0  0  0  0  0  0  0  0
   11.1111  -16.1826   23.1174 C   0  0  1  0  0  0  0  0  0  0  0  0
   11.1130  -17.4163   23.9203 C   0  0  0  0  0  0  0  0  0  0  0  0
   12.3418  -17.6642   24.7046 C   0  0  0  0  0  0  0  0  0  0  0  0
   12.3901  -18.9324   25.4627 C   0  0  0  0  0  0  0  0  0  0  0  0
   11.6296  -19.9205   25.2736 O   0  0  0  0  0  0  0  0  0  0  0  0
   12.2804  -15.9384   22.3016 C   0  0  0  0  0  0  0  0  0  0  0  0
   12.3228  -15.9544   21.0401 O   0  0  0  0  0  0  0  0  0  0  0  0
   13.3454  -19.0579   26.4668 O   0  0  0  0  0  0  0  0  0  0  0  0
   13.4826  -15.6563   22.9988 O   0  0  0  0  0  0  0  0  0  0  0  0
  2  1  1  0
  2  3  1  0
  3  4  2  0
  5  3  1  0
  5  6  1  0
  6  7  1  1
  8  7  1  0
  9  8  1  0
  9 10  1  0
 10 11  1  0
 12  6  1  0
 12 14  1  0
 13 12  2  0
 15 14  1  0
 15 16  1  6
 16 17  1  0
 17 18  1  0
 18 22  1  0
 19 18  2  0
 20 23  1  0
 20 15  1  0
 21 20  2  0
M  END
$$$$
