GKE.pdb
     RDKit          3D

 23 22  0  0  1  0  0  0  0  0999 V2000
    9.6279  -17.7051   17.3091 N   0  0  0  0  0  0  0  0  0  0  0  0
    9.0948  -18.1559   18.5786 C   0  0  0  0  0  0  0  0  0  0  0  0
    9.4867  -17.1861   19.6603 C   0  0  0  0  0  0  0  0  0  0  0  0
   10.6909  -17.0032   19.9025 O   0  0  0  0  0  0  0  0  0  0  0  0
    8.5105  -16.4797   20.4056 N   0  0  0  0  0  0  0  0  0  0  0  0
    8.8767  -15.5447   21.4462 C   0  0  1  0  0  0  0  0  0  0  0  0
    7.6800  -14.6817   21.8524 C   0  0  0  0  0  0  0  0  0  0  0  0
    7.5476  -13.4901   20.9424 C   0  0  0  0  0  0  0  0  0  0  0  0
    7.3845  -13.8326   19.5059 C   0  0  0  0  0  0  0  0  0  0  0  0
    7.3489  -12.6033   18.6475 C   0  0  0  0  0  0  0  0  0  0  0  0
    7.1693  -12.9598   17.2324 N   0  0  0  0  0  0  0  0  0  0  0  0
    9.4130  -16.2918   22.5972 C   0  0  0  0  0  0  0  0  0  0  0  0
    8.7794  -17.2914   23.0350 O   0  0  0  0  0  0  0  0  0  0  0  0
   10.6074  -15.9726   23.2667 N   0  0  0  0  0  0  0  0  0  0  0  0
   11.1246  -16.7289   24.4292 C   0  0  1  0  0  0  0  0  0  0  0  0
   12.5746  -16.5138   24.5633 C   0  0  0  0  0  0  0  0  0  0  0  0
   13.3537  -16.6249   23.3115 C   0  0  0  0  0  0  0  0  0  0  0  0
   14.7972  -16.3212   23.4095 C   0  0  0  0  0  0  0  0  0  0  0  0
   15.3783  -15.3629   22.8311 O   0  0  0  0  0  0  0  0  0  0  0  0
   10.3271  -16.5305   25.6197 C   0  0  0  0  0  0  0  0  0  0  0  0
    9.4111  -15.6745   25.7662 O   0  0  0  0  0  0  0  0  0  0  0  0
   15.5877  -17.1509   24.1990 O   0  0  0  0  0  0  0  0  0  0  0  0
   10.6133  -17.3848   26.7147 O   0  0  0  0  0  0  0  0  0  0  0  0
  2  1  1  0
  2  3  1  0
  3  4  2  0
  5  3  1  0
  5  6  1  0
  6  7  1  1
  8  7  1  0
  9  8  1  0
  9 10  1  0
 10 11  1  0
 12  6  1  0
 12 14  1  0
 13 12  2  0
 15 14  1  0
 15 16  1  1
 16 17  1  0
 17 18  1  0
 18 22  1  0
 19 18  2  0
 20 23  1  0
 20 15  1  0
 21 20  2  0
M  END
$$$$
