GKE.pdb
     RDKit          3D

 23 22  0  0  1  0  0  0  0  0999 V2000
   13.2860  -16.5457   15.4064 N   0  0  0  0  0  0  0  0  0  0  0  0
   12.1217  -16.9757   16.1537 C   0  0  0  0  0  0  0  0  0  0  0  0
   12.0431  -16.2083   17.4457 C   0  0  0  0  0  0  0  0  0  0  0  0
   13.0748  -15.6950   17.9089 O   0  0  0  0  0  0  0  0  0  0  0  0
   10.8179  -16.0607   18.1417 N   0  0  0  0  0  0  0  0  0  0  0  0
   10.7344  -15.3375   19.3912 C   0  0  1  0  0  0  0  0  0  0  0  0
    9.2785  -15.0343   19.7519 C   0  0  0  0  0  0  0  0  0  0  0  0
    8.7705  -13.8513   18.9723 C   0  0  0  0  0  0  0  0  0  0  0  0
    7.3163  -13.5921   19.1323 C   0  0  0  0  0  0  0  0  0  0  0  0
    6.8900  -12.3653   18.3823 C   0  0  0  0  0  0  0  0  0  0  0  0
    5.4316  -12.1916   18.4515 N   0  0  0  0  0  0  0  0  0  0  0  0
   11.3948  -16.1243   20.4474 C   0  0  0  0  0  0  0  0  0  0  0  0
   11.2156  -17.3725   20.4920 O   0  0  0  0  0  0  0  0  0  0  0  0
   12.2324  -15.5821   21.4379 N   0  0  0  0  0  0  0  0  0  0  0  0
   12.9091  -16.3927   22.4751 C   0  0  1  0  0  0  0  0  0  0  0  0
   14.3683  -16.3237   22.2935 C   0  0  0  0  0  0  0  0  0  0  0  0
   14.9211  -14.9681   22.0855 C   0  0  0  0  0  0  0  0  0  0  0  0
   16.3747  -14.8860   21.8291 C   0  0  0  0  0  0  0  0  0  0  0  0
   17.2713  -14.9218   22.7153 O   0  0  0  0  0  0  0  0  0  0  0  0
   12.4080  -16.1229   23.8050 C   0  0  0  0  0  0  0  0  0  0  0  0
   12.7643  -16.7069   24.8658 O   0  0  0  0  0  0  0  0  0  0  0  0
   16.7996  -14.7588   20.5101 O   0  0  0  0  0  0  0  0  0  0  0  0
   11.4259  -15.1054   23.9096 O   0  0  0  0  0  0  0  0  0  0  0  0
  2  1  1  0
  2  3  1  0
  3  4  2  0
  5  3  1  0
  5  6  1  0
  6  7  1  1
  8  7  1  0
  9  8  1  0
  9 10  1  0
 10 11  1  0
 12  6  1  0
 12 14  1  0
 13 12  2  0
 15 14  1  0
 15 16  1  1
 16 17  1  0
 17 18  1  0
 18 22  1  0
 19 18  2  0
 20 23  1  0
 20 15  1  0
 21 20  2  0
M  END
$$$$
