GKE.pdb
     RDKit          3D

 23 22  0  0  1  0  0  0  0  0999 V2000
    8.8670  -16.2295   19.1674 N   0  0  0  0  0  0  0  0  0  0  0  0
    7.9898  -16.5645   20.2707 C   0  0  0  0  0  0  0  0  0  0  0  0
    8.5068  -15.9300   21.5333 C   0  0  0  0  0  0  0  0  0  0  0  0
    9.7146  -15.6550   21.6224 O   0  0  0  0  0  0  0  0  0  0  0  0
    7.6441  -15.6412   22.6195 N   0  0  0  0  0  0  0  0  0  0  0  0
    8.1444  -15.1140   23.8697 C   0  0  1  0  0  0  0  0  0  0  0  0
    6.9948  -14.6521   24.7680 C   0  0  0  0  0  0  0  0  0  0  0  0
    7.2886  -13.2986   25.3574 C   0  0  0  0  0  0  0  0  0  0  0  0
    6.2138  -12.7673   26.2350 C   0  0  0  0  0  0  0  0  0  0  0  0
    6.5669  -11.4158   26.7811 C   0  0  0  0  0  0  0  0  0  0  0  0
    5.5052  -10.9175   27.6679 N   0  0  0  0  0  0  0  0  0  0  0  0
    8.9615  -16.1446   24.5337 C   0  0  0  0  0  0  0  0  0  0  0  0
    8.5308  -17.3290   24.5972 O   0  0  0  0  0  0  0  0  0  0  0  0
   10.2180  -15.9093   25.1189 N   0  0  0  0  0  0  0  0  0  0  0  0
   11.0560  -16.9711   25.7198 C   0  0  1  0  0  0  0  0  0  0  0  0
   12.4693  -16.7533   25.3705 C   0  0  0  0  0  0  0  0  0  0  0  0
   12.7616  -16.6639   23.9238 C   0  0  0  0  0  0  0  0  0  0  0  0
   14.1785  -16.4618   23.5534 C   0  0  0  0  0  0  0  0  0  0  0  0
   14.8260  -17.1781   22.7422 O   0  0  0  0  0  0  0  0  0  0  0  0
   10.7600  -17.1864   27.1193 C   0  0  0  0  0  0  0  0  0  0  0  0
    9.9490  -16.5179   27.8185 O   0  0  0  0  0  0  0  0  0  0  0  0
   14.8624  -15.4010   24.1395 O   0  0  0  0  0  0  0  0  0  0  0  0
   11.4534  -18.2508   27.7495 O   0  0  0  0  0  0  0  0  0  0  0  0
  2  1  1  0
  2  3  1  0
  3  4  2  0
  5  3  1  0
  5  6  1  0
  6  7  1  1
  8  7  1  0
  9  8  1  0
  9 10  1  0
 10 11  1  0
 12  6  1  0
 12 14  1  0
 13 12  2  0
 15 14  1  0
 15 16  1  1
 16 17  1  0
 17 18  1  0
 18 22  1  0
 19 18  2  0
 20 23  1  0
 20 15  1  0
 21 20  2  0
M  END
$$$$
