LAR.pdb
     RDKit          3D

 25 24  0  0  1  0  0  0  0  0999 V2000
   29.5496  -25.7515  -20.0324 C   0  0  0  0  0  0  0  0  0  0  0  0
   28.7131  -26.5593  -19.0311 C   0  0  2  0  0  0  0  0  0  0  0  0
   27.8602  -27.4756  -19.8766 C   0  0  0  0  0  0  0  0  0  0  0  0
   27.8986  -25.6216  -18.2065 C   0  0  0  0  0  0  0  0  0  0  0  0
   28.7269  -24.8849  -17.1651 C   0  0  2  0  0  0  0  0  0  0  0  0
   29.2409  -25.8768  -16.2426 N   0  0  0  0  0  0  0  0  0  0  0  0
   27.8899  -23.8729  -16.4713 C   0  0  0  0  0  0  0  0  0  0  0  0
   27.0887  -24.3387  -15.5892 O   0  0  0  0  0  0  0  0  0  0  0  0
   27.3885  -20.2008  -16.3051 C   0  0  0  0  0  0  0  0  0  0  0  0
   27.0118  -21.6422  -15.9325 C   0  0  2  0  0  0  0  0  0  0  0  0
   27.9165  -22.4868  -16.7096 N   0  0  0  0  0  0  0  0  0  0  0  0
   25.6053  -21.8145  -16.3804 C   0  0  0  0  0  0  0  0  0  0  0  0
   25.4228  -22.3140  -17.5199 O   0  0  0  0  0  0  0  0  0  0  0  0
   19.4636  -24.8072  -12.4229 N   0  0  0  0  0  0  0  0  0  0  0  0
   20.1432  -25.7311  -13.2459 C   0  0  0  0  0  0  0  0  0  0  0  0
   19.6781  -26.9417  -13.4116 N   0  0  0  0  0  0  0  0  0  0  0  0
   21.3450  -25.4205  -13.9310 N   0  0  0  0  0  0  0  0  0  0  0  0
   21.9858  -24.0908  -13.6837 C   0  0  0  0  0  0  0  0  0  0  0  0
   21.6814  -23.2527  -14.8673 C   0  0  0  0  0  0  0  0  0  0  0  0
   22.6427  -22.9631  -15.9135 C   0  0  0  0  0  0  0  0  0  0  0  0
   23.0818  -21.5634  -16.1409 C   0  0  2  0  0  0  0  0  0  0  0  0
   24.4931  -21.4603  -15.6238 N   0  0  0  0  0  0  0  0  0  0  0  0
   22.3760  -20.6370  -15.1973 C   0  0  0  0  0  0  0  0  0  0  0  0
   21.0808  -20.2313  -15.2279 O   0  0  0  0  0  0  0  0  0  0  0  0
   23.0743  -20.1575  -14.2393 O   0  0  0  0  0  0  0  0  0  0  0  0
  2  1  1  6
  3  2  1  0
  4  2  1  0
  5  6  1  1
  5  4  1  0
  7  8  2  0
  7  5  1  0
 10  9  1  6
 10 11  1  0
 11  7  1  0
 12 10  1  0
 12 22  1  0
 13 12  2  0
 15 14  1  0
 16 15  2  0
 17 15  1  0
 18 17  1  0
 19 20  1  0
 19 18  1  0
 21 20  1  1
 21 22  1  0
 21 23  1  0
 23 25  2  0
 23 24  1  0
M  END
$$$$
