LAR.pdb
     RDKit          3D

 25 24  0  0  1  0  0  0  0  0999 V2000
   27.5959  -19.1726  -15.7205 C   0  0  0  0  0  0  0  0  0  0  0  0
   26.5552  -18.0452  -15.7377 C   0  0  2  0  0  0  0  0  0  0  0  0
   27.3327  -16.7845  -15.4411 C   0  0  0  0  0  0  0  0  0  0  0  0
   25.5123  -18.3272  -14.7103 C   0  0  0  0  0  0  0  0  0  0  0  0
   24.6942  -19.5688  -15.0301 C   0  0  2  0  0  0  0  0  0  0  0  0
   24.7966  -19.7969  -16.4571 N   0  0  0  0  0  0  0  0  0  0  0  0
   23.2842  -19.3729  -14.6061 C   0  0  0  0  0  0  0  0  0  0  0  0
   23.1132  -19.1728  -13.3541 O   0  0  0  0  0  0  0  0  0  0  0  0
   20.0735  -18.3224  -15.8493 C   0  0  0  0  0  0  0  0  0  0  0  0
   20.8457  -19.2021  -14.8552 C   0  0  2  0  0  0  0  0  0  0  0  0
   22.1640  -19.3921  -15.4567 N   0  0  0  0  0  0  0  0  0  0  0  0
   20.0977  -20.4847  -14.7941 C   0  0  0  0  0  0  0  0  0  0  0  0
   20.3810  -21.3560  -15.6555 O   0  0  0  0  0  0  0  0  0  0  0  0
   22.5289  -25.8577  -12.7660 N   0  0  0  0  0  0  0  0  0  0  0  0
   21.4092  -26.3950  -12.0949 C   0  0  0  0  0  0  0  0  0  0  0  0
   21.4087  -27.6391  -11.6930 N   0  0  0  0  0  0  0  0  0  0  0  0
   20.2386  -25.6447  -11.8177 N   0  0  0  0  0  0  0  0  0  0  0  0
   20.1840  -24.2156  -12.2589 C   0  0  0  0  0  0  0  0  0  0  0  0
   18.8477  -23.7078  -11.8687 C   0  0  0  0  0  0  0  0  0  0  0  0
   18.2941  -22.4563  -12.3483 C   0  0  0  0  0  0  0  0  0  0  0  0
   18.4101  -22.1046  -13.7859 C   0  0  2  0  0  0  0  0  0  0  0  0
   19.1153  -20.7749  -13.8531 N   0  0  0  0  0  0  0  0  0  0  0  0
   17.0683  -21.7313  -14.3400 C   0  0  0  0  0  0  0  0  0  0  0  0
   16.1822  -22.5194  -15.0009 O   0  0  0  0  0  0  0  0  0  0  0  0
   16.7026  -20.5165  -14.1796 O   0  0  0  0  0  0  0  0  0  0  0  0
  2  1  1  1
  3  2  1  0
  4  2  1  0
  5  6  1  6
  5  4  1  0
  7  8  2  0
  7  5  1  0
 10  9  1  6
 10 11  1  0
 11  7  1  0
 12 10  1  0
 12 22  1  0
 13 12  2  0
 15 14  1  0
 16 15  2  0
 17 15  1  0
 18 17  1  0
 19 20  1  0
 19 18  1  0
 21 20  1  1
 21 22  1  0
 21 23  1  0
 23 25  2  0
 23 24  1  0
M  END
$$$$
