LAR.pdb
     RDKit          3D

 25 24  0  0  1  0  0  0  0  0999 V2000
   27.3955  -17.7836  -17.3351 C   0  0  0  0  0  0  0  0  0  0  0  0
   28.4516  -18.4540  -16.4464 C   0  0  2  0  0  0  0  0  0  0  0  0
   29.4507  -19.0571  -17.4055 C   0  0  0  0  0  0  0  0  0  0  0  0
   27.7902  -19.4807  -15.5914 C   0  0  0  0  0  0  0  0  0  0  0  0
   26.7405  -18.8855  -14.6656 C   0  0  2  0  0  0  0  0  0  0  0  0
   27.3851  -17.8382  -13.8996 N   0  0  0  0  0  0  0  0  0  0  0  0
   26.1796  -19.9423  -13.7853 C   0  0  0  0  0  0  0  0  0  0  0  0
   25.7850  -21.0008  -14.3860 O   0  0  0  0  0  0  0  0  0  0  0  0
   25.4295  -20.6204  -10.2186 C   0  0  0  0  0  0  0  0  0  0  0  0
   25.1823  -20.8248  -11.7204 C   0  0  2  0  0  0  0  0  0  0  0  0
   26.0567  -19.8616  -12.3864 N   0  0  0  0  0  0  0  0  0  0  0  0
   23.7519  -20.4857  -11.9382 C   0  0  0  0  0  0  0  0  0  0  0  0
   23.4467  -19.2658  -11.9509 O   0  0  0  0  0  0  0  0  0  0  0  0
   21.4655  -18.9642  -17.2935 N   0  0  0  0  0  0  0  0  0  0  0  0
   20.0614  -18.8618  -17.1901 C   0  0  0  0  0  0  0  0  0  0  0  0
   19.3301  -18.6495  -18.2528 N   0  0  0  0  0  0  0  0  0  0  0  0
   19.3646  -18.9780  -15.9609 N   0  0  0  0  0  0  0  0  0  0  0  0
   20.1299  -19.3849  -14.7408 C   0  0  0  0  0  0  0  0  0  0  0  0
   20.4636  -20.8182  -14.9146 C   0  0  0  0  0  0  0  0  0  0  0  0
   21.1473  -21.6098  -13.9103 C   0  0  0  0  0  0  0  0  0  0  0  0
   21.3452  -21.0557  -12.5473 C   0  0  2  0  0  0  0  0  0  0  0  0
   22.7437  -21.4253  -12.1260 N   0  0  0  0  0  0  0  0  0  0  0  0
   20.5434  -21.8338  -11.5480 C   0  0  0  0  0  0  0  0  0  0  0  0
   19.3423  -21.5150  -11.0016 O   0  0  0  0  0  0  0  0  0  0  0  0
   21.0474  -22.9391  -11.1483 O   0  0  0  0  0  0  0  0  0  0  0  0
  2  1  1  6
  3  2  1  0
  4  2  1  0
  5  6  1  1
  5  4  1  0
  7  8  2  0
  7  5  1  0
 10  9  1  1
 10 11  1  0
 11  7  1  0
 12 10  1  0
 12 22  1  0
 13 12  2  0
 15 14  1  0
 16 15  2  0
 17 15  1  0
 18 17  1  0
 19 20  1  0
 19 18  1  0
 21 20  1  6
 21 22  1  0
 21 23  1  0
 23 25  2  0
 23 24  1  0
M  END
$$$$
