LAR.pdb
     RDKit          3D

 25 24  0  0  1  0  0  0  0  0999 V2000
   22.8365  -20.5397   -9.5989 C   0  0  0  0  0  0  0  0  0  0  0  0
   23.8549  -21.3195  -10.4412 C   0  0  2  0  0  0  0  0  0  0  0  0
   25.1963  -21.0262   -9.8115 C   0  0  0  0  0  0  0  0  0  0  0  0
   23.7754  -20.8563  -11.8560 C   0  0  0  0  0  0  0  0  0  0  0  0
   22.3791  -20.9978  -12.4422 C   0  0  2  0  0  0  0  0  0  0  0  0
   22.0104  -22.3955  -12.3451 N   0  0  0  0  0  0  0  0  0  0  0  0
   22.3672  -20.5243  -13.8499 C   0  0  0  0  0  0  0  0  0  0  0  0
   23.1074  -21.1878  -14.6555 O   0  0  0  0  0  0  0  0  0  0  0  0
   20.6445  -18.0530  -16.0131 C   0  0  0  0  0  0  0  0  0  0  0  0
   21.6856  -19.1563  -15.7738 C   0  0  2  0  0  0  0  0  0  0  0  0
   21.6247  -19.4349  -14.3405 N   0  0  0  0  0  0  0  0  0  0  0  0
   22.9936  -18.5566  -16.1451 C   0  0  0  0  0  0  0  0  0  0  0  0
   23.5269  -17.7809  -15.3113 O   0  0  0  0  0  0  0  0  0  0  0  0
   28.2568  -22.6725  -16.1202 N   0  0  0  0  0  0  0  0  0  0  0  0
   28.6643  -22.4060  -17.4452 C   0  0  0  0  0  0  0  0  0  0  0  0
   29.0935  -23.3710  -18.2158 N   0  0  0  0  0  0  0  0  0  0  0  0
   28.6383  -21.1092  -18.0176 N   0  0  0  0  0  0  0  0  0  0  0  0
   28.2342  -19.9548  -17.1551 C   0  0  0  0  0  0  0  0  0  0  0  0
   26.7558  -19.8798  -17.2217 C   0  0  0  0  0  0  0  0  0  0  0  0
   25.9918  -18.7218  -16.8000 C   0  0  0  0  0  0  0  0  0  0  0  0
   24.9648  -18.1492  -17.7063 C   0  0  2  0  0  0  0  0  0  0  0  0
   23.6544  -18.7990  -17.3449 N   0  0  0  0  0  0  0  0  0  0  0  0
   25.1530  -18.6686  -19.0997 C   0  0  0  0  0  0  0  0  0  0  0  0
   24.4625  -19.6520  -19.7314 O   0  0  0  0  0  0  0  0  0  0  0  0
   26.0832  -18.1265  -19.7899 O   0  0  0  0  0  0  0  0  0  0  0  0
  2  1  1  1
  3  2  1  0
  4  2  1  0
  5  6  1  6
  5  4  1  0
  7  8  2  0
  7  5  1  0
 10  9  1  1
 10 11  1  0
 11  7  1  0
 12 10  1  0
 12 22  1  0
 13 12  2  0
 15 14  1  0
 16 15  2  0
 17 15  1  0
 18 17  1  0
 19 20  1  0
 19 18  1  0
 21 20  1  1
 21 22  1  0
 21 23  1  0
 23 25  2  0
 23 24  1  0
M  END
$$$$
