LAR.pdb
     RDKit          3D

 25 24  0  0  1  0  0  0  0  0999 V2000
   37.0121   -4.2638   -7.3960 C   0  0  0  0  0  0  0  0  0  0  0  0
   36.9696   -5.2695   -6.2379 C   0  0  2  0  0  0  0  0  0  0  0  0
   37.5229   -4.5242   -5.0461 C   0  0  0  0  0  0  0  0  0  0  0  0
   37.7899   -6.4618   -6.5959 C   0  0  0  0  0  0  0  0  0  0  0  0
   37.2656   -7.1869   -7.8258 C   0  0  2  0  0  0  0  0  0  0  0  0
   36.2168   -8.0832   -7.3834 N   0  0  0  0  0  0  0  0  0  0  0  0
   38.3700   -7.9226   -8.4929 C   0  0  0  0  0  0  0  0  0  0  0  0
   38.4829   -9.1539   -8.1639 O   0  0  0  0  0  0  0  0  0  0  0  0
   40.8817   -7.4864  -11.1756 C   0  0  0  0  0  0  0  0  0  0  0  0
   40.2917   -8.2589   -9.9867 C   0  0  2  0  0  0  0  0  0  0  0  0
   39.2685   -7.3776   -9.4280 N   0  0  0  0  0  0  0  0  0  0  0  0
   41.4166   -8.4414   -9.0329 C   0  0  0  0  0  0  0  0  0  0  0  0
   41.6469   -7.5012   -8.2301 O   0  0  0  0  0  0  0  0  0  0  0  0
   46.6571  -15.5595   -6.7218 N   0  0  0  0  0  0  0  0  0  0  0  0
   47.1987  -14.3402   -6.2606 C   0  0  0  0  0  0  0  0  0  0  0  0
   48.3600  -14.3130   -5.6606 N   0  0  0  0  0  0  0  0  0  0  0  0
   46.5398  -13.0938   -6.4108 N   0  0  0  0  0  0  0  0  0  0  0  0
   45.1945  -13.0706   -7.0662 C   0  0  0  0  0  0  0  0  0  0  0  0
   44.8132  -11.6439   -7.1888 C   0  0  0  0  0  0  0  0  0  0  0  0
   43.6269  -11.1881   -7.8872 C   0  0  0  0  0  0  0  0  0  0  0  0
   43.3492   -9.7335   -7.9918 C   0  0  2  0  0  0  0  0  0  0  0  0
   42.2198   -9.5756   -8.9763 N   0  0  0  0  0  0  0  0  0  0  0  0
   44.4559   -9.0446   -8.7317 C   0  0  0  0  0  0  0  0  0  0  0  0
   44.6333   -8.9401  -10.0735 O   0  0  0  0  0  0  0  0  0  0  0  0
   45.3566   -8.4835   -8.0179 O   0  0  0  0  0  0  0  0  0  0  0  0
  2  1  1  6
  3  2  1  0
  4  2  1  0
  5  6  1  1
  5  4  1  0
  7  8  2  0
  7  5  1  0
 10  9  1  6
 10 11  1  0
 11  7  1  0
 12 10  1  0
 12 22  1  0
 13 12  2  0
 15 14  1  0
 16 15  2  0
 17 15  1  0
 18 17  1  0
 19 20  1  0
 19 18  1  0
 21 20  1  6
 21 22  1  0
 21 23  1  0
 23 25  2  0
 23 24  1  0
M  END
$$$$
