LAR.pdb
     RDKit          3D

 25 24  0  0  1  0  0  0  0  0999 V2000
   14.7030   -8.5189  -16.2440 C   0  0  0  0  0  0  0  0  0  0  0  0
   16.2121   -8.7617  -16.3791 C   0  0  2  0  0  0  0  0  0  0  0  0
   16.4329   -9.0758  -17.8401 C   0  0  0  0  0  0  0  0  0  0  0  0
   16.6073   -9.8891  -15.4872 C   0  0  0  0  0  0  0  0  0  0  0  0
   18.1155  -10.0236  -15.3447 C   0  0  2  0  0  0  0  0  0  0  0  0
   18.4384  -11.4288  -15.4861 N   0  0  0  0  0  0  0  0  0  0  0  0
   18.5524   -9.4906  -14.0289 C   0  0  0  0  0  0  0  0  0  0  0  0
   17.9887  -10.0214  -13.0103 O   0  0  0  0  0  0  0  0  0  0  0  0
   21.0757   -7.2853  -12.4948 C   0  0  0  0  0  0  0  0  0  0  0  0
   19.7038   -7.9752  -12.4749 C   0  0  2  0  0  0  0  0  0  0  0  0
   19.5089   -8.4780  -13.8332 N   0  0  0  0  0  0  0  0  0  0  0  0
   18.7241   -6.9038  -12.1574 C   0  0  0  0  0  0  0  0  0  0  0  0
   18.3155   -6.1976  -13.1143 O   0  0  0  0  0  0  0  0  0  0  0  0
   11.4437   -9.0557   -9.8203 N   0  0  0  0  0  0  0  0  0  0  0  0
   12.6391   -9.5039   -9.2177 C   0  0  0  0  0  0  0  0  0  0  0  0
   12.6844  -10.6607   -8.6102 N   0  0  0  0  0  0  0  0  0  0  0  0
   13.8410   -8.7519   -9.2277 N   0  0  0  0  0  0  0  0  0  0  0  0
   13.9912   -7.6574  -10.2373 C   0  0  0  0  0  0  0  0  0  0  0  0
   15.3422   -7.0833  -10.0344 C   0  0  0  0  0  0  0  0  0  0  0  0
   15.9104   -6.0516  -10.8802 C   0  0  0  0  0  0  0  0  0  0  0  0
   17.2673   -5.5257  -10.5868 C   0  0  2  0  0  0  0  0  0  0  0  0
   18.2387   -6.6391  -10.8810 N   0  0  0  0  0  0  0  0  0  0  0  0
   17.4594   -5.3783   -9.1075 C   0  0  0  0  0  0  0  0  0  0  0  0
   16.8768   -4.4842   -8.2684 O   0  0  0  0  0  0  0  0  0  0  0  0
   18.2782   -6.1904   -8.5548 O   0  0  0  0  0  0  0  0  0  0  0  0
  2  1  1  6
  3  2  1  0
  4  2  1  0
  5  6  1  1
  5  4  1  0
  7  8  2  0
  7  5  1  0
 10  9  1  6
 10 11  1  0
 11  7  1  0
 12 10  1  0
 12 22  1  0
 13 12  2  0
 15 14  1  0
 16 15  2  0
 17 15  1  0
 18 17  1  0
 19 20  1  0
 19 18  1  0
 21 20  1  1
 21 22  1  0
 21 23  1  0
 23 25  2  0
 23 24  1  0
M  END
$$$$
