LAR.pdb
     RDKit          3D

 25 24  0  0  1  0  0  0  0  0999 V2000
   21.4951  -21.0740  -15.7748 C   0  0  0  0  0  0  0  0  0  0  0  0
   22.0460  -20.5560  -14.4396 C   0  0  2  0  0  0  0  0  0  0  0  0
   20.9176  -20.7323  -13.4509 C   0  0  0  0  0  0  0  0  0  0  0  0
   22.4482  -19.1291  -14.5976 C   0  0  0  0  0  0  0  0  0  0  0  0
   23.5192  -18.9356  -15.6600 C   0  0  2  0  0  0  0  0  0  0  0  0
   24.6140  -19.8274  -15.3360 N   0  0  0  0  0  0  0  0  0  0  0  0
   23.9580  -17.5168  -15.6884 C   0  0  0  0  0  0  0  0  0  0  0  0
   23.0288  -16.6619  -15.8946 O   0  0  0  0  0  0  0  0  0  0  0  0
   27.0092  -15.4466  -15.2812 C   0  0  0  0  0  0  0  0  0  0  0  0
   25.5448  -15.6408  -15.7009 C   0  0  2  0  0  0  0  0  0  0  0  0
   25.2783  -17.0651  -15.5109 N   0  0  0  0  0  0  0  0  0  0  0  0
   25.4915  -15.2759  -17.1404 C   0  0  0  0  0  0  0  0  0  0  0  0
   25.7888  -16.1719  -17.9712 O   0  0  0  0  0  0  0  0  0  0  0  0
   19.8267   -9.6850  -20.3561 N   0  0  0  0  0  0  0  0  0  0  0  0
   20.0428  -10.8123  -19.5344 C   0  0  0  0  0  0  0  0  0  0  0  0
   19.1496  -11.1716  -18.6499 N   0  0  0  0  0  0  0  0  0  0  0  0
   21.2114  -11.6118  -19.6078 N   0  0  0  0  0  0  0  0  0  0  0  0
   22.2743  -11.2358  -20.5921 C   0  0  0  0  0  0  0  0  0  0  0  0
   23.3659  -12.2244  -20.4273 C   0  0  0  0  0  0  0  0  0  0  0  0
   23.7752  -12.7606  -19.1437 C   0  0  0  0  0  0  0  0  0  0  0  0
   24.8961  -13.7316  -19.0767 C   0  0  2  0  0  0  0  0  0  0  0  0
   25.1372  -14.0182  -17.6174 N   0  0  0  0  0  0  0  0  0  0  0  0
   26.1868  -13.0621  -19.4412 C   0  0  0  0  0  0  0  0  0  0  0  0
   26.8436  -13.0913  -20.6289 O   0  0  0  0  0  0  0  0  0  0  0  0
   26.7532  -12.3763  -18.5223 O   0  0  0  0  0  0  0  0  0  0  0  0
  2  1  1  6
  3  2  1  0
  4  2  1  0
  5  6  1  1
  5  4  1  0
  7  8  2  0
  7  5  1  0
 10  9  1  6
 10 11  1  0
 11  7  1  0
 12 10  1  0
 12 22  1  0
 13 12  2  0
 15 14  1  0
 16 15  2  0
 17 15  1  0
 18 17  1  0
 19 20  1  0
 19 18  1  0
 21 20  1  1
 21 22  1  0
 21 23  1  0
 23 25  2  0
 23 24  1  0
M  END
$$$$
