LAR.pdb
     RDKit          3D

 25 24  0  0  1  0  0  0  0  0999 V2000
   16.6624  -12.3470  -10.4517 C   0  0  0  0  0  0  0  0  0  0  0  0
   15.6056  -11.8252  -11.4342 C   0  0  2  0  0  0  0  0  0  0  0  0
   16.1574  -12.1295  -12.8071 C   0  0  0  0  0  0  0  0  0  0  0  0
   15.4085  -10.3647  -11.2095 C   0  0  0  0  0  0  0  0  0  0  0  0
   14.6249  -10.0667   -9.9404 C   0  0  2  0  0  0  0  0  0  0  0  0
   13.3130  -10.6618  -10.0940 N   0  0  0  0  0  0  0  0  0  0  0  0
   14.5396   -8.5993   -9.7271 C   0  0  0  0  0  0  0  0  0  0  0  0
   13.8179   -7.9657  -10.5725 O   0  0  0  0  0  0  0  0  0  0  0  0
   15.5052   -5.9894   -7.2927 C   0  0  0  0  0  0  0  0  0  0  0  0
   15.0372   -6.4292   -8.6877 C   0  0  2  0  0  0  0  0  0  0  0  0
   15.1755   -7.8840   -8.6963 N   0  0  0  0  0  0  0  0  0  0  0  0
   15.9847   -5.7980   -9.6428 C   0  0  0  0  0  0  0  0  0  0  0  0
   17.0037   -6.4614   -9.9635 O   0  0  0  0  0  0  0  0  0  0  0  0
   16.2629   -6.6254  -17.5919 N   0  0  0  0  0  0  0  0  0  0  0  0
   17.3780   -6.6158  -16.7264 C   0  0  0  0  0  0  0  0  0  0  0  0
   18.4107   -7.3816  -16.9637 N   0  0  0  0  0  0  0  0  0  0  0  0
   17.4544   -5.7983  -15.5705 N   0  0  0  0  0  0  0  0  0  0  0  0
   16.2188   -5.0875  -15.1145 C   0  0  0  0  0  0  0  0  0  0  0  0
   16.5847   -4.3671  -13.8723 C   0  0  0  0  0  0  0  0  0  0  0  0
   16.2206   -4.8222  -12.5445 C   0  0  0  0  0  0  0  0  0  0  0  0
   16.6284   -4.0283  -11.3582 C   0  0  2  0  0  0  0  0  0  0  0  0
   15.8137   -4.5331  -10.1957 N   0  0  0  0  0  0  0  0  0  0  0  0
   16.1101   -2.6261  -11.4675 C   0  0  0  0  0  0  0  0  0  0  0  0
   14.9704   -2.1071  -10.9433 O   0  0  0  0  0  0  0  0  0  0  0  0
   16.8220   -1.8057  -12.1425 O   0  0  0  0  0  0  0  0  0  0  0  0
  2  1  1  1
  3  2  1  0
  4  2  1  0
  5  6  1  6
  5  4  1  0
  7  8  2  0
  7  5  1  0
 10  9  1  1
 10 11  1  0
 11  7  1  0
 12 10  1  0
 12 22  1  0
 13 12  2  0
 15 14  1  0
 16 15  2  0
 17 15  1  0
 18 17  1  0
 19 20  1  0
 19 18  1  0
 21 20  1  6
 21 22  1  0
 21 23  1  0
 23 25  2  0
 23 24  1  0
M  END
$$$$
