LAR.pdb
     RDKit          3D

 25 24  0  0  1  0  0  0  0  0999 V2000
   25.5765  -19.4278   -9.1444 C   0  0  0  0  0  0  0  0  0  0  0  0
   25.4913  -20.8369   -9.7459 C   0  0  2  0  0  0  0  0  0  0  0  0
   26.5746  -21.6292   -9.0525 C   0  0  0  0  0  0  0  0  0  0  0  0
   25.7009  -20.7524  -11.2195 C   0  0  0  0  0  0  0  0  0  0  0  0
   24.7280  -19.7997  -11.8969 C   0  0  2  0  0  0  0  0  0  0  0  0
   23.4164  -20.4127  -11.8433 N   0  0  0  0  0  0  0  0  0  0  0  0
   25.1565  -19.5436  -13.2959 C   0  0  0  0  0  0  0  0  0  0  0  0
   24.6816  -20.3496  -14.1686 O   0  0  0  0  0  0  0  0  0  0  0  0
   27.5052  -17.4009  -15.2023 C   0  0  0  0  0  0  0  0  0  0  0  0
   26.4142  -18.4783  -15.1181 C   0  0  2  0  0  0  0  0  0  0  0  0
   26.0182  -18.5125  -13.7118 N   0  0  0  0  0  0  0  0  0  0  0  0
   27.0765  -19.7475  -15.5165 C   0  0  0  0  0  0  0  0  0  0  0  0
   27.7395  -20.3505  -14.6343 O   0  0  0  0  0  0  0  0  0  0  0  0
   23.2128  -25.9937  -17.6203 N   0  0  0  0  0  0  0  0  0  0  0  0
   23.6365  -26.3122  -16.3120 C   0  0  0  0  0  0  0  0  0  0  0  0
   23.6992  -27.5573  -15.9179 N   0  0  0  0  0  0  0  0  0  0  0  0
   24.0128  -25.3320  -15.3593 N   0  0  0  0  0  0  0  0  0  0  0  0
   23.7556  -23.8919  -15.6754 C   0  0  0  0  0  0  0  0  0  0  0  0
   24.9254  -23.4184  -16.4521 C   0  0  0  0  0  0  0  0  0  0  0  0
   25.5789  -22.1447  -16.2213 C   0  0  0  0  0  0  0  0  0  0  0  0
   26.7600  -21.7664  -17.0372 C   0  0  2  0  0  0  0  0  0  0  0  0
   27.0079  -20.3009  -16.7908 N   0  0  0  0  0  0  0  0  0  0  0  0
   26.4010  -21.7426  -18.4923 C   0  0  0  0  0  0  0  0  0  0  0  0
   25.9982  -20.6851  -19.2423 O   0  0  0  0  0  0  0  0  0  0  0  0
   26.4755  -22.8562  -19.1167 O   0  0  0  0  0  0  0  0  0  0  0  0
  2  1  1  1
  3  2  1  0
  4  2  1  0
  5  6  1  6
  5  4  1  0
  7  8  2  0
  7  5  1  0
 10  9  1  1
 10 11  1  0
 11  7  1  0
 12 10  1  0
 12 22  1  0
 13 12  2  0
 15 14  1  0
 16 15  2  0
 17 15  1  0
 18 17  1  0
 19 20  1  0
 19 18  1  0
 21 20  1  1
 21 22  1  0
 21 23  1  0
 23 25  2  0
 23 24  1  0
M  END
$$$$
