LAR.pdb
     RDKit          3D

 25 24  0  0  1  0  0  0  0  0999 V2000
   28.9005  -18.0569  -20.6489 C   0  0  0  0  0  0  0  0  0  0  0  0
   28.7019  -19.5221  -21.0592 C   0  0  2  0  0  0  0  0  0  0  0  0
   27.6649  -19.4884  -22.1571 C   0  0  0  0  0  0  0  0  0  0  0  0
   28.2515  -20.3048  -19.8730 C   0  0  0  0  0  0  0  0  0  0  0  0
   29.2900  -20.3367  -18.7623 C   0  0  2  0  0  0  0  0  0  0  0  0
   30.3966  -21.1466  -19.2298 N   0  0  0  0  0  0  0  0  0  0  0  0
   28.6914  -20.8908  -17.5210 C   0  0  0  0  0  0  0  0  0  0  0  0
   28.7711  -22.1616  -17.3964 O   0  0  0  0  0  0  0  0  0  0  0  0
   27.4534  -19.8152  -14.2314 C   0  0  0  0  0  0  0  0  0  0  0  0
   27.5347  -20.8607  -15.3534 C   0  0  2  0  0  0  0  0  0  0  0  0
   28.0650  -20.1406  -16.5093 N   0  0  0  0  0  0  0  0  0  0  0  0
   26.1345  -21.2967  -15.5934 C   0  0  0  0  0  0  0  0  0  0  0  0
   25.4142  -20.5493  -16.3033 O   0  0  0  0  0  0  0  0  0  0  0  0
   18.3245  -22.1740  -13.9606 N   0  0  0  0  0  0  0  0  0  0  0  0
   19.1455  -22.3033  -12.8195 C   0  0  0  0  0  0  0  0  0  0  0  0
   18.7359  -22.9802  -11.7787 N   0  0  0  0  0  0  0  0  0  0  0  0
   20.4360  -21.7237  -12.7240 N   0  0  0  0  0  0  0  0  0  0  0  0
   20.9838  -20.9983  -13.9129 C   0  0  0  0  0  0  0  0  0  0  0  0
   21.8764  -21.9531  -14.6111 C   0  0  0  0  0  0  0  0  0  0  0  0
   23.3183  -21.9617  -14.4578 C   0  0  0  0  0  0  0  0  0  0  0  0
   24.1422  -22.8580  -15.3073 C   0  0  2  0  0  0  0  0  0  0  0  0
   25.5803  -22.4672  -15.0857 N   0  0  0  0  0  0  0  0  0  0  0  0
   23.9802  -22.4980  -16.7533 C   0  0  0  0  0  0  0  0  0  0  0  0
   24.7262  -21.6403  -17.4955 O   0  0  0  0  0  0  0  0  0  0  0  0
   23.0163  -23.0613  -17.3770 O   0  0  0  0  0  0  0  0  0  0  0  0
  2  1  1  1
  3  2  1  0
  4  2  1  0
  5  6  1  6
  5  4  1  0
  7  8  2  0
  7  5  1  0
 10  9  1  1
 10 11  1  0
 11  7  1  0
 12 10  1  0
 12 22  1  0
 13 12  2  0
 15 14  1  0
 16 15  2  0
 17 15  1  0
 18 17  1  0
 19 20  1  0
 19 18  1  0
 21 20  1  1
 21 22  1  0
 21 23  1  0
 23 25  2  0
 23 24  1  0
M  END
$$$$
