LAR.pdb
     RDKit          3D

 25 24  0  0  1  0  0  0  0  0999 V2000
   28.1810  -21.1858  -14.8268 C   0  0  0  0  0  0  0  0  0  0  0  0
   27.6511  -19.7699  -15.0899 C   0  0  2  0  0  0  0  0  0  0  0  0
   28.7492  -18.8435  -14.6231 C   0  0  0  0  0  0  0  0  0  0  0  0
   26.3809  -19.5754  -14.3340 C   0  0  0  0  0  0  0  0  0  0  0  0
   25.2887  -20.5429  -14.7630 C   0  0  2  0  0  0  0  0  0  0  0  0
   25.1705  -20.4484  -16.2038 N   0  0  0  0  0  0  0  0  0  0  0  0
   24.0117  -20.2028  -14.0848 C   0  0  0  0  0  0  0  0  0  0  0  0
   24.0602  -20.1852  -12.8065 O   0  0  0  0  0  0  0  0  0  0  0  0
   20.6568  -18.8653  -14.6959 C   0  0  0  0  0  0  0  0  0  0  0  0
   21.5975  -19.7841  -13.9025 C   0  0  2  0  0  0  0  0  0  0  0  0
   22.7961  -19.9097  -14.7290 N   0  0  0  0  0  0  0  0  0  0  0  0
   20.8860  -21.0843  -13.7942 C   0  0  0  0  0  0  0  0  0  0  0  0
   21.0644  -21.9152  -14.7210 O   0  0  0  0  0  0  0  0  0  0  0  0
   18.6058  -24.8318   -6.3660 N   0  0  0  0  0  0  0  0  0  0  0  0
   17.5761  -24.3511   -7.2034 C   0  0  0  0  0  0  0  0  0  0  0  0
   16.3712  -24.1603   -6.7333 N   0  0  0  0  0  0  0  0  0  0  0  0
   17.7701  -24.0503   -8.5753 N   0  0  0  0  0  0  0  0  0  0  0  0
   18.7769  -24.8454   -9.3462 C   0  0  0  0  0  0  0  0  0  0  0  0
   18.7233  -24.3486  -10.7412 C   0  0  0  0  0  0  0  0  0  0  0  0
   19.3438  -23.1125  -11.1766 C   0  0  0  0  0  0  0  0  0  0  0  0
   19.3951  -22.7861  -12.6240 C   0  0  2  0  0  0  0  0  0  0  0  0
   20.0451  -21.4321  -12.7421 N   0  0  0  0  0  0  0  0  0  0  0  0
   18.0209  -22.4759  -13.1363 C   0  0  0  0  0  0  0  0  0  0  0  0
   17.2009  -23.2651  -13.8763 O   0  0  0  0  0  0  0  0  0  0  0  0
   17.5524  -21.3210  -12.8496 O   0  0  0  0  0  0  0  0  0  0  0  0
  2  1  1  1
  3  2  1  0
  4  2  1  0
  5  6  1  6
  5  4  1  0
  7  8  2  0
  7  5  1  0
 10  9  1  6
 10 11  1  0
 11  7  1  0
 12 10  1  0
 12 22  1  0
 13 12  2  0
 15 14  1  0
 16 15  2  0
 17 15  1  0
 18 17  1  0
 19 20  1  0
 19 18  1  0
 21 20  1  1
 21 22  1  0
 21 23  1  0
 23 25  2  0
 23 24  1  0
M  END
$$$$
