LAR.pdb
     RDKit          3D

 25 24  0  0  1  0  0  0  0  0999 V2000
   25.3535  -13.6223  -15.0016 C   0  0  0  0  0  0  0  0  0  0  0  0
   25.1809  -14.4673  -16.2707 C   0  0  2  0  0  0  0  0  0  0  0  0
   24.0587  -13.8066  -17.0363 C   0  0  0  0  0  0  0  0  0  0  0  0
   24.8584  -15.8704  -15.8834 C   0  0  0  0  0  0  0  0  0  0  0  0
   25.2153  -16.8753  -16.9677 C   0  0  2  0  0  0  0  0  0  0  0  0
   24.0267  -17.0856  -17.7689 N   0  0  0  0  0  0  0  0  0  0  0  0
   25.6927  -18.1403  -16.3528 C   0  0  0  0  0  0  0  0  0  0  0  0
   24.7763  -18.8967  -15.8785 O   0  0  0  0  0  0  0  0  0  0  0  0
   28.8455  -19.9726  -15.6554 C   0  0  0  0  0  0  0  0  0  0  0  0
   27.3202  -19.8109  -15.5798 C   0  0  2  0  0  0  0  0  0  0  0  0
   27.0355  -18.5487  -16.2591 N   0  0  0  0  0  0  0  0  0  0  0  0
   27.0009  -19.7204  -14.1313 C   0  0  0  0  0  0  0  0  0  0  0  0
   27.2071  -18.6163  -13.5658 O   0  0  0  0  0  0  0  0  0  0  0  0
   19.4518  -19.5566  -12.8240 N   0  0  0  0  0  0  0  0  0  0  0  0
   20.0144  -20.7962  -13.1977 C   0  0  0  0  0  0  0  0  0  0  0  0
   19.2773  -21.7190  -13.7583 N   0  0  0  0  0  0  0  0  0  0  0  0
   21.3801  -21.1193  -12.9964 N   0  0  0  0  0  0  0  0  0  0  0  0
   22.2741  -20.0916  -12.3761 C   0  0  0  0  0  0  0  0  0  0  0  0
   23.6339  -20.6800  -12.3511 C   0  0  0  0  0  0  0  0  0  0  0  0
   24.8039  -19.9748  -11.8651 C   0  0  0  0  0  0  0  0  0  0  0  0
   26.1333  -20.6336  -11.9172 C   0  0  2  0  0  0  0  0  0  0  0  0
   26.4942  -20.7711  -13.3735 N   0  0  0  0  0  0  0  0  0  0  0  0
   26.0146  -22.0760  -11.5270 C   0  0  0  0  0  0  0  0  0  0  0  0
   26.0029  -23.1677  -12.3340 O   0  0  0  0  0  0  0  0  0  0  0  0
   25.9053  -22.3218  -10.2768 O   0  0  0  0  0  0  0  0  0  0  0  0
  2  1  1  1
  3  2  1  0
  4  2  1  0
  5  6  1  1
  5  4  1  0
  7  8  2  0
  7  5  1  0
 10  9  1  1
 10 11  1  0
 11  7  1  0
 12 10  1  0
 12 22  1  0
 13 12  2  0
 15 14  1  0
 16 15  2  0
 17 15  1  0
 18 17  1  0
 19 20  1  0
 19 18  1  0
 21 20  1  6
 21 22  1  0
 21 23  1  0
 23 25  2  0
 23 24  1  0
M  END
$$$$
