LAR.pdb
     RDKit          3D

 25 24  0  0  1  0  0  0  0  0999 V2000
   28.1844  -20.0453  -13.8347 C   0  0  0  0  0  0  0  0  0  0  0  0
   27.3360  -19.3025  -14.8755 C   0  0  2  0  0  0  0  0  0  0  0  0
   27.9562  -17.9294  -14.9844 C   0  0  0  0  0  0  0  0  0  0  0  0
   25.9213  -19.2539  -14.4078 C   0  0  0  0  0  0  0  0  0  0  0  0
   25.3212  -20.6372  -14.2086 C   0  0  2  0  0  0  0  0  0  0  0  0
   25.6629  -21.4272  -15.3740 N   0  0  0  0  0  0  0  0  0  0  0  0
   23.8505  -20.5335  -14.0288 C   0  0  0  0  0  0  0  0  0  0  0  0
   23.4713  -19.8623  -13.0077 O   0  0  0  0  0  0  0  0  0  0  0  0
   20.7151  -20.9774  -15.8552 C   0  0  0  0  0  0  0  0  0  0  0  0
   21.4744  -20.9191  -14.5215 C   0  0  2  0  0  0  0  0  0  0  0  0
   22.8808  -21.1027  -14.8739 N   0  0  0  0  0  0  0  0  0  0  0  0
   20.9699  -22.0682  -13.7257 C   0  0  0  0  0  0  0  0  0  0  0  0
   21.4952  -23.1903  -13.9410 O   0  0  0  0  0  0  0  0  0  0  0  0
   16.8072  -24.9756   -8.0881 N   0  0  0  0  0  0  0  0  0  0  0  0
   17.9686  -25.5037   -7.4840 C   0  0  0  0  0  0  0  0  0  0  0  0
   17.9691  -26.7138   -6.9890 N   0  0  0  0  0  0  0  0  0  0  0  0
   19.1824  -24.7793   -7.3738 N   0  0  0  0  0  0  0  0  0  0  0  0
   19.2978  -23.4657   -8.0817 C   0  0  0  0  0  0  0  0  0  0  0  0
   19.3077  -23.7710   -9.5317 C   0  0  0  0  0  0  0  0  0  0  0  0
   19.4261  -22.7590  -10.5634 C   0  0  0  0  0  0  0  0  0  0  0  0
   19.4619  -23.1657  -11.9908 C   0  0  2  0  0  0  0  0  0  0  0  0
   19.9639  -21.9776  -12.7694 N   0  0  0  0  0  0  0  0  0  0  0  0
   18.0696  -23.2808  -12.5340 C   0  0  0  0  0  0  0  0  0  0  0  0
   17.2288  -22.2840  -12.9117 O   0  0  0  0  0  0  0  0  0  0  0  0
   17.6014  -24.4644  -12.6576 O   0  0  0  0  0  0  0  0  0  0  0  0
  2  1  1  1
  3  2  1  0
  4  2  1  0
  5  6  1  6
  5  4  1  0
  7  8  2  0
  7  5  1  0
 10  9  1  6
 10 11  1  0
 11  7  1  0
 12 10  1  0
 12 22  1  0
 13 12  2  0
 15 14  1  0
 16 15  2  0
 17 15  1  0
 18 17  1  0
 19 20  1  0
 19 18  1  0
 21 20  1  1
 21 22  1  0
 21 23  1  0
 23 25  2  0
 23 24  1  0
M  END
$$$$
