LAR.pdb
     RDKit          3D

 25 24  0  0  1  0  0  0  0  0999 V2000
   27.4573  -18.3396  -15.1828 C   0  0  0  0  0  0  0  0  0  0  0  0
   26.3521  -17.6888  -16.0252 C   0  0  2  0  0  0  0  0  0  0  0  0
   26.8684  -16.3085  -16.3569 C   0  0  0  0  0  0  0  0  0  0  0  0
   25.0910  -17.6506  -15.2310 C   0  0  0  0  0  0  0  0  0  0  0  0
   24.5671  -19.0382  -14.8947 C   0  0  2  0  0  0  0  0  0  0  0  0
   24.8571  -19.8947  -16.0266 N   0  0  0  0  0  0  0  0  0  0  0  0
   23.1101  -18.9780  -14.6121 C   0  0  0  0  0  0  0  0  0  0  0  0
   22.7712  -18.1989  -13.6555 O   0  0  0  0  0  0  0  0  0  0  0  0
   20.0155  -19.1113  -16.2633 C   0  0  0  0  0  0  0  0  0  0  0  0
   20.7195  -19.4418  -14.9390 C   0  0  2  0  0  0  0  0  0  0  0  0
   22.1132  -19.6938  -15.2994 N   0  0  0  0  0  0  0  0  0  0  0  0
   20.0661  -20.6793  -14.4389 C   0  0  0  0  0  0  0  0  0  0  0  0
   20.6594  -21.7677  -14.6511 O   0  0  0  0  0  0  0  0  0  0  0  0
   19.7712  -24.3674   -9.5002 N   0  0  0  0  0  0  0  0  0  0  0  0
   18.5826  -25.0900   -9.2595 C   0  0  0  0  0  0  0  0  0  0  0  0
   18.6184  -26.2431   -8.6445 N   0  0  0  0  0  0  0  0  0  0  0  0
   17.3020  -24.6295   -9.6573 N   0  0  0  0  0  0  0  0  0  0  0  0
   17.1542  -24.0081  -11.0108 C   0  0  0  0  0  0  0  0  0  0  0  0
   17.5880  -22.5978  -10.8736 C   0  0  0  0  0  0  0  0  0  0  0  0
   17.5628  -21.6415  -11.9632 C   0  0  0  0  0  0  0  0  0  0  0  0
   18.2240  -21.9758  -13.2497 C   0  0  2  0  0  0  0  0  0  0  0  0
   18.8528  -20.7050  -13.7592 N   0  0  0  0  0  0  0  0  0  0  0  0
   17.1973  -22.2194  -14.3143 C   0  0  0  0  0  0  0  0  0  0  0  0
   16.3435  -21.3279  -14.8794 O   0  0  0  0  0  0  0  0  0  0  0  0
   17.1011  -23.4176  -14.7508 O   0  0  0  0  0  0  0  0  0  0  0  0
  2  1  1  1
  3  2  1  0
  4  2  1  0
  5  6  1  6
  5  4  1  0
  7  8  2  0
  7  5  1  0
 10  9  1  6
 10 11  1  0
 11  7  1  0
 12 10  1  0
 12 22  1  0
 13 12  2  0
 15 14  1  0
 16 15  2  0
 17 15  1  0
 18 17  1  0
 19 20  1  0
 19 18  1  0
 21 20  1  1
 21 22  1  0
 21 23  1  0
 23 25  2  0
 23 24  1  0
M  END
$$$$
