LAR.pdb
     RDKit          3D

 25 24  0  0  1  0  0  0  0  0999 V2000
   27.1747  -18.8343   -5.8182 C   0  0  0  0  0  0  0  0  0  0  0  0
   27.8356  -20.0959   -6.3893 C   0  0  2  0  0  0  0  0  0  0  0  0
   29.2903  -19.9933   -5.9955 C   0  0  0  0  0  0  0  0  0  0  0  0
   27.6453  -20.1206   -7.8678 C   0  0  0  0  0  0  0  0  0  0  0  0
   26.1875  -20.2855   -8.2690 C   0  0  2  0  0  0  0  0  0  0  0  0
   25.7571  -21.5884   -7.8042 N   0  0  0  0  0  0  0  0  0  0  0  0
   26.0467  -20.1549   -9.7419 C   0  0  0  0  0  0  0  0  0  0  0  0
   25.8956  -18.9596  -10.1722 O   0  0  0  0  0  0  0  0  0  0  0  0
   26.8007  -21.8410  -12.8406 C   0  0  0  0  0  0  0  0  0  0  0  0
   25.8563  -20.9031  -12.0746 C   0  0  2  0  0  0  0  0  0  0  0  0
   26.0670  -21.2178  -10.6631 N   0  0  0  0  0  0  0  0  0  0  0  0
   24.4850  -21.2799  -12.5058 C   0  0  0  0  0  0  0  0  0  0  0  0
   24.2072  -21.1388  -13.7241 O   0  0  0  0  0  0  0  0  0  0  0  0
   17.8584  -25.0993   -9.6019 N   0  0  0  0  0  0  0  0  0  0  0  0
   17.0890  -24.0847  -10.2113 C   0  0  0  0  0  0  0  0  0  0  0  0
   15.8813  -24.3354  -10.6446 N   0  0  0  0  0  0  0  0  0  0  0  0
   17.5589  -22.7593  -10.3921 N   0  0  0  0  0  0  0  0  0  0  0  0
   18.9052  -22.3974   -9.8477 C   0  0  0  0  0  0  0  0  0  0  0  0
   19.8406  -22.4176  -10.9968 C   0  0  0  0  0  0  0  0  0  0  0  0
   21.2600  -22.1447  -10.8803 C   0  0  0  0  0  0  0  0  0  0  0  0
   22.0966  -22.0691  -12.1044 C   0  0  2  0  0  0  0  0  0  0  0  0
   23.5030  -21.7728  -11.6528 N   0  0  0  0  0  0  0  0  0  0  0  0
   21.7857  -20.8189  -12.8706 C   0  0  0  0  0  0  0  0  0  0  0  0
   21.9979  -19.5303  -12.4998 O   0  0  0  0  0  0  0  0  0  0  0  0
   21.2473  -20.9732  -14.0202 O   0  0  0  0  0  0  0  0  0  0  0  0
  2  1  1  6
  3  2  1  0
  4  2  1  0
  5  6  1  6
  5  4  1  0
  7  8  2  0
  7  5  1  0
 10  9  1  6
 10 11  1  0
 11  7  1  0
 12 10  1  0
 12 22  1  0
 13 12  2  0
 15 14  1  0
 16 15  2  0
 17 15  1  0
 18 17  1  0
 19 20  1  0
 19 18  1  0
 21 20  1  1
 21 22  1  0
 21 23  1  0
 23 25  2  0
 23 24  1  0
M  END
$$$$
