LAR.pdb
     RDKit          3D

 25 24  0  0  1  0  0  0  0  0999 V2000
   29.1586  -20.9019  -11.9006 C   0  0  0  0  0  0  0  0  0  0  0  0
   27.8944  -20.2068  -11.3779 C   0  0  2  0  0  0  0  0  0  0  0  0
   27.4360  -21.0463  -10.2087 C   0  0  0  0  0  0  0  0  0  0  0  0
   26.8816  -20.1489  -12.4704 C   0  0  0  0  0  0  0  0  0  0  0  0
   27.3318  -19.2913  -13.6430 C   0  0  2  0  0  0  0  0  0  0  0  0
   27.6357  -17.9740  -13.1222 N   0  0  0  0  0  0  0  0  0  0  0  0
   26.2653  -19.2399  -14.6755 C   0  0  0  0  0  0  0  0  0  0  0  0
   25.1907  -18.6426  -14.3213 O   0  0  0  0  0  0  0  0  0  0  0  0
   25.6555  -20.1442  -18.2176 C   0  0  0  0  0  0  0  0  0  0  0  0
   25.1754  -19.6917  -16.8308 C   0  0  2  0  0  0  0  0  0  0  0  0
   26.3526  -19.7838  -15.9698 N   0  0  0  0  0  0  0  0  0  0  0  0
   24.1406  -20.6785  -16.4262 C   0  0  0  0  0  0  0  0  0  0  0  0
   24.5217  -21.6616  -15.7408 O   0  0  0  0  0  0  0  0  0  0  0  0
   20.1398  -22.7147   -9.8657 N   0  0  0  0  0  0  0  0  0  0  0  0
   19.2435  -23.0416  -10.9062 C   0  0  0  0  0  0  0  0  0  0  0  0
   18.4489  -24.0743  -10.7996 N   0  0  0  0  0  0  0  0  0  0  0  0
   19.1450  -22.2944  -12.1071 N   0  0  0  0  0  0  0  0  0  0  0  0
   20.3140  -21.4600  -12.5281 C   0  0  0  0  0  0  0  0  0  0  0  0
   20.5623  -21.7766  -13.9543 C   0  0  0  0  0  0  0  0  0  0  0  0
   21.5348  -21.0791  -14.7729 C   0  0  0  0  0  0  0  0  0  0  0  0
   21.7391  -21.4927  -16.1840 C   0  0  2  0  0  0  0  0  0  0  0  0
   22.7929  -20.5809  -16.7567 N   0  0  0  0  0  0  0  0  0  0  0  0
   20.5561  -21.1013  -17.0172 C   0  0  0  0  0  0  0  0  0  0  0  0
   19.4801  -21.8559  -17.3574 O   0  0  0  0  0  0  0  0  0  0  0  0
   20.5509  -19.9075  -17.4756 O   0  0  0  0  0  0  0  0  0  0  0  0
  2  1  1  6
  3  2  1  0
  4  2  1  0
  5  6  1  1
  5  4  1  0
  7  8  2  0
  7  5  1  0
 10  9  1  6
 10 11  1  0
 11  7  1  0
 12 10  1  0
 12 22  1  0
 13 12  2  0
 15 14  1  0
 16 15  2  0
 17 15  1  0
 18 17  1  0
 19 20  1  0
 19 18  1  0
 21 20  1  1
 21 22  1  0
 21 23  1  0
 23 25  2  0
 23 24  1  0
M  END
$$$$
