ETT.pdb
     RDKit          3D

 24 23  0  0  1  0  0  0  0  0999 V2000
   20.8481  -13.0635  -17.1471 N   0  0  0  0  0  0  0  0  0  0  0  0
   20.1324  -11.8763  -16.7303 C   0  0  1  0  0  0  0  0  0  0  0  0
   18.9650  -12.2291  -15.8389 C   0  0  0  0  0  0  0  0  0  0  0  0
   17.8478  -12.9011  -16.5654 C   0  0  0  0  0  0  0  0  0  0  0  0
   16.7237  -13.0812  -15.6115 C   0  0  0  0  0  0  0  0  0  0  0  0
   16.3467  -12.1338  -14.8458 O   0  0  0  0  0  0  0  0  0  0  0  0
   21.0893  -10.9623  -16.0745 C   0  0  0  0  0  0  0  0  0  0  0  0
   21.8739  -11.4236  -15.2141 O   0  0  0  0  0  0  0  0  0  0  0  0
   16.0313  -14.2672  -15.4996 O   0  0  0  0  0  0  0  0  0  0  0  0
   24.0634   -9.8142  -16.7577 C   0  0  0  0  0  0  0  0  0  0  0  0
   23.3061   -8.5191  -16.6857 C   0  0  1  0  0  0  0  0  0  0  0  0
   22.8969   -8.1850  -17.9594 O   0  0  0  0  0  0  0  0  0  0  0  0
   22.1170   -8.6688  -15.7366 C   0  0  2  0  0  0  0  0  0  0  0  0
   21.1815   -9.5733  -16.3582 N   0  0  0  0  0  0  0  0  0  0  0  0
   21.5574   -7.3022  -15.5554 C   0  0  0  0  0  0  0  0  0  0  0  0
   20.9761   -6.8111  -16.5436 O   0  0  0  0  0  0  0  0  0  0  0  0
   18.8434   -6.1349  -13.4926 C   0  0  0  0  0  0  0  0  0  0  0  0
   20.0561   -5.2992  -13.1271 C   0  0  1  0  0  0  0  0  0  0  0  0
   20.6870   -5.8572  -12.0031 O   0  0  0  0  0  0  0  0  0  0  0  0
   21.0760   -5.2691  -14.2215 C   0  0  2  0  0  0  0  0  0  0  0  0
   21.6580   -6.5775  -14.3586 N   0  0  0  0  0  0  0  0  0  0  0  0
   22.1470   -4.3003  -13.8451 C   0  0  0  0  0  0  0  0  0  0  0  0
   21.8510   -2.9307  -13.7562 O   0  0  0  0  0  0  0  0  0  0  0  0
   23.3308   -4.6205  -13.5929 O   0  0  0  0  0  0  0  0  0  0  0  0
  2  1  1  1
  3  2  1  0
  3  4  1  0
  4  5  1  0
  5  9  1  0
  5  6  2  0
  7  8  2  0
  7  2  1  0
 11 10  1  6
 11 13  1  0
 12 11  1  0
 13 14  1  6
 13 15  1  0
 14  7  1  0
 15 21  1  0
 16 15  2  0
 18 20  1  0
 18 19  1  0
 18 17  1  6
 20 22  1  0
 20 21  1  1
 22 24  2  0
 22 23  1  0
M  END
$$$$
