ETT.pdb
     RDKit          3D

 24 23  0  0  1  0  0  0  0  0999 V2000
   16.9015  -11.9585  -15.9437 N   0  0  0  0  0  0  0  0  0  0  0  0
   18.2154  -11.3555  -16.0161 C   0  0  1  0  0  0  0  0  0  0  0  0
   18.7735  -11.4327  -17.4178 C   0  0  0  0  0  0  0  0  0  0  0  0
   19.5645  -12.6724  -17.6721 C   0  0  0  0  0  0  0  0  0  0  0  0
   20.1302  -12.5820  -19.0425 C   0  0  0  0  0  0  0  0  0  0  0  0
   19.3748  -12.5265  -20.0683 O   0  0  0  0  0  0  0  0  0  0  0  0
   18.1183   -9.9675  -15.5212 C   0  0  0  0  0  0  0  0  0  0  0  0
   17.2106   -9.2285  -15.9668 O   0  0  0  0  0  0  0  0  0  0  0  0
   21.4867  -12.5532  -19.2825 O   0  0  0  0  0  0  0  0  0  0  0  0
   16.8662   -8.5369  -12.7996 C   0  0  0  0  0  0  0  0  0  0  0  0
   18.2941   -8.0842  -12.6901 C   0  0  1  0  0  0  0  0  0  0  0  0
   18.9610   -8.9524  -11.8518 O   0  0  0  0  0  0  0  0  0  0  0  0
   18.9314   -8.0465  -14.0792 C   0  0  2  0  0  0  0  0  0  0  0  0
   18.9989   -9.4049  -14.5587 N   0  0  0  0  0  0  0  0  0  0  0  0
   20.2760   -7.4350  -13.9013 C   0  0  0  0  0  0  0  0  0  0  0  0
   21.1284   -8.1404  -13.3256 O   0  0  0  0  0  0  0  0  0  0  0  0
   22.9033   -6.4682  -16.2858 C   0  0  0  0  0  0  0  0  0  0  0  0
   22.4976   -5.2425  -15.4885 C   0  0  1  0  0  0  0  0  0  0  0  0
   21.5003   -4.5405  -16.1852 O   0  0  0  0  0  0  0  0  0  0  0  0
   21.9208   -5.5978  -14.1545 C   0  0  2  0  0  0  0  0  0  0  0  0
   20.6032   -6.1441  -14.3419 N   0  0  0  0  0  0  0  0  0  0  0  0
   21.8169   -4.3541  -13.3362 C   0  0  0  0  0  0  0  0  0  0  0  0
   22.9827   -3.7141  -12.8860 O   0  0  0  0  0  0  0  0  0  0  0  0
   20.7361   -3.8150  -13.0064 O   0  0  0  0  0  0  0  0  0  0  0  0
  2  1  1  6
  3  2  1  0
  3  4  1  0
  4  5  1  0
  5  9  1  0
  5  6  2  0
  7  8  2  0
  7  2  1  0
 11 10  1  6
 11 13  1  0
 12 11  1  0
 13 14  1  1
 13 15  1  0
 14  7  1  0
 15 21  1  0
 16 15  2  0
 18 20  1  0
 18 19  1  0
 18 17  1  6
 20 22  1  0
 20 21  1  6
 22 24  2  0
 22 23  1  0
M  END
$$$$
