ETT.pdb
     RDKit          3D

 24 23  0  0  1  0  0  0  0  0999 V2000
   16.1456  -11.1121  -14.5858 N   0  0  0  0  0  0  0  0  0  0  0  0
   17.4699  -11.6137  -14.8856 C   0  0  1  0  0  0  0  0  0  0  0  0
   17.4001  -12.8661  -15.7273 C   0  0  0  0  0  0  0  0  0  0  0  0
   16.2247  -13.7287  -15.4082 C   0  0  0  0  0  0  0  0  0  0  0  0
   16.3405  -14.9752  -16.2076 C   0  0  0  0  0  0  0  0  0  0  0  0
   17.2729  -15.1286  -17.0637 O   0  0  0  0  0  0  0  0  0  0  0  0
   18.2392  -10.5352  -15.5384 C   0  0  0  0  0  0  0  0  0  0  0  0
   19.3133  -10.8221  -16.1151 O   0  0  0  0  0  0  0  0  0  0  0  0
   15.4585  -16.0251  -16.0726 O   0  0  0  0  0  0  0  0  0  0  0  0
   17.2444   -8.2346  -18.2599 C   0  0  0  0  0  0  0  0  0  0  0  0
   17.6215   -7.3562  -17.1014 C   0  0  1  0  0  0  0  0  0  0  0  0
   16.4674   -6.9902  -16.4414 O   0  0  0  0  0  0  0  0  0  0  0  0
   18.5817   -8.1051  -16.1771 C   0  0  2  0  0  0  0  0  0  0  0  0
   17.8368   -9.1728  -15.5566 N   0  0  0  0  0  0  0  0  0  0  0  0
   19.0743   -7.1039  -15.1930 C   0  0  0  0  0  0  0  0  0  0  0  0
   18.4086   -6.9909  -14.1444 O   0  0  0  0  0  0  0  0  0  0  0  0
   22.0572   -6.9802  -13.0709 C   0  0  0  0  0  0  0  0  0  0  0  0
   22.0508   -5.7574  -13.9693 C   0  0  1  0  0  0  0  0  0  0  0  0
   22.7805   -6.0317  -15.1378 O   0  0  0  0  0  0  0  0  0  0  0  0
   20.6701   -5.3789  -14.4040 C   0  0  2  0  0  0  0  0  0  0  0  0
   20.2162   -6.3152  -15.3974 N   0  0  0  0  0  0  0  0  0  0  0  0
   20.7206   -4.0164  -15.0108 C   0  0  0  0  0  0  0  0  0  0  0  0
   21.0124   -2.9032  -14.2064 O   0  0  0  0  0  0  0  0  0  0  0  0
   20.5168   -3.7759  -16.2225 O   0  0  0  0  0  0  0  0  0  0  0  0
  2  1  1  6
  3  2  1  0
  3  4  1  0
  4  5  1  0
  5  9  1  0
  5  6  2  0
  7  8  2  0
  7  2  1  0
 11 10  1  6
 11 13  1  0
 12 11  1  0
 13 14  1  1
 13 15  1  0
 14  7  1  0
 15 21  1  0
 16 15  2  0
 18 20  1  0
 18 19  1  0
 18 17  1  1
 20 22  1  0
 20 21  1  6
 22 24  2  0
 22 23  1  0
M  END
$$$$
