ETT.pdb
     RDKit          3D

 24 23  0  0  1  0  0  0  0  0999 V2000
   18.8605  -13.1025  -16.3759 N   0  0  0  0  0  0  0  0  0  0  0  0
   18.4783  -11.7067  -16.4063 C   0  0  1  0  0  0  0  0  0  0  0  0
   17.3690  -11.4242  -15.4207 C   0  0  0  0  0  0  0  0  0  0  0  0
   16.0951  -12.1307  -15.7452 C   0  0  0  0  0  0  0  0  0  0  0  0
   15.0762  -11.7211  -14.7451 C   0  0  0  0  0  0  0  0  0  0  0  0
   14.9456  -10.5023  -14.3939 O   0  0  0  0  0  0  0  0  0  0  0  0
   19.6819  -10.8891  -16.1534 C   0  0  0  0  0  0  0  0  0  0  0  0
   20.6506  -11.4081  -15.5527 O   0  0  0  0  0  0  0  0  0  0  0  0
   14.2236  -12.6226  -14.1459 O   0  0  0  0  0  0  0  0  0  0  0  0
   21.9510   -9.4801  -18.4759 C   0  0  0  0  0  0  0  0  0  0  0  0
   21.5122   -8.2792  -17.6878 C   0  0  1  0  0  0  0  0  0  0  0  0
   20.5425   -7.6171  -18.4106 O   0  0  0  0  0  0  0  0  0  0  0  0
   20.9880   -8.7219  -16.3217 C   0  0  2  0  0  0  0  0  0  0  0  0
   19.8174   -9.5322  -16.5519 N   0  0  0  0  0  0  0  0  0  0  0  0
   20.6818   -7.4741  -15.5716 C   0  0  0  0  0  0  0  0  0  0  0  0
   19.6189   -6.8969  -15.8761 O   0  0  0  0  0  0  0  0  0  0  0  0
   20.2204   -7.1579  -11.8925 C   0  0  0  0  0  0  0  0  0  0  0  0
   21.2482   -6.1355  -12.3407 C   0  0  1  0  0  0  0  0  0  0  0  0
   22.5388   -6.6582  -12.1563 O   0  0  0  0  0  0  0  0  0  0  0  0
   21.1228   -5.8034  -13.7942 C   0  0  2  0  0  0  0  0  0  0  0  0
   21.5150   -6.9470  -14.5738 N   0  0  0  0  0  0  0  0  0  0  0  0
   22.0424   -4.6692  -14.1026 C   0  0  0  0  0  0  0  0  0  0  0  0
   21.7941   -3.3996  -13.5567 O   0  0  0  0  0  0  0  0  0  0  0  0
   23.0539   -4.7603  -14.8348 O   0  0  0  0  0  0  0  0  0  0  0  0
  2  1  1  1
  3  2  1  0
  3  4  1  0
  4  5  1  0
  5  9  1  0
  5  6  2  0
  7  8  2  0
  7  2  1  0
 11 10  1  6
 11 13  1  0
 12 11  1  0
 13 14  1  6
 13 15  1  0
 14  7  1  0
 15 21  1  0
 16 15  2  0
 18 20  1  0
 18 19  1  0
 18 17  1  6
 20 22  1  0
 20 21  1  6
 22 24  2  0
 22 23  1  0
M  END
$$$$
