ETT.pdb
     RDKit          3D

 24 23  0  0  1  0  0  0  0  0999 V2000
   24.3597  -21.2111  -10.4273 N   0  0  0  0  0  0  0  0  0  0  0  0
   23.9541  -21.0018  -11.8010 C   0  0  1  0  0  0  0  0  0  0  0  0
   22.6296  -20.2789  -11.8736 C   0  0  0  0  0  0  0  0  0  0  0  0
   21.4659  -21.1379  -11.5060 C   0  0  0  0  0  0  0  0  0  0  0  0
   20.2478  -20.2881  -11.5158 C   0  0  0  0  0  0  0  0  0  0  0  0
   19.6698  -19.9718  -12.6075 O   0  0  0  0  0  0  0  0  0  0  0  0
   25.0340  -20.2761  -12.4997 C   0  0  0  0  0  0  0  0  0  0  0  0
   25.7532  -19.4861  -11.8461 O   0  0  0  0  0  0  0  0  0  0  0  0
   19.6783  -19.7981  -10.3608 O   0  0  0  0  0  0  0  0  0  0  0  0
   28.0122  -21.4818  -13.9120 C   0  0  0  0  0  0  0  0  0  0  0  0
   27.3545  -20.8047  -15.0803 C   0  0  1  0  0  0  0  0  0  0  0  0
   26.7063  -21.7644  -15.8288 O   0  0  0  0  0  0  0  0  0  0  0  0
   26.3834  -19.7362  -14.5777 C   0  0  2  0  0  0  0  0  0  0  0  0
   25.3167  -20.4158  -13.8849 N   0  0  0  0  0  0  0  0  0  0  0  0
   25.9088  -19.0075  -15.7849 C   0  0  0  0  0  0  0  0  0  0  0  0
   24.7229  -19.2067  -16.1158 O   0  0  0  0  0  0  0  0  0  0  0  0
   26.6160  -15.4961  -19.1582 C   0  0  0  0  0  0  0  0  0  0  0  0
   27.2260  -16.4891  -18.1864 C   0  0  1  0  0  0  0  0  0  0  0  0
   27.6442  -15.8133  -17.0283 O   0  0  0  0  0  0  0  0  0  0  0  0
   26.2445  -17.5291  -17.7461 C   0  0  2  0  0  0  0  0  0  0  0  0
   26.7181  -18.1392  -16.5324 N   0  0  0  0  0  0  0  0  0  0  0  0
   26.1517  -18.5734  -18.8082 C   0  0  0  0  0  0  0  0  0  0  0  0
   25.1538  -18.4835  -19.7917 O   0  0  0  0  0  0  0  0  0  0  0  0
   26.9187  -19.5590  -18.8973 O   0  0  0  0  0  0  0  0  0  0  0  0
  2  1  1  1
  3  2  1  0
  3  4  1  0
  4  5  1  0
  5  9  1  0
  5  6  2  0
  7  8  2  0
  7  2  1  0
 11 10  1  1
 11 13  1  0
 12 11  1  0
 13 14  1  6
 13 15  1  0
 14  7  1  0
 15 21  1  0
 16 15  2  0
 18 20  1  0
 18 19  1  0
 18 17  1  6
 20 22  1  0
 20 21  1  1
 22 24  2  0
 22 23  1  0
M  END
$$$$
