ETT.pdb
     RDKit          3D

 24 23  0  0  1  0  0  0  0  0999 V2000
   20.0788  -13.6316  -16.3187 N   0  0  0  0  0  0  0  0  0  0  0  0
   19.6906  -12.2580  -16.5591 C   0  0  1  0  0  0  0  0  0  0  0  0
   18.2195  -12.0519  -16.2847 C   0  0  0  0  0  0  0  0  0  0  0  0
   17.3331  -12.8570  -17.1755 C   0  0  0  0  0  0  0  0  0  0  0  0
   15.9267  -12.4747  -16.8893 C   0  0  0  0  0  0  0  0  0  0  0  0
   15.0876  -13.3240  -16.4416 O   0  0  0  0  0  0  0  0  0  0  0  0
   20.5481  -11.3813  -15.7362 C   0  0  0  0  0  0  0  0  0  0  0  0
   20.5991  -11.5728  -14.4996 O   0  0  0  0  0  0  0  0  0  0  0  0
   15.4524  -11.1964  -17.0883 O   0  0  0  0  0  0  0  0  0  0  0  0
   24.0648  -10.9428  -15.4545 C   0  0  0  0  0  0  0  0  0  0  0  0
   23.5791   -9.5866  -15.8798 C   0  0  1  0  0  0  0  0  0  0  0  0
   23.7335   -9.4797  -17.2458 O   0  0  0  0  0  0  0  0  0  0  0  0
   22.1183   -9.4085  -15.4657 C   0  0  2  0  0  0  0  0  0  0  0  0
   21.3315  -10.3186  -16.2609 N   0  0  0  0  0  0  0  0  0  0  0  0
   21.7843   -7.9828  -15.7291 C   0  0  0  0  0  0  0  0  0  0  0  0
   21.5823   -7.6771  -16.9213 O   0  0  0  0  0  0  0  0  0  0  0  0
   19.3873   -5.8523  -13.5509 C   0  0  0  0  0  0  0  0  0  0  0  0
   19.9222   -5.4141  -14.9016 C   0  0  1  0  0  0  0  0  0  0  0  0
   19.7071   -4.0358  -15.0650 O   0  0  0  0  0  0  0  0  0  0  0  0
   21.3964   -5.6369  -15.0283 C   0  0  2  0  0  0  0  0  0  0  0  0
   21.6928   -7.0108  -14.7218 N   0  0  0  0  0  0  0  0  0  0  0  0
   22.0949   -4.7599  -14.0434 C   0  0  0  0  0  0  0  0  0  0  0  0
   22.1993   -3.3809  -14.2859 O   0  0  0  0  0  0  0  0  0  0  0  0
   22.6144   -5.1680  -12.9798 O   0  0  0  0  0  0  0  0  0  0  0  0
  2  1  1  1
  3  2  1  0
  3  4  1  0
  4  5  1  0
  5  9  1  0
  5  6  2  0
  7  8  2  0
  7  2  1  0
 11 10  1  6
 11 13  1  0
 12 11  1  0
 13 14  1  6
 13 15  1  0
 14  7  1  0
 15 21  1  0
 16 15  2  0
 18 20  1  0
 18 19  1  0
 18 17  1  1
 20 22  1  0
 20 21  1  1
 22 24  2  0
 22 23  1  0
M  END
$$$$
