ETT.pdb
     RDKit          3D

 24 23  0  0  1  0  0  0  0  0999 V2000
   19.4566  -13.1376  -15.8793 N   0  0  0  0  0  0  0  0  0  0  0  0
   18.8567  -11.9833  -16.5142 C   0  0  1  0  0  0  0  0  0  0  0  0
   17.3748  -12.1867  -16.7253 C   0  0  0  0  0  0  0  0  0  0  0  0
   17.0576  -13.3299  -17.6307 C   0  0  0  0  0  0  0  0  0  0  0  0
   15.5827  -13.3887  -17.7952 C   0  0  0  0  0  0  0  0  0  0  0  0
   14.9487  -12.4730  -18.4161 O   0  0  0  0  0  0  0  0  0  0  0  0
   19.1531  -10.7932  -15.6915 C   0  0  0  0  0  0  0  0  0  0  0  0
   19.3567  -10.9413  -14.4646 O   0  0  0  0  0  0  0  0  0  0  0  0
   14.8229  -14.4227  -17.2931 O   0  0  0  0  0  0  0  0  0  0  0  0
   21.1985   -9.6767  -14.1910 C   0  0  0  0  0  0  0  0  0  0  0  0
   21.0090   -8.4255  -15.0000 C   0  0  1  0  0  0  0  0  0  0  0  0
   21.8484   -8.4843  -16.0923 O   0  0  0  0  0  0  0  0  0  0  0  0
   19.5455   -8.3021  -15.4243 C   0  0  2  0  0  0  0  0  0  0  0  0
   19.2241   -9.4708  -16.2058 N   0  0  0  0  0  0  0  0  0  0  0  0
   19.4472   -7.0430  -16.2108 C   0  0  0  0  0  0  0  0  0  0  0  0
   19.9403   -7.0708  -17.3561 O   0  0  0  0  0  0  0  0  0  0  0  0
   16.4309   -5.4220  -17.4561 C   0  0  0  0  0  0  0  0  0  0  0  0
   17.2028   -4.3969  -16.6462 C   0  0  1  0  0  0  0  0  0  0  0  0
   16.7190   -4.3823  -15.3276 O   0  0  0  0  0  0  0  0  0  0  0  0
   18.6617   -4.7188  -16.5650 C   0  0  2  0  0  0  0  0  0  0  0  0
   18.8430   -5.8734  -15.7263 N   0  0  0  0  0  0  0  0  0  0  0  0
   19.3699   -3.5580  -15.9497 C   0  0  0  0  0  0  0  0  0  0  0  0
   19.4483   -2.3395  -16.6429 O   0  0  0  0  0  0  0  0  0  0  0  0
   19.9198   -3.5827  -14.8252 O   0  0  0  0  0  0  0  0  0  0  0  0
  2  1  1  1
  3  2  1  0
  3  4  1  0
  4  5  1  0
  5  9  1  0
  5  6  2  0
  7  8  2  0
  7  2  1  0
 11 10  1  6
 11 13  1  0
 12 11  1  0
 13 14  1  6
 13 15  1  0
 14  7  1  0
 15 21  1  0
 16 15  2  0
 18 20  1  0
 18 19  1  0
 18 17  1  6
 20 22  1  0
 20 21  1  1
 22 24  2  0
 22 23  1  0
M  END
$$$$
