ETT.pdb
     RDKit          3D

 24 23  0  0  1  0  0  0  0  0999 V2000
   18.0684  -12.1910  -16.0503 N   0  0  0  0  0  0  0  0  0  0  0  0
   17.9602  -10.7527  -16.1720 C   0  0  1  0  0  0  0  0  0  0  0  0
   16.5790  -10.2761  -15.7882 C   0  0  0  0  0  0  0  0  0  0  0  0
   15.5227  -10.6767  -16.7634 C   0  0  0  0  0  0  0  0  0  0  0  0
   14.2417  -10.0628  -16.3295 C   0  0  0  0  0  0  0  0  0  0  0  0
   14.1365   -8.8042  -16.1542 O   0  0  0  0  0  0  0  0  0  0  0  0
   19.0206  -10.1350  -15.3504 C   0  0  0  0  0  0  0  0  0  0  0  0
   19.5323  -10.8020  -14.4221 O   0  0  0  0  0  0  0  0  0  0  0  0
   13.1068  -10.8078  -16.0939 O   0  0  0  0  0  0  0  0  0  0  0  0
   21.7289  -10.4365  -14.8706 C   0  0  0  0  0  0  0  0  0  0  0  0
   21.8730   -8.9821  -15.2166 C   0  0  1  0  0  0  0  0  0  0  0  0
   22.1146   -8.8805  -16.5703 O   0  0  0  0  0  0  0  0  0  0  0  0
   20.6048   -8.2283  -14.8160 C   0  0  2  0  0  0  0  0  0  0  0  0
   19.5073   -8.8146  -15.5451 N   0  0  0  0  0  0  0  0  0  0  0  0
   20.8373   -6.8044  -15.1792 C   0  0  0  0  0  0  0  0  0  0  0  0
   20.9005   -6.5519  -16.3990 O   0  0  0  0  0  0  0  0  0  0  0  0
   18.6976   -3.9401  -14.7526 C   0  0  0  0  0  0  0  0  0  0  0  0
   20.0197   -3.5943  -14.0931 C   0  0  1  0  0  0  0  0  0  0  0  0
   19.9432   -3.8720  -12.7184 O   0  0  0  0  0  0  0  0  0  0  0  0
   21.1537   -4.4073  -14.6332 C   0  0  2  0  0  0  0  0  0  0  0  0
   20.9820   -5.7785  -14.2336 N   0  0  0  0  0  0  0  0  0  0  0  0
   22.4272   -3.8898  -14.0519 C   0  0  0  0  0  0  0  0  0  0  0  0
   22.8789   -2.6044  -14.3909 O   0  0  0  0  0  0  0  0  0  0  0  0
   23.1520   -4.5314  -13.2579 O   0  0  0  0  0  0  0  0  0  0  0  0
  2  1  1  1
  3  2  1  0
  3  4  1  0
  4  5  1  0
  5  9  1  0
  5  6  2  0
  7  8  2  0
  7  2  1  0
 11 10  1  6
 11 13  1  0
 12 11  1  0
 13 14  1  6
 13 15  1  0
 14  7  1  0
 15 21  1  0
 16 15  2  0
 18 20  1  0
 18 19  1  0
 18 17  1  6
 20 22  1  0
 20 21  1  1
 22 24  2  0
 22 23  1  0
M  END
$$$$
