ETT.pdb
     RDKit          3D

 24 23  0  0  1  0  0  0  0  0999 V2000
   13.9410   -9.8590  -15.7278 N   0  0  0  0  0  0  0  0  0  0  0  0
   15.2507   -9.9952  -15.1266 C   0  0  1  0  0  0  0  0  0  0  0  0
   15.8246  -11.3699  -15.3774 C   0  0  0  0  0  0  0  0  0  0  0  0
   15.1530  -12.4442  -14.5887 C   0  0  0  0  0  0  0  0  0  0  0  0
   15.8054  -13.7355  -14.9249 C   0  0  0  0  0  0  0  0  0  0  0  0
   15.6624  -14.2703  -16.0735 O   0  0  0  0  0  0  0  0  0  0  0  0
   16.1158   -8.9172  -15.6468 C   0  0  0  0  0  0  0  0  0  0  0  0
   15.9343   -8.5069  -16.8160 O   0  0  0  0  0  0  0  0  0  0  0  0
   16.5931  -14.4222  -14.0269 O   0  0  0  0  0  0  0  0  0  0  0  0
   16.0536   -6.1371  -16.5408 C   0  0  0  0  0  0  0  0  0  0  0  0
   17.0462   -5.9717  -15.4258 C   0  0  1  0  0  0  0  0  0  0  0  0
   16.3502   -5.7958  -14.2485 O   0  0  0  0  0  0  0  0  0  0  0  0
   17.9573   -7.1975  -15.3600 C   0  0  2  0  0  0  0  0  0  0  0  0
   17.1566   -8.3046  -14.8985 N   0  0  0  0  0  0  0  0  0  0  0  0
   19.0518   -6.8495  -14.4143 C   0  0  0  0  0  0  0  0  0  0  0  0
   18.7473   -6.8297  -13.2050 O   0  0  0  0  0  0  0  0  0  0  0  0
   22.4756   -8.5517  -13.9509 C   0  0  0  0  0  0  0  0  0  0  0  0
   22.6238   -7.0703  -14.2444 C   0  0  1  0  0  0  0  0  0  0  0  0
   22.8095   -6.8832  -15.6240 O   0  0  0  0  0  0  0  0  0  0  0  0
   21.4038   -6.2912  -13.8656 C   0  0  2  0  0  0  0  0  0  0  0  0
   20.3615   -6.5549  -14.8214 N   0  0  0  0  0  0  0  0  0  0  0  0
   21.7388   -4.8374  -13.9039 C   0  0  0  0  0  0  0  0  0  0  0  0
   22.5520   -4.2808  -12.9038 O   0  0  0  0  0  0  0  0  0  0  0  0
   21.3395   -4.0446  -14.7868 O   0  0  0  0  0  0  0  0  0  0  0  0
  2  1  1  6
  3  2  1  0
  3  4  1  0
  4  5  1  0
  5  9  1  0
  5  6  2  0
  7  8  2  0
  7  2  1  0
 11 10  1  6
 11 13  1  0
 12 11  1  0
 13 14  1  1
 13 15  1  0
 14  7  1  0
 15 21  1  0
 16 15  2  0
 18 20  1  0
 18 19  1  0
 18 17  1  6
 20 22  1  0
 20 21  1  6
 22 24  2  0
 22 23  1  0
M  END
$$$$
