ETT.pdb
     RDKit          3D

 24 23  0  0  1  0  0  0  0  0999 V2000
   18.7424  -12.7366  -16.1710 N   0  0  0  0  0  0  0  0  0  0  0  0
   18.7880  -11.3297  -16.5084 C   0  0  1  0  0  0  0  0  0  0  0  0
   17.3991  -10.7388  -16.5683 C   0  0  0  0  0  0  0  0  0  0  0  0
   16.5647  -11.2993  -17.6714 C   0  0  0  0  0  0  0  0  0  0  0  0
   15.2021  -10.7197  -17.5553 C   0  0  0  0  0  0  0  0  0  0  0  0
   14.2787  -11.0289  -18.3785 O   0  0  0  0  0  0  0  0  0  0  0  0
   19.6531  -10.6439  -15.5275 C   0  0  0  0  0  0  0  0  0  0  0  0
   19.5600  -10.9541  -14.3177 O   0  0  0  0  0  0  0  0  0  0  0  0
   14.8605   -9.8256  -16.5642 O   0  0  0  0  0  0  0  0  0  0  0  0
   22.8075  -11.0175  -14.5557 C   0  0  0  0  0  0  0  0  0  0  0  0
   22.8485   -9.6000  -15.0504 C   0  0  1  0  0  0  0  0  0  0  0  0
   23.2841   -9.6098  -16.3586 O   0  0  0  0  0  0  0  0  0  0  0  0
   21.4610   -8.9701  -14.9268 C   0  0  2  0  0  0  0  0  0  0  0  0
   20.5988   -9.6401  -15.8689 N   0  0  0  0  0  0  0  0  0  0  0  0
   21.6333   -7.5250  -15.2363 C   0  0  0  0  0  0  0  0  0  0  0  0
   21.9577   -7.2492  -16.4086 O   0  0  0  0  0  0  0  0  0  0  0  0
   19.5035   -4.9200  -15.8624 C   0  0  0  0  0  0  0  0  0  0  0  0
   20.3510   -4.4221  -14.7063 C   0  0  1  0  0  0  0  0  0  0  0  0
   19.6857   -4.6758  -13.4956 O   0  0  0  0  0  0  0  0  0  0  0  0
   21.6706   -5.1228  -14.6263 C   0  0  2  0  0  0  0  0  0  0  0  0
   21.4504   -6.5044  -14.2916 N   0  0  0  0  0  0  0  0  0  0  0  0
   22.4806   -4.4866  -13.5463 C   0  0  0  0  0  0  0  0  0  0  0  0
   22.9580   -3.1763  -13.7100 O   0  0  0  0  0  0  0  0  0  0  0  0
   22.7802   -5.0458  -12.4669 O   0  0  0  0  0  0  0  0  0  0  0  0
  2  1  1  1
  3  2  1  0
  3  4  1  0
  4  5  1  0
  5  9  1  0
  5  6  2  0
  7  8  2  0
  7  2  1  0
 11 10  1  6
 11 13  1  0
 12 11  1  0
 13 14  1  6
 13 15  1  0
 14  7  1  0
 15 21  1  0
 16 15  2  0
 18 20  1  0
 18 19  1  0
 18 17  1  6
 20 22  1  0
 20 21  1  1
 22 24  2  0
 22 23  1  0
M  END
$$$$
