ETT.pdb
     RDKit          3D

 24 23  0  0  1  0  0  0  0  0999 V2000
   14.2396   -9.4173  -16.1758 N   0  0  0  0  0  0  0  0  0  0  0  0
   15.4700   -9.4616  -15.4146 C   0  0  1  0  0  0  0  0  0  0  0  0
   16.1208  -10.8215  -15.5102 C   0  0  0  0  0  0  0  0  0  0  0  0
   15.3683  -11.8896  -14.7888 C   0  0  0  0  0  0  0  0  0  0  0  0
   16.0558  -13.1824  -15.0376 C   0  0  0  0  0  0  0  0  0  0  0  0
   15.9087  -14.1732  -14.2485 O   0  0  0  0  0  0  0  0  0  0  0  0
   16.3518   -8.3774  -15.8918 C   0  0  0  0  0  0  0  0  0  0  0  0
   16.2766   -8.0194  -17.0896 O   0  0  0  0  0  0  0  0  0  0  0  0
   16.8821  -13.3843  -16.1216 O   0  0  0  0  0  0  0  0  0  0  0  0
   16.1931   -5.5780  -16.7542 C   0  0  0  0  0  0  0  0  0  0  0  0
   17.1309   -5.3726  -15.5992 C   0  0  1  0  0  0  0  0  0  0  0  0
   16.3798   -5.2145  -14.4538 O   0  0  0  0  0  0  0  0  0  0  0  0
   18.0797   -6.5661  -15.4864 C   0  0  2  0  0  0  0  0  0  0  0  0
   17.2946   -7.7022  -15.0710 N   0  0  0  0  0  0  0  0  0  0  0  0
   19.1086   -6.1835  -14.4821 C   0  0  0  0  0  0  0  0  0  0  0  0
   18.7393   -6.1814  -13.2908 O   0  0  0  0  0  0  0  0  0  0  0  0
   22.3131   -7.8561  -13.5714 C   0  0  0  0  0  0  0  0  0  0  0  0
   22.5926   -6.4252  -13.9923 C   0  0  1  0  0  0  0  0  0  0  0  0
   22.9099   -6.3937  -15.3602 O   0  0  0  0  0  0  0  0  0  0  0  0
   21.4039   -5.5359  -13.8064 C   0  0  2  0  0  0  0  0  0  0  0  0
   20.4264   -5.8392  -14.8173 N   0  0  0  0  0  0  0  0  0  0  0  0
   21.8423   -4.1184  -13.9672 C   0  0  0  0  0  0  0  0  0  0  0  0
   22.7104   -3.5439  -13.0250 O   0  0  0  0  0  0  0  0  0  0  0  0
   21.4866   -3.3725  -14.9078 O   0  0  0  0  0  0  0  0  0  0  0  0
  2  1  1  6
  3  2  1  0
  3  4  1  0
  4  5  1  0
  5  9  1  0
  5  6  2  0
  7  8  2  0
  7  2  1  0
 11 10  1  6
 11 13  1  0
 12 11  1  0
 13 14  1  1
 13 15  1  0
 14  7  1  0
 15 21  1  0
 16 15  2  0
 18 20  1  0
 18 19  1  0
 18 17  1  6
 20 22  1  0
 20 21  1  6
 22 24  2  0
 22 23  1  0
M  END
$$$$
