SVD.pdb
     RDKit          3D

 22 21  0  0  1  0  0  0  0  0999 V2000
    6.7345  -16.8569   20.4431 O   0  0  0  0  0  0  0  0  0  0  0  0
    6.5482  -16.3383   21.6988 C   0  0  0  0  0  0  0  0  0  0  0  0
    6.7119  -14.8381   21.7363 C   0  0  2  0  0  0  0  0  0  0  0  0
    7.3902  -14.4584   20.4949 N   0  0  0  0  0  0  0  0  0  0  0  0
    7.6215  -14.3922   22.8468 C   0  0  0  0  0  0  0  0  0  0  0  0
    8.8510  -14.1989   22.6849 O   0  0  0  0  0  0  0  0  0  0  0  0
    6.4574  -12.0176   25.8452 C   0  0  0  0  0  0  0  0  0  0  0  0
    7.1382  -13.2470   26.3927 C   0  0  2  0  0  0  0  0  0  0  0  0
    7.9578  -12.9487   27.6250 C   0  0  0  0  0  0  0  0  0  0  0  0
    7.9590  -13.9043   25.3031 C   0  0  2  0  0  0  0  0  0  0  0  0
    7.1156  -14.1649   24.1598 N   0  0  0  0  0  0  0  0  0  0  0  0
    8.5403  -15.1490   25.8665 C   0  0  0  0  0  0  0  0  0  0  0  0
    7.7503  -16.0871   26.1431 O   0  0  0  0  0  0  0  0  0  0  0  0
    9.9328  -15.3113   26.0984 N   0  0  0  0  0  0  0  0  0  0  0  0
   10.4450  -16.5342   26.6777 C   0  0  1  0  0  0  0  0  0  0  0  0
   11.8527  -16.8252   26.2085 C   0  0  0  0  0  0  0  0  0  0  0  0
   11.8240  -16.9221   24.7335 C   0  0  0  0  0  0  0  0  0  0  0  0
   10.8758  -17.5640   24.1704 O   0  0  0  0  0  0  0  0  0  0  0  0
   10.3933  -16.4814   28.1702 C   0  0  0  0  0  0  0  0  0  0  0  0
   10.3444  -15.3585   28.7307 O   0  0  0  0  0  0  0  0  0  0  0  0
   12.8041  -16.3331   23.9647 O   0  0  0  0  0  0  0  0  0  0  0  0
   10.3989  -17.6209   28.9450 O   0  0  0  0  0  0  0  0  0  0  0  0
  1  2  1  0
  3  2  1  0
  3  4  1  6
  5  6  2  0
  5  3  1  0
  8  7  1  6
  8 10  1  0
  9  8  1  0
 10 11  1  6
 11  5  1  0
 12 10  1  0
 12 14  1  0
 13 12  2  0
 15 14  1  0
 15 19  1  0
 16 17  1  0
 15 16  1  1
 17 21  1  0
 18 17  2  0
 19 20  2  0
 19 22  1  0
M  END
$$$$
