SVD.pdb
     RDKit          3D

 22 21  0  0  1  0  0  0  0  0999 V2000
    8.4231  -19.1395   18.3858 O   0  0  0  0  0  0  0  0  0  0  0  0
    7.3837  -18.5946   17.6763 C   0  0  0  0  0  0  0  0  0  0  0  0
    7.7130  -17.2296   17.1224 C   0  0  2  0  0  0  0  0  0  0  0  0
    8.6056  -17.4434   15.9811 N   0  0  0  0  0  0  0  0  0  0  0  0
    8.4951  -16.3935   18.0964 C   0  0  0  0  0  0  0  0  0  0  0  0
    9.7448  -16.2853   18.0522 O   0  0  0  0  0  0  0  0  0  0  0  0
    7.0954  -13.0297   19.9720 C   0  0  0  0  0  0  0  0  0  0  0  0
    7.5896  -14.0811   20.9337 C   0  0  2  0  0  0  0  0  0  0  0  0
    8.2082  -13.4804   22.1730 C   0  0  0  0  0  0  0  0  0  0  0  0
    8.5359  -15.0226   20.2188 C   0  0  2  0  0  0  0  0  0  0  0  0
    7.8368  -15.6720   19.1345 N   0  0  0  0  0  0  0  0  0  0  0  0
    9.0451  -15.9943   21.2195 C   0  0  0  0  0  0  0  0  0  0  0  0
    8.2473  -16.8716   21.6372 O   0  0  0  0  0  0  0  0  0  0  0  0
   10.3783  -15.9657   21.7103 N   0  0  0  0  0  0  0  0  0  0  0  0
   10.8237  -16.9349   22.6879 C   0  0  1  0  0  0  0  0  0  0  0  0
   12.1328  -17.5735   22.2818 C   0  0  0  0  0  0  0  0  0  0  0  0
   11.8215  -18.8705   21.6438 C   0  0  0  0  0  0  0  0  0  0  0  0
   10.6046  -19.2437   21.5545 O   0  0  0  0  0  0  0  0  0  0  0  0
   10.9449  -16.3125   24.0411 C   0  0  0  0  0  0  0  0  0  0  0  0
   11.3728  -15.1346   24.1249 O   0  0  0  0  0  0  0  0  0  0  0  0
   12.8237  -19.6767   21.1500 O   0  0  0  0  0  0  0  0  0  0  0  0
   10.6044  -16.9886   25.1925 O   0  0  0  0  0  0  0  0  0  0  0  0
  1  2  1  0
  3  2  1  0
  3  4  1  6
  5  6  2  0
  5  3  1  0
  8  7  1  6
  8 10  1  0
  9  8  1  0
 10 11  1  6
 11  5  1  0
 12 10  1  0
 12 14  1  0
 13 12  2  0
 15 14  1  0
 15 19  1  0
 16 17  1  0
 15 16  1  6
 17 21  1  0
 18 17  2  0
 19 20  2  0
 19 22  1  0
M  END
$$$$
