SVD.pdb
     RDKit          3D

 22 21  0  0  1  0  0  0  0  0999 V2000
    8.2522  -19.2882   18.5521 O   0  0  0  0  0  0  0  0  0  0  0  0
    7.4230  -18.5514   17.7458 C   0  0  0  0  0  0  0  0  0  0  0  0
    8.0723  -17.2804   17.2541 C   0  0  2  0  0  0  0  0  0  0  0  0
    9.1576  -17.6831   16.3567 N   0  0  0  0  0  0  0  0  0  0  0  0
    8.7306  -16.5109   18.3649 C   0  0  0  0  0  0  0  0  0  0  0  0
    9.9649  -16.5568   18.5879 O   0  0  0  0  0  0  0  0  0  0  0  0
    7.2011  -12.9996   19.7079 C   0  0  0  0  0  0  0  0  0  0  0  0
    7.5446  -13.9305   20.8437 C   0  0  2  0  0  0  0  0  0  0  0  0
    8.0467  -13.1909   22.0603 C   0  0  0  0  0  0  0  0  0  0  0  0
    8.5255  -14.9800   20.3649 C   0  0  2  0  0  0  0  0  0  0  0  0
    7.9646  -15.6779   19.2314 N   0  0  0  0  0  0  0  0  0  0  0  0
    8.8011  -15.8914   21.5043 C   0  0  0  0  0  0  0  0  0  0  0  0
    7.9941  -16.8346   21.7035 O   0  0  0  0  0  0  0  0  0  0  0  0
    9.9251  -15.7354   22.3596 N   0  0  0  0  0  0  0  0  0  0  0  0
   10.4471  -16.8623   23.1020 C   0  0  1  0  0  0  0  0  0  0  0  0
   10.8725  -17.9851   22.1829 C   0  0  0  0  0  0  0  0  0  0  0  0
   11.4199  -19.0713   23.0235 C   0  0  0  0  0  0  0  0  0  0  0  0
   10.6709  -19.6167   23.9008 O   0  0  0  0  0  0  0  0  0  0  0  0
   11.5845  -16.4454   23.9770 C   0  0  0  0  0  0  0  0  0  0  0  0
   12.0986  -17.2987   24.7419 O   0  0  0  0  0  0  0  0  0  0  0  0
   12.7216  -19.4970   22.8734 O   0  0  0  0  0  0  0  0  0  0  0  0
   12.0822  -15.1605   23.9704 O   0  0  0  0  0  0  0  0  0  0  0  0
  1  2  1  0
  3  2  1  0
  3  4  1  6
  5  6  2  0
  5  3  1  0
  8  7  1  6
  8 10  1  0
  9  8  1  0
 10 11  1  6
 11  5  1  0
 12 10  1  0
 12 14  1  0
 13 12  2  0
 15 14  1  0
 15 19  1  0
 16 17  1  0
 15 16  1  6
 17 21  1  0
 18 17  2  0
 19 20  2  0
 19 22  1  0
M  END
$$$$
