SVD.pdb
     RDKit          3D

 22 21  0  0  1  0  0  0  0  0999 V2000
    6.3610  -19.0813   17.0668 O   0  0  0  0  0  0  0  0  0  0  0  0
    7.1323  -18.4675   18.0202 C   0  0  0  0  0  0  0  0  0  0  0  0
    7.7515  -17.1828   17.5255 C   0  0  2  0  0  0  0  0  0  0  0  0
    8.7626  -17.5581   16.5345 N   0  0  0  0  0  0  0  0  0  0  0  0
    8.4977  -16.4562   18.6093 C   0  0  0  0  0  0  0  0  0  0  0  0
    9.7421  -16.5369   18.7521 O   0  0  0  0  0  0  0  0  0  0  0  0
    7.5229  -12.8573   19.8791 C   0  0  0  0  0  0  0  0  0  0  0  0
    7.6750  -13.7654   21.0736 C   0  0  2  0  0  0  0  0  0  0  0  0
    8.2922  -13.0593   22.2567 C   0  0  0  0  0  0  0  0  0  0  0  0
    8.4493  -15.0049   20.6774 C   0  0  2  0  0  0  0  0  0  0  0  0
    7.8092  -15.6265   19.5415 N   0  0  0  0  0  0  0  0  0  0  0  0
    8.4934  -15.9044   21.8579 C   0  0  0  0  0  0  0  0  0  0  0  0
    7.7062  -15.6585   22.8068 O   0  0  0  0  0  0  0  0  0  0  0  0
    9.3787  -17.0123   21.9481 N   0  0  0  0  0  0  0  0  0  0  0  0
   10.5469  -16.9535   22.7999 C   0  0  1  0  0  0  0  0  0  0  0  0
   11.4665  -15.8198   22.4056 C   0  0  0  0  0  0  0  0  0  0  0  0
   12.8093  -16.1214   22.9460 C   0  0  0  0  0  0  0  0  0  0  0  0
   12.9202  -16.5084   24.1567 O   0  0  0  0  0  0  0  0  0  0  0  0
   10.1551  -16.8313   24.2368 C   0  0  0  0  0  0  0  0  0  0  0  0
    9.8259  -15.7017   24.6763 O   0  0  0  0  0  0  0  0  0  0  0  0
   13.9352  -15.9881   22.1631 O   0  0  0  0  0  0  0  0  0  0  0  0
   10.1455  -17.9141   25.0890 O   0  0  0  0  0  0  0  0  0  0  0  0
  1  2  1  0
  3  2  1  0
  3  4  1  6
  5  6  2  0
  5  3  1  0
  8  7  1  6
  8 10  1  0
  9  8  1  0
 10 11  1  6
 11  5  1  0
 12 10  1  0
 12 14  1  0
 13 12  2  0
 15 14  1  0
 15 19  1  0
 16 17  1  0
 15 16  1  6
 17 21  1  0
 18 17  2  0
 19 20  2  0
 19 22  1  0
M  END
$$$$
