SVD.pdb
     RDKit          3D

 22 21  0  0  1  0  0  0  0  0999 V2000
    6.3973  -19.9569   17.5796 O   0  0  0  0  0  0  0  0  0  0  0  0
    6.5988  -18.9410   18.4785 C   0  0  0  0  0  0  0  0  0  0  0  0
    6.8049  -17.6051   17.8065 C   0  0  2  0  0  0  0  0  0  0  0  0
    7.4148  -17.8800   16.5036 N   0  0  0  0  0  0  0  0  0  0  0  0
    7.7933  -16.7443   18.5422 C   0  0  0  0  0  0  0  0  0  0  0  0
    9.0295  -16.7926   18.3307 O   0  0  0  0  0  0  0  0  0  0  0  0
    6.8017  -13.0960   19.9118 C   0  0  0  0  0  0  0  0  0  0  0  0
    7.5113  -13.8895   20.9803 C   0  0  2  0  0  0  0  0  0  0  0  0
    8.4021  -13.0258   21.8405 C   0  0  0  0  0  0  0  0  0  0  0  0
    8.2659  -15.0390   20.3462 C   0  0  2  0  0  0  0  0  0  0  0  0
    7.3596  -15.8160   19.5330 N   0  0  0  0  0  0  0  0  0  0  0  0
    8.8655  -15.8424   21.4416 C   0  0  0  0  0  0  0  0  0  0  0  0
    8.1172  -16.6513   22.0469 O   0  0  0  0  0  0  0  0  0  0  0  0
   10.2304  -15.7290   21.8204 N   0  0  0  0  0  0  0  0  0  0  0  0
   10.8336  -16.7062   22.7006 C   0  0  1  0  0  0  0  0  0  0  0  0
   11.2067  -17.9691   21.9574 C   0  0  0  0  0  0  0  0  0  0  0  0
   11.0248  -19.1066   22.8843 C   0  0  0  0  0  0  0  0  0  0  0  0
   10.6796  -18.8768   24.0910 O   0  0  0  0  0  0  0  0  0  0  0  0
   12.0289  -16.1363   23.3930 C   0  0  0  0  0  0  0  0  0  0  0  0
   12.9150  -15.5771   22.7005 O   0  0  0  0  0  0  0  0  0  0  0  0
   11.2246  -20.4033   22.4637 O   0  0  0  0  0  0  0  0  0  0  0  0
   12.1875  -16.2066   24.7600 O   0  0  0  0  0  0  0  0  0  0  0  0
  1  2  1  0
  3  2  1  0
  3  4  1  6
  5  6  2  0
  5  3  1  0
  8  7  1  6
  8 10  1  0
  9  8  1  0
 10 11  1  1
 11  5  1  0
 12 10  1  0
 12 14  1  0
 13 12  2  0
 15 14  1  0
 15 19  1  0
 16 17  1  0
 15 16  1  6
 17 21  1  0
 18 17  2  0
 19 20  2  0
 19 22  1  0
M  END
$$$$
