SVD.pdb
     RDKit          3D

 22 21  0  0  1  0  0  0  0  0999 V2000
    7.8573  -19.3008   18.1444 O   0  0  0  0  0  0  0  0  0  0  0  0
    6.9332  -18.4105   17.6607 C   0  0  0  0  0  0  0  0  0  0  0  0
    7.5663  -17.1404   17.1462 C   0  0  2  0  0  0  0  0  0  0  0  0
    8.5488  -17.5401   16.1362 N   0  0  0  0  0  0  0  0  0  0  0  0
    8.3489  -16.4229   18.2102 C   0  0  0  0  0  0  0  0  0  0  0  0
    9.5996  -16.4849   18.2951 O   0  0  0  0  0  0  0  0  0  0  0  0
    7.0487  -12.9101   19.8017 C   0  0  0  0  0  0  0  0  0  0  0  0
    7.4678  -13.8973   20.8621 C   0  0  2  0  0  0  0  0  0  0  0  0
    8.0857  -13.2222   22.0629 C   0  0  0  0  0  0  0  0  0  0  0  0
    8.3834  -14.9399   20.2559 C   0  0  2  0  0  0  0  0  0  0  0  0
    7.6899  -15.6241   19.1895 N   0  0  0  0  0  0  0  0  0  0  0  0
    8.7934  -15.8652   21.3424 C   0  0  0  0  0  0  0  0  0  0  0  0
    8.0167  -16.8129   21.6238 O   0  0  0  0  0  0  0  0  0  0  0  0
   10.0109  -15.7174   22.0601 N   0  0  0  0  0  0  0  0  0  0  0  0
   10.5003  -16.7838   22.9067 C   0  0  1  0  0  0  0  0  0  0  0  0
   11.6937  -17.4794   22.2915 C   0  0  0  0  0  0  0  0  0  0  0  0
   12.0961  -18.5722   23.2025 C   0  0  0  0  0  0  0  0  0  0  0  0
   11.2944  -18.9408   24.1242 O   0  0  0  0  0  0  0  0  0  0  0  0
   10.8405  -16.2717   24.2687 C   0  0  0  0  0  0  0  0  0  0  0  0
   11.2238  -17.0906   25.1405 O   0  0  0  0  0  0  0  0  0  0  0  0
   13.3197  -19.1916   23.0703 O   0  0  0  0  0  0  0  0  0  0  0  0
   10.7455  -14.9363   24.5950 O   0  0  0  0  0  0  0  0  0  0  0  0
  1  2  1  0
  3  2  1  0
  3  4  1  6
  5  6  2  0
  5  3  1  0
  8  7  1  6
  8 10  1  0
  9  8  1  0
 10 11  1  6
 11  5  1  0
 12 10  1  0
 12 14  1  0
 13 12  2  0
 15 14  1  0
 15 19  1  0
 16 17  1  0
 15 16  1  6
 17 21  1  0
 18 17  2  0
 19 20  2  0
 19 22  1  0
M  END
$$$$
