SVD.pdb
     RDKit          3D

 22 21  0  0  1  0  0  0  0  0999 V2000
    6.6652  -16.9073   20.4690 O   0  0  0  0  0  0  0  0  0  0  0  0
    6.3321  -16.2016   21.5967 C   0  0  0  0  0  0  0  0  0  0  0  0
    6.7237  -14.7465   21.5064 C   0  0  2  0  0  0  0  0  0  0  0  0
    7.4574  -14.5862   20.2490 N   0  0  0  0  0  0  0  0  0  0  0  0
    7.6861  -14.3476   22.5899 C   0  0  0  0  0  0  0  0  0  0  0  0
    8.9311  -14.4481   22.4668 O   0  0  0  0  0  0  0  0  0  0  0  0
    8.2326  -12.3713   27.1241 C   0  0  0  0  0  0  0  0  0  0  0  0
    7.3299  -12.6953   25.9602 C   0  0  2  0  0  0  0  0  0  0  0  0
    6.0379  -13.3419   26.3985 C   0  0  0  0  0  0  0  0  0  0  0  0
    8.0803  -13.5391   24.9514 C   0  0  2  0  0  0  0  0  0  0  0  0
    7.2158  -13.8270   23.8305 N   0  0  0  0  0  0  0  0  0  0  0  0
    8.5309  -14.7732   25.6433 C   0  0  0  0  0  0  0  0  0  0  0  0
    7.6696  -15.6602   25.8715 O   0  0  0  0  0  0  0  0  0  0  0  0
    9.8773  -14.9802   26.0478 N   0  0  0  0  0  0  0  0  0  0  0  0
   10.2629  -16.1985   26.7266 C   0  0  1  0  0  0  0  0  0  0  0  0
   11.6532  -16.6407   26.3293 C   0  0  0  0  0  0  0  0  0  0  0  0
   11.6070  -17.0466   24.9083 C   0  0  0  0  0  0  0  0  0  0  0  0
   10.5451  -17.5847   24.4492 O   0  0  0  0  0  0  0  0  0  0  0  0
   10.1712  -16.0363   28.2093 C   0  0  0  0  0  0  0  0  0  0  0  0
   10.1481  -17.0670   28.9266 O   0  0  0  0  0  0  0  0  0  0  0  0
   12.6910  -16.8538   24.0799 O   0  0  0  0  0  0  0  0  0  0  0  0
   10.1105  -14.7972   28.8092 O   0  0  0  0  0  0  0  0  0  0  0  0
  1  2  1  0
  3  2  1  0
  3  4  1  6
  5  6  2  0
  5  3  1  0
  8  7  1  1
  8 10  1  0
  9  8  1  0
 10 11  1  6
 11  5  1  0
 12 10  1  0
 12 14  1  0
 13 12  2  0
 15 14  1  0
 15 19  1  0
 16 17  1  0
 15 16  1  1
 17 21  1  0
 18 17  2  0
 19 20  2  0
 19 22  1  0
M  END
$$$$
