SVD.pdb
     RDKit          3D

 22 21  0  0  1  0  0  0  0  0999 V2000
    7.2896  -16.5027   21.3962 O   0  0  0  0  0  0  0  0  0  0  0  0
    6.2765  -15.5993   21.2010 C   0  0  0  0  0  0  0  0  0  0  0  0
    6.7355  -14.1703   21.3618 C   0  0  2  0  0  0  0  0  0  0  0  0
    7.6038  -13.8769   20.2193 N   0  0  0  0  0  0  0  0  0  0  0  0
    7.5941  -13.9819   22.5811 C   0  0  0  0  0  0  0  0  0  0  0  0
    8.8484  -13.9754   22.5374 O   0  0  0  0  0  0  0  0  0  0  0  0
    6.2992  -11.8098   25.7655 C   0  0  0  0  0  0  0  0  0  0  0  0
    6.8902  -13.1325   26.1849 C   0  0  2  0  0  0  0  0  0  0  0  0
    7.6114  -13.0452   27.5084 C   0  0  0  0  0  0  0  0  0  0  0  0
    7.7787  -13.6676   25.0817 C   0  0  2  0  0  0  0  0  0  0  0  0
    7.0078  -13.7985   23.8672 N   0  0  0  0  0  0  0  0  0  0  0  0
    8.3299  -14.9684   25.5388 C   0  0  0  0  0  0  0  0  0  0  0  0
    7.5498  -15.9539   25.5657 O   0  0  0  0  0  0  0  0  0  0  0  0
    9.6836  -15.1322   25.9388 N   0  0  0  0  0  0  0  0  0  0  0  0
   10.1882  -16.4360   26.3117 C   0  0  1  0  0  0  0  0  0  0  0  0
   11.5750  -16.6749   25.7584 C   0  0  0  0  0  0  0  0  0  0  0  0
   11.6904  -18.1143   25.4407 C   0  0  0  0  0  0  0  0  0  0  0  0
   10.8802  -18.9380   25.9821 O   0  0  0  0  0  0  0  0  0  0  0  0
   10.1826  -16.6069   27.7962 C   0  0  0  0  0  0  0  0  0  0  0  0
    9.9795  -17.7527   28.2688 O   0  0  0  0  0  0  0  0  0  0  0  0
   12.6580  -18.5740   24.5741 O   0  0  0  0  0  0  0  0  0  0  0  0
   10.3913  -15.5511   28.6568 O   0  0  0  0  0  0  0  0  0  0  0  0
  1  2  1  0
  3  2  1  0
  3  4  1  6
  5  6  2  0
  5  3  1  0
  8  7  1  6
  8 10  1  0
  9  8  1  0
 10 11  1  6
 11  5  1  0
 12 10  1  0
 12 14  1  0
 13 12  2  0
 15 14  1  0
 15 19  1  0
 16 17  1  0
 15 16  1  1
 17 21  1  0
 18 17  2  0
 19 20  2  0
 19 22  1  0
M  END
$$$$
