SVD.pdb
     RDKit          3D

 22 21  0  0  1  0  0  0  0  0999 V2000
    7.6746  -19.3281   18.4605 O   0  0  0  0  0  0  0  0  0  0  0  0
    6.7752  -18.5245   17.8080 C   0  0  0  0  0  0  0  0  0  0  0  0
    7.4169  -17.2857   17.2315 C   0  0  2  0  0  0  0  0  0  0  0  0
    8.3524  -17.7387   16.1996 N   0  0  0  0  0  0  0  0  0  0  0  0
    8.2540  -16.5546   18.2435 C   0  0  0  0  0  0  0  0  0  0  0  0
    9.4916  -16.7293   18.3586 O   0  0  0  0  0  0  0  0  0  0  0  0
    7.1769  -12.8814   19.6163 C   0  0  0  0  0  0  0  0  0  0  0  0
    7.5673  -13.8094   20.7392 C   0  0  2  0  0  0  0  0  0  0  0  0
    8.2638  -13.0857   21.8663 C   0  0  0  0  0  0  0  0  0  0  0  0
    8.3967  -14.9522   20.1922 C   0  0  2  0  0  0  0  0  0  0  0  0
    7.6654  -15.6112   19.1351 N   0  0  0  0  0  0  0  0  0  0  0  0
    8.6994  -15.8689   21.3204 C   0  0  0  0  0  0  0  0  0  0  0  0
    8.0145  -16.9187   21.4173 O   0  0  0  0  0  0  0  0  0  0  0  0
    9.7179  -15.6034   22.2751 N   0  0  0  0  0  0  0  0  0  0  0  0
   10.4437  -16.6890   22.8982 C   0  0  1  0  0  0  0  0  0  0  0  0
   11.1245  -17.5651   21.8708 C   0  0  0  0  0  0  0  0  0  0  0  0
   10.8036  -18.9714   22.1957 C   0  0  0  0  0  0  0  0  0  0  0  0
   10.1307  -19.2288   23.2487 O   0  0  0  0  0  0  0  0  0  0  0  0
   11.4403  -16.1699   23.8833 C   0  0  0  0  0  0  0  0  0  0  0  0
   12.3524  -15.4106   23.4723 O   0  0  0  0  0  0  0  0  0  0  0  0
   11.2220  -20.0007   21.3810 O   0  0  0  0  0  0  0  0  0  0  0  0
   11.3893  -16.4985   25.2205 O   0  0  0  0  0  0  0  0  0  0  0  0
  1  2  1  0
  3  2  1  0
  3  4  1  6
  5  6  2  0
  5  3  1  0
  8  7  1  6
  8 10  1  0
  9  8  1  0
 10 11  1  6
 11  5  1  0
 12 10  1  0
 12 14  1  0
 13 12  2  0
 15 14  1  0
 15 19  1  0
 16 17  1  0
 15 16  1  6
 17 21  1  0
 18 17  2  0
 19 20  2  0
 19 22  1  0
M  END
$$$$
