SVD.pdb
     RDKit          3D

 22 21  0  0  1  0  0  0  0  0999 V2000
    7.7766  -18.5502   18.3797 O   0  0  0  0  0  0  0  0  0  0  0  0
    7.9773  -17.9966   17.1412 C   0  0  0  0  0  0  0  0  0  0  0  0
    7.6155  -16.5317   17.0958 C   0  0  2  0  0  0  0  0  0  0  0  0
    7.9423  -16.0599   15.7483 N   0  0  0  0  0  0  0  0  0  0  0  0
    8.4588  -15.7079   18.0283 C   0  0  0  0  0  0  0  0  0  0  0  0
    9.0854  -14.6856   17.6574 O   0  0  0  0  0  0  0  0  0  0  0  0
    7.6285  -13.2359   19.3192 C   0  0  0  0  0  0  0  0  0  0  0  0
    7.6125  -14.1517   20.5173 C   0  0  2  0  0  0  0  0  0  0  0  0
    7.5531  -13.3915   21.8204 C   0  0  0  0  0  0  0  0  0  0  0  0
    8.7966  -15.0935   20.4561 C   0  0  2  0  0  0  0  0  0  0  0  0
    8.5857  -16.0600   19.4036 N   0  0  0  0  0  0  0  0  0  0  0  0
    8.9305  -15.7354   21.7883 C   0  0  0  0  0  0  0  0  0  0  0  0
    7.9915  -16.4771   22.1740 O   0  0  0  0  0  0  0  0  0  0  0  0
   10.0630  -15.5426   22.6247 N   0  0  0  0  0  0  0  0  0  0  0  0
   10.2913  -16.4041   23.7645 C   0  0  1  0  0  0  0  0  0  0  0  0
   11.7366  -16.3691   24.2078 C   0  0  0  0  0  0  0  0  0  0  0  0
   12.5685  -16.7959   23.0624 C   0  0  0  0  0  0  0  0  0  0  0  0
   12.4753  -17.9957   22.6386 O   0  0  0  0  0  0  0  0  0  0  0  0
    9.3892  -16.0402   24.8989 C   0  0  0  0  0  0  0  0  0  0  0  0
    8.9228  -14.8750   24.9462 O   0  0  0  0  0  0  0  0  0  0  0  0
   13.4394  -15.9193   22.4528 O   0  0  0  0  0  0  0  0  0  0  0  0
    9.0568  -16.9391   25.8891 O   0  0  0  0  0  0  0  0  0  0  0  0
  1  2  1  0
  3  2  1  0
  3  4  1  6
  5  6  2  0
  5  3  1  0
  8  7  1  6
  8 10  1  0
  9  8  1  0
 10 11  1  6
 11  5  1  0
 12 10  1  0
 12 14  1  0
 13 12  2  0
 15 14  1  0
 15 19  1  0
 16 17  1  0
 15 16  1  1
 17 21  1  0
 18 17  2  0
 19 20  2  0
 19 22  1  0
M  END
$$$$
