SVD.pdb
     RDKit          3D

 22 21  0  0  1  0  0  0  0  0999 V2000
    7.8594  -18.6358   15.6069 O   0  0  0  0  0  0  0  0  0  0  0  0
    8.2234  -18.0631   16.7986 C   0  0  0  0  0  0  0  0  0  0  0  0
    8.4773  -16.5802   16.6751 C   0  0  2  0  0  0  0  0  0  0  0  0
    9.5298  -16.4166   15.6696 N   0  0  0  0  0  0  0  0  0  0  0  0
    9.0325  -15.9903   17.9413 C   0  0  0  0  0  0  0  0  0  0  0  0
   10.2537  -16.0207   18.2294 O   0  0  0  0  0  0  0  0  0  0  0  0
    7.4176  -12.7992   19.7839 C   0  0  0  0  0  0  0  0  0  0  0  0
    7.6199  -13.9330   20.7577 C   0  0  2  0  0  0  0  0  0  0  0  0
    8.0105  -13.4462   22.1325 C   0  0  0  0  0  0  0  0  0  0  0  0
    8.6206  -14.9190   20.1926 C   0  0  2  0  0  0  0  0  0  0  0  0
    8.1772  -15.3574   18.8896 N   0  0  0  0  0  0  0  0  0  0  0  0
    8.7352  -16.0448   21.1540 C   0  0  0  0  0  0  0  0  0  0  0  0
    8.1298  -17.1111   20.8764 O   0  0  0  0  0  0  0  0  0  0  0  0
    9.4920  -15.9579   22.3536 N   0  0  0  0  0  0  0  0  0  0  0  0
   10.1758  -17.1200   22.8782 C   0  0  1  0  0  0  0  0  0  0  0  0
   11.0794  -17.7490   21.8416 C   0  0  0  0  0  0  0  0  0  0  0  0
   11.7354  -18.9174   22.4666 C   0  0  0  0  0  0  0  0  0  0  0  0
   11.0257  -19.9223   22.8050 O   0  0  0  0  0  0  0  0  0  0  0  0
   10.9536  -16.7736   24.1063 C   0  0  0  0  0  0  0  0  0  0  0  0
   11.6109  -15.7035   24.1197 O   0  0  0  0  0  0  0  0  0  0  0  0
   13.0952  -18.9327   22.6885 O   0  0  0  0  0  0  0  0  0  0  0  0
   10.9718  -17.5888   25.2171 O   0  0  0  0  0  0  0  0  0  0  0  0
  1  2  1  0
  3  2  1  0
  3  4  1  6
  5  6  2  0
  5  3  1  0
  8  7  1  6
  8 10  1  0
  9  8  1  0
 10 11  1  6
 11  5  1  0
 12 10  1  0
 12 14  1  0
 13 12  2  0
 15 14  1  0
 15 19  1  0
 16 17  1  0
 15 16  1  6
 17 21  1  0
 18 17  2  0
 19 20  2  0
 19 22  1  0
M  END
$$$$
