SVD.pdb
     RDKit          3D

 22 21  0  0  1  0  0  0  0  0999 V2000
    6.5525  -19.4128   24.5789 O   0  0  0  0  0  0  0  0  0  0  0  0
    5.7825  -19.9108   23.5592 C   0  0  0  0  0  0  0  0  0  0  0  0
    5.2424  -18.8267   22.6583 C   0  0  2  0  0  0  0  0  0  0  0  0
    4.5557  -19.5013   21.5544 N   0  0  0  0  0  0  0  0  0  0  0  0
    6.3375  -18.0189   22.0200 C   0  0  0  0  0  0  0  0  0  0  0  0
    6.9448  -18.3905   20.9863 O   0  0  0  0  0  0  0  0  0  0  0  0
    6.4775  -14.3012   21.1374 C   0  0  0  0  0  0  0  0  0  0  0  0
    7.6069  -14.5649   22.1016 C   0  0  2  0  0  0  0  0  0  0  0  0
    8.8297  -13.7343   21.7946 C   0  0  0  0  0  0  0  0  0  0  0  0
    7.9139  -16.0473   22.1352 C   0  0  2  0  0  0  0  0  0  0  0  0
    6.7420  -16.7692   22.5732 N   0  0  0  0  0  0  0  0  0  0  0  0
    9.0688  -16.2471   23.0469 C   0  0  0  0  0  0  0  0  0  0  0  0
    8.9471  -15.8548   24.2351 O   0  0  0  0  0  0  0  0  0  0  0  0
   10.2830  -16.8554   22.6283 N   0  0  0  0  0  0  0  0  0  0  0  0
   11.4291  -16.8942   23.5106 C   0  0  1  0  0  0  0  0  0  0  0  0
   11.9394  -18.3053   23.6980 C   0  0  0  0  0  0  0  0  0  0  0  0
   10.9570  -19.0318   24.5306 C   0  0  0  0  0  0  0  0  0  0  0  0
   10.6009  -18.5337   25.6501 O   0  0  0  0  0  0  0  0  0  0  0  0
   12.5214  -16.0073   23.0075 C   0  0  0  0  0  0  0  0  0  0  0  0
   13.4059  -15.6264   23.8136 O   0  0  0  0  0  0  0  0  0  0  0  0
   10.4266  -20.2338   24.1155 O   0  0  0  0  0  0  0  0  0  0  0  0
   12.5860  -15.5966   21.6937 O   0  0  0  0  0  0  0  0  0  0  0  0
  1  2  1  0
  3  2  1  0
  3  4  1  6
  5  6  2  0
  5  3  1  0
  8  7  1  6
  8 10  1  0
  9  8  1  0
 10 11  1  1
 11  5  1  0
 12 10  1  0
 12 14  1  0
 13 12  2  0
 15 14  1  0
 15 19  1  0
 16 17  1  0
 15 16  1  6
 17 21  1  0
 18 17  2  0
 19 20  2  0
 19 22  1  0
M  END
$$$$
