SSF.pdb
     RDKit          3D

 24 24  0  0  1  0  0  0  0  0999 V2000
   26.4800  -13.9291  -18.0517 O   0  0  0  0  0  0  0  0  0  0  0  0
   25.9282  -12.7802  -17.5223 C   0  0  0  0  0  0  0  0  0  0  0  0
   27.0613  -11.8033  -17.2564 C   0  0  2  0  0  0  0  0  0  0  0  0
   27.8326  -12.2171  -16.1090 N   0  0  0  0  0  0  0  0  0  0  0  0
   26.4465  -10.4892  -16.9608 C   0  0  0  0  0  0  0  0  0  0  0  0
   25.9227  -10.2767  -15.8406 O   0  0  0  0  0  0  0  0  0  0  0  0
   27.5800   -6.6822  -18.0757 O   0  0  0  0  0  0  0  0  0  0  0  0
   26.3303   -7.0853  -18.5353 C   0  0  0  0  0  0  0  0  0  0  0  0
   25.8157   -8.1715  -17.5939 C   0  0  2  0  0  0  0  0  0  0  0  0
   26.4233   -9.4254  -17.9206 N   0  0  0  0  0  0  0  0  0  0  0  0
   24.3322   -8.2306  -17.6140 C   0  0  0  0  0  0  0  0  0  0  0  0
   23.7309   -8.9664  -18.4381 O   0  0  0  0  0  0  0  0  0  0  0  0
   23.5110   -7.4770  -16.7236 N   0  0  0  0  0  0  0  0  0  0  0  0
   22.0695   -7.6411  -16.6535 C   0  0  1  0  0  0  0  0  0  0  0  0
   21.8156   -9.0710  -16.2401 C   0  0  0  0  0  0  0  0  0  0  0  0
   21.9504   -9.3219  -14.8119 C   0  0  0  0  0  0  0  0  0  0  0  0
   20.9085   -9.0172  -13.9712 C   0  0  0  0  0  0  0  0  0  0  0  0
   20.9554   -9.2256  -12.5998 C   0  0  0  0  0  0  0  0  0  0  0  0
   22.1064   -9.7647  -12.0634 C   0  0  0  0  0  0  0  0  0  0  0  0
   23.1547  -10.0730  -12.8966 C   0  0  0  0  0  0  0  0  0  0  0  0
   23.0899   -9.8577  -14.2647 C   0  0  0  0  0  0  0  0  0  0  0  0
   21.4586   -6.6479  -15.7725 C   0  0  0  0  0  0  0  0  0  0  0  0
   20.0832   -6.5064  -15.7576 O   0  0  0  0  0  0  0  0  0  0  0  0
   22.1446   -5.9139  -15.0238 O   0  0  0  0  0  0  0  0  0  0  0  0
  1  2  1  0
  2  3  1  0
  3  5  1  0
  3  4  1  1
  5  6  2  0
  7  8  1  0
  9  8  1  6
  9 11  1  0
 10  5  1  0
 10  9  1  0
 11 12  2  0
 11 13  1  0
 13 14  1  0
 14 22  1  0
 14 15  1  1
 16 15  1  0
 16 17  2  0
 18 17  1  0
 19 18  2  0
 20 21  2  0
 20 19  1  0
 21 16  1  0
 22 24  2  0
 22 23  1  0
M  END
$$$$
