SSF.pdb
     RDKit          3D

 24 24  0  0  1  0  0  0  0  0999 V2000
   26.6739  -28.8565  -17.6490 O   0  0  0  0  0  0  0  0  0  0  0  0
   27.5484  -28.1394  -18.4403 C   0  0  0  0  0  0  0  0  0  0  0  0
   28.6770  -27.6450  -17.5510 C   0  0  2  0  0  0  0  0  0  0  0  0
   29.0454  -28.6534  -16.5866 N   0  0  0  0  0  0  0  0  0  0  0  0
   28.1728  -26.4590  -16.8221 C   0  0  0  0  0  0  0  0  0  0  0  0
   27.9392  -26.5286  -15.5912 O   0  0  0  0  0  0  0  0  0  0  0  0
   26.8864  -23.1123  -18.8249 O   0  0  0  0  0  0  0  0  0  0  0  0
   27.4692  -22.8333  -17.5927 C   0  0  0  0  0  0  0  0  0  0  0  0
   27.3958  -24.1008  -16.7449 C   0  0  2  0  0  0  0  0  0  0  0  0
   27.9348  -25.2065  -17.4764 N   0  0  0  0  0  0  0  0  0  0  0  0
   26.0083  -24.3450  -16.2763 C   0  0  0  0  0  0  0  0  0  0  0  0
   25.2636  -25.1625  -16.8756 O   0  0  0  0  0  0  0  0  0  0  0  0
   25.4415  -23.6864  -15.1448 N   0  0  0  0  0  0  0  0  0  0  0  0
   24.0653  -23.8865  -14.7257 C   0  0  1  0  0  0  0  0  0  0  0  0
   23.8619  -23.0445  -13.4888 C   0  0  0  0  0  0  0  0  0  0  0  0
   23.2495  -21.7461  -13.7338 C   0  0  0  0  0  0  0  0  0  0  0  0
   21.9109  -21.5724  -13.4825 C   0  0  0  0  0  0  0  0  0  0  0  0
   21.2512  -20.3686  -13.6880 C   0  0  0  0  0  0  0  0  0  0  0  0
   21.9815  -19.3009  -14.1674 C   0  0  0  0  0  0  0  0  0  0  0  0
   23.3218  -19.4648  -14.4219 C   0  0  0  0  0  0  0  0  0  0  0  0
   23.9642  -20.6752  -14.2106 C   0  0  0  0  0  0  0  0  0  0  0  0
   23.1271  -23.5940  -15.8074 C   0  0  0  0  0  0  0  0  0  0  0  0
   23.5300  -22.7911  -16.8586 O   0  0  0  0  0  0  0  0  0  0  0  0
   21.9601  -24.0500  -15.8149 O   0  0  0  0  0  0  0  0  0  0  0  0
  1  2  1  0
  2  3  1  0
  3  5  1  0
  3  4  1  1
  5  6  2  0
  7  8  1  0
  9  8  1  6
  9 11  1  0
 10  5  1  0
 10  9  1  0
 11 12  2  0
 11 13  1  0
 13 14  1  0
 14 22  1  0
 14 15  1  1
 16 15  1  0
 16 17  2  0
 18 17  1  0
 19 18  2  0
 20 21  2  0
 20 19  1  0
 21 16  1  0
 22 24  2  0
 22 23  1  0
M  END
$$$$
