SSF.pdb
     RDKit          3D

 24 24  0  0  1  0  0  0  0  0999 V2000
   31.4906  -15.2545  -19.7995 O   0  0  0  0  0  0  0  0  0  0  0  0
   30.5936  -15.7298  -18.8643 C   0  0  0  0  0  0  0  0  0  0  0  0
   30.8169  -17.2268  -18.7290 C   0  0  2  0  0  0  0  0  0  0  0  0
   31.5694  -17.7336  -19.8512 N   0  0  0  0  0  0  0  0  0  0  0  0
   29.4834  -17.8701  -18.7278 C   0  0  0  0  0  0  0  0  0  0  0  0
   29.0269  -18.3751  -19.7819 O   0  0  0  0  0  0  0  0  0  0  0  0
   27.5653  -19.5114  -15.5606 O   0  0  0  0  0  0  0  0  0  0  0  0
   27.1785  -19.7264  -16.8796 C   0  0  0  0  0  0  0  0  0  0  0  0
   27.3206  -18.4036  -17.6284 C   0  0  2  0  0  0  0  0  0  0  0  0
   28.6732  -17.9428  -17.5480 N   0  0  0  0  0  0  0  0  0  0  0  0
   26.3436  -17.4039  -17.1279 C   0  0  0  0  0  0  0  0  0  0  0  0
   26.2426  -17.1666  -15.8968 O   0  0  0  0  0  0  0  0  0  0  0  0
   25.4768  -16.6648  -17.9869 N   0  0  0  0  0  0  0  0  0  0  0  0
   24.5125  -15.6992  -17.4897 C   0  0  1  0  0  0  0  0  0  0  0  0
   25.0273  -14.3335  -17.8772 C   0  0  0  0  0  0  0  0  0  0  0  0
   26.2790  -13.9537  -17.2370 C   0  0  0  0  0  0  0  0  0  0  0  0
   26.2720  -13.5538  -15.9236 C   0  0  0  0  0  0  0  0  0  0  0  0
   27.4195  -13.1769  -15.2399 C   0  0  0  0  0  0  0  0  0  0  0  0
   28.6201  -13.2082  -15.9187 C   0  0  0  0  0  0  0  0  0  0  0  0
   28.6376  -13.6070  -17.2335 C   0  0  0  0  0  0  0  0  0  0  0  0
   27.4807  -13.9801  -17.9005 C   0  0  0  0  0  0  0  0  0  0  0  0
   23.1646  -15.9884  -17.9747 C   0  0  0  0  0  0  0  0  0  0  0  0
   22.9690  -17.0364  -18.8553 O   0  0  0  0  0  0  0  0  0  0  0  0
   22.1717  -15.3134  -17.6168 O   0  0  0  0  0  0  0  0  0  0  0  0
  1  2  1  0
  2  3  1  0
  3  5  1  0
  3  4  1  6
  5  6  2  0
  7  8  1  0
  9  8  1  1
  9 11  1  0
 10  5  1  0
 10  9  1  0
 11 12  2  0
 11 13  1  0
 13 14  1  0
 14 22  1  0
 14 15  1  6
 16 15  1  0
 16 17  2  0
 18 17  1  0
 19 18  2  0
 20 21  2  0
 20 19  1  0
 21 16  1  0
 22 24  2  0
 22 23  1  0
M  END
$$$$
