SSF.pdb
     RDKit          3D

 24 24  0  0  1  0  0  0  0  0999 V2000
   14.9112  -11.6216  -15.4119 O   0  0  0  0  0  0  0  0  0  0  0  0
   16.1320  -10.9788  -15.3706 C   0  0  0  0  0  0  0  0  0  0  0  0
   16.7800  -11.1294  -16.7367 C   0  0  2  0  0  0  0  0  0  0  0  0
   17.2189  -12.4882  -16.9458 N   0  0  0  0  0  0  0  0  0  0  0  0
   17.9659  -10.2433  -16.7591 C   0  0  0  0  0  0  0  0  0  0  0  0
   19.0200  -10.5870  -16.1714 O   0  0  0  0  0  0  0  0  0  0  0  0
   17.9037   -6.4032  -18.4249 O   0  0  0  0  0  0  0  0  0  0  0  0
   19.0616   -7.1568  -18.5889 C   0  0  0  0  0  0  0  0  0  0  0  0
   19.1326   -8.1582  -17.4386 C   0  0  2  0  0  0  0  0  0  0  0  0
   17.9620   -8.9815  -17.4384 N   0  0  0  0  0  0  0  0  0  0  0  0
   19.3451   -7.4633  -16.1438 C   0  0  0  0  0  0  0  0  0  0  0  0
   18.3689   -7.1604  -15.4108 O   0  0  0  0  0  0  0  0  0  0  0  0
   20.6366   -7.1022  -15.6569 N   0  0  0  0  0  0  0  0  0  0  0  0
   20.8321   -6.3348  -14.4394 C   0  0  1  0  0  0  0  0  0  0  0  0
   21.8445   -7.0880  -13.6100 C   0  0  0  0  0  0  0  0  0  0  0  0
   22.9571   -7.6426  -14.3685 C   0  0  0  0  0  0  0  0  0  0  0  0
   23.8213   -6.7956  -15.0172 C   0  0  0  0  0  0  0  0  0  0  0  0
   24.9055   -7.2420  -15.7598 C   0  0  0  0  0  0  0  0  0  0  0  0
   25.1185   -8.6023  -15.8457 C   0  0  0  0  0  0  0  0  0  0  0  0
   24.2590   -9.4582  -15.2000 C   0  0  0  0  0  0  0  0  0  0  0  0
   23.1807   -8.9940  -14.4624 C   0  0  0  0  0  0  0  0  0  0  0  0
   21.2089   -4.9532  -14.7307 C   0  0  0  0  0  0  0  0  0  0  0  0
   21.2911   -4.0382  -13.6972 O   0  0  0  0  0  0  0  0  0  0  0  0
   21.4622   -4.5660  -15.8951 O   0  0  0  0  0  0  0  0  0  0  0  0
  1  2  1  0
  2  3  1  0
  3  5  1  0
  3  4  1  1
  5  6  2  0
  7  8  1  0
  9  8  1  6
  9 11  1  0
 10  5  1  0
 10  9  1  0
 11 12  2  0
 11 13  1  0
 13 14  1  0
 14 22  1  0
 14 15  1  1
 16 15  1  0
 16 17  2  0
 18 17  1  0
 19 18  2  0
 20 21  2  0
 20 19  1  0
 21 16  1  0
 22 24  2  0
 22 23  1  0
M  END
$$$$
