SSF.pdb
     RDKit          3D

 24 24  0  0  1  0  0  0  0  0999 V2000
   28.5987  -21.6233  -16.3193 O   0  0  0  0  0  0  0  0  0  0  0  0
   28.1967  -21.0087  -15.1506 C   0  0  0  0  0  0  0  0  0  0  0  0
   26.7636  -20.5417  -15.3433 C   0  0  2  0  0  0  0  0  0  0  0  0
   26.7059  -19.4468  -16.2817 N   0  0  0  0  0  0  0  0  0  0  0  0
   26.2791  -20.0612  -14.0294 C   0  0  0  0  0  0  0  0  0  0  0  0
   26.1864  -18.8303  -13.8041 O   0  0  0  0  0  0  0  0  0  0  0  0
   23.5073  -21.9069  -12.0202 O   0  0  0  0  0  0  0  0  0  0  0  0
   23.8276  -20.5719  -11.7948 C   0  0  0  0  0  0  0  0  0  0  0  0
   25.3497  -20.4574  -11.7601 C   0  0  2  0  0  0  0  0  0  0  0  0
   25.9027  -20.9615  -12.9800 N   0  0  0  0  0  0  0  0  0  0  0  0
   25.9042  -21.1300  -10.5581 C   0  0  0  0  0  0  0  0  0  0  0  0
   25.4383  -22.2309  -10.1670 O   0  0  0  0  0  0  0  0  0  0  0  0
   26.9744  -20.5871   -9.7865 N   0  0  0  0  0  0  0  0  0  0  0  0
   27.0728  -20.7586   -8.3476 C   0  0  1  0  0  0  0  0  0  0  0  0
   27.9056  -19.6103   -7.8300 C   0  0  0  0  0  0  0  0  0  0  0  0
   28.1504  -19.6381   -6.3946 C   0  0  0  0  0  0  0  0  0  0  0  0
   28.7899  -20.7186   -5.8392 C   0  0  0  0  0  0  0  0  0  0  0  0
   29.0621  -20.8230   -4.4822 C   0  0  0  0  0  0  0  0  0  0  0  0
   28.6683  -19.7884   -3.6590 C   0  0  0  0  0  0  0  0  0  0  0  0
   28.0275  -18.7026   -4.2054 C   0  0  0  0  0  0  0  0  0  0  0  0
   27.7640  -18.6156   -5.5638 C   0  0  0  0  0  0  0  0  0  0  0  0
   25.7532  -20.8651   -7.7285 C   0  0  0  0  0  0  0  0  0  0  0  0
   25.5481  -21.7873   -6.7188 O   0  0  0  0  0  0  0  0  0  0  0  0
   24.7931  -20.1432   -8.0846 O   0  0  0  0  0  0  0  0  0  0  0  0
  1  2  1  0
  2  3  1  0
  3  5  1  0
  3  4  1  6
  5  6  2  0
  7  8  1  0
  9  8  1  6
  9 11  1  0
 10  5  1  0
 10  9  1  0
 11 12  2  0
 11 13  1  0
 13 14  1  0
 14 22  1  0
 14 15  1  1
 16 15  1  0
 16 17  2  0
 18 17  1  0
 19 18  2  0
 20 21  2  0
 20 19  1  0
 21 16  1  0
 22 24  2  0
 22 23  1  0
M  END
$$$$
