SSF.pdb
     RDKit          3D

 24 24  0  0  1  0  0  0  0  0999 V2000
   21.1507  -12.0472  -19.5976 O   0  0  0  0  0  0  0  0  0  0  0  0
   20.8736  -10.6952  -19.5842 C   0  0  0  0  0  0  0  0  0  0  0  0
   19.4231  -10.5248  -19.1643 C   0  0  2  0  0  0  0  0  0  0  0  0
   18.5868  -10.2685  -20.3121 N   0  0  0  0  0  0  0  0  0  0  0  0
   19.3623   -9.3495  -18.2660 C   0  0  0  0  0  0  0  0  0  0  0  0
   19.6420   -8.2072  -18.7037 O   0  0  0  0  0  0  0  0  0  0  0  0
   17.0185   -9.1586  -15.0443 O   0  0  0  0  0  0  0  0  0  0  0  0
   18.2658   -8.6266  -14.7330 C   0  0  0  0  0  0  0  0  0  0  0  0
   18.9759   -8.3049  -16.0456 C   0  0  2  0  0  0  0  0  0  0  0  0
   18.9894   -9.4625  -16.8870 N   0  0  0  0  0  0  0  0  0  0  0  0
   20.3353   -7.7634  -15.7936 C   0  0  0  0  0  0  0  0  0  0  0  0
   21.3576   -8.4292  -16.0993 O   0  0  0  0  0  0  0  0  0  0  0  0
   20.5670   -6.4854  -15.2035 N   0  0  0  0  0  0  0  0  0  0  0  0
   21.8866   -5.8841  -15.1218 C   0  0  1  0  0  0  0  0  0  0  0  0
   22.3864   -5.7410  -16.5394 C   0  0  0  0  0  0  0  0  0  0  0  0
   23.6057   -4.9564  -16.6757 C   0  0  0  0  0  0  0  0  0  0  0  0
   23.5178   -3.6066  -16.9113 C   0  0  0  0  0  0  0  0  0  0  0  0
   24.6295   -2.7879  -17.0527 C   0  0  0  0  0  0  0  0  0  0  0  0
   25.8785   -3.3646  -16.9505 C   0  0  0  0  0  0  0  0  0  0  0  0
   25.9770   -4.7147  -16.7149 C   0  0  0  0  0  0  0  0  0  0  0  0
   24.8549   -5.5173  -16.5763 C   0  0  0  0  0  0  0  0  0  0  0  0
   21.8599   -4.6316  -14.3693 C   0  0  0  0  0  0  0  0  0  0  0  0
   22.9815   -4.2386  -13.6626 O   0  0  0  0  0  0  0  0  0  0  0  0
   20.8465   -3.8953  -14.3425 O   0  0  0  0  0  0  0  0  0  0  0  0
  1  2  1  0
  2  3  1  0
  3  5  1  0
  3  4  1  6
  5  6  2  0
  7  8  1  0
  9  8  1  1
  9 11  1  0
 10  5  1  0
 10  9  1  0
 11 12  2  0
 11 13  1  0
 13 14  1  0
 14 22  1  0
 14 15  1  6
 16 15  1  0
 16 17  2  0
 18 17  1  0
 19 18  2  0
 20 21  2  0
 20 19  1  0
 21 16  1  0
 22 24  2  0
 22 23  1  0
M  END
$$$$
