SSF.pdb
     RDKit          3D

 24 24  0  0  1  0  0  0  0  0999 V2000
   15.1238  -10.9884  -16.1489 O   0  0  0  0  0  0  0  0  0  0  0  0
   16.2792  -10.2992  -15.8404 C   0  0  0  0  0  0  0  0  0  0  0  0
   17.3233  -11.3162  -15.4110 C   0  0  2  0  0  0  0  0  0  0  0  0
   16.8923  -12.0210  -14.2278 N   0  0  0  0  0  0  0  0  0  0  0  0
   18.5584  -10.5663  -15.0881 C   0  0  0  0  0  0  0  0  0  0  0  0
   18.6556   -9.9526  -13.9979 O   0  0  0  0  0  0  0  0  0  0  0  0
   21.6218  -10.2020  -17.8182 O   0  0  0  0  0  0  0  0  0  0  0  0
   22.0276  -10.2524  -16.4884 C   0  0  0  0  0  0  0  0  0  0  0  0
   20.8559   -9.7898  -15.6258 C   0  0  2  0  0  0  0  0  0  0  0  0
   19.6729  -10.5096  -15.9871 N   0  0  0  0  0  0  0  0  0  0  0  0
   20.6812   -8.3181  -15.7148 C   0  0  0  0  0  0  0  0  0  0  0  0
   19.8113   -7.8203  -16.4747 O   0  0  0  0  0  0  0  0  0  0  0  0
   21.4675   -7.3941  -14.9641 N   0  0  0  0  0  0  0  0  0  0  0  0
   21.3658   -5.9552  -15.1336 C   0  0  1  0  0  0  0  0  0  0  0  0
   22.0061   -5.3291  -13.9178 C   0  0  0  0  0  0  0  0  0  0  0  0
   21.9896   -3.8729  -13.9065 C   0  0  0  0  0  0  0  0  0  0  0  0
   23.0013   -3.1810  -14.5252 C   0  0  0  0  0  0  0  0  0  0  0  0
   23.0599   -1.7948  -14.5609 C   0  0  0  0  0  0  0  0  0  0  0  0
   22.0506   -1.0855  -13.9434 C   0  0  0  0  0  0  0  0  0  0  0  0
   21.0337   -1.7689  -13.3214 C   0  0  0  0  0  0  0  0  0  0  0  0
   20.9915   -3.1545  -13.2958 C   0  0  0  0  0  0  0  0  0  0  0  0
   21.9461   -5.5221  -16.4031 C   0  0  0  0  0  0  0  0  0  0  0  0
   23.0958   -6.1330  -16.8689 O   0  0  0  0  0  0  0  0  0  0  0  0
   21.4330   -4.6083  -17.0897 O   0  0  0  0  0  0  0  0  0  0  0  0
  1  2  1  0
  2  3  1  0
  3  5  1  0
  3  4  1  1
  5  6  2  0
  7  8  1  0
  9  8  1  6
  9 11  1  0
 10  5  1  0
 10  9  1  0
 11 12  2  0
 11 13  1  0
 13 14  1  0
 14 22  1  0
 14 15  1  1
 16 15  1  0
 16 17  2  0
 18 17  1  0
 19 18  2  0
 20 21  2  0
 20 19  1  0
 21 16  1  0
 22 24  2  0
 22 23  1  0
M  END
$$$$
