SSF.pdb
     RDKit          3D

 24 24  0  0  1  0  0  0  0  0999 V2000
   16.8706  -12.8729  -15.4947 O   0  0  0  0  0  0  0  0  0  0  0  0
   17.9537  -12.0266  -15.3689 C   0  0  0  0  0  0  0  0  0  0  0  0
   18.8376  -12.2227  -16.5893 C   0  0  2  0  0  0  0  0  0  0  0  0
   19.6578  -13.4008  -16.4408 N   0  0  0  0  0  0  0  0  0  0  0  0
   19.7244  -11.0408  -16.6823 C   0  0  0  0  0  0  0  0  0  0  0  0
   20.7938  -11.0028  -16.0270 O   0  0  0  0  0  0  0  0  0  0  0  0
   18.6462   -7.5843  -18.7637 O   0  0  0  0  0  0  0  0  0  0  0  0
   19.9915   -7.9386  -18.7813 C   0  0  0  0  0  0  0  0  0  0  0  0
   20.2703   -8.7715  -17.5325 C   0  0  2  0  0  0  0  0  0  0  0  0
   19.4071   -9.9127  -17.5071 N   0  0  0  0  0  0  0  0  0  0  0  0
   20.1595   -7.9414  -16.3065 C   0  0  0  0  0  0  0  0  0  0  0  0
   19.0891   -7.9116  -15.6467 O   0  0  0  0  0  0  0  0  0  0  0  0
   21.2314   -7.1429  -15.8077 N   0  0  0  0  0  0  0  0  0  0  0  0
   21.1322   -6.3698  -14.5820 C   0  0  1  0  0  0  0  0  0  0  0  0
   22.5187   -6.3228  -13.9857 C   0  0  0  0  0  0  0  0  0  0  0  0
   23.5342   -5.7492  -14.8578 C   0  0  0  0  0  0  0  0  0  0  0  0
   24.2835   -6.5764  -15.6575 C   0  0  0  0  0  0  0  0  0  0  0  0
   25.2692   -6.1109  -16.5166 C   0  0  0  0  0  0  0  0  0  0  0  0
   25.5014   -4.7519  -16.5636 C   0  0  0  0  0  0  0  0  0  0  0  0
   24.7568   -3.9158  -15.7670 C   0  0  0  0  0  0  0  0  0  0  0  0
   23.7758   -4.3989  -14.9146 C   0  0  0  0  0  0  0  0  0  0  0  0
   20.5417   -5.0550  -14.8233 C   0  0  0  0  0  0  0  0  0  0  0  0
   20.2946   -4.6482  -16.1215 O   0  0  0  0  0  0  0  0  0  0  0  0
   20.2492   -4.2770  -13.8858 O   0  0  0  0  0  0  0  0  0  0  0  0
  1  2  1  0
  2  3  1  0
  3  5  1  0
  3  4  1  1
  5  6  2  0
  7  8  1  0
  9  8  1  6
  9 11  1  0
 10  5  1  0
 10  9  1  0
 11 12  2  0
 11 13  1  0
 13 14  1  0
 14 22  1  0
 14 15  1  6
 16 15  1  0
 16 17  2  0
 18 17  1  0
 19 18  2  0
 20 21  2  0
 20 19  1  0
 21 16  1  0
 22 24  2  0
 22 23  1  0
M  END
$$$$
