SSF.pdb
     RDKit          3D

 24 24  0  0  1  0  0  0  0  0999 V2000
   20.0174  -14.1242  -17.1771 O   0  0  0  0  0  0  0  0  0  0  0  0
   20.0601  -12.7495  -17.2924 C   0  0  0  0  0  0  0  0  0  0  0  0
   18.6297  -12.2511  -17.4128 C   0  0  2  0  0  0  0  0  0  0  0  0
   18.2222  -12.2000  -18.7962 N   0  0  0  0  0  0  0  0  0  0  0  0
   18.5966  -10.8774  -16.8616 C   0  0  0  0  0  0  0  0  0  0  0  0
   18.8674   -9.8972  -17.5967 O   0  0  0  0  0  0  0  0  0  0  0  0
   16.2084   -9.3458  -13.8851 O   0  0  0  0  0  0  0  0  0  0  0  0
   17.5720   -9.2106  -13.6440 C   0  0  0  0  0  0  0  0  0  0  0  0
   18.2914   -9.2738  -14.9891 C   0  0  2  0  0  0  0  0  0  0  0  0
   18.2611  -10.6127  -15.4938 N   0  0  0  0  0  0  0  0  0  0  0  0
   19.6701   -8.7340  -14.8783 C   0  0  0  0  0  0  0  0  0  0  0  0
   20.6405   -9.4976  -14.6388 O   0  0  0  0  0  0  0  0  0  0  0  0
   19.9787   -7.3496  -15.0319 N   0  0  0  0  0  0  0  0  0  0  0  0
   21.3205   -6.8193  -14.8642 C   0  0  1  0  0  0  0  0  0  0  0  0
   21.8278   -6.4786  -16.2450 C   0  0  0  0  0  0  0  0  0  0  0  0
   23.1084   -5.7855  -16.2660 C   0  0  0  0  0  0  0  0  0  0  0  0
   24.2624   -6.5041  -16.4582 C   0  0  0  0  0  0  0  0  0  0  0  0
   25.5215   -5.9212  -16.4924 C   0  0  0  0  0  0  0  0  0  0  0  0
   25.6097   -4.5547  -16.3247 C   0  0  0  0  0  0  0  0  0  0  0  0
   24.4604   -3.8267  -16.1317 C   0  0  0  0  0  0  0  0  0  0  0  0
   23.2108   -4.4264  -16.1005 C   0  0  0  0  0  0  0  0  0  0  0  0
   21.3409   -5.6977  -13.9275 C   0  0  0  0  0  0  0  0  0  0  0  0
   22.4400   -5.5155  -13.1085 O   0  0  0  0  0  0  0  0  0  0  0  0
   20.3882   -4.8886  -13.8405 O   0  0  0  0  0  0  0  0  0  0  0  0
  1  2  1  0
  2  3  1  0
  3  5  1  0
  3  4  1  6
  5  6  2  0
  7  8  1  0
  9  8  1  1
  9 11  1  0
 10  5  1  0
 10  9  1  0
 11 12  2  0
 11 13  1  0
 13 14  1  0
 14 22  1  0
 14 15  1  6
 16 15  1  0
 16 17  2  0
 18 17  1  0
 19 18  2  0
 20 21  2  0
 20 19  1  0
 21 16  1  0
 22 24  2  0
 22 23  1  0
M  END
$$$$
