SSF.pdb
     RDKit          3D

 24 24  0  0  1  0  0  0  0  0999 V2000
   25.9388  -24.3546  -14.2906 O   0  0  0  0  0  0  0  0  0  0  0  0
   26.7721  -23.7332  -15.1987 C   0  0  0  0  0  0  0  0  0  0  0  0
   26.1724  -22.3749  -15.5220 C   0  0  2  0  0  0  0  0  0  0  0  0
   26.9206  -21.7235  -16.5700 N   0  0  0  0  0  0  0  0  0  0  0  0
   26.2665  -21.5513  -14.2952 C   0  0  0  0  0  0  0  0  0  0  0  0
   27.3231  -20.9262  -14.0360 O   0  0  0  0  0  0  0  0  0  0  0  0
   22.9380  -20.9307  -11.9114 O   0  0  0  0  0  0  0  0  0  0  0  0
   23.7942  -19.8618  -12.1565 C   0  0  0  0  0  0  0  0  0  0  0  0
   25.1989  -20.4260  -12.3550 C   0  0  2  0  0  0  0  0  0  0  0  0
   25.1783  -21.4346  -13.3701 N   0  0  0  0  0  0  0  0  0  0  0  0
   25.7590  -20.9167  -11.0705 C   0  0  0  0  0  0  0  0  0  0  0  0
   25.7288  -22.1410  -10.7837 O   0  0  0  0  0  0  0  0  0  0  0  0
   26.3535  -20.0554  -10.1009 N   0  0  0  0  0  0  0  0  0  0  0  0
   26.7106  -20.5018   -8.7657 C   0  0  1  0  0  0  0  0  0  0  0  0
   27.8520  -19.6262   -8.3066 C   0  0  0  0  0  0  0  0  0  0  0  0
   28.1807  -19.7509   -6.8933 C   0  0  0  0  0  0  0  0  0  0  0  0
   29.0956  -20.6931   -6.4930 C   0  0  0  0  0  0  0  0  0  0  0  0
   29.4648  -20.8760   -5.1677 C   0  0  0  0  0  0  0  0  0  0  0  0
   28.8807  -20.0692   -4.2131 C   0  0  0  0  0  0  0  0  0  0  0  0
   27.9639  -19.1233   -4.6038 C   0  0  0  0  0  0  0  0  0  0  0  0
   27.6071  -18.9548   -5.9329 C   0  0  0  0  0  0  0  0  0  0  0  0
   25.5554  -20.4940   -7.8705 C   0  0  0  0  0  0  0  0  0  0  0  0
   25.4993  -21.3970   -6.8248 O   0  0  0  0  0  0  0  0  0  0  0  0
   24.6059  -19.6902   -8.0196 O   0  0  0  0  0  0  0  0  0  0  0  0
  1  2  1  0
  2  3  1  0
  3  5  1  0
  3  4  1  6
  5  6  2  0
  7  8  1  0
  9  8  1  1
  9 11  1  0
 10  5  1  0
 10  9  1  0
 11 12  2  0
 11 13  1  0
 13 14  1  0
 14 22  1  0
 14 15  1  1
 16 15  1  0
 16 17  2  0
 18 17  1  0
 19 18  2  0
 20 21  2  0
 20 19  1  0
 21 16  1  0
 22 24  2  0
 22 23  1  0
M  END
$$$$
