SSF.pdb
     RDKit          3D

 24 24  0  0  1  0  0  0  0  0999 V2000
   27.1252  -13.3129  -19.3146 O   0  0  0  0  0  0  0  0  0  0  0  0
   26.0889  -13.8486  -18.5769 C   0  0  0  0  0  0  0  0  0  0  0  0
   24.8748  -13.9421  -19.4859 C   0  0  2  0  0  0  0  0  0  0  0  0
   25.2757  -14.2081  -20.8465 N   0  0  0  0  0  0  0  0  0  0  0  0
   24.1943  -12.6279  -19.4443 C   0  0  0  0  0  0  0  0  0  0  0  0
   24.5913  -11.6897  -20.1769 O   0  0  0  0  0  0  0  0  0  0  0  0
   20.4823   -9.8991  -19.0163 O   0  0  0  0  0  0  0  0  0  0  0  0
   20.9897  -11.1897  -18.9048 C   0  0  0  0  0  0  0  0  0  0  0  0
   22.4704  -11.0791  -18.5497 C   0  0  2  0  0  0  0  0  0  0  0  0
   23.0763  -12.3753  -18.5842 N   0  0  0  0  0  0  0  0  0  0  0  0
   22.6526  -10.3956  -17.2443 C   0  0  0  0  0  0  0  0  0  0  0  0
   22.5241  -11.0292  -16.1653 O   0  0  0  0  0  0  0  0  0  0  0  0
   22.9769   -9.0112  -17.1291 N   0  0  0  0  0  0  0  0  0  0  0  0
   23.2117   -8.3618  -15.8512 C   0  0  1  0  0  0  0  0  0  0  0  0
   24.5958   -7.7619  -15.9175 C   0  0  0  0  0  0  0  0  0  0  0  0
   25.6580   -8.7185  -16.1961 C   0  0  0  0  0  0  0  0  0  0  0  0
   25.8822   -9.7528  -15.3215 C   0  0  0  0  0  0  0  0  0  0  0  0
   26.8722  -10.7065  -15.5132 C   0  0  0  0  0  0  0  0  0  0  0  0
   27.6645  -10.6036  -16.6378 C   0  0  0  0  0  0  0  0  0  0  0  0
   27.4480   -9.5719  -17.5192 C   0  0  0  0  0  0  0  0  0  0  0  0
   26.4539   -8.6281  -17.3112 C   0  0  0  0  0  0  0  0  0  0  0  0
   22.1584   -7.3985  -15.5374 C   0  0  0  0  0  0  0  0  0  0  0  0
   22.1418   -6.7890  -14.2963 O   0  0  0  0  0  0  0  0  0  0  0  0
   21.2621   -7.1034  -16.3617 O   0  0  0  0  0  0  0  0  0  0  0  0
  1  2  1  0
  2  3  1  0
  3  5  1  0
  3  4  1  6
  5  6  2  0
  7  8  1  0
  9  8  1  1
  9 11  1  0
 10  5  1  0
 10  9  1  0
 11 12  2  0
 11 13  1  0
 13 14  1  0
 14 22  1  0
 14 15  1  6
 16 15  1  0
 16 17  2  0
 18 17  1  0
 19 18  2  0
 20 21  2  0
 20 19  1  0
 21 16  1  0
 22 24  2  0
 22 23  1  0
M  END
$$$$
