SSF.pdb
     RDKit          3D

 24 24  0  0  1  0  0  0  0  0999 V2000
   18.3812  -13.4297  -14.9503 O   0  0  0  0  0  0  0  0  0  0  0  0
   18.8818  -12.1932  -15.3045 C   0  0  0  0  0  0  0  0  0  0  0  0
   18.2547  -11.8039  -16.6328 C   0  0  2  0  0  0  0  0  0  0  0  0
   18.6743  -12.7056  -17.6785 N   0  0  0  0  0  0  0  0  0  0  0  0
   18.7370  -10.4437  -16.9630 C   0  0  0  0  0  0  0  0  0  0  0  0
   19.3497  -10.2365  -18.0383 O   0  0  0  0  0  0  0  0  0  0  0  0
   16.7285   -7.2586  -16.3514 O   0  0  0  0  0  0  0  0  0  0  0  0
   17.8272   -7.2976  -17.2040 C   0  0  0  0  0  0  0  0  0  0  0  0
   18.9580   -8.0182  -16.4740 C   0  0  2  0  0  0  0  0  0  0  0  0
   18.5299   -9.3280  -16.0878 N   0  0  0  0  0  0  0  0  0  0  0  0
   19.4456   -7.2126  -15.3261 C   0  0  0  0  0  0  0  0  0  0  0  0
   18.9206   -7.3328  -14.1894 O   0  0  0  0  0  0  0  0  0  0  0  0
   20.5138   -6.2730  -15.4323 N   0  0  0  0  0  0  0  0  0  0  0  0
   21.0259   -5.5317  -14.2931 C   0  0  1  0  0  0  0  0  0  0  0  0
   21.7550   -6.5259  -13.4212 C   0  0  0  0  0  0  0  0  0  0  0  0
   22.7181   -7.3593  -14.1276 C   0  0  0  0  0  0  0  0  0  0  0  0
   23.5948   -6.7785  -15.0103 C   0  0  0  0  0  0  0  0  0  0  0  0
   24.5429   -7.5000  -15.7223 C   0  0  0  0  0  0  0  0  0  0  0  0
   24.6011   -8.8647  -15.5286 C   0  0  0  0  0  0  0  0  0  0  0  0
   23.7279   -9.4553  -14.6472 C   0  0  0  0  0  0  0  0  0  0  0  0
   22.7871   -8.7182  -13.9445 C   0  0  0  0  0  0  0  0  0  0  0  0
   21.8434   -4.3963  -14.7152 C   0  0  0  0  0  0  0  0  0  0  0  0
   22.0462   -4.1683  -16.0639 O   0  0  0  0  0  0  0  0  0  0  0  0
   22.3713   -3.6155  -13.8897 O   0  0  0  0  0  0  0  0  0  0  0  0
  1  2  1  0
  2  3  1  0
  3  5  1  0
  3  4  1  6
  5  6  2  0
  7  8  1  0
  9  8  1  1
  9 11  1  0
 10  5  1  0
 10  9  1  0
 11 12  2  0
 11 13  1  0
 13 14  1  0
 14 22  1  0
 14 15  1  1
 16 15  1  0
 16 17  2  0
 18 17  1  0
 19 18  2  0
 20 21  2  0
 20 19  1  0
 21 16  1  0
 22 24  2  0
 22 23  1  0
M  END
$$$$
