SSF.pdb
     RDKit          3D

 24 24  0  0  1  0  0  0  0  0999 V2000
   18.9854  -13.1495  -15.6294 O   0  0  0  0  0  0  0  0  0  0  0  0
   19.4549  -11.8552  -15.7259 C   0  0  0  0  0  0  0  0  0  0  0  0
   20.1089  -11.7013  -17.0889 C   0  0  2  0  0  0  0  0  0  0  0  0
   21.2652  -12.5576  -17.1992 N   0  0  0  0  0  0  0  0  0  0  0  0
   20.5531  -10.2937  -17.2051 C   0  0  0  0  0  0  0  0  0  0  0  0
   21.5845   -9.9072  -16.6040 O   0  0  0  0  0  0  0  0  0  0  0  0
   18.2052   -7.4353  -18.9756 O   0  0  0  0  0  0  0  0  0  0  0  0
   19.5649   -7.2579  -19.2112 C   0  0  0  0  0  0  0  0  0  0  0  0
   20.3281   -7.9918  -18.1112 C   0  0  2  0  0  0  0  0  0  0  0  0
   19.8399   -9.3318  -17.9923 N   0  0  0  0  0  0  0  0  0  0  0  0
   20.2634   -7.2423  -16.8312 C   0  0  0  0  0  0  0  0  0  0  0  0
   19.3319   -7.4511  -16.0122 O   0  0  0  0  0  0  0  0  0  0  0  0
   21.2279   -6.2610  -16.4541 N   0  0  0  0  0  0  0  0  0  0  0  0
   21.1187   -5.4781  -15.2356 C   0  0  1  0  0  0  0  0  0  0  0  0
   22.3434   -5.7895  -14.4089 C   0  0  0  0  0  0  0  0  0  0  0  0
   22.4040   -7.1550  -13.9063 C   0  0  0  0  0  0  0  0  0  0  0  0
   21.6277   -7.5146  -12.8324 C   0  0  0  0  0  0  0  0  0  0  0  0
   21.6256   -8.7935  -12.2931 C   0  0  0  0  0  0  0  0  0  0  0  0
   22.4448   -9.7427  -12.8685 C   0  0  0  0  0  0  0  0  0  0  0  0
   23.2256   -9.3925  -13.9437 C   0  0  0  0  0  0  0  0  0  0  0  0
   23.2145   -8.1095  -14.4692 C   0  0  0  0  0  0  0  0  0  0  0  0
   20.9401   -4.0569  -15.5252 C   0  0  0  0  0  0  0  0  0  0  0  0
   20.7705   -3.1661  -14.4813 O   0  0  0  0  0  0  0  0  0  0  0  0
   20.9352   -3.6142  -16.6973 O   0  0  0  0  0  0  0  0  0  0  0  0
  1  2  1  0
  2  3  1  0
  3  5  1  0
  3  4  1  1
  5  6  2  0
  7  8  1  0
  9  8  1  6
  9 11  1  0
 10  5  1  0
 10  9  1  0
 11 12  2  0
 11 13  1  0
 13 14  1  0
 14 22  1  0
 14 15  1  1
 16 15  1  0
 16 17  2  0
 18 17  1  0
 19 18  2  0
 20 21  2  0
 20 19  1  0
 21 16  1  0
 22 24  2  0
 22 23  1  0
M  END
$$$$
