SSF.pdb
     RDKit          3D

 24 24  0  0  1  0  0  0  0  0999 V2000
   14.7883  -13.4908  -15.3324 O   0  0  0  0  0  0  0  0  0  0  0  0
   14.3789  -13.0072  -16.5587 C   0  0  0  0  0  0  0  0  0  0  0  0
   15.5093  -13.2387  -17.5475 C   0  0  2  0  0  0  0  0  0  0  0  0
   16.4571  -14.1929  -17.0242 N   0  0  0  0  0  0  0  0  0  0  0  0
   16.2006  -11.9428  -17.7337 C   0  0  0  0  0  0  0  0  0  0  0  0
   17.4535  -11.8993  -17.7862 O   0  0  0  0  0  0  0  0  0  0  0  0
   15.9991   -7.2809  -18.8776 O   0  0  0  0  0  0  0  0  0  0  0  0
   15.2406   -8.4035  -18.5611 C   0  0  0  0  0  0  0  0  0  0  0  0
   16.1929   -9.4779  -18.0418 C   0  0  2  0  0  0  0  0  0  0  0  0
   15.4844  -10.7080  -17.8595 N   0  0  0  0  0  0  0  0  0  0  0  0
   16.8808   -9.0240  -16.8068 C   0  0  0  0  0  0  0  0  0  0  0  0
   16.3738   -9.2363  -15.6754 O   0  0  0  0  0  0  0  0  0  0  0  0
   18.1298   -8.3348  -16.8200 N   0  0  0  0  0  0  0  0  0  0  0  0
   18.7225   -7.7575  -15.6262 C   0  0  1  0  0  0  0  0  0  0  0  0
   20.2041   -8.0400  -15.6976 C   0  0  0  0  0  0  0  0  0  0  0  0
   20.9916   -7.4149  -14.6440 C   0  0  0  0  0  0  0  0  0  0  0  0
   21.2671   -8.1193  -13.4982 C   0  0  0  0  0  0  0  0  0  0  0  0
   22.0102   -7.5980  -12.4482 C   0  0  0  0  0  0  0  0  0  0  0  0
   22.4912   -6.3107  -12.5689 C   0  0  0  0  0  0  0  0  0  0  0  0
   22.2208   -5.5975  -13.7118 C   0  0  0  0  0  0  0  0  0  0  0  0
   21.4764   -6.1348  -14.7508 C   0  0  0  0  0  0  0  0  0  0  0  0
   18.3911   -6.3402  -15.4944 C   0  0  0  0  0  0  0  0  0  0  0  0
   18.3268   -5.7710  -14.2358 O   0  0  0  0  0  0  0  0  0  0  0  0
   18.1613   -5.6170  -16.4914 O   0  0  0  0  0  0  0  0  0  0  0  0
  1  2  1  0
  2  3  1  0
  3  5  1  0
  3  4  1  1
  5  6  2  0
  7  8  1  0
  9  8  1  1
  9 11  1  0
 10  5  1  0
 10  9  1  0
 11 12  2  0
 11 13  1  0
 13 14  1  0
 14 22  1  0
 14 15  1  6
 16 15  1  0
 16 17  2  0
 18 17  1  0
 19 18  2  0
 20 21  2  0
 20 19  1  0
 21 16  1  0
 22 24  2  0
 22 23  1  0
M  END
$$$$
