SSF.pdb
     RDKit          3D

 24 24  0  0  1  0  0  0  0  0999 V2000
   18.2978  -11.3242  -19.8293 O   0  0  0  0  0  0  0  0  0  0  0  0
   19.2326  -10.7484  -18.9929 C   0  0  0  0  0  0  0  0  0  0  0  0
   20.5084  -10.5485  -19.7938 C   0  0  2  0  0  0  0  0  0  0  0  0
   21.3125  -11.7468  -19.7794 N   0  0  0  0  0  0  0  0  0  0  0  0
   21.2714   -9.4622  -19.1382 C   0  0  0  0  0  0  0  0  0  0  0  0
   21.8071   -9.6549  -18.0200 O   0  0  0  0  0  0  0  0  0  0  0  0
   23.2436   -5.0674  -19.3606 O   0  0  0  0  0  0  0  0  0  0  0  0
   22.4655   -6.0030  -20.0350 C   0  0  0  0  0  0  0  0  0  0  0  0
   22.1715   -7.1479  -19.0687 C   0  0  2  0  0  0  0  0  0  0  0  0
   21.4283   -8.1708  -19.7392 N   0  0  0  0  0  0  0  0  0  0  0  0
   21.4882   -6.6491  -17.8486 C   0  0  0  0  0  0  0  0  0  0  0  0
   20.2347   -6.5533  -17.8094 O   0  0  0  0  0  0  0  0  0  0  0  0
   22.1889   -6.2553  -16.6699 N   0  0  0  0  0  0  0  0  0  0  0  0
   21.5214   -5.6952  -15.5079 C   0  0  1  0  0  0  0  0  0  0  0  0
   20.5839   -6.7602  -14.9911 C   0  0  0  0  0  0  0  0  0  0  0  0
   21.2207   -7.7825  -14.1724 C   0  0  0  0  0  0  0  0  0  0  0  0
   20.8284   -7.9435  -12.8665 C   0  0  0  0  0  0  0  0  0  0  0  0
   21.3831   -8.8934  -12.0201 C   0  0  0  0  0  0  0  0  0  0  0  0
   22.3748   -9.7107  -12.5217 C   0  0  0  0  0  0  0  0  0  0  0  0
   22.7744   -9.5574  -13.8274 C   0  0  0  0  0  0  0  0  0  0  0  0
   22.2087   -8.6026  -14.6585 C   0  0  0  0  0  0  0  0  0  0  0  0
   22.4821   -5.2143  -14.5172 C   0  0  0  0  0  0  0  0  0  0  0  0
   22.0245   -4.7268  -13.3068 O   0  0  0  0  0  0  0  0  0  0  0  0
   23.7169   -5.2288  -14.7289 O   0  0  0  0  0  0  0  0  0  0  0  0
  1  2  1  0
  2  3  1  0
  3  5  1  0
  3  4  1  1
  5  6  2  0
  7  8  1  0
  9  8  1  6
  9 11  1  0
 10  5  1  0
 10  9  1  0
 11 12  2  0
 11 13  1  0
 13 14  1  0
 14 22  1  0
 14 15  1  1
 16 15  1  0
 16 17  2  0
 18 17  1  0
 19 18  2  0
 20 21  2  0
 20 19  1  0
 21 16  1  0
 22 24  2  0
 22 23  1  0
M  END
$$$$
