IAA.pdb
     RDKit          3D

 19 18  0  0  1  0  0  0  0  0999 V2000
   18.6182  -13.0263  -18.8345 C   0  0  0  0  0  0  0  0  0  0  0  0
   19.7469  -12.1220  -18.4839 C   0  0  0  0  0  0  0  0  0  0  0  0
   19.4898  -11.1204  -17.4226 C   0  0  2  0  0  0  0  0  0  0  0  0
   18.2840  -10.2848  -17.8599 C   0  0  0  0  0  0  0  0  0  0  0  0
   20.5695  -10.1965  -17.0495 C   0  0  2  0  0  0  0  0  0  0  0  0
   21.8112  -10.8782  -16.7690 N   0  0  0  0  0  0  0  0  0  0  0  0
   20.2302   -9.2025  -16.0092 C   0  0  0  0  0  0  0  0  0  0  0  0
   19.2071   -8.4614  -16.0811 O   0  0  0  0  0  0  0  0  0  0  0  0
   21.4102   -8.3792  -12.5827 C   0  0  0  0  0  0  0  0  0  0  0  0
   20.7114   -7.9852  -13.8508 C   0  0  2  0  0  0  0  0  0  0  0  0
   21.0350   -9.0113  -14.8520 N   0  0  0  0  0  0  0  0  0  0  0  0
   21.1644   -6.6455  -14.3471 C   0  0  0  0  0  0  0  0  0  0  0  0
   22.1879   -6.5260  -15.0638 O   0  0  0  0  0  0  0  0  0  0  0  0
   19.6121   -3.1828  -14.3057 C   0  0  0  0  0  0  0  0  0  0  0  0
   20.7637   -4.1429  -14.4923 C   0  0  2  0  0  0  0  0  0  0  0  0
   20.4467   -5.4726  -14.0196 N   0  0  0  0  0  0  0  0  0  0  0  0
   22.0057   -3.6797  -13.8813 C   0  0  0  0  0  0  0  0  0  0  0  0
   22.3440   -4.0869  -12.7484 O   0  0  0  0  0  0  0  0  0  0  0  0
   22.8372   -2.7844  -14.5328 O   0  0  0  0  0  0  0  0  0  0  0  0
  1  2  1  0
  2  3  1  0
  3  4  1  6
  5  3  1  0
  5  7  1  0
  5  6  1  1
  7  8  2  0
 10  9  1  1
 11  7  1  0
 11 10  1  0
 12 10  1  0
 12 16  1  0
 13 12  2  0
 15 14  1  1
 16 15  1  0
 17 15  1  0
 18 17  2  0
 19 17  1  0
M  END
$$$$
