IAA.pdb
     RDKit          3D

 19 18  0  0  1  0  0  0  0  0999 V2000
   24.8838  -15.2974  -15.1807 C   0  0  0  0  0  0  0  0  0  0  0  0
   25.8096  -16.3017  -15.7714 C   0  0  0  0  0  0  0  0  0  0  0  0
   25.9534  -17.5825  -15.0403 C   0  0  2  0  0  0  0  0  0  0  0  0
   26.5457  -17.2641  -13.6650 C   0  0  0  0  0  0  0  0  0  0  0  0
   26.7604  -18.6515  -15.6442 C   0  0  2  0  0  0  0  0  0  0  0  0
   26.3758  -18.9348  -17.0070 N   0  0  0  0  0  0  0  0  0  0  0  0
   26.9010  -19.8814  -14.8360 C   0  0  0  0  0  0  0  0  0  0  0  0
   26.2083  -20.9193  -15.0463 O   0  0  0  0  0  0  0  0  0  0  0  0
   29.3480  -21.1286  -12.3252 C   0  0  0  0  0  0  0  0  0  0  0  0
   28.0306  -21.2420  -13.0346 C   0  0  2  0  0  0  0  0  0  0  0  0
   27.8287  -19.9812  -13.7623 N   0  0  0  0  0  0  0  0  0  0  0  0
   26.8956  -21.4517  -12.0785 C   0  0  0  0  0  0  0  0  0  0  0  0
   26.7735  -22.5216  -11.4336 O   0  0  0  0  0  0  0  0  0  0  0  0
   24.9927  -19.7871   -9.7030 C   0  0  0  0  0  0  0  0  0  0  0  0
   24.7864  -20.5502  -10.9906 C   0  0  2  0  0  0  0  0  0  0  0  0
   25.9255  -20.4438  -11.8756 N   0  0  0  0  0  0  0  0  0  0  0  0
   23.5681  -20.1690  -11.6983 C   0  0  0  0  0  0  0  0  0  0  0  0
   23.6312  -19.6676  -12.8421 O   0  0  0  0  0  0  0  0  0  0  0  0
   22.3191  -20.3500  -11.1285 O   0  0  0  0  0  0  0  0  0  0  0  0
  1  2  1  0
  2  3  1  0
  3  4  1  1
  5  3  1  0
  5  7  1  0
  5  6  1  6
  7  8  2  0
 10  9  1  1
 11  7  1  0
 11 10  1  0
 12 10  1  0
 12 16  1  0
 13 12  2  0
 15 14  1  1
 16 15  1  0
 17 15  1  0
 18 17  2  0
 19 17  1  0
M  END
$$$$
