IAA.pdb
     RDKit          3D

 19 18  0  0  1  0  0  0  0  0999 V2000
   17.2285  -10.7831  -13.4908 C   0  0  0  0  0  0  0  0  0  0  0  0
   16.9262  -10.6258  -12.0422 C   0  0  0  0  0  0  0  0  0  0  0  0
   16.0931   -9.4612  -11.6608 C   0  0  2  0  0  0  0  0  0  0  0  0
   16.8124   -8.2007  -12.1481 C   0  0  0  0  0  0  0  0  0  0  0  0
   15.7557   -9.2705  -10.2436 C   0  0  2  0  0  0  0  0  0  0  0  0
   15.2026  -10.4600   -9.6399 N   0  0  0  0  0  0  0  0  0  0  0  0
   14.9603   -8.0639   -9.9319 C   0  0  0  0  0  0  0  0  0  0  0  0
   13.8186   -7.8507  -10.4341 O   0  0  0  0  0  0  0  0  0  0  0  0
   14.8247   -5.5886   -7.2619 C   0  0  0  0  0  0  0  0  0  0  0  0
   14.6117   -5.8780   -8.7188 C   0  0  2  0  0  0  0  0  0  0  0  0
   15.4273   -7.0568   -9.0427 N   0  0  0  0  0  0  0  0  0  0  0  0
   15.0312   -4.7293   -9.5853 C   0  0  0  0  0  0  0  0  0  0  0  0
   16.2382   -4.5291   -9.8658 O   0  0  0  0  0  0  0  0  0  0  0  0
   13.1220   -2.1024  -11.5687 C   0  0  0  0  0  0  0  0  0  0  0  0
   14.3700   -2.7043  -10.9662 C   0  0  2  0  0  0  0  0  0  0  0  0
   14.0731   -3.8345  -10.1137 N   0  0  0  0  0  0  0  0  0  0  0  0
   15.1864   -1.7350  -10.2422 C   0  0  0  0  0  0  0  0  0  0  0  0
   15.0709   -1.6099   -9.0034 O   0  0  0  0  0  0  0  0  0  0  0  0
   16.1039   -0.9335  -10.9006 O   0  0  0  0  0  0  0  0  0  0  0  0
  1  2  1  0
  2  3  1  0
  3  4  1  1
  5  3  1  0
  5  7  1  0
  5  6  1  6
  7  8  2  0
 10  9  1  1
 11  7  1  0
 11 10  1  0
 12 10  1  0
 12 16  1  0
 13 12  2  0
 15 14  1  1
 16 15  1  0
 17 15  1  0
 18 17  2  0
 19 17  1  0
M  END
$$$$
