IAA.pdb
     RDKit          3D

 19 18  0  0  1  0  0  0  0  0999 V2000
   23.3944  -15.4005  -16.1533 C   0  0  0  0  0  0  0  0  0  0  0  0
   22.5370  -14.4380  -15.4095 C   0  0  0  0  0  0  0  0  0  0  0  0
   22.5798  -13.0266  -15.8588 C   0  0  2  0  0  0  0  0  0  0  0  0
   24.0072  -12.5172  -15.6427 C   0  0  0  0  0  0  0  0  0  0  0  0
   21.6572  -12.0631  -15.2430 C   0  0  2  0  0  0  0  0  0  0  0  0
   20.2963  -12.5445  -15.2045 N   0  0  0  0  0  0  0  0  0  0  0  0
   21.7459  -10.6777  -15.7512 C   0  0  0  0  0  0  0  0  0  0  0  0
   22.8479  -10.1235  -16.0337 O   0  0  0  0  0  0  0  0  0  0  0  0
   19.3087   -8.0024  -16.6996 C   0  0  0  0  0  0  0  0  0  0  0  0
   20.7013   -8.4724  -16.3974 C   0  0  2  0  0  0  0  0  0  0  0  0
   20.5930   -9.8704  -15.9574 N   0  0  0  0  0  0  0  0  0  0  0  0
   21.3449   -7.6588  -15.3156 C   0  0  0  0  0  0  0  0  0  0  0  0
   21.2314   -7.9738  -14.1058 O   0  0  0  0  0  0  0  0  0  0  0  0
   23.7834   -4.7411  -15.3570 C   0  0  0  0  0  0  0  0  0  0  0  0
   22.8518   -5.7178  -14.6781 C   0  0  2  0  0  0  0  0  0  0  0  0
   22.1019   -6.5074  -15.6302 N   0  0  0  0  0  0  0  0  0  0  0  0
   21.9412   -5.0830  -13.7304 C   0  0  0  0  0  0  0  0  0  0  0  0
   20.7699   -4.8039  -14.0680 O   0  0  0  0  0  0  0  0  0  0  0  0
   22.3446   -4.7744  -12.4421 O   0  0  0  0  0  0  0  0  0  0  0  0
  1  2  1  0
  2  3  1  0
  3  4  1  1
  5  3  1  0
  5  7  1  0
  5  6  1  6
  7  8  2  0
 10  9  1  1
 11  7  1  0
 11 10  1  0
 12 10  1  0
 12 16  1  0
 13 12  2  0
 15 14  1  6
 16 15  1  0
 17 15  1  0
 18 17  2  0
 19 17  1  0
M  END
$$$$
