IAA.pdb
     RDKit          3D

 19 18  0  0  1  0  0  0  0  0999 V2000
   24.4876  -14.8874  -15.6978 C   0  0  0  0  0  0  0  0  0  0  0  0
   23.2775  -14.0744  -15.3988 C   0  0  0  0  0  0  0  0  0  0  0  0
   23.3479  -12.6322  -15.7318 C   0  0  2  0  0  0  0  0  0  0  0  0
   24.4886  -12.0249  -14.9109 C   0  0  0  0  0  0  0  0  0  0  0  0
   22.1523  -11.8031  -15.5281 C   0  0  2  0  0  0  0  0  0  0  0  0
   20.9803  -12.3522  -16.1686 N   0  0  0  0  0  0  0  0  0  0  0  0
   22.3183  -10.3610  -15.8081 C   0  0  0  0  0  0  0  0  0  0  0  0
   23.2472   -9.6693  -15.2983 O   0  0  0  0  0  0  0  0  0  0  0  0
   20.7096   -7.8569  -18.0654 C   0  0  0  0  0  0  0  0  0  0  0  0
   21.5839   -8.2051  -16.8966 C   0  0  2  0  0  0  0  0  0  0  0  0
   21.4407   -9.6507  -16.6733 N   0  0  0  0  0  0  0  0  0  0  0  0
   21.1804   -7.4677  -15.6558 C   0  0  0  0  0  0  0  0  0  0  0  0
   20.3096   -7.9267  -14.8769 O   0  0  0  0  0  0  0  0  0  0  0  0
   22.5827   -4.4564  -13.8334 C   0  0  0  0  0  0  0  0  0  0  0  0
   21.4957   -5.4629  -14.1306 C   0  0  2  0  0  0  0  0  0  0  0  0
   21.7733   -6.2276  -15.3267 N   0  0  0  0  0  0  0  0  0  0  0  0
   20.1660   -4.8674  -14.2173 C   0  0  0  0  0  0  0  0  0  0  0  0
   19.6665   -4.5935  -15.3306 O   0  0  0  0  0  0  0  0  0  0  0  0
   19.4264   -4.5911  -13.0797 O   0  0  0  0  0  0  0  0  0  0  0  0
  1  2  1  0
  2  3  1  0
  3  4  1  1
  5  3  1  0
  5  7  1  0
  5  6  1  6
  7  8  2  0
 10  9  1  6
 11  7  1  0
 11 10  1  0
 12 10  1  0
 12 16  1  0
 13 12  2  0
 15 14  1  6
 16 15  1  0
 17 15  1  0
 18 17  2  0
 19 17  1  0
M  END
$$$$
