IAA.pdb
     RDKit          3D

 19 18  0  0  1  0  0  0  0  0999 V2000
   17.8505  -14.8532  -16.4480 C   0  0  0  0  0  0  0  0  0  0  0  0
   18.4902  -13.5582  -16.0892 C   0  0  0  0  0  0  0  0  0  0  0  0
   17.6671  -12.3392  -16.2692 C   0  0  2  0  0  0  0  0  0  0  0  0
   17.2541  -12.2753  -17.7419 C   0  0  0  0  0  0  0  0  0  0  0  0
   18.2454  -11.0388  -15.9044 C   0  0  2  0  0  0  0  0  0  0  0  0
   18.7452  -11.0139  -14.5498 N   0  0  0  0  0  0  0  0  0  0  0  0
   17.4113   -9.8581  -16.2141 C   0  0  0  0  0  0  0  0  0  0  0  0
   17.0460   -9.5703  -17.3910 O   0  0  0  0  0  0  0  0  0  0  0  0
   15.2340   -7.5029  -14.4455 C   0  0  0  0  0  0  0  0  0  0  0  0
   16.2355   -7.7286  -15.5399 C   0  0  2  0  0  0  0  0  0  0  0  0
   16.9614   -8.9618  -15.2053 N   0  0  0  0  0  0  0  0  0  0  0  0
   17.2080   -6.5937  -15.6521 C   0  0  0  0  0  0  0  0  0  0  0  0
   18.2562   -6.5607  -14.9623 O   0  0  0  0  0  0  0  0  0  0  0  0
   17.4468   -3.5471  -17.9185 C   0  0  0  0  0  0  0  0  0  0  0  0
   17.8311   -4.3732  -16.7133 C   0  0  2  0  0  0  0  0  0  0  0  0
   16.9699   -5.5229  -16.5435 N   0  0  0  0  0  0  0  0  0  0  0  0
   17.8803   -3.6005  -15.4760 C   0  0  0  0  0  0  0  0  0  0  0  0
   18.8380   -2.8289  -15.2494 O   0  0  0  0  0  0  0  0  0  0  0  0
   16.8771   -3.6988  -14.5266 O   0  0  0  0  0  0  0  0  0  0  0  0
  1  2  1  0
  2  3  1  0
  3  4  1  6
  5  3  1  0
  5  7  1  0
  5  6  1  1
  7  8  2  0
 10  9  1  1
 11  7  1  0
 11 10  1  0
 12 10  1  0
 12 16  1  0
 13 12  2  0
 15 14  1  6
 16 15  1  0
 17 15  1  0
 18 17  2  0
 19 17  1  0
M  END
$$$$
