IAA.pdb
     RDKit          3D

 19 18  0  0  1  0  0  0  0  0999 V2000
   16.8788  -13.1495  -17.9442 C   0  0  0  0  0  0  0  0  0  0  0  0
   17.5659  -12.4607  -16.8180 C   0  0  0  0  0  0  0  0  0  0  0  0
   17.6629  -10.9845  -16.9031 C   0  0  2  0  0  0  0  0  0  0  0  0
   18.4873  -10.6479  -18.1484 C   0  0  0  0  0  0  0  0  0  0  0  0
   18.2372  -10.2498  -15.7678 C   0  0  2  0  0  0  0  0  0  0  0  0
   17.6260  -10.6068  -14.5092 N   0  0  0  0  0  0  0  0  0  0  0  0
   18.3445   -8.7855  -15.9416 C   0  0  0  0  0  0  0  0  0  0  0  0
   18.9430   -8.2568  -16.9231 O   0  0  0  0  0  0  0  0  0  0  0  0
   16.4195   -5.9167  -14.8361 C   0  0  0  0  0  0  0  0  0  0  0  0
   17.7634   -6.4219  -15.2724 C   0  0  2  0  0  0  0  0  0  0  0  0
   17.7796   -7.8684  -15.0126 N   0  0  0  0  0  0  0  0  0  0  0  0
   18.8803   -5.7682  -14.5164 C   0  0  0  0  0  0  0  0  0  0  0  0
   18.9501   -4.5200  -14.4034 O   0  0  0  0  0  0  0  0  0  0  0  0
   21.7186   -7.1299  -12.3760 C   0  0  0  0  0  0  0  0  0  0  0  0
   20.9359   -6.0268  -13.0494 C   0  0  2  0  0  0  0  0  0  0  0  0
   19.8918   -6.5444  -13.9063 N   0  0  0  0  0  0  0  0  0  0  0  0
   21.7765   -5.0954  -13.7951 C   0  0  0  0  0  0  0  0  0  0  0  0
   22.5474   -4.3168  -13.1924 O   0  0  0  0  0  0  0  0  0  0  0  0
   21.7447   -5.0478  -15.1787 O   0  0  0  0  0  0  0  0  0  0  0  0
  1  2  1  0
  2  3  1  0
  3  4  1  6
  5  3  1  0
  5  7  1  0
  5  6  1  1
  7  8  2  0
 10  9  1  1
 11  7  1  0
 11 10  1  0
 12 10  1  0
 12 16  1  0
 13 12  2  0
 15 14  1  6
 16 15  1  0
 17 15  1  0
 18 17  2  0
 19 17  1  0
M  END
$$$$
