IAA.pdb
     RDKit          3D

 19 18  0  0  1  0  0  0  0  0999 V2000
   18.0329  -14.2276  -18.1269 C   0  0  0  0  0  0  0  0  0  0  0  0
   18.1774  -13.5074  -16.8326 C   0  0  0  0  0  0  0  0  0  0  0  0
   18.4248  -12.0484  -16.9091 C   0  0  2  0  0  0  0  0  0  0  0  0
   19.7230  -11.8416  -17.6937 C   0  0  0  0  0  0  0  0  0  0  0  0
   18.5254  -11.2846  -15.6580 C   0  0  2  0  0  0  0  0  0  0  0  0
   17.3529  -11.4240  -14.8267 N   0  0  0  0  0  0  0  0  0  0  0  0
   18.9444   -9.8741  -15.8014 C   0  0  0  0  0  0  0  0  0  0  0  0
   20.0071   -9.5352  -16.3989 O   0  0  0  0  0  0  0  0  0  0  0  0
   17.3569   -6.5616  -15.1535 C   0  0  0  0  0  0  0  0  0  0  0  0
   18.5486   -7.3971  -15.5188 C   0  0  2  0  0  0  0  0  0  0  0  0
   18.1776   -8.7981  -15.2747 N   0  0  0  0  0  0  0  0  0  0  0  0
   19.7506   -7.0498  -14.6936 C   0  0  0  0  0  0  0  0  0  0  0  0
   19.9054   -7.5129  -13.5372 O   0  0  0  0  0  0  0  0  0  0  0  0
   23.1351   -5.7351  -15.5519 C   0  0  0  0  0  0  0  0  0  0  0  0
   22.0140   -5.9085  -14.5540 C   0  0  2  0  0  0  0  0  0  0  0  0
   20.7489   -6.1858  -15.1983 N   0  0  0  0  0  0  0  0  0  0  0  0
   21.8719   -4.7767  -13.6434 C   0  0  0  0  0  0  0  0  0  0  0  0
   20.9711   -3.9283  -13.8240 O   0  0  0  0  0  0  0  0  0  0  0  0
   22.7228   -4.6116  -12.5635 O   0  0  0  0  0  0  0  0  0  0  0  0
  1  2  1  0
  2  3  1  0
  3  4  1  1
  5  3  1  0
  5  7  1  0
  5  6  1  6
  7  8  2  0
 10  9  1  1
 11  7  1  0
 11 10  1  0
 12 10  1  0
 12 16  1  0
 13 12  2  0
 15 14  1  6
 16 15  1  0
 17 15  1  0
 18 17  2  0
 19 17  1  0
M  END
$$$$
