IAA.pdb
     RDKit          3D

 19 18  0  0  1  0  0  0  0  0999 V2000
   23.7594  -14.0781  -14.2895 C   0  0  0  0  0  0  0  0  0  0  0  0
   23.1724  -13.6659  -15.5934 C   0  0  0  0  0  0  0  0  0  0  0  0
   23.0823  -12.2092  -15.8497 C   0  0  2  0  0  0  0  0  0  0  0  0
   22.1677  -11.6086  -14.7790 C   0  0  0  0  0  0  0  0  0  0  0  0
   22.6034  -11.7532  -17.1617 C   0  0  2  0  0  0  0  0  0  0  0  0
   23.2847  -12.4018  -18.2574 N   0  0  0  0  0  0  0  0  0  0  0  0
   22.5261  -10.2877  -17.3407 C   0  0  0  0  0  0  0  0  0  0  0  0
   23.5020   -9.5185  -17.1013 O   0  0  0  0  0  0  0  0  0  0  0  0
   20.1503   -7.8861  -18.8851 C   0  0  0  0  0  0  0  0  0  0  0  0
   21.2695   -8.1791  -17.9295 C   0  0  2  0  0  0  0  0  0  0  0  0
   21.3440   -9.6408  -17.7960 N   0  0  0  0  0  0  0  0  0  0  0  0
   21.0302   -7.5681  -16.5820 C   0  0  0  0  0  0  0  0  0  0  0  0
   20.3057   -8.1338  -15.7273 O   0  0  0  0  0  0  0  0  0  0  0  0
   22.6514   -4.7502  -14.6674 C   0  0  0  0  0  0  0  0  0  0  0  0
   21.4958   -5.6824  -14.9473 C   0  0  2  0  0  0  0  0  0  0  0  0
   21.6178   -6.3303  -16.2348 N   0  0  0  0  0  0  0  0  0  0  0  0
   20.1924   -5.0349  -14.8367 C   0  0  0  0  0  0  0  0  0  0  0  0
   19.5864   -4.6532  -15.8618 O   0  0  0  0  0  0  0  0  0  0  0  0
   19.5952   -4.8268  -13.6048 O   0  0  0  0  0  0  0  0  0  0  0  0
  1  2  1  0
  2  3  1  0
  3  4  1  1
  5  3  1  0
  5  7  1  0
  5  6  1  6
  7  8  2  0
 10  9  1  6
 11  7  1  0
 11 10  1  0
 12 10  1  0
 12 16  1  0
 13 12  2  0
 15 14  1  6
 16 15  1  0
 17 15  1  0
 18 17  2  0
 19 17  1  0
M  END
$$$$
