IAA.pdb
     RDKit          3D

 19 18  0  0  1  0  0  0  0  0999 V2000
   15.2965  -12.8492  -16.8172 C   0  0  0  0  0  0  0  0  0  0  0  0
   16.7557  -12.6071  -16.6528 C   0  0  0  0  0  0  0  0  0  0  0  0
   17.1487  -11.3266  -16.0192 C   0  0  2  0  0  0  0  0  0  0  0  0
   16.6654  -10.1946  -16.9295 C   0  0  0  0  0  0  0  0  0  0  0  0
   18.5688  -11.0941  -15.7228 C   0  0  2  0  0  0  0  0  0  0  0  0
   19.1706  -12.1878  -14.9970 N   0  0  0  0  0  0  0  0  0  0  0  0
   18.8909   -9.7814  -15.1238 C   0  0  0  0  0  0  0  0  0  0  0  0
   18.2959   -9.3336  -14.1007 O   0  0  0  0  0  0  0  0  0  0  0  0
   21.5585   -7.2236  -15.5327 C   0  0  0  0  0  0  0  0  0  0  0  0
   20.1863   -7.6155  -15.0689 C   0  0  2  0  0  0  0  0  0  0  0  0
   19.8959   -8.9295  -15.6599 N   0  0  0  0  0  0  0  0  0  0  0  0
   19.1442   -6.6316  -15.5075 C   0  0  0  0  0  0  0  0  0  0  0  0
   18.6726   -6.6540  -16.6705 O   0  0  0  0  0  0  0  0  0  0  0  0
   16.4851   -4.6686  -14.0406 C   0  0  0  0  0  0  0  0  0  0  0  0
   17.6901   -4.6264  -14.9511 C   0  0  2  0  0  0  0  0  0  0  0  0
   18.6611   -5.6453  -14.6176 N   0  0  0  0  0  0  0  0  0  0  0  0
   18.3354   -3.3180  -14.9938 C   0  0  0  0  0  0  0  0  0  0  0  0
   19.4882   -3.1655  -14.5339 O   0  0  0  0  0  0  0  0  0  0  0  0
   17.6953   -2.2181  -15.5398 O   0  0  0  0  0  0  0  0  0  0  0  0
  1  2  1  0
  2  3  1  0
  3  4  1  6
  5  3  1  0
  5  7  1  0
  5  6  1  1
  7  8  2  0
 10  9  1  6
 11  7  1  0
 11 10  1  0
 12 10  1  0
 12 16  1  0
 13 12  2  0
 15 14  1  1
 16 15  1  0
 17 15  1  0
 18 17  2  0
 19 17  1  0
M  END
$$$$
