IAA.pdb
     RDKit          3D

 19 18  0  0  1  0  0  0  0  0999 V2000
   19.6694  -12.8223  -21.0411 C   0  0  0  0  0  0  0  0  0  0  0  0
   20.5105  -12.5332  -19.8479 C   0  0  0  0  0  0  0  0  0  0  0  0
   20.1086  -11.3733  -19.0179 C   0  0  2  0  0  0  0  0  0  0  0  0
   20.1564  -10.1299  -19.9098 C   0  0  0  0  0  0  0  0  0  0  0  0
   20.8712  -11.0836  -17.7960 C   0  0  2  0  0  0  0  0  0  0  0  0
   21.0377  -12.2469  -16.9568 N   0  0  0  0  0  0  0  0  0  0  0  0
   20.4261   -9.9004  -17.0294 C   0  0  0  0  0  0  0  0  0  0  0  0
   20.1714   -8.7885  -17.5772 O   0  0  0  0  0  0  0  0  0  0  0  0
   19.2490   -9.2855  -13.5534 C   0  0  0  0  0  0  0  0  0  0  0  0
   19.7285   -8.7748  -14.8804 C   0  0  2  0  0  0  0  0  0  0  0  0
   20.2538   -9.9324  -15.6178 N   0  0  0  0  0  0  0  0  0  0  0  0
   20.8107   -7.7491  -14.7282 C   0  0  0  0  0  0  0  0  0  0  0  0
   22.0144   -8.0827  -14.6044 O   0  0  0  0  0  0  0  0  0  0  0  0
   20.9035   -3.9825  -15.1248 C   0  0  0  0  0  0  0  0  0  0  0  0
   21.4750   -5.3000  -14.6554 C   0  0  2  0  0  0  0  0  0  0  0  0
   20.5033   -6.3695  -14.7199 N   0  0  0  0  0  0  0  0  0  0  0  0
   22.0547   -5.2335  -13.3176 C   0  0  0  0  0  0  0  0  0  0  0  0
   23.1015   -4.5805  -13.1131 O   0  0  0  0  0  0  0  0  0  0  0  0
   21.4676   -5.8856  -12.2463 O   0  0  0  0  0  0  0  0  0  0  0  0
  1  2  1  0
  2  3  1  0
  3  4  1  6
  5  3  1  0
  5  7  1  0
  5  6  1  1
  7  8  2  0
 10  9  1  1
 11  7  1  0
 11 10  1  0
 12 10  1  0
 12 16  1  0
 13 12  2  0
 15 14  1  1
 16 15  1  0
 17 15  1  0
 18 17  2  0
 19 17  1  0
M  END
$$$$
