IAA.pdb
     RDKit          3D

 19 18  0  0  1  0  0  0  0  0999 V2000
   21.5384  -19.5623  -16.3306 C   0  0  0  0  0  0  0  0  0  0  0  0
   20.7633  -18.3003  -16.1842 C   0  0  0  0  0  0  0  0  0  0  0  0
   21.5141  -17.0357  -16.3651 C   0  0  2  0  0  0  0  0  0  0  0  0
   22.5531  -16.9523  -15.2439 C   0  0  0  0  0  0  0  0  0  0  0  0
   20.7677  -15.7703  -16.3857 C   0  0  2  0  0  0  0  0  0  0  0  0
   19.7204  -15.7597  -17.3798 N   0  0  0  0  0  0  0  0  0  0  0  0
   21.5905  -14.5427  -16.4275 C   0  0  0  0  0  0  0  0  0  0  0  0
   22.5512  -14.3375  -15.6299 O   0  0  0  0  0  0  0  0  0  0  0  0
   21.7725  -11.5002  -18.5957 C   0  0  0  0  0  0  0  0  0  0  0  0
   22.1306  -12.2558  -17.3497 C   0  0  2  0  0  0  0  0  0  0  0  0
   21.3563  -13.5048  -17.3715 N   0  0  0  0  0  0  0  0  0  0  0  0
   21.7944  -11.4836  -16.1099 C   0  0  0  0  0  0  0  0  0  0  0  0
   20.6068  -11.3471  -15.7270 O   0  0  0  0  0  0  0  0  0  0  0  0
   23.8154  -10.0943  -13.2378 C   0  0  0  0  0  0  0  0  0  0  0  0
   22.5953  -10.1132  -14.1287 C   0  0  2  0  0  0  0  0  0  0  0  0
   22.8119  -10.8843  -15.3332 N   0  0  0  0  0  0  0  0  0  0  0  0
   22.1102   -8.7799  -14.4711 C   0  0  0  0  0  0  0  0  0  0  0  0
   22.3111   -8.3067  -15.6110 O   0  0  0  0  0  0  0  0  0  0  0  0
   21.4200   -8.0079  -13.5517 O   0  0  0  0  0  0  0  0  0  0  0  0
  1  2  1  0
  2  3  1  0
  3  4  1  1
  5  3  1  0
  5  7  1  0
  5  6  1  6
  7  8  2  0
 10  9  1  6
 11  7  1  0
 11 10  1  0
 12 10  1  0
 12 16  1  0
 13 12  2  0
 15 14  1  6
 16 15  1  0
 17 15  1  0
 18 17  2  0
 19 17  1  0
M  END
$$$$
