IAA.pdb
     RDKit          3D

 19 18  0  0  1  0  0  0  0  0999 V2000
   11.4807   -9.1629   -9.8265 C   0  0  0  0  0  0  0  0  0  0  0  0
   12.8963   -9.6220   -9.8203 C   0  0  0  0  0  0  0  0  0  0  0  0
   13.8841   -8.7363  -10.4804 C   0  0  2  0  0  0  0  0  0  0  0  0
   13.4531   -8.5726  -11.9402 C   0  0  0  0  0  0  0  0  0  0  0  0
   15.3002   -9.1277  -10.4677 C   0  0  2  0  0  0  0  0  0  0  0  0
   15.7927   -9.3862   -9.1350 N   0  0  0  0  0  0  0  0  0  0  0  0
   16.2114   -8.2579  -11.2414 C   0  0  0  0  0  0  0  0  0  0  0  0
   16.3950   -7.0383  -10.9582 O   0  0  0  0  0  0  0  0  0  0  0  0
   18.4703   -8.6861  -14.1961 C   0  0  0  0  0  0  0  0  0  0  0  0
   17.7359   -7.8292  -13.2072 C   0  0  2  0  0  0  0  0  0  0  0  0
   16.9465   -8.7356  -12.3616 N   0  0  0  0  0  0  0  0  0  0  0  0
   16.8193   -6.8543  -13.8824 C   0  0  0  0  0  0  0  0  0  0  0  0
   15.7142   -7.2161  -14.3552 O   0  0  0  0  0  0  0  0  0  0  0  0
   16.3005   -3.2041  -13.8703 C   0  0  0  0  0  0  0  0  0  0  0  0
   16.3864   -4.4811  -14.6732 C   0  0  2  0  0  0  0  0  0  0  0  0
   17.1766   -5.4923  -14.0059 N   0  0  0  0  0  0  0  0  0  0  0  0
   16.8821   -4.2769  -16.0308 C   0  0  0  0  0  0  0  0  0  0  0  0
   18.0074   -4.7077  -16.3652 O   0  0  0  0  0  0  0  0  0  0  0  0
   16.1273   -3.6062  -16.9784 O   0  0  0  0  0  0  0  0  0  0  0  0
  1  2  1  0
  2  3  1  0
  3  4  1  6
  5  3  1  0
  5  7  1  0
  5  6  1  1
  7  8  2  0
 10  9  1  6
 11  7  1  0
 11 10  1  0
 12 10  1  0
 12 16  1  0
 13 12  2  0
 15 14  1  1
 16 15  1  0
 17 15  1  0
 18 17  2  0
 19 17  1  0
M  END
$$$$
