IAA.pdb
     RDKit          3D

 19 18  0  0  1  0  0  0  0  0999 V2000
   24.7128  -12.8054  -15.5148 C   0  0  0  0  0  0  0  0  0  0  0  0
   23.8008  -11.8461  -14.8346 C   0  0  0  0  0  0  0  0  0  0  0  0
   23.1272  -10.8462  -15.6961 C   0  0  2  0  0  0  0  0  0  0  0  0
   24.2167  -10.0750  -16.4457 C   0  0  0  0  0  0  0  0  0  0  0  0
   22.2294   -9.8668  -15.0688 C   0  0  2  0  0  0  0  0  0  0  0  0
   21.4032  -10.4512  -14.0388 N   0  0  0  0  0  0  0  0  0  0  0  0
   21.4491   -9.0252  -16.0008 C   0  0  0  0  0  0  0  0  0  0  0  0
   21.9939   -8.2594  -16.8481 O   0  0  0  0  0  0  0  0  0  0  0  0
   17.8982   -8.8059  -17.0629 C   0  0  0  0  0  0  0  0  0  0  0  0
   19.2651   -8.1960  -16.9570 C   0  0  2  0  0  0  0  0  0  0  0  0
   20.0267   -9.0196  -16.0076 N   0  0  0  0  0  0  0  0  0  0  0  0
   19.2113   -6.7835  -16.4586 C   0  0  0  0  0  0  0  0  0  0  0  0
   19.3881   -6.5112  -15.2461 O   0  0  0  0  0  0  0  0  0  0  0  0
   17.8423   -4.1327  -15.8366 C   0  0  0  0  0  0  0  0  0  0  0  0
   18.8326   -4.3241  -16.9614 C   0  0  2  0  0  0  0  0  0  0  0  0
   18.9586   -5.7128  -17.3461 N   0  0  0  0  0  0  0  0  0  0  0  0
   20.1498   -3.7659  -16.6717 C   0  0  0  0  0  0  0  0  0  0  0  0
   21.1645   -4.4965  -16.6887 O   0  0  0  0  0  0  0  0  0  0  0  0
   20.3117   -2.4236  -16.3724 O   0  0  0  0  0  0  0  0  0  0  0  0
  1  2  1  0
  2  3  1  0
  3  4  1  1
  5  3  1  0
  5  7  1  0
  5  6  1  1
  7  8  2  0
 10  9  1  1
 11  7  1  0
 11 10  1  0
 12 10  1  0
 12 16  1  0
 13 12  2  0
 15 14  1  1
 16 15  1  0
 17 15  1  0
 18 17  2  0
 19 17  1  0
M  END
$$$$
