IAA.pdb
     RDKit          3D

 19 18  0  0  1  0  0  0  0  0999 V2000
   18.8628  -14.9485  -19.8402 C   0  0  0  0  0  0  0  0  0  0  0  0
   19.6186  -13.8785  -19.1342 C   0  0  0  0  0  0  0  0  0  0  0  0
   18.8143  -12.8363  -18.4539 C   0  0  2  0  0  0  0  0  0  0  0  0
   17.9367  -12.1663  -19.5143 C   0  0  0  0  0  0  0  0  0  0  0  0
   19.5144  -11.7791  -17.7117 C   0  0  2  0  0  0  0  0  0  0  0  0
   20.4982  -12.3036  -16.7938 N   0  0  0  0  0  0  0  0  0  0  0  0
   18.6492  -10.7596  -17.0811 C   0  0  0  0  0  0  0  0  0  0  0  0
   17.6424  -10.2631  -17.6651 O   0  0  0  0  0  0  0  0  0  0  0  0
   18.3975   -9.1530  -13.7181 C   0  0  0  0  0  0  0  0  0  0  0  0
   18.0574   -9.2098  -15.1785 C   0  0  2  0  0  0  0  0  0  0  0  0
   18.8915  -10.2658  -15.7693 N   0  0  0  0  0  0  0  0  0  0  0  0
   18.3371   -7.9098  -15.8699 C   0  0  0  0  0  0  0  0  0  0  0  0
   19.4683   -7.6555  -16.3509 O   0  0  0  0  0  0  0  0  0  0  0  0
   16.1662   -5.0524  -17.0734 C   0  0  0  0  0  0  0  0  0  0  0  0
   17.4899   -5.6495  -16.6560 C   0  0  2  0  0  0  0  0  0  0  0  0
   17.3281   -6.9285  -16.0001 N   0  0  0  0  0  0  0  0  0  0  0  0
   18.2869   -4.7577  -15.8195 C   0  0  0  0  0  0  0  0  0  0  0  0
   18.3871   -4.9644  -14.5903 O   0  0  0  0  0  0  0  0  0  0  0  0
   18.9489   -3.6673  -16.3583 O   0  0  0  0  0  0  0  0  0  0  0  0
  1  2  1  0
  2  3  1  0
  3  4  1  6
  5  3  1  0
  5  7  1  0
  5  6  1  1
  7  8  2  0
 10  9  1  1
 11  7  1  0
 11 10  1  0
 12 10  1  0
 12 16  1  0
 13 12  2  0
 15 14  1  1
 16 15  1  0
 17 15  1  0
 18 17  2  0
 19 17  1  0
M  END
$$$$
