CPR.pdb
     RDKit          3D

 25 25  0  0  1  0  0  0  0  0999 V2000
   24.1803  -19.5543  -10.0687 N   0  0  0  0  0  0  0  0  0  0  0  0
   25.4539  -20.1227  -10.4053 C   0  0  1  0  0  0  0  0  0  0  0  0
   25.4641  -21.6075  -10.1006 C   0  0  0  0  0  0  0  0  0  0  0  0
   24.9747  -21.9364   -8.3898 S   0  0  0  0  0  0  0  0  0  0  0  0
   25.8296  -19.8593  -11.8047 C   0  0  0  0  0  0  0  0  0  0  0  0
   24.9332  -19.4098  -12.5608 O   0  0  0  0  0  0  0  0  0  0  0  0
   27.1455  -20.0879  -12.3337 N   0  0  0  0  0  0  0  0  0  0  0  0
   28.2579  -20.7115  -11.6537 C   0  0  0  0  0  0  0  0  0  0  0  0
   29.4297  -20.6471  -12.5931 C   0  0  0  0  0  0  0  0  0  0  0  0
   29.0382  -19.5562  -13.5621 C   0  0  0  0  0  0  0  0  0  0  0  0
   27.5471  -19.7211  -13.6470 C   0  0  1  0  0  0  0  0  0  0  0  0
   27.2580  -20.8517  -14.5761 C   0  0  0  0  0  0  0  0  0  0  0  0
   27.6305  -21.9966  -14.1792 O   0  0  0  0  0  0  0  0  0  0  0  0
   20.4949  -22.6456  -13.0227 N   0  0  0  0  0  0  0  0  0  0  0  0
   20.5165  -21.3679  -13.6246 C   0  0  0  0  0  0  0  0  0  0  0  0
   19.5247  -20.5432  -13.5001 N   0  0  0  0  0  0  0  0  0  0  0  0
   21.6563  -20.9950  -14.3784 N   0  0  0  0  0  0  0  0  0  0  0  0
   22.7315  -21.9229  -14.5565 C   0  0  0  0  0  0  0  0  0  0  0  0
   23.8149  -21.2307  -15.3960 C   0  0  0  0  0  0  0  0  0  0  0  0
   24.8741  -22.2767  -15.6274 C   0  0  0  0  0  0  0  0  0  0  0  0
   26.0205  -21.8176  -16.4791 C   0  0  2  0  0  0  0  0  0  0  0  0
   26.6145  -20.6777  -15.8190 N   0  0  0  0  0  0  0  0  0  0  0  0
   25.6719  -21.4511  -17.8530 C   0  0  0  0  0  0  0  0  0  0  0  0
   25.5660  -22.3320  -18.7406 O   0  0  0  0  0  0  0  0  0  0  0  0
   25.4376  -20.1468  -18.2727 O   0  0  0  0  0  0  0  0  0  0  0  0
  2  1  1  6
  2  3  1  0
  4  3  1  0
  5  2  1  0
  6  5  2  0
  7  5  1  0
  7  8  1  0
  9  8  1  0
 10  9  1  0
 10 11  1  0
 11  7  1  0
 11 12  1  6
 12 22  1  0
 13 12  2  0
 15 16  2  0
 15 14  1  0
 17 15  1  0
 18 17  1  0
 19 18  1  0
 20 19  1  0
 21 22  1  0
 21 20  1  1
 23 21  1  0
 24 23  2  0
 25 23  1  0
M  END
$$$$
