CPR.pdb
     RDKit          3D

 25 25  0  0  1  0  0  0  0  0999 V2000
   28.2633  -20.2484  -17.3470 N   0  0  0  0  0  0  0  0  0  0  0  0
   27.7118  -19.7462  -16.1213 C   0  0  1  0  0  0  0  0  0  0  0  0
   26.9593  -18.4548  -16.3736 C   0  0  0  0  0  0  0  0  0  0  0  0
   28.0918  -17.0655  -16.6225 S   0  0  0  0  0  0  0  0  0  0  0  0
   26.8613  -20.7396  -15.4443 C   0  0  0  0  0  0  0  0  0  0  0  0
   26.2412  -21.5517  -16.1746 O   0  0  0  0  0  0  0  0  0  0  0  0
   26.7110  -20.8211  -14.0180 N   0  0  0  0  0  0  0  0  0  0  0  0
   27.2750  -19.9260  -13.0334 C   0  0  0  0  0  0  0  0  0  0  0  0
   26.8994  -20.4745  -11.6852 C   0  0  0  0  0  0  0  0  0  0  0  0
   26.5550  -21.9155  -11.9804 C   0  0  0  0  0  0  0  0  0  0  0  0
   25.9572  -21.8282  -13.3561 C   0  0  1  0  0  0  0  0  0  0  0  0
   24.5454  -21.3663  -13.2195 C   0  0  0  0  0  0  0  0  0  0  0  0
   24.3677  -20.1138  -13.3030 O   0  0  0  0  0  0  0  0  0  0  0  0
   17.1894  -25.1835  -12.4860 N   0  0  0  0  0  0  0  0  0  0  0  0
   16.7154  -24.1541  -13.3292 C   0  0  0  0  0  0  0  0  0  0  0  0
   15.4586  -23.8420  -13.3771 N   0  0  0  0  0  0  0  0  0  0  0  0
   17.6487  -23.4565  -14.1345 N   0  0  0  0  0  0  0  0  0  0  0  0
   19.0450  -23.7550  -14.0336 C   0  0  0  0  0  0  0  0  0  0  0  0
   19.7577  -22.4978  -13.5146 C   0  0  0  0  0  0  0  0  0  0  0  0
   21.2244  -22.8416  -13.5056 C   0  0  0  0  0  0  0  0  0  0  0  0
   22.1150  -21.7377  -13.0171 C   0  0  2  0  0  0  0  0  0  0  0  0
   23.4663  -22.2496  -13.0095 N   0  0  0  0  0  0  0  0  0  0  0  0
   21.7909  -21.2135  -11.6891 C   0  0  0  0  0  0  0  0  0  0  0  0
   22.4078  -21.6206  -10.6749 O   0  0  0  0  0  0  0  0  0  0  0  0
   20.8106  -20.2573  -11.4502 O   0  0  0  0  0  0  0  0  0  0  0  0
  2  1  1  6
  2  3  1  0
  4  3  1  0
  5  2  1  0
  6  5  2  0
  7  5  1  0
  7  8  1  0
  9  8  1  0
 10  9  1  0
 10 11  1  0
 11  7  1  0
 11 12  1  1
 12 22  1  0
 13 12  2  0
 15 16  2  0
 15 14  1  0
 17 15  1  0
 18 17  1  0
 19 18  1  0
 20 19  1  0
 21 22  1  0
 21 20  1  1
 23 21  1  0
 24 23  2  0
 25 23  1  0
M  END
$$$$
