CPR.pdb
     RDKit          3D

 25 25  0  0  1  0  0  0  0  0999 V2000
   25.9613  -24.4149  -15.3534 N   0  0  0  0  0  0  0  0  0  0  0  0
   24.7082  -23.8362  -15.7454 C   0  0  1  0  0  0  0  0  0  0  0  0
   23.8611  -24.8603  -16.4741 C   0  0  0  0  0  0  0  0  0  0  0  0
   24.3278  -24.9866  -18.2179 S   0  0  0  0  0  0  0  0  0  0  0  0
   23.9823  -23.2530  -14.6045 C   0  0  0  0  0  0  0  0  0  0  0  0
   24.1617  -23.7863  -13.4817 O   0  0  0  0  0  0  0  0  0  0  0  0
   23.0973  -22.1268  -14.7139 N   0  0  0  0  0  0  0  0  0  0  0  0
   22.6863  -21.4610  -15.9290 C   0  0  0  0  0  0  0  0  0  0  0  0
   21.8250  -20.3003  -15.5157 C   0  0  0  0  0  0  0  0  0  0  0  0
   22.1961  -20.0915  -14.0663 C   0  0  0  0  0  0  0  0  0  0  0  0
   22.4802  -21.4920  -13.6018 C   0  0  1  0  0  0  0  0  0  0  0  0
   21.1765  -22.1613  -13.3232 C   0  0  0  0  0  0  0  0  0  0  0  0
   20.5969  -22.6727  -14.3280 O   0  0  0  0  0  0  0  0  0  0  0  0
   18.3518  -25.0616   -5.6341 N   0  0  0  0  0  0  0  0  0  0  0  0
   17.3946  -25.6145   -6.5136 C   0  0  0  0  0  0  0  0  0  0  0  0
   16.4442  -26.3836   -6.0843 N   0  0  0  0  0  0  0  0  0  0  0  0
   17.4903  -25.3111   -7.8939 N   0  0  0  0  0  0  0  0  0  0  0  0
   18.6529  -24.6488   -8.4023 C   0  0  0  0  0  0  0  0  0  0  0  0
   18.4612  -24.4576   -9.9137 C   0  0  0  0  0  0  0  0  0  0  0  0
   19.5381  -23.4928  -10.3370 C   0  0  0  0  0  0  0  0  0  0  0  0
   19.4996  -23.1223  -11.7901 C   0  0  2  0  0  0  0  0  0  0  0  0
   20.6095  -22.2297  -12.0337 N   0  0  0  0  0  0  0  0  0  0  0  0
   18.2610  -22.4852  -12.2410 C   0  0  0  0  0  0  0  0  0  0  0  0
   18.1138  -21.2422  -12.1506 O   0  0  0  0  0  0  0  0  0  0  0  0
   17.1860  -23.1776  -12.7863 O   0  0  0  0  0  0  0  0  0  0  0  0
  2  1  1  1
  2  3  1  0
  4  3  1  0
  5  2  1  0
  6  5  2  0
  7  5  1  0
  7  8  1  0
  9  8  1  0
 10  9  1  0
 10 11  1  0
 11  7  1  0
 11 12  1  6
 12 22  1  0
 13 12  2  0
 15 16  2  0
 15 14  1  0
 17 15  1  0
 18 17  1  0
 19 18  1  0
 20 19  1  0
 21 22  1  0
 21 20  1  1
 23 21  1  0
 24 23  2  0
 25 23  1  0
M  END
$$$$
