CPR.pdb
     RDKit          3D

 25 25  0  0  1  0  0  0  0  0999 V2000
   27.7954  -17.8647  -16.7628 N   0  0  0  0  0  0  0  0  0  0  0  0
   27.2786  -18.0001  -15.4312 C   0  0  1  0  0  0  0  0  0  0  0  0
   26.6462  -16.6993  -14.9778 C   0  0  0  0  0  0  0  0  0  0  0  0
   27.8853  -15.5496  -14.3319 S   0  0  0  0  0  0  0  0  0  0  0  0
   26.3367  -19.1256  -15.3105 C   0  0  0  0  0  0  0  0  0  0  0  0
   25.6108  -19.3709  -16.3055 O   0  0  0  0  0  0  0  0  0  0  0  0
   26.2121  -19.9385  -14.1326 N   0  0  0  0  0  0  0  0  0  0  0  0
   26.8514  -19.7189  -12.8551 C   0  0  0  0  0  0  0  0  0  0  0  0
   26.4714  -20.8782  -11.9768 C   0  0  0  0  0  0  0  0  0  0  0  0
   26.0323  -21.9331  -12.9651 C   0  0  0  0  0  0  0  0  0  0  0  0
   25.4117  -21.1108  -14.0589 C   0  0  1  0  0  0  0  0  0  0  0  0
   24.0345  -20.7316  -13.6292 C   0  0  0  0  0  0  0  0  0  0  0  0
   23.9623  -19.7730  -12.8028 O   0  0  0  0  0  0  0  0  0  0  0  0
   17.4633  -22.7449  -18.2442 N   0  0  0  0  0  0  0  0  0  0  0  0
   17.4757  -23.1987  -16.9066 C   0  0  0  0  0  0  0  0  0  0  0  0
   16.4592  -23.8147  -16.3903 N   0  0  0  0  0  0  0  0  0  0  0  0
   18.6341  -22.9672  -16.1251 N   0  0  0  0  0  0  0  0  0  0  0  0
   19.7678  -22.3112  -16.7025 C   0  0  0  0  0  0  0  0  0  0  0  0
   20.8915  -22.3075  -15.6562 C   0  0  0  0  0  0  0  0  0  0  0  0
   20.6225  -21.1110  -14.7811 C   0  0  0  0  0  0  0  0  0  0  0  0
   21.5778  -20.9563  -13.6349 C   0  0  2  0  0  0  0  0  0  0  0  0
   22.8769  -21.3857  -14.0995 N   0  0  0  0  0  0  0  0  0  0  0  0
   21.2285  -21.7015  -12.4241 C   0  0  0  0  0  0  0  0  0  0  0  0
   21.9025  -22.7004  -12.0735 O   0  0  0  0  0  0  0  0  0  0  0  0
   20.1623  -21.3768  -11.5934 O   0  0  0  0  0  0  0  0  0  0  0  0
  2  1  1  6
  2  3  1  0
  4  3  1  0
  5  2  1  0
  6  5  2  0
  7  5  1  0
  7  8  1  0
  9  8  1  0
 10  9  1  0
 10 11  1  0
 11  7  1  0
 11 12  1  1
 12 22  1  0
 13 12  2  0
 15 16  2  0
 15 14  1  0
 17 15  1  0
 18 17  1  0
 19 18  1  0
 20 19  1  0
 21 22  1  0
 21 20  1  6
 23 21  1  0
 24 23  2  0
 25 23  1  0
M  END
$$$$
