CPR.pdb
     RDKit          3D

 25 25  0  0  1  0  0  0  0  0999 V2000
   22.0720   -3.5865  -21.3472 N   0  0  0  0  0  0  0  0  0  0  0  0
   21.9895   -3.3977  -19.9273 C   0  0  1  0  0  0  0  0  0  0  0  0
   20.6195   -2.8737  -19.5452 C   0  0  0  0  0  0  0  0  0  0  0  0
   20.4290   -1.1301  -19.9905 S   0  0  0  0  0  0  0  0  0  0  0  0
   22.3226   -4.6233  -19.1817 C   0  0  0  0  0  0  0  0  0  0  0  0
   22.0605   -5.7182  -19.7382 O   0  0  0  0  0  0  0  0  0  0  0  0
   22.9203   -4.6245  -17.8754 N   0  0  0  0  0  0  0  0  0  0  0  0
   23.1787   -3.4750  -17.0383 C   0  0  0  0  0  0  0  0  0  0  0  0
   23.8831   -3.9834  -15.8115 C   0  0  0  0  0  0  0  0  0  0  0  0
   24.4140   -5.3285  -16.2485 C   0  0  0  0  0  0  0  0  0  0  0  0
   23.3524   -5.7993  -17.2020 C   0  0  1  0  0  0  0  0  0  0  0  0
   22.2182   -6.3439  -16.4006 C   0  0  0  0  0  0  0  0  0  0  0  0
   21.4596   -5.4800  -15.8665 O   0  0  0  0  0  0  0  0  0  0  0  0
   17.8031  -13.4885  -17.7068 N   0  0  0  0  0  0  0  0  0  0  0  0
   18.6362  -13.6953  -16.5850 C   0  0  0  0  0  0  0  0  0  0  0  0
   18.9939  -14.8850  -16.2164 N   0  0  0  0  0  0  0  0  0  0  0  0
   19.0822  -12.5651  -15.8569 N   0  0  0  0  0  0  0  0  0  0  0  0
   18.8258  -11.2472  -16.3531 C   0  0  0  0  0  0  0  0  0  0  0  0
   19.3638  -10.2444  -15.3223 C   0  0  0  0  0  0  0  0  0  0  0  0
   20.5576   -9.5977  -15.9752 C   0  0  0  0  0  0  0  0  0  0  0  0
   20.7914   -8.1741  -15.5638 C   0  0  2  0  0  0  0  0  0  0  0  0
   21.9895   -7.7257  -16.2357 N   0  0  0  0  0  0  0  0  0  0  0  0
   20.9359   -7.9547  -14.1235 C   0  0  0  0  0  0  0  0  0  0  0  0
   22.0604   -8.0470  -13.5741 O   0  0  0  0  0  0  0  0  0  0  0  0
   19.8799   -7.6374  -13.2771 O   0  0  0  0  0  0  0  0  0  0  0  0
  2  1  1  6
  2  3  1  0
  4  3  1  0
  5  2  1  0
  6  5  2  0
  7  5  1  0
  7  8  1  0
  9  8  1  0
 10  9  1  0
 10 11  1  0
 11  7  1  0
 11 12  1  1
 12 22  1  0
 13 12  2  0
 15 16  2  0
 15 14  1  0
 17 15  1  0
 18 17  1  0
 19 18  1  0
 20 19  1  0
 21 22  1  0
 21 20  1  1
 23 21  1  0
 24 23  2  0
 25 23  1  0
M  END
$$$$
