CPR.pdb
     RDKit          3D

 25 25  0  0  1  0  0  0  0  0999 V2000
   19.4115  -17.1087  -14.9245 N   0  0  0  0  0  0  0  0  0  0  0  0
   20.6978  -17.3996  -15.4897 C   0  0  1  0  0  0  0  0  0  0  0  0
   21.6047  -16.1898  -15.3831 C   0  0  0  0  0  0  0  0  0  0  0  0
   21.3983  -15.0800  -16.7975 S   0  0  0  0  0  0  0  0  0  0  0  0
   21.3171  -18.5899  -14.8828 C   0  0  0  0  0  0  0  0  0  0  0  0
   21.2563  -18.6895  -13.6323 O   0  0  0  0  0  0  0  0  0  0  0  0
   21.9736  -19.6202  -15.6385 N   0  0  0  0  0  0  0  0  0  0  0  0
   22.2252  -19.6260  -17.0617 C   0  0  0  0  0  0  0  0  0  0  0  0
   22.8640  -20.9485  -17.3822 C   0  0  0  0  0  0  0  0  0  0  0  0
   22.4938  -21.8091  -16.1971 C   0  0  0  0  0  0  0  0  0  0  0  0
   22.4868  -20.8171  -15.0686 C   0  0  1  0  0  0  0  0  0  0  0  0
   23.8985  -20.5864  -14.6455 C   0  0  0  0  0  0  0  0  0  0  0  0
   24.5583  -19.7716  -15.3581 O   0  0  0  0  0  0  0  0  0  0  0  0
   22.7780  -21.3829   -7.7493 N   0  0  0  0  0  0  0  0  0  0  0  0
   22.3075  -21.0115   -9.0283 C   0  0  0  0  0  0  0  0  0  0  0  0
   21.0445  -21.0302   -9.3177 N   0  0  0  0  0  0  0  0  0  0  0  0
   23.2514  -20.6119  -10.0059 N   0  0  0  0  0  0  0  0  0  0  0  0
   24.6518  -20.6745   -9.7164 C   0  0  0  0  0  0  0  0  0  0  0  0
   25.4011  -19.9977  -10.8731 C   0  0  0  0  0  0  0  0  0  0  0  0
   25.9756  -21.1231  -11.6935 C   0  0  0  0  0  0  0  0  0  0  0  0
   25.8495  -20.9340  -13.1763 C   0  0  2  0  0  0  0  0  0  0  0  0
   24.4789  -21.2246  -13.5298 N   0  0  0  0  0  0  0  0  0  0  0  0
   26.7426  -21.7601  -13.9908 C   0  0  0  0  0  0  0  0  0  0  0  0
   27.9399  -21.4257  -14.1632 O   0  0  0  0  0  0  0  0  0  0  0  0
   26.3539  -22.9388  -14.6166 O   0  0  0  0  0  0  0  0  0  0  0  0
  2  1  1  1
  2  3  1  0
  4  3  1  0
  5  2  1  0
  6  5  2  0
  7  5  1  0
  7  8  1  0
  9  8  1  0
 10  9  1  0
 10 11  1  0
 11  7  1  0
 11 12  1  6
 12 22  1  0
 13 12  2  0
 15 16  2  0
 15 14  1  0
 17 15  1  0
 18 17  1  0
 19 18  1  0
 20 19  1  0
 21 22  1  0
 21 20  1  1
 23 21  1  0
 24 23  2  0
 25 23  1  0
M  END
$$$$
