CPR.pdb
     RDKit          3D

 25 25  0  0  1  0  0  0  0  0999 V2000
   21.7478  -19.8137  -16.6298 N   0  0  0  0  0  0  0  0  0  0  0  0
   22.3432  -20.4020  -15.4645 C   0  0  1  0  0  0  0  0  0  0  0  0
   21.5905  -19.9788  -14.2188 C   0  0  0  0  0  0  0  0  0  0  0  0
   21.8360  -18.2221  -13.8608 S   0  0  0  0  0  0  0  0  0  0  0  0
   22.4338  -21.8685  -15.5648 C   0  0  0  0  0  0  0  0  0  0  0  0
   21.4787  -22.4618  -16.1243 O   0  0  0  0  0  0  0  0  0  0  0  0
   23.5399  -22.6354  -15.0628 N   0  0  0  0  0  0  0  0  0  0  0  0
   24.6789  -22.1360  -14.3264 C   0  0  0  0  0  0  0  0  0  0  0  0
   25.5921  -23.3077  -14.0964 C   0  0  0  0  0  0  0  0  0  0  0  0
   25.1454  -24.3058  -15.1387 C   0  0  0  0  0  0  0  0  0  0  0  0
   23.6688  -24.0416  -15.2253 C   0  0  1  0  0  0  0  0  0  0  0  0
   23.0074  -24.7252  -14.0762 C   0  0  0  0  0  0  0  0  0  0  0  0
   23.0181  -24.0890  -12.9797 O   0  0  0  0  0  0  0  0  0  0  0  0
   17.0811  -25.5643   -9.3454 N   0  0  0  0  0  0  0  0  0  0  0  0
   18.3655  -25.2144   -8.8729 C   0  0  0  0  0  0  0  0  0  0  0  0
   18.6076  -25.0756   -7.6074 N   0  0  0  0  0  0  0  0  0  0  0  0
   19.4017  -25.0141   -9.8176 N   0  0  0  0  0  0  0  0  0  0  0  0
   19.0817  -24.6526  -11.1651 C   0  0  0  0  0  0  0  0  0  0  0  0
   19.3236  -25.8829  -12.0515 C   0  0  0  0  0  0  0  0  0  0  0  0
   20.4081  -25.4774  -13.0153 C   0  0  0  0  0  0  0  0  0  0  0  0
   21.5340  -26.4623  -13.1290 C   0  0  2  0  0  0  0  0  0  0  0  0
   22.4056  -25.9962  -14.1830 N   0  0  0  0  0  0  0  0  0  0  0  0
   21.1326  -27.8418  -13.4104 C   0  0  0  0  0  0  0  0  0  0  0  0
   21.0766  -28.2612  -14.5919 O   0  0  0  0  0  0  0  0  0  0  0  0
   20.7934  -28.7668  -12.4297 O   0  0  0  0  0  0  0  0  0  0  0  0
  2  1  1  6
  2  3  1  0
  4  3  1  0
  5  2  1  0
  6  5  2  0
  7  5  1  0
  7  8  1  0
  9  8  1  0
 10  9  1  0
 10 11  1  0
 11  7  1  0
 11 12  1  1
 12 22  1  0
 13 12  2  0
 15 16  2  0
 15 14  1  0
 17 15  1  0
 18 17  1  0
 19 18  1  0
 20 19  1  0
 21 22  1  0
 21 20  1  6
 23 21  1  0
 24 23  2  0
 25 23  1  0
M  END
$$$$
