CPR.pdb
     RDKit          3D

 25 25  0  0  1  0  0  0  0  0999 V2000
   18.4108  -19.2561    3.2321 N   0  0  0  0  0  0  0  0  0  0  0  0
   18.3153  -17.8916    2.7989 C   0  0  1  0  0  0  0  0  0  0  0  0
   17.6388  -17.8160    1.4446 C   0  0  0  0  0  0  0  0  0  0  0  0
   18.6034  -18.6695    0.1735 S   0  0  0  0  0  0  0  0  0  0  0  0
   17.6336  -17.0392    3.7877 C   0  0  0  0  0  0  0  0  0  0  0  0
   17.0360  -17.6211    4.7266 O   0  0  0  0  0  0  0  0  0  0  0  0
   17.6207  -15.6039    3.7293 N   0  0  0  0  0  0  0  0  0  0  0  0
   18.2548  -14.7702    2.7334 C   0  0  0  0  0  0  0  0  0  0  0  0
   18.0208  -13.3450    3.1505 C   0  0  0  0  0  0  0  0  0  0  0  0
   17.6830  -13.4638    4.6181 C   0  0  0  0  0  0  0  0  0  0  0  0
   16.9560  -14.7775    4.6757 C   0  0  1  0  0  0  0  0  0  0  0  0
   15.5533  -14.5512    4.2214 C   0  0  0  0  0  0  0  0  0  0  0  0
   15.3661  -14.6109    2.9690 O   0  0  0  0  0  0  0  0  0  0  0  0
   12.5770  -20.2680    1.6706 N   0  0  0  0  0  0  0  0  0  0  0  0
   11.5315  -20.2158    2.6191 C   0  0  0  0  0  0  0  0  0  0  0  0
   10.5220  -21.0261    2.5604 N   0  0  0  0  0  0  0  0  0  0  0  0
   11.6038  -19.2493    3.6520 N   0  0  0  0  0  0  0  0  0  0  0  0
   12.7252  -18.3629    3.7256 C   0  0  0  0  0  0  0  0  0  0  0  0
   12.5557  -17.4943    4.9804 C   0  0  0  0  0  0  0  0  0  0  0  0
   13.7000  -16.5149    4.9495 C   0  0  0  0  0  0  0  0  0  0  0  0
   13.2847  -15.0760    5.0362 C   0  0  2  0  0  0  0  0  0  0  0  0
   14.4921  -14.2858    5.1116 N   0  0  0  0  0  0  0  0  0  0  0  0
   12.4185  -14.7418    6.1682 C   0  0  0  0  0  0  0  0  0  0  0  0
   12.9095  -14.3264    7.2458 O   0  0  0  0  0  0  0  0  0  0  0  0
   11.0330  -14.8521    6.1444 O   0  0  0  0  0  0  0  0  0  0  0  0
  2  1  1  1
  2  3  1  0
  4  3  1  0
  5  2  1  0
  6  5  2  0
  7  5  1  0
  7  8  1  0
  9  8  1  0
 10  9  1  0
 10 11  1  0
 11  7  1  0
 11 12  1  6
 12 22  1  0
 13 12  2  0
 15 16  2  0
 15 14  1  0
 17 15  1  0
 18 17  1  0
 19 18  1  0
 20 19  1  0
 21 22  1  0
 21 20  1  1
 23 21  1  0
 24 23  2  0
 25 23  1  0
M  END
$$$$
