CPR.pdb
     RDKit          3D

 25 25  0  0  1  0  0  0  0  0999 V2000
   24.2668  -19.2533   -9.4384 N   0  0  0  0  0  0  0  0  0  0  0  0
   25.2150  -20.0780  -10.1309 C   0  0  1  0  0  0  0  0  0  0  0  0
   24.9232  -21.5432   -9.8748 C   0  0  0  0  0  0  0  0  0  0  0  0
   25.1304  -21.9647   -8.1272 S   0  0  0  0  0  0  0  0  0  0  0  0
   25.2611  -19.7839  -11.5731 C   0  0  0  0  0  0  0  0  0  0  0  0
   24.3200  -19.0997  -12.0459 O   0  0  0  0  0  0  0  0  0  0  0  0
   26.3099  -20.2338  -12.4456 N   0  0  0  0  0  0  0  0  0  0  0  0
   27.4179  -21.0944  -12.0987 C   0  0  0  0  0  0  0  0  0  0  0  0
   28.2776  -21.2082  -13.3265 C   0  0  0  0  0  0  0  0  0  0  0  0
   27.8626  -20.0136  -14.1528 C   0  0  0  0  0  0  0  0  0  0  0  0
   26.4030  -19.8836  -13.8201 C   0  0  1  0  0  0  0  0  0  0  0  0
   25.6522  -20.8876  -14.6284 C   0  0  0  0  0  0  0  0  0  0  0  0
   25.8470  -22.1004  -14.3149 O   0  0  0  0  0  0  0  0  0  0  0  0
   17.9551  -22.0239  -13.5371 N   0  0  0  0  0  0  0  0  0  0  0  0
   18.8054  -23.1511  -13.4957 C   0  0  0  0  0  0  0  0  0  0  0  0
   18.5675  -24.1509  -12.7064 N   0  0  0  0  0  0  0  0  0  0  0  0
   19.9402  -23.1731  -14.3430 N   0  0  0  0  0  0  0  0  0  0  0  0
   20.2894  -22.0109  -15.1020 C   0  0  0  0  0  0  0  0  0  0  0  0
   21.5204  -22.3574  -15.9519 C   0  0  0  0  0  0  0  0  0  0  0  0
   22.6408  -21.5155  -15.3992 C   0  0  0  0  0  0  0  0  0  0  0  0
   23.8886  -21.5234  -16.2319 C   0  0  2  0  0  0  0  0  0  0  0  0
   24.7796  -20.5302  -15.6771 N   0  0  0  0  0  0  0  0  0  0  0  0
   23.6916  -21.2517  -17.6570 C   0  0  0  0  0  0  0  0  0  0  0  0
   23.3892  -22.1788  -18.4469 O   0  0  0  0  0  0  0  0  0  0  0  0
   23.8178  -19.9923  -18.2317 O   0  0  0  0  0  0  0  0  0  0  0  0
  2  1  1  1
  2  3  1  0
  4  3  1  0
  5  2  1  0
  6  5  2  0
  7  5  1  0
  7  8  1  0
  9  8  1  0
 10  9  1  0
 10 11  1  0
 11  7  1  0
 11 12  1  6
 12 22  1  0
 13 12  2  0
 15 16  2  0
 15 14  1  0
 17 15  1  0
 18 17  1  0
 19 18  1  0
 20 19  1  0
 21 22  1  0
 21 20  1  1
 23 21  1  0
 24 23  2  0
 25 23  1  0
M  END
$$$$
