CPR.pdb
     RDKit          3D

 25 25  0  0  1  0  0  0  0  0999 V2000
   17.4118  -16.8688  -15.0963 N   0  0  0  0  0  0  0  0  0  0  0  0
   18.6519  -17.2077  -14.4592 C   0  0  1  0  0  0  0  0  0  0  0  0
   18.5762  -16.9174  -12.9734 C   0  0  0  0  0  0  0  0  0  0  0  0
   18.6092  -15.1385  -12.6432 S   0  0  0  0  0  0  0  0  0  0  0  0
   19.0462  -18.6036  -14.7139 C   0  0  0  0  0  0  0  0  0  0  0  0
   18.1213  -19.4322  -14.9015 O   0  0  0  0  0  0  0  0  0  0  0  0
   20.4104  -19.0517  -14.7568 N   0  0  0  0  0  0  0  0  0  0  0  0
   21.5811  -18.3088  -14.3488 C   0  0  0  0  0  0  0  0  0  0  0  0
   22.7711  -19.1732  -14.6590 C   0  0  0  0  0  0  0  0  0  0  0  0
   22.2318  -20.1562  -15.6714 C   0  0  0  0  0  0  0  0  0  0  0  0
   20.8095  -20.3347  -15.2206 C   0  0  1  0  0  0  0  0  0  0  0  0
   20.8031  -21.2886  -14.0739 C   0  0  0  0  0  0  0  0  0  0  0  0
   21.3960  -20.8909  -13.0263 O   0  0  0  0  0  0  0  0  0  0  0  0
   16.8842  -23.5112   -7.5289 N   0  0  0  0  0  0  0  0  0  0  0  0
   17.9509  -24.4328   -7.6198 C   0  0  0  0  0  0  0  0  0  0  0  0
   18.5102  -24.9287   -6.5612 N   0  0  0  0  0  0  0  0  0  0  0  0
   18.4077  -24.8132   -8.9054 N   0  0  0  0  0  0  0  0  0  0  0  0
   18.3950  -23.8662   -9.9787 C   0  0  0  0  0  0  0  0  0  0  0  0
   18.9400  -24.5682  -11.2308 C   0  0  0  0  0  0  0  0  0  0  0  0
   19.0353  -23.4954  -12.2842 C   0  0  0  0  0  0  0  0  0  0  0  0
   20.3375  -23.4742  -13.0288 C   0  0  2  0  0  0  0  0  0  0  0  0
   20.1843  -22.5546  -14.1328 N   0  0  0  0  0  0  0  0  0  0  0  0
   20.7872  -24.7703  -13.5401 C   0  0  0  0  0  0  0  0  0  0  0  0
   20.6562  -25.0568  -14.7548 O   0  0  0  0  0  0  0  0  0  0  0  0
   21.3748  -25.7537  -12.7527 O   0  0  0  0  0  0  0  0  0  0  0  0
  2  1  1  1
  2  3  1  0
  4  3  1  0
  5  2  1  0
  6  5  2  0
  7  5  1  0
  7  8  1  0
  9  8  1  0
 10  9  1  0
 10 11  1  0
 11  7  1  0
 11 12  1  1
 12 22  1  0
 13 12  2  0
 15 16  2  0
 15 14  1  0
 17 15  1  0
 18 17  1  0
 19 18  1  0
 20 19  1  0
 21 22  1  0
 21 20  1  6
 23 21  1  0
 24 23  2  0
 25 23  1  0
M  END
$$$$
