CPR.pdb
     RDKit          3D

 25 25  0  0  1  0  0  0  0  0999 V2000
   28.0683  -20.6737  -12.6176 N   0  0  0  0  0  0  0  0  0  0  0  0
   27.7197  -20.1628  -13.9122 C   0  0  1  0  0  0  0  0  0  0  0  0
   27.3646  -21.3008  -14.8483 C   0  0  0  0  0  0  0  0  0  0  0  0
   28.8459  -22.0824  -15.5334 S   0  0  0  0  0  0  0  0  0  0  0  0
   26.6384  -19.1653  -13.8453 C   0  0  0  0  0  0  0  0  0  0  0  0
   25.8220  -19.2722  -12.8969 O   0  0  0  0  0  0  0  0  0  0  0  0
   26.4773  -18.0988  -14.7941 N   0  0  0  0  0  0  0  0  0  0  0  0
   27.3141  -17.8228  -15.9397 C   0  0  0  0  0  0  0  0  0  0  0  0
   26.7839  -16.5649  -16.5690 C   0  0  0  0  0  0  0  0  0  0  0  0
   25.9750  -15.9357  -15.4591 C   0  0  0  0  0  0  0  0  0  0  0  0
   25.4333  -17.1359  -14.7354 C   0  0  1  0  0  0  0  0  0  0  0  0
   24.2587  -17.6469  -15.4998 C   0  0  0  0  0  0  0  0  0  0  0  0
   24.5297  -18.3994  -16.4833 O   0  0  0  0  0  0  0  0  0  0  0  0
   24.1330  -22.2374  -11.9273 N   0  0  0  0  0  0  0  0  0  0  0  0
   23.1514  -21.3551  -11.4242 C   0  0  0  0  0  0  0  0  0  0  0  0
   23.0258  -21.1343  -10.1535 N   0  0  0  0  0  0  0  0  0  0  0  0
   22.2923  -20.7046  -12.3436 N   0  0  0  0  0  0  0  0  0  0  0  0
   22.0311  -21.2959  -13.6206 C   0  0  0  0  0  0  0  0  0  0  0  0
   22.5319  -20.3245  -14.6992 C   0  0  0  0  0  0  0  0  0  0  0  0
   21.5385  -19.1920  -14.7133 C   0  0  0  0  0  0  0  0  0  0  0  0
   21.8453  -18.1131  -15.7094 C   0  0  2  0  0  0  0  0  0  0  0  0
   22.9270  -17.3240  -15.1661 N   0  0  0  0  0  0  0  0  0  0  0  0
   20.7250  -17.2310  -16.0414 C   0  0  0  0  0  0  0  0  0  0  0  0
   20.6742  -16.0642  -15.5821 O   0  0  0  0  0  0  0  0  0  0  0  0
   19.6650  -17.5982  -16.8623 O   0  0  0  0  0  0  0  0  0  0  0  0
  2  1  1  1
  2  3  1  0
  4  3  1  0
  5  2  1  0
  6  5  2  0
  7  5  1  0
  7  8  1  0
  9  8  1  0
 10  9  1  0
 10 11  1  0
 11  7  1  0
 11 12  1  6
 12 22  1  0
 13 12  2  0
 15 16  2  0
 15 14  1  0
 17 15  1  0
 18 17  1  0
 19 18  1  0
 20 19  1  0
 21 22  1  0
 21 20  1  1
 23 21  1  0
 24 23  2  0
 25 23  1  0
M  END
$$$$
