CPR.pdb
     RDKit          3D

 25 25  0  0  1  0  0  0  0  0999 V2000
   17.0856  -12.7218  -14.7708 N   0  0  0  0  0  0  0  0  0  0  0  0
   16.8702  -11.3184  -14.9772 C   0  0  1  0  0  0  0  0  0  0  0  0
   15.4086  -11.0489  -15.2747 C   0  0  0  0  0  0  0  0  0  0  0  0
   14.9341  -11.6885  -16.8997 S   0  0  0  0  0  0  0  0  0  0  0  0
   17.3452  -10.5087  -13.8425 C   0  0  0  0  0  0  0  0  0  0  0  0
   17.3373  -11.0530  -12.7107 O   0  0  0  0  0  0  0  0  0  0  0  0
   17.8071   -9.1542  -13.9674 N   0  0  0  0  0  0  0  0  0  0  0  0
   17.8367   -8.3550  -15.1713 C   0  0  0  0  0  0  0  0  0  0  0  0
   18.4749   -7.0443  -14.8042 C   0  0  0  0  0  0  0  0  0  0  0  0
   19.2096   -7.3627  -13.5232 C   0  0  0  0  0  0  0  0  0  0  0  0
   18.3138   -8.3859  -12.8841 C   0  0  1  0  0  0  0  0  0  0  0  0
   17.1830   -7.6671  -12.2285 C   0  0  0  0  0  0  0  0  0  0  0  0
   16.2050   -7.3800  -12.9824 O   0  0  0  0  0  0  0  0  0  0  0  0
   11.2708   -9.5231   -7.8609 N   0  0  0  0  0  0  0  0  0  0  0  0
   11.4059   -8.3738   -7.0509 C   0  0  0  0  0  0  0  0  0  0  0  0
   10.5071   -8.0530   -6.1742 N   0  0  0  0  0  0  0  0  0  0  0  0
   12.5566   -7.5640   -7.2132 N   0  0  0  0  0  0  0  0  0  0  0  0
   13.6746   -8.0510   -7.9628 C   0  0  0  0  0  0  0  0  0  0  0  0
   14.6842   -6.9023   -8.1000 C   0  0  0  0  0  0  0  0  0  0  0  0
   15.8113   -7.4546   -8.9331 C   0  0  0  0  0  0  0  0  0  0  0  0
   15.9848   -6.7815  -10.2624 C   0  0  2  0  0  0  0  0  0  0  0  0
   17.1843   -7.3200  -10.8616 N   0  0  0  0  0  0  0  0  0  0  0  0
   16.0828   -5.3214  -10.2164 C   0  0  0  0  0  0  0  0  0  0  0  0
   17.2038   -4.7585  -10.1792 O   0  0  0  0  0  0  0  0  0  0  0  0
   14.9843   -4.4696  -10.2110 O   0  0  0  0  0  0  0  0  0  0  0  0
  2  1  1  1
  2  3  1  0
  4  3  1  0
  5  2  1  0
  6  5  2  0
  7  5  1  0
  7  8  1  0
  9  8  1  0
 10  9  1  0
 10 11  1  0
 11  7  1  0
 11 12  1  6
 12 22  1  0
 13 12  2  0
 15 16  2  0
 15 14  1  0
 17 15  1  0
 18 17  1  0
 19 18  1  0
 20 19  1  0
 21 22  1  0
 21 20  1  1
 23 21  1  0
 24 23  2  0
 25 23  1  0
M  END
$$$$
