WIS.pdb
     RDKit          3D

 29 30  0  0  1  0  0  0  0  0999 V2000
    6.5775  -17.8060   22.7011 N   0  0  0  0  0  0  0  0  0  0  0  0
    7.3597  -16.7587   22.0784 C   0  0  1  0  0  0  0  0  0  0  0  0
    6.4070  -15.8407   21.3165 C   0  0  0  0  0  0  0  0  0  0  0  0
    6.9613  -15.4339   20.0078 C   0  0  0  0  0  0  0  0  0  0  0  0
    7.1011  -16.1915   18.8750 C   0  0  0  0  0  0  0  0  0  0  0  0
    7.6518  -15.4071   17.9309 N   0  0  0  0  0  0  0  0  0  0  0  0
    7.8682  -14.1607   18.4352 C   0  0  0  0  0  0  0  0  0  0  0  0
    8.4059  -13.0156   17.8658 C   0  0  0  0  0  0  0  0  0  0  0  0
    8.5135  -11.8568   18.6186 C   0  0  0  0  0  0  0  0  0  0  0  0
    8.0729  -11.8920   19.9271 C   0  0  0  0  0  0  0  0  0  0  0  0
    7.5406  -13.0075   20.5079 C   0  0  0  0  0  0  0  0  0  0  0  0
    7.4393  -14.1712   19.7313 C   0  0  0  0  0  0  0  0  0  0  0  0
    8.0271  -15.9802   23.1384 C   0  0  0  0  0  0  0  0  0  0  0  0
    8.9465  -15.1842   22.8191 O   0  0  0  0  0  0  0  0  0  0  0  0
    7.6431  -12.1952   27.4297 C   0  0  0  0  0  0  0  0  0  0  0  0
    8.4811  -13.4685   27.1637 C   0  0  0  0  0  0  0  0  0  0  0  0
    7.7688  -14.2444   26.0950 C   0  0  2  0  0  0  0  0  0  0  0  0
    6.4073  -14.6017   26.6569 C   0  0  0  0  0  0  0  0  0  0  0  0
    8.5003  -15.4549   25.5766 C   0  0  2  0  0  0  0  0  0  0  0  0
    7.6843  -16.0820   24.5134 N   0  0  0  0  0  0  0  0  0  0  0  0
    8.8479  -16.4576   26.5982 C   0  0  0  0  0  0  0  0  0  0  0  0
    7.9310  -17.0831   27.2507 O   0  0  0  0  0  0  0  0  0  0  0  0
   12.4078  -18.3543   26.7153 O   0  0  0  0  0  0  0  0  0  0  0  0
   11.3030  -19.0009   27.2772 C   0  0  0  0  0  0  0  0  0  0  0  0
   10.4317  -17.9302   27.8980 C   0  0  2  0  0  0  0  0  0  0  0  0
   10.1576  -16.8507   26.9743 N   0  0  0  0  0  0  0  0  0  0  0  0
   11.0109  -17.4072   29.1281 C   0  0  0  0  0  0  0  0  0  0  0  0
   11.2388  -16.1787   29.2992 O   0  0  0  0  0  0  0  0  0  0  0  0
   11.3345  -18.2596   30.1666 O   0  0  0  0  0  0  0  0  0  0  0  0
  2  1  1  1
  2 13  1  0
  3  2  1  0
  4  3  1  0
  4 12  1  0
  5  6  1  0
  5  4  2  0
  6  7  1  0
  7  8  1  0
  7 12  2  0
  8  9  2  0
  9 10  1  0
 11 10  2  0
 12 11  1  0
 13 14  2  0
 16 15  1  0
 17 16  1  0
 17 19  1  0
 17 18  1  1
 19 21  1  0
 19 20  1  6
 20 13  1  0
 21 22  2  0
 23 24  1  0
 25 24  1  6
 25 27  1  0
 26 21  1  0
 26 25  1  0
 27 28  2  0
 27 29  1  0
M  END
$$$$
