WIS.pdb
     RDKit          3D

 29 30  0  0  1  0  0  0  0  0999 V2000
    5.0709  -18.8337   23.1931 N   0  0  0  0  0  0  0  0  0  0  0  0
    5.8798  -18.4290   24.3238 C   0  0  1  0  0  0  0  0  0  0  0  0
    6.9656  -19.4813   24.5345 C   0  0  0  0  0  0  0  0  0  0  0  0
    6.4547  -20.6636   25.2603 C   0  0  0  0  0  0  0  0  0  0  0  0
    5.9380  -21.8199   24.7379 C   0  0  0  0  0  0  0  0  0  0  0  0
    5.6022  -22.6140   25.7706 N   0  0  0  0  0  0  0  0  0  0  0  0
    5.8931  -21.9904   26.9458 C   0  0  0  0  0  0  0  0  0  0  0  0
    5.7360  -22.3888   28.2653 C   0  0  0  0  0  0  0  0  0  0  0  0
    6.1238  -21.5420   29.2918 C   0  0  0  0  0  0  0  0  0  0  0  0
    6.6596  -20.3155   28.9513 C   0  0  0  0  0  0  0  0  0  0  0  0
    6.8234  -19.9027   27.6599 C   0  0  0  0  0  0  0  0  0  0  0  0
    6.4256  -20.7725   26.6338 C   0  0  0  0  0  0  0  0  0  0  0  0
    6.5202  -17.1398   24.0031 C   0  0  0  0  0  0  0  0  0  0  0  0
    6.9010  -16.9283   22.8237 O   0  0  0  0  0  0  0  0  0  0  0  0
    5.9060  -12.5194   27.0490 C   0  0  0  0  0  0  0  0  0  0  0  0
    6.0493  -13.3546   25.7543 C   0  0  0  0  0  0  0  0  0  0  0  0
    7.4339  -13.9327   25.7587 C   0  0  2  0  0  0  0  0  0  0  0  0
    8.3885  -12.7657   25.6043 C   0  0  0  0  0  0  0  0  0  0  0  0
    7.6898  -15.0095   24.7369 C   0  0  2  0  0  0  0  0  0  0  0  0
    6.7323  -16.1146   24.9636 N   0  0  0  0  0  0  0  0  0  0  0  0
    9.0657  -15.5352   24.7169 C   0  0  0  0  0  0  0  0  0  0  0  0
    9.6944  -15.7859   25.8122 O   0  0  0  0  0  0  0  0  0  0  0  0
   11.4460  -15.9380   21.3406 O   0  0  0  0  0  0  0  0  0  0  0  0
   11.5636  -16.9847   22.2600 C   0  0  0  0  0  0  0  0  0  0  0  0
   11.1441  -16.4392   23.6081 C   0  0  2  0  0  0  0  0  0  0  0  0
    9.8351  -15.8244   23.5612 N   0  0  0  0  0  0  0  0  0  0  0  0
   12.1233  -15.5015   24.1409 C   0  0  0  0  0  0  0  0  0  0  0  0
   12.0259  -15.0060   25.2965 O   0  0  0  0  0  0  0  0  0  0  0  0
   13.2117  -15.1190   23.3801 O   0  0  0  0  0  0  0  0  0  0  0  0
  2  1  1  6
  2 13  1  0
  3  2  1  0
  4  3  1  0
  4 12  1  0
  5  6  1  0
  5  4  2  0
  6  7  1  0
  7  8  1  0
  7 12  2  0
  8  9  2  0
  9 10  1  0
 11 10  2  0
 12 11  1  0
 13 14  2  0
 16 15  1  0
 17 16  1  0
 17 19  1  0
 17 18  1  6
 19 21  1  0
 19 20  1  1
 20 13  1  0
 21 22  2  0
 23 24  1  0
 25 24  1  6
 25 27  1  0
 26 21  1  0
 26 25  1  0
 27 28  2  0
 27 29  1  0
M  END
$$$$
