WIS.pdb
     RDKit          3D

 29 30  0  0  1  0  0  0  0  0999 V2000
    7.0431  -15.1594   20.5145 N   0  0  0  0  0  0  0  0  0  0  0  0
    6.6724  -15.7868   21.7657 C   0  0  1  0  0  0  0  0  0  0  0  0
    6.8580  -17.2948   21.6166 C   0  0  0  0  0  0  0  0  0  0  0  0
    5.7881  -17.9041   20.7982 C   0  0  0  0  0  0  0  0  0  0  0  0
    5.8476  -18.3059   19.4898 C   0  0  0  0  0  0  0  0  0  0  0  0
    4.6397  -18.8009   19.1648 N   0  0  0  0  0  0  0  0  0  0  0  0
    3.8057  -18.7249   20.2388 C   0  0  0  0  0  0  0  0  0  0  0  0
    2.4805  -19.0997   20.4063 C   0  0  0  0  0  0  0  0  0  0  0  0
    1.8592  -18.9071   21.6302 C   0  0  0  0  0  0  0  0  0  0  0  0
    2.5991  -18.3401   22.6493 C   0  0  0  0  0  0  0  0  0  0  0  0
    3.9041  -17.9637   22.5070 C   0  0  0  0  0  0  0  0  0  0  0  0
    4.5169  -18.1660   21.2614 C   0  0  0  0  0  0  0  0  0  0  0  0
    7.5782  -15.2964   22.8212 C   0  0  0  0  0  0  0  0  0  0  0  0
    8.7447  -14.9487   22.5063 O   0  0  0  0  0  0  0  0  0  0  0  0
    5.9163  -11.8028   26.4307 C   0  0  0  0  0  0  0  0  0  0  0  0
    6.8837  -12.4923   25.4392 C   0  0  0  0  0  0  0  0  0  0  0  0
    7.3893  -13.7333   26.1142 C   0  0  2  0  0  0  0  0  0  0  0  0
    8.2370  -13.2730   27.2832 C   0  0  0  0  0  0  0  0  0  0  0  0
    8.1300  -14.6982   25.2258 C   0  0  2  0  0  0  0  0  0  0  0  0
    7.2005  -15.1947   24.1870 N   0  0  0  0  0  0  0  0  0  0  0  0
    8.7538  -15.8352   25.9244 C   0  0  0  0  0  0  0  0  0  0  0  0
    8.0695  -16.5770   26.7239 O   0  0  0  0  0  0  0  0  0  0  0  0
   12.7127  -16.8411   25.5499 O   0  0  0  0  0  0  0  0  0  0  0  0
   11.8782  -17.9445   25.7516 C   0  0  0  0  0  0  0  0  0  0  0  0
   10.6326  -17.4367   26.4457 C   0  0  2  0  0  0  0  0  0  0  0  0
   10.1068  -16.2459   25.8140 N   0  0  0  0  0  0  0  0  0  0  0  0
   10.8634  -17.1959   27.8637 C   0  0  0  0  0  0  0  0  0  0  0  0
   10.6594  -16.0733   28.4008 O   0  0  0  0  0  0  0  0  0  0  0  0
   11.3222  -18.2120   28.6802 O   0  0  0  0  0  0  0  0  0  0  0  0
  2  1  1  6
  2 13  1  0
  3  2  1  0
  4  3  1  0
  4 12  1  0
  5  6  1  0
  5  4  2  0
  6  7  1  0
  7  8  1  0
  7 12  2  0
  8  9  2  0
  9 10  1  0
 11 10  2  0
 12 11  1  0
 13 14  2  0
 16 15  1  0
 17 16  1  0
 17 19  1  0
 17 18  1  1
 19 21  1  0
 19 20  1  6
 20 13  1  0
 21 22  2  0
 23 24  1  0
 25 24  1  6
 25 27  1  0
 26 21  1  0
 26 25  1  0
 27 28  2  0
 27 29  1  0
M  END
$$$$
