WIS.pdb
     RDKit          3D

 29 30  0  0  1  0  0  0  0  0999 V2000
    8.6590  -17.3433   25.5206 N   0  0  0  0  0  0  0  0  0  0  0  0
    7.2446  -17.3954   25.2148 C   0  0  1  0  0  0  0  0  0  0  0  0
    6.5053  -16.5239   26.2270 C   0  0  0  0  0  0  0  0  0  0  0  0
    7.3423  -15.4031   26.7054 C   0  0  0  0  0  0  0  0  0  0  0  0
    8.5965  -15.4568   27.2540 C   0  0  0  0  0  0  0  0  0  0  0  0
    8.9659  -14.1952   27.5399 N   0  0  0  0  0  0  0  0  0  0  0  0
    7.9735  -13.3324   27.1857 C   0  0  0  0  0  0  0  0  0  0  0  0
    7.8755  -11.9516   27.2764 C   0  0  0  0  0  0  0  0  0  0  0  0
    6.7293  -11.3113   26.8323 C   0  0  0  0  0  0  0  0  0  0  0  0
    5.7152  -12.0892   26.3088 C   0  0  0  0  0  0  0  0  0  0  0  0
    5.7900  -13.4492   26.2098 C   0  0  0  0  0  0  0  0  0  0  0  0
    6.9574  -14.0804   26.6642 C   0  0  0  0  0  0  0  0  0  0  0  0
    7.0373  -16.8394   23.8647 C   0  0  0  0  0  0  0  0  0  0  0  0
    5.8671  -16.7706   23.4100 O   0  0  0  0  0  0  0  0  0  0  0  0
    8.0867  -12.1642   22.0501 C   0  0  0  0  0  0  0  0  0  0  0  0
    7.5248  -13.5742   22.3508 C   0  0  0  0  0  0  0  0  0  0  0  0
    8.2628  -14.5360   21.4667 C   0  0  2  0  0  0  0  0  0  0  0  0
    8.0617  -14.0545   20.0438 C   0  0  0  0  0  0  0  0  0  0  0  0
    7.8869  -15.9854   21.6300 C   0  0  2  0  0  0  0  0  0  0  0  0
    8.0979  -16.3732   23.0424 N   0  0  0  0  0  0  0  0  0  0  0  0
    8.6021  -16.9184   20.7423 C   0  0  0  0  0  0  0  0  0  0  0  0
    9.8503  -17.1779   20.9224 O   0  0  0  0  0  0  0  0  0  0  0  0
    6.8578  -18.5173   17.5151 O   0  0  0  0  0  0  0  0  0  0  0  0
    7.9049  -19.3547   17.9111 C   0  0  0  0  0  0  0  0  0  0  0  0
    8.8006  -18.5433   18.8222 C   0  0  2  0  0  0  0  0  0  0  0  0
    8.0468  -17.6188   19.6412 N   0  0  0  0  0  0  0  0  0  0  0  0
    9.8303  -17.8327   18.0760 C   0  0  0  0  0  0  0  0  0  0  0  0
    9.9158  -16.5745   18.0723 O   0  0  0  0  0  0  0  0  0  0  0  0
   10.7643  -18.5309   17.3344 O   0  0  0  0  0  0  0  0  0  0  0  0
  2  1  1  1
  2 13  1  0
  3  2  1  0
  4  3  1  0
  4 12  1  0
  5  6  1  0
  5  4  2  0
  6  7  1  0
  7  8  1  0
  7 12  2  0
  8  9  2  0
  9 10  1  0
 11 10  2  0
 12 11  1  0
 13 14  2  0
 16 15  1  0
 17 16  1  0
 17 19  1  0
 17 18  1  6
 19 21  1  0
 19 20  1  1
 20 13  1  0
 21 22  2  0
 23 24  1  0
 25 24  1  6
 25 27  1  0
 26 21  1  0
 26 25  1  0
 27 28  2  0
 27 29  1  0
M  END
$$$$
