WIS.pdb
     RDKit          3D

 29 30  0  0  1  0  0  0  0  0999 V2000
    6.1405  -18.4853   24.7652 N   0  0  0  0  0  0  0  0  0  0  0  0
    6.3913  -17.0787   24.5305 C   0  0  1  0  0  0  0  0  0  0  0  0
    7.2236  -16.5422   25.6925 C   0  0  0  0  0  0  0  0  0  0  0  0
    6.7038  -15.2522   26.1941 C   0  0  0  0  0  0  0  0  0  0  0  0
    5.4444  -14.9671   26.6517 C   0  0  0  0  0  0  0  0  0  0  0  0
    5.4275  -13.6686   27.0030 N   0  0  0  0  0  0  0  0  0  0  0  0
    6.6513  -13.1144   26.7799 C   0  0  0  0  0  0  0  0  0  0  0  0
    7.1315  -11.8279   26.9777 C   0  0  0  0  0  0  0  0  0  0  0  0
    8.4465  -11.5266   26.6600 C   0  0  0  0  0  0  0  0  0  0  0  0
    9.2372  -12.5380   26.1508 C   0  0  0  0  0  0  0  0  0  0  0  0
    8.7858  -13.8109   25.9479 C   0  0  0  0  0  0  0  0  0  0  0  0
    7.4523  -14.0979   26.2750 C   0  0  0  0  0  0  0  0  0  0  0  0
    7.1685  -16.9437   23.2844 C   0  0  0  0  0  0  0  0  0  0  0  0
    7.9646  -17.8624   22.9634 O   0  0  0  0  0  0  0  0  0  0  0  0
    7.9392  -12.6311   18.8547 C   0  0  0  0  0  0  0  0  0  0  0  0
    8.4495  -13.9941   19.3803 C   0  0  0  0  0  0  0  0  0  0  0  0
    7.6196  -14.3367   20.5826 C   0  0  2  0  0  0  0  0  0  0  0  0
    7.7390  -13.1650   21.5366 C   0  0  0  0  0  0  0  0  0  0  0  0
    7.9556  -15.6443   21.2505 C   0  0  2  0  0  0  0  0  0  0  0  0
    7.0654  -15.8216   22.4192 N   0  0  0  0  0  0  0  0  0  0  0  0
    9.3616  -15.7888   21.6655 C   0  0  0  0  0  0  0  0  0  0  0  0
    9.8173  -15.1576   22.6910 O   0  0  0  0  0  0  0  0  0  0  0  0
   11.2815  -18.3424   22.9771 O   0  0  0  0  0  0  0  0  0  0  0  0
   12.1448  -18.0018   21.9314 C   0  0  0  0  0  0  0  0  0  0  0  0
   11.7298  -16.6305   21.4433 C   0  0  2  0  0  0  0  0  0  0  0  0
   10.3420  -16.5969   21.0353 N   0  0  0  0  0  0  0  0  0  0  0  0
   12.5853  -16.1592   20.3626 C   0  0  0  0  0  0  0  0  0  0  0  0
   13.8292  -16.0060   20.5027 O   0  0  0  0  0  0  0  0  0  0  0  0
   12.0482  -15.8596   19.1251 O   0  0  0  0  0  0  0  0  0  0  0  0
  2  1  1  1
  2 13  1  0
  3  2  1  0
  4  3  1  0
  4 12  1  0
  5  6  1  0
  5  4  2  0
  6  7  1  0
  7  8  1  0
  7 12  2  0
  8  9  2  0
  9 10  1  0
 11 10  2  0
 12 11  1  0
 13 14  2  0
 16 15  1  0
 17 16  1  0
 17 19  1  0
 17 18  1  1
 19 21  1  0
 19 20  1  1
 20 13  1  0
 21 22  2  0
 23 24  1  0
 25 24  1  6
 25 27  1  0
 26 21  1  0
 26 25  1  0
 27 28  2  0
 27 29  1  0
M  END
$$$$
