WIS.pdb
     RDKit          3D

 29 30  0  0  1  0  0  0  0  0999 V2000
    6.6417  -17.0812   25.3633 N   0  0  0  0  0  0  0  0  0  0  0  0
    7.1707  -15.8734   24.7652 C   0  0  1  0  0  0  0  0  0  0  0  0
    8.4541  -15.4986   25.5022 C   0  0  0  0  0  0  0  0  0  0  0  0
    8.1810  -14.6902   26.7095 C   0  0  0  0  0  0  0  0  0  0  0  0
    8.5164  -14.9680   28.0084 C   0  0  0  0  0  0  0  0  0  0  0  0
    8.0662  -13.9524   28.7671 N   0  0  0  0  0  0  0  0  0  0  0  0
    7.4483  -13.0279   27.9809 C   0  0  0  0  0  0  0  0  0  0  0  0
    6.8307  -11.8233   28.2846 C   0  0  0  0  0  0  0  0  0  0  0  0
    6.2704  -11.0614   27.2714 C   0  0  0  0  0  0  0  0  0  0  0  0
    6.3522  -11.5424   25.9793 C   0  0  0  0  0  0  0  0  0  0  0  0
    6.9550  -12.7247   25.6574 C   0  0  0  0  0  0  0  0  0  0  0  0
    7.5167  -13.4828   26.6955 C   0  0  0  0  0  0  0  0  0  0  0  0
    7.4952  -16.1537   23.3541 C   0  0  0  0  0  0  0  0  0  0  0  0
    7.3677  -17.3283   22.9240 O   0  0  0  0  0  0  0  0  0  0  0  0
    7.3403  -11.9428   19.8362 C   0  0  0  0  0  0  0  0  0  0  0  0
    7.0127  -13.3373   20.4214 C   0  0  0  0  0  0  0  0  0  0  0  0
    8.2385  -14.1842   20.2438 C   0  0  2  0  0  0  0  0  0  0  0  0
    8.3797  -14.4309   18.7551 C   0  0  0  0  0  0  0  0  0  0  0  0
    8.2594  -15.4673   21.0326 C   0  0  2  0  0  0  0  0  0  0  0  0
    7.9482  -15.1594   22.4461 N   0  0  0  0  0  0  0  0  0  0  0  0
    9.5182  -16.2281   20.9512 C   0  0  0  0  0  0  0  0  0  0  0  0
    9.7495  -17.0213   19.9638 O   0  0  0  0  0  0  0  0  0  0  0  0
   12.4960  -15.8574   23.6972 O   0  0  0  0  0  0  0  0  0  0  0  0
   12.9765  -16.2078   22.4319 C   0  0  0  0  0  0  0  0  0  0  0  0
   11.8381  -16.8824   21.6971 C   0  0  2  0  0  0  0  0  0  0  0  0
   10.5827  -16.1886   21.8875 N   0  0  0  0  0  0  0  0  0  0  0  0
   11.7037  -18.2824   22.0761 C   0  0  0  0  0  0  0  0  0  0  0  0
   10.6315  -18.7573   22.5403 O   0  0  0  0  0  0  0  0  0  0  0  0
   12.7694  -19.1508   21.9352 O   0  0  0  0  0  0  0  0  0  0  0  0
  2  1  1  1
  2 13  1  0
  3  2  1  0
  4  3  1  0
  4 12  1  0
  5  6  1  0
  5  4  2  0
  6  7  1  0
  7  8  1  0
  7 12  2  0
  8  9  2  0
  9 10  1  0
 11 10  2  0
 12 11  1  0
 13 14  2  0
 16 15  1  0
 17 16  1  0
 17 19  1  0
 17 18  1  6
 19 21  1  0
 19 20  1  1
 20 13  1  0
 21 22  2  0
 23 24  1  0
 25 24  1  1
 25 27  1  0
 26 21  1  0
 26 25  1  0
 27 28  2  0
 27 29  1  0
M  END
$$$$
