WIS.pdb
     RDKit          3D

 29 30  0  0  1  0  0  0  0  0999 V2000
    5.7812  -18.4262   24.5616 N   0  0  0  0  0  0  0  0  0  0  0  0
    6.2124  -17.0447   24.5150 C   0  0  1  0  0  0  0  0  0  0  0  0
    6.8277  -16.6912   25.8667 C   0  0  0  0  0  0  0  0  0  0  0  0
    6.4803  -15.3177   26.2888 C   0  0  0  0  0  0  0  0  0  0  0  0
    5.2359  -14.7890   26.5101 C   0  0  0  0  0  0  0  0  0  0  0  0
    5.4027  -13.5058   26.8781 N   0  0  0  0  0  0  0  0  0  0  0  0
    6.7297  -13.2002   26.8976 C   0  0  0  0  0  0  0  0  0  0  0  0
    7.4017  -12.0267   27.2070 C   0  0  0  0  0  0  0  0  0  0  0  0
    8.7858  -11.9883   27.1454 C   0  0  0  0  0  0  0  0  0  0  0  0
    9.4491  -13.1406   26.7718 C   0  0  0  0  0  0  0  0  0  0  0  0
    8.8084  -14.3064   26.4629 C   0  0  0  0  0  0  0  0  0  0  0  0
    7.4074  -14.3271   26.5307 C   0  0  0  0  0  0  0  0  0  0  0  0
    7.2455  -16.9123   23.4709 C   0  0  0  0  0  0  0  0  0  0  0  0
    7.9566  -17.9106   23.1909 O   0  0  0  0  0  0  0  0  0  0  0  0
    7.1555  -12.4094   20.0879 C   0  0  0  0  0  0  0  0  0  0  0  0
    7.1263  -13.9148   20.4444 C   0  0  0  0  0  0  0  0  0  0  0  0
    8.4447  -14.2376   21.0839 C   0  0  2  0  0  0  0  0  0  0  0  0
    9.5014  -14.0413   20.0152 C   0  0  0  0  0  0  0  0  0  0  0  0
    8.5378  -15.5970   21.7261 C   0  0  2  0  0  0  0  0  0  0  0  0
    7.4828  -15.7066   22.7578 N   0  0  0  0  0  0  0  0  0  0  0  0
    9.8492  -15.9196   22.3145 C   0  0  0  0  0  0  0  0  0  0  0  0
   10.3068  -15.2536   23.3169 O   0  0  0  0  0  0  0  0  0  0  0  0
   11.7996  -19.3168   21.5374 O   0  0  0  0  0  0  0  0  0  0  0  0
   12.2989  -18.6650   22.6689 C   0  0  0  0  0  0  0  0  0  0  0  0
   12.0236  -17.1879   22.4867 C   0  0  2  0  0  0  0  0  0  0  0  0
   10.7286  -16.9471   21.8878 N   0  0  0  0  0  0  0  0  0  0  0  0
   13.0684  -16.5347   21.7098 C   0  0  0  0  0  0  0  0  0  0  0  0
   14.2647  -16.4713   22.1041 O   0  0  0  0  0  0  0  0  0  0  0  0
   12.7740  -15.9529   20.4913 O   0  0  0  0  0  0  0  0  0  0  0  0
  2  1  1  1
  2 13  1  0
  3  2  1  0
  4  3  1  0
  4 12  1  0
  5  6  1  0
  5  4  2  0
  6  7  1  0
  7  8  1  0
  7 12  2  0
  8  9  2  0
  9 10  1  0
 11 10  2  0
 12 11  1  0
 13 14  2  0
 16 15  1  0
 17 16  1  0
 17 19  1  0
 17 18  1  6
 19 21  1  0
 19 20  1  1
 20 13  1  0
 21 22  2  0
 23 24  1  0
 25 24  1  6
 25 27  1  0
 26 21  1  0
 26 25  1  0
 27 28  2  0
 27 29  1  0
M  END
$$$$
