WIS.pdb
     RDKit          3D

 29 30  0  0  1  0  0  0  0  0999 V2000
    5.5900  -18.1828   24.1785 N   0  0  0  0  0  0  0  0  0  0  0  0
    6.1641  -16.8540   24.1469 C   0  0  1  0  0  0  0  0  0  0  0  0
    6.8331  -16.5913   25.4939 C   0  0  0  0  0  0  0  0  0  0  0  0
    6.4012  -15.3061   26.0832 C   0  0  0  0  0  0  0  0  0  0  0  0
    5.1736  -14.9802   26.5968 C   0  0  0  0  0  0  0  0  0  0  0  0
    5.2395  -13.7049   27.0202 N   0  0  0  0  0  0  0  0  0  0  0  0
    6.4852  -13.2057   26.7885 C   0  0  0  0  0  0  0  0  0  0  0  0
    7.0419  -11.9605   27.0418 C   0  0  0  0  0  0  0  0  0  0  0  0
    8.3618  -11.7129   26.6986 C   0  0  0  0  0  0  0  0  0  0  0  0
    9.0794  -12.7346   26.1083 C   0  0  0  0  0  0  0  0  0  0  0  0
    8.5521  -13.9675   25.8497 C   0  0  0  0  0  0  0  0  0  0  0  0
    7.2148  -14.2004   26.2037 C   0  0  0  0  0  0  0  0  0  0  0  0
    7.1901  -16.8128   23.0883 C   0  0  0  0  0  0  0  0  0  0  0  0
    7.8172  -17.8664   22.8098 O   0  0  0  0  0  0  0  0  0  0  0  0
    7.2006  -12.4644   19.5612 C   0  0  0  0  0  0  0  0  0  0  0  0
    7.1306  -13.9536   19.9754 C   0  0  0  0  0  0  0  0  0  0  0  0
    8.4632  -14.3047   20.5689 C   0  0  2  0  0  0  0  0  0  0  0  0
    9.4729  -14.2189   19.4418 C   0  0  0  0  0  0  0  0  0  0  0  0
    8.5258  -15.6299   21.2824 C   0  0  2  0  0  0  0  0  0  0  0  0
    7.5112  -15.6363   22.3594 N   0  0  0  0  0  0  0  0  0  0  0  0
    9.8459  -15.9776   21.8359 C   0  0  0  0  0  0  0  0  0  0  0  0
   10.4223  -15.2173   22.7004 O   0  0  0  0  0  0  0  0  0  0  0  0
   11.6620  -19.5509   21.1984 O   0  0  0  0  0  0  0  0  0  0  0  0
   12.1439  -18.8696   22.3200 C   0  0  0  0  0  0  0  0  0  0  0  0
   11.9212  -17.3934   22.0711 C   0  0  2  0  0  0  0  0  0  0  0  0
   10.6112  -17.1282   21.5168 N   0  0  0  0  0  0  0  0  0  0  0  0
   12.9553  -16.8269   21.2158 C   0  0  0  0  0  0  0  0  0  0  0  0
   14.1430  -16.6644   21.6077 O   0  0  0  0  0  0  0  0  0  0  0  0
   12.6599  -16.4426   19.9216 O   0  0  0  0  0  0  0  0  0  0  0  0
  2  1  1  1
  2 13  1  0
  3  2  1  0
  4  3  1  0
  4 12  1  0
  5  6  1  0
  5  4  2  0
  6  7  1  0
  7  8  1  0
  7 12  2  0
  8  9  2  0
  9 10  1  0
 11 10  2  0
 12 11  1  0
 13 14  2  0
 16 15  1  0
 17 16  1  0
 17 19  1  0
 17 18  1  6
 19 21  1  0
 19 20  1  1
 20 13  1  0
 21 22  2  0
 23 24  1  0
 25 24  1  6
 25 27  1  0
 26 21  1  0
 26 25  1  0
 27 28  2  0
 27 29  1  0
M  END
$$$$
