WIS.pdb
     RDKit          3D

 29 30  0  0  1  0  0  0  0  0999 V2000
   10.4157  -16.1673   21.9683 N   0  0  0  0  0  0  0  0  0  0  0  0
    9.7618  -15.5909   23.1244 C   0  0  1  0  0  0  0  0  0  0  0  0
    8.2921  -16.0030   23.0960 C   0  0  0  0  0  0  0  0  0  0  0  0
    7.3915  -14.8318   23.0434 C   0  0  0  0  0  0  0  0  0  0  0  0
    6.7266  -14.3229   21.9590 C   0  0  0  0  0  0  0  0  0  0  0  0
    6.0264  -13.2544   22.3806 N   0  0  0  0  0  0  0  0  0  0  0  0
    6.2286  -13.0671   23.7142 C   0  0  0  0  0  0  0  0  0  0  0  0
    5.7368  -12.1172   24.5976 C   0  0  0  0  0  0  0  0  0  0  0  0
    6.1108  -12.1574   25.9316 C   0  0  0  0  0  0  0  0  0  0  0  0
    6.9727  -13.1595   26.3319 C   0  0  0  0  0  0  0  0  0  0  0  0
    7.4690  -14.1046   25.4802 C   0  0  0  0  0  0  0  0  0  0  0  0
    7.0798  -14.0486   24.1336 C   0  0  0  0  0  0  0  0  0  0  0  0
   10.3889  -16.1426   24.3399 C   0  0  0  0  0  0  0  0  0  0  0  0
   11.3410  -16.9545   24.2163 O   0  0  0  0  0  0  0  0  0  0  0  0
   10.0510  -13.1165   29.0033 C   0  0  0  0  0  0  0  0  0  0  0  0
   10.6179  -13.8690   27.7759 C   0  0  0  0  0  0  0  0  0  0  0  0
   10.3603  -15.3298   28.0022 C   0  0  2  0  0  0  0  0  0  0  0  0
   11.0941  -15.7047   29.2743 C   0  0  0  0  0  0  0  0  0  0  0  0
   10.7211  -16.2367   26.8549 C   0  0  2  0  0  0  0  0  0  0  0  0
    9.9716  -15.8033   25.6549 N   0  0  0  0  0  0  0  0  0  0  0  0
   10.4905  -17.6712   27.0984 C   0  0  0  0  0  0  0  0  0  0  0  0
    9.3366  -18.1018   27.4736 O   0  0  0  0  0  0  0  0  0  0  0  0
   13.3162  -20.4674   26.3767 O   0  0  0  0  0  0  0  0  0  0  0  0
   12.0301  -21.0149   26.3477 C   0  0  0  0  0  0  0  0  0  0  0  0
   11.1436  -20.1072   27.1730 C   0  0  2  0  0  0  0  0  0  0  0  0
   11.4464  -18.7091   26.9556 N   0  0  0  0  0  0  0  0  0  0  0  0
   11.2165  -20.4247   28.5928 C   0  0  0  0  0  0  0  0  0  0  0  0
   11.6141  -19.5918   29.4523 O   0  0  0  0  0  0  0  0  0  0  0  0
   10.8440  -21.6743   29.0502 O   0  0  0  0  0  0  0  0  0  0  0  0
  2  1  1  6
  2 13  1  0
  3  2  1  0
  4  3  1  0
  4 12  1  0
  5  6  1  0
  5  4  2  0
  6  7  1  0
  7  8  1  0
  7 12  2  0
  8  9  2  0
  9 10  1  0
 11 10  2  0
 12 11  1  0
 13 14  2  0
 16 15  1  0
 17 16  1  0
 17 19  1  0
 17 18  1  1
 19 21  1  0
 19 20  1  6
 20 13  1  0
 21 22  2  0
 23 24  1  0
 25 24  1  6
 25 27  1  0
 26 21  1  0
 26 25  1  0
 27 28  2  0
 27 29  1  0
M  END
$$$$
