WIS.pdb
     RDKit          3D

 29 30  0  0  1  0  0  0  0  0999 V2000
    6.3543  -17.3468   25.2175 N   0  0  0  0  0  0  0  0  0  0  0  0
    7.1795  -16.2451   24.7685 C   0  0  1  0  0  0  0  0  0  0  0  0
    8.5211  -16.3281   25.4923 C   0  0  0  0  0  0  0  0  0  0  0  0
    8.5002  -15.5991   26.7783 C   0  0  0  0  0  0  0  0  0  0  0  0
    8.9680  -16.0170   27.9963 C   0  0  0  0  0  0  0  0  0  0  0  0
    8.7378  -15.0271   28.8777 N   0  0  0  0  0  0  0  0  0  0  0  0
    8.1314  -13.9819   28.2497 C   0  0  0  0  0  0  0  0  0  0  0  0
    7.6985  -12.7497   28.7177 C   0  0  0  0  0  0  0  0  0  0  0  0
    7.1010  -11.8526   27.8462 C   0  0  0  0  0  0  0  0  0  0  0  0
    6.9594  -12.2304   26.5254 C   0  0  0  0  0  0  0  0  0  0  0  0
    7.3779  -13.4375   26.0430 C   0  0  0  0  0  0  0  0  0  0  0  0
    7.9804  -14.3330   26.9390 C   0  0  0  0  0  0  0  0  0  0  0  0
    7.4091  -16.3931   23.3192 C   0  0  0  0  0  0  0  0  0  0  0  0
    7.3268  -17.5378   22.8056 O   0  0  0  0  0  0  0  0  0  0  0  0
    7.2314  -12.0022   19.9950 C   0  0  0  0  0  0  0  0  0  0  0  0
    6.9740  -13.4238   20.5490 C   0  0  0  0  0  0  0  0  0  0  0  0
    8.2453  -14.1999   20.3676 C   0  0  2  0  0  0  0  0  0  0  0  0
    8.4158  -14.4048   18.8756 C   0  0  0  0  0  0  0  0  0  0  0  0
    8.3263  -15.4977   21.1279 C   0  0  2  0  0  0  0  0  0  0  0  0
    7.7212  -15.3023   22.4640 N   0  0  0  0  0  0  0  0  0  0  0  0
    9.6832  -16.0533   21.2691 C   0  0  0  0  0  0  0  0  0  0  0  0
   10.2037  -16.2418   22.4316 O   0  0  0  0  0  0  0  0  0  0  0  0
   10.2640  -19.5724   21.3082 O   0  0  0  0  0  0  0  0  0  0  0  0
   10.0485  -18.8412   20.1363 C   0  0  0  0  0  0  0  0  0  0  0  0
   11.1105  -17.7640   20.0847 C   0  0  2  0  0  0  0  0  0  0  0  0
   10.5450  -16.4381   20.2105 N   0  0  0  0  0  0  0  0  0  0  0  0
   11.9165  -17.8563   18.8749 C   0  0  0  0  0  0  0  0  0  0  0  0
   11.4258  -17.7083   17.7226 O   0  0  0  0  0  0  0  0  0  0  0  0
   13.2719  -18.1139   18.9551 O   0  0  0  0  0  0  0  0  0  0  0  0
  2  1  1  1
  2 13  1  0
  3  2  1  0
  4  3  1  0
  4 12  1  0
  5  6  1  0
  5  4  2  0
  6  7  1  0
  7  8  1  0
  7 12  2  0
  8  9  2  0
  9 10  1  0
 11 10  2  0
 12 11  1  0
 13 14  2  0
 16 15  1  0
 17 16  1  0
 17 19  1  0
 17 18  1  6
 19 21  1  0
 19 20  1  1
 20 13  1  0
 21 22  2  0
 23 24  1  0
 25 24  1  6
 25 27  1  0
 26 21  1  0
 26 25  1  0
 27 28  2  0
 27 29  1  0
M  END
$$$$
