WIS.pdb
     RDKit          3D

 29 30  0  0  1  0  0  0  0  0999 V2000
    5.9709  -18.2427   24.4048 N   0  0  0  0  0  0  0  0  0  0  0  0
    6.4211  -16.8722   24.2796 C   0  0  1  0  0  0  0  0  0  0  0  0
    7.1465  -16.4889   25.5671 C   0  0  0  0  0  0  0  0  0  0  0  0
    6.5542  -15.2905   26.1983 C   0  0  0  0  0  0  0  0  0  0  0  0
    5.2608  -15.1011   26.6084 C   0  0  0  0  0  0  0  0  0  0  0  0
    5.1788  -13.8612   27.1238 N   0  0  0  0  0  0  0  0  0  0  0  0
    6.3941  -13.2507   27.0528 C   0  0  0  0  0  0  0  0  0  0  0  0
    6.8175  -11.9895   27.4463 C   0  0  0  0  0  0  0  0  0  0  0  0
    8.1380  -11.6149   27.2546 C   0  0  0  0  0  0  0  0  0  0  0  0
    8.9916  -12.5293   26.6693 C   0  0  0  0  0  0  0  0  0  0  0  0
    8.5968  -13.7755   26.2742 C   0  0  0  0  0  0  0  0  0  0  0  0
    7.2567  -14.1378   26.4760 C   0  0  0  0  0  0  0  0  0  0  0  0
    7.3714  -16.7931   23.1546 C   0  0  0  0  0  0  0  0  0  0  0  0
    7.9013  -17.8522   22.7323 O   0  0  0  0  0  0  0  0  0  0  0  0
    7.3802  -12.0928   20.1761 C   0  0  0  0  0  0  0  0  0  0  0  0
    7.2302  -13.6163   20.4013 C   0  0  0  0  0  0  0  0  0  0  0  0
    8.5895  -14.1402   20.7610 C   0  0  2  0  0  0  0  0  0  0  0  0
    9.4395  -14.0267   19.5114 C   0  0  0  0  0  0  0  0  0  0  0  0
    8.6159  -15.5320   21.3365 C   0  0  2  0  0  0  0  0  0  0  0  0
    7.7237  -15.5737   22.5163 N   0  0  0  0  0  0  0  0  0  0  0  0
    9.9533  -16.0296   21.7023 C   0  0  0  0  0  0  0  0  0  0  0  0
   10.5737  -15.5659   22.7308 O   0  0  0  0  0  0  0  0  0  0  0  0
   11.2043  -19.4327   22.3190 O   0  0  0  0  0  0  0  0  0  0  0  0
   12.1679  -18.9462   21.4306 C   0  0  0  0  0  0  0  0  0  0  0  0
   12.0242  -17.4397   21.4027 C   0  0  2  0  0  0  0  0  0  0  0  0
   10.6911  -17.0290   21.0180 N   0  0  0  0  0  0  0  0  0  0  0  0
   13.0144  -16.8177   20.5342 C   0  0  0  0  0  0  0  0  0  0  0  0
   12.6942  -16.1487   19.5141 O   0  0  0  0  0  0  0  0  0  0  0  0
   14.3631  -16.9443   20.8078 O   0  0  0  0  0  0  0  0  0  0  0  0
  2  1  1  1
  2 13  1  0
  3  2  1  0
  4  3  1  0
  4 12  1  0
  5  6  1  0
  5  4  2  0
  6  7  1  0
  7  8  1  0
  7 12  2  0
  8  9  2  0
  9 10  1  0
 11 10  2  0
 12 11  1  0
 13 14  2  0
 16 15  1  0
 17 16  1  0
 17 19  1  0
 17 18  1  6
 19 21  1  0
 19 20  1  1
 20 13  1  0
 21 22  2  0
 23 24  1  0
 25 24  1  6
 25 27  1  0
 26 21  1  0
 26 25  1  0
 27 28  2  0
 27 29  1  0
M  END
$$$$
