WIS.pdb
     RDKit          3D

 29 30  0  0  1  0  0  0  0  0999 V2000
    6.1091  -17.6282   25.4657 N   0  0  0  0  0  0  0  0  0  0  0  0
    6.7707  -16.4108   25.0451 C   0  0  1  0  0  0  0  0  0  0  0  0
    8.0956  -16.3040   25.7961 C   0  0  0  0  0  0  0  0  0  0  0  0
    8.0498  -15.2698   26.8515 C   0  0  0  0  0  0  0  0  0  0  0  0
    8.2911  -15.4166   28.1921 C   0  0  0  0  0  0  0  0  0  0  0  0
    8.1335  -14.2095   28.7646 N   0  0  0  0  0  0  0  0  0  0  0  0
    7.7958  -13.2904   27.8181 C   0  0  0  0  0  0  0  0  0  0  0  0
    7.5308  -11.9314   27.9047 C   0  0  0  0  0  0  0  0  0  0  0  0
    7.2048  -11.2186   26.7616 C   0  0  0  0  0  0  0  0  0  0  0  0
    7.1567  -11.9038   25.5634 C   0  0  0  0  0  0  0  0  0  0  0  0
    7.4136  -13.2406   25.4548 C   0  0  0  0  0  0  0  0  0  0  0  0
    7.7419  -13.9463   26.6219 C   0  0  0  0  0  0  0  0  0  0  0  0
    7.0475  -16.5043   23.5996 C   0  0  0  0  0  0  0  0  0  0  0  0
    7.0116  -17.6330   23.0467 O   0  0  0  0  0  0  0  0  0  0  0  0
    7.5289  -12.7174   18.7237 C   0  0  0  0  0  0  0  0  0  0  0  0
    7.8467  -14.1474   19.2220 C   0  0  0  0  0  0  0  0  0  0  0  0
    7.4844  -14.1931   20.6774 C   0  0  2  0  0  0  0  0  0  0  0  0
    8.2353  -13.0579   21.3441 C   0  0  0  0  0  0  0  0  0  0  0  0
    7.7284  -15.5111   21.3647 C   0  0  2  0  0  0  0  0  0  0  0  0
    7.3554  -15.3778   22.7905 N   0  0  0  0  0  0  0  0  0  0  0  0
    9.1037  -16.0269   21.2530 C   0  0  0  0  0  0  0  0  0  0  0  0
   10.0730  -15.4712   21.8927 O   0  0  0  0  0  0  0  0  0  0  0  0
    9.9823  -19.3500   19.1480 O   0  0  0  0  0  0  0  0  0  0  0  0
   10.9568  -19.0978   20.1183 C   0  0  0  0  0  0  0  0  0  0  0  0
   10.8843  -17.6218   20.4455 C   0  0  2  0  0  0  0  0  0  0  0  0
    9.5204  -17.1398   20.4789 N   0  0  0  0  0  0  0  0  0  0  0  0
   11.6794  -16.8233   19.5224 C   0  0  0  0  0  0  0  0  0  0  0  0
   11.1693  -15.9420   18.7784 O   0  0  0  0  0  0  0  0  0  0  0  0
   13.0456  -17.0112   19.4326 O   0  0  0  0  0  0  0  0  0  0  0  0
  2  1  1  1
  2 13  1  0
  3  2  1  0
  4  3  1  0
  4 12  1  0
  5  6  1  0
  5  4  2  0
  6  7  1  0
  7  8  1  0
  7 12  2  0
  8  9  2  0
  9 10  1  0
 11 10  2  0
 12 11  1  0
 13 14  2  0
 16 15  1  0
 17 16  1  0
 17 19  1  0
 17 18  1  1
 19 21  1  0
 19 20  1  1
 20 13  1  0
 21 22  2  0
 23 24  1  0
 25 24  1  6
 25 27  1  0
 26 21  1  0
 26 25  1  0
 27 28  2  0
 27 29  1  0
M  END
$$$$
