PMY.pdb
     RDKit          3D

 28 29  0  0  1  0  0  0  0  0999 V2000
   27.7233  -19.4502  -15.0500 N   0  0  0  0  0  0  0  0  0  0  0  0
   29.0637  -19.2695  -15.6268 C   0  0  0  0  0  0  0  0  0  0  0  0
   29.7755  -20.5784  -15.2876 C   0  0  0  0  0  0  0  0  0  0  0  0
   28.6697  -21.6073  -15.2836 C   0  0  0  0  0  0  0  0  0  0  0  0
   27.3868  -20.8179  -15.4539 C   0  0  1  0  0  0  0  0  0  0  0  0
   26.3023  -21.3477  -14.5844 C   0  0  0  0  0  0  0  0  0  0  0  0
   25.7625  -22.4833  -14.8125 O   0  0  0  0  0  0  0  0  0  0  0  0
   25.5497  -19.9397   -8.2857 C   0  0  0  0  0  0  0  0  0  0  0  0
   26.8385  -21.0234   -8.9565 S   0  0  0  0  0  0  0  0  0  0  0  0
   26.4720  -21.3980  -10.6889 C   0  0  0  0  0  0  0  0  0  0  0  0
   25.2011  -20.7670  -11.1528 C   0  0  0  0  0  0  0  0  0  0  0  0
   24.8429  -21.0704  -12.5661 C   0  0  2  0  0  0  0  0  0  0  0  0
   25.8741  -20.5678  -13.4913 N   0  0  0  0  0  0  0  0  0  0  0  0
   23.5837  -20.3943  -12.9637 C   0  0  0  0  0  0  0  0  0  0  0  0
   23.4610  -19.1254  -12.9921 O   0  0  0  0  0  0  0  0  0  0  0  0
   16.0612  -18.2652  -16.8535 O   0  0  0  0  0  0  0  0  0  0  0  0
   17.2970  -18.7305  -16.4383 C   0  0  0  0  0  0  0  0  0  0  0  0
   18.2978  -17.9019  -15.9876 C   0  0  0  0  0  0  0  0  0  0  0  0
   19.5266  -18.3685  -15.5753 C   0  0  0  0  0  0  0  0  0  0  0  0
   19.7588  -19.7257  -15.6186 C   0  0  0  0  0  0  0  0  0  0  0  0
   21.0317  -20.3692  -15.2203 C   0  0  0  0  0  0  0  0  0  0  0  0
   21.1933  -20.4615  -13.7190 C   0  0  2  0  0  0  0  0  0  0  0  0
   22.4155  -21.1073  -13.3436 N   0  0  0  0  0  0  0  0  0  0  0  0
   20.0591  -21.1238  -13.0694 C   0  0  0  0  0  0  0  0  0  0  0  0
   18.9505  -20.3709  -12.6563 O   0  0  0  0  0  0  0  0  0  0  0  0
   18.7471  -20.5629  -16.0740 C   0  0  0  0  0  0  0  0  0  0  0  0
   17.5308  -20.0981  -16.4814 C   0  0  0  0  0  0  0  0  0  0  0  0
   20.0239  -22.3643  -12.8557 O   0  0  0  0  0  0  0  0  0  0  0  0
  1  5  1  0
  1  2  1  0
  2  3  1  0
  4  3  1  0
  5  4  1  0
  6 13  1  0
  5  6  1  1
  7  6  2  0
  9  8  1  0
 10  9  1  0
 12 11  1  1
 11 10  1  0
 12 13  1  0
 14 12  1  0
 15 14  2  0
 17 16  1  0
 17 27  2  0
 18 17  1  0
 19 18  2  0
 19 20  1  0
 20 26  2  0
 21 20  1  0
 22 21  1  6
 22 24  1  0
 22 23  1  0
 23 14  1  0
 24 25  1  0
 26 27  1  0
 28 24  2  0
M  END
$$$$
