PMY.pdb
     RDKit          3D

 28 29  0  0  1  0  0  0  0  0999 V2000
   17.4352  -13.7855    6.0826 N   0  0  0  0  0  0  0  0  0  0  0  0
   16.8322  -12.5258    5.6231 C   0  0  0  0  0  0  0  0  0  0  0  0
   17.9501  -11.8723    4.8118 C   0  0  0  0  0  0  0  0  0  0  0  0
   18.7181  -13.0397    4.2384 C   0  0  0  0  0  0  0  0  0  0  0  0
   18.1087  -14.2727    4.8760 C   0  0  1  0  0  0  0  0  0  0  0  0
   19.1522  -15.2657    5.2472 C   0  0  0  0  0  0  0  0  0  0  0  0
   19.9155  -15.7887    4.3659 O   0  0  0  0  0  0  0  0  0  0  0  0
   24.4135  -14.9917   10.3296 C   0  0  0  0  0  0  0  0  0  0  0  0
   22.6604  -15.4470   10.2609 S   0  0  0  0  0  0  0  0  0  0  0  0
   22.2167  -15.8895    8.5628 C   0  0  0  0  0  0  0  0  0  0  0  0
   20.7781  -16.2647    8.4282 C   0  0  0  0  0  0  0  0  0  0  0  0
   20.3457  -16.5564    7.0332 C   0  0  2  0  0  0  0  0  0  0  0  0
   19.2875  -15.6251    6.6033 N   0  0  0  0  0  0  0  0  0  0  0  0
   19.7559  -17.9130    6.9206 C   0  0  0  0  0  0  0  0  0  0  0  0
   18.5245  -18.1513    7.1500 O   0  0  0  0  0  0  0  0  0  0  0  0
   17.7476  -25.8430    3.9952 O   0  0  0  0  0  0  0  0  0  0  0  0
   18.4658  -24.7063    4.3240 C   0  0  0  0  0  0  0  0  0  0  0  0
   19.4911  -24.7057    5.2405 C   0  0  0  0  0  0  0  0  0  0  0  0
   20.2037  -23.5723    5.5654 C   0  0  0  0  0  0  0  0  0  0  0  0
   19.8706  -22.3897    4.9425 C   0  0  0  0  0  0  0  0  0  0  0  0
   20.5378  -21.0928    5.1992 C   0  0  0  0  0  0  0  0  0  0  0  0
   19.9425  -20.3541    6.3776 C   0  0  2  0  0  0  0  0  0  0  0  0
   20.5170  -19.0532    6.5489 N   0  0  0  0  0  0  0  0  0  0  0  0
   20.0428  -21.1124    7.6275 C   0  0  0  0  0  0  0  0  0  0  0  0
   18.9860  -21.9408    8.0314 O   0  0  0  0  0  0  0  0  0  0  0  0
   18.8345  -22.3906    4.0161 C   0  0  0  0  0  0  0  0  0  0  0  0
   18.1306  -23.5146    3.6959 C   0  0  0  0  0  0  0  0  0  0  0  0
   21.0520  -21.0596    8.3787 O   0  0  0  0  0  0  0  0  0  0  0  0
  1  5  1  0
  1  2  1  0
  2  3  1  0
  4  3  1  0
  5  4  1  0
  6 13  1  0
  5  6  1  1
  7  6  2  0
  9  8  1  0
 10  9  1  0
 12 11  1  1
 11 10  1  0
 12 13  1  0
 14 12  1  0
 15 14  2  0
 17 16  1  0
 17 27  2  0
 18 17  1  0
 19 18  2  0
 19 20  1  0
 20 26  2  0
 21 20  1  0
 22 21  1  6
 22 24  1  0
 22 23  1  0
 23 14  1  0
 24 25  1  0
 26 27  1  0
 28 24  2  0
M  END
$$$$
