PMY.pdb
     RDKit          3D

 28 29  0  0  1  0  0  0  0  0999 V2000
   27.9378  -19.3645  -15.5113 N   0  0  0  0  0  0  0  0  0  0  0  0
   29.0690  -19.1971  -16.4356 C   0  0  0  0  0  0  0  0  0  0  0  0
   29.8506  -20.5008  -16.2797 C   0  0  0  0  0  0  0  0  0  0  0  0
   28.7914  -21.5273  -15.9549 C   0  0  0  0  0  0  0  0  0  0  0  0
   27.5082  -20.7388  -15.7826 C   0  0  1  0  0  0  0  0  0  0  0  0
   26.7042  -21.2503  -14.6404 C   0  0  0  0  0  0  0  0  0  0  0  0
   26.1508  -22.4014  -14.6798 O   0  0  0  0  0  0  0  0  0  0  0  0
   25.7560  -20.9528   -6.8569 C   0  0  0  0  0  0  0  0  0  0  0  0
   26.5997  -20.2867   -8.3163 S   0  0  0  0  0  0  0  0  0  0  0  0
   25.7462  -20.8404   -9.8133 C   0  0  0  0  0  0  0  0  0  0  0  0
   26.4708  -20.4530  -11.0597 C   0  0  0  0  0  0  0  0  0  0  0  0
   25.8233  -20.9171  -12.3180 C   0  0  2  0  0  0  0  0  0  0  0  0
   26.5607  -20.4352  -13.4995 N   0  0  0  0  0  0  0  0  0  0  0  0
   24.4495  -20.3736  -12.4536 C   0  0  0  0  0  0  0  0  0  0  0  0
   24.2079  -19.1257  -12.5529 O   0  0  0  0  0  0  0  0  0  0  0  0
   16.2672  -19.1104  -15.0712 O   0  0  0  0  0  0  0  0  0  0  0  0
   17.4968  -19.6753  -14.7798 C   0  0  0  0  0  0  0  0  0  0  0  0
   17.6411  -20.7913  -13.9892 C   0  0  0  0  0  0  0  0  0  0  0  0
   18.8666  -21.3507  -13.7011 C   0  0  0  0  0  0  0  0  0  0  0  0
   19.9944  -20.7628  -14.2302 C   0  0  0  0  0  0  0  0  0  0  0  0
   21.3755  -21.2439  -13.9976 C   0  0  0  0  0  0  0  0  0  0  0  0
   21.9771  -20.6948  -12.7228 C   0  0  2  0  0  0  0  0  0  0  0  0
   23.2954  -21.2010  -12.4830 N   0  0  0  0  0  0  0  0  0  0  0  0
   21.1302  -20.9336  -11.5511 C   0  0  0  0  0  0  0  0  0  0  0  0
   20.1903  -19.9703  -11.1576 O   0  0  0  0  0  0  0  0  0  0  0  0
   19.8482  -19.6351  -15.0294 C   0  0  0  0  0  0  0  0  0  0  0  0
   18.6332  -19.0832  -15.3134 C   0  0  0  0  0  0  0  0  0  0  0  0
   21.2018  -21.9836  -10.8597 O   0  0  0  0  0  0  0  0  0  0  0  0
  1  5  1  0
  1  2  1  0
  2  3  1  0
  4  3  1  0
  5  4  1  0
  6 13  1  0
  5  6  1  1
  7  6  2  0
  9  8  1  0
 10  9  1  0
 12 11  1  1
 11 10  1  0
 12 13  1  0
 14 12  1  0
 15 14  2  0
 17 16  1  0
 17 27  2  0
 18 17  1  0
 19 18  2  0
 19 20  1  0
 20 26  2  0
 21 20  1  0
 22 21  1  6
 22 24  1  0
 22 23  1  0
 23 14  1  0
 24 25  1  0
 26 27  1  0
 28 24  2  0
M  END
$$$$
