PMY.pdb
     RDKit          3D

 28 29  0  0  1  0  0  0  0  0999 V2000
   25.6916  -16.9655  -15.3380 N   0  0  0  0  0  0  0  0  0  0  0  0
   26.4843  -15.7630  -15.6338 C   0  0  0  0  0  0  0  0  0  0  0  0
   27.9256  -16.2687  -15.5914 C   0  0  0  0  0  0  0  0  0  0  0  0
   27.8246  -17.7041  -16.0506 C   0  0  0  0  0  0  0  0  0  0  0  0
   26.3394  -17.9838  -16.1689 C   0  0  1  0  0  0  0  0  0  0  0  0
   25.9989  -19.3399  -15.6612 C   0  0  0  0  0  0  0  0  0  0  0  0
   26.2753  -20.3903  -16.3343 O   0  0  0  0  0  0  0  0  0  0  0  0
   26.1845  -20.3655   -9.4836 C   0  0  0  0  0  0  0  0  0  0  0  0
   27.4695  -21.0086  -10.5885 S   0  0  0  0  0  0  0  0  0  0  0  0
   26.9430  -20.8090  -12.3087 C   0  0  0  0  0  0  0  0  0  0  0  0
   25.4636  -20.9277  -12.4701 C   0  0  0  0  0  0  0  0  0  0  0  0
   24.9821  -20.7679  -13.8703 C   0  0  2  0  0  0  0  0  0  0  0  0
   25.3586  -19.4494  -14.4104 N   0  0  0  0  0  0  0  0  0  0  0  0
   23.5015  -20.8238  -13.9445 C   0  0  0  0  0  0  0  0  0  0  0  0
   22.7459  -20.2685  -13.0806 O   0  0  0  0  0  0  0  0  0  0  0  0
   18.9511  -18.4787  -10.0865 O   0  0  0  0  0  0  0  0  0  0  0  0
   19.4477  -18.8315  -11.3295 C   0  0  0  0  0  0  0  0  0  0  0  0
   20.4313  -18.1186  -11.9742 C   0  0  0  0  0  0  0  0  0  0  0  0
   20.9230  -18.4726  -13.2114 C   0  0  0  0  0  0  0  0  0  0  0  0
   20.4033  -19.5904  -13.8262 C   0  0  0  0  0  0  0  0  0  0  0  0
   20.8235  -20.0837  -15.1578 C   0  0  0  0  0  0  0  0  0  0  0  0
   21.3825  -21.4886  -15.1092 C   0  0  2  0  0  0  0  0  0  0  0  0
   22.8093  -21.5008  -14.9837 N   0  0  0  0  0  0  0  0  0  0  0  0
   20.9759  -22.2975  -16.2614 C   0  0  0  0  0  0  0  0  0  0  0  0
   19.6211  -22.5966  -16.4648 O   0  0  0  0  0  0  0  0  0  0  0  0
   19.4094  -20.3108  -13.1743 C   0  0  0  0  0  0  0  0  0  0  0  0
   18.9244  -19.9582  -11.9488 C   0  0  0  0  0  0  0  0  0  0  0  0
   21.7976  -22.7509  -17.1011 O   0  0  0  0  0  0  0  0  0  0  0  0
  1  5  1  0
  1  2  1  0
  2  3  1  0
  4  3  1  0
  5  4  1  0
  6 13  1  0
  5  6  1  1
  7  6  2  0
  9  8  1  0
 10  9  1  0
 12 11  1  1
 11 10  1  0
 12 13  1  0
 14 12  1  0
 15 14  2  0
 17 16  1  0
 17 27  2  0
 18 17  1  0
 19 18  2  0
 19 20  1  0
 20 26  2  0
 21 20  1  0
 22 21  1  6
 22 24  1  0
 22 23  1  0
 23 14  1  0
 24 25  1  0
 26 27  1  0
 28 24  2  0
M  END
$$$$
