PMY.pdb
     RDKit          3D

 28 29  0  0  1  0  0  0  0  0999 V2000
   24.9894  -13.1672  -17.9200 N   0  0  0  0  0  0  0  0  0  0  0  0
   25.1483  -14.5389  -17.4150 C   0  0  0  0  0  0  0  0  0  0  0  0
   26.3935  -14.4507  -16.5339 C   0  0  0  0  0  0  0  0  0  0  0  0
   26.3645  -13.0390  -15.9976 C   0  0  0  0  0  0  0  0  0  0  0  0
   25.2174  -12.3595  -16.7190 C   0  0  1  0  0  0  0  0  0  0  0  0
   25.5673  -10.9667  -17.1072 C   0  0  0  0  0  0  0  0  0  0  0  0
   25.8432  -10.0812  -16.2283 O   0  0  0  0  0  0  0  0  0  0  0  0
   27.5550   -6.3529  -23.2511 C   0  0  0  0  0  0  0  0  0  0  0  0
   27.2379   -8.0324  -22.6477 S   0  0  0  0  0  0  0  0  0  0  0  0
   26.8317   -7.9748  -20.8849 C   0  0  0  0  0  0  0  0  0  0  0  0
   26.3449   -9.2881  -20.3682 C   0  0  0  0  0  0  0  0  0  0  0  0
   26.0012   -9.2907  -18.9191 C   0  0  2  0  0  0  0  0  0  0  0  0
   25.5902  -10.6352  -18.4769 N   0  0  0  0  0  0  0  0  0  0  0  0
   24.8463   -8.4043  -18.6340 C   0  0  0  0  0  0  0  0  0  0  0  0
   23.6537   -8.6914  -18.9820 O   0  0  0  0  0  0  0  0  0  0  0  0
   18.5435   -3.7520  -15.2412 O   0  0  0  0  0  0  0  0  0  0  0  0
   19.6918   -4.4829  -15.4925 C   0  0  0  0  0  0  0  0  0  0  0  0
   20.9106   -4.1815  -14.9313 C   0  0  0  0  0  0  0  0  0  0  0  0
   22.0515   -4.9111  -15.1838 C   0  0  0  0  0  0  0  0  0  0  0  0
   21.9628   -5.9890  -16.0370 C   0  0  0  0  0  0  0  0  0  0  0  0
   23.1041   -6.8555  -16.4108 C   0  0  0  0  0  0  0  0  0  0  0  0
   23.8604   -6.3365  -17.6139 C   0  0  2  0  0  0  0  0  0  0  0  0
   24.9784   -7.1659  -17.9512 N   0  0  0  0  0  0  0  0  0  0  0  0
   24.3008   -4.9488  -17.4475 C   0  0  0  0  0  0  0  0  0  0  0  0
   23.4142   -3.8955  -17.7132 O   0  0  0  0  0  0  0  0  0  0  0  0
   20.7309   -6.2935  -16.6038 C   0  0  0  0  0  0  0  0  0  0  0  0
   19.6023   -5.5694  -16.3518 C   0  0  0  0  0  0  0  0  0  0  0  0
   25.4621   -4.6419  -17.0694 O   0  0  0  0  0  0  0  0  0  0  0  0
  1  5  1  0
  1  2  1  0
  2  3  1  0
  4  3  1  0
  5  4  1  0
  6 13  1  0
  5  6  1  6
  7  6  2  0
  9  8  1  0
 10  9  1  0
 12 11  1  6
 11 10  1  0
 12 13  1  0
 14 12  1  0
 15 14  2  0
 17 16  1  0
 17 27  2  0
 18 17  1  0
 19 18  2  0
 19 20  1  0
 20 26  2  0
 21 20  1  0
 22 21  1  1
 22 24  1  0
 22 23  1  0
 23 14  1  0
 24 25  1  0
 26 27  1  0
 28 24  2  0
M  END
$$$$
