PMY.pdb
     RDKit          3D

 28 29  0  0  1  0  0  0  0  0999 V2000
   27.0391  -32.8768   -8.4839 N   0  0  0  0  0  0  0  0  0  0  0  0
   26.6835  -32.6811   -9.8971 C   0  0  0  0  0  0  0  0  0  0  0  0
   27.2906  -33.9013  -10.5881 C   0  0  0  0  0  0  0  0  0  0  0  0
   27.2253  -34.9870   -9.5401 C   0  0  0  0  0  0  0  0  0  0  0  0
   26.7464  -34.2976   -8.2778 C   0  0  1  0  0  0  0  0  0  0  0  0
   27.4729  -34.7930   -7.0780 C   0  0  0  0  0  0  0  0  0  0  0  0
   27.2236  -35.9420   -6.5774 O   0  0  0  0  0  0  0  0  0  0  0  0
   34.3290  -36.1134   -5.9123 C   0  0  0  0  0  0  0  0  0  0  0  0
   33.2970  -34.6893   -5.4736 S   0  0  0  0  0  0  0  0  0  0  0  0
   31.5732  -35.0369   -5.9024 C   0  0  0  0  0  0  0  0  0  0  0  0
   30.6384  -33.9840   -5.4063 C   0  0  0  0  0  0  0  0  0  0  0  0
   29.2158  -34.4159   -5.3172 C   0  0  2  0  0  0  0  0  0  0  0  0
   28.4529  -33.9649   -6.4947 N   0  0  0  0  0  0  0  0  0  0  0  0
   28.5377  -33.8112   -4.1445 C   0  0  0  0  0  0  0  0  0  0  0  0
   28.7297  -32.6035   -3.7833 O   0  0  0  0  0  0  0  0  0  0  0  0
   22.8263  -31.5262    2.0065 O   0  0  0  0  0  0  0  0  0  0  0  0
   23.4682  -32.1542    0.9531 C   0  0  0  0  0  0  0  0  0  0  0  0
   23.7717  -33.4955    0.9520 C   0  0  0  0  0  0  0  0  0  0  0  0
   24.4109  -34.1172   -0.0981 C   0  0  0  0  0  0  0  0  0  0  0  0
   24.7598  -33.3577   -1.1930 C   0  0  0  0  0  0  0  0  0  0  0  0
   25.4601  -33.8843   -2.3869 C   0  0  0  0  0  0  0  0  0  0  0  0
   26.9599  -33.9519   -2.2004 C   0  0  2  0  0  0  0  0  0  0  0  0
   27.6217  -34.5303   -3.3314 N   0  0  0  0  0  0  0  0  0  0  0  0
   27.3447  -34.6641   -0.9790 C   0  0  0  0  0  0  0  0  0  0  0  0
   27.7323  -33.9435    0.1598 O   0  0  0  0  0  0  0  0  0  0  0  0
   24.4528  -32.0021   -1.1918 C   0  0  0  0  0  0  0  0  0  0  0  0
   23.8194  -31.3890   -0.1505 C   0  0  0  0  0  0  0  0  0  0  0  0
   27.3469  -35.9204   -0.8934 O   0  0  0  0  0  0  0  0  0  0  0  0
  1  5  1  0
  1  2  1  0
  2  3  1  0
  4  3  1  0
  5  4  1  0
  6 13  1  0
  5  6  1  1
  7  6  2  0
  9  8  1  0
 10  9  1  0
 12 11  1  6
 11 10  1  0
 12 13  1  0
 14 12  1  0
 15 14  2  0
 17 16  1  0
 17 27  2  0
 18 17  1  0
 19 18  2  0
 19 20  1  0
 20 26  2  0
 21 20  1  0
 22 21  1  6
 22 24  1  0
 22 23  1  0
 23 14  1  0
 24 25  1  0
 26 27  1  0
 28 24  2  0
M  END
$$$$
