PMY.pdb
     RDKit          3D

 28 29  0  0  1  0  0  0  0  0999 V2000
   25.6448  -13.7638  -20.9730 N   0  0  0  0  0  0  0  0  0  0  0  0
   25.8112  -14.9092  -21.8798 C   0  0  0  0  0  0  0  0  0  0  0  0
   27.0711  -15.5968  -21.3556 C   0  0  0  0  0  0  0  0  0  0  0  0
   27.0520  -15.3161  -19.8716 C   0  0  0  0  0  0  0  0  0  0  0  0
   25.8934  -14.3620  -19.6588 C   0  0  1  0  0  0  0  0  0  0  0  0
   26.2377  -13.2981  -18.6777 C   0  0  0  0  0  0  0  0  0  0  0  0
   26.5425  -13.5814  -17.4696 O   0  0  0  0  0  0  0  0  0  0  0  0
   29.1426   -7.2521  -19.2078 C   0  0  0  0  0  0  0  0  0  0  0  0
   29.7685   -8.8695  -19.7345 S   0  0  0  0  0  0  0  0  0  0  0  0
   28.7961  -10.1789  -18.9498 C   0  0  0  0  0  0  0  0  0  0  0  0
   27.3555   -9.8137  -18.8092 C   0  0  0  0  0  0  0  0  0  0  0  0
   26.5146  -10.8607  -18.1652 C   0  0  2  0  0  0  0  0  0  0  0  0
   26.2223  -11.9557  -19.1072 N   0  0  0  0  0  0  0  0  0  0  0  0
   25.1949  -10.3207  -17.7560 C   0  0  0  0  0  0  0  0  0  0  0  0
   24.1479  -10.4397  -18.4740 O   0  0  0  0  0  0  0  0  0  0  0  0
   18.0183   -8.3568  -13.4394 O   0  0  0  0  0  0  0  0  0  0  0  0
   19.2914   -8.7864  -13.7721 C   0  0  0  0  0  0  0  0  0  0  0  0
   20.3044   -8.9147  -12.8509 C   0  0  0  0  0  0  0  0  0  0  0  0
   21.5704   -9.3425  -13.1856 C   0  0  0  0  0  0  0  0  0  0  0  0
   21.8284   -9.6539  -14.5025 C   0  0  0  0  0  0  0  0  0  0  0  0
   23.1411  -10.1133  -15.0112 C   0  0  0  0  0  0  0  0  0  0  0  0
   23.7041   -9.2012  -16.0788 C   0  0  2  0  0  0  0  0  0  0  0  0
   24.9939   -9.6282  -16.5323 N   0  0  0  0  0  0  0  0  0  0  0  0
   23.7641   -7.8012  -15.6502 C   0  0  0  0  0  0  0  0  0  0  0  0
   22.6144   -7.0005  -15.7084 O   0  0  0  0  0  0  0  0  0  0  0  0
   20.8043   -9.5244  -15.4333 C   0  0  0  0  0  0  0  0  0  0  0  0
   19.5512   -9.1008  -15.0990 C   0  0  0  0  0  0  0  0  0  0  0  0
   24.8188   -7.2632  -15.2215 O   0  0  0  0  0  0  0  0  0  0  0  0
  1  5  1  0
  1  2  1  0
  2  3  1  0
  4  3  1  0
  5  4  1  0
  6 13  1  0
  5  6  1  1
  7  6  2  0
  9  8  1  0
 10  9  1  0
 12 11  1  6
 11 10  1  0
 12 13  1  0
 14 12  1  0
 15 14  2  0
 17 16  1  0
 17 27  2  0
 18 17  1  0
 19 18  2  0
 19 20  1  0
 20 26  2  0
 21 20  1  0
 22 21  1  1
 22 24  1  0
 22 23  1  0
 23 14  1  0
 24 25  1  0
 26 27  1  0
 28 24  2  0
M  END
$$$$
