PMY.pdb
     RDKit          3D

 28 29  0  0  1  0  0  0  0  0999 V2000
   27.9901  -22.8757  -16.8437 N   0  0  0  0  0  0  0  0  0  0  0  0
   28.4849  -23.5259  -18.0661 C   0  0  0  0  0  0  0  0  0  0  0  0
   27.4350  -23.1583  -19.1136 C   0  0  0  0  0  0  0  0  0  0  0  0
   26.9328  -21.8044  -18.6706 C   0  0  0  0  0  0  0  0  0  0  0  0
   27.5912  -21.5519  -17.3287 C   0  0  1  0  0  0  0  0  0  0  0  0
   26.6441  -20.9269  -16.3667 C   0  0  0  0  0  0  0  0  0  0  0  0
   26.9495  -19.8620  -15.7301 O   0  0  0  0  0  0  0  0  0  0  0  0
   20.8017  -23.3723  -16.9339 C   0  0  0  0  0  0  0  0  0  0  0  0
   20.7478  -21.5681  -17.0992 S   0  0  0  0  0  0  0  0  0  0  0  0
   22.3945  -20.8832  -16.7902 C   0  0  0  0  0  0  0  0  0  0  0  0
   23.0253  -21.4467  -15.5601 C   0  0  0  0  0  0  0  0  0  0  0  0
   24.3896  -20.9233  -15.2725 C   0  0  2  0  0  0  0  0  0  0  0  0
   25.3887  -21.5356  -16.1662 N   0  0  0  0  0  0  0  0  0  0  0  0
   24.8219  -21.2636  -13.8948 C   0  0  0  0  0  0  0  0  0  0  0  0
   25.0154  -22.4633  -13.5089 O   0  0  0  0  0  0  0  0  0  0  0  0
   27.9189  -20.0215   -5.6903 O   0  0  0  0  0  0  0  0  0  0  0  0
   27.6589  -20.0011   -7.0497 C   0  0  0  0  0  0  0  0  0  0  0  0
   28.2302  -20.8839   -7.9360 C   0  0  0  0  0  0  0  0  0  0  0  0
   27.9692  -20.8606   -9.2885 C   0  0  0  0  0  0  0  0  0  0  0  0
   27.0972  -19.9090   -9.7697 C   0  0  0  0  0  0  0  0  0  0  0  0
   26.7316  -19.7554  -11.1966 C   0  0  0  0  0  0  0  0  0  0  0  0
   25.5348  -20.5951  -11.5853 C   0  0  2  0  0  0  0  0  0  0  0  0
   25.0538  -20.2796  -12.8971 N   0  0  0  0  0  0  0  0  0  0  0  0
   24.4401  -20.4994  -10.6160 C   0  0  0  0  0  0  0  0  0  0  0  0
   23.2929  -19.7548  -10.9256 O   0  0  0  0  0  0  0  0  0  0  0  0
   26.5197  -19.0171   -8.8738 C   0  0  0  0  0  0  0  0  0  0  0  0
   26.7797  -19.0425   -7.5346 C   0  0  0  0  0  0  0  0  0  0  0  0
   24.4735  -21.0636   -9.4907 O   0  0  0  0  0  0  0  0  0  0  0  0
  1  5  1  0
  1  2  1  0
  2  3  1  0
  4  3  1  0
  5  4  1  0
  6 13  1  0
  5  6  1  1
  7  6  2  0
  9  8  1  0
 10  9  1  0
 12 11  1  6
 11 10  1  0
 12 13  1  0
 14 12  1  0
 15 14  2  0
 17 16  1  0
 17 27  2  0
 18 17  1  0
 19 18  2  0
 19 20  1  0
 20 26  2  0
 21 20  1  0
 22 21  1  1
 22 24  1  0
 22 23  1  0
 23 14  1  0
 24 25  1  0
 26 27  1  0
 28 24  2  0
M  END
$$$$
