PMY.pdb
     RDKit          3D

 28 29  0  0  1  0  0  0  0  0999 V2000
 1618.9672-1430.5021 -800.4640 N   0  0  0  0  0  0  0  0  0  0  0  0
 1618.2169-1430.7595 -801.7018 C   0  0  0  0  0  0  0  0  0  0  0  0
 1619.2205-1430.4238 -802.8033 C   0  0  0  0  0  0  0  0  0  0  0  0
 1620.5603-1430.7656 -802.1960 C   0  0  0  0  0  0  0  0  0  0  0  0
 1620.2671-1431.1155 -800.7502 C   0  0  1  0  0  0  0  0  0  0  0  0
 1621.2992-1430.5573 -799.8356 C   0  0  0  0  0  0  0  0  0  0  0  0
 1622.3075-1431.2522 -799.4684 O   0  0  0  0  0  0  0  0  0  0  0  0
 1618.4988-1431.8788 -795.8229 C   0  0  0  0  0  0  0  0  0  0  0  0
 1619.2903-1432.4307 -797.3571 S   0  0  0  0  0  0  0  0  0  0  0  0
 1620.7324-1431.3928 -797.7014 C   0  0  0  0  0  0  0  0  0  0  0  0
 1620.5963-1430.0208 -797.1294 C   0  0  0  0  0  0  0  0  0  0  0  0
 1620.3887-1428.9484 -798.1431 C   0  0  2  0  0  0  0  0  0  0  0  0
 1621.1461-1429.2340 -799.3745 N   0  0  0  0  0  0  0  0  0  0  0  0
 1620.8900-1427.6389 -797.6583 C   0  0  0  0  0  0  0  0  0  0  0  0
 1620.1849-1426.8523 -796.9447 O   0  0  0  0  0  0  0  0  0  0  0  0
 1623.2350-1420.6066 -793.8099 O   0  0  0  0  0  0  0  0  0  0  0  0
 1622.9706-1421.8304 -794.4003 C   0  0  0  0  0  0  0  0  0  0  0  0
 1623.3632-1422.1454 -795.6805 C   0  0  0  0  0  0  0  0  0  0  0  0
 1623.0991-1423.3641 -796.2651 C   0  0  0  0  0  0  0  0  0  0  0  0
 1622.4109-1424.3055 -795.5320 C   0  0  0  0  0  0  0  0  0  0  0  0
 1622.0455-1425.6510 -796.0320 C   0  0  0  0  0  0  0  0  0  0  0  0
 1622.7671-1426.0133 -797.3109 C   0  0  2  0  0  0  0  0  0  0  0  0
 1622.1940-1427.1595 -797.9509 N   0  0  0  0  0  0  0  0  0  0  0  0
 1624.2035-1426.2211 -797.1085 C   0  0  0  0  0  0  0  0  0  0  0  0
 1625.0796-1426.1741 -798.2031 O   0  0  0  0  0  0  0  0  0  0  0  0
 1622.0144-1423.9868 -794.2386 C   0  0  0  0  0  0  0  0  0  0  0  0
 1622.2776-1422.7789 -793.6612 C   0  0  0  0  0  0  0  0  0  0  0  0
 1624.7081-1426.4440 -795.9770 O   0  0  0  0  0  0  0  0  0  0  0  0
  1  5  1  0
  1  2  1  0
  2  3  1  0
  4  3  1  0
  5  4  1  0
  6 13  1  0
  5  6  1  1
  7  6  2  0
  9  8  1  0
 10  9  1  0
 12 11  1  1
 11 10  1  0
 12 13  1  0
 14 12  1  0
 15 14  2  0
 17 16  1  0
 17 27  2  0
 18 17  1  0
 19 18  2  0
 19 20  1  0
 20 26  2  0
 21 20  1  0
 22 21  1  1
 22 24  1  0
 22 23  1  0
 23 14  1  0
 24 25  1  0
 26 27  1  0
 28 24  2  0
M  END
$$$$
