PMY.pdb
     RDKit          3D

 28 29  0  0  1  0  0  0  0  0999 V2000
   39.4611   -6.6017  -10.2191 N   0  0  0  0  0  0  0  0  0  0  0  0
   39.3703   -7.6644  -11.2311 C   0  0  0  0  0  0  0  0  0  0  0  0
   38.7828   -8.8431  -10.4563 C   0  0  0  0  0  0  0  0  0  0  0  0
   37.9094   -8.1948   -9.4083 C   0  0  0  0  0  0  0  0  0  0  0  0
   38.1706   -6.7068   -9.5332 C   0  0  1  0  0  0  0  0  0  0  0  0
   38.2545   -6.0550   -8.1987 C   0  0  0  0  0  0  0  0  0  0  0  0
   37.2971   -6.1391   -7.3565 O   0  0  0  0  0  0  0  0  0  0  0  0
   44.5674   -2.8197   -7.7184 C   0  0  0  0  0  0  0  0  0  0  0  0
   43.6119   -3.8685   -6.5903 S   0  0  0  0  0  0  0  0  0  0  0  0
   41.8754   -3.8803   -7.1007 C   0  0  0  0  0  0  0  0  0  0  0  0
   41.0070   -4.6385   -6.1523 C   0  0  0  0  0  0  0  0  0  0  0  0
   39.5731   -4.7055   -6.5493 C   0  0  2  0  0  0  0  0  0  0  0  0
   39.4213   -5.3343   -7.8735 N   0  0  0  0  0  0  0  0  0  0  0  0
   38.9822   -3.3509   -6.6785 C   0  0  0  0  0  0  0  0  0  0  0  0
   38.9105   -2.7327   -7.7914 O   0  0  0  0  0  0  0  0  0  0  0  0
   34.1363    3.8065   -5.6433 O   0  0  0  0  0  0  0  0  0  0  0  0
   34.7669    2.6002   -5.3917 C   0  0  0  0  0  0  0  0  0  0  0  0
   35.5215    2.3687   -4.2656 C   0  0  0  0  0  0  0  0  0  0  0  0
   36.1478    1.1669   -4.0185 C   0  0  0  0  0  0  0  0  0  0  0  0
   36.0097    0.1554   -4.9434 C   0  0  0  0  0  0  0  0  0  0  0  0
   36.6335   -1.1820   -4.8192 C   0  0  0  0  0  0  0  0  0  0  0  0
   37.8585   -1.3371   -5.6932 C   0  0  2  0  0  0  0  0  0  0  0  0
   38.4501   -2.6360   -5.5725 N   0  0  0  0  0  0  0  0  0  0  0  0
   38.8665   -0.3042   -5.4398 C   0  0  0  0  0  0  0  0  0  0  0  0
   38.8195    0.9084   -6.1424 O   0  0  0  0  0  0  0  0  0  0  0  0
   35.2468    0.3895   -6.0814 C   0  0  0  0  0  0  0  0  0  0  0  0
   34.6272    1.5807   -6.3235 C   0  0  0  0  0  0  0  0  0  0  0  0
   39.7973   -0.4492   -4.6042 O   0  0  0  0  0  0  0  0  0  0  0  0
  1  5  1  0
  1  2  1  0
  2  3  1  0
  4  3  1  0
  5  4  1  0
  6 13  1  0
  5  6  1  1
  7  6  2  0
  9  8  1  0
 10  9  1  0
 12 11  1  6
 11 10  1  0
 12 13  1  0
 14 12  1  0
 15 14  2  0
 17 16  1  0
 17 27  2  0
 18 17  1  0
 19 18  2  0
 19 20  1  0
 20 26  2  0
 21 20  1  0
 22 21  1  1
 22 24  1  0
 22 23  1  0
 23 14  1  0
 24 25  1  0
 26 27  1  0
 28 24  2  0
M  END
$$$$
