PMY.pdb
     RDKit          3D

 28 29  0  0  1  0  0  0  0  0999 V2000
   27.7102  -19.1181  -14.7782 N   0  0  0  0  0  0  0  0  0  0  0  0
   28.8746  -18.7293  -15.5873 C   0  0  0  0  0  0  0  0  0  0  0  0
   29.8540  -19.8832  -15.3774 C   0  0  0  0  0  0  0  0  0  0  0  0
   28.9648  -21.0865  -15.1711 C   0  0  0  0  0  0  0  0  0  0  0  0
   27.5535  -20.5366  -15.1104 C   0  0  1  0  0  0  0  0  0  0  0  0
   26.7499  -21.2148  -14.0582 C   0  0  0  0  0  0  0  0  0  0  0  0
   26.3808  -22.4317  -14.1848 O   0  0  0  0  0  0  0  0  0  0  0  0
   27.0188  -19.6447   -7.6752 C   0  0  0  0  0  0  0  0  0  0  0  0
   25.9588  -21.1089   -7.8091 S   0  0  0  0  0  0  0  0  0  0  0  0
   25.0835  -21.0788   -9.3931 C   0  0  0  0  0  0  0  0  0  0  0  0
   25.9394  -20.5771  -10.5085 C   0  0  0  0  0  0  0  0  0  0  0  0
   25.5644  -21.0952  -11.8535 C   0  0  2  0  0  0  0  0  0  0  0  0
   26.3976  -20.4851  -12.9050 N   0  0  0  0  0  0  0  0  0  0  0  0
   24.1644  -20.7461  -12.1984 C   0  0  0  0  0  0  0  0  0  0  0  0
   23.7638  -19.5419  -12.3215 O   0  0  0  0  0  0  0  0  0  0  0  0
   15.8952  -21.4202  -15.2242 O   0  0  0  0  0  0  0  0  0  0  0  0
   17.2201  -21.6440  -14.8917 C   0  0  0  0  0  0  0  0  0  0  0  0
   18.2709  -21.0789  -15.5756 C   0  0  0  0  0  0  0  0  0  0  0  0
   19.5884  -21.3040  -15.2420 C   0  0  0  0  0  0  0  0  0  0  0  0
   19.8604  -22.1329  -14.1759 C   0  0  0  0  0  0  0  0  0  0  0  0
   21.2237  -22.4762  -13.7104 C   0  0  0  0  0  0  0  0  0  0  0  0
   21.8289  -21.4007  -12.8352 C   0  0  2  0  0  0  0  0  0  0  0  0
   23.1599  -21.7261  -12.4180 N   0  0  0  0  0  0  0  0  0  0  0  0
   21.0007  -21.0928  -11.6662 C   0  0  0  0  0  0  0  0  0  0  0  0
   20.0751  -20.0409  -11.7205 O   0  0  0  0  0  0  0  0  0  0  0  0
   18.7983  -22.7037  -13.4847 C   0  0  0  0  0  0  0  0  0  0  0  0
   17.4943  -22.4788  -13.8170 C   0  0  0  0  0  0  0  0  0  0  0  0
   21.0765  -21.7374  -10.5871 O   0  0  0  0  0  0  0  0  0  0  0  0
  1  5  1  0
  1  2  1  0
  2  3  1  0
  4  3  1  0
  5  4  1  0
  6 13  1  0
  5  6  1  1
  7  6  2  0
  9  8  1  0
 10  9  1  0
 12 11  1  1
 11 10  1  0
 12 13  1  0
 14 12  1  0
 15 14  2  0
 17 16  1  0
 17 27  2  0
 18 17  1  0
 19 18  2  0
 19 20  1  0
 20 26  2  0
 21 20  1  0
 22 21  1  1
 22 24  1  0
 22 23  1  0
 23 14  1  0
 24 25  1  0
 26 27  1  0
 28 24  2  0
M  END
$$$$
