DMQ.pdb
     RDKit          3D

 26 25  0  0  1  0  0  0  0  0999 V2000
    8.0736  -17.2313   19.9292 N   0  0  0  0  0  0  0  0  0  0  0  0
    9.3935  -16.6666   20.0078 C   0  0  1  0  0  0  0  0  0  0  0  0
    9.5596  -15.6647   18.9061 C   0  0  0  0  0  0  0  0  0  0  0  0
    9.5539  -16.3188   17.5743 C   0  0  0  0  0  0  0  0  0  0  0  0
    9.9615  -15.6886   16.5753 O   0  0  0  0  0  0  0  0  0  0  0  0
    9.6027  -16.0442   21.3583 C   0  0  0  0  0  0  0  0  0  0  0  0
   10.7155  -15.5380   21.6292 O   0  0  0  0  0  0  0  0  0  0  0  0
    9.1078  -17.6151   17.4036 O   0  0  0  0  0  0  0  0  0  0  0  0
    6.7794  -11.2441   25.5272 C   0  0  0  0  0  0  0  0  0  0  0  0
    7.3089  -12.9620   25.6869 S   0  0  0  0  0  0  0  0  0  0  0  0
    6.8852  -13.9171   24.1815 C   0  0  0  0  0  0  0  0  0  0  0  0
    7.3252  -15.3287   24.3856 C   0  0  0  0  0  0  0  0  0  0  0  0
    8.6354  -15.6844   23.7019 C   0  0  2  0  0  0  0  0  0  0  0  0
    8.5810  -16.0127   22.3332 N   0  0  0  0  0  0  0  0  0  0  0  0
    9.4729  -16.4544   24.5851 C   0  0  0  0  0  0  0  0  0  0  0  0
    9.0628  -17.5831   24.9669 O   0  0  0  0  0  0  0  0  0  0  0  0
   11.1990  -15.2349   31.2440 N   0  0  0  0  0  0  0  0  0  0  0  0
   10.6799  -15.1203   29.9344 C   0  0  0  0  0  0  0  0  0  0  0  0
    9.7893  -14.2792   29.6943 O   0  0  0  0  0  0  0  0  0  0  0  0
   11.2026  -16.0005   28.8710 C   0  0  0  0  0  0  0  0  0  0  0  0
   10.7509  -15.5611   27.5029 C   0  0  0  0  0  0  0  0  0  0  0  0
   11.2311  -16.4473   26.4036 C   0  0  2  0  0  0  0  0  0  0  0  0
   10.7591  -16.0645   25.0909 N   0  0  0  0  0  0  0  0  0  0  0  0
   11.0067  -17.8906   26.6748 C   0  0  0  0  0  0  0  0  0  0  0  0
   11.8564  -18.6470   27.4732 O   0  0  0  0  0  0  0  0  0  0  0  0
   10.0221  -18.5023   26.1862 O   0  0  0  0  0  0  0  0  0  0  0  0
  2  3  1  0
  2  1  1  1
  3  4  1  0
  4  5  2  0
  4  8  1  0
  6  7  2  0
  6  2  1  0
  9 10  1  0
 11 10  1  0
 12 11  1  0
 13 12  1  1
 13 14  1  0
 14  6  1  0
 15 13  1  0
 15 23  1  0
 16 15  2  0
 17 18  1  0
 18 19  2  0
 20 21  1  0
 20 18  1  0
 22 21  1  1
 22 23  1  0
 24 22  1  0
 25 24  1  0
 26 24  2  0
M  END
$$$$
