DMQ.pdb
     RDKit          3D

 26 25  0  0  1  0  0  0  0  0999 V2000
    8.0028  -17.0314   20.2463 N   0  0  0  0  0  0  0  0  0  0  0  0
    9.4180  -16.7802   20.2818 C   0  0  1  0  0  0  0  0  0  0  0  0
    9.8096  -16.0313   19.0445 C   0  0  0  0  0  0  0  0  0  0  0  0
    9.6199  -16.8592   17.8279 C   0  0  0  0  0  0  0  0  0  0  0  0
    8.4878  -16.9380   17.3051 O   0  0  0  0  0  0  0  0  0  0  0  0
    9.7697  -16.0165   21.5259 C   0  0  0  0  0  0  0  0  0  0  0  0
   10.9527  -15.6429   21.6965 O   0  0  0  0  0  0  0  0  0  0  0  0
   10.6663  -17.5520   17.2503 O   0  0  0  0  0  0  0  0  0  0  0  0
    6.8774  -11.5091   27.4244 C   0  0  0  0  0  0  0  0  0  0  0  0
    6.6000  -12.4694   25.9218 S   0  0  0  0  0  0  0  0  0  0  0  0
    8.0435  -13.5371   25.5550 C   0  0  0  0  0  0  0  0  0  0  0  0
    7.7907  -14.2341   24.2596 C   0  0  0  0  0  0  0  0  0  0  0  0
    8.9503  -15.0837   23.7656 C   0  0  2  0  0  0  0  0  0  0  0  0
    8.8055  -15.7066   22.5105 N   0  0  0  0  0  0  0  0  0  0  0  0
    9.5428  -15.8129   24.8571 C   0  0  0  0  0  0  0  0  0  0  0  0
    9.9864  -15.1628   25.8412 O   0  0  0  0  0  0  0  0  0  0  0  0
   14.4422  -19.0680   25.5779 N   0  0  0  0  0  0  0  0  0  0  0  0
   13.8520  -18.4082   24.4760 C   0  0  0  0  0  0  0  0  0  0  0  0
   14.5624  -18.0641   23.5090 O   0  0  0  0  0  0  0  0  0  0  0  0
   12.4010  -18.1374   24.4893 C   0  0  0  0  0  0  0  0  0  0  0  0
   11.9056  -17.7866   25.8678 C   0  0  0  0  0  0  0  0  0  0  0  0
   10.4243  -17.8839   26.0115 C   0  0  2  0  0  0  0  0  0  0  0  0
    9.6866  -17.2389   24.9475 N   0  0  0  0  0  0  0  0  0  0  0  0
    9.9379  -17.4711   27.3532 C   0  0  0  0  0  0  0  0  0  0  0  0
   10.4616  -17.9841   28.5339 O   0  0  0  0  0  0  0  0  0  0  0  0
    9.0158  -16.6253   27.4827 O   0  0  0  0  0  0  0  0  0  0  0  0
  2  3  1  0
  2  1  1  6
  3  4  1  0
  4  5  2  0
  4  8  1  0
  6  7  2  0
  6  2  1  0
  9 10  1  0
 11 10  1  0
 12 11  1  0
 13 12  1  1
 13 14  1  0
 14  6  1  0
 15 13  1  0
 15 23  1  0
 16 15  2  0
 17 18  1  0
 18 19  2  0
 20 21  1  0
 20 18  1  0
 22 21  1  1
 22 23  1  0
 24 22  1  0
 25 24  1  0
 26 24  2  0
M  END
$$$$
