DMQ.pdb
     RDKit          3D

 26 25  0  0  1  0  0  0  0  0999 V2000
    8.8712  -16.4211   20.2928 N   0  0  0  0  0  0  0  0  0  0  0  0
   10.1033  -16.6494   20.9977 C   0  0  1  0  0  0  0  0  0  0  0  0
   11.2306  -16.0528   20.2113 C   0  0  0  0  0  0  0  0  0  0  0  0
   11.3733  -16.7078   18.8876 C   0  0  0  0  0  0  0  0  0  0  0  0
   10.5472  -17.5772   18.5368 O   0  0  0  0  0  0  0  0  0  0  0  0
   10.0187  -16.0619   22.3770 C   0  0  0  0  0  0  0  0  0  0  0  0
   11.0428  -16.0508   23.0975 O   0  0  0  0  0  0  0  0  0  0  0  0
   12.4010  -16.3830   18.0234 O   0  0  0  0  0  0  0  0  0  0  0  0
    7.3116  -11.6599   27.6769 C   0  0  0  0  0  0  0  0  0  0  0  0
    7.6925  -12.2946   26.0310 S   0  0  0  0  0  0  0  0  0  0  0  0
    6.8778  -13.9121   25.7517 C   0  0  0  0  0  0  0  0  0  0  0  0
    7.1671  -14.3446   24.3527 C   0  0  0  0  0  0  0  0  0  0  0  0
    8.5075  -15.0386   24.1733 C   0  0  2  0  0  0  0  0  0  0  0  0
    8.8175  -15.5210   22.8867 N   0  0  0  0  0  0  0  0  0  0  0  0
    8.8188  -15.8414   25.3277 C   0  0  0  0  0  0  0  0  0  0  0  0
    7.9605  -16.6720   25.7291 O   0  0  0  0  0  0  0  0  0  0  0  0
   12.7775  -19.5867   25.0247 N   0  0  0  0  0  0  0  0  0  0  0  0
   12.8708  -19.6728   26.4324 C   0  0  0  0  0  0  0  0  0  0  0  0
   13.3535  -20.6969   26.9581 O   0  0  0  0  0  0  0  0  0  0  0  0
   12.3938  -18.5458   27.2579 C   0  0  0  0  0  0  0  0  0  0  0  0
   11.8633  -17.4153   26.4157 C   0  0  0  0  0  0  0  0  0  0  0  0
   10.5226  -16.9269   26.8500 C   0  0  2  0  0  0  0  0  0  0  0  0
   10.0343  -15.7964   26.0912 N   0  0  0  0  0  0  0  0  0  0  0  0
   10.4307  -16.6936   28.3144 C   0  0  0  0  0  0  0  0  0  0  0  0
   10.6160  -15.4422   28.8898 O   0  0  0  0  0  0  0  0  0  0  0  0
   10.1770  -17.6331   29.1115 O   0  0  0  0  0  0  0  0  0  0  0  0
  2  3  1  0
  2  1  1  6
  3  4  1  0
  4  5  2  0
  4  8  1  0
  6  7  2  0
  6  2  1  0
  9 10  1  0
 11 10  1  0
 12 11  1  0
 13 12  1  6
 13 14  1  0
 14  6  1  0
 15 13  1  0
 15 23  1  0
 16 15  2  0
 17 18  1  0
 18 19  2  0
 20 21  1  0
 20 18  1  0
 22 21  1  6
 22 23  1  0
 24 22  1  0
 25 24  1  0
 26 24  2  0
M  END
$$$$
