DMQ.pdb
     RDKit          3D

 26 25  0  0  1  0  0  0  0  0999 V2000
    7.1134  -17.6667   20.9223 N   0  0  0  0  0  0  0  0  0  0  0  0
    8.3480  -17.0614   20.5024 C   0  0  1  0  0  0  0  0  0  0  0  0
    8.1444  -16.4214   19.1630 C   0  0  0  0  0  0  0  0  0  0  0  0
    7.8095  -17.4292   18.1269 C   0  0  0  0  0  0  0  0  0  0  0  0
    6.8803  -18.2393   18.3312 O   0  0  0  0  0  0  0  0  0  0  0  0
    8.8027  -16.0644   21.5291 C   0  0  0  0  0  0  0  0  0  0  0  0
    9.9951  -15.6817   21.5195 O   0  0  0  0  0  0  0  0  0  0  0  0
    8.4998  -17.5000   16.9323 O   0  0  0  0  0  0  0  0  0  0  0  0
    6.1318  -11.7132   27.7683 C   0  0  0  0  0  0  0  0  0  0  0  0
    5.7892  -12.8116   26.3779 S   0  0  0  0  0  0  0  0  0  0  0  0
    7.3448  -13.3391   25.5655 C   0  0  0  0  0  0  0  0  0  0  0  0
    6.9931  -14.2140   24.4084 C   0  0  0  0  0  0  0  0  0  0  0  0
    8.1894  -14.7570   23.6439 C   0  0  2  0  0  0  0  0  0  0  0  0
    7.9252  -15.5447   22.5064 N   0  0  0  0  0  0  0  0  0  0  0  0
    9.2340  -15.1504   24.5540 C   0  0  0  0  0  0  0  0  0  0  0  0
    9.4019  -14.4721   25.6027 O   0  0  0  0  0  0  0  0  0  0  0  0
    7.5276  -18.8258   27.8662 N   0  0  0  0  0  0  0  0  0  0  0  0
    8.8489  -18.8932   28.3634 C   0  0  0  0  0  0  0  0  0  0  0  0
    9.0553  -19.3397   29.5107 O   0  0  0  0  0  0  0  0  0  0  0  0
    9.9646  -18.4329   27.5135 C   0  0  0  0  0  0  0  0  0  0  0  0
    9.4803  -17.6373   26.3298 C   0  0  0  0  0  0  0  0  0  0  0  0
   10.5832  -17.0683   25.5026 C   0  0  2  0  0  0  0  0  0  0  0  0
   10.1289  -16.2617   24.3912 N   0  0  0  0  0  0  0  0  0  0  0  0
   11.5816  -18.0839   25.0796 C   0  0  0  0  0  0  0  0  0  0  0  0
   11.4436  -18.8368   23.9196 O   0  0  0  0  0  0  0  0  0  0  0  0
   12.6128  -18.3113   25.7631 O   0  0  0  0  0  0  0  0  0  0  0  0
  2  3  1  0
  2  1  1  1
  3  4  1  0
  4  5  2  0
  4  8  1  0
  6  7  2  0
  6  2  1  0
  9 10  1  0
 11 10  1  0
 12 11  1  0
 13 12  1  1
 13 14  1  0
 14  6  1  0
 15 13  1  0
 15 23  1  0
 16 15  2  0
 17 18  1  0
 18 19  2  0
 20 21  1  0
 20 18  1  0
 22 21  1  6
 22 23  1  0
 24 22  1  0
 25 24  1  0
 26 24  2  0
M  END
$$$$
