DMQ.pdb
     RDKit          3D

 26 25  0  0  1  0  0  0  0  0999 V2000
    9.2745  -15.5326   19.0373 N   0  0  0  0  0  0  0  0  0  0  0  0
    8.8028  -16.3864   20.0935 C   0  0  1  0  0  0  0  0  0  0  0  0
    9.1508  -17.8058   19.7627 C   0  0  0  0  0  0  0  0  0  0  0  0
    8.6328  -18.1929   18.4273 C   0  0  0  0  0  0  0  0  0  0  0  0
    8.6722  -19.3907   18.0734 O   0  0  0  0  0  0  0  0  0  0  0  0
    9.4038  -15.9595   21.4018 C   0  0  0  0  0  0  0  0  0  0  0  0
   10.6451  -15.8163   21.4832 O   0  0  0  0  0  0  0  0  0  0  0  0
    8.1035  -17.2612   17.5554 O   0  0  0  0  0  0  0  0  0  0  0  0
    6.8682  -11.6234   25.2512 C   0  0  0  0  0  0  0  0  0  0  0  0
    6.2053  -13.1537   25.9410 S   0  0  0  0  0  0  0  0  0  0  0  0
    6.8982  -14.6126   25.0753 C   0  0  0  0  0  0  0  0  0  0  0  0
    8.2361  -14.2388   24.5292 C   0  0  0  0  0  0  0  0  0  0  0  0
    8.9841  -15.3808   23.8608 C   0  0  2  0  0  0  0  0  0  0  0  0
    8.6102  -15.7144   22.5443 N   0  0  0  0  0  0  0  0  0  0  0  0
    9.2572  -16.4293   24.8096 C   0  0  0  0  0  0  0  0  0  0  0  0
    8.3334  -17.2391   25.0901 O   0  0  0  0  0  0  0  0  0  0  0  0
   11.5384  -15.2949   31.0980 N   0  0  0  0  0  0  0  0  0  0  0  0
   10.5510  -15.0519   30.1163 C   0  0  0  0  0  0  0  0  0  0  0  0
   10.0585  -13.9103   30.0048 O   0  0  0  0  0  0  0  0  0  0  0  0
   10.1190  -16.1567   29.2379 C   0  0  0  0  0  0  0  0  0  0  0  0
   10.2298  -15.7941   27.7801 C   0  0  0  0  0  0  0  0  0  0  0  0
   10.5779  -16.9493   26.9034 C   0  0  2  0  0  0  0  0  0  0  0  0
   10.5019  -16.6578   25.4886 N   0  0  0  0  0  0  0  0  0  0  0  0
    9.8438  -18.1924   27.2540 C   0  0  0  0  0  0  0  0  0  0  0  0
   10.4831  -19.3436   27.6984 O   0  0  0  0  0  0  0  0  0  0  0  0
    8.5910  -18.2596   27.1629 O   0  0  0  0  0  0  0  0  0  0  0  0
  2  3  1  0
  2  1  1  6
  3  4  1  0
  4  5  2  0
  4  8  1  0
  6  7  2  0
  6  2  1  0
  9 10  1  0
 11 10  1  0
 12 11  1  0
 13 12  1  1
 13 14  1  0
 14  6  1  0
 15 13  1  0
 15 23  1  0
 16 15  2  0
 17 18  1  0
 18 19  2  0
 20 21  1  0
 20 18  1  0
 22 21  1  1
 22 23  1  0
 24 22  1  0
 25 24  1  0
 26 24  2  0
M  END
$$$$
