DMQ.pdb
     RDKit          3D

 26 25  0  0  1  0  0  0  0  0999 V2000
    8.5212  -16.8398   20.5165 N   0  0  0  0  0  0  0  0  0  0  0  0
    9.8928  -16.8101   20.9463 C   0  0  1  0  0  0  0  0  0  0  0  0
   10.7029  -16.0589   19.9341 C   0  0  0  0  0  0  0  0  0  0  0  0
   10.8848  -16.8494   18.6917 C   0  0  0  0  0  0  0  0  0  0  0  0
   10.4476  -18.0185   18.6344 O   0  0  0  0  0  0  0  0  0  0  0  0
    9.9877  -16.1829   22.3074 C   0  0  0  0  0  0  0  0  0  0  0  0
   11.1132  -16.0549   22.8412 O   0  0  0  0  0  0  0  0  0  0  0  0
   11.5287  -16.3275   17.5864 O   0  0  0  0  0  0  0  0  0  0  0  0
    6.7154  -11.2731   26.4747 C   0  0  0  0  0  0  0  0  0  0  0  0
    6.0174  -12.9310   26.3289 S   0  0  0  0  0  0  0  0  0  0  0  0
    7.3437  -14.1831   26.1521 C   0  0  0  0  0  0  0  0  0  0  0  0
    7.4440  -14.5558   24.7103 C   0  0  0  0  0  0  0  0  0  0  0  0
    8.6881  -15.3519   24.3514 C   0  0  2  0  0  0  0  0  0  0  0  0
    8.8446  -15.7327   23.0042 N   0  0  0  0  0  0  0  0  0  0  0  0
    9.0061  -16.2901   25.3969 C   0  0  0  0  0  0  0  0  0  0  0  0
    8.1724  -17.1971   25.6620 O   0  0  0  0  0  0  0  0  0  0  0  0
   13.2538  -19.0012   23.6871 N   0  0  0  0  0  0  0  0  0  0  0  0
   12.8962  -19.2637   25.0291 C   0  0  0  0  0  0  0  0  0  0  0  0
   13.7045  -19.8459   25.7813 O   0  0  0  0  0  0  0  0  0  0  0  0
   11.5685  -18.8427   25.5181 C   0  0  0  0  0  0  0  0  0  0  0  0
   11.6493  -18.1800   26.8683 C   0  0  0  0  0  0  0  0  0  0  0  0
   10.4703  -17.3224   27.1827 C   0  0  2  0  0  0  0  0  0  0  0  0
   10.2026  -16.3040   26.1910 N   0  0  0  0  0  0  0  0  0  0  0  0
   10.5041  -16.7620   28.5582 C   0  0  0  0  0  0  0  0  0  0  0  0
   10.3643  -15.4045   28.8211 O   0  0  0  0  0  0  0  0  0  0  0  0
   10.6633  -17.5029   29.5623 O   0  0  0  0  0  0  0  0  0  0  0  0
  2  3  1  0
  2  1  1  6
  3  4  1  0
  4  5  2  0
  4  8  1  0
  6  7  2  0
  6  2  1  0
  9 10  1  0
 11 10  1  0
 12 11  1  0
 13 12  1  6
 13 14  1  0
 14  6  1  0
 15 13  1  0
 15 23  1  0
 16 15  2  0
 17 18  1  0
 18 19  2  0
 20 21  1  0
 20 18  1  0
 22 21  1  6
 22 23  1  0
 24 22  1  0
 25 24  1  0
 26 24  2  0
M  END
$$$$
