DMQ.pdb
     RDKit          3D

 26 25  0  0  1  0  0  0  0  0999 V2000
    9.0691  -16.1461   19.1517 N   0  0  0  0  0  0  0  0  0  0  0  0
    8.3422  -16.7011   20.2610 C   0  0  1  0  0  0  0  0  0  0  0  0
    8.4571  -18.1945   20.2187 C   0  0  0  0  0  0  0  0  0  0  0  0
    7.8253  -18.7515   18.9972 C   0  0  0  0  0  0  0  0  0  0  0  0
    6.6408  -18.4596   18.7269 O   0  0  0  0  0  0  0  0  0  0  0  0
    8.8721  -16.1413   21.5497 C   0  0  0  0  0  0  0  0  0  0  0  0
   10.1044  -16.1794   21.7686 O   0  0  0  0  0  0  0  0  0  0  0  0
    8.5129  -19.5907   18.1419 O   0  0  0  0  0  0  0  0  0  0  0  0
    6.9748  -10.9886   26.4321 C   0  0  0  0  0  0  0  0  0  0  0  0
    6.3387  -12.6762   26.4982 S   0  0  0  0  0  0  0  0  0  0  0  0
    7.5986  -13.8709   25.9123 C   0  0  0  0  0  0  0  0  0  0  0  0
    7.2789  -14.2302   24.4993 C   0  0  0  0  0  0  0  0  0  0  0  0
    8.2952  -15.1469   23.8380 C   0  0  2  0  0  0  0  0  0  0  0  0
    8.0214  -15.5726   22.5234 N   0  0  0  0  0  0  0  0  0  0  0  0
    8.8255  -16.0853   24.7932 C   0  0  0  0  0  0  0  0  0  0  0  0
    8.0936  -17.0419   25.1631 O   0  0  0  0  0  0  0  0  0  0  0  0
   14.7185  -18.0624   25.1399 N   0  0  0  0  0  0  0  0  0  0  0  0
   14.0967  -18.9011   26.0927 C   0  0  0  0  0  0  0  0  0  0  0  0
   14.7411  -19.8406   26.6027 O   0  0  0  0  0  0  0  0  0  0  0  0
   12.6916  -18.6491   26.4685 C   0  0  0  0  0  0  0  0  0  0  0  0
   12.1320  -17.4344   25.7757 C   0  0  0  0  0  0  0  0  0  0  0  0
   10.7003  -17.1703   26.0995 C   0  0  2  0  0  0  0  0  0  0  0  0
   10.1333  -16.0474   25.3855 N   0  0  0  0  0  0  0  0  0  0  0  0
   10.4353  -17.0906   27.5592 C   0  0  0  0  0  0  0  0  0  0  0  0
   10.5277  -18.1919   28.4018 O   0  0  0  0  0  0  0  0  0  0  0  0
   10.1104  -16.0055   28.1065 O   0  0  0  0  0  0  0  0  0  0  0  0
  2  3  1  0
  2  1  1  6
  3  4  1  0
  4  5  2  0
  4  8  1  0
  6  7  2  0
  6  2  1  0
  9 10  1  0
 11 10  1  0
 12 11  1  0
 13 12  1  1
 13 14  1  0
 14  6  1  0
 15 13  1  0
 15 23  1  0
 16 15  2  0
 17 18  1  0
 18 19  2  0
 20 21  1  0
 20 18  1  0
 22 21  1  1
 22 23  1  0
 24 22  1  0
 25 24  1  0
 26 24  2  0
M  END
$$$$
