DMQ.pdb
     RDKit          3D

 26 25  0  0  1  0  0  0  0  0999 V2000
    8.6946  -17.5590   19.9562 N   0  0  0  0  0  0  0  0  0  0  0  0
   10.0824  -17.2602   20.1841 C   0  0  1  0  0  0  0  0  0  0  0  0
   10.6194  -16.5143   19.0009 C   0  0  0  0  0  0  0  0  0  0  0  0
   10.6203  -17.3608   17.7823 C   0  0  0  0  0  0  0  0  0  0  0  0
   11.0372  -18.5369   17.8479 O   0  0  0  0  0  0  0  0  0  0  0  0
   10.2326  -16.4695   21.4519 C   0  0  0  0  0  0  0  0  0  0  0  0
   11.3819  -16.1770   21.8540 O   0  0  0  0  0  0  0  0  0  0  0  0
   10.1702  -16.8840   16.5663 O   0  0  0  0  0  0  0  0  0  0  0  0
    6.3079  -12.0637   26.8725 C   0  0  0  0  0  0  0  0  0  0  0  0
    6.3080  -12.9657   25.3093 S   0  0  0  0  0  0  0  0  0  0  0  0
    7.8232  -13.9829   25.1440 C   0  0  0  0  0  0  0  0  0  0  0  0
    7.8096  -14.6242   23.7963 C   0  0  0  0  0  0  0  0  0  0  0  0
    9.0474  -15.4471   23.4786 C   0  0  2  0  0  0  0  0  0  0  0  0
    9.1156  -16.0455   22.2052 N   0  0  0  0  0  0  0  0  0  0  0  0
    9.4701  -16.1910   24.6372 C   0  0  0  0  0  0  0  0  0  0  0  0
    9.0626  -17.3759   24.7700 O   0  0  0  0  0  0  0  0  0  0  0  0
   11.0055  -13.4444   28.7599 N   0  0  0  0  0  0  0  0  0  0  0  0
   10.4454  -14.5406   29.4545 C   0  0  0  0  0  0  0  0  0  0  0  0
    9.7299  -14.3366   30.4568 O   0  0  0  0  0  0  0  0  0  0  0  0
   10.7180  -15.9115   28.9799 C   0  0  0  0  0  0  0  0  0  0  0  0
   11.6202  -15.9215   27.7737 C   0  0  0  0  0  0  0  0  0  0  0  0
   11.0244  -16.6048   26.5895 C   0  0  2  0  0  0  0  0  0  0  0  0
   10.3288  -15.7154   25.6855 N   0  0  0  0  0  0  0  0  0  0  0  0
   10.1992  -17.7867   26.9493 C   0  0  0  0  0  0  0  0  0  0  0  0
   10.7474  -19.0393   27.1982 O   0  0  0  0  0  0  0  0  0  0  0  0
    8.9477  -17.7052   27.0464 O   0  0  0  0  0  0  0  0  0  0  0  0
  2  3  1  0
  2  1  1  6
  3  4  1  0
  4  5  2  0
  4  8  1  0
  6  7  2  0
  6  2  1  0
  9 10  1  0
 11 10  1  0
 12 11  1  0
 13 12  1  1
 13 14  1  0
 14  6  1  0
 15 13  1  0
 15 23  1  0
 16 15  2  0
 17 18  1  0
 18 19  2  0
 20 21  1  0
 20 18  1  0
 22 21  1  1
 22 23  1  0
 24 22  1  0
 25 24  1  0
 26 24  2  0
M  END
$$$$
