DMQ.pdb
     RDKit          3D

 26 25  0  0  1  0  0  0  0  0999 V2000
    7.2520  -16.3406   20.6159 N   0  0  0  0  0  0  0  0  0  0  0  0
    8.6877  -16.2654   20.6244 C   0  0  1  0  0  0  0  0  0  0  0  0
    9.1258  -15.2322   19.6316 C   0  0  0  0  0  0  0  0  0  0  0  0
    8.9112  -15.6949   18.2383 C   0  0  0  0  0  0  0  0  0  0  0  0
    7.7897  -16.1278   17.8975 O   0  0  0  0  0  0  0  0  0  0  0  0
    9.1738  -15.9446   22.0085 C   0  0  0  0  0  0  0  0  0  0  0  0
   10.4004  -15.7807   22.1998 O   0  0  0  0  0  0  0  0  0  0  0  0
    9.9226  -15.6616   17.2979 O   0  0  0  0  0  0  0  0  0  0  0  0
    6.7198  -10.7157   25.8904 C   0  0  0  0  0  0  0  0  0  0  0  0
    6.7571  -12.4792   26.2720 S   0  0  0  0  0  0  0  0  0  0  0  0
    7.4858  -13.4306   24.8857 C   0  0  0  0  0  0  0  0  0  0  0  0
    7.5783  -14.8616   25.2999 C   0  0  0  0  0  0  0  0  0  0  0  0
    8.5518  -15.6923   24.4797 C   0  0  2  0  0  0  0  0  0  0  0  0
    8.2883  -15.8221   23.1021 N   0  0  0  0  0  0  0  0  0  0  0  0
    8.9936  -16.8394   25.2302 C   0  0  0  0  0  0  0  0  0  0  0  0
    8.1703  -17.7691   25.4437 O   0  0  0  0  0  0  0  0  0  0  0  0
   14.3870  -19.8879   25.1398 N   0  0  0  0  0  0  0  0  0  0  0  0
   13.7392  -20.5622   26.1996 C   0  0  0  0  0  0  0  0  0  0  0  0
   14.2716  -21.5707   26.7073 O   0  0  0  0  0  0  0  0  0  0  0  0
   12.4402  -20.0595   26.6884 C   0  0  0  0  0  0  0  0  0  0  0  0
   11.9907  -18.8344   25.9360 C   0  0  0  0  0  0  0  0  0  0  0  0
   10.6988  -18.2740   26.4271 C   0  0  2  0  0  0  0  0  0  0  0  0
   10.3061  -17.0435   25.7761 N   0  0  0  0  0  0  0  0  0  0  0  0
   10.6334  -18.1640   27.9072 C   0  0  0  0  0  0  0  0  0  0  0  0
   10.6724  -19.2712   28.7464 O   0  0  0  0  0  0  0  0  0  0  0  0
   10.5383  -17.0461   28.4762 O   0  0  0  0  0  0  0  0  0  0  0  0
  2  3  1  0
  2  1  1  1
  3  4  1  0
  4  5  2  0
  4  8  1  0
  6  7  2  0
  6  2  1  0
  9 10  1  0
 11 10  1  0
 12 11  1  0
 13 12  1  1
 13 14  1  0
 14  6  1  0
 15 13  1  0
 15 23  1  0
 16 15  2  0
 17 18  1  0
 18 19  2  0
 20 21  1  0
 20 18  1  0
 22 21  1  1
 22 23  1  0
 24 22  1  0
 25 24  1  0
 26 24  2  0
M  END
$$$$
