NEL.pdb
     RDKit          3D

 26 25  0  0  1  0  0  0  0  0999 V2000
   17.1168  -15.6222  -16.2874 N   0  0  0  0  0  0  0  0  0  0  0  0
   17.8993  -15.3087  -17.4332 C   0  0  0  0  0  0  0  0  0  0  0  0
   18.1687  -16.2849  -18.2138 O   0  0  0  0  0  0  0  0  0  0  0  0
   18.3723  -13.9289  -17.7014 C   0  0  0  0  0  0  0  0  0  0  0  0
   17.8471  -13.0290  -16.6054 C   0  0  2  0  0  0  0  0  0  0  0  0
   16.4117  -13.1759  -16.4655 N   0  0  0  0  0  0  0  0  0  0  0  0
   18.1978  -11.6057  -16.8414 C   0  0  0  0  0  0  0  0  0  0  0  0
   19.4348  -11.3284  -16.9165 O   0  0  0  0  0  0  0  0  0  0  0  0
   17.2308  -10.5745  -16.9820 N   0  0  0  0  0  0  0  0  0  0  0  0
   17.6169   -9.1535  -17.1467 C   0  0  1  0  0  0  0  0  0  0  0  0
   16.3710   -8.4642  -17.5702 C   0  0  0  0  0  0  0  0  0  0  0  0
   16.0363   -8.4892  -19.0163 C   0  0  0  0  0  0  0  0  0  0  0  0
   14.7095   -7.7768  -19.1674 C   0  0  0  0  0  0  0  0  0  0  0  0
   14.7396   -6.5149  -19.2808 O   0  0  0  0  0  0  0  0  0  0  0  0
   18.2355   -8.7041  -15.9018 C   0  0  0  0  0  0  0  0  0  0  0  0
   18.0127   -9.3596  -14.8206 O   0  0  0  0  0  0  0  0  0  0  0  0
   13.5021   -8.4241  -19.1866 O   0  0  0  0  0  0  0  0  0  0  0  0
   21.9717   -8.8252  -12.4931 C   0  0  0  0  0  0  0  0  0  0  0  0
   22.2498   -8.7175  -13.9861 C   0  0  2  0  0  0  0  0  0  0  0  0
   23.3385   -7.7724  -14.3171 C   0  0  0  0  0  0  0  0  0  0  0  0
   21.0344   -8.7144  -14.8252 C   0  0  0  0  0  0  0  0  0  0  0  0
   20.1618   -7.5195  -14.7401 C   0  0  2  0  0  0  0  0  0  0  0  0
   19.0855   -7.5950  -15.7326 N   0  0  0  0  0  0  0  0  0  0  0  0
   20.7884   -6.2117  -14.8828 C   0  0  0  0  0  0  0  0  0  0  0  0
   21.3018   -5.5324  -13.7960 O   0  0  0  0  0  0  0  0  0  0  0  0
   20.8837   -5.6568  -15.9937 O   0  0  0  0  0  0  0  0  0  0  0  0
  2  3  2  0
  2  1  1  0
  4  2  1  0
  5  4  1  0
  5  6  1  6
  7  5  1  0
  7  8  2  0
  9  7  1  0
 10  9  1  0
 11 12  1  0
 10 11  1  1
 12 13  1  0
 13 17  1  0
 13 14  2  0
 15 10  1  0
 16 15  2  0
 19 20  1  1
 19 18  1  0
 21 19  1  0
 22 21  1  6
 22 23  1  0
 23 15  1  0
 24 22  1  0
 25 24  1  0
 26 24  2  0
M  END
$$$$
