NEL.pdb
     RDKit          3D

 26 25  0  0  1  0  0  0  0  0999 V2000
   17.5287  -14.7442  -14.6993 N   0  0  0  0  0  0  0  0  0  0  0  0
   17.1176  -13.3947  -14.8818 C   0  0  0  0  0  0  0  0  0  0  0  0
   15.9566  -13.0961  -14.4374 O   0  0  0  0  0  0  0  0  0  0  0  0
   17.9887  -12.3970  -15.5493 C   0  0  0  0  0  0  0  0  0  0  0  0
   17.1060  -11.4402  -16.3189 C   0  0  2  0  0  0  0  0  0  0  0  0
   16.7046  -12.0195  -17.5858 N   0  0  0  0  0  0  0  0  0  0  0  0
   17.7688  -10.1302  -16.5394 C   0  0  0  0  0  0  0  0  0  0  0  0
   18.5339  -10.0414  -17.5493 O   0  0  0  0  0  0  0  0  0  0  0  0
   17.5849   -9.0070  -15.6892 N   0  0  0  0  0  0  0  0  0  0  0  0
   18.2477   -7.7079  -15.9503 C   0  0  1  0  0  0  0  0  0  0  0  0
   17.1859   -6.6885  -15.7498 C   0  0  0  0  0  0  0  0  0  0  0  0
   17.5778   -5.2623  -15.8767 C   0  0  0  0  0  0  0  0  0  0  0  0
   16.3151   -4.4472  -15.6972 C   0  0  0  0  0  0  0  0  0  0  0  0
   15.8424   -3.8777  -16.7259 O   0  0  0  0  0  0  0  0  0  0  0  0
   19.4261   -7.6188  -15.0914 C   0  0  0  0  0  0  0  0  0  0  0  0
   19.2953   -7.8101  -13.8286 O   0  0  0  0  0  0  0  0  0  0  0  0
   15.6741   -4.3018  -14.4950 O   0  0  0  0  0  0  0  0  0  0  0  0
   22.7797   -9.8065  -13.6466 C   0  0  0  0  0  0  0  0  0  0  0  0
   23.1600   -9.2370  -15.0064 C   0  0  2  0  0  0  0  0  0  0  0  0
   24.3080   -9.9263  -15.6348 C   0  0  0  0  0  0  0  0  0  0  0  0
   23.0964   -7.7633  -15.0801 C   0  0  0  0  0  0  0  0  0  0  0  0
   21.8635   -7.1174  -14.5711 C   0  0  2  0  0  0  0  0  0  0  0  0
   20.7459   -7.3404  -15.4933 N   0  0  0  0  0  0  0  0  0  0  0  0
   21.9133   -5.6881  -14.2922 C   0  0  0  0  0  0  0  0  0  0  0  0
   21.2856   -4.7687  -15.1088 O   0  0  0  0  0  0  0  0  0  0  0  0
   22.5261   -5.2419  -13.3039 O   0  0  0  0  0  0  0  0  0  0  0  0
  2  3  2  0
  2  1  1  0
  4  2  1  0
  5  4  1  0
  5  6  1  6
  7  5  1  0
  7  8  2  0
  9  7  1  0
 10  9  1  0
 11 12  1  0
 10 11  1  1
 12 13  1  0
 13 17  1  0
 13 14  2  0
 15 10  1  0
 16 15  2  0
 19 20  1  1
 19 18  1  0
 21 19  1  0
 22 21  1  6
 22 23  1  0
 23 15  1  0
 24 22  1  0
 25 24  1  0
 26 24  2  0
M  END
$$$$
