NEL.pdb
     RDKit          3D

 26 25  0  0  1  0  0  0  0  0999 V2000
   17.5784  -14.7838  -17.0039 N   0  0  0  0  0  0  0  0  0  0  0  0
   18.1733  -14.2890  -15.8103 C   0  0  0  0  0  0  0  0  0  0  0  0
   18.2032  -15.0978  -14.8204 O   0  0  0  0  0  0  0  0  0  0  0  0
   18.7246  -12.9148  -15.7246 C   0  0  0  0  0  0  0  0  0  0  0  0
   18.4333  -12.2078  -17.0293 C   0  0  2  0  0  0  0  0  0  0  0  0
   19.1122  -12.8630  -18.1299 N   0  0  0  0  0  0  0  0  0  0  0  0
   18.8065  -10.7718  -16.9767 C   0  0  0  0  0  0  0  0  0  0  0  0
   19.9372  -10.4585  -17.4630 O   0  0  0  0  0  0  0  0  0  0  0  0
   17.9718   -9.7661  -16.4199 N   0  0  0  0  0  0  0  0  0  0  0  0
   18.4138   -8.3571  -16.2990 C   0  0  1  0  0  0  0  0  0  0  0  0
   17.1689   -7.5841  -16.0558 C   0  0  0  0  0  0  0  0  0  0  0  0
   16.0064   -7.8705  -16.9337 C   0  0  0  0  0  0  0  0  0  0  0  0
   14.7720   -7.4276  -16.1781 C   0  0  0  0  0  0  0  0  0  0  0  0
   14.7362   -6.2243  -15.7821 O   0  0  0  0  0  0  0  0  0  0  0  0
   19.4486   -8.2928  -15.2697 C   0  0  0  0  0  0  0  0  0  0  0  0
   19.5965   -9.2853  -14.4688 O   0  0  0  0  0  0  0  0  0  0  0  0
   13.7132   -8.2548  -15.9094 O   0  0  0  0  0  0  0  0  0  0  0  0
   24.2260   -9.3263  -14.0390 C   0  0  0  0  0  0  0  0  0  0  0  0
   23.8741   -8.5760  -15.3162 C   0  0  2  0  0  0  0  0  0  0  0  0
   24.7841   -7.4467  -15.6072 C   0  0  0  0  0  0  0  0  0  0  0  0
   22.4240   -8.3831  -15.5200 C   0  0  0  0  0  0  0  0  0  0  0  0
   21.7454   -7.4049  -14.6376 C   0  0  2  0  0  0  0  0  0  0  0  0
   20.3456   -7.2333  -15.0380 N   0  0  0  0  0  0  0  0  0  0  0  0
   22.3283   -6.0740  -14.5272 C   0  0  0  0  0  0  0  0  0  0  0  0
   23.0887   -5.7048  -13.4356 O   0  0  0  0  0  0  0  0  0  0  0  0
   22.1610   -5.2178  -15.4162 O   0  0  0  0  0  0  0  0  0  0  0  0
  2  3  2  0
  2  1  1  0
  4  2  1  0
  5  4  1  0
  5  6  1  6
  7  5  1  0
  7  8  2  0
  9  7  1  0
 10  9  1  0
 11 12  1  0
 10 11  1  1
 12 13  1  0
 13 17  1  0
 13 14  2  0
 15 10  1  0
 16 15  2  0
 19 20  1  1
 19 18  1  0
 21 19  1  0
 22 21  1  6
 22 23  1  0
 23 15  1  0
 24 22  1  0
 25 24  1  0
 26 24  2  0
M  END
$$$$
