NEL.pdb
     RDKit          3D

 26 25  0  0  1  0  0  0  0  0999 V2000
   25.0830  -21.2042   -8.4036 N   0  0  0  0  0  0  0  0  0  0  0  0
   25.8685  -20.0846   -8.7948 C   0  0  0  0  0  0  0  0  0  0  0  0
   26.1936  -19.2729   -7.8620 O   0  0  0  0  0  0  0  0  0  0  0  0
   26.2829  -19.8761  -10.2036 C   0  0  0  0  0  0  0  0  0  0  0  0
   25.6605  -20.9679  -11.0446 C   0  0  2  0  0  0  0  0  0  0  0  0
   26.1591  -22.2694  -10.6455 N   0  0  0  0  0  0  0  0  0  0  0  0
   25.8930  -20.7508  -12.4948 C   0  0  0  0  0  0  0  0  0  0  0  0
   27.0036  -21.1540  -12.9607 O   0  0  0  0  0  0  0  0  0  0  0  0
   24.9485  -20.1282  -13.3542 N   0  0  0  0  0  0  0  0  0  0  0  0
   24.9628  -20.3393  -14.8207 C   0  0  1  0  0  0  0  0  0  0  0  0
   23.8674  -21.3087  -15.0793 C   0  0  0  0  0  0  0  0  0  0  0  0
   23.5897  -21.6616  -16.4943 C   0  0  0  0  0  0  0  0  0  0  0  0
   22.4214  -22.6239  -16.4807 C   0  0  0  0  0  0  0  0  0  0  0  0
   21.7701  -22.7589  -17.5594 O   0  0  0  0  0  0  0  0  0  0  0  0
   24.8623  -19.0336  -15.4682 C   0  0  0  0  0  0  0  0  0  0  0  0
   24.0803  -18.1463  -14.9685 O   0  0  0  0  0  0  0  0  0  0  0  0
   22.0457  -23.3406  -15.3751 O   0  0  0  0  0  0  0  0  0  0  0  0
   26.8950  -15.0110  -16.0521 C   0  0  0  0  0  0  0  0  0  0  0  0
   27.5960  -16.0767  -16.8833 C   0  0  2  0  0  0  0  0  0  0  0  0
   28.9183  -15.6526  -17.3928 C   0  0  0  0  0  0  0  0  0  0  0  0
   26.6972  -16.8205  -17.7888 C   0  0  0  0  0  0  0  0  0  0  0  0
   25.4052  -17.2791  -17.2261 C   0  0  2  0  0  0  0  0  0  0  0  0
   25.5483  -18.6064  -16.6206 N   0  0  0  0  0  0  0  0  0  0  0  0
   24.2579  -17.3359  -18.1227 C   0  0  0  0  0  0  0  0  0  0  0  0
   23.8652  -18.5161  -18.7221 O   0  0  0  0  0  0  0  0  0  0  0  0
   23.5876  -16.3188  -18.3822 O   0  0  0  0  0  0  0  0  0  0  0  0
  2  3  2  0
  2  1  1  0
  4  2  1  0
  5  4  1  0
  5  6  1  1
  7  5  1  0
  7  8  2  0
  9  7  1  0
 10  9  1  0
 11 12  1  0
 10 11  1  1
 12 13  1  0
 13 17  1  0
 13 14  2  0
 15 10  1  0
 16 15  2  0
 19 20  1  6
 19 18  1  0
 21 19  1  0
 22 21  1  6
 22 23  1  0
 23 15  1  0
 24 22  1  0
 25 24  1  0
 26 24  2  0
M  END
$$$$
