NEL.pdb
     RDKit          3D

 26 25  0  0  1  0  0  0  0  0999 V2000
   16.2761  -15.7746  -15.9644 N   0  0  0  0  0  0  0  0  0  0  0  0
   16.9910  -14.9372  -16.8650 C   0  0  0  0  0  0  0  0  0  0  0  0
   16.8206  -15.1758  -18.1095 O   0  0  0  0  0  0  0  0  0  0  0  0
   17.8806  -13.8528  -16.3830 C   0  0  0  0  0  0  0  0  0  0  0  0
   19.2420  -14.0448  -17.0126 C   0  0  2  0  0  0  0  0  0  0  0  0
   19.8406  -15.2887  -16.5696 N   0  0  0  0  0  0  0  0  0  0  0  0
   20.1507  -12.9062  -16.7261 C   0  0  0  0  0  0  0  0  0  0  0  0
   20.5596  -12.7905  -15.5293 O   0  0  0  0  0  0  0  0  0  0  0  0
   20.5669  -11.9703  -17.7105 N   0  0  0  0  0  0  0  0  0  0  0  0
   21.3937  -10.7887  -17.3704 C   0  0  1  0  0  0  0  0  0  0  0  0
   21.9728  -10.3410  -18.6630 C   0  0  0  0  0  0  0  0  0  0  0  0
   22.7377   -9.0687  -18.6628 C   0  0  0  0  0  0  0  0  0  0  0  0
   23.1594   -8.8152  -20.0942 C   0  0  0  0  0  0  0  0  0  0  0  0
   24.2369   -9.3560  -20.4847 O   0  0  0  0  0  0  0  0  0  0  0  0
   20.5498   -9.8354  -16.6538 C   0  0  0  0  0  0  0  0  0  0  0  0
   19.2797   -9.8618  -16.8396 O   0  0  0  0  0  0  0  0  0  0  0  0
   22.4410   -8.0421  -20.9679 O   0  0  0  0  0  0  0  0  0  0  0  0
   18.4157   -9.1542  -11.6671 C   0  0  0  0  0  0  0  0  0  0  0  0
   18.3531   -8.4840  -13.0328 C   0  0  2  0  0  0  0  0  0  0  0  0
   16.9799   -8.1328  -13.4556 C   0  0  0  0  0  0  0  0  0  0  0  0
   19.2704   -9.0686  -14.0318 C   0  0  0  0  0  0  0  0  0  0  0  0
   20.0816   -8.1229  -14.8342 C   0  0  2  0  0  0  0  0  0  0  0  0
   20.9734   -8.8500  -15.7425 N   0  0  0  0  0  0  0  0  0  0  0  0
   20.8967   -7.1515  -14.1162 C   0  0  0  0  0  0  0  0  0  0  0  0
   20.3319   -6.0741  -13.4632 O   0  0  0  0  0  0  0  0  0  0  0  0
   22.1366   -7.2577  -14.0654 O   0  0  0  0  0  0  0  0  0  0  0  0
  2  3  2  0
  2  1  1  0
  4  2  1  0
  5  4  1  0
  5  6  1  1
  7  5  1  0
  7  8  2  0
  9  7  1  0
 10  9  1  0
 11 12  1  0
 10 11  1  6
 12 13  1  0
 13 17  1  0
 13 14  2  0
 15 10  1  0
 16 15  2  0
 19 20  1  6
 19 18  1  0
 21 19  1  0
 22 21  1  1
 22 23  1  0
 23 15  1  0
 24 22  1  0
 25 24  1  0
 26 24  2  0
M  END
$$$$
