NEL.pdb
     RDKit          3D

 26 25  0  0  1  0  0  0  0  0999 V2000
   27.6005  -18.0891  -17.5026 N   0  0  0  0  0  0  0  0  0  0  0  0
   28.2890  -18.2414  -16.2672 C   0  0  0  0  0  0  0  0  0  0  0  0
   29.5267  -18.5519  -16.3484 O   0  0  0  0  0  0  0  0  0  0  0  0
   27.6062  -18.0504  -14.9645 C   0  0  0  0  0  0  0  0  0  0  0  0
   27.6361  -19.3658  -14.2191 C   0  0  2  0  0  0  0  0  0  0  0  0
   27.0375  -20.4194  -15.0148 N   0  0  0  0  0  0  0  0  0  0  0  0
   26.9611  -19.2708  -12.9002 C   0  0  0  0  0  0  0  0  0  0  0  0
   27.1968  -18.2292  -12.2129 O   0  0  0  0  0  0  0  0  0  0  0  0
   26.0881  -20.2708  -12.3941 N   0  0  0  0  0  0  0  0  0  0  0  0
   25.2637  -20.0531  -11.1823 C   0  0  1  0  0  0  0  0  0  0  0  0
   23.9707  -20.7242  -11.4726 C   0  0  0  0  0  0  0  0  0  0  0  0
   22.9610  -20.7578  -10.3847 C   0  0  0  0  0  0  0  0  0  0  0  0
   21.6044  -20.8211  -11.0530 C   0  0  0  0  0  0  0  0  0  0  0  0
   20.8856  -19.7785  -11.0038 O   0  0  0  0  0  0  0  0  0  0  0  0
   26.0184  -20.5341  -10.0275 C   0  0  0  0  0  0  0  0  0  0  0  0
   26.6664  -21.6386  -10.1200 O   0  0  0  0  0  0  0  0  0  0  0  0
   21.1299  -21.9342  -11.6958 O   0  0  0  0  0  0  0  0  0  0  0  0
   27.3802  -20.4854   -4.7115 C   0  0  0  0  0  0  0  0  0  0  0  0
   28.3253  -19.8062   -5.6931 C   0  0  2  0  0  0  0  0  0  0  0  0
   29.2377  -18.8318   -5.0559 C   0  0  0  0  0  0  0  0  0  0  0  0
   27.6977  -19.4464   -6.9807 C   0  0  0  0  0  0  0  0  0  0  0  0
   26.8481  -20.4756   -7.6252 C   0  0  2  0  0  0  0  0  0  0  0  0
   26.1315  -19.9089   -8.7717 N   0  0  0  0  0  0  0  0  0  0  0  0
   25.8632  -21.1574   -6.7956 C   0  0  0  0  0  0  0  0  0  0  0  0
   24.5740  -20.6812   -6.6631 O   0  0  0  0  0  0  0  0  0  0  0  0
   26.1491  -22.1978   -6.1734 O   0  0  0  0  0  0  0  0  0  0  0  0
  2  3  2  0
  2  1  1  0
  4  2  1  0
  5  4  1  0
  5  6  1  6
  7  5  1  0
  7  8  2  0
  9  7  1  0
 10  9  1  0
 11 12  1  0
 10 11  1  6
 12 13  1  0
 13 17  1  0
 13 14  2  0
 15 10  1  0
 16 15  2  0
 19 20  1  1
 19 18  1  0
 21 19  1  0
 22 21  1  1
 22 23  1  0
 23 15  1  0
 24 22  1  0
 25 24  1  0
 26 24  2  0
M  END
$$$$
