NEL.pdb
     RDKit          3D

 26 25  0  0  1  0  0  0  0  0999 V2000
   27.8020  -35.0958   -4.3657 N   0  0  0  0  0  0  0  0  0  0  0  0
   27.8004  -33.7755   -3.8364 C   0  0  0  0  0  0  0  0  0  0  0  0
   28.9355  -33.1891   -3.7858 O   0  0  0  0  0  0  0  0  0  0  0  0
   26.5525  -33.1225   -3.3718 C   0  0  0  0  0  0  0  0  0  0  0  0
   25.4289  -34.1299   -3.4688 C   0  0  2  0  0  0  0  0  0  0  0  0
   24.6537  -33.9185   -4.6754 N   0  0  0  0  0  0  0  0  0  0  0  0
   24.5451  -34.0908   -2.2764 C   0  0  0  0  0  0  0  0  0  0  0  0
   23.4479  -33.4635   -2.4006 O   0  0  0  0  0  0  0  0  0  0  0  0
   24.8711  -34.7100   -1.0401 N   0  0  0  0  0  0  0  0  0  0  0  0
   23.9408  -34.6985    0.1130 C   0  0  1  0  0  0  0  0  0  0  0  0
   24.4664  -35.7333    1.0402 C   0  0  0  0  0  0  0  0  0  0  0  0
   23.6870  -36.0010    2.2750 C   0  0  0  0  0  0  0  0  0  0  0  0
   24.4358  -37.0730    3.0374 C   0  0  0  0  0  0  0  0  0  0  0  0
   23.8981  -38.2186    3.1039 O   0  0  0  0  0  0  0  0  0  0  0  0
   23.8620  -33.3302    0.6190 C   0  0  0  0  0  0  0  0  0  0  0  0
   24.9418  -32.6472    0.7457 O   0  0  0  0  0  0  0  0  0  0  0  0
   25.6452  -36.8624    3.6460 O   0  0  0  0  0  0  0  0  0  0  0  0
   23.6484  -29.0438   -0.3208 C   0  0  0  0  0  0  0  0  0  0  0  0
   22.3450  -29.7705   -0.6224 C   0  0  2  0  0  0  0  0  0  0  0  0
   21.4507  -29.0246   -1.5345 C   0  0  0  0  0  0  0  0  0  0  0  0
   21.7514  -30.4504    0.5466 C   0  0  0  0  0  0  0  0  0  0  0  0
   22.6707  -31.2283    1.4103 C   0  0  2  0  0  0  0  0  0  0  0  0
   22.6986  -32.6351    0.9987 N   0  0  0  0  0  0  0  0  0  0  0  0
   22.4325  -31.2045    2.8476 C   0  0  0  0  0  0  0  0  0  0  0  0
   22.1173  -32.3516    3.5484 O   0  0  0  0  0  0  0  0  0  0  0  0
   22.5043  -30.1452    3.4987 O   0  0  0  0  0  0  0  0  0  0  0  0
  2  3  2  0
  2  1  1  0
  4  2  1  0
  5  4  1  0
  5  6  1  6
  7  5  1  0
  7  8  2  0
  9  7  1  0
 10  9  1  0
 11 12  1  0
 10 11  1  1
 12 13  1  0
 13 17  1  0
 13 14  2  0
 15 10  1  0
 16 15  2  0
 19 20  1  1
 19 18  1  0
 21 19  1  0
 22 21  1  6
 22 23  1  0
 23 15  1  0
 24 22  1  0
 25 24  1  0
 26 24  2  0
M  END
$$$$
