NEL.pdb
     RDKit          3D

 26 25  0  0  1  0  0  0  0  0999 V2000
   13.3390  -12.2555  -13.6348 N   0  0  0  0  0  0  0  0  0  0  0  0
   13.6615  -11.3842  -14.7119 C   0  0  0  0  0  0  0  0  0  0  0  0
   12.7330  -11.1804  -15.5670 O   0  0  0  0  0  0  0  0  0  0  0  0
   14.9979  -10.7521  -14.8311 C   0  0  0  0  0  0  0  0  0  0  0  0
   15.6781  -11.3154  -16.0586 C   0  0  2  0  0  0  0  0  0  0  0  0
   16.0978  -12.6839  -15.8294 N   0  0  0  0  0  0  0  0  0  0  0  0
   16.8354  -10.4865  -16.4803 C   0  0  0  0  0  0  0  0  0  0  0  0
   17.8833  -11.1096  -16.8362 O   0  0  0  0  0  0  0  0  0  0  0  0
   16.8149   -9.0661  -16.5000 N   0  0  0  0  0  0  0  0  0  0  0  0
   17.9015   -8.2738  -17.1220 C   0  0  1  0  0  0  0  0  0  0  0  0
   17.2078   -7.2086  -17.8905 C   0  0  0  0  0  0  0  0  0  0  0  0
   16.5848   -7.5952  -19.1813 C   0  0  0  0  0  0  0  0  0  0  0  0
   15.1005   -7.7381  -18.9216 C   0  0  0  0  0  0  0  0  0  0  0  0
   14.5724   -8.8601  -19.1828 O   0  0  0  0  0  0  0  0  0  0  0  0
   18.8131   -7.8447  -16.0640 C   0  0  0  0  0  0  0  0  0  0  0  0
   18.3269   -7.4064  -14.9595 O   0  0  0  0  0  0  0  0  0  0  0  0
   14.3193   -6.7272  -18.4263 O   0  0  0  0  0  0  0  0  0  0  0  0
   21.5272   -9.3395  -12.9749 C   0  0  0  0  0  0  0  0  0  0  0  0
   22.2818   -9.3499  -14.2972 C   0  0  2  0  0  0  0  0  0  0  0  0
   23.4969  -10.1932  -14.2767 C   0  0  0  0  0  0  0  0  0  0  0  0
   22.3494   -8.0324  -14.9611 C   0  0  0  0  0  0  0  0  0  0  0  0
   21.0832   -7.2707  -15.0739 C   0  0  2  0  0  0  0  0  0  0  0  0
   20.2199   -7.8549  -16.1047 N   0  0  0  0  0  0  0  0  0  0  0  0
   21.1740   -5.8423  -15.3468 C   0  0  0  0  0  0  0  0  0  0  0  0
   21.6601   -4.9551  -14.4073 O   0  0  0  0  0  0  0  0  0  0  0  0
   20.8149   -5.3676  -16.4410 O   0  0  0  0  0  0  0  0  0  0  0  0
  2  3  2  0
  2  1  1  0
  4  2  1  0
  5  4  1  0
  5  6  1  1
  7  5  1  0
  7  8  2  0
  9  7  1  0
 10  9  1  0
 11 12  1  0
 10 11  1  1
 12 13  1  0
 13 17  1  0
 13 14  2  0
 15 10  1  0
 16 15  2  0
 19 20  1  1
 19 18  1  0
 21 19  1  0
 22 21  1  6
 22 23  1  0
 23 15  1  0
 24 22  1  0
 25 24  1  0
 26 24  2  0
M  END
$$$$
