NEL.pdb
     RDKit          3D

 26 25  0  0  1  0  0  0  0  0999 V2000
   27.6591  -21.8488  -15.9840 N   0  0  0  0  0  0  0  0  0  0  0  0
   27.0581  -23.1198  -16.2000 C   0  0  0  0  0  0  0  0  0  0  0  0
   27.8610  -24.0924  -16.4104 O   0  0  0  0  0  0  0  0  0  0  0  0
   25.5862  -23.3004  -16.1815 C   0  0  0  0  0  0  0  0  0  0  0  0
   24.9497  -21.9562  -15.9077 C   0  0  2  0  0  0  0  0  0  0  0  0
   25.1268  -21.5786  -14.5193 N   0  0  0  0  0  0  0  0  0  0  0  0
   23.5086  -21.9425  -16.2645 C   0  0  0  0  0  0  0  0  0  0  0  0
   23.2156  -22.2387  -17.4642 O   0  0  0  0  0  0  0  0  0  0  0  0
   22.4771  -21.6202  -15.3423 N   0  0  0  0  0  0  0  0  0  0  0  0
   21.0471  -21.6259  -15.7304 C   0  0  1  0  0  0  0  0  0  0  0  0
   20.3082  -21.8846  -14.4681 C   0  0  0  0  0  0  0  0  0  0  0  0
   20.2901  -23.2805  -13.9629 C   0  0  0  0  0  0  0  0  0  0  0  0
   19.6460  -23.2386  -12.5938 C   0  0  0  0  0  0  0  0  0  0  0  0
   19.3176  -22.1006  -12.1431 O   0  0  0  0  0  0  0  0  0  0  0  0
   20.7603  -20.3726  -16.4243 C   0  0  0  0  0  0  0  0  0  0  0  0
   21.4496  -19.3278  -16.1388 O   0  0  0  0  0  0  0  0  0  0  0  0
   19.4075  -24.3552  -11.8365 O   0  0  0  0  0  0  0  0  0  0  0  0
   20.9174  -16.5570  -19.2810 C   0  0  0  0  0  0  0  0  0  0  0  0
   21.3112  -17.9454  -19.7661 C   0  0  2  0  0  0  0  0  0  0  0  0
   21.9589  -17.9443  -21.0959 C   0  0  0  0  0  0  0  0  0  0  0  0
   20.3117  -18.9916  -19.4698 C   0  0  0  0  0  0  0  0  0  0  0  0
   19.6195  -18.9090  -18.1620 C   0  0  2  0  0  0  0  0  0  0  0  0
   19.7815  -20.1586  -17.4127 N   0  0  0  0  0  0  0  0  0  0  0  0
   18.1976  -18.5908  -18.1672 C   0  0  0  0  0  0  0  0  0  0  0  0
   17.7456  -17.2924  -18.0408 O   0  0  0  0  0  0  0  0  0  0  0  0
   17.3349  -19.4814  -18.2858 O   0  0  0  0  0  0  0  0  0  0  0  0
  2  3  2  0
  2  1  1  0
  4  2  1  0
  5  4  1  0
  5  6  1  1
  7  5  1  0
  7  8  2  0
  9  7  1  0
 10  9  1  0
 11 12  1  0
 10 11  1  1
 12 13  1  0
 13 17  1  0
 13 14  2  0
 15 10  1  0
 16 15  2  0
 19 20  1  6
 19 18  1  0
 21 19  1  0
 22 21  1  6
 22 23  1  0
 23 15  1  0
 24 22  1  0
 25 24  1  0
 26 24  2  0
M  END
$$$$
