NEL.pdb
     RDKit          3D

 26 25  0  0  1  0  0  0  0  0999 V2000
   16.7123  -14.0406  -15.6906 N   0  0  0  0  0  0  0  0  0  0  0  0
   16.9055  -12.7107  -16.1569 C   0  0  0  0  0  0  0  0  0  0  0  0
   15.8759  -12.1318  -16.6465 O   0  0  0  0  0  0  0  0  0  0  0  0
   18.2260  -12.0400  -16.0775 C   0  0  0  0  0  0  0  0  0  0  0  0
   18.5528  -11.4792  -17.4434 C   0  0  2  0  0  0  0  0  0  0  0  0
   19.2447  -12.4653  -18.2500 N   0  0  0  0  0  0  0  0  0  0  0  0
   19.3556  -10.2336  -17.3534 C   0  0  0  0  0  0  0  0  0  0  0  0
   20.5983  -10.3712  -17.1302 O   0  0  0  0  0  0  0  0  0  0  0  0
   18.8026   -8.9336  -17.5030 N   0  0  0  0  0  0  0  0  0  0  0  0
   19.6355   -7.7113  -17.4156 C   0  0  1  0  0  0  0  0  0  0  0  0
   18.9142   -6.6969  -18.2262 C   0  0  0  0  0  0  0  0  0  0  0  0
   19.4747   -5.3224  -18.2538 C   0  0  0  0  0  0  0  0  0  0  0  0
   18.6073   -4.5186  -19.1985 C   0  0  0  0  0  0  0  0  0  0  0  0
   17.4944   -4.1067  -18.7538 O   0  0  0  0  0  0  0  0  0  0  0  0
   19.8467   -7.4061  -16.0025 C   0  0  0  0  0  0  0  0  0  0  0  0
   19.2206   -8.0903  -15.1147 O   0  0  0  0  0  0  0  0  0  0  0  0
   18.9664   -4.2230  -20.4873 O   0  0  0  0  0  0  0  0  0  0  0  0
   23.2333  -10.0014  -13.4691 C   0  0  0  0  0  0  0  0  0  0  0  0
   22.2791   -8.8228  -13.3339 C   0  0  2  0  0  0  0  0  0  0  0  0
   20.9491   -9.1976  -12.8060 C   0  0  0  0  0  0  0  0  0  0  0  0
   22.3477   -7.8623  -14.4538 C   0  0  0  0  0  0  0  0  0  0  0  0
   21.5704   -6.6085  -14.3126 C   0  0  2  0  0  0  0  0  0  0  0  0
   20.6905   -6.4141  -15.4690 N   0  0  0  0  0  0  0  0  0  0  0  0
   22.3127   -5.3690  -14.1229 C   0  0  0  0  0  0  0  0  0  0  0  0
   22.9578   -4.7436  -15.1712 O   0  0  0  0  0  0  0  0  0  0  0  0
   22.3931   -4.8268  -13.0045 O   0  0  0  0  0  0  0  0  0  0  0  0
  2  3  2  0
  2  1  1  0
  4  2  1  0
  5  4  1  0
  5  6  1  6
  7  5  1  0
  7  8  2  0
  9  7  1  0
 10  9  1  0
 11 12  1  0
 10 11  1  1
 12 13  1  0
 13 17  1  0
 13 14  2  0
 15 10  1  0
 16 15  2  0
 19 20  1  6
 19 18  1  0
 21 19  1  0
 22 21  1  6
 22 23  1  0
 23 15  1  0
 24 22  1  0
 25 24  1  0
 26 24  2  0
M  END
$$$$
