NEL.pdb
     RDKit          3D

 26 25  0  0  1  0  0  0  0  0999 V2000
   15.6290  -13.9858  -16.0588 N   0  0  0  0  0  0  0  0  0  0  0  0
   16.8151  -13.8732  -15.2817 C   0  0  0  0  0  0  0  0  0  0  0  0
   16.9112  -14.6681  -14.2849 O   0  0  0  0  0  0  0  0  0  0  0  0
   17.8746  -12.8895  -15.6127 C   0  0  0  0  0  0  0  0  0  0  0  0
   17.4157  -12.0871  -16.8096 C   0  0  2  0  0  0  0  0  0  0  0  0
   17.4774  -12.8870  -18.0170 N   0  0  0  0  0  0  0  0  0  0  0  0
   18.2054  -10.8412  -16.9772 C   0  0  0  0  0  0  0  0  0  0  0  0
   19.3799  -10.9691  -17.4432 O   0  0  0  0  0  0  0  0  0  0  0  0
   17.7114   -9.5510  -16.6461 N   0  0  0  0  0  0  0  0  0  0  0  0
   18.5352   -8.3300  -16.8064 C   0  0  1  0  0  0  0  0  0  0  0  0
   17.5786   -7.2015  -16.6718 C   0  0  0  0  0  0  0  0  0  0  0  0
   17.1764   -6.8093  -15.2977 C   0  0  0  0  0  0  0  0  0  0  0  0
   16.1844   -5.6753  -15.4424 C   0  0  0  0  0  0  0  0  0  0  0  0
   14.9600   -5.9512  -15.2671 O   0  0  0  0  0  0  0  0  0  0  0  0
   19.6309   -8.3919  -15.8421 C   0  0  0  0  0  0  0  0  0  0  0  0
   19.4463   -8.9948  -14.7237 O   0  0  0  0  0  0  0  0  0  0  0  0
   16.5460   -4.3896  -15.7485 O   0  0  0  0  0  0  0  0  0  0  0  0
   25.4824   -9.6247  -15.5278 C   0  0  0  0  0  0  0  0  0  0  0  0
   24.2686   -9.1231  -14.7578 C   0  0  2  0  0  0  0  0  0  0  0  0
   24.0853   -9.7857  -13.4481 C   0  0  0  0  0  0  0  0  0  0  0  0
   23.0788   -8.8850  -15.5998 C   0  0  0  0  0  0  0  0  0  0  0  0
   22.0123   -8.0283  -15.0298 C   0  0  2  0  0  0  0  0  0  0  0  0
   20.9219   -7.8521  -15.9936 N   0  0  0  0  0  0  0  0  0  0  0  0
   22.3887   -6.7021  -14.5579 C   0  0  0  0  0  0  0  0  0  0  0  0
   22.0745   -5.5631  -15.2723 O   0  0  0  0  0  0  0  0  0  0  0  0
   23.0099   -6.5468  -13.4896 O   0  0  0  0  0  0  0  0  0  0  0  0
  2  3  2  0
  2  1  1  0
  4  2  1  0
  5  4  1  0
  5  6  1  6
  7  5  1  0
  7  8  2  0
  9  7  1  0
 10  9  1  0
 11 12  1  0
 10 11  1  1
 12 13  1  0
 13 17  1  0
 13 14  2  0
 15 10  1  0
 16 15  2  0
 19 20  1  1
 19 18  1  0
 21 19  1  0
 22 21  1  6
 22 23  1  0
 23 15  1  0
 24 22  1  0
 25 24  1  0
 26 24  2  0
M  END
$$$$
