NEL.pdb
     RDKit          3D

 26 25  0  0  1  0  0  0  0  0999 V2000
   19.1113  -14.4341  -15.9487 N   0  0  0  0  0  0  0  0  0  0  0  0
   20.3871  -13.8157  -16.0641 C   0  0  0  0  0  0  0  0  0  0  0  0
   21.3924  -14.5375  -15.7432 O   0  0  0  0  0  0  0  0  0  0  0  0
   20.5364  -12.4155  -16.5298 C   0  0  0  0  0  0  0  0  0  0  0  0
   19.1544  -11.8272  -16.7057 C   0  0  2  0  0  0  0  0  0  0  0  0
   18.4814  -12.4299  -17.8395 N   0  0  0  0  0  0  0  0  0  0  0  0
   19.1958  -10.3509  -16.8575 C   0  0  0  0  0  0  0  0  0  0  0  0
   19.4318   -9.9041  -18.0226 O   0  0  0  0  0  0  0  0  0  0  0  0
   18.9876   -9.4474  -15.7811 N   0  0  0  0  0  0  0  0  0  0  0  0
   19.0153   -7.9784  -15.9727 C   0  0  1  0  0  0  0  0  0  0  0  0
   17.7466   -7.4897  -15.3742 C   0  0  0  0  0  0  0  0  0  0  0  0
   17.5486   -6.0201  -15.3026 C   0  0  0  0  0  0  0  0  0  0  0  0
   16.2068   -5.7944  -14.6396 C   0  0  0  0  0  0  0  0  0  0  0  0
   15.9145   -6.5384  -13.6562 O   0  0  0  0  0  0  0  0  0  0  0  0
   20.2598   -7.4696  -15.4012 C   0  0  0  0  0  0  0  0  0  0  0  0
   20.7132   -7.9959  -14.3214 O   0  0  0  0  0  0  0  0  0  0  0  0
   15.3129   -4.8399  -15.0486 O   0  0  0  0  0  0  0  0  0  0  0  0
   24.4934   -7.4271  -16.4698 C   0  0  0  0  0  0  0  0  0  0  0  0
   23.8360   -6.2312  -17.1450 C   0  0  2  0  0  0  0  0  0  0  0  0
   24.6310   -5.6723  -18.2601 C   0  0  0  0  0  0  0  0  0  0  0  0
   23.1821   -5.2959  -16.2075 C   0  0  0  0  0  0  0  0  0  0  0  0
   22.2351   -5.8786  -15.2277 C   0  0  2  0  0  0  0  0  0  0  0  0
   21.0612   -6.4307  -15.9105 N   0  0  0  0  0  0  0  0  0  0  0  0
   21.7463   -5.0141  -14.1615 C   0  0  0  0  0  0  0  0  0  0  0  0
   22.5382   -4.6779  -13.0816 O   0  0  0  0  0  0  0  0  0  0  0  0
   20.5926   -4.5454  -14.1850 O   0  0  0  0  0  0  0  0  0  0  0  0
  2  3  2  0
  2  1  1  0
  4  2  1  0
  5  4  1  0
  5  6  1  6
  7  5  1  0
  7  8  2  0
  9  7  1  0
 10  9  1  0
 11 12  1  0
 10 11  1  1
 12 13  1  0
 13 17  1  0
 13 14  2  0
 15 10  1  0
 16 15  2  0
 19 20  1  1
 19 18  1  0
 21 19  1  0
 22 21  1  6
 22 23  1  0
 23 15  1  0
 24 22  1  0
 25 24  1  0
 26 24  2  0
M  END
$$$$
