NEL.pdb
     RDKit          3D

 26 25  0  0  1  0  0  0  0  0999 V2000
   14.2188  -14.1410  -16.0652 N   0  0  0  0  0  0  0  0  0  0  0  0
   15.3831  -14.0981  -15.2491 C   0  0  0  0  0  0  0  0  0  0  0  0
   15.3878  -14.8776  -14.2357 O   0  0  0  0  0  0  0  0  0  0  0  0
   16.5214  -13.1997  -15.5602 C   0  0  0  0  0  0  0  0  0  0  0  0
   16.2031  -12.4614  -16.8410 C   0  0  2  0  0  0  0  0  0  0  0  0
   16.3288  -13.3426  -17.9853 N   0  0  0  0  0  0  0  0  0  0  0  0
   17.0615  -11.2631  -17.0180 C   0  0  0  0  0  0  0  0  0  0  0  0
   18.2459  -11.4662  -17.4290 O   0  0  0  0  0  0  0  0  0  0  0  0
   16.6211   -9.9388  -16.7528 N   0  0  0  0  0  0  0  0  0  0  0  0
   17.4859   -8.7604  -16.9956 C   0  0  1  0  0  0  0  0  0  0  0  0
   16.5674   -7.5940  -16.9462 C   0  0  0  0  0  0  0  0  0  0  0  0
   15.5500   -7.4818  -18.0214 C   0  0  0  0  0  0  0  0  0  0  0  0
   14.6221   -6.3534  -17.6253 C   0  0  0  0  0  0  0  0  0  0  0  0
   14.9385   -5.1850  -18.0002 O   0  0  0  0  0  0  0  0  0  0  0  0
   18.5766   -8.7900  -16.0241 C   0  0  0  0  0  0  0  0  0  0  0  0
   18.3760   -9.3262  -14.8749 O   0  0  0  0  0  0  0  0  0  0  0  0
   13.4781   -6.5373  -16.8939 O   0  0  0  0  0  0  0  0  0  0  0  0
   24.2130   -9.1972  -15.3441 C   0  0  0  0  0  0  0  0  0  0  0  0
   22.9875   -9.7741  -14.6486 C   0  0  2  0  0  0  0  0  0  0  0  0
   23.2495  -11.0555  -13.9577 C   0  0  0  0  0  0  0  0  0  0  0  0
   21.7361   -9.6324  -15.4201 C   0  0  0  0  0  0  0  0  0  0  0  0
   20.9507   -8.3942  -15.2054 C   0  0  2  0  0  0  0  0  0  0  0  0
   19.8784   -8.2846  -16.1991 N   0  0  0  0  0  0  0  0  0  0  0  0
   21.6700   -7.1270  -15.2064 C   0  0  0  0  0  0  0  0  0  0  0  0
   22.2928   -6.6471  -14.0714 O   0  0  0  0  0  0  0  0  0  0  0  0
   21.7495   -6.4280  -16.2341 O   0  0  0  0  0  0  0  0  0  0  0  0
  2  3  2  0
  2  1  1  0
  4  2  1  0
  5  4  1  0
  5  6  1  6
  7  5  1  0
  7  8  2  0
  9  7  1  0
 10  9  1  0
 11 12  1  0
 10 11  1  1
 12 13  1  0
 13 17  1  0
 13 14  2  0
 15 10  1  0
 16 15  2  0
 19 20  1  6
 19 18  1  0
 21 19  1  0
 22 21  1  6
 22 23  1  0
 23 15  1  0
 24 22  1  0
 25 24  1  0
 26 24  2  0
M  END
$$$$
