NEL.pdb
     RDKit          3D

 26 25  0  0  1  0  0  0  0  0999 V2000
   15.2763  -12.2029  -12.0744 N   0  0  0  0  0  0  0  0  0  0  0  0
   14.5845  -11.7042  -10.9359 C   0  0  0  0  0  0  0  0  0  0  0  0
   13.5897  -12.3996  -10.5339 O   0  0  0  0  0  0  0  0  0  0  0  0
   14.9971  -10.4506  -10.2592 C   0  0  0  0  0  0  0  0  0  0  0  0
   16.2543   -9.9445  -10.9301 C   0  0  2  0  0  0  0  0  0  0  0  0
   17.3774  -10.8125  -10.6355 N   0  0  0  0  0  0  0  0  0  0  0  0
   16.5676   -8.5472  -10.5380 C   0  0  0  0  0  0  0  0  0  0  0  0
   17.1712   -8.3873   -9.4320 O   0  0  0  0  0  0  0  0  0  0  0  0
   16.2279   -7.4174  -11.3294 N   0  0  0  0  0  0  0  0  0  0  0  0
   16.5392   -6.0345  -10.8979 C   0  0  1  0  0  0  0  0  0  0  0  0
   17.0239   -5.3502  -12.1240 C   0  0  0  0  0  0  0  0  0  0  0  0
   17.2129   -3.8794  -12.0540 C   0  0  0  0  0  0  0  0  0  0  0  0
   17.6447   -3.4308  -13.4337 C   0  0  0  0  0  0  0  0  0  0  0  0
   18.8502   -3.0656  -13.5727 O   0  0  0  0  0  0  0  0  0  0  0  0
   15.3503   -5.4817  -10.2534 C   0  0  0  0  0  0  0  0  0  0  0  0
   14.2156   -5.5780  -10.8464 O   0  0  0  0  0  0  0  0  0  0  0  0
   16.8055   -3.4034  -14.5164 O   0  0  0  0  0  0  0  0  0  0  0  0
   13.2308   -3.4830   -4.7758 C   0  0  0  0  0  0  0  0  0  0  0  0
   12.9296   -3.7843   -6.2375 C   0  0  2  0  0  0  0  0  0  0  0  0
   11.5642   -4.3062   -6.4634 C   0  0  0  0  0  0  0  0  0  0  0  0
   14.0523   -4.4085   -6.9663 C   0  0  0  0  0  0  0  0  0  0  0  0
   14.0747   -4.2399   -8.4385 C   0  0  2  0  0  0  0  0  0  0  0  0
   15.2899   -4.8307   -9.0070 N   0  0  0  0  0  0  0  0  0  0  0  0
   13.9658   -2.8863   -8.9670 C   0  0  0  0  0  0  0  0  0  0  0  0
   12.7497   -2.3512   -9.3423 O   0  0  0  0  0  0  0  0  0  0  0  0
   14.9690   -2.1603   -9.1002 O   0  0  0  0  0  0  0  0  0  0  0  0
  2  3  2  0
  2  1  1  0
  4  2  1  0
  5  4  1  0
  5  6  1  1
  7  5  1  0
  7  8  2  0
  9  7  1  0
 10  9  1  0
 11 12  1  0
 10 11  1  6
 12 13  1  0
 13 17  1  0
 13 14  2  0
 15 10  1  0
 16 15  2  0
 19 20  1  1
 19 18  1  0
 21 19  1  0
 22 21  1  1
 22 23  1  0
 23 15  1  0
 24 22  1  0
 25 24  1  0
 26 24  2  0
M  END
$$$$
