NEL.pdb
     RDKit          3D

 26 25  0  0  1  0  0  0  0  0999 V2000
   17.2423  -21.5982  -11.6635 N   0  0  0  0  0  0  0  0  0  0  0  0
   17.7532  -22.8688  -12.0485 C   0  0  0  0  0  0  0  0  0  0  0  0
   16.9942  -23.8721  -11.8202 O   0  0  0  0  0  0  0  0  0  0  0  0
   19.0884  -23.0151  -12.6773 C   0  0  0  0  0  0  0  0  0  0  0  0
   19.7440  -21.6529  -12.7143 C   0  0  2  0  0  0  0  0  0  0  0  0
   18.8717  -20.6813  -13.3443 N   0  0  0  0  0  0  0  0  0  0  0  0
   21.0576  -21.6887  -13.4051 C   0  0  0  0  0  0  0  0  0  0  0  0
   21.9119  -22.5178  -12.9627 O   0  0  0  0  0  0  0  0  0  0  0  0
   21.3845  -20.8557  -14.5085 N   0  0  0  0  0  0  0  0  0  0  0  0
   22.6587  -21.0001  -15.2508 C   0  0  1  0  0  0  0  0  0  0  0  0
   22.3937  -20.4067  -16.5866 C   0  0  0  0  0  0  0  0  0  0  0  0
   23.5277  -20.3471  -17.5428 C   0  0  0  0  0  0  0  0  0  0  0  0
   22.9969  -19.7049  -18.8065 C   0  0  0  0  0  0  0  0  0  0  0  0
   22.7704  -20.4680  -19.7926 O   0  0  0  0  0  0  0  0  0  0  0  0
   23.7207  -20.3931  -14.4520 C   0  0  0  0  0  0  0  0  0  0  0  0
   23.5141  -19.2521  -13.9007 O   0  0  0  0  0  0  0  0  0  0  0  0
   22.7556  -18.3616  -18.9276 O   0  0  0  0  0  0  0  0  0  0  0  0
   25.0784  -19.7845  -10.7193 C   0  0  0  0  0  0  0  0  0  0  0  0
   25.6644  -21.1213  -11.1524 C   0  0  2  0  0  0  0  0  0  0  0  0
   26.0827  -21.9768  -10.0205 C   0  0  0  0  0  0  0  0  0  0  0  0
   26.5451  -21.0368  -12.3350 C   0  0  0  0  0  0  0  0  0  0  0  0
   26.0620  -20.2237  -13.4761 C   0  0  2  0  0  0  0  0  0  0  0  0
   24.9974  -20.9278  -14.1971 N   0  0  0  0  0  0  0  0  0  0  0  0
   27.0422  -19.7954  -14.4655 C   0  0  0  0  0  0  0  0  0  0  0  0
   27.8412  -18.6881  -14.2610 O   0  0  0  0  0  0  0  0  0  0  0  0
   27.1955  -20.4141  -15.5355 O   0  0  0  0  0  0  0  0  0  0  0  0
  2  3  2  0
  2  1  1  0
  4  2  1  0
  5  4  1  0
  5  6  1  6
  7  5  1  0
  7  8  2  0
  9  7  1  0
 10  9  1  0
 11 12  1  0
 10 11  1  6
 12 13  1  0
 13 17  1  0
 13 14  2  0
 15 10  1  0
 16 15  2  0
 19 20  1  1
 19 18  1  0
 21 19  1  0
 22 21  1  1
 22 23  1  0
 23 15  1  0
 24 22  1  0
 25 24  1  0
 26 24  2  0
M  END
$$$$
