NKP.pdb
     RDKit          3D

 25 25  0  0  1  0  0  0  0  0999 V2000
   18.7887  -19.8349  -15.4261 N   0  0  0  0  0  0  0  0  0  0  0  0
   18.9644  -19.0596  -14.2508 C   0  0  0  0  0  0  0  0  0  0  0  0
   18.0712  -18.1820  -14.0149 O   0  0  0  0  0  0  0  0  0  0  0  0
   20.1250  -19.2425  -13.3238 C   0  0  0  0  0  0  0  0  0  0  0  0
   20.9056  -20.4540  -13.7877 C   0  0  2  0  0  0  0  0  0  0  0  0
   20.5949  -21.5200  -12.8595 N   0  0  0  0  0  0  0  0  0  0  0  0
   22.3506  -20.2195  -13.8202 C   0  0  0  0  0  0  0  0  0  0  0  0
   22.9134  -19.6902  -12.8158 O   0  0  0  0  0  0  0  0  0  0  0  0
   23.0775  -20.5891  -14.9687 N   0  0  0  0  0  0  0  0  0  0  0  0
   24.5016  -20.3436  -15.0375 C   0  0  1  0  0  0  0  0  0  0  0  0
   25.1717  -21.5048  -15.7809 C   0  0  0  0  0  0  0  0  0  0  0  0
   26.6418  -21.2384  -15.9747 C   0  0  0  0  0  0  0  0  0  0  0  0
   27.2513  -22.4174  -16.6882 C   0  0  0  0  0  0  0  0  0  0  0  0
   28.7407  -22.2955  -16.8973 C   0  0  0  0  0  0  0  0  0  0  0  0
   29.1935  -23.5111  -17.5593 N   0  0  0  0  0  0  0  0  0  0  0  0
   24.7155  -19.1375  -15.8649 C   0  0  0  0  0  0  0  0  0  0  0  0
   23.8664  -18.8533  -16.7412 O   0  0  0  0  0  0  0  0  0  0  0  0
   25.8339  -18.3055  -15.6979 N   0  0  0  0  0  0  0  0  0  0  0  0
   26.9740  -18.4149  -14.7866 C   0  0  0  0  0  0  0  0  0  0  0  0
   27.4133  -17.0074  -14.5525 C   0  0  0  0  0  0  0  0  0  0  0  0
   26.5167  -16.1584  -15.3816 C   0  0  0  0  0  0  0  0  0  0  0  0
   26.0478  -17.0761  -16.4861 C   0  0  1  0  0  0  0  0  0  0  0  0
   27.0756  -17.2977  -17.5243 C   0  0  0  0  0  0  0  0  0  0  0  0
   27.3314  -16.2578  -18.4022 O   0  0  0  0  0  0  0  0  0  0  0  0
   27.7238  -18.3617  -17.6563 O   0  0  0  0  0  0  0  0  0  0  0  0
  1  2  1  0
  2  3  2  0
  4  2  1  0
  5  4  1  0
  5  6  1  1
  7  5  1  0
  7  8  2  0
  9  7  1  0
 10  9  1  0
 10 11  1  6
 12 11  1  0
 13 12  1  0
 13 14  1  0
 14 15  1  0
 16 10  1  0
 17 16  2  0
 18 16  1  0
 18 19  1  0
 20 19  1  0
 21 20  1  0
 22 21  1  0
 22 18  1  0
 22 23  1  6
 24 23  1  0
 25 23  2  0
M  END
$$$$
