NKP.pdb
     RDKit          3D

 25 25  0  0  1  0  0  0  0  0999 V2000
   24.6252  -20.4158   -8.0283 N   0  0  0  0  0  0  0  0  0  0  0  0
   25.7389  -19.9723   -8.7875 C   0  0  0  0  0  0  0  0  0  0  0  0
   26.6381  -19.3333   -8.1498 O   0  0  0  0  0  0  0  0  0  0  0  0
   25.8736  -20.2276  -10.2560 C   0  0  0  0  0  0  0  0  0  0  0  0
   24.5878  -20.8653  -10.7381 C   0  0  2  0  0  0  0  0  0  0  0  0
   24.4705  -22.1270  -10.0390 N   0  0  0  0  0  0  0  0  0  0  0  0
   24.5726  -21.0878  -12.1852 C   0  0  0  0  0  0  0  0  0  0  0  0
   25.2485  -22.0436  -12.6706 O   0  0  0  0  0  0  0  0  0  0  0  0
   23.8061  -20.2322  -13.0005 N   0  0  0  0  0  0  0  0  0  0  0  0
   23.7228  -20.4685  -14.4254 C   0  0  1  0  0  0  0  0  0  0  0  0
   22.5964  -19.6071  -15.0079 C   0  0  0  0  0  0  0  0  0  0  0  0
   22.5519  -19.7284  -16.5088 C   0  0  0  0  0  0  0  0  0  0  0  0
   21.6351  -20.8687  -16.8693 C   0  0  0  0  0  0  0  0  0  0  0  0
   21.6103  -21.1831  -18.3449 C   0  0  0  0  0  0  0  0  0  0  0  0
   20.7308  -22.3280  -18.5366 N   0  0  0  0  0  0  0  0  0  0  0  0
   24.9782  -19.9879  -15.0401 C   0  0  0  0  0  0  0  0  0  0  0  0
   25.4111  -18.8582  -14.7145 O   0  0  0  0  0  0  0  0  0  0  0  0
   25.6962  -20.7556  -15.9708 N   0  0  0  0  0  0  0  0  0  0  0  0
   25.4338  -22.0922  -16.5066 C   0  0  0  0  0  0  0  0  0  0  0  0
   26.7808  -22.6409  -16.8430 C   0  0  0  0  0  0  0  0  0  0  0  0
   27.7522  -21.5633  -16.5152 C   0  0  0  0  0  0  0  0  0  0  0  0
   26.9443  -20.2902  -16.6065 C   0  0  1  0  0  0  0  0  0  0  0  0
   26.6911  -19.8689  -18.0000 C   0  0  0  0  0  0  0  0  0  0  0  0
   27.7533  -19.3330  -18.7084 O   0  0  0  0  0  0  0  0  0  0  0  0
   25.5815  -19.9670  -18.5737 O   0  0  0  0  0  0  0  0  0  0  0  0
  1  2  1  0
  2  3  2  0
  4  2  1  0
  5  4  1  0
  5  6  1  1
  7  5  1  0
  7  8  2  0
  9  7  1  0
 10  9  1  0
 10 11  1  6
 12 11  1  0
 13 12  1  0
 13 14  1  0
 14 15  1  0
 16 10  1  0
 17 16  2  0
 18 16  1  0
 18 19  1  0
 20 19  1  0
 21 20  1  0
 22 21  1  0
 22 18  1  0
 22 23  1  6
 24 23  1  0
 25 23  2  0
M  END
$$$$
