NKP.pdb
     RDKit          3D

 25 25  0  0  1  0  0  0  0  0999 V2000
   20.3008  -24.1834  -14.5492 N   0  0  0  0  0  0  0  0  0  0  0  0
   19.8330  -22.8657  -14.7905 C   0  0  0  0  0  0  0  0  0  0  0  0
   18.5776  -22.7357  -14.9653 O   0  0  0  0  0  0  0  0  0  0  0  0
   20.7425  -21.6783  -14.8420 C   0  0  0  0  0  0  0  0  0  0  0  0
   21.4434  -21.5697  -13.5043 C   0  0  2  0  0  0  0  0  0  0  0  0
   20.4930  -20.9694  -12.5928 N   0  0  0  0  0  0  0  0  0  0  0  0
   22.6621  -20.7605  -13.5664 C   0  0  0  0  0  0  0  0  0  0  0  0
   22.5640  -19.4977  -13.6071 O   0  0  0  0  0  0  0  0  0  0  0  0
   23.9129  -21.4082  -13.5792 N   0  0  0  0  0  0  0  0  0  0  0  0
   25.1334  -20.6319  -13.5525 C   0  0  1  0  0  0  0  0  0  0  0  0
   26.0703  -21.2136  -12.4877 C   0  0  0  0  0  0  0  0  0  0  0  0
   27.4684  -20.6781  -12.6553 C   0  0  0  0  0  0  0  0  0  0  0  0
   28.3585  -21.3371  -11.6334 C   0  0  0  0  0  0  0  0  0  0  0  0
   29.7519  -20.7603  -11.5813 C   0  0  0  0  0  0  0  0  0  0  0  0
   30.4941  -21.4926  -10.5646 N   0  0  0  0  0  0  0  0  0  0  0  0
   25.8144  -20.8104  -14.8523 C   0  0  0  0  0  0  0  0  0  0  0  0
   25.8335  -21.9525  -15.3671 O   0  0  0  0  0  0  0  0  0  0  0  0
   26.4348  -19.7448  -15.5234 N   0  0  0  0  0  0  0  0  0  0  0  0
   27.0139  -18.5033  -15.0079 C   0  0  0  0  0  0  0  0  0  0  0  0
   26.8630  -17.5196  -16.1207 C   0  0  0  0  0  0  0  0  0  0  0  0
   26.2338  -18.2675  -17.2418 C   0  0  0  0  0  0  0  0  0  0  0  0
   26.6096  -19.7084  -16.9885 C   0  0  1  0  0  0  0  0  0  0  0  0
   28.0100  -20.0095  -17.3516 C   0  0  0  0  0  0  0  0  0  0  0  0
   28.8844  -20.3179  -16.3232 O   0  0  0  0  0  0  0  0  0  0  0  0
   28.4492  -20.0024  -18.5250 O   0  0  0  0  0  0  0  0  0  0  0  0
  1  2  1  0
  2  3  2  0
  4  2  1  0
  5  4  1  0
  5  6  1  1
  7  5  1  0
  7  8  2  0
  9  7  1  0
 10  9  1  0
 10 11  1  1
 12 11  1  0
 13 12  1  0
 13 14  1  0
 14 15  1  0
 16 10  1  0
 17 16  2  0
 18 16  1  0
 18 19  1  0
 20 19  1  0
 21 20  1  0
 22 21  1  0
 22 18  1  0
 22 23  1  1
 24 23  1  0
 25 23  2  0
M  END
$$$$
