NKP.pdb
     RDKit          3D

 25 25  0  0  1  0  0  0  0  0999 V2000
   24.7777  -32.7242   -5.4387 N   0  0  0  0  0  0  0  0  0  0  0  0
   23.6167  -33.1737   -6.1195 C   0  0  0  0  0  0  0  0  0  0  0  0
   23.7932  -33.6272   -7.2970 O   0  0  0  0  0  0  0  0  0  0  0  0
   22.2502  -33.1280   -5.5109 C   0  0  0  0  0  0  0  0  0  0  0  0
   22.3581  -32.4234   -4.1752 C   0  0  2  0  0  0  0  0  0  0  0  0
   22.9458  -33.3757   -3.2574 N   0  0  0  0  0  0  0  0  0  0  0  0
   21.0624  -31.9681   -3.6676 C   0  0  0  0  0  0  0  0  0  0  0  0
   20.1244  -32.8083   -3.5259 O   0  0  0  0  0  0  0  0  0  0  0  0
   20.8928  -30.6063   -3.3497 N   0  0  0  0  0  0  0  0  0  0  0  0
   19.6576  -30.1481   -2.7520 C   0  0  1  0  0  0  0  0  0  0  0  0
   19.9673  -28.9939   -1.7918 C   0  0  0  0  0  0  0  0  0  0  0  0
   18.7043  -28.4724   -1.1574 C   0  0  0  0  0  0  0  0  0  0  0  0
   19.0660  -27.3363   -0.2358 C   0  0  0  0  0  0  0  0  0  0  0  0
   17.8707  -26.6509    0.3793 C   0  0  0  0  0  0  0  0  0  0  0  0
   18.3674  -25.5764    1.2275 N   0  0  0  0  0  0  0  0  0  0  0  0
   18.8142  -29.5839   -3.8269 C   0  0  0  0  0  0  0  0  0  0  0  0
   19.3699  -28.9555   -4.7575 O   0  0  0  0  0  0  0  0  0  0  0  0
   17.4182  -29.7319   -3.8368 N   0  0  0  0  0  0  0  0  0  0  0  0
   16.5214  -30.3668   -2.8698 C   0  0  0  0  0  0  0  0  0  0  0  0
   15.3584  -30.8380   -3.6785 C   0  0  0  0  0  0  0  0  0  0  0  0
   15.6343  -30.4093   -5.0757 C   0  0  0  0  0  0  0  0  0  0  0  0
   16.5626  -29.2268   -4.9282 C   0  0  1  0  0  0  0  0  0  0  0  0
   15.8620  -27.9947   -4.5105 C   0  0  0  0  0  0  0  0  0  0  0  0
   15.0744  -27.3566   -5.4539 O   0  0  0  0  0  0  0  0  0  0  0  0
   15.9377  -27.4974   -3.3630 O   0  0  0  0  0  0  0  0  0  0  0  0
  1  2  1  0
  2  3  2  0
  4  2  1  0
  5  4  1  0
  5  6  1  1
  7  5  1  0
  7  8  2  0
  9  7  1  0
 10  9  1  0
 10 11  1  1
 12 11  1  0
 13 12  1  0
 13 14  1  0
 14 15  1  0
 16 10  1  0
 17 16  2  0
 18 16  1  0
 18 19  1  0
 20 19  1  0
 21 20  1  0
 22 21  1  0
 22 18  1  0
 22 23  1  1
 24 23  1  0
 25 23  2  0
M  END
$$$$
