NKP.pdb
     RDKit          3D

 25 25  0  0  1  0  0  0  0  0999 V2000
   13.1010   -9.6283  -16.2066 N   0  0  0  0  0  0  0  0  0  0  0  0
   13.4541   -9.0766  -14.9479 C   0  0  0  0  0  0  0  0  0  0  0  0
   12.5720   -8.3517  -14.3821 O   0  0  0  0  0  0  0  0  0  0  0  0
   14.7814   -9.3171  -14.2998 C   0  0  0  0  0  0  0  0  0  0  0  0
   15.6436  -10.0892  -15.2759 C   0  0  2  0  0  0  0  0  0  0  0  0
   15.2490  -11.4768  -15.1605 N   0  0  0  0  0  0  0  0  0  0  0  0
   17.0753   -9.9482  -15.0029 C   0  0  0  0  0  0  0  0  0  0  0  0
   17.5558  -10.4565  -13.9462 O   0  0  0  0  0  0  0  0  0  0  0  0
   17.8813   -9.2503  -15.9234 N   0  0  0  0  0  0  0  0  0  0  0  0
   19.2887   -9.0523  -15.6528 C   0  0  1  0  0  0  0  0  0  0  0  0
   20.0658   -9.1348  -16.9716 C   0  0  0  0  0  0  0  0  0  0  0  0
   20.1535  -10.5599  -17.4523 C   0  0  0  0  0  0  0  0  0  0  0  0
   20.8593  -10.5727  -18.7837 C   0  0  0  0  0  0  0  0  0  0  0  0
   20.9343  -11.9404  -19.4167 C   0  0  0  0  0  0  0  0  0  0  0  0
   21.7408  -11.8235  -20.6237 N   0  0  0  0  0  0  0  0  0  0  0  0
   19.4651   -7.6741  -15.1482 C   0  0  0  0  0  0  0  0  0  0  0  0
   18.6449   -6.7961  -15.5032 O   0  0  0  0  0  0  0  0  0  0  0  0
   20.5168   -7.3225  -14.2872 N   0  0  0  0  0  0  0  0  0  0  0  0
   21.6297   -8.1196  -13.7691 C   0  0  0  0  0  0  0  0  0  0  0  0
   21.9621   -7.5016  -12.4514 C   0  0  0  0  0  0  0  0  0  0  0  0
   21.0379   -6.3462  -12.2995 C   0  0  0  0  0  0  0  0  0  0  0  0
   20.6721   -5.9704  -13.7161 C   0  0  1  0  0  0  0  0  0  0  0  0
   21.7479   -5.2339  -14.4114 C   0  0  0  0  0  0  0  0  0  0  0  0
   22.4477   -5.9066  -15.3988 O   0  0  0  0  0  0  0  0  0  0  0  0
   22.0617   -4.0467  -14.1626 O   0  0  0  0  0  0  0  0  0  0  0  0
  1  2  1  0
  2  3  2  0
  4  2  1  0
  5  4  1  0
  5  6  1  1
  7  5  1  0
  7  8  2  0
  9  7  1  0
 10  9  1  0
 10 11  1  6
 12 11  1  0
 13 12  1  0
 13 14  1  0
 14 15  1  0
 16 10  1  0
 17 16  2  0
 18 16  1  0
 18 19  1  0
 20 19  1  0
 21 20  1  0
 22 21  1  0
 22 18  1  0
 22 23  1  6
 24 23  1  0
 25 23  2  0
M  END
$$$$
