NKP.pdb
     RDKit          3D

 25 25  0  0  1  0  0  0  0  0999 V2000
   23.7349  -25.6186  -18.4370 N   0  0  0  0  0  0  0  0  0  0  0  0
   23.6676  -26.3001  -17.1943 C   0  0  0  0  0  0  0  0  0  0  0  0
   22.7522  -27.1792  -17.0817 O   0  0  0  0  0  0  0  0  0  0  0  0
   24.6070  -26.0205  -16.0633 C   0  0  0  0  0  0  0  0  0  0  0  0
   25.5900  -24.9652  -16.5240 C   0  0  2  0  0  0  0  0  0  0  0  0
   26.7727  -25.6734  -16.9648 N   0  0  0  0  0  0  0  0  0  0  0  0
   25.9376  -24.0134  -15.4670 C   0  0  0  0  0  0  0  0  0  0  0  0
   26.2047  -24.4484  -14.3071 O   0  0  0  0  0  0  0  0  0  0  0  0
   25.9656  -22.6376  -15.7679 N   0  0  0  0  0  0  0  0  0  0  0  0
   26.1739  -21.6676  -14.7150 C   0  0  1  0  0  0  0  0  0  0  0  0
   26.3036  -20.2740  -15.3403 C   0  0  0  0  0  0  0  0  0  0  0  0
   27.5775  -20.1616  -16.1367 C   0  0  0  0  0  0  0  0  0  0  0  0
   27.6308  -18.7918  -16.7624 C   0  0  0  0  0  0  0  0  0  0  0  0
   28.8288  -18.5795  -17.6550 C   0  0  0  0  0  0  0  0  0  0  0  0
   28.6845  -17.2733  -18.2825 N   0  0  0  0  0  0  0  0  0  0  0  0
   24.9571  -21.6388  -13.8762 C   0  0  0  0  0  0  0  0  0  0  0  0
   23.9031  -22.1404  -14.3314 O   0  0  0  0  0  0  0  0  0  0  0  0
   24.9478  -21.0709  -12.5923 N   0  0  0  0  0  0  0  0  0  0  0  0
   25.9964  -20.3615  -11.8577 C   0  0  0  0  0  0  0  0  0  0  0  0
   25.7002  -20.6246  -10.4183 C   0  0  0  0  0  0  0  0  0  0  0  0
   24.4614  -21.4477  -10.4020 C   0  0  0  0  0  0  0  0  0  0  0  0
   23.7709  -21.1110  -11.7026 C   0  0  1  0  0  0  0  0  0  0  0  0
   23.0982  -19.7957  -11.6725 C   0  0  0  0  0  0  0  0  0  0  0  0
   23.6752  -18.7664  -12.3971 O   0  0  0  0  0  0  0  0  0  0  0  0
   22.0457  -19.5586  -11.0355 O   0  0  0  0  0  0  0  0  0  0  0  0
  1  2  1  0
  2  3  2  0
  4  2  1  0
  5  4  1  0
  5  6  1  1
  7  5  1  0
  7  8  2  0
  9  7  1  0
 10  9  1  0
 10 11  1  6
 12 11  1  0
 13 12  1  0
 13 14  1  0
 14 15  1  0
 16 10  1  0
 17 16  2  0
 18 16  1  0
 18 19  1  0
 20 19  1  0
 21 20  1  0
 22 21  1  0
 22 18  1  0
 22 23  1  1
 24 23  1  0
 25 23  2  0
M  END
$$$$
