NKP.pdb
     RDKit          3D

 25 25  0  0  1  0  0  0  0  0999 V2000
   20.4888  -15.3624  -16.0798 N   0  0  0  0  0  0  0  0  0  0  0  0
   19.9372  -16.6291  -15.7563 C   0  0  0  0  0  0  0  0  0  0  0  0
   18.6764  -16.7481  -15.8967 O   0  0  0  0  0  0  0  0  0  0  0  0
   20.7680  -17.7770  -15.2748 C   0  0  0  0  0  0  0  0  0  0  0  0
   21.7733  -18.1108  -16.3565 C   0  0  2  0  0  0  0  0  0  0  0  0
   21.0355  -18.7773  -17.4082 N   0  0  0  0  0  0  0  0  0  0  0  0
   22.8569  -18.9716  -15.8781 C   0  0  0  0  0  0  0  0  0  0  0  0
   22.5986  -20.1704  -15.5588 O   0  0  0  0  0  0  0  0  0  0  0  0
   24.1594  -18.4433  -15.7851 N   0  0  0  0  0  0  0  0  0  0  0  0
   25.2326  -19.2474  -15.2423 C   0  0  1  0  0  0  0  0  0  0  0  0
   26.5694  -18.5563  -15.5345 C   0  0  0  0  0  0  0  0  0  0  0  0
   27.7214  -19.3838  -15.0270 C   0  0  0  0  0  0  0  0  0  0  0  0
   27.9517  -20.5223  -15.9869 C   0  0  0  0  0  0  0  0  0  0  0  0
   29.0395  -21.4725  -15.5503 C   0  0  0  0  0  0  0  0  0  0  0  0
   29.1543  -22.5082  -16.5678 N   0  0  0  0  0  0  0  0  0  0  0  0
   25.0851  -19.2694  -13.7716 C   0  0  0  0  0  0  0  0  0  0  0  0
   24.6719  -18.2366  -13.1951 O   0  0  0  0  0  0  0  0  0  0  0  0
   25.3907  -20.4063  -13.0069 N   0  0  0  0  0  0  0  0  0  0  0  0
   25.9215  -21.7097  -13.4094 C   0  0  0  0  0  0  0  0  0  0  0  0
   25.3878  -22.6692  -12.3979 C   0  0  0  0  0  0  0  0  0  0  0  0
   24.6024  -21.8507  -11.4358 C   0  0  0  0  0  0  0  0  0  0  0  0
   25.2009  -20.4680  -11.5446 C   0  0  1  0  0  0  0  0  0  0  0  0
   26.4981  -20.3468  -10.8474 C   0  0  0  0  0  0  0  0  0  0  0  0
   26.4714  -20.1767   -9.4735 O   0  0  0  0  0  0  0  0  0  0  0  0
   27.6112  -20.3884  -11.4210 O   0  0  0  0  0  0  0  0  0  0  0  0
  1  2  1  0
  2  3  2  0
  4  2  1  0
  5  4  1  0
  5  6  1  6
  7  5  1  0
  7  8  2  0
  9  7  1  0
 10  9  1  0
 10 11  1  1
 12 11  1  0
 13 12  1  0
 13 14  1  0
 14 15  1  0
 16 10  1  0
 17 16  2  0
 18 16  1  0
 18 19  1  0
 20 19  1  0
 21 20  1  0
 22 21  1  0
 22 18  1  0
 22 23  1  1
 24 23  1  0
 25 23  2  0
M  END
$$$$
