NKP.pdb
     RDKit          3D

 25 25  0  0  1  0  0  0  0  0999 V2000
   18.4406  -20.2615  -15.2876 N   0  0  0  0  0  0  0  0  0  0  0  0
   19.3209  -20.5876  -14.2236 C   0  0  0  0  0  0  0  0  0  0  0  0
   19.0396  -21.6387  -13.5606 O   0  0  0  0  0  0  0  0  0  0  0  0
   20.5191  -19.7599  -13.8788 C   0  0  0  0  0  0  0  0  0  0  0  0
   21.4110  -19.6994  -15.1008 C   0  0  2  0  0  0  0  0  0  0  0  0
   21.7888  -21.0644  -15.3986 N   0  0  0  0  0  0  0  0  0  0  0  0
   22.6064  -18.8803  -14.8908 C   0  0  0  0  0  0  0  0  0  0  0  0
   22.4721  -17.6533  -14.6038 O   0  0  0  0  0  0  0  0  0  0  0  0
   23.8756  -19.4789  -15.0137 N   0  0  0  0  0  0  0  0  0  0  0  0
   25.0729  -18.6823  -14.8560 C   0  0  1  0  0  0  0  0  0  0  0  0
   26.2071  -19.5824  -14.3526 C   0  0  0  0  0  0  0  0  0  0  0  0
   26.0104  -19.9285  -12.8996 C   0  0  0  0  0  0  0  0  0  0  0  0
   27.2044  -20.7191  -12.4306 C   0  0  0  0  0  0  0  0  0  0  0  0
   27.1233  -21.1381  -10.9832 C   0  0  0  0  0  0  0  0  0  0  0  0
   28.2287  -22.0508  -10.7263 N   0  0  0  0  0  0  0  0  0  0  0  0
   25.4803  -18.2040  -16.1940 C   0  0  0  0  0  0  0  0  0  0  0  0
   25.1052  -18.8484  -17.2009 O   0  0  0  0  0  0  0  0  0  0  0  0
   26.2686  -17.0556  -16.3690 N   0  0  0  0  0  0  0  0  0  0  0  0
   26.9645  -16.2203  -15.3890 C   0  0  0  0  0  0  0  0  0  0  0  0
   27.0060  -14.8612  -16.0051 C   0  0  0  0  0  0  0  0  0  0  0  0
   26.3591  -14.9988  -17.3373 C   0  0  0  0  0  0  0  0  0  0  0  0
   26.5366  -16.4566  -17.6911 C   0  0  1  0  0  0  0  0  0  0  0  0
   27.9084  -16.7768  -18.1373 C   0  0  0  0  0  0  0  0  0  0  0  0
   28.6644  -17.6103  -17.3304 O   0  0  0  0  0  0  0  0  0  0  0  0
   28.4235  -16.3425  -19.1936 O   0  0  0  0  0  0  0  0  0  0  0  0
  1  2  1  0
  2  3  2  0
  4  2  1  0
  5  4  1  0
  5  6  1  1
  7  5  1  0
  7  8  2  0
  9  7  1  0
 10  9  1  0
 10 11  1  6
 12 11  1  0
 13 12  1  0
 13 14  1  0
 14 15  1  0
 16 10  1  0
 17 16  2  0
 18 16  1  0
 18 19  1  0
 20 19  1  0
 21 20  1  0
 22 21  1  0
 22 18  1  0
 22 23  1  1
 24 23  1  0
 25 23  2  0
M  END
$$$$
