NKP.pdb
     RDKit          3D

 25 25  0  0  1  0  0  0  0  0999 V2000
   21.6819  -17.3540  -20.7090 N   0  0  0  0  0  0  0  0  0  0  0  0
   20.9609  -17.9969  -19.6697 C   0  0  0  0  0  0  0  0  0  0  0  0
   19.7219  -17.7125  -19.5828 O   0  0  0  0  0  0  0  0  0  0  0  0
   21.5966  -18.9589  -18.7157 C   0  0  0  0  0  0  0  0  0  0  0  0
   21.3243  -18.4691  -17.3092 C   0  0  2  0  0  0  0  0  0  0  0  0
   20.6572  -17.1918  -17.4435 N   0  0  0  0  0  0  0  0  0  0  0  0
   22.5449  -18.3187  -16.5145 C   0  0  0  0  0  0  0  0  0  0  0  0
   23.1623  -17.2122  -16.5335 O   0  0  0  0  0  0  0  0  0  0  0  0
   23.0011  -19.4097  -15.7490 N   0  0  0  0  0  0  0  0  0  0  0  0
   24.1725  -19.2704  -14.9116 C   0  0  1  0  0  0  0  0  0  0  0  0
   23.8714  -19.8655  -13.5313 C   0  0  0  0  0  0  0  0  0  0  0  0
   25.1105  -19.8831  -12.6745 C   0  0  0  0  0  0  0  0  0  0  0  0
   24.7501  -20.4465  -11.3242 C   0  0  0  0  0  0  0  0  0  0  0  0
   25.8858  -20.4139  -10.3312 C   0  0  0  0  0  0  0  0  0  0  0  0
   25.3949  -20.9789   -9.0819 N   0  0  0  0  0  0  0  0  0  0  0  0
   25.2507  -20.0949  -15.4971 C   0  0  0  0  0  0  0  0  0  0  0  0
   24.9413  -21.1591  -16.0815 O   0  0  0  0  0  0  0  0  0  0  0  0
   26.6020  -19.7225  -15.4197 N   0  0  0  0  0  0  0  0  0  0  0  0
   27.2641  -18.7072  -14.5991 C   0  0  0  0  0  0  0  0  0  0  0  0
   28.4524  -18.2848  -15.3978 C   0  0  0  0  0  0  0  0  0  0  0  0
   28.4305  -19.1169  -16.6304 C   0  0  0  0  0  0  0  0  0  0  0  0
   27.6591  -20.3536  -16.2337 C   0  0  1  0  0  0  0  0  0  0  0  0
   28.4560  -21.2897  -15.4139 C   0  0  0  0  0  0  0  0  0  0  0  0
   28.0876  -21.4513  -14.0889 O   0  0  0  0  0  0  0  0  0  0  0  0
   29.4370  -21.9404  -15.8430 O   0  0  0  0  0  0  0  0  0  0  0  0
  1  2  1  0
  2  3  2  0
  4  2  1  0
  5  4  1  0
  5  6  1  6
  7  5  1  0
  7  8  2  0
  9  7  1  0
 10  9  1  0
 10 11  1  1
 12 11  1  0
 13 12  1  0
 13 14  1  0
 14 15  1  0
 16 10  1  0
 17 16  2  0
 18 16  1  0
 18 19  1  0
 20 19  1  0
 21 20  1  0
 22 21  1  0
 22 18  1  0
 22 23  1  1
 24 23  1  0
 25 23  2  0
M  END
$$$$
