NKP.pdb
     RDKit          3D

 25 25  0  0  1  0  0  0  0  0999 V2000
   23.6528  -20.3555  -14.3770 N   0  0  0  0  0  0  0  0  0  0  0  0
   22.5195  -19.5070  -14.4717 C   0  0  0  0  0  0  0  0  0  0  0  0
   22.6619  -18.4512  -15.1705 O   0  0  0  0  0  0  0  0  0  0  0  0
   21.2184  -19.8123  -13.7980 C   0  0  0  0  0  0  0  0  0  0  0  0
   21.3570  -21.1491  -13.1008 C   0  0  2  0  0  0  0  0  0  0  0  0
   21.4532  -22.1464  -14.1452 N   0  0  0  0  0  0  0  0  0  0  0  0
   20.2266  -21.4495  -12.2200 C   0  0  0  0  0  0  0  0  0  0  0  0
   19.9825  -20.6798  -11.2434 O   0  0  0  0  0  0  0  0  0  0  0  0
   19.4394  -22.5879  -12.4821 N   0  0  0  0  0  0  0  0  0  0  0  0
   18.3964  -22.9783  -11.5586 C   0  0  1  0  0  0  0  0  0  0  0  0
   17.1666  -23.4261  -12.3568 C   0  0  0  0  0  0  0  0  0  0  0  0
   16.0627  -23.8714  -11.4334 C   0  0  0  0  0  0  0  0  0  0  0  0
   14.8976  -24.3341  -12.2695 C   0  0  0  0  0  0  0  0  0  0  0  0
   13.7012  -24.7639  -11.4566 C   0  0  0  0  0  0  0  0  0  0  0  0
   12.6147  -25.0427  -12.3854 N   0  0  0  0  0  0  0  0  0  0  0  0
   18.8684  -24.1656  -10.8152 C   0  0  0  0  0  0  0  0  0  0  0  0
   19.5699  -25.0106  -11.4182 O   0  0  0  0  0  0  0  0  0  0  0  0
   18.5572  -24.3723   -9.4620 N   0  0  0  0  0  0  0  0  0  0  0  0
   17.6612  -23.6370   -8.5682 C   0  0  0  0  0  0  0  0  0  0  0  0
   18.2424  -23.8229   -7.2057 C   0  0  0  0  0  0  0  0  0  0  0  0
   19.4321  -24.6969   -7.3871 C   0  0  0  0  0  0  0  0  0  0  0  0
   19.1450  -25.4615   -8.6578 C   0  0  1  0  0  0  0  0  0  0  0  0
   18.1653  -26.5506   -8.4645 C   0  0  0  0  0  0  0  0  0  0  0  0
   18.6311  -27.7423   -7.9352 O   0  0  0  0  0  0  0  0  0  0  0  0
   16.9483  -26.4603   -8.7486 O   0  0  0  0  0  0  0  0  0  0  0  0
  1  2  1  0
  2  3  2  0
  4  2  1  0
  5  4  1  0
  5  6  1  6
  7  5  1  0
  7  8  2  0
  9  7  1  0
 10  9  1  0
 10 11  1  6
 12 11  1  0
 13 12  1  0
 13 14  1  0
 14 15  1  0
 16 10  1  0
 17 16  2  0
 18 16  1  0
 18 19  1  0
 20 19  1  0
 21 20  1  0
 22 21  1  0
 22 18  1  0
 22 23  1  1
 24 23  1  0
 25 23  2  0
M  END
$$$$
