NKP.pdb
     RDKit          3D

 25 25  0  0  1  0  0  0  0  0999 V2000
    9.1440  -11.8133   -8.9556 N   0  0  0  0  0  0  0  0  0  0  0  0
    9.9932  -12.4283   -9.9116 C   0  0  0  0  0  0  0  0  0  0  0  0
    9.4215  -12.9314  -10.9332 O   0  0  0  0  0  0  0  0  0  0  0  0
   11.4797  -12.4957   -9.7524 C   0  0  0  0  0  0  0  0  0  0  0  0
   12.1076  -12.1405  -11.0835 C   0  0  2  0  0  0  0  0  0  0  0  0
   12.4051  -13.3943  -11.7424 N   0  0  0  0  0  0  0  0  0  0  0  0
   13.3282  -11.3444  -10.9408 C   0  0  0  0  0  0  0  0  0  0  0  0
   14.1556  -11.6403  -10.0277 O   0  0  0  0  0  0  0  0  0  0  0  0
   13.5504  -10.2693  -11.8233 N   0  0  0  0  0  0  0  0  0  0  0  0
   14.7259   -9.4390  -11.6756 C   0  0  1  0  0  0  0  0  0  0  0  0
   15.3216   -9.1682  -13.0619 C   0  0  0  0  0  0  0  0  0  0  0  0
   16.5399   -8.2881  -12.9578 C   0  0  0  0  0  0  0  0  0  0  0  0
   17.1258   -8.1180  -14.3357 C   0  0  0  0  0  0  0  0  0  0  0  0
   18.4573   -7.4080  -14.3446 C   0  0  0  0  0  0  0  0  0  0  0  0
   18.9454   -7.4045  -15.7167 N   0  0  0  0  0  0  0  0  0  0  0  0
   14.2937   -8.1298  -11.1423 C   0  0  0  0  0  0  0  0  0  0  0  0
   13.2327   -7.6257  -11.5779 O   0  0  0  0  0  0  0  0  0  0  0  0
   15.0314   -7.4398  -10.1674 N   0  0  0  0  0  0  0  0  0  0  0  0
   16.2865   -7.7882   -9.4997 C   0  0  0  0  0  0  0  0  0  0  0  0
   16.2075   -7.1236   -8.1652 C   0  0  0  0  0  0  0  0  0  0  0  0
   14.9143   -6.3889   -8.1529 C   0  0  0  0  0  0  0  0  0  0  0  0
   14.6119   -6.1384   -9.6115 C   0  0  1  0  0  0  0  0  0  0  0  0
   15.4208   -5.0436  -10.1864 C   0  0  0  0  0  0  0  0  0  0  0  0
   16.4287   -5.3903  -11.0703 O   0  0  0  0  0  0  0  0  0  0  0  0
   15.2501   -3.8305   -9.9237 O   0  0  0  0  0  0  0  0  0  0  0  0
  1  2  1  0
  2  3  2  0
  4  2  1  0
  5  4  1  0
  5  6  1  1
  7  5  1  0
  7  8  2  0
  9  7  1  0
 10  9  1  0
 10 11  1  6
 12 11  1  0
 13 12  1  0
 13 14  1  0
 14 15  1  0
 16 10  1  0
 17 16  2  0
 18 16  1  0
 18 19  1  0
 20 19  1  0
 21 20  1  0
 22 21  1  0
 22 18  1  0
 22 23  1  6
 24 23  1  0
 25 23  2  0
M  END
$$$$
