NKP.pdb
     RDKit          3D

 25 25  0  0  1  0  0  0  0  0999 V2000
   18.9776  -18.1049  -18.2706 N   0  0  0  0  0  0  0  0  0  0  0  0
   18.6498  -18.3312  -16.9088 C   0  0  0  0  0  0  0  0  0  0  0  0
   17.4114  -18.2885  -16.6119 O   0  0  0  0  0  0  0  0  0  0  0  0
   19.6817  -18.6065  -15.8604 C   0  0  0  0  0  0  0  0  0  0  0  0
   20.9063  -19.1711  -16.5488 C   0  0  2  0  0  0  0  0  0  0  0  0
   20.6358  -20.5744  -16.7772 N   0  0  0  0  0  0  0  0  0  0  0  0
   22.1261  -19.0161  -15.7538 C   0  0  0  0  0  0  0  0  0  0  0  0
   22.5141  -17.8518  -15.4381 O   0  0  0  0  0  0  0  0  0  0  0  0
   22.8369  -20.1669  -15.3608 N   0  0  0  0  0  0  0  0  0  0  0  0
   24.0565  -20.0408  -14.5929 C   0  0  1  0  0  0  0  0  0  0  0  0
   24.0795  -21.1282  -13.5126 C   0  0  0  0  0  0  0  0  0  0  0  0
   25.3734  -21.0892  -12.7420 C   0  0  0  0  0  0  0  0  0  0  0  0
   25.0615  -20.7871  -11.2990 C   0  0  0  0  0  0  0  0  0  0  0  0
   26.2878  -20.6297  -10.4340 C   0  0  0  0  0  0  0  0  0  0  0  0
   25.8469  -20.1705   -9.1241 N   0  0  0  0  0  0  0  0  0  0  0  0
   25.1931  -20.3225  -15.4951 C   0  0  0  0  0  0  0  0  0  0  0  0
   25.0259  -21.1350  -16.4341 O   0  0  0  0  0  0  0  0  0  0  0  0
   26.4456  -19.7095  -15.3330 N   0  0  0  0  0  0  0  0  0  0  0  0
   26.9607  -18.8680  -14.2519 C   0  0  0  0  0  0  0  0  0  0  0  0
   27.9699  -17.9821  -14.9041 C   0  0  0  0  0  0  0  0  0  0  0  0
   28.0088  -18.3932  -16.3330 C   0  0  0  0  0  0  0  0  0  0  0  0
   27.5338  -19.8272  -16.3232 C   0  0  1  0  0  0  0  0  0  0  0  0
   28.5667  -20.7715  -15.8491 C   0  0  0  0  0  0  0  0  0  0  0  0
   29.6101  -21.0627  -16.7116 O   0  0  0  0  0  0  0  0  0  0  0  0
   28.5545  -21.3198  -14.7226 O   0  0  0  0  0  0  0  0  0  0  0  0
  1  2  1  0
  2  3  2  0
  4  2  1  0
  5  4  1  0
  5  6  1  1
  7  5  1  0
  7  8  2  0
  9  7  1  0
 10  9  1  0
 10 11  1  1
 12 11  1  0
 13 12  1  0
 13 14  1  0
 14 15  1  0
 16 10  1  0
 17 16  2  0
 18 16  1  0
 18 19  1  0
 20 19  1  0
 21 20  1  0
 22 21  1  0
 22 18  1  0
 22 23  1  1
 24 23  1  0
 25 23  2  0
M  END
$$$$
