YTQ.pdb
     RDKit          3D

 29 29  0  0  1  0  0  0  0  0999 V2000
   15.4012  -24.2712   -5.2890 O   0  0  0  0  0  0  0  0  0  0  0  0
   16.3881  -24.3073   -6.2767 C   0  0  0  0  0  0  0  0  0  0  0  0
   16.0732  -24.0026   -7.5857 C   0  0  0  0  0  0  0  0  0  0  0  0
   17.0295  -24.0309   -8.5798 C   0  0  0  0  0  0  0  0  0  0  0  0
   18.3233  -24.3701   -8.2582 C   0  0  0  0  0  0  0  0  0  0  0  0
   19.3769  -24.4126   -9.2921 C   0  0  0  0  0  0  0  0  0  0  0  0
   19.0449  -25.4058  -10.3943 C   0  0  2  0  0  0  0  0  0  0  0  0
   19.2050  -26.7608   -9.9781 N   0  0  0  0  0  0  0  0  0  0  0  0
   19.8952  -25.0487  -11.5599 C   0  0  0  0  0  0  0  0  0  0  0  0
   20.9850  -25.6600  -11.7015 O   0  0  0  0  0  0  0  0  0  0  0  0
   18.6652  -24.6777   -6.9654 C   0  0  0  0  0  0  0  0  0  0  0  0
   17.6955  -24.6441   -5.9841 C   0  0  0  0  0  0  0  0  0  0  0  0
   20.2359  -26.0668  -14.3762 C   0  0  0  0  0  0  0  0  0  0  0  0
   19.9197  -24.6477  -14.8022 C   0  0  1  0  0  0  0  0  0  0  0  0
   18.5607  -24.5700  -15.0520 O   0  0  0  0  0  0  0  0  0  0  0  0
   20.3518  -23.7369  -13.6641 C   0  0  2  0  0  0  0  0  0  0  0  0
   19.5546  -24.0683  -12.5141 N   0  0  0  0  0  0  0  0  0  0  0  0
   20.1960  -22.2989  -14.0519 C   0  0  0  0  0  0  0  0  0  0  0  0
   19.0893  -21.7200  -13.8973 O   0  0  0  0  0  0  0  0  0  0  0  0
   24.8247  -18.9892  -16.5979 N   0  0  0  0  0  0  0  0  0  0  0  0
   23.8272  -17.9851  -16.5448 C   0  0  0  0  0  0  0  0  0  0  0  0
   24.0655  -16.8433  -16.9541 O   0  0  0  0  0  0  0  0  0  0  0  0
   22.4930  -18.3102  -15.9948 C   0  0  0  0  0  0  0  0  0  0  0  0
   22.4713  -19.7648  -15.5977 C   0  0  0  0  0  0  0  0  0  0  0  0
   21.1075  -20.1699  -15.0536 C   0  0  2  0  0  0  0  0  0  0  0  0
   21.2504  -21.5415  -14.5945 N   0  0  0  0  0  0  0  0  0  0  0  0
   20.1406  -20.0347  -16.1440 C   0  0  0  0  0  0  0  0  0  0  0  0
   19.2812  -18.9581  -16.1798 O   0  0  0  0  0  0  0  0  0  0  0  0
   20.0863  -20.8914  -17.0482 O   0  0  0  0  0  0  0  0  0  0  0  0
  2  1  1  0
  3  2  2  0
  4  3  1  0
  5 11  1  0
  5  4  2  0
  6  7  1  0
  6  5  1  0
  7  9  1  0
  7  8  1  1
  9 17  1  0
 10  9  2  0
 11 12  2  0
 12  2  1  0
 14 13  1  1
 15 14  1  0
 16 18  1  0
 16 14  1  0
 16 17  1  1
 18 26  1  0
 19 18  2  0
 20 21  1  0
 21 23  1  0
 21 22  2  0
 23 24  1  0
 25 24  1  6
 25 27  1  0
 26 25  1  0
 27 29  2  0
 27 28  1  0
M  END
$$$$
