YTQ.pdb
     RDKit          3D

 29 29  0  0  1  0  0  0  0  0999 V2000
   21.9209  -13.7668  -20.7993 O   0  0  0  0  0  0  0  0  0  0  0  0
   22.2954  -14.8288  -19.9729 C   0  0  0  0  0  0  0  0  0  0  0  0
   23.4078  -14.7208  -19.1628 C   0  0  0  0  0  0  0  0  0  0  0  0
   23.7987  -15.7550  -18.3377 C   0  0  0  0  0  0  0  0  0  0  0  0
   23.0636  -16.9177  -18.3232 C   0  0  0  0  0  0  0  0  0  0  0  0
   23.4478  -18.0487  -17.4548 C   0  0  0  0  0  0  0  0  0  0  0  0
   24.6435  -18.8053  -18.0112 C   0  0  2  0  0  0  0  0  0  0  0  0
   24.3526  -19.4602  -19.2446 N   0  0  0  0  0  0  0  0  0  0  0  0
   25.0901  -19.7397  -16.9451 C   0  0  0  0  0  0  0  0  0  0  0  0
   24.5448  -20.8715  -16.8895 O   0  0  0  0  0  0  0  0  0  0  0  0
   21.9532  -17.0533  -19.1178 C   0  0  0  0  0  0  0  0  0  0  0  0
   21.5770  -16.0082  -19.9368 C   0  0  0  0  0  0  0  0  0  0  0  0
   28.5190  -20.6752  -16.2238 C   0  0  0  0  0  0  0  0  0  0  0  0
   28.0062  -20.2802  -14.8539 C   0  0  1  0  0  0  0  0  0  0  0  0
   28.4974  -19.0199  -14.5615 O   0  0  0  0  0  0  0  0  0  0  0  0
   26.4876  -20.3073  -14.9248 C   0  0  2  0  0  0  0  0  0  0  0  0
   26.0857  -19.4345  -15.9947 N   0  0  0  0  0  0  0  0  0  0  0  0
   25.8916  -19.8913  -13.6155 C   0  0  0  0  0  0  0  0  0  0  0  0
   25.7971  -18.6705  -13.3246 O   0  0  0  0  0  0  0  0  0  0  0  0
   20.7760  -21.0973  -11.3934 N   0  0  0  0  0  0  0  0  0  0  0  0
   21.2766  -20.3864  -10.2754 C   0  0  0  0  0  0  0  0  0  0  0  0
   20.5141  -20.0174   -9.3751 O   0  0  0  0  0  0  0  0  0  0  0  0
   22.7225  -20.0858  -10.1894 C   0  0  0  0  0  0  0  0  0  0  0  0
   23.3867  -20.5176  -11.4725 C   0  0  0  0  0  0  0  0  0  0  0  0
   24.9041  -20.4480  -11.3612 C   0  0  2  0  0  0  0  0  0  0  0  0
   25.4194  -20.8189  -12.6686 N   0  0  0  0  0  0  0  0  0  0  0  0
   25.3113  -21.3778  -10.3067 C   0  0  0  0  0  0  0  0  0  0  0  0
   25.2644  -20.9913   -8.9848 O   0  0  0  0  0  0  0  0  0  0  0  0
   25.7036  -22.5255  -10.5952 O   0  0  0  0  0  0  0  0  0  0  0  0
  2  1  1  0
  3  2  2  0
  4  3  1  0
  5 11  1  0
  5  4  2  0
  6  7  1  0
  6  5  1  0
  7  9  1  0
  7  8  1  6
  9 17  1  0
 10  9  2  0
 11 12  2  0
 12  2  1  0
 14 13  1  6
 15 14  1  0
 16 18  1  0
 16 14  1  0
 16 17  1  6
 18 26  1  0
 19 18  2  0
 20 21  1  0
 21 23  1  0
 21 22  2  0
 23 24  1  0
 25 24  1  6
 25 27  1  0
 26 25  1  0
 27 29  2  0
 27 28  1  0
M  END
$$$$
