YTQ.pdb
     RDKit          3D

 29 29  0  0  1  0  0  0  0  0999 V2000
   25.5438  -22.6191  -10.1390 O   0  0  0  0  0  0  0  0  0  0  0  0
   25.3651  -21.7054  -11.1802 C   0  0  0  0  0  0  0  0  0  0  0  0
   25.4562  -22.1209  -12.4934 C   0  0  0  0  0  0  0  0  0  0  0  0
   25.2838  -21.2383  -13.5397 C   0  0  0  0  0  0  0  0  0  0  0  0
   25.0156  -19.9169  -13.2669 C   0  0  0  0  0  0  0  0  0  0  0  0
   24.8246  -18.9396  -14.3574 C   0  0  0  0  0  0  0  0  0  0  0  0
   26.0981  -18.7384  -15.1632 C   0  0  2  0  0  0  0  0  0  0  0  0
   27.2300  -18.4620  -14.3401 N   0  0  0  0  0  0  0  0  0  0  0  0
   25.8143  -17.6608  -16.1467 C   0  0  0  0  0  0  0  0  0  0  0  0
   26.5885  -16.6702  -16.1727 O   0  0  0  0  0  0  0  0  0  0  0  0
   24.9194  -19.4755  -11.9712 C   0  0  0  0  0  0  0  0  0  0  0  0
   25.0947  -20.3726  -10.9373 C   0  0  0  0  0  0  0  0  0  0  0  0
   25.5506  -15.6997  -20.0664 C   0  0  0  0  0  0  0  0  0  0  0  0
   25.7772  -16.7212  -18.9708 C   0  0  1  0  0  0  0  0  0  0  0  0
   26.9079  -16.3472  -18.2659 O   0  0  0  0  0  0  0  0  0  0  0  0
   24.5288  -16.7239  -18.1028 C   0  0  2  0  0  0  0  0  0  0  0  0
   24.7321  -17.6822  -17.0501 N   0  0  0  0  0  0  0  0  0  0  0  0
   23.3181  -17.0481  -18.9224 C   0  0  0  0  0  0  0  0  0  0  0  0
   23.3076  -18.0714  -19.6550 O   0  0  0  0  0  0  0  0  0  0  0  0
   20.8050  -20.2404  -17.8190 N   0  0  0  0  0  0  0  0  0  0  0  0
   19.4746  -19.7545  -17.8183 C   0  0  0  0  0  0  0  0  0  0  0  0
   18.5207  -20.5405  -17.7991 O   0  0  0  0  0  0  0  0  0  0  0  0
   19.2305  -18.2956  -17.8406 C   0  0  0  0  0  0  0  0  0  0  0  0
   20.5557  -17.5791  -17.7754 C   0  0  0  0  0  0  0  0  0  0  0  0
   20.8127  -16.7737  -19.0423 C   0  0  2  0  0  0  0  0  0  0  0  0
   22.1614  -16.2470  -18.9159 N   0  0  0  0  0  0  0  0  0  0  0  0
   19.7971  -15.7219  -19.1090 C   0  0  0  0  0  0  0  0  0  0  0  0
   18.5006  -16.0304  -19.4595 O   0  0  0  0  0  0  0  0  0  0  0  0
   20.0961  -14.5396  -18.8495 O   0  0  0  0  0  0  0  0  0  0  0  0
  2  1  1  0
  3  2  2  0
  4  3  1  0
  5 11  1  0
  5  4  2  0
  6  7  1  0
  6  5  1  0
  7  9  1  0
  7  8  1  1
  9 17  1  0
 10  9  2  0
 11 12  2  0
 12  2  1  0
 14 13  1  6
 15 14  1  0
 16 18  1  0
 16 14  1  0
 16 17  1  1
 18 26  1  0
 19 18  2  0
 20 21  1  0
 21 23  1  0
 21 22  2  0
 23 24  1  0
 25 24  1  1
 25 27  1  0
 26 25  1  0
 27 29  2  0
 27 28  1  0
M  END
$$$$
