YTQ.pdb
     RDKit          3D

 29 29  0  0  1  0  0  0  0  0999 V2000
   18.1815  -13.3710  -21.4603 O   0  0  0  0  0  0  0  0  0  0  0  0
   18.2504  -12.3266  -20.5354 C   0  0  0  0  0  0  0  0  0  0  0  0
   19.4751  -11.8753  -20.0863 C   0  0  0  0  0  0  0  0  0  0  0  0
   19.5703  -10.8455  -19.1731 C   0  0  0  0  0  0  0  0  0  0  0  0
   18.4197  -10.2572  -18.7013 C   0  0  0  0  0  0  0  0  0  0  0  0
   18.4774   -9.1524  -17.7231 C   0  0  0  0  0  0  0  0  0  0  0  0
   18.8874   -9.6422  -16.3435 C   0  0  2  0  0  0  0  0  0  0  0  0
   17.9726  -10.5954  -15.8055 N   0  0  0  0  0  0  0  0  0  0  0  0
   19.0408   -8.4345  -15.4908 C   0  0  0  0  0  0  0  0  0  0  0  0
   18.0759   -8.1100  -14.7526 O   0  0  0  0  0  0  0  0  0  0  0  0
   17.1886  -10.6852  -19.1301 C   0  0  0  0  0  0  0  0  0  0  0  0
   17.1127  -11.7166  -20.0439 C   0  0  0  0  0  0  0  0  0  0  0  0
   21.9792   -5.1321  -13.3968 C   0  0  0  0  0  0  0  0  0  0  0  0
   21.7815   -6.4513  -14.1151 C   0  0  1  0  0  0  0  0  0  0  0  0
   22.0079   -7.4701  -13.2064 O   0  0  0  0  0  0  0  0  0  0  0  0
   20.3573   -6.4565  -14.6474 C   0  0  2  0  0  0  0  0  0  0  0  0
   20.2000   -7.6326  -15.4597 N   0  0  0  0  0  0  0  0  0  0  0  0
   20.0799   -5.2054  -15.4222 C   0  0  0  0  0  0  0  0  0  0  0  0
   20.6524   -5.0063  -16.5252 O   0  0  0  0  0  0  0  0  0  0  0  0
   15.1671   -0.7372  -17.5566 N   0  0  0  0  0  0  0  0  0  0  0  0
   16.2148   -1.6381  -17.2452 C   0  0  0  0  0  0  0  0  0  0  0  0
   16.3451   -2.6907  -17.8802 O   0  0  0  0  0  0  0  0  0  0  0  0
   17.1566   -1.3123  -16.1521 C   0  0  0  0  0  0  0  0  0  0  0  0
   17.5208   -2.5839  -15.4281 C   0  0  0  0  0  0  0  0  0  0  0  0
   18.9858   -2.9423  -15.6413 C   0  0  2  0  0  0  0  0  0  0  0  0
   19.1890   -4.2149  -14.9693 N   0  0  0  0  0  0  0  0  0  0  0  0
   19.7911   -1.8632  -15.0675 C   0  0  0  0  0  0  0  0  0  0  0  0
   20.0817   -1.8552  -13.7205 O   0  0  0  0  0  0  0  0  0  0  0  0
   20.2201   -0.9434  -15.7916 O   0  0  0  0  0  0  0  0  0  0  0  0
  2  1  1  0
  3  2  2  0
  4  3  1  0
  5 11  1  0
  5  4  2  0
  6  7  1  0
  6  5  1  0
  7  9  1  0
  7  8  1  1
  9 17  1  0
 10  9  2  0
 11 12  2  0
 12  2  1  0
 14 13  1  1
 15 14  1  0
 16 18  1  0
 16 14  1  0
 16 17  1  6
 18 26  1  0
 19 18  2  0
 20 21  1  0
 21 23  1  0
 21 22  2  0
 23 24  1  0
 25 24  1  1
 25 27  1  0
 26 25  1  0
 27 29  2  0
 27 28  1  0
M  END
$$$$
