YTQ.pdb
     RDKit          3D

 29 29  0  0  1  0  0  0  0  0999 V2000
   13.3432  -15.0343  -18.8096 O   0  0  0  0  0  0  0  0  0  0  0  0
   14.2388  -14.1147  -18.2588 C   0  0  0  0  0  0  0  0  0  0  0  0
   14.1729  -13.7980  -16.9169 C   0  0  0  0  0  0  0  0  0  0  0  0
   15.0456  -12.8931  -16.3487 C   0  0  0  0  0  0  0  0  0  0  0  0
   16.0010  -12.2949  -17.1373 C   0  0  0  0  0  0  0  0  0  0  0  0
   16.9542  -11.3207  -16.5687 C   0  0  0  0  0  0  0  0  0  0  0  0
   18.2529  -11.9863  -16.1421 C   0  0  2  0  0  0  0  0  0  0  0  0
   18.0582  -12.9665  -15.1242 N   0  0  0  0  0  0  0  0  0  0  0  0
   19.1764  -10.8957  -15.7336 C   0  0  0  0  0  0  0  0  0  0  0  0
   19.0877  -10.4605  -14.5572 O   0  0  0  0  0  0  0  0  0  0  0  0
   16.0900  -12.5905  -18.4742 C   0  0  0  0  0  0  0  0  0  0  0  0
   15.2085  -13.4981  -19.0254 C   0  0  0  0  0  0  0  0  0  0  0  0
   23.2849   -8.3658  -16.5043 C   0  0  0  0  0  0  0  0  0  0  0  0
   22.3514   -9.4796  -16.9324 C   0  0  1  0  0  0  0  0  0  0  0  0
   22.9430  -10.6848  -16.5969 O   0  0  0  0  0  0  0  0  0  0  0  0
   21.0351   -9.2586  -16.2042 C   0  0  2  0  0  0  0  0  0  0  0  0
   20.1435  -10.3211  -16.5834 N   0  0  0  0  0  0  0  0  0  0  0  0
   20.4684   -7.9129  -16.5371 C   0  0  0  0  0  0  0  0  0  0  0  0
   20.1337   -7.6444  -17.7202 O   0  0  0  0  0  0  0  0  0  0  0  0
   17.1487   -6.9939  -13.3291 N   0  0  0  0  0  0  0  0  0  0  0  0
   16.7001   -7.0810  -14.6697 C   0  0  0  0  0  0  0  0  0  0  0  0
   15.7672   -7.8343  -14.9703 O   0  0  0  0  0  0  0  0  0  0  0  0
   17.3557   -6.2628  -15.7132 C   0  0  0  0  0  0  0  0  0  0  0  0
   18.4638   -5.4608  -15.0786 C   0  0  0  0  0  0  0  0  0  0  0  0
   19.7600   -5.5852  -15.8687 C   0  0  2  0  0  0  0  0  0  0  0  0
   20.2860   -6.9069  -15.5704 N   0  0  0  0  0  0  0  0  0  0  0  0
   20.6487   -4.5087  -15.4290 C   0  0  0  0  0  0  0  0  0  0  0  0
   21.7775   -4.7977  -14.6934 O   0  0  0  0  0  0  0  0  0  0  0  0
   20.3923   -3.3228  -15.7160 O   0  0  0  0  0  0  0  0  0  0  0  0
  2  1  1  0
  3  2  2  0
  4  3  1  0
  5 11  1  0
  5  4  2  0
  6  7  1  0
  6  5  1  0
  7  9  1  0
  7  8  1  1
  9 17  1  0
 10  9  2  0
 11 12  2  0
 12  2  1  0
 14 13  1  1
 15 14  1  0
 16 18  1  0
 16 14  1  0
 16 17  1  6
 18 26  1  0
 19 18  2  0
 20 21  1  0
 21 23  1  0
 21 22  2  0
 23 24  1  0
 25 24  1  1
 25 27  1  0
 26 25  1  0
 27 29  2  0
 27 28  1  0
M  END
$$$$
