YTQ.pdb
     RDKit          3D

 29 29  0  0  1  0  0  0  0  0999 V2000
   31.4883  -21.0246  -10.2490 O   0  0  0  0  0  0  0  0  0  0  0  0
   30.1734  -20.7975  -10.6618 C   0  0  0  0  0  0  0  0  0  0  0  0
   29.1190  -21.1077   -9.8267 C   0  0  0  0  0  0  0  0  0  0  0  0
   27.8114  -20.8931  -10.2107 C   0  0  0  0  0  0  0  0  0  0  0  0
   27.5546  -20.3587  -11.4520 C   0  0  0  0  0  0  0  0  0  0  0  0
   26.1695  -20.1134  -11.9019 C   0  0  0  0  0  0  0  0  0  0  0  0
   25.4540  -21.4078  -12.2541 C   0  0  2  0  0  0  0  0  0  0  0  0
   26.1053  -22.1278  -13.2993 N   0  0  0  0  0  0  0  0  0  0  0  0
   24.0510  -21.0433  -12.5826 C   0  0  0  0  0  0  0  0  0  0  0  0
   23.7219  -21.0076  -13.7957 O   0  0  0  0  0  0  0  0  0  0  0  0
   28.5828  -20.0407  -12.3031 C   0  0  0  0  0  0  0  0  0  0  0  0
   29.8846  -20.2622  -11.9021 C   0  0  0  0  0  0  0  0  0  0  0  0
   19.4735  -20.2519  -10.8936 C   0  0  0  0  0  0  0  0  0  0  0  0
   20.9536  -20.3419  -10.5826 C   0  0  1  0  0  0  0  0  0  0  0  0
   21.1418  -21.3947   -9.7044 O   0  0  0  0  0  0  0  0  0  0  0  0
   21.6717  -20.5563  -11.9055 C   0  0  2  0  0  0  0  0  0  0  0  0
   23.0693  -20.7359  -11.6185 N   0  0  0  0  0  0  0  0  0  0  0  0
   21.4382  -19.3980  -12.8255 C   0  0  0  0  0  0  0  0  0  0  0  0
   21.8274  -18.2459  -12.5008 O   0  0  0  0  0  0  0  0  0  0  0  0
   21.7591  -16.2763  -18.2988 N   0  0  0  0  0  0  0  0  0  0  0  0
   21.3944  -17.6348  -18.1324 C   0  0  0  0  0  0  0  0  0  0  0  0
   22.1049  -18.5351  -18.5936 O   0  0  0  0  0  0  0  0  0  0  0  0
   20.1539  -17.9729  -17.4009 C   0  0  0  0  0  0  0  0  0  0  0  0
   20.4696  -19.0239  -16.3667 C   0  0  0  0  0  0  0  0  0  0  0  0
   20.5271  -18.4245  -14.9677 C   0  0  2  0  0  0  0  0  0  0  0  0
   20.7893  -19.5342  -14.0665 N   0  0  0  0  0  0  0  0  0  0  0  0
   19.2388  -17.7787  -14.7121 C   0  0  0  0  0  0  0  0  0  0  0  0
   19.0371  -16.4648  -15.0751 O   0  0  0  0  0  0  0  0  0  0  0  0
   18.3143  -18.4110  -14.1644 O   0  0  0  0  0  0  0  0  0  0  0  0
  2  1  1  0
  3  2  2  0
  4  3  1  0
  5 11  1  0
  5  4  2  0
  6  7  1  0
  6  5  1  0
  7  9  1  0
  7  8  1  6
  9 17  1  0
 10  9  2  0
 11 12  2  0
 12  2  1  0
 14 13  1  6
 15 14  1  0
 16 18  1  0
 16 14  1  0
 16 17  1  1
 18 26  1  0
 19 18  2  0
 20 21  1  0
 21 23  1  0
 21 22  2  0
 23 24  1  0
 25 24  1  6
 25 27  1  0
 26 25  1  0
 27 29  2  0
 27 28  1  0
M  END
$$$$
