YTQ.pdb
     RDKit          3D

 29 29  0  0  1  0  0  0  0  0999 V2000
   29.2481  -23.7575  -17.4042 O   0  0  0  0  0  0  0  0  0  0  0  0
   28.2610  -23.1767  -16.6046 C   0  0  0  0  0  0  0  0  0  0  0  0
   28.3635  -21.8538  -16.2242 C   0  0  0  0  0  0  0  0  0  0  0  0
   27.4023  -21.2567  -15.4350 C   0  0  0  0  0  0  0  0  0  0  0  0
   26.3197  -21.9966  -15.0192 C   0  0  0  0  0  0  0  0  0  0  0  0
   25.2687  -21.3959  -14.1733 C   0  0  0  0  0  0  0  0  0  0  0  0
   24.0828  -20.9231  -14.9990 C   0  0  2  0  0  0  0  0  0  0  0  0
   24.3995  -19.8017  -15.8218 N   0  0  0  0  0  0  0  0  0  0  0  0
   22.9784  -20.6517  -14.0419 C   0  0  0  0  0  0  0  0  0  0  0  0
   22.8465  -19.4762  -13.6150 O   0  0  0  0  0  0  0  0  0  0  0  0
   26.1915  -23.3137  -15.3818 C   0  0  0  0  0  0  0  0  0  0  0  0
   27.1629  -23.8943  -16.1718 C   0  0  0  0  0  0  0  0  0  0  0  0
   20.9281  -19.0949  -13.5842 C   0  0  0  0  0  0  0  0  0  0  0  0
   20.0785  -20.3317  -13.3745 C   0  0  1  0  0  0  0  0  0  0  0  0
   19.6205  -20.7496  -14.6117 O   0  0  0  0  0  0  0  0  0  0  0  0
   20.9651  -21.3696  -12.7048 C   0  0  2  0  0  0  0  0  0  0  0  0
   22.0721  -21.6302  -13.5849 N   0  0  0  0  0  0  0  0  0  0  0  0
   20.1872  -22.6143  -12.4079 C   0  0  0  0  0  0  0  0  0  0  0  0
   20.0338  -23.4902  -13.2986 O   0  0  0  0  0  0  0  0  0  0  0  0
   18.5778  -24.3469   -6.6754 N   0  0  0  0  0  0  0  0  0  0  0  0
   18.0123  -25.4197   -7.4071 C   0  0  0  0  0  0  0  0  0  0  0  0
   17.4721  -26.3632   -6.8188 O   0  0  0  0  0  0  0  0  0  0  0  0
   18.0712  -25.4061   -8.8851 C   0  0  0  0  0  0  0  0  0  0  0  0
   18.8185  -24.1747   -9.3313 C   0  0  0  0  0  0  0  0  0  0  0  0
   18.8075  -24.0396  -10.8484 C   0  0  2  0  0  0  0  0  0  0  0  0
   19.6033  -22.8619  -11.1518 N   0  0  0  0  0  0  0  0  0  0  0  0
   17.4119  -23.9045  -11.2683 C   0  0  0  0  0  0  0  0  0  0  0  0
   16.7237  -24.9966  -11.7505 O   0  0  0  0  0  0  0  0  0  0  0  0
   16.8350  -22.8018  -11.1933 O   0  0  0  0  0  0  0  0  0  0  0  0
  2  1  1  0
  3  2  2  0
  4  3  1  0
  5 11  1  0
  5  4  2  0
  6  7  1  0
  6  5  1  0
  7  9  1  0
  7  8  1  1
  9 17  1  0
 10  9  2  0
 11 12  2  0
 12  2  1  0
 14 13  1  6
 15 14  1  0
 16 18  1  0
 16 14  1  0
 16 17  1  6
 18 26  1  0
 19 18  2  0
 20 21  1  0
 21 23  1  0
 21 22  2  0
 23 24  1  0
 25 24  1  1
 25 27  1  0
 26 25  1  0
 27 29  2  0
 27 28  1  0
M  END
$$$$
