YTQ.pdb
     RDKit          3D

 29 29  0  0  1  0  0  0  0  0999 V2000
   29.2668  -20.0986   -3.6596 O   0  0  0  0  0  0  0  0  0  0  0  0
   28.6976  -19.9920   -4.9307 C   0  0  0  0  0  0  0  0  0  0  0  0
   27.5714  -20.7227   -5.2518 C   0  0  0  0  0  0  0  0  0  0  0  0
   26.9901  -20.6353   -6.5000 C   0  0  0  0  0  0  0  0  0  0  0  0
   27.5458  -19.8021   -7.4431 C   0  0  0  0  0  0  0  0  0  0  0  0
   26.9550  -19.6796   -8.7911 C   0  0  0  0  0  0  0  0  0  0  0  0
   27.0250  -20.9904   -9.5582 C   0  0  2  0  0  0  0  0  0  0  0  0
   28.3347  -21.5558   -9.5596 N   0  0  0  0  0  0  0  0  0  0  0  0
   26.5072  -20.7132  -10.9235 C   0  0  0  0  0  0  0  0  0  0  0  0
   27.3373  -20.6571  -11.8665 O   0  0  0  0  0  0  0  0  0  0  0  0
   28.6652  -19.0639   -7.1520 C   0  0  0  0  0  0  0  0  0  0  0  0
   29.2330  -19.1640   -5.8982 C   0  0  0  0  0  0  0  0  0  0  0  0
   26.4386  -21.8337  -13.2939 C   0  0  0  0  0  0  0  0  0  0  0  0
   24.9304  -21.6891  -13.2904 C   0  0  1  0  0  0  0  0  0  0  0  0
   24.3968  -22.7996  -12.6602 O   0  0  0  0  0  0  0  0  0  0  0  0
   24.6112  -20.3972  -12.5550 C   0  0  2  0  0  0  0  0  0  0  0  0
   25.1450  -20.5098  -11.2245 N   0  0  0  0  0  0  0  0  0  0  0  0
   23.1343  -20.1499  -12.5415 C   0  0  0  0  0  0  0  0  0  0  0  0
   22.4193  -20.6479  -11.6333 O   0  0  0  0  0  0  0  0  0  0  0  0
   17.8405  -16.6049  -16.4088 N   0  0  0  0  0  0  0  0  0  0  0  0
   19.1385  -17.0686  -16.0827 C   0  0  0  0  0  0  0  0  0  0  0  0
   20.0887  -16.8581  -16.8450 O   0  0  0  0  0  0  0  0  0  0  0  0
   19.3531  -17.8092  -14.8204 C   0  0  0  0  0  0  0  0  0  0  0  0
   20.7844  -18.2810  -14.7699 C   0  0  0  0  0  0  0  0  0  0  0  0
   21.0722  -19.0398  -13.4810 C   0  0  2  0  0  0  0  0  0  0  0  0
   22.4874  -19.3692  -13.5172 N   0  0  0  0  0  0  0  0  0  0  0  0
   20.2142  -20.2255  -13.4672 C   0  0  0  0  0  0  0  0  0  0  0  0
   19.0469  -20.2287  -12.7350 O   0  0  0  0  0  0  0  0  0  0  0  0
   20.5320  -21.2412  -14.1167 O   0  0  0  0  0  0  0  0  0  0  0  0
  2  1  1  0
  3  2  2  0
  4  3  1  0
  5 11  1  0
  5  4  2  0
  6  7  1  0
  6  5  1  0
  7  9  1  0
  7  8  1  6
  9 17  1  0
 10  9  2  0
 11 12  2  0
 12  2  1  0
 14 13  1  1
 15 14  1  0
 16 18  1  0
 16 14  1  0
 16 17  1  1
 18 26  1  0
 19 18  2  0
 20 21  1  0
 21 23  1  0
 21 22  2  0
 23 24  1  0
 25 24  1  6
 25 27  1  0
 26 25  1  0
 27 29  2  0
 27 28  1  0
M  END
$$$$
