YTQ.pdb
     RDKit          3D

 29 29  0  0  1  0  0  0  0  0999 V2000
   29.3247  -20.0187   -3.3020 O   0  0  0  0  0  0  0  0  0  0  0  0
   28.7866  -19.9534   -4.5893 C   0  0  0  0  0  0  0  0  0  0  0  0
   29.4323  -19.2377   -5.5774 C   0  0  0  0  0  0  0  0  0  0  0  0
   28.9217  -19.1576   -6.8565 C   0  0  0  0  0  0  0  0  0  0  0  0
   27.7444  -19.8051   -7.1519 C   0  0  0  0  0  0  0  0  0  0  0  0
   27.1637  -19.7445   -8.5083 C   0  0  0  0  0  0  0  0  0  0  0  0
   27.3398  -21.0568   -9.2557 C   0  0  2  0  0  0  0  0  0  0  0  0
   28.7059  -21.4570   -9.3468 N   0  0  0  0  0  0  0  0  0  0  0  0
   26.6930  -20.8816  -10.5824 C   0  0  0  0  0  0  0  0  0  0  0  0
   27.4294  -20.6031  -11.5629 O   0  0  0  0  0  0  0  0  0  0  0  0
   27.0808  -20.5239   -6.1897 C   0  0  0  0  0  0  0  0  0  0  0  0
   27.6065  -20.5929   -4.9156 C   0  0  0  0  0  0  0  0  0  0  0  0
   24.2401  -22.2315  -14.1333 C   0  0  0  0  0  0  0  0  0  0  0  0
   24.8562  -22.3199  -12.7520 C   0  0  1  0  0  0  0  0  0  0  0  0
   26.1877  -22.6668  -12.9000 O   0  0  0  0  0  0  0  0  0  0  0  0
   24.6821  -20.9567  -12.1015 C   0  0  2  0  0  0  0  0  0  0  0  0
   25.3070  -21.0085  -10.8073 N   0  0  0  0  0  0  0  0  0  0  0  0
   23.2307  -20.6013  -12.0033 C   0  0  0  0  0  0  0  0  0  0  0  0
   22.5136  -21.1184  -11.1075 O   0  0  0  0  0  0  0  0  0  0  0  0
   20.3958  -16.9205  -16.1537 N   0  0  0  0  0  0  0  0  0  0  0  0
   19.3023  -17.1726  -15.2897 C   0  0  0  0  0  0  0  0  0  0  0  0
   18.1867  -16.7010  -15.5371 O   0  0  0  0  0  0  0  0  0  0  0  0
   19.5018  -18.0067  -14.0843 C   0  0  0  0  0  0  0  0  0  0  0  0
   20.9386  -18.4624  -14.0399 C   0  0  0  0  0  0  0  0  0  0  0  0
   21.1941  -19.3725  -12.8457 C   0  0  2  0  0  0  0  0  0  0  0  0
   22.6107  -19.6955  -12.8837 N   0  0  0  0  0  0  0  0  0  0  0  0
   20.3396  -20.5508  -12.9992 C   0  0  0  0  0  0  0  0  0  0  0  0
   19.2125  -20.6968  -12.2200 O   0  0  0  0  0  0  0  0  0  0  0  0
   20.6239  -21.4311  -13.8351 O   0  0  0  0  0  0  0  0  0  0  0  0
  2  1  1  0
  3  2  2  0
  4  3  1  0
  5 11  1  0
  5  4  2  0
  6  7  1  0
  6  5  1  0
  7  9  1  0
  7  8  1  6
  9 17  1  0
 10  9  2  0
 11 12  2  0
 12  2  1  0
 14 13  1  6
 15 14  1  0
 16 18  1  0
 16 14  1  0
 16 17  1  1
 18 26  1  0
 19 18  2  0
 20 21  1  0
 21 23  1  0
 21 22  2  0
 23 24  1  0
 25 24  1  6
 25 27  1  0
 26 25  1  0
 27 29  2  0
 27 28  1  0
M  END
$$$$
