YTQ.pdb
     RDKit          3D

 29 29  0  0  1  0  0  0  0  0999 V2000
   18.7265  -20.7318  -13.9616 O   0  0  0  0  0  0  0  0  0  0  0  0
   19.4306  -19.6045  -14.3910 C   0  0  0  0  0  0  0  0  0  0  0  0
   20.7781  -19.6934  -14.6768 C   0  0  0  0  0  0  0  0  0  0  0  0
   21.4961  -18.5949  -15.1025 C   0  0  0  0  0  0  0  0  0  0  0  0
   20.8543  -17.3865  -15.2447 C   0  0  0  0  0  0  0  0  0  0  0  0
   21.5859  -16.1863  -15.6975 C   0  0  0  0  0  0  0  0  0  0  0  0
   21.3557  -15.9101  -17.1748 C   0  0  2  0  0  0  0  0  0  0  0  0
   21.7989  -16.9795  -18.0083 N   0  0  0  0  0  0  0  0  0  0  0  0
   22.0263  -14.6184  -17.4762 C   0  0  0  0  0  0  0  0  0  0  0  0
   23.1602  -14.6575  -18.0185 O   0  0  0  0  0  0  0  0  0  0  0  0
   19.5156  -17.2686  -14.9679 C   0  0  0  0  0  0  0  0  0  0  0  0
   18.8134  -18.3781  -14.5431 C   0  0  0  0  0  0  0  0  0  0  0  0
   22.8096  -13.2993  -19.6243 C   0  0  0  0  0  0  0  0  0  0  0  0
   21.9658  -12.1232  -19.1768 C   0  0  1  0  0  0  0  0  0  0  0  0
   20.6853  -12.3048  -19.6693 O   0  0  0  0  0  0  0  0  0  0  0  0
   22.0039  -12.1037  -17.6570 C   0  0  2  0  0  0  0  0  0  0  0  0
   21.4692  -13.3549  -17.1916 N   0  0  0  0  0  0  0  0  0  0  0  0
   21.2296  -10.9372  -17.1256 C   0  0  0  0  0  0  0  0  0  0  0  0
   19.9837  -11.0248  -16.9704 O   0  0  0  0  0  0  0  0  0  0  0  0
   22.1626   -5.8818  -12.6217 N   0  0  0  0  0  0  0  0  0  0  0  0
   21.5970   -6.8313  -13.5074 C   0  0  0  0  0  0  0  0  0  0  0  0
   20.3719   -6.8925  -13.6610 O   0  0  0  0  0  0  0  0  0  0  0  0
   22.4826   -7.7536  -14.2512 C   0  0  0  0  0  0  0  0  0  0  0  0
   22.2000   -7.6166  -15.7260 C   0  0  0  0  0  0  0  0  0  0  0  0
   21.1289   -8.6006  -16.1783 C   0  0  2  0  0  0  0  0  0  0  0  0
   21.8386   -9.7162  -16.7818 N   0  0  0  0  0  0  0  0  0  0  0  0
   20.2607   -7.9013  -17.1266 C   0  0  0  0  0  0  0  0  0  0  0  0
   19.0218   -7.4479  -16.7287 O   0  0  0  0  0  0  0  0  0  0  0  0
   20.6342   -7.7102  -18.3006 O   0  0  0  0  0  0  0  0  0  0  0  0
  2  1  1  0
  3  2  2  0
  4  3  1  0
  5 11  1  0
  5  4  2  0
  6  7  1  0
  6  5  1  0
  7  9  1  0
  7  8  1  6
  9 17  1  0
 10  9  2  0
 11 12  2  0
 12  2  1  0
 14 13  1  1
 15 14  1  0
 16 18  1  0
 16 14  1  0
 16 17  1  1
 18 26  1  0
 19 18  2  0
 20 21  1  0
 21 23  1  0
 21 22  2  0
 23 24  1  0
 25 24  1  6
 25 27  1  0
 26 25  1  0
 27 29  2  0
 27 28  1  0
M  END
$$$$
