YTQ.pdb
     RDKit          3D

 29 29  0  0  1  0  0  0  0  0999 V2000
   29.6123  -14.1684  -15.3855 O   0  0  0  0  0  0  0  0  0  0  0  0
   28.8923  -12.9969  -15.6308 C   0  0  0  0  0  0  0  0  0  0  0  0
   27.5937  -12.8715  -15.1800 C   0  0  0  0  0  0  0  0  0  0  0  0
   26.8613  -11.7251  -15.4092 C   0  0  0  0  0  0  0  0  0  0  0  0
   27.4386  -10.6860  -16.1016 C   0  0  0  0  0  0  0  0  0  0  0  0
   26.6894   -9.4417  -16.3685 C   0  0  0  0  0  0  0  0  0  0  0  0
   25.7004   -9.6134  -17.5104 C   0  0  2  0  0  0  0  0  0  0  0  0
   26.3251  -10.0504  -18.7161 N   0  0  0  0  0  0  0  0  0  0  0  0
   24.9902   -8.3161  -17.6577 C   0  0  0  0  0  0  0  0  0  0  0  0
   25.5214   -7.4342  -18.3798 O   0  0  0  0  0  0  0  0  0  0  0  0
   28.7277  -10.7826  -16.5616 C   0  0  0  0  0  0  0  0  0  0  0  0
   29.4453  -11.9370  -16.3230 C   0  0  0  0  0  0  0  0  0  0  0  0
   23.8623   -7.0004  -19.6382 C   0  0  0  0  0  0  0  0  0  0  0  0
   22.5618   -7.0448  -18.8623 C   0  0  1  0  0  0  0  0  0  0  0  0
   21.9401   -8.2496  -19.1401 O   0  0  0  0  0  0  0  0  0  0  0  0
   22.9189   -6.9036  -17.3911 C   0  0  2  0  0  0  0  0  0  0  0  0
   23.7600   -8.0153  -17.0382 N   0  0  0  0  0  0  0  0  0  0  0  0
   21.6803   -6.8558  -16.5507 C   0  0  0  0  0  0  0  0  0  0  0  0
   21.1875   -7.9192  -16.0920 O   0  0  0  0  0  0  0  0  0  0  0  0
   17.9746   -1.9093  -16.2678 N   0  0  0  0  0  0  0  0  0  0  0  0
   17.3893   -2.6736  -15.2288 C   0  0  0  0  0  0  0  0  0  0  0  0
   16.3907   -2.2570  -14.6310 O   0  0  0  0  0  0  0  0  0  0  0  0
   17.9809   -3.9784  -14.8605 C   0  0  0  0  0  0  0  0  0  0  0  0
   19.1756   -4.2379  -15.7433 C   0  0  0  0  0  0  0  0  0  0  0  0
   19.8278   -5.5743  -15.4137 C   0  0  2  0  0  0  0  0  0  0  0  0
   21.0216   -5.6521  -16.2390 N   0  0  0  0  0  0  0  0  0  0  0  0
   18.8568   -6.6257  -15.7205 C   0  0  0  0  0  0  0  0  0  0  0  0
   18.2137   -7.2949  -14.7020 O   0  0  0  0  0  0  0  0  0  0  0  0
   18.6039   -6.9241  -16.9043 O   0  0  0  0  0  0  0  0  0  0  0  0
  2  1  1  0
  3  2  2  0
  4  3  1  0
  5 11  1  0
  5  4  2  0
  6  7  1  0
  6  5  1  0
  7  9  1  0
  7  8  1  6
  9 17  1  0
 10  9  2  0
 11 12  2  0
 12  2  1  0
 14 13  1  6
 15 14  1  0
 16 18  1  0
 16 14  1  0
 16 17  1  1
 18 26  1  0
 19 18  2  0
 20 21  1  0
 21 23  1  0
 21 22  2  0
 23 24  1  0
 25 24  1  6
 25 27  1  0
 26 25  1  0
 27 29  2  0
 27 28  1  0
M  END
$$$$
