YTQ.pdb
     RDKit          3D

 29 29  0  0  1  0  0  0  0  0999 V2000
   29.2579  -20.3396   -3.7077 O   0  0  0  0  0  0  0  0  0  0  0  0
   28.8007  -20.2044   -5.0206 C   0  0  0  0  0  0  0  0  0  0  0  0
   27.4521  -20.0572   -5.2756 C   0  0  0  0  0  0  0  0  0  0  0  0
   26.9751  -19.9219   -6.5630 C   0  0  0  0  0  0  0  0  0  0  0  0
   27.8632  -19.9340   -7.6135 C   0  0  0  0  0  0  0  0  0  0  0  0
   27.3942  -19.7923   -9.0066 C   0  0  0  0  0  0  0  0  0  0  0  0
   27.1779  -21.1438   -9.6685 C   0  0  2  0  0  0  0  0  0  0  0  0
   28.3853  -21.8934   -9.7924 N   0  0  0  0  0  0  0  0  0  0  0  0
   26.5191  -20.8783  -10.9741 C   0  0  0  0  0  0  0  0  0  0  0  0
   27.2499  -20.7882  -11.9935 O   0  0  0  0  0  0  0  0  0  0  0  0
   29.2093  -20.0787   -7.3899 C   0  0  0  0  0  0  0  0  0  0  0  0
   29.6684  -20.2128   -6.0954 C   0  0  0  0  0  0  0  0  0  0  0  0
   26.2134  -21.9863  -13.3598 C   0  0  0  0  0  0  0  0  0  0  0  0
   24.7129  -21.8470  -13.2037 C   0  0  1  0  0  0  0  0  0  0  0  0
   24.2450  -22.9751  -12.5530 O   0  0  0  0  0  0  0  0  0  0  0  0
   24.4668  -20.5755  -12.4070 C   0  0  2  0  0  0  0  0  0  0  0  0
   25.1276  -20.7216  -11.1382 N   0  0  0  0  0  0  0  0  0  0  0  0
   22.9982  -20.3324  -12.2434 C   0  0  0  0  0  0  0  0  0  0  0  0
   22.4023  -20.7391  -11.2121 O   0  0  0  0  0  0  0  0  0  0  0  0
   17.2557  -17.1398  -15.7627 N   0  0  0  0  0  0  0  0  0  0  0  0
   18.5827  -17.5899  -15.5564 C   0  0  0  0  0  0  0  0  0  0  0  0
   19.4603  -17.3581  -16.3955 O   0  0  0  0  0  0  0  0  0  0  0  0
   18.9153  -18.3421  -14.3268 C   0  0  0  0  0  0  0  0  0  0  0  0
   20.3789  -18.7040  -14.3583 C   0  0  0  0  0  0  0  0  0  0  0  0
   20.8085  -19.3863  -13.0661 C   0  0  2  0  0  0  0  0  0  0  0  0
   22.2298  -19.6550  -13.2080 N   0  0  0  0  0  0  0  0  0  0  0  0
   20.0120  -20.6062  -12.9264 C   0  0  0  0  0  0  0  0  0  0  0  0
   20.3794  -21.7549  -13.5931 O   0  0  0  0  0  0  0  0  0  0  0  0
   18.9958  -20.6163  -12.2041 O   0  0  0  0  0  0  0  0  0  0  0  0
  2  1  1  0
  3  2  2  0
  4  3  1  0
  5 11  1  0
  5  4  2  0
  6  7  1  0
  6  5  1  0
  7  9  1  0
  7  8  1  6
  9 17  1  0
 10  9  2  0
 11 12  2  0
 12  2  1  0
 14 13  1  1
 15 14  1  0
 16 18  1  0
 16 14  1  0
 16 17  1  1
 18 26  1  0
 19 18  2  0
 20 21  1  0
 21 23  1  0
 21 22  2  0
 23 24  1  0
 25 24  1  6
 25 27  1  0
 26 25  1  0
 27 29  2  0
 27 28  1  0
M  END
$$$$
