YTQ.pdb
     RDKit          3D

 29 29  0  0  1  0  0  0  0  0999 V2000
   16.2716  -14.8573  -21.0744 O   0  0  0  0  0  0  0  0  0  0  0  0
   16.5713  -13.8736  -20.1291 C   0  0  0  0  0  0  0  0  0  0  0  0
   17.3678  -12.7996  -20.4717 C   0  0  0  0  0  0  0  0  0  0  0  0
   17.6785  -11.8149  -19.5568 C   0  0  0  0  0  0  0  0  0  0  0  0
   17.1834  -11.9067  -18.2766 C   0  0  0  0  0  0  0  0  0  0  0  0
   17.4922  -10.8744  -17.2667 C   0  0  0  0  0  0  0  0  0  0  0  0
   18.8707  -11.0761  -16.6580 C   0  0  2  0  0  0  0  0  0  0  0  0
   18.9758  -12.2992  -15.9313 N   0  0  0  0  0  0  0  0  0  0  0  0
   19.1486   -9.8766  -15.8256 C   0  0  0  0  0  0  0  0  0  0  0  0
   18.5936   -9.8014  -14.6996 O   0  0  0  0  0  0  0  0  0  0  0  0
   16.3891  -12.9631  -17.9077 C   0  0  0  0  0  0  0  0  0  0  0  0
   16.0887  -13.9388  -18.8364 C   0  0  0  0  0  0  0  0  0  0  0  0
   21.9906   -8.9185  -14.2292 C   0  0  0  0  0  0  0  0  0  0  0  0
   21.7576   -7.6850  -15.0775 C   0  0  1  0  0  0  0  0  0  0  0  0
   22.5589   -7.7826  -16.2016 O   0  0  0  0  0  0  0  0  0  0  0  0
   20.2771   -7.6583  -15.4228 C   0  0  2  0  0  0  0  0  0  0  0  0
   19.9948   -8.8205  -16.2211 N   0  0  0  0  0  0  0  0  0  0  0  0
   19.9267   -6.3923  -16.1419 C   0  0  0  0  0  0  0  0  0  0  0  0
   20.0784   -6.3122  -17.3888 O   0  0  0  0  0  0  0  0  0  0  0  0
   15.9503   -2.4307  -14.3506 N   0  0  0  0  0  0  0  0  0  0  0  0
   16.5651   -1.5596  -15.2829 C   0  0  0  0  0  0  0  0  0  0  0  0
   15.9623   -0.5655  -15.7033 O   0  0  0  0  0  0  0  0  0  0  0  0
   17.9380   -1.8458  -15.7537 C   0  0  0  0  0  0  0  0  0  0  0  0
   18.4069   -3.1368  -15.1312 C   0  0  0  0  0  0  0  0  0  0  0  0
   19.1951   -3.9775  -16.1272 C   0  0  2  0  0  0  0  0  0  0  0  0
   19.4234   -5.2580  -15.4787 N   0  0  0  0  0  0  0  0  0  0  0  0
   20.4372   -3.2616  -16.4218 C   0  0  0  0  0  0  0  0  0  0  0  0
   21.5297   -3.3976  -15.5930 O   0  0  0  0  0  0  0  0  0  0  0  0
   20.5172   -2.5239  -17.4236 O   0  0  0  0  0  0  0  0  0  0  0  0
  2  1  1  0
  3  2  2  0
  4  3  1  0
  5 11  1  0
  5  4  2  0
  6  7  1  0
  6  5  1  0
  7  9  1  0
  7  8  1  1
  9 17  1  0
 10  9  2  0
 11 12  2  0
 12  2  1  0
 14 13  1  1
 15 14  1  0
 16 18  1  0
 16 14  1  0
 16 17  1  6
 18 26  1  0
 19 18  2  0
 20 21  1  0
 21 23  1  0
 21 22  2  0
 23 24  1  0
 25 24  1  1
 25 27  1  0
 26 25  1  0
 27 29  2  0
 27 28  1  0
M  END
$$$$
