TQA.pdb
     RDKit          3D

 22 21  0  0  1  0  0  0  0  0999 V2000
    9.1280  -13.1418   20.7601 C   0  0  0  0  0  0  0  0  0  0  0  0
    8.0995  -13.5631   19.7362 C   0  0  1  0  0  0  0  0  0  0  0  0
    8.6318  -13.5434   18.4549 O   0  0  0  0  0  0  0  0  0  0  0  0
    7.6227  -14.9447   20.0985 C   0  0  2  0  0  0  0  0  0  0  0  0
    6.7076  -15.4696   19.1212 N   0  0  0  0  0  0  0  0  0  0  0  0
    7.0282  -14.9798   21.4641 C   0  0  0  0  0  0  0  0  0  0  0  0
    5.9156  -14.4104   21.7030 O   0  0  0  0  0  0  0  0  0  0  0  0
    6.3511  -19.8443   24.5547 N   0  0  0  0  0  0  0  0  0  0  0  0
    7.6499  -19.3769   24.8557 C   0  0  0  0  0  0  0  0  0  0  0  0
    8.4758  -20.1698   25.3448 O   0  0  0  0  0  0  0  0  0  0  0  0
    7.9989  -17.9499   24.5811 C   0  0  0  0  0  0  0  0  0  0  0  0
    6.8189  -17.1992   24.0186 C   0  0  0  0  0  0  0  0  0  0  0  0
    7.1813  -15.7681   23.8155 C   0  0  2  0  0  0  0  0  0  0  0  0
    7.7348  -15.6604   22.4759 N   0  0  0  0  0  0  0  0  0  0  0  0
    8.1418  -15.2015   24.7632 C   0  0  0  0  0  0  0  0  0  0  0  0
    9.4031  -15.3335   24.7013 O   0  0  0  0  0  0  0  0  0  0  0  0
    7.8051  -12.7875   27.6989 C   0  0  0  0  0  0  0  0  0  0  0  0
    8.4974  -13.8114   26.8471 C   0  0  2  0  0  0  0  0  0  0  0  0
    7.6367  -14.4240   25.8687 N   0  0  0  0  0  0  0  0  0  0  0  0
    9.1813  -14.8185   27.6688 C   0  0  0  0  0  0  0  0  0  0  0  0
    8.7812  -16.0272   27.6149 O   0  0  0  0  0  0  0  0  0  0  0  0
   10.2353  -14.4909   28.4887 O   0  0  0  0  0  0  0  0  0  0  0  0
  2  4  1  0
  2  1  1  1
  3  2  1  0
  4  5  1  6
  6  4  1  0
  6 14  1  0
  7  6  2  0
  8  9  1  0
  9 11  1  0
 10  9  2  0
 11 12  1  0
 13 12  1  1
 13 14  1  0
 15 13  1  0
 16 15  2  0
 18 19  1  0
 18 17  1  1
 19 15  1  0
 20 18  1  0
 21 20  2  0
 22 20  1  0
M  END
$$$$
