TQA.pdb
     RDKit          3D

 22 21  0  0  1  0  0  0  0  0999 V2000
    8.4489  -12.8802   19.2115 C   0  0  0  0  0  0  0  0  0  0  0  0
    8.5588  -13.3515   20.6430 C   0  0  1  0  0  0  0  0  0  0  0  0
    7.9409  -12.4629   21.5113 O   0  0  0  0  0  0  0  0  0  0  0  0
    7.9280  -14.7159   20.7323 C   0  0  2  0  0  0  0  0  0  0  0  0
    6.5553  -14.7012   20.3036 N   0  0  0  0  0  0  0  0  0  0  0  0
    8.0572  -15.2922   22.1001 C   0  0  0  0  0  0  0  0  0  0  0  0
    7.0589  -15.3238   22.8885 O   0  0  0  0  0  0  0  0  0  0  0  0
   10.2823  -20.2844   23.6977 N   0  0  0  0  0  0  0  0  0  0  0  0
   10.6538  -19.6425   24.9003 C   0  0  0  0  0  0  0  0  0  0  0  0
   10.8402  -20.3345   25.9183 O   0  0  0  0  0  0  0  0  0  0  0  0
   10.8130  -18.1567   24.9209 C   0  0  0  0  0  0  0  0  0  0  0  0
   10.4554  -17.5521   23.5871 C   0  0  0  0  0  0  0  0  0  0  0  0
    9.4806  -16.4418   23.7811 C   0  0  2  0  0  0  0  0  0  0  0  0
    9.3139  -15.7978   22.4889 N   0  0  0  0  0  0  0  0  0  0  0  0
    9.8461  -15.4226   24.7657 C   0  0  0  0  0  0  0  0  0  0  0  0
   10.8842  -14.6930   24.7200 O   0  0  0  0  0  0  0  0  0  0  0  0
    8.0445  -13.4176   27.3004 C   0  0  0  0  0  0  0  0  0  0  0  0
    9.2410  -14.2400   26.9191 C   0  0  2  0  0  0  0  0  0  0  0  0
    8.9687  -15.2112   25.8915 N   0  0  0  0  0  0  0  0  0  0  0  0
    9.8618  -14.8611   28.0964 C   0  0  0  0  0  0  0  0  0  0  0  0
    9.9623  -16.1309   28.1375 O   0  0  0  0  0  0  0  0  0  0  0  0
   10.3338  -14.1110   29.1475 O   0  0  0  0  0  0  0  0  0  0  0  0
  2  4  1  0
  2  1  1  6
  3  2  1  0
  4  5  1  1
  6  4  1  0
  6 14  1  0
  7  6  2  0
  8  9  1  0
  9 11  1  0
 10  9  2  0
 11 12  1  0
 13 12  1  6
 13 14  1  0
 15 13  1  0
 16 15  2  0
 18 19  1  0
 18 17  1  1
 19 15  1  0
 20 18  1  0
 21 20  2  0
 22 20  1  0
M  END
$$$$
