TQA.pdb
     RDKit          3D

 22 21  0  0  1  0  0  0  0  0999 V2000
    8.7046  -12.3046   19.5825 C   0  0  0  0  0  0  0  0  0  0  0  0
    7.8019  -13.1038   18.6715 C   0  0  1  0  0  0  0  0  0  0  0  0
    6.8787  -12.2846   18.0376 O   0  0  0  0  0  0  0  0  0  0  0  0
    8.6688  -13.8145   17.6661 C   0  0  2  0  0  0  0  0  0  0  0  0
    7.8865  -14.5071   16.6780 N   0  0  0  0  0  0  0  0  0  0  0  0
    9.6350  -14.7354   18.3279 C   0  0  0  0  0  0  0  0  0  0  0  0
    9.3302  -15.9521   18.5421 O   0  0  0  0  0  0  0  0  0  0  0  0
   15.7518  -13.6753   18.2065 N   0  0  0  0  0  0  0  0  0  0  0  0
   15.6790  -14.7748   19.0908 C   0  0  0  0  0  0  0  0  0  0  0  0
   16.7348  -15.2455   19.5531 O   0  0  0  0  0  0  0  0  0  0  0  0
   14.3436  -15.3429   19.4479 C   0  0  0  0  0  0  0  0  0  0  0  0
   13.2276  -14.5452   18.8227 C   0  0  0  0  0  0  0  0  0  0  0  0
   11.9113  -15.0914   19.2583 C   0  0  2  0  0  0  0  0  0  0  0  0
   10.8898  -14.2172   18.7063 N   0  0  0  0  0  0  0  0  0  0  0  0
   11.7002  -15.2005   20.7023 C   0  0  0  0  0  0  0  0  0  0  0  0
   11.8410  -14.2574   21.5407 O   0  0  0  0  0  0  0  0  0  0  0  0
   10.0729  -17.7657   22.9430 C   0  0  0  0  0  0  0  0  0  0  0  0
   11.0823  -16.6943   22.6487 C   0  0  2  0  0  0  0  0  0  0  0  0
   11.2981  -16.4769   21.2417 N   0  0  0  0  0  0  0  0  0  0  0  0
   12.3460  -16.9395   23.3558 C   0  0  0  0  0  0  0  0  0  0  0  0
   12.3216  -17.0822   24.6220 O   0  0  0  0  0  0  0  0  0  0  0  0
   13.5460  -17.0183   22.6894 O   0  0  0  0  0  0  0  0  0  0  0  0
  2  4  1  0
  2  1  1  1
  3  2  1  0
  4  5  1  6
  6  4  1  0
  6 14  1  0
  7  6  2  0
  8  9  1  0
  9 11  1  0
 10  9  2  0
 11 12  1  0
 13 12  1  1
 13 14  1  0
 15 13  1  0
 16 15  2  0
 18 19  1  0
 18 17  1  6
 19 15  1  0
 20 18  1  0
 21 20  2  0
 22 20  1  0
M  END
$$$$
