TQA.pdb
     RDKit          3D

 22 21  0  0  1  0  0  0  0  0999 V2000
    8.2120  -12.8936   19.5579 C   0  0  0  0  0  0  0  0  0  0  0  0
    7.7479  -13.7994   18.4409 C   0  0  1  0  0  0  0  0  0  0  0  0
    6.7922  -13.1736   17.6534 O   0  0  0  0  0  0  0  0  0  0  0  0
    8.9525  -14.1810   17.6218 C   0  0  2  0  0  0  0  0  0  0  0  0
    8.5880  -14.9244   16.4460 N   0  0  0  0  0  0  0  0  0  0  0  0
    9.9573  -14.9216   18.4352 C   0  0  0  0  0  0  0  0  0  0  0  0
    9.9454  -16.1932   18.4818 O   0  0  0  0  0  0  0  0  0  0  0  0
   15.7085  -14.3954   20.5357 N   0  0  0  0  0  0  0  0  0  0  0  0
   15.2922  -14.2403   19.1945 C   0  0  0  0  0  0  0  0  0  0  0  0
   16.1408  -14.3269   18.2877 O   0  0  0  0  0  0  0  0  0  0  0  0
   13.8510  -13.9774   18.8986 C   0  0  0  0  0  0  0  0  0  0  0  0
   13.0346  -13.9318   20.1651 C   0  0  0  0  0  0  0  0  0  0  0  0
   11.8543  -14.8325   20.0375 C   0  0  2  0  0  0  0  0  0  0  0  0
   10.9152  -14.1716   19.1466 N   0  0  0  0  0  0  0  0  0  0  0  0
   11.1587  -15.1700   21.2801 C   0  0  0  0  0  0  0  0  0  0  0  0
   10.4284  -14.3793   21.9536 O   0  0  0  0  0  0  0  0  0  0  0  0
    9.4262  -17.6531   22.9134 C   0  0  0  0  0  0  0  0  0  0  0  0
   10.7261  -16.9167   23.0587 C   0  0  2  0  0  0  0  0  0  0  0  0
   11.2998  -16.5073   21.8031 N   0  0  0  0  0  0  0  0  0  0  0  0
   11.6869  -17.6791   23.8668 C   0  0  0  0  0  0  0  0  0  0  0  0
   12.7762  -18.0597   23.3257 O   0  0  0  0  0  0  0  0  0  0  0  0
   11.4410  -17.9899   25.1833 O   0  0  0  0  0  0  0  0  0  0  0  0
  2  4  1  0
  2  1  1  1
  3  2  1  0
  4  5  1  6
  6  4  1  0
  6 14  1  0
  7  6  2  0
  8  9  1  0
  9 11  1  0
 10  9  2  0
 11 12  1  0
 13 12  1  1
 13 14  1  0
 15 13  1  0
 16 15  2  0
 18 19  1  0
 18 17  1  6
 19 15  1  0
 20 18  1  0
 21 20  2  0
 22 20  1  0
M  END
$$$$
