TQA.pdb
     RDKit          3D

 22 21  0  0  1  0  0  0  0  0999 V2000
    8.4528  -12.4574   19.3771 C   0  0  0  0  0  0  0  0  0  0  0  0
    7.6417  -13.3940   18.5119 C   0  0  1  0  0  0  0  0  0  0  0  0
    6.6939  -12.6992   17.7743 O   0  0  0  0  0  0  0  0  0  0  0  0
    8.5931  -14.1302   17.6062 C   0  0  2  0  0  0  0  0  0  0  0  0
    7.8978  -14.9371   16.6401 N   0  0  0  0  0  0  0  0  0  0  0  0
    9.5705  -14.9443   18.3819 C   0  0  0  0  0  0  0  0  0  0  0  0
    9.3141  -16.1537   18.6831 O   0  0  0  0  0  0  0  0  0  0  0  0
   15.6333  -13.5512   18.8294 N   0  0  0  0  0  0  0  0  0  0  0  0
   15.5102  -14.6145   19.7517 C   0  0  0  0  0  0  0  0  0  0  0  0
   16.5334  -15.0388   20.3199 O   0  0  0  0  0  0  0  0  0  0  0  0
   14.1621  -15.2006   20.0211 C   0  0  0  0  0  0  0  0  0  0  0  0
   13.0961  -14.5109   19.2084 C   0  0  0  0  0  0  0  0  0  0  0  0
   11.7581  -15.0691   19.5533 C   0  0  2  0  0  0  0  0  0  0  0  0
   10.7806  -14.3339   18.7682 N   0  0  0  0  0  0  0  0  0  0  0  0
   11.3704  -15.0003   20.9628 C   0  0  0  0  0  0  0  0  0  0  0  0
   10.9853  -13.9542   21.5706 O   0  0  0  0  0  0  0  0  0  0  0  0
    9.6491  -16.7431   23.3690 C   0  0  0  0  0  0  0  0  0  0  0  0
   11.0487  -16.2524   23.1378 C   0  0  2  0  0  0  0  0  0  0  0  0
   11.4220  -16.2099   21.7477 N   0  0  0  0  0  0  0  0  0  0  0  0
   12.0216  -17.0120   23.9337 C   0  0  0  0  0  0  0  0  0  0  0  0
   12.9160  -17.6870   23.3265 O   0  0  0  0  0  0  0  0  0  0  0  0
   11.9909  -17.0125   25.3083 O   0  0  0  0  0  0  0  0  0  0  0  0
  2  4  1  0
  2  1  1  6
  3  2  1  0
  4  5  1  6
  6  4  1  0
  6 14  1  0
  7  6  2  0
  8  9  1  0
  9 11  1  0
 10  9  2  0
 11 12  1  0
 13 12  1  1
 13 14  1  0
 15 13  1  0
 16 15  2  0
 18 19  1  0
 18 17  1  6
 19 15  1  0
 20 18  1  0
 21 20  2  0
 22 20  1  0
M  END
$$$$
