TQA.pdb
     RDKit          3D

 22 21  0  0  1  0  0  0  0  0999 V2000
    8.8615  -12.7363   18.4877 C   0  0  0  0  0  0  0  0  0  0  0  0
    8.5945  -13.1290   19.9223 C   0  0  1  0  0  0  0  0  0  0  0  0
    7.5821  -12.3560   20.4726 O   0  0  0  0  0  0  0  0  0  0  0  0
    8.2270  -14.5892   19.9431 C   0  0  2  0  0  0  0  0  0  0  0  0
    7.1311  -14.8791   19.0582 N   0  0  0  0  0  0  0  0  0  0  0  0
    7.9403  -15.0635   21.3261 C   0  0  0  0  0  0  0  0  0  0  0  0
    6.7423  -15.2432   21.7158 O   0  0  0  0  0  0  0  0  0  0  0  0
   11.5454  -18.9694   24.2893 N   0  0  0  0  0  0  0  0  0  0  0  0
   10.6785  -18.5851   25.3367 C   0  0  0  0  0  0  0  0  0  0  0  0
   10.7473  -19.1859   26.4249 O   0  0  0  0  0  0  0  0  0  0  0  0
    9.7054  -17.4729   25.1140 C   0  0  0  0  0  0  0  0  0  0  0  0
    9.7990  -16.9411   23.7066 C   0  0  0  0  0  0  0  0  0  0  0  0
    8.8183  -15.8349   23.5186 C   0  0  2  0  0  0  0  0  0  0  0  0
    9.0331  -15.3048   22.1825 N   0  0  0  0  0  0  0  0  0  0  0  0
    8.8952  -14.7304   24.4758 C   0  0  0  0  0  0  0  0  0  0  0  0
    9.8833  -13.9457   24.6172 O   0  0  0  0  0  0  0  0  0  0  0  0
    6.3247  -12.8819   26.5169 C   0  0  0  0  0  0  0  0  0  0  0  0
    7.7137  -13.3956   26.2713 C   0  0  2  0  0  0  0  0  0  0  0  0
    7.7656  -14.4942   25.3418 N   0  0  0  0  0  0  0  0  0  0  0  0
    8.3947  -13.7230   27.5307 C   0  0  0  0  0  0  0  0  0  0  0  0
    8.7358  -14.9318   27.7463 O   0  0  0  0  0  0  0  0  0  0  0  0
    8.6711  -12.7635   28.4759 O   0  0  0  0  0  0  0  0  0  0  0  0
  2  4  1  0
  2  1  1  6
  3  2  1  0
  4  5  1  6
  6  4  1  0
  6 14  1  0
  7  6  2  0
  8  9  1  0
  9 11  1  0
 10  9  2  0
 11 12  1  0
 13 12  1  1
 13 14  1  0
 15 13  1  0
 16 15  2  0
 18 19  1  0
 18 17  1  1
 19 15  1  0
 20 18  1  0
 21 20  2  0
 22 20  1  0
M  END
$$$$
