TQA.pdb
     RDKit          3D

 22 21  0  0  1  0  0  0  0  0999 V2000
    9.1768  -21.5219   20.7921 C   0  0  0  0  0  0  0  0  0  0  0  0
    9.5529  -20.2551   20.0590 C   0  0  1  0  0  0  0  0  0  0  0  0
    8.7588  -20.0723   18.9359 O   0  0  0  0  0  0  0  0  0  0  0  0
    9.4025  -19.1026   21.0164 C   0  0  2  0  0  0  0  0  0  0  0  0
    9.3524  -17.8392   20.3313 N   0  0  0  0  0  0  0  0  0  0  0  0
   10.4709  -19.1084   22.0548 C   0  0  0  0  0  0  0  0  0  0  0  0
   10.8198  -20.1928   22.6217 O   0  0  0  0  0  0  0  0  0  0  0  0
   14.6094  -14.5068   22.4764 N   0  0  0  0  0  0  0  0  0  0  0  0
   14.5619  -15.5515   21.5264 C   0  0  0  0  0  0  0  0  0  0  0  0
   15.2378  -15.4491   20.4859 O   0  0  0  0  0  0  0  0  0  0  0  0
   13.7060  -16.7475   21.7922 C   0  0  0  0  0  0  0  0  0  0  0  0
   12.9336  -16.5897   23.0771 C   0  0  0  0  0  0  0  0  0  0  0  0
   12.1590  -17.8318   23.3563 C   0  0  2  0  0  0  0  0  0  0  0  0
   11.0782  -17.8805   22.3858 N   0  0  0  0  0  0  0  0  0  0  0  0
   11.5862  -17.9511   24.6977 C   0  0  0  0  0  0  0  0  0  0  0  0
   10.7972  -17.1164   25.2387 O   0  0  0  0  0  0  0  0  0  0  0  0
   11.4722  -20.6965   27.3109 C   0  0  0  0  0  0  0  0  0  0  0  0
   11.5112  -19.2658   26.8582 C   0  0  2  0  0  0  0  0  0  0  0  0
   11.9329  -19.1056   25.4908 N   0  0  0  0  0  0  0  0  0  0  0  0
   12.3111  -18.4368   27.7692 C   0  0  0  0  0  0  0  0  0  0  0  0
   13.3006  -17.7873   27.2967 O   0  0  0  0  0  0  0  0  0  0  0  0
   12.0203  -18.3452   29.1099 O   0  0  0  0  0  0  0  0  0  0  0  0
  2  4  1  0
  2  1  1  1
  3  2  1  0
  4  5  1  6
  6  4  1  0
  6 14  1  0
  7  6  2  0
  8  9  1  0
  9 11  1  0
 10  9  2  0
 11 12  1  0
 13 12  1  1
 13 14  1  0
 15 13  1  0
 16 15  2  0
 18 19  1  0
 18 17  1  1
 19 15  1  0
 20 18  1  0
 21 20  2  0
 22 20  1  0
M  END
$$$$
