TQA.pdb
     RDKit          3D

 22 21  0  0  1  0  0  0  0  0999 V2000
    8.3216  -12.2826   19.3388 C   0  0  0  0  0  0  0  0  0  0  0  0
    7.5571  -13.2239   18.4372 C   0  0  1  0  0  0  0  0  0  0  0  0
    6.5681  -12.5508   17.7344 O   0  0  0  0  0  0  0  0  0  0  0  0
    8.5412  -13.8673   17.4964 C   0  0  2  0  0  0  0  0  0  0  0  0
    7.8817  -14.5961   16.4466 N   0  0  0  0  0  0  0  0  0  0  0  0
    9.5107  -14.7335   18.2241 C   0  0  0  0  0  0  0  0  0  0  0  0
    9.3108  -15.9857   18.3297 O   0  0  0  0  0  0  0  0  0  0  0  0
   15.5477  -13.7628   17.9378 N   0  0  0  0  0  0  0  0  0  0  0  0
   15.4573  -14.5732   19.0915 C   0  0  0  0  0  0  0  0  0  0  0  0
   16.4820  -14.7676   19.7715 O   0  0  0  0  0  0  0  0  0  0  0  0
   14.1411  -15.1741   19.4656 C   0  0  0  0  0  0  0  0  0  0  0  0
   12.9965  -14.3809   18.8884 C   0  0  0  0  0  0  0  0  0  0  0  0
   11.7020  -14.9329   19.3783 C   0  0  2  0  0  0  0  0  0  0  0  0
   10.6491  -14.1234   18.7879 N   0  0  0  0  0  0  0  0  0  0  0  0
   11.5140  -14.9550   20.8295 C   0  0  0  0  0  0  0  0  0  0  0  0
   11.7168  -13.9770   21.6135 O   0  0  0  0  0  0  0  0  0  0  0  0
    9.7785  -17.3375   23.1957 C   0  0  0  0  0  0  0  0  0  0  0  0
   10.8014  -16.2930   22.8552 C   0  0  2  0  0  0  0  0  0  0  0  0
   11.0610  -16.1796   21.4435 N   0  0  0  0  0  0  0  0  0  0  0  0
   12.0417  -16.4888   23.6170 C   0  0  0  0  0  0  0  0  0  0  0  0
   13.1109  -16.7725   22.9841 O   0  0  0  0  0  0  0  0  0  0  0  0
   12.0769  -16.3743   24.9867 O   0  0  0  0  0  0  0  0  0  0  0  0
  2  4  1  0
  2  1  1  1
  3  2  1  0
  4  5  1  6
  6  4  1  0
  6 14  1  0
  7  6  2  0
  8  9  1  0
  9 11  1  0
 10  9  2  0
 11 12  1  0
 13 12  1  1
 13 14  1  0
 15 13  1  0
 16 15  2  0
 18 19  1  0
 18 17  1  6
 19 15  1  0
 20 18  1  0
 21 20  2  0
 22 20  1  0
M  END
$$$$
