TQA.pdb
     RDKit          3D

 22 21  0  0  1  0  0  0  0  0999 V2000
    8.6967  -12.6155   20.5758 C   0  0  0  0  0  0  0  0  0  0  0  0
    7.8686  -13.4620   19.6371 C   0  0  1  0  0  0  0  0  0  0  0  0
    8.1776  -13.1886   18.3123 O   0  0  0  0  0  0  0  0  0  0  0  0
    8.1314  -14.9086   19.9624 C   0  0  2  0  0  0  0  0  0  0  0  0
    7.4764  -15.7938   19.0375 N   0  0  0  0  0  0  0  0  0  0  0  0
    7.7605  -15.2312   21.3688 C   0  0  0  0  0  0  0  0  0  0  0  0
    6.5453  -15.4268   21.6915 O   0  0  0  0  0  0  0  0  0  0  0  0
   11.3437  -18.4265   25.1353 N   0  0  0  0  0  0  0  0  0  0  0  0
   10.3816  -17.9465   26.0518 C   0  0  0  0  0  0  0  0  0  0  0  0
   10.4429  -18.3192   27.2381 O   0  0  0  0  0  0  0  0  0  0  0  0
    9.3194  -17.0081   25.5775 C   0  0  0  0  0  0  0  0  0  0  0  0
    9.4854  -16.6934   24.1126 C   0  0  0  0  0  0  0  0  0  0  0  0
    8.4959  -15.6569   23.7037 C   0  0  2  0  0  0  0  0  0  0  0  0
    8.7939  -15.3121   22.3236 N   0  0  0  0  0  0  0  0  0  0  0  0
    8.4789  -14.4276   24.4975 C   0  0  0  0  0  0  0  0  0  0  0  0
    9.4447  -13.6114   24.6124 O   0  0  0  0  0  0  0  0  0  0  0  0
    5.7188  -12.5029   26.2694 C   0  0  0  0  0  0  0  0  0  0  0  0
    7.1435  -12.8928   26.0018 C   0  0  2  0  0  0  0  0  0  0  0  0
    7.2746  -14.0942   25.2190 N   0  0  0  0  0  0  0  0  0  0  0  0
    7.9201  -12.9730   27.2458 C   0  0  0  0  0  0  0  0  0  0  0  0
    8.4048  -14.0992   27.5937 O   0  0  0  0  0  0  0  0  0  0  0  0
    8.1352  -11.8703   28.0384 O   0  0  0  0  0  0  0  0  0  0  0  0
  2  4  1  0
  2  1  1  1
  3  2  1  0
  4  5  1  6
  6  4  1  0
  6 14  1  0
  7  6  2  0
  8  9  1  0
  9 11  1  0
 10  9  2  0
 11 12  1  0
 13 12  1  1
 13 14  1  0
 15 13  1  0
 16 15  2  0
 18 19  1  0
 18 17  1  1
 19 15  1  0
 20 18  1  0
 21 20  2  0
 22 20  1  0
M  END
$$$$
