TQA.pdb
     RDKit          3D

 22 21  0  0  1  0  0  0  0  0999 V2000
    9.0734  -19.5345   13.9346 C   0  0  0  0  0  0  0  0  0  0  0  0
    8.6418  -18.0912   13.8151 C   0  0  1  0  0  0  0  0  0  0  0  0
    8.8300  -17.6179   12.5245 O   0  0  0  0  0  0  0  0  0  0  0  0
    7.1919  -18.0059   14.2124 C   0  0  2  0  0  0  0  0  0  0  0  0
    6.6124  -16.7383   13.8578 N   0  0  0  0  0  0  0  0  0  0  0  0
    7.0015  -18.2967   15.6612 C   0  0  0  0  0  0  0  0  0  0  0  0
    7.4379  -17.4947   16.5475 O   0  0  0  0  0  0  0  0  0  0  0  0
    2.5288  -21.0123   18.2576 N   0  0  0  0  0  0  0  0  0  0  0  0
    3.4892  -21.3500   19.2373 C   0  0  0  0  0  0  0  0  0  0  0  0
    3.1059  -21.5900   20.3972 O   0  0  0  0  0  0  0  0  0  0  0  0
    4.9338  -21.4107   18.8594 C   0  0  0  0  0  0  0  0  0  0  0  0
    5.1447  -20.9529   17.4387 C   0  0  0  0  0  0  0  0  0  0  0  0
    6.1082  -19.8164   17.4123 C   0  0  2  0  0  0  0  0  0  0  0  0
    6.3263  -19.4821   16.0147 N   0  0  0  0  0  0  0  0  0  0  0  0
    7.4076  -20.0530   18.0427 C   0  0  0  0  0  0  0  0  0  0  0  0
    8.3549  -20.7356   17.5440 O   0  0  0  0  0  0  0  0  0  0  0  0
    9.1633  -18.5176   21.0350 C   0  0  0  0  0  0  0  0  0  0  0  0
    8.9195  -19.5957   20.0193 C   0  0  2  0  0  0  0  0  0  0  0  0
    7.6560  -19.4720   19.3399 N   0  0  0  0  0  0  0  0  0  0  0  0
    9.0876  -20.9321   20.6050 C   0  0  0  0  0  0  0  0  0  0  0  0
   10.2390  -21.2735   21.0313 O   0  0  0  0  0  0  0  0  0  0  0  0
    8.0401  -21.8171   20.7036 O   0  0  0  0  0  0  0  0  0  0  0  0
  2  4  1  0
  2  1  1  6
  3  2  1  0
  4  5  1  1
  6  4  1  0
  6 14  1  0
  7  6  2  0
  8  9  1  0
  9 11  1  0
 10  9  2  0
 11 12  1  0
 13 12  1  6
 13 14  1  0
 15 13  1  0
 16 15  2  0
 18 19  1  0
 18 17  1  1
 19 15  1  0
 20 18  1  0
 21 20  2  0
 22 20  1  0
M  END
$$$$
