TQA.pdb
     RDKit          3D

 22 21  0  0  1  0  0  0  0  0999 V2000
    9.0122  -12.5766   19.5264 C   0  0  0  0  0  0  0  0  0  0  0  0
    8.0879  -13.2210   18.5195 C   0  0  1  0  0  0  0  0  0  0  0  0
    8.0365  -12.4847   17.3446 O   0  0  0  0  0  0  0  0  0  0  0  0
    8.5880  -14.6168   18.2570 C   0  0  2  0  0  0  0  0  0  0  0  0
    7.8626  -15.2551   17.1919 N   0  0  0  0  0  0  0  0  0  0  0  0
    8.5690  -15.4484   19.4931 C   0  0  0  0  0  0  0  0  0  0  0  0
    7.4876  -15.9805   19.9013 O   0  0  0  0  0  0  0  0  0  0  0  0
   12.4278  -20.2371   21.4010 N   0  0  0  0  0  0  0  0  0  0  0  0
   12.4722  -19.0925   22.2282 C   0  0  0  0  0  0  0  0  0  0  0  0
   13.5319  -18.8212   22.8226 O   0  0  0  0  0  0  0  0  0  0  0  0
   11.2528  -18.2400   22.3685 C   0  0  0  0  0  0  0  0  0  0  0  0
   11.0715  -17.3469   21.1676 C   0  0  0  0  0  0  0  0  0  0  0  0
    9.8473  -16.5144   21.3378 C   0  0  2  0  0  0  0  0  0  0  0  0
    9.7809  -15.6246   20.1905 N   0  0  0  0  0  0  0  0  0  0  0  0
    9.7757  -15.7081   22.5572 C   0  0  0  0  0  0  0  0  0  0  0  0
   10.5148  -14.7113   22.8255 O   0  0  0  0  0  0  0  0  0  0  0  0
    7.0981  -15.0219   25.0088 C   0  0  0  0  0  0  0  0  0  0  0  0
    8.5535  -15.2568   24.7261 C   0  0  2  0  0  0  0  0  0  0  0  0
    8.7905  -16.0563   23.5521 N   0  0  0  0  0  0  0  0  0  0  0  0
    9.2460  -15.8047   25.8997 C   0  0  0  0  0  0  0  0  0  0  0  0
    9.8041  -16.9464   25.8039 O   0  0  0  0  0  0  0  0  0  0  0  0
    9.3063  -15.1204   27.0907 O   0  0  0  0  0  0  0  0  0  0  0  0
  2  4  1  0
  2  1  1  1
  3  2  1  0
  4  5  1  6
  6  4  1  0
  6 14  1  0
  7  6  2  0
  8  9  1  0
  9 11  1  0
 10  9  2  0
 11 12  1  0
 13 12  1  1
 13 14  1  0
 15 13  1  0
 16 15  2  0
 18 19  1  0
 18 17  1  1
 19 15  1  0
 20 18  1  0
 21 20  2  0
 22 20  1  0
M  END
$$$$
