TQA.pdb
     RDKit          3D

 22 21  0  0  1  0  0  0  0  0999 V2000
    8.7606  -12.8963   20.3730 C   0  0  0  0  0  0  0  0  0  0  0  0
    7.9896  -13.7460   19.3895 C   0  0  1  0  0  0  0  0  0  0  0  0
    8.5568  -13.6864   18.1246 O   0  0  0  0  0  0  0  0  0  0  0  0
    7.9783  -15.1601   19.9069 C   0  0  2  0  0  0  0  0  0  0  0  0
    7.3441  -16.0634   18.9849 N   0  0  0  0  0  0  0  0  0  0  0  0
    7.3546  -15.2457   21.2572 C   0  0  0  0  0  0  0  0  0  0  0  0
    6.1035  -15.0684   21.4072 O   0  0  0  0  0  0  0  0  0  0  0  0
    8.6940  -19.5139   25.1974 N   0  0  0  0  0  0  0  0  0  0  0  0
    8.0396  -18.6207   26.0750 C   0  0  0  0  0  0  0  0  0  0  0  0
    7.7850  -18.9957   27.2346 O   0  0  0  0  0  0  0  0  0  0  0  0
    7.6711  -17.2551   25.5926 C   0  0  0  0  0  0  0  0  0  0  0  0
    8.0883  -17.0532   24.1582 C   0  0  0  0  0  0  0  0  0  0  0  0
    7.6267  -15.7190   23.6812 C   0  0  2  0  0  0  0  0  0  0  0  0
    8.1913  -15.5278   22.3556 N   0  0  0  0  0  0  0  0  0  0  0  0
    7.9914  -14.5712   24.5127 C   0  0  0  0  0  0  0  0  0  0  0  0
    9.1503  -14.0588   24.5935 O   0  0  0  0  0  0  0  0  0  0  0  0
    6.0342  -12.1299   26.6821 C   0  0  0  0  0  0  0  0  0  0  0  0
    7.2458  -12.9182   26.2771 C   0  0  2  0  0  0  0  0  0  0  0  0
    6.9648  -13.9536   25.3167 N   0  0  0  0  0  0  0  0  0  0  0  0
    7.9567  -13.4481   27.4480 C   0  0  0  0  0  0  0  0  0  0  0  0
    8.0546  -14.7113   27.5851 O   0  0  0  0  0  0  0  0  0  0  0  0
    8.5150  -12.6200   28.3929 O   0  0  0  0  0  0  0  0  0  0  0  0
  2  4  1  0
  2  1  1  1
  3  2  1  0
  4  5  1  6
  6  4  1  0
  6 14  1  0
  7  6  2  0
  8  9  1  0
  9 11  1  0
 10  9  2  0
 11 12  1  0
 13 12  1  1
 13 14  1  0
 15 13  1  0
 16 15  2  0
 18 19  1  0
 18 17  1  1
 19 15  1  0
 20 18  1  0
 21 20  2  0
 22 20  1  0
M  END
$$$$
