TQA.pdb
     RDKit          3D

 22 21  0  0  1  0  0  0  0  0999 V2000
   -3.2456  -21.4345   26.3189 C   0  0  0  0  0  0  0  0  0  0  0  0
   -2.9795  -22.4078   25.1940 C   0  0  1  0  0  0  0  0  0  0  0  0
   -1.9087  -21.9923   24.4156 O   0  0  0  0  0  0  0  0  0  0  0  0
   -2.7089  -23.7582   25.8028 C   0  0  2  0  0  0  0  0  0  0  0  0
   -2.2921  -24.7177   24.8160 N   0  0  0  0  0  0  0  0  0  0  0  0
   -3.8811  -24.2572   26.5752 C   0  0  0  0  0  0  0  0  0  0  0  0
   -4.7920  -24.9389   26.0052 O   0  0  0  0  0  0  0  0  0  0  0  0
   -3.5203  -26.7371   31.9105 N   0  0  0  0  0  0  0  0  0  0  0  0
   -3.6242  -27.3445   30.6391 C   0  0  0  0  0  0  0  0  0  0  0  0
   -3.2636  -28.5288   30.5074 O   0  0  0  0  0  0  0  0  0  0  0  0
   -4.1615  -26.5549   29.4896 C   0  0  0  0  0  0  0  0  0  0  0  0
   -4.5060  -25.1485   29.9088 C   0  0  0  0  0  0  0  0  0  0  0  0
   -5.0727  -24.4010   28.7508 C   0  0  2  0  0  0  0  0  0  0  0  0
   -3.9470  -23.9508   27.9492 N   0  0  0  0  0  0  0  0  0  0  0  0
   -5.9081  -23.2432   29.0723 C   0  0  0  0  0  0  0  0  0  0  0  0
   -5.5033  -22.1729   29.6224 O   0  0  0  0  0  0  0  0  0  0  0  0
   -9.5692  -22.3939   28.3681 C   0  0  0  0  0  0  0  0  0  0  0  0
   -8.2087  -22.1952   28.9705 C   0  0  2  0  0  0  0  0  0  0  0  0
   -7.3125  -23.2996   28.7462 N   0  0  0  0  0  0  0  0  0  0  0  0
   -8.2982  -21.8552   30.3965 C   0  0  0  0  0  0  0  0  0  0  0  0
   -8.0877  -22.7699   31.2586 O   0  0  0  0  0  0  0  0  0  0  0  0
   -8.6015  -20.5830   30.8207 O   0  0  0  0  0  0  0  0  0  0  0  0
  2  4  1  0
  2  1  1  1
  3  2  1  0
  4  5  1  6
  6  4  1  0
  6 14  1  0
  7  6  2  0
  8  9  1  0
  9 11  1  0
 10  9  2  0
 11 12  1  0
 13 12  1  1
 13 14  1  0
 15 13  1  0
 16 15  2  0
 18 19  1  0
 18 17  1  1
 19 15  1  0
 20 18  1  0
 21 20  2  0
 22 20  1  0
M  END
$$$$
