DKD.pdb
     RDKit          3D

 26 25  0  0  1  0  0  0  0  0999 V2000
   25.6211  -19.8878   -9.3612 N   0  0  0  0  0  0  0  0  0  0  0  0
   24.7409  -20.5915  -10.2246 C   0  0  1  0  0  0  0  0  0  0  0  0
   23.2907  -20.4479   -9.8999 C   0  0  0  0  0  0  0  0  0  0  0  0
   22.9644  -20.8769   -8.5173 C   0  0  0  0  0  0  0  0  0  0  0  0
   22.3594  -20.1159   -7.7254 O   0  0  0  0  0  0  0  0  0  0  0  0
   24.9639  -20.1456  -11.6230 C   0  0  0  0  0  0  0  0  0  0  0  0
   24.7013  -18.9685  -11.9760 O   0  0  0  0  0  0  0  0  0  0  0  0
   23.3303  -22.1336   -8.0896 O   0  0  0  0  0  0  0  0  0  0  0  0
   25.4782  -21.0687  -12.5537 N   0  0  0  0  0  0  0  0  0  0  0  0
   25.7156  -20.7235  -13.9462 C   0  0  1  0  0  0  0  0  0  0  0  0
   26.7360  -21.6347  -14.5738 C   0  0  0  0  0  0  0  0  0  0  0  0
   26.9991  -21.2894  -16.0197 C   0  0  0  0  0  0  0  0  0  0  0  0
   27.9806  -22.3176  -16.5757 C   0  0  0  0  0  0  0  0  0  0  0  0
   28.3537  -21.8429  -17.9704 C   0  0  0  0  0  0  0  0  0  0  0  0
   29.3632  -22.6809  -18.5761 N   0  0  0  0  0  0  0  0  0  0  0  0
   24.4443  -20.6949  -14.7038 C   0  0  0  0  0  0  0  0  0  0  0  0
   23.6684  -21.6831  -14.6621 O   0  0  0  0  0  0  0  0  0  0  0  0
   24.1090  -19.5568  -15.4704 N   0  0  0  0  0  0  0  0  0  0  0  0
   22.8230  -19.4545  -16.2122 C   0  0  1  0  0  0  0  0  0  0  0  0
   22.3573  -18.0223  -16.1200 C   0  0  0  0  0  0  0  0  0  0  0  0
   20.9306  -17.8454  -15.8787 C   0  0  0  0  0  0  0  0  0  0  0  0
   20.4042  -16.7207  -15.8407 O   0  0  0  0  0  0  0  0  0  0  0  0
   23.1079  -19.7986  -17.6321 C   0  0  0  0  0  0  0  0  0  0  0  0
   22.3272  -20.4159  -18.3790 O   0  0  0  0  0  0  0  0  0  0  0  0
   20.0643  -18.9345  -15.6741 O   0  0  0  0  0  0  0  0  0  0  0  0
   24.3273  -19.4203  -18.2073 O   0  0  0  0  0  0  0  0  0  0  0  0
  2  1  1  1
  2  3  1  0
  3  4  1  0
  4  8  1  0
  4  5  2  0
  6  2  1  0
  7  6  2  0
  9  6  1  0
 10  9  1  0
 10 11  1  6
 11 12  1  0
 13 14  1  0
 13 12  1  0
 15 14  1  0
 16 17  2  0
 16 10  1  0
 18 16  1  0
 19 18  1  0
 19 20  1  6
 20 21  1  0
 21 25  1  0
 21 22  2  0
 23 19  1  0
 24 23  2  0
 26 23  1  0
M  END
$$$$
