DKD.pdb
     RDKit          3D

 26 25  0  0  1  0  0  0  0  0999 V2000
   17.7727   -9.5001  -13.6496 N   0  0  0  0  0  0  0  0  0  0  0  0
   18.1903   -8.6859  -12.5642 C   0  0  1  0  0  0  0  0  0  0  0  0
   19.2098   -7.6508  -12.9082 C   0  0  0  0  0  0  0  0  0  0  0  0
   20.4252   -8.2254  -13.5365 C   0  0  0  0  0  0  0  0  0  0  0  0
   21.0124   -9.2131  -13.0347 O   0  0  0  0  0  0  0  0  0  0  0  0
   17.0073   -8.0129  -11.9714 C   0  0  0  0  0  0  0  0  0  0  0  0
   16.1769   -7.4084  -12.6955 O   0  0  0  0  0  0  0  0  0  0  0  0
   20.9230   -7.6675  -14.6929 O   0  0  0  0  0  0  0  0  0  0  0  0
   16.8288   -8.0633  -10.5755 N   0  0  0  0  0  0  0  0  0  0  0  0
   15.6789   -7.4686   -9.9133 C   0  0  1  0  0  0  0  0  0  0  0  0
   14.9582   -8.4718   -9.0534 C   0  0  0  0  0  0  0  0  0  0  0  0
   13.6534   -7.9335   -8.5176 C   0  0  0  0  0  0  0  0  0  0  0  0
   12.9532   -9.0636   -7.7676 C   0  0  0  0  0  0  0  0  0  0  0  0
   11.6116   -8.5108   -7.3156 C   0  0  0  0  0  0  0  0  0  0  0  0
   10.7439   -8.2142   -8.4324 N   0  0  0  0  0  0  0  0  0  0  0  0
   16.0763   -6.2601   -9.1565 C   0  0  0  0  0  0  0  0  0  0  0  0
   16.9636   -6.3404   -8.2698 O   0  0  0  0  0  0  0  0  0  0  0  0
   15.4560   -5.0218   -9.4346 N   0  0  0  0  0  0  0  0  0  0  0  0
   15.8759   -3.7600   -8.7668 C   0  0  1  0  0  0  0  0  0  0  0  0
   16.3579   -2.8157   -9.8404 C   0  0  0  0  0  0  0  0  0  0  0  0
   16.7303   -1.4843   -9.3778 C   0  0  0  0  0  0  0  0  0  0  0  0
   16.7095   -1.1761   -8.1746 O   0  0  0  0  0  0  0  0  0  0  0  0
   14.6697   -3.1924   -8.1046 C   0  0  0  0  0  0  0  0  0  0  0  0
   13.4981   -3.4228   -8.4548 O   0  0  0  0  0  0  0  0  0  0  0  0
   17.1346   -0.4691  -10.2634 O   0  0  0  0  0  0  0  0  0  0  0  0
   14.8183   -2.3348   -7.0076 O   0  0  0  0  0  0  0  0  0  0  0  0
  2  1  1  6
  2  3  1  0
  3  4  1  0
  4  8  1  0
  4  5  2  0
  6  2  1  0
  7  6  2  0
  9  6  1  0
 10  9  1  0
 10 11  1  1
 11 12  1  0
 13 14  1  0
 13 12  1  0
 15 14  1  0
 16 17  2  0
 16 10  1  0
 18 16  1  0
 19 18  1  0
 19 20  1  6
 20 21  1  0
 21 25  1  0
 21 22  2  0
 23 19  1  0
 24 23  2  0
 26 23  1  0
M  END
$$$$
