DKD.pdb
     RDKit          3D

 26 25  0  0  1  0  0  0  0  0999 V2000
   19.9930  -16.4173  -17.0056 N   0  0  0  0  0  0  0  0  0  0  0  0
   20.6535  -15.1748  -17.1940 C   0  0  1  0  0  0  0  0  0  0  0  0
   21.6566  -15.1554  -18.2997 C   0  0  0  0  0  0  0  0  0  0  0  0
   22.8270  -16.0273  -18.0316 C   0  0  0  0  0  0  0  0  0  0  0  0
   23.3985  -16.0248  -16.9155 O   0  0  0  0  0  0  0  0  0  0  0  0
   19.6445  -14.1153  -17.4455 C   0  0  0  0  0  0  0  0  0  0  0  0
   19.4411  -13.6785  -18.6061 O   0  0  0  0  0  0  0  0  0  0  0  0
   23.2997  -16.8574  -19.0234 O   0  0  0  0  0  0  0  0  0  0  0  0
   18.9138  -13.6043  -16.3557 N   0  0  0  0  0  0  0  0  0  0  0  0
   17.8826  -12.5912  -16.5131 C   0  0  1  0  0  0  0  0  0  0  0  0
   16.5510  -13.0766  -16.0068 C   0  0  0  0  0  0  0  0  0  0  0  0
   16.5624  -14.5530  -15.6915 C   0  0  0  0  0  0  0  0  0  0  0  0
   15.1452  -14.9582  -15.2948 C   0  0  0  0  0  0  0  0  0  0  0  0
   15.1811  -16.4579  -15.0510 C   0  0  0  0  0  0  0  0  0  0  0  0
   13.9556  -16.9394  -14.4558 N   0  0  0  0  0  0  0  0  0  0  0  0
   18.2962  -11.3187  -15.8800 C   0  0  0  0  0  0  0  0  0  0  0  0
   18.8132  -11.3286  -14.7342 O   0  0  0  0  0  0  0  0  0  0  0  0
   18.1079  -10.0988  -16.5669 N   0  0  0  0  0  0  0  0  0  0  0  0
   18.4541   -8.7866  -15.9564 C   0  0  1  0  0  0  0  0  0  0  0  0
   18.6113   -7.7901  -17.0784 C   0  0  0  0  0  0  0  0  0  0  0  0
   18.8623   -6.4161  -16.6609 C   0  0  0  0  0  0  0  0  0  0  0  0
   19.7796   -6.1242  -15.8757 O   0  0  0  0  0  0  0  0  0  0  0  0
   17.3097   -8.3905  -15.0909 C   0  0  0  0  0  0  0  0  0  0  0  0
   17.3357   -7.4552  -14.2706 O   0  0  0  0  0  0  0  0  0  0  0  0
   18.0829   -5.3390  -17.1201 O   0  0  0  0  0  0  0  0  0  0  0  0
   16.1009   -9.0927  -15.1733 O   0  0  0  0  0  0  0  0  0  0  0  0
  2  1  1  6
  2  3  1  0
  3  4  1  0
  4  8  1  0
  4  5  2  0
  6  2  1  0
  7  6  2  0
  9  6  1  0
 10  9  1  0
 10 11  1  1
 11 12  1  0
 13 14  1  0
 13 12  1  0
 15 14  1  0
 16 17  2  0
 16 10  1  0
 18 16  1  0
 19 18  1  0
 19 20  1  6
 20 21  1  0
 21 25  1  0
 21 22  2  0
 23 19  1  0
 24 23  2  0
 26 23  1  0
M  END
$$$$
