DKD.pdb
     RDKit          3D

 26 25  0  0  1  0  0  0  0  0999 V2000
   26.0463  -23.0446  -17.2497 N   0  0  0  0  0  0  0  0  0  0  0  0
   25.3288  -21.8444  -17.0044 C   0  0  1  0  0  0  0  0  0  0  0  0
   24.3067  -21.4988  -18.0364 C   0  0  0  0  0  0  0  0  0  0  0  0
   24.8969  -21.2724  -19.3789 C   0  0  0  0  0  0  0  0  0  0  0  0
   26.0924  -20.9190  -19.5133 O   0  0  0  0  0  0  0  0  0  0  0  0
   24.6612  -21.9330  -15.6814 C   0  0  0  0  0  0  0  0  0  0  0  0
   23.7756  -22.7968  -15.4606 O   0  0  0  0  0  0  0  0  0  0  0  0
   24.1220  -21.4522  -20.5030 O   0  0  0  0  0  0  0  0  0  0  0  0
   25.0387  -21.0279  -14.6709 N   0  0  0  0  0  0  0  0  0  0  0  0
   24.4354  -21.0385  -13.3478 C   0  0  1  0  0  0  0  0  0  0  0  0
   25.3908  -20.5294  -12.3022 C   0  0  0  0  0  0  0  0  0  0  0  0
   26.6526  -21.3552  -12.2295 C   0  0  0  0  0  0  0  0  0  0  0  0
   27.5933  -20.6862  -11.2308 C   0  0  0  0  0  0  0  0  0  0  0  0
   28.8770  -21.4996  -11.2408 C   0  0  0  0  0  0  0  0  0  0  0  0
   29.8878  -20.9270  -10.3814 N   0  0  0  0  0  0  0  0  0  0  0  0
   23.1544  -20.2969  -13.3493 C   0  0  0  0  0  0  0  0  0  0  0  0
   23.0789  -19.1790  -13.9191 O   0  0  0  0  0  0  0  0  0  0  0  0
   22.0224  -20.8494  -12.7100 N   0  0  0  0  0  0  0  0  0  0  0  0
   20.6766  -20.2213  -12.8042 C   0  0  1  0  0  0  0  0  0  0  0  0
   20.2525  -20.2690  -14.2514 C   0  0  0  0  0  0  0  0  0  0  0  0
   18.9053  -19.7826  -14.5223 C   0  0  0  0  0  0  0  0  0  0  0  0
   17.9477  -20.5562  -14.6897 O   0  0  0  0  0  0  0  0  0  0  0  0
   19.7495  -21.0468  -11.9828 C   0  0  0  0  0  0  0  0  0  0  0  0
   19.9714  -22.2200  -11.6324 O   0  0  0  0  0  0  0  0  0  0  0  0
   18.6074  -18.4108  -14.6109 O   0  0  0  0  0  0  0  0  0  0  0  0
   18.5321  -20.5044  -11.5530 O   0  0  0  0  0  0  0  0  0  0  0  0
  2  1  1  6
  2  3  1  0
  3  4  1  0
  4  8  1  0
  4  5  2  0
  6  2  1  0
  7  6  2  0
  9  6  1  0
 10  9  1  0
 10 11  1  1
 11 12  1  0
 13 14  1  0
 13 12  1  0
 15 14  1  0
 16 17  2  0
 16 10  1  0
 18 16  1  0
 19 18  1  0
 19 20  1  6
 20 21  1  0
 21 25  1  0
 21 22  2  0
 23 19  1  0
 24 23  2  0
 26 23  1  0
M  END
$$$$
