DKD.pdb
     RDKit          3D

 26 25  0  0  1  0  0  0  0  0999 V2000
   15.5418  -10.6799  -14.1110 N   0  0  0  0  0  0  0  0  0  0  0  0
   15.9854   -9.7420  -15.0801 C   0  0  1  0  0  0  0  0  0  0  0  0
   15.1643   -8.4988  -15.1763 C   0  0  0  0  0  0  0  0  0  0  0  0
   13.7513   -8.7680  -15.5411 C   0  0  0  0  0  0  0  0  0  0  0  0
   13.4321   -9.7843  -16.2024 O   0  0  0  0  0  0  0  0  0  0  0  0
   17.3917   -9.3647  -14.7908 C   0  0  0  0  0  0  0  0  0  0  0  0
   17.7248   -8.9292  -13.6600 O   0  0  0  0  0  0  0  0  0  0  0  0
   12.7670   -7.8885  -15.1489 O   0  0  0  0  0  0  0  0  0  0  0  0
   18.3531   -9.5039  -15.8102 N   0  0  0  0  0  0  0  0  0  0  0  0
   19.7637   -9.2219  -15.5970 C   0  0  1  0  0  0  0  0  0  0  0  0
   20.6359  -10.0783  -16.4751 C   0  0  0  0  0  0  0  0  0  0  0  0
   20.5472  -11.5421  -16.1162 C   0  0  0  0  0  0  0  0  0  0  0  0
   21.2700  -12.3351  -17.2018 C   0  0  0  0  0  0  0  0  0  0  0  0
   21.1397  -13.8004  -16.8202 C   0  0  0  0  0  0  0  0  0  0  0  0
   21.7469  -14.6716  -17.8002 N   0  0  0  0  0  0  0  0  0  0  0  0
   20.0412   -7.7776  -15.7644 C   0  0  0  0  0  0  0  0  0  0  0  0
   19.7700   -7.2101  -16.8528 O   0  0  0  0  0  0  0  0  0  0  0  0
   20.6097   -7.0437  -14.6998 N   0  0  0  0  0  0  0  0  0  0  0  0
   20.8887   -5.5858  -14.8053 C   0  0  1  0  0  0  0  0  0  0  0  0
   19.6248   -4.8523  -14.4296 C   0  0  0  0  0  0  0  0  0  0  0  0
   19.7338   -3.3990  -14.3977 C   0  0  0  0  0  0  0  0  0  0  0  0
   20.6460   -2.7945  -14.9858 O   0  0  0  0  0  0  0  0  0  0  0  0
   21.9612   -5.2727  -13.8217 C   0  0  0  0  0  0  0  0  0  0  0  0
   22.4574   -4.1440  -13.6539 O   0  0  0  0  0  0  0  0  0  0  0  0
   18.8153   -2.5936  -13.7005 O   0  0  0  0  0  0  0  0  0  0  0  0
   22.4764   -6.2897  -13.0085 O   0  0  0  0  0  0  0  0  0  0  0  0
  2  1  1  1
  2  3  1  0
  3  4  1  0
  4  8  1  0
  4  5  2  0
  6  2  1  0
  7  6  2  0
  9  6  1  0
 10  9  1  0
 10 11  1  6
 11 12  1  0
 13 14  1  0
 13 12  1  0
 15 14  1  0
 16 17  2  0
 16 10  1  0
 18 16  1  0
 19 18  1  0
 19 20  1  1
 20 21  1  0
 21 25  1  0
 21 22  2  0
 23 19  1  0
 24 23  2  0
 26 23  1  0
M  END
$$$$
