DKD.pdb
     RDKit          3D

 26 25  0  0  1  0  0  0  0  0999 V2000
   17.7748  -12.2573  -15.9002 N   0  0  0  0  0  0  0  0  0  0  0  0
   18.3034  -11.1806  -16.6597 C   0  0  1  0  0  0  0  0  0  0  0  0
   17.2930  -10.1917  -17.1395 C   0  0  0  0  0  0  0  0  0  0  0  0
   16.2168  -10.8142  -17.9496 C   0  0  0  0  0  0  0  0  0  0  0  0
   16.4758  -11.4421  -19.0036 O   0  0  0  0  0  0  0  0  0  0  0  0
   19.3257  -10.4666  -15.8541 C   0  0  0  0  0  0  0  0  0  0  0  0
   19.0877  -10.1162  -14.6710 O   0  0  0  0  0  0  0  0  0  0  0  0
   14.9062  -10.7037  -17.5415 O   0  0  0  0  0  0  0  0  0  0  0  0
   20.5750  -10.1868  -16.4404 N   0  0  0  0  0  0  0  0  0  0  0  0
   21.6085   -9.4296  -15.7525 C   0  0  1  0  0  0  0  0  0  0  0  0
   22.9852   -9.8556  -16.1865 C   0  0  0  0  0  0  0  0  0  0  0  0
   23.3099  -11.2660  -15.7565 C   0  0  0  0  0  0  0  0  0  0  0  0
   24.6427  -11.6540  -16.3912 C   0  0  0  0  0  0  0  0  0  0  0  0
   24.9661  -13.0510  -15.8875 C   0  0  0  0  0  0  0  0  0  0  0  0
   26.1803  -13.5707  -16.4739 N   0  0  0  0  0  0  0  0  0  0  0  0
   21.3907   -7.9748  -15.9175 C   0  0  0  0  0  0  0  0  0  0  0  0
   20.9642   -7.5258  -17.0114 O   0  0  0  0  0  0  0  0  0  0  0  0
   21.6635   -7.0977  -14.8444 N   0  0  0  0  0  0  0  0  0  0  0  0
   21.4580   -5.6279  -14.9533 C   0  0  1  0  0  0  0  0  0  0  0  0
   19.9886   -5.3911  -15.2011 C   0  0  0  0  0  0  0  0  0  0  0  0
   19.5773   -3.9926  -15.2198 C   0  0  0  0  0  0  0  0  0  0  0  0
   20.3639   -3.0794  -15.5205 O   0  0  0  0  0  0  0  0  0  0  0  0
   21.8481   -5.0330  -13.6458 C   0  0  0  0  0  0  0  0  0  0  0  0
   22.2909   -3.8794  -13.4993 O   0  0  0  0  0  0  0  0  0  0  0  0
   18.2676   -3.5923  -14.8990 O   0  0  0  0  0  0  0  0  0  0  0  0
   21.7242   -5.7895  -12.4738 O   0  0  0  0  0  0  0  0  0  0  0  0
  2  1  1  1
  2  3  1  0
  3  4  1  0
  4  8  1  0
  4  5  2  0
  6  2  1  0
  7  6  2  0
  9  6  1  0
 10  9  1  0
 10 11  1  6
 11 12  1  0
 13 14  1  0
 13 12  1  0
 15 14  1  0
 16 17  2  0
 16 10  1  0
 18 16  1  0
 19 18  1  0
 19 20  1  1
 20 21  1  0
 21 25  1  0
 21 22  2  0
 23 19  1  0
 24 23  2  0
 26 23  1  0
M  END
$$$$
