DKD.pdb
     RDKit          3D

 26 25  0  0  1  0  0  0  0  0999 V2000
   14.4288  -12.3118  -14.3798 N   0  0  0  0  0  0  0  0  0  0  0  0
   15.4456  -12.1338  -13.4051 C   0  0  1  0  0  0  0  0  0  0  0  0
   16.8398  -12.3117  -13.9087 C   0  0  0  0  0  0  0  0  0  0  0  0
   17.1020  -13.6848  -14.4066 C   0  0  0  0  0  0  0  0  0  0  0  0
   17.5323  -13.8852  -15.5672 O   0  0  0  0  0  0  0  0  0  0  0  0
   15.3222  -10.7802  -12.8080 C   0  0  0  0  0  0  0  0  0  0  0  0
   15.3256   -9.7520  -13.5306 O   0  0  0  0  0  0  0  0  0  0  0  0
   16.8703  -14.7639  -13.5832 O   0  0  0  0  0  0  0  0  0  0  0  0
   15.1999  -10.6659  -11.4099 N   0  0  0  0  0  0  0  0  0  0  0  0
   14.9782   -9.3907  -10.7471 C   0  0  1  0  0  0  0  0  0  0  0  0
   14.0712   -9.5392   -9.5552 C   0  0  0  0  0  0  0  0  0  0  0  0
   12.6370   -9.7888   -9.9551 C   0  0  0  0  0  0  0  0  0  0  0  0
   11.8424  -10.0882   -8.6867 C   0  0  0  0  0  0  0  0  0  0  0  0
   10.4368  -10.4499   -9.1375 C   0  0  0  0  0  0  0  0  0  0  0  0
    9.5961  -10.8406   -8.0290 N   0  0  0  0  0  0  0  0  0  0  0  0
   16.2661   -8.7495  -10.3987 C   0  0  0  0  0  0  0  0  0  0  0  0
   17.0753   -9.3417   -9.6407 O   0  0  0  0  0  0  0  0  0  0  0  0
   16.5795   -7.4746  -10.9199 N   0  0  0  0  0  0  0  0  0  0  0  0
   17.9077   -6.8384  -10.7064 C   0  0  1  0  0  0  0  0  0  0  0  0
   18.4348   -6.4213  -12.0573 C   0  0  0  0  0  0  0  0  0  0  0  0
   19.7193   -5.7323  -12.0394 C   0  0  0  0  0  0  0  0  0  0  0  0
   19.9251   -4.7064  -12.7090 O   0  0  0  0  0  0  0  0  0  0  0  0
   17.6854   -5.6334   -9.8613 C   0  0  0  0  0  0  0  0  0  0  0  0
   18.5929   -4.9199   -9.3967 O   0  0  0  0  0  0  0  0  0  0  0  0
   20.8023   -6.1858  -11.2648 O   0  0  0  0  0  0  0  0  0  0  0  0
   16.3799   -5.2397   -9.5425 O   0  0  0  0  0  0  0  0  0  0  0  0
  2  1  1  6
  2  3  1  0
  3  4  1  0
  4  8  1  0
  4  5  2  0
  6  2  1  0
  7  6  2  0
  9  6  1  0
 10  9  1  0
 10 11  1  1
 11 12  1  0
 13 14  1  0
 13 12  1  0
 15 14  1  0
 16 17  2  0
 16 10  1  0
 18 16  1  0
 19 18  1  0
 19 20  1  6
 20 21  1  0
 21 25  1  0
 21 22  2  0
 23 19  1  0
 24 23  2  0
 26 23  1  0
M  END
$$$$
