DKD.pdb
     RDKit          3D

 26 25  0  0  1  0  0  0  0  0999 V2000
   23.1140  -14.5352  -18.0862 N   0  0  0  0  0  0  0  0  0  0  0  0
   22.7420  -14.7097  -16.7272 C   0  0  1  0  0  0  0  0  0  0  0  0
   21.7253  -13.7399  -16.2223 C   0  0  0  0  0  0  0  0  0  0  0  0
   22.2017  -12.3350  -16.2572 C   0  0  0  0  0  0  0  0  0  0  0  0
   21.5098  -11.4257  -16.7736 O   0  0  0  0  0  0  0  0  0  0  0  0
   22.2260  -16.0879  -16.5322 C   0  0  0  0  0  0  0  0  0  0  0  0
   21.1309  -16.4454  -17.0345 O   0  0  0  0  0  0  0  0  0  0  0  0
   23.4264  -12.0171  -15.7136 O   0  0  0  0  0  0  0  0  0  0  0  0
   22.9883  -16.9946  -15.7709 N   0  0  0  0  0  0  0  0  0  0  0  0
   22.6112  -18.3898  -15.6106 C   0  0  1  0  0  0  0  0  0  0  0  0
   23.8105  -19.2572  -15.3374 C   0  0  0  0  0  0  0  0  0  0  0  0
   23.4564  -20.7240  -15.2874 C   0  0  0  0  0  0  0  0  0  0  0  0
   24.7553  -21.5152  -15.1591 C   0  0  0  0  0  0  0  0  0  0  0  0
   24.3666  -22.9841  -15.1895 C   0  0  0  0  0  0  0  0  0  0  0  0
   25.5229  -23.8508  -15.1821 N   0  0  0  0  0  0  0  0  0  0  0  0
   21.5636  -18.5345  -14.5748 C   0  0  0  0  0  0  0  0  0  0  0  0
   21.7915  -18.1585  -13.3971 O   0  0  0  0  0  0  0  0  0  0  0  0
   20.3123  -19.0948  -14.9150 N   0  0  0  0  0  0  0  0  0  0  0  0
   19.1986  -19.1959  -13.9332 C   0  0  1  0  0  0  0  0  0  0  0  0
   17.9588  -18.6446  -14.5932 C   0  0  0  0  0  0  0  0  0  0  0  0
   16.7442  -18.7089  -13.7897 C   0  0  0  0  0  0  0  0  0  0  0  0
   16.7646  -18.5779  -12.5545 O   0  0  0  0  0  0  0  0  0  0  0  0
   19.0072  -20.6417  -13.6353 C   0  0  0  0  0  0  0  0  0  0  0  0
   19.0139  -21.5454  -14.4906 O   0  0  0  0  0  0  0  0  0  0  0  0
   15.4773  -18.9231  -14.3622 O   0  0  0  0  0  0  0  0  0  0  0  0
   18.8022  -21.0574  -12.3139 O   0  0  0  0  0  0  0  0  0  0  0  0
  2  1  1  6
  2  3  1  0
  3  4  1  0
  4  8  1  0
  4  5  2  0
  6  2  1  0
  7  6  2  0
  9  6  1  0
 10  9  1  0
 10 11  1  1
 11 12  1  0
 13 14  1  0
 13 12  1  0
 15 14  1  0
 16 17  2  0
 16 10  1  0
 18 16  1  0
 19 18  1  0
 19 20  1  6
 20 21  1  0
 21 25  1  0
 21 22  2  0
 23 19  1  0
 24 23  2  0
 26 23  1  0
M  END
$$$$
