DKD.pdb
     RDKit          3D

 26 25  0  0  1  0  0  0  0  0999 V2000
   17.6775  -13.1573  -16.2951 N   0  0  0  0  0  0  0  0  0  0  0  0
   17.4072  -11.8113  -15.9335 C   0  0  1  0  0  0  0  0  0  0  0  0
   16.6483  -11.6411  -14.6591 C   0  0  0  0  0  0  0  0  0  0  0  0
   15.2665  -12.1767  -14.7350 C   0  0  0  0  0  0  0  0  0  0  0  0
   14.4518  -12.0112  -13.7963 O   0  0  0  0  0  0  0  0  0  0  0  0
   18.6857  -11.0637  -15.8321 C   0  0  0  0  0  0  0  0  0  0  0  0
   19.2708  -10.9303  -14.7279 O   0  0  0  0  0  0  0  0  0  0  0  0
   14.8651  -12.8699  -15.8551 O   0  0  0  0  0  0  0  0  0  0  0  0
   19.2364  -10.5030  -17.0005 N   0  0  0  0  0  0  0  0  0  0  0  0
   20.4743   -9.7400  -16.9920 C   0  0  1  0  0  0  0  0  0  0  0  0
   21.0750   -9.6489  -18.3690 C   0  0  0  0  0  0  0  0  0  0  0  0
   21.9184  -10.8548  -18.7062 C   0  0  0  0  0  0  0  0  0  0  0  0
   21.1437  -11.7014  -19.7127 C   0  0  0  0  0  0  0  0  0  0  0  0
   22.0072  -12.9178  -20.0034 C   0  0  0  0  0  0  0  0  0  0  0  0
   21.3416  -13.8590  -20.8747 N   0  0  0  0  0  0  0  0  0  0  0  0
   20.2660   -8.4089  -16.3789 C   0  0  0  0  0  0  0  0  0  0  0  0
   19.1961   -7.7834  -16.5891 O   0  0  0  0  0  0  0  0  0  0  0  0
   21.2712   -7.8478  -15.5604 N   0  0  0  0  0  0  0  0  0  0  0  0
   21.0896   -6.5429  -14.8683 C   0  0  1  0  0  0  0  0  0  0  0  0
   22.1477   -6.4449  -13.7972 C   0  0  0  0  0  0  0  0  0  0  0  0
   22.1090   -5.2300  -12.9924 C   0  0  0  0  0  0  0  0  0  0  0  0
   22.6764   -4.1847  -13.3511 O   0  0  0  0  0  0  0  0  0  0  0  0
   21.3032   -5.4753  -15.8833 C   0  0  0  0  0  0  0  0  0  0  0  0
   20.8244   -4.3289  -15.8133 O   0  0  0  0  0  0  0  0  0  0  0  0
   21.4287   -5.1669  -11.7629 O   0  0  0  0  0  0  0  0  0  0  0  0
   22.0912   -5.7367  -17.0111 O   0  0  0  0  0  0  0  0  0  0  0  0
  2  1  1  1
  2  3  1  0
  3  4  1  0
  4  8  1  0
  4  5  2  0
  6  2  1  0
  7  6  2  0
  9  6  1  0
 10  9  1  0
 10 11  1  6
 11 12  1  0
 13 14  1  0
 13 12  1  0
 15 14  1  0
 16 17  2  0
 16 10  1  0
 18 16  1  0
 19 18  1  0
 19 20  1  1
 20 21  1  0
 21 25  1  0
 21 22  2  0
 23 19  1  0
 24 23  2  0
 26 23  1  0
M  END
$$$$
