DKD.pdb
     RDKit          3D

 26 25  0  0  1  0  0  0  0  0999 V2000
   25.0848  -17.3473  -19.1488 N   0  0  0  0  0  0  0  0  0  0  0  0
   24.6036  -16.9319  -17.8794 C   0  0  1  0  0  0  0  0  0  0  0  0
   23.6839  -15.7562  -17.9077 C   0  0  0  0  0  0  0  0  0  0  0  0
   24.3625  -14.5033  -18.3224 C   0  0  0  0  0  0  0  0  0  0  0  0
   23.7970  -13.3896  -18.2124 O   0  0  0  0  0  0  0  0  0  0  0  0
   23.9081  -18.0670  -17.2222 C   0  0  0  0  0  0  0  0  0  0  0  0
   22.8790  -18.5771  -17.7319 O   0  0  0  0  0  0  0  0  0  0  0  0
   25.6378  -14.5581  -18.8389 O   0  0  0  0  0  0  0  0  0  0  0  0
   24.4236  -18.5666  -16.0109 N   0  0  0  0  0  0  0  0  0  0  0  0
   23.8511  -19.7199  -15.3352 C   0  0  1  0  0  0  0  0  0  0  0  0
   24.8788  -20.4366  -14.5013 C   0  0  0  0  0  0  0  0  0  0  0  0
   25.2208  -21.7971  -15.0593 C   0  0  0  0  0  0  0  0  0  0  0  0
   26.6165  -21.7148  -15.6718 C   0  0  0  0  0  0  0  0  0  0  0  0
   26.8806  -23.0646  -16.3184 C   0  0  0  0  0  0  0  0  0  0  0  0
   28.1496  -23.0955  -17.0090 N   0  0  0  0  0  0  0  0  0  0  0  0
   22.6599  -19.3291  -14.5481 C   0  0  0  0  0  0  0  0  0  0  0  0
   22.7390  -18.3879  -13.7185 O   0  0  0  0  0  0  0  0  0  0  0  0
   21.4396  -20.0159  -14.7331 N   0  0  0  0  0  0  0  0  0  0  0  0
   20.2191  -19.6837  -13.9492 C   0  0  1  0  0  0  0  0  0  0  0  0
   19.0461  -19.7169  -14.8977 C   0  0  0  0  0  0  0  0  0  0  0  0
   18.8774  -18.5263  -15.7219 C   0  0  0  0  0  0  0  0  0  0  0  0
   19.6323  -17.5447  -15.6223 O   0  0  0  0  0  0  0  0  0  0  0  0
   20.0592  -20.7443  -12.9171 C   0  0  0  0  0  0  0  0  0  0  0  0
   20.6781  -21.8239  -12.9127 O   0  0  0  0  0  0  0  0  0  0  0  0
   17.8517  -18.4159  -16.6780 O   0  0  0  0  0  0  0  0  0  0  0  0
   19.1603  -20.5552  -11.8601 O   0  0  0  0  0  0  0  0  0  0  0  0
  2  1  1  6
  2  3  1  0
  3  4  1  0
  4  8  1  0
  4  5  2  0
  6  2  1  0
  7  6  2  0
  9  6  1  0
 10  9  1  0
 10 11  1  1
 11 12  1  0
 13 14  1  0
 13 12  1  0
 15 14  1  0
 16 17  2  0
 16 10  1  0
 18 16  1  0
 19 18  1  0
 19 20  1  6
 20 21  1  0
 21 25  1  0
 21 22  2  0
 23 19  1  0
 24 23  2  0
 26 23  1  0
M  END
$$$$
