GHP.pdb
     RDKit          3D

 22 23  0  0  1  0  0  0  0  0999 V2000
   12.4714  -17.0261   21.2376 N   0  0  0  0  0  0  0  0  0  0  0  0
   11.3353  -17.4407   22.0063 C   0  0  0  0  0  0  0  0  0  0  0  0
   10.5964  -16.2342   22.5261 C   0  0  0  0  0  0  0  0  0  0  0  0
   11.2395  -15.3055   23.0231 O   0  0  0  0  0  0  0  0  0  0  0  0
    9.1902  -16.1366   22.4606 N   0  0  0  0  0  0  0  0  0  0  0  0
    8.4401  -15.1412   23.0786 C   0  0  1  0  0  0  0  0  0  0  0  0
    7.2437  -14.5671   22.3294 C   0  0  0  0  0  0  0  0  0  0  0  0
    7.6432  -14.1438   20.9814 C   0  0  0  0  0  0  0  0  0  0  0  0
    8.8046  -14.1259   20.2770 C   0  0  0  0  0  0  0  0  0  0  0  0
    8.5800  -13.6270   19.0333 N   0  0  0  0  0  0  0  0  0  0  0  0
    7.2780  -13.3259   18.9401 C   0  0  0  0  0  0  0  0  0  0  0  0
    6.7165  -13.6296   20.0907 N   0  0  0  0  0  0  0  0  0  0  0  0
    8.2686  -15.1617   24.5302 C   0  0  0  0  0  0  0  0  0  0  0  0
    8.7989  -16.1673   25.1315 O   0  0  0  0  0  0  0  0  0  0  0  0
    7.5792  -14.1787   25.2760 N   0  0  0  0  0  0  0  0  0  0  0  0
    7.0183  -12.9572   24.7698 C   0  0  0  0  0  0  0  0  0  0  0  0
    6.7303  -12.0867   26.0061 C   0  0  0  0  0  0  0  0  0  0  0  0
    6.4622  -13.1073   27.0539 C   0  0  0  0  0  0  0  0  0  0  0  0
    7.3226  -14.2771   26.7195 C   0  0  1  0  0  0  0  0  0  0  0  0
    6.6450  -15.5509   27.0442 C   0  0  0  0  0  0  0  0  0  0  0  0
    5.9188  -16.1120   26.1888 O   0  0  0  0  0  0  0  0  0  0  0  0
    6.7812  -16.1632   28.2772 O   0  0  0  0  0  0  0  0  0  0  0  0
  2  1  1  0
  3  4  2  0
  3  2  1  0
  5  3  1  0
  6  5  1  0
  6 13  1  0
  6  7  1  6
  8  7  1  0
  9  8  2  0
 10 11  1  0
 10  9  1  0
 11 12  2  0
 12  8  1  0
 13 15  1  0
 14 13  2  0
 15 16  1  0
 15 19  1  0
 16 17  1  0
 17 18  1  0
 19 18  1  0
 20 22  1  0
 19 20  1  6
 21 20  2  0
M  END
$$$$
