GHP.pdb
     RDKit          3D

 22 23  0  0  1  0  0  0  0  0999 V2000
   11.9586  -16.5780   20.7206 N   0  0  0  0  0  0  0  0  0  0  0  0
   11.3346  -16.9747   21.9481 C   0  0  0  0  0  0  0  0  0  0  0  0
   10.5795  -15.8130   22.5416 C   0  0  0  0  0  0  0  0  0  0  0  0
   11.2128  -14.8669   23.0179 O   0  0  0  0  0  0  0  0  0  0  0  0
    9.1691  -15.7767   22.5679 N   0  0  0  0  0  0  0  0  0  0  0  0
    8.4182  -14.7907   23.1998 C   0  0  1  0  0  0  0  0  0  0  0  0
    7.1984  -14.2350   22.4749 C   0  0  0  0  0  0  0  0  0  0  0  0
    7.5181  -13.9776   21.0651 C   0  0  0  0  0  0  0  0  0  0  0  0
    8.0491  -12.9403   20.3669 C   0  0  0  0  0  0  0  0  0  0  0  0
    8.1331  -13.2675   19.0509 N   0  0  0  0  0  0  0  0  0  0  0  0
    7.6576  -14.5113   18.9053 C   0  0  0  0  0  0  0  0  0  0  0  0
    7.2913  -14.9385   20.0947 N   0  0  0  0  0  0  0  0  0  0  0  0
    8.2776  -14.8106   24.6548 C   0  0  0  0  0  0  0  0  0  0  0  0
    8.7364  -15.8620   25.2363 O   0  0  0  0  0  0  0  0  0  0  0  0
    7.6880  -13.7814   25.4233 N   0  0  0  0  0  0  0  0  0  0  0  0
    7.1332  -12.5530   24.9270 C   0  0  0  0  0  0  0  0  0  0  0  0
    6.9793  -11.6384   26.1554 C   0  0  0  0  0  0  0  0  0  0  0  0
    6.7600  -12.6188   27.2519 C   0  0  0  0  0  0  0  0  0  0  0  0
    7.5465  -13.8301   26.8852 C   0  0  1  0  0  0  0  0  0  0  0  0
    6.8511  -15.0670   27.3019 C   0  0  0  0  0  0  0  0  0  0  0  0
    6.0294  -15.6164   26.5293 O   0  0  0  0  0  0  0  0  0  0  0  0
    7.0733  -15.6567   28.5334 O   0  0  0  0  0  0  0  0  0  0  0  0
  2  1  1  0
  3  4  2  0
  3  2  1  0
  5  3  1  0
  6  5  1  0
  6 13  1  0
  6  7  1  6
  8  7  1  0
  9  8  2  0
 10 11  1  0
 10  9  1  0
 11 12  2  0
 12  8  1  0
 13 15  1  0
 14 13  2  0
 15 16  1  0
 15 19  1  0
 16 17  1  0
 17 18  1  0
 19 18  1  0
 20 22  1  0
 19 20  1  6
 21 20  2  0
M  END
$$$$
