GHP.pdb
     RDKit          3D

 22 23  0  0  1  0  0  0  0  0999 V2000
   12.3918  -15.7927   20.1365 N   0  0  0  0  0  0  0  0  0  0  0  0
   11.6085  -16.4647   21.1307 C   0  0  0  0  0  0  0  0  0  0  0  0
   10.7045  -15.4800   21.8272 C   0  0  0  0  0  0  0  0  0  0  0  0
   11.1809  -14.4216   22.2464 O   0  0  0  0  0  0  0  0  0  0  0  0
    9.3290  -15.7342   22.0134 N   0  0  0  0  0  0  0  0  0  0  0  0
    8.4581  -14.8928   22.6981 C   0  0  1  0  0  0  0  0  0  0  0  0
    7.2285  -14.3724   21.9637 C   0  0  0  0  0  0  0  0  0  0  0  0
    7.5340  -14.1669   20.5423 C   0  0  0  0  0  0  0  0  0  0  0  0
    7.1667  -14.7618   19.3776 C   0  0  0  0  0  0  0  0  0  0  0  0
    7.7596  -14.1292   18.3316 N   0  0  0  0  0  0  0  0  0  0  0  0
    8.5051  -13.1310   18.8239 C   0  0  0  0  0  0  0  0  0  0  0  0
    8.3763  -13.1472   20.1333 N   0  0  0  0  0  0  0  0  0  0  0  0
    8.2485  -15.0821   24.1324 C   0  0  0  0  0  0  0  0  0  0  0  0
    8.6166  -16.2244   24.5949 O   0  0  0  0  0  0  0  0  0  0  0  0
    7.6855  -14.1192   25.0004 N   0  0  0  0  0  0  0  0  0  0  0  0
    7.3361  -12.7665   24.6671 C   0  0  0  0  0  0  0  0  0  0  0  0
    7.1327  -12.0449   26.0113 C   0  0  0  0  0  0  0  0  0  0  0  0
    6.6716  -13.1490   26.8944 C   0  0  0  0  0  0  0  0  0  0  0  0
    7.3586  -14.3790   26.4093 C   0  0  1  0  0  0  0  0  0  0  0  0
    6.4842  -15.5654   26.5327 C   0  0  0  0  0  0  0  0  0  0  0  0
    5.7861  -15.9353   25.5582 O   0  0  0  0  0  0  0  0  0  0  0  0
    6.4021  -16.3003   27.7018 O   0  0  0  0  0  0  0  0  0  0  0  0
  2  1  1  0
  3  4  2  0
  3  2  1  0
  5  3  1  0
  6  5  1  0
  6 13  1  0
  6  7  1  6
  8  7  1  0
  9  8  2  0
 10 11  1  0
 10  9  1  0
 11 12  2  0
 12  8  1  0
 13 15  1  0
 14 13  2  0
 15 16  1  0
 15 19  1  0
 16 17  1  0
 17 18  1  0
 19 18  1  0
 20 22  1  0
 19 20  1  6
 21 20  2  0
M  END
$$$$
