GHP.pdb
     RDKit          3D

 22 23  0  0  1  0  0  0  0  0999 V2000
   -1.8207  -28.3553   30.7601 N   0  0  0  0  0  0  0  0  0  0  0  0
   -2.3323  -27.2840   31.5626 C   0  0  0  0  0  0  0  0  0  0  0  0
   -2.6973  -26.1126   30.6869 C   0  0  0  0  0  0  0  0  0  0  0  0
   -1.9587  -25.1242   30.6696 O   0  0  0  0  0  0  0  0  0  0  0  0
   -3.8594  -26.1145   29.8865 N   0  0  0  0  0  0  0  0  0  0  0  0
   -4.2559  -25.0594   29.0712 C   0  0  1  0  0  0  0  0  0  0  0  0
   -4.6082  -25.3604   27.6194 C   0  0  0  0  0  0  0  0  0  0  0  0
   -3.4946  -26.0527   26.9587 C   0  0  0  0  0  0  0  0  0  0  0  0
   -2.1976  -25.7568   26.6839 C   0  0  0  0  0  0  0  0  0  0  0  0
   -1.6119  -26.8051   26.0484 N   0  0  0  0  0  0  0  0  0  0  0  0
   -2.5306  -27.7710   25.9161 C   0  0  0  0  0  0  0  0  0  0  0  0
   -3.6488  -27.3323   26.4533 N   0  0  0  0  0  0  0  0  0  0  0  0
   -5.0197  -23.9518   29.6428 C   0  0  0  0  0  0  0  0  0  0  0  0
   -5.9648  -24.2933   30.4455 O   0  0  0  0  0  0  0  0  0  0  0  0
   -4.7865  -22.5846   29.3708 N   0  0  0  0  0  0  0  0  0  0  0  0
   -3.7465  -22.0420   28.5419 C   0  0  0  0  0  0  0  0  0  0  0  0
   -3.6890  -20.5402   28.8744 C   0  0  0  0  0  0  0  0  0  0  0  0
   -5.0947  -20.2501   29.2632 C   0  0  0  0  0  0  0  0  0  0  0  0
   -5.6086  -21.4914   29.9077 C   0  0  1  0  0  0  0  0  0  0  0  0
   -7.0370  -21.7077   29.5911 C   0  0  0  0  0  0  0  0  0  0  0  0
   -7.3632  -22.4689   28.6487 O   0  0  0  0  0  0  0  0  0  0  0  0
   -8.0501  -21.0937   30.3054 O   0  0  0  0  0  0  0  0  0  0  0  0
  2  1  1  0
  3  4  2  0
  3  2  1  0
  5  3  1  0
  6  5  1  0
  6 13  1  0
  6  7  1  6
  8  7  1  0
  9  8  2  0
 10 11  1  0
 10  9  1  0
 11 12  2  0
 12  8  1  0
 13 15  1  0
 14 13  2  0
 15 16  1  0
 15 19  1  0
 16 17  1  0
 17 18  1  0
 19 18  1  0
 20 22  1  0
 19 20  1  6
 21 20  2  0
M  END
$$$$
