GHP.pdb
     RDKit          3D

 22 23  0  0  1  0  0  0  0  0999 V2000
    9.6238  -15.8178   13.1538 N   0  0  0  0  0  0  0  0  0  0  0  0
   10.3080  -16.2835   14.3236 C   0  0  0  0  0  0  0  0  0  0  0  0
    9.4164  -16.1464   15.5312 C   0  0  0  0  0  0  0  0  0  0  0  0
    8.3998  -15.4514   15.4500 O   0  0  0  0  0  0  0  0  0  0  0  0
    9.7112  -16.7904   16.7517 N   0  0  0  0  0  0  0  0  0  0  0  0
    8.9631  -16.6515   17.9164 C   0  0  1  0  0  0  0  0  0  0  0  0
    8.2180  -17.8703   18.4468 C   0  0  0  0  0  0  0  0  0  0  0  0
    7.4622  -18.5148   17.3654 C   0  0  0  0  0  0  0  0  0  0  0  0
    6.3486  -18.2117   16.6490 C   0  0  0  0  0  0  0  0  0  0  0  0
    6.1075  -19.1906   15.7382 N   0  0  0  0  0  0  0  0  0  0  0  0
    7.0641  -20.1191   15.8699 C   0  0  0  0  0  0  0  0  0  0  0  0
    7.8704  -19.7254   16.8322 N   0  0  0  0  0  0  0  0  0  0  0  0
    9.4204  -15.7412   18.9648 C   0  0  0  0  0  0  0  0  0  0  0  0
   10.5678  -16.0221   19.4735 O   0  0  0  0  0  0  0  0  0  0  0  0
    8.6994  -14.6184   19.4307 N   0  0  0  0  0  0  0  0  0  0  0  0
    7.4636  -14.1143   18.9000 C   0  0  0  0  0  0  0  0  0  0  0  0
    7.3037  -12.7003   19.4866 C   0  0  0  0  0  0  0  0  0  0  0  0
    8.0133  -12.8176   20.7883 C   0  0  0  0  0  0  0  0  0  0  0  0
    9.1220  -13.7883   20.5672 C   0  0  1  0  0  0  0  0  0  0  0  0
    9.3512  -14.6223   21.7668 C   0  0  0  0  0  0  0  0  0  0  0  0
    8.8638  -15.7765   21.8319 O   0  0  0  0  0  0  0  0  0  0  0  0
   10.0964  -14.1745   22.8428 O   0  0  0  0  0  0  0  0  0  0  0  0
  2  1  1  0
  3  4  2  0
  3  2  1  0
  5  3  1  0
  6  5  1  0
  6 13  1  0
  6  7  1  1
  8  7  1  0
  9  8  2  0
 10 11  1  0
 10  9  1  0
 11 12  2  0
 12  8  1  0
 13 15  1  0
 14 13  2  0
 15 16  1  0
 15 19  1  0
 16 17  1  0
 17 18  1  0
 19 18  1  0
 20 22  1  0
 19 20  1  1
 21 20  2  0
M  END
$$$$
