GHP.pdb
     RDKit          3D

 22 23  0  0  1  0  0  0  0  0999 V2000
    8.8557  -12.6277   18.8643 N   0  0  0  0  0  0  0  0  0  0  0  0
    9.5171  -13.4345   19.8466 C   0  0  0  0  0  0  0  0  0  0  0  0
    8.5818  -13.7205   20.9936 C   0  0  0  0  0  0  0  0  0  0  0  0
    7.4977  -13.1330   21.0438 O   0  0  0  0  0  0  0  0  0  0  0  0
    8.9109  -14.6409   22.0114 N   0  0  0  0  0  0  0  0  0  0  0  0
    8.1499  -14.8547   23.1561 C   0  0  1  0  0  0  0  0  0  0  0  0
    7.3622  -16.1544   23.2682 C   0  0  0  0  0  0  0  0  0  0  0  0
    6.7934  -16.5186   21.9645 C   0  0  0  0  0  0  0  0  0  0  0  0
    5.6785  -16.1798   21.2663 C   0  0  0  0  0  0  0  0  0  0  0  0
    5.6692  -16.8283   20.0724 N   0  0  0  0  0  0  0  0  0  0  0  0
    6.7754  -17.5808   20.0048 C   0  0  0  0  0  0  0  0  0  0  0  0
    7.4465  -17.4023   21.1225 N   0  0  0  0  0  0  0  0  0  0  0  0
    8.6176  -14.3392   24.4416 C   0  0  0  0  0  0  0  0  0  0  0  0
    9.8132  -14.6825   24.7685 O   0  0  0  0  0  0  0  0  0  0  0  0
    7.8582  -13.5207   25.3081 N   0  0  0  0  0  0  0  0  0  0  0  0
    6.6082  -12.8814   25.0050 C   0  0  0  0  0  0  0  0  0  0  0  0
    6.3997  -11.8288   26.1084 C   0  0  0  0  0  0  0  0  0  0  0  0
    7.1083  -12.4400   27.2642 C   0  0  0  0  0  0  0  0  0  0  0  0
    8.2493  -13.2069   26.6894 C   0  0  1  0  0  0  0  0  0  0  0  0
    8.5019  -14.4465   27.4554 C   0  0  0  0  0  0  0  0  0  0  0  0
    7.9952  -15.5311   27.0801 O   0  0  0  0  0  0  0  0  0  0  0  0
    9.2904  -14.4612   28.5919 O   0  0  0  0  0  0  0  0  0  0  0  0
  2  1  1  0
  3  4  2  0
  3  2  1  0
  5  3  1  0
  6  5  1  0
  6 13  1  0
  6  7  1  1
  8  7  1  0
  9  8  2  0
 10 11  1  0
 10  9  1  0
 11 12  2  0
 12  8  1  0
 13 15  1  0
 14 13  2  0
 15 16  1  0
 15 19  1  0
 16 17  1  0
 17 18  1  0
 19 18  1  0
 20 22  1  0
 19 20  1  1
 21 20  2  0
M  END
$$$$
