GHP.pdb
     RDKit          3D

 22 23  0  0  1  0  0  0  0  0999 V2000
    4.7227  -20.6103   19.2577 N   0  0  0  0  0  0  0  0  0  0  0  0
    6.0073  -20.3001   19.8118 C   0  0  0  0  0  0  0  0  0  0  0  0
    5.8493  -19.7655   21.2123 C   0  0  0  0  0  0  0  0  0  0  0  0
    4.7961  -19.9775   21.8195 O   0  0  0  0  0  0  0  0  0  0  0  0
    6.8716  -19.0296   21.8484 N   0  0  0  0  0  0  0  0  0  0  0  0
    7.0901  -19.0103   23.2221 C   0  0  1  0  0  0  0  0  0  0  0  0
    6.7400  -20.2558   24.0275 C   0  0  0  0  0  0  0  0  0  0  0  0
    6.9464  -20.0098   25.4602 C   0  0  0  0  0  0  0  0  0  0  0  0
    7.6440  -19.1061   26.1964 C   0  0  0  0  0  0  0  0  0  0  0  0
    7.4562  -19.3486   27.5200 N   0  0  0  0  0  0  0  0  0  0  0  0
    6.6400  -20.4049   27.6325 C   0  0  0  0  0  0  0  0  0  0  0  0
    6.3337  -20.8019   26.4160 N   0  0  0  0  0  0  0  0  0  0  0  0
    8.2223  -18.2606   23.7634 C   0  0  0  0  0  0  0  0  0  0  0  0
    9.3337  -18.9059   23.8148 O   0  0  0  0  0  0  0  0  0  0  0  0
    8.1631  -16.9229   24.2157 N   0  0  0  0  0  0  0  0  0  0  0  0
    6.9779  -16.1320   24.3965 C   0  0  0  0  0  0  0  0  0  0  0  0
    7.4630  -14.6770   24.5258 C   0  0  0  0  0  0  0  0  0  0  0  0
    8.8131  -14.8477   25.1255 C   0  0  0  0  0  0  0  0  0  0  0  0
    9.3444  -16.1312   24.5862 C   0  0  1  0  0  0  0  0  0  0  0  0
   10.1544  -16.8433   25.5981 C   0  0  0  0  0  0  0  0  0  0  0  0
    9.6733  -17.8285   26.2079 O   0  0  0  0  0  0  0  0  0  0  0  0
   11.4476  -16.4613   25.9070 O   0  0  0  0  0  0  0  0  0  0  0  0
  2  1  1  0
  3  4  2  0
  3  2  1  0
  5  3  1  0
  6  5  1  0
  6 13  1  0
  6  7  1  6
  8  7  1  0
  9  8  2  0
 10 11  1  0
 10  9  1  0
 11 12  2  0
 12  8  1  0
 13 15  1  0
 14 13  2  0
 15 16  1  0
 15 19  1  0
 16 17  1  0
 17 18  1  0
 19 18  1  0
 20 22  1  0
 19 20  1  1
 21 20  2  0
M  END
$$$$
