GHP.pdb
     RDKit          3D

 22 23  0  0  1  0  0  0  0  0999 V2000
    5.7622  -19.8997   25.3579 N   0  0  0  0  0  0  0  0  0  0  0  0
    6.5572  -19.4128   24.2696 C   0  0  0  0  0  0  0  0  0  0  0  0
    6.6100  -17.9068   24.3029 C   0  0  0  0  0  0  0  0  0  0  0  0
    5.5638  -17.2671   24.1648 O   0  0  0  0  0  0  0  0  0  0  0  0
    7.8219  -17.2079   24.4877 N   0  0  0  0  0  0  0  0  0  0  0  0
    8.0711  -15.9243   24.0129 C   0  0  1  0  0  0  0  0  0  0  0  0
    8.7411  -14.9248   24.9480 C   0  0  0  0  0  0  0  0  0  0  0  0
    7.7282  -14.1209   25.6434 C   0  0  0  0  0  0  0  0  0  0  0  0
    6.3705  -14.0814   25.6636 C   0  0  0  0  0  0  0  0  0  0  0  0
    5.9516  -13.1191   26.5265 N   0  0  0  0  0  0  0  0  0  0  0  0
    7.0377  -12.5431   27.0586 C   0  0  0  0  0  0  0  0  0  0  0  0
    8.0941  -13.1316   26.5400 N   0  0  0  0  0  0  0  0  0  0  0  0
    8.4093  -15.7277   22.6043 C   0  0  0  0  0  0  0  0  0  0  0  0
    8.9932  -16.7229   22.0359 O   0  0  0  0  0  0  0  0  0  0  0  0
    8.1424  -14.5525   21.8660 N   0  0  0  0  0  0  0  0  0  0  0  0
    7.4362  -13.3914   22.3308 C   0  0  0  0  0  0  0  0  0  0  0  0
    7.0883  -12.5817   21.0688 C   0  0  0  0  0  0  0  0  0  0  0  0
    8.2022  -12.9375   20.1499 C   0  0  0  0  0  0  0  0  0  0  0  0
    8.5730  -14.3432   20.4766 C   0  0  1  0  0  0  0  0  0  0  0  0
   10.0302  -14.5580   20.3432 C   0  0  0  0  0  0  0  0  0  0  0  0
   10.7609  -14.5594   21.3630 O   0  0  0  0  0  0  0  0  0  0  0  0
   10.6344  -14.7620   19.1157 O   0  0  0  0  0  0  0  0  0  0  0  0
  2  1  1  0
  3  4  2  0
  3  2  1  0
  5  3  1  0
  6  5  1  0
  6 13  1  0
  6  7  1  1
  8  7  1  0
  9  8  2  0
 10 11  1  0
 10  9  1  0
 11 12  2  0
 12  8  1  0
 13 15  1  0
 14 13  2  0
 15 16  1  0
 15 19  1  0
 16 17  1  0
 17 18  1  0
 19 18  1  0
 20 22  1  0
 19 20  1  1
 21 20  2  0
M  END
$$$$
