GHP.pdb
     RDKit          3D

 22 23  0  0  1  0  0  0  0  0999 V2000
   11.6277  -16.7336   20.1824 N   0  0  0  0  0  0  0  0  0  0  0  0
   10.2200  -16.6425   20.4347 C   0  0  0  0  0  0  0  0  0  0  0  0
    9.9110  -15.3693   21.1799 C   0  0  0  0  0  0  0  0  0  0  0  0
    9.9820  -14.2922   20.5816 O   0  0  0  0  0  0  0  0  0  0  0  0
    9.5430  -15.3741   22.5422 N   0  0  0  0  0  0  0  0  0  0  0  0
    8.3857  -14.7904   23.0475 C   0  0  1  0  0  0  0  0  0  0  0  0
    7.1510  -14.7431   22.1556 C   0  0  0  0  0  0  0  0  0  0  0  0
    7.4718  -14.0974   20.8765 C   0  0  0  0  0  0  0  0  0  0  0  0
    7.9062  -12.8681   20.4951 C   0  0  0  0  0  0  0  0  0  0  0  0
    8.0520  -12.8308   19.1448 N   0  0  0  0  0  0  0  0  0  0  0  0
    7.7123  -14.0330   18.6613 C   0  0  0  0  0  0  0  0  0  0  0  0
    7.3675  -14.7888   19.6817 N   0  0  0  0  0  0  0  0  0  0  0  0
    8.0768  -14.9127   24.4711 C   0  0  0  0  0  0  0  0  0  0  0  0
    8.2901  -16.0739   24.9813 O   0  0  0  0  0  0  0  0  0  0  0  0
    7.5761  -13.8686   25.2815 N   0  0  0  0  0  0  0  0  0  0  0  0
    7.1712  -12.5626   24.8417 C   0  0  0  0  0  0  0  0  0  0  0  0
    7.0767  -11.7041   26.1158 C   0  0  0  0  0  0  0  0  0  0  0  0
    6.7196  -12.7126   27.1488 C   0  0  0  0  0  0  0  0  0  0  0  0
    7.3839  -13.9803   26.7341 C   0  0  1  0  0  0  0  0  0  0  0  0
    6.5479  -15.1555   27.0618 C   0  0  0  0  0  0  0  0  0  0  0  0
    5.7099  -15.5815   26.2310 O   0  0  0  0  0  0  0  0  0  0  0  0
    6.6534  -15.8192   28.2709 O   0  0  0  0  0  0  0  0  0  0  0  0
  2  1  1  0
  3  4  2  0
  3  2  1  0
  5  3  1  0
  6  5  1  0
  6 13  1  0
  6  7  1  6
  8  7  1  0
  9  8  2  0
 10 11  1  0
 10  9  1  0
 11 12  2  0
 12  8  1  0
 13 15  1  0
 14 13  2  0
 15 16  1  0
 15 19  1  0
 16 17  1  0
 17 18  1  0
 19 18  1  0
 20 22  1  0
 19 20  1  6
 21 20  2  0
M  END
$$$$
