KME.pdb
     RDKit          3D

 27 26  0  0  1  0  0  0  0  0999 V2000
    6.7861  -15.8662   20.7259 N   0  0  0  0  0  0  0  0  0  0  0  0
    7.8852  -14.9466   20.7832 C   0  0  1  0  0  0  0  0  0  0  0  0
    7.5457  -13.6883   20.0556 C   0  0  0  0  0  0  0  0  0  0  0  0
    7.3464  -14.0682   18.5970 C   0  0  0  0  0  0  0  0  0  0  0  0
    8.2148  -13.2824   17.6518 C   0  0  0  0  0  0  0  0  0  0  0  0
    7.7263  -13.5759   16.2291 C   0  0  0  0  0  0  0  0  0  0  0  0
    8.5168  -12.8904   15.2477 N   0  0  0  0  0  0  0  0  0  0  0  0
    8.4751  -14.7887   22.1059 C   0  0  0  0  0  0  0  0  0  0  0  0
    9.6179  -14.2890   22.3234 O   0  0  0  0  0  0  0  0  0  0  0  0
    5.7066  -10.7474   26.5913 C   0  0  0  0  0  0  0  0  0  0  0  0
    6.1111  -12.5051   26.8035 S   0  0  0  0  0  0  0  0  0  0  0  0
    7.0718  -13.0729   25.3619 C   0  0  0  0  0  0  0  0  0  0  0  0
    7.4279  -14.5089   25.6126 C   0  0  0  0  0  0  0  0  0  0  0  0
    8.3199  -15.1043   24.5869 C   0  0  2  0  0  0  0  0  0  0  0  0
    7.7723  -15.2088   23.2598 N   0  0  0  0  0  0  0  0  0  0  0  0
    8.9844  -16.3796   25.0119 C   0  0  0  0  0  0  0  0  0  0  0  0
    8.4323  -17.5079   24.9369 O   0  0  0  0  0  0  0  0  0  0  0  0
   10.2956  -16.2756   25.5126 N   0  0  0  0  0  0  0  0  0  0  0  0
   11.0902  -17.4256   25.9934 C   0  0  1  0  0  0  0  0  0  0  0  0
   12.4921  -17.2599   25.5652 C   0  0  0  0  0  0  0  0  0  0  0  0
   12.6916  -17.0319   24.1166 C   0  0  0  0  0  0  0  0  0  0  0  0
   14.0868  -16.8383   23.7353 C   0  0  0  0  0  0  0  0  0  0  0  0
   14.9866  -16.7942   24.6394 O   0  0  0  0  0  0  0  0  0  0  0  0
   10.8774  -17.5830   27.4037 C   0  0  0  0  0  0  0  0  0  0  0  0
   10.1390  -16.7138   28.2216 O   0  0  0  0  0  0  0  0  0  0  0  0
   14.5030  -16.6952   22.4212 O   0  0  0  0  0  0  0  0  0  0  0  0
   11.4023  -18.5826   28.0000 O   0  0  0  0  0  0  0  0  0  0  0  0
  2  1  1  1
  2  8  1  0
  3  2  1  0
  3  4  1  0
  4  5  1  0
  5  6  1  0
  7  6  1  0
  8 15  1  0
  8  9  2  0
 10 11  1  0
 12 13  1  0
 12 11  1  0
 14 13  1  1
 14 16  1  0
 15 14  1  0
 16 17  2  0
 18 19  1  0
 18 16  1  0
 19 24  1  0
 19 20  1  1
 21 20  1  0
 22 21  1  0
 23 22  2  0
 24 25  1  0
 26 22  1  0
 27 24  2  0
M  END
$$$$
