KME.pdb
     RDKit          3D

 27 26  0  0  1  0  0  0  0  0999 V2000
    6.7661  -15.4772   20.0437 N   0  0  0  0  0  0  0  0  0  0  0  0
    7.9501  -14.6870   20.2185 C   0  0  1  0  0  0  0  0  0  0  0  0
    7.8710  -13.4466   19.3921 C   0  0  0  0  0  0  0  0  0  0  0  0
    7.3922  -13.8711   18.0130 C   0  0  0  0  0  0  0  0  0  0  0  0
    8.3252  -13.4617   16.9053 C   0  0  0  0  0  0  0  0  0  0  0  0
    7.7227  -13.9649   15.5890 C   0  0  0  0  0  0  0  0  0  0  0  0
    8.5234  -13.5825   14.4618 N   0  0  0  0  0  0  0  0  0  0  0  0
    8.3643  -14.5144   21.6045 C   0  0  0  0  0  0  0  0  0  0  0  0
    9.5186  -14.1378   21.9634 O   0  0  0  0  0  0  0  0  0  0  0  0
    7.6239  -11.8855   28.5457 C   0  0  0  0  0  0  0  0  0  0  0  0
    7.1200  -12.0752   26.8113 S   0  0  0  0  0  0  0  0  0  0  0  0
    7.2258  -13.8357   26.3500 C   0  0  0  0  0  0  0  0  0  0  0  0
    6.8302  -13.9333   24.9058 C   0  0  0  0  0  0  0  0  0  0  0  0
    7.8201  -14.6305   24.0477 C   0  0  2  0  0  0  0  0  0  0  0  0
    7.4607  -14.7755   22.6614 N   0  0  0  0  0  0  0  0  0  0  0  0
    8.3375  -15.9158   24.6213 C   0  0  0  0  0  0  0  0  0  0  0  0
    7.6239  -16.9392   24.7852 O   0  0  0  0  0  0  0  0  0  0  0  0
    9.6977  -15.9478   24.9812 N   0  0  0  0  0  0  0  0  0  0  0  0
   10.3869  -17.1478   25.5008 C   0  0  1  0  0  0  0  0  0  0  0  0
   11.5828  -17.4146   24.6793 C   0  0  0  0  0  0  0  0  0  0  0  0
   12.4926  -16.2631   24.4881 C   0  0  0  0  0  0  0  0  0  0  0  0
   13.6829  -16.5741   23.7033 C   0  0  0  0  0  0  0  0  0  0  0  0
   13.8387  -17.7510   23.2346 O   0  0  0  0  0  0  0  0  0  0  0  0
   10.6142  -16.9829   26.9080 C   0  0  0  0  0  0  0  0  0  0  0  0
   11.0946  -17.9719   27.7804 O   0  0  0  0  0  0  0  0  0  0  0  0
   14.6774  -15.6481   23.4312 O   0  0  0  0  0  0  0  0  0  0  0  0
   10.3548  -15.8553   27.4479 O   0  0  0  0  0  0  0  0  0  0  0  0
  2  1  1  1
  2  8  1  0
  3  2  1  0
  3  4  1  0
  4  5  1  0
  5  6  1  0
  7  6  1  0
  8 15  1  0
  8  9  2  0
 10 11  1  0
 12 13  1  0
 12 11  1  0
 14 13  1  1
 14 16  1  0
 15 14  1  0
 16 17  2  0
 18 19  1  0
 18 16  1  0
 19 24  1  0
 19 20  1  6
 21 20  1  0
 22 21  1  0
 23 22  2  0
 24 25  1  0
 26 22  1  0
 27 24  2  0
M  END
$$$$
