KME.pdb
     RDKit          3D

 27 26  0  0  1  0  0  0  0  0999 V2000
    6.9282  -16.6517   20.2683 N   0  0  0  0  0  0  0  0  0  0  0  0
    8.3393  -16.4210   20.3794 C   0  0  1  0  0  0  0  0  0  0  0  0
    8.8568  -15.7720   19.1388 C   0  0  0  0  0  0  0  0  0  0  0  0
    8.4447  -16.6617   17.9768 C   0  0  0  0  0  0  0  0  0  0  0  0
    8.9498  -16.1758   16.6450 C   0  0  0  0  0  0  0  0  0  0  0  0
    8.3258  -17.0667   15.5653 C   0  0  0  0  0  0  0  0  0  0  0  0
    8.8307  -16.7474   14.2610 N   0  0  0  0  0  0  0  0  0  0  0  0
    8.7589  -15.8275   21.6419 C   0  0  0  0  0  0  0  0  0  0  0  0
    9.9650  -15.6974   22.0042 O   0  0  0  0  0  0  0  0  0  0  0  0
    7.1256  -11.1088   27.5300 C   0  0  0  0  0  0  0  0  0  0  0  0
    6.3180  -12.3408   26.4681 S   0  0  0  0  0  0  0  0  0  0  0  0
    7.5575  -13.5621   25.9245 C   0  0  0  0  0  0  0  0  0  0  0  0
    7.1724  -13.9879   24.5382 C   0  0  0  0  0  0  0  0  0  0  0  0
    8.1455  -14.9000   23.8875 C   0  0  2  0  0  0  0  0  0  0  0  0
    7.7984  -15.3526   22.5659 N   0  0  0  0  0  0  0  0  0  0  0  0
    8.6059  -16.0326   24.7557 C   0  0  0  0  0  0  0  0  0  0  0  0
    7.8305  -16.9038   25.2283 O   0  0  0  0  0  0  0  0  0  0  0  0
    9.9837  -16.0988   25.0346 N   0  0  0  0  0  0  0  0  0  0  0  0
   10.6414  -17.2541   25.6809 C   0  0  1  0  0  0  0  0  0  0  0  0
   11.9162  -17.5342   24.9934 C   0  0  0  0  0  0  0  0  0  0  0  0
   13.0176  -16.5905   25.2873 C   0  0  0  0  0  0  0  0  0  0  0  0
   14.0834  -16.5970   24.2905 C   0  0  0  0  0  0  0  0  0  0  0  0
   14.5817  -17.7081   23.9083 O   0  0  0  0  0  0  0  0  0  0  0  0
   10.7278  -17.0124   27.0927 C   0  0  0  0  0  0  0  0  0  0  0  0
   10.3790  -15.8173   27.7408 O   0  0  0  0  0  0  0  0  0  0  0  0
   14.5996  -15.4433   23.7220 O   0  0  0  0  0  0  0  0  0  0  0  0
   11.1684  -17.9391   27.8525 O   0  0  0  0  0  0  0  0  0  0  0  0
  2  1  1  6
  2  8  1  0
  3  2  1  0
  3  4  1  0
  4  5  1  0
  5  6  1  0
  7  6  1  0
  8 15  1  0
  8  9  2  0
 10 11  1  0
 12 13  1  0
 12 11  1  0
 14 13  1  1
 14 16  1  0
 15 14  1  0
 16 17  2  0
 18 19  1  0
 18 16  1  0
 19 24  1  0
 19 20  1  6
 21 20  1  0
 22 21  1  0
 23 22  2  0
 24 25  1  0
 26 22  1  0
 27 24  2  0
M  END
$$$$
