KME.pdb
     RDKit          3D

 27 26  0  0  1  0  0  0  0  0999 V2000
    7.7460  -17.2002   20.2548 N   0  0  0  0  0  0  0  0  0  0  0  0
    9.1293  -17.0978   20.6197 C   0  0  1  0  0  0  0  0  0  0  0  0
    9.9415  -16.6519   19.4495 C   0  0  0  0  0  0  0  0  0  0  0  0
    9.4541  -17.4501   18.2507 C   0  0  0  0  0  0  0  0  0  0  0  0
   10.2367  -17.1776   16.9944 C   0  0  0  0  0  0  0  0  0  0  0  0
    9.5459  -17.9301   15.8518 C   0  0  0  0  0  0  0  0  0  0  0  0
   10.1646  -17.6531   14.5875 N   0  0  0  0  0  0  0  0  0  0  0  0
    9.3745  -16.4052   21.8776 C   0  0  0  0  0  0  0  0  0  0  0  0
   10.5151  -16.2776   22.4123 O   0  0  0  0  0  0  0  0  0  0  0  0
    6.6074  -11.4862   27.4202 C   0  0  0  0  0  0  0  0  0  0  0  0
    6.3010  -12.4113   25.8877 S   0  0  0  0  0  0  0  0  0  0  0  0
    7.6647  -13.5916   25.6223 C   0  0  0  0  0  0  0  0  0  0  0  0
    7.4164  -14.2555   24.2997 C   0  0  0  0  0  0  0  0  0  0  0  0
    8.4746  -15.2112   23.8884 C   0  0  2  0  0  0  0  0  0  0  0  0
    8.3044  -15.8218   22.5961 N   0  0  0  0  0  0  0  0  0  0  0  0
    8.8323  -16.2240   24.9348 C   0  0  0  0  0  0  0  0  0  0  0  0
    8.0577  -17.1452   25.3019 O   0  0  0  0  0  0  0  0  0  0  0  0
   10.1101  -16.1135   25.5142 N   0  0  0  0  0  0  0  0  0  0  0  0
   10.6697  -17.0893   26.4732 C   0  0  1  0  0  0  0  0  0  0  0  0
   12.1099  -17.2624   26.2049 C   0  0  0  0  0  0  0  0  0  0  0  0
   12.4433  -18.1746   25.0883 C   0  0  0  0  0  0  0  0  0  0  0  0
   13.8764  -18.3456   24.8723 C   0  0  0  0  0  0  0  0  0  0  0  0
   14.7044  -17.7714   25.6558 O   0  0  0  0  0  0  0  0  0  0  0  0
   10.3219  -16.6862   27.8058 C   0  0  0  0  0  0  0  0  0  0  0  0
   10.5204  -17.4469   28.9685 O   0  0  0  0  0  0  0  0  0  0  0  0
   14.4044  -19.1100   23.8441 O   0  0  0  0  0  0  0  0  0  0  0  0
    9.7703  -15.5485   27.9831 O   0  0  0  0  0  0  0  0  0  0  0  0
  2  1  1  6
  2  8  1  0
  3  2  1  0
  3  4  1  0
  4  5  1  0
  5  6  1  0
  7  6  1  0
  8 15  1  0
  8  9  2  0
 10 11  1  0
 12 13  1  0
 12 11  1  0
 14 13  1  1
 14 16  1  0
 15 14  1  0
 16 17  2  0
 18 19  1  0
 18 16  1  0
 19 24  1  0
 19 20  1  1
 21 20  1  0
 22 21  1  0
 23 22  2  0
 24 25  1  0
 26 22  1  0
 27 24  2  0
M  END
$$$$
