KME.pdb
     RDKit          3D

 27 26  0  0  1  0  0  0  0  0999 V2000
    6.9656  -15.9160   20.1867 N   0  0  0  0  0  0  0  0  0  0  0  0
    8.1016  -15.0410   20.2185 C   0  0  1  0  0  0  0  0  0  0  0  0
    7.8446  -13.8288   19.3866 C   0  0  0  0  0  0  0  0  0  0  0  0
    8.0071  -14.2531   17.9356 C   0  0  0  0  0  0  0  0  0  0  0  0
    7.8507  -13.1172   16.9608 C   0  0  0  0  0  0  0  0  0  0  0  0
    8.0508  -13.6902   15.5534 C   0  0  0  0  0  0  0  0  0  0  0  0
    7.7914  -12.7070   14.5415 N   0  0  0  0  0  0  0  0  0  0  0  0
    8.6498  -14.8076   21.5480 C   0  0  0  0  0  0  0  0  0  0  0  0
    9.8341  -14.4217   21.7746 O   0  0  0  0  0  0  0  0  0  0  0  0
    5.2200  -12.6368   26.7258 C   0  0  0  0  0  0  0  0  0  0  0  0
    6.9498  -12.0958   26.8409 S   0  0  0  0  0  0  0  0  0  0  0  0
    8.0264  -13.3926   26.1462 C   0  0  0  0  0  0  0  0  0  0  0  0
    7.5089  -13.6998   24.7716 C   0  0  0  0  0  0  0  0  0  0  0  0
    8.3097  -14.7041   24.0284 C   0  0  2  0  0  0  0  0  0  0  0  0
    7.8536  -15.0149   22.6990 N   0  0  0  0  0  0  0  0  0  0  0  0
    8.6218  -15.9455   24.8094 C   0  0  0  0  0  0  0  0  0  0  0  0
    7.7779  -16.8498   25.0408 O   0  0  0  0  0  0  0  0  0  0  0  0
    9.9373  -16.0780   25.2915 N   0  0  0  0  0  0  0  0  0  0  0  0
   10.4135  -17.2283   26.0884 C   0  0  1  0  0  0  0  0  0  0  0  0
   11.7578  -17.6183   25.6227 C   0  0  0  0  0  0  0  0  0  0  0  0
   11.8221  -18.1561   24.2454 C   0  0  0  0  0  0  0  0  0  0  0  0
   13.1619  -18.5589   23.8301 C   0  0  0  0  0  0  0  0  0  0  0  0
   13.8300  -17.8078   23.0436 O   0  0  0  0  0  0  0  0  0  0  0  0
   10.2985  -16.9097   27.4829 C   0  0  0  0  0  0  0  0  0  0  0  0
   10.1779  -17.8395   28.5272 O   0  0  0  0  0  0  0  0  0  0  0  0
   13.7656  -19.7347   24.2467 O   0  0  0  0  0  0  0  0  0  0  0  0
   10.2886  -15.6832   27.8377 O   0  0  0  0  0  0  0  0  0  0  0  0
  2  1  1  1
  2  8  1  0
  3  2  1  0
  3  4  1  0
  4  5  1  0
  5  6  1  0
  7  6  1  0
  8 15  1  0
  8  9  2  0
 10 11  1  0
 12 13  1  0
 12 11  1  0
 14 13  1  1
 14 16  1  0
 15 14  1  0
 16 17  2  0
 18 19  1  0
 18 16  1  0
 19 24  1  0
 19 20  1  6
 21 20  1  0
 22 21  1  0
 23 22  2  0
 24 25  1  0
 26 22  1  0
 27 24  2  0
M  END
$$$$
