KME.pdb
     RDKit          3D

 27 26  0  0  1  0  0  0  0  0999 V2000
    7.4235  -15.7789   19.8870 N   0  0  0  0  0  0  0  0  0  0  0  0
    8.6832  -15.1661   20.1944 C   0  0  1  0  0  0  0  0  0  0  0  0
    8.9475  -14.0306   19.2623 C   0  0  0  0  0  0  0  0  0  0  0  0
    8.0630  -14.2505   18.0453 C   0  0  0  0  0  0  0  0  0  0  0  0
    8.1759  -13.1546   17.0199 C   0  0  0  0  0  0  0  0  0  0  0  0
    7.2779  -13.5380   15.8386 C   0  0  0  0  0  0  0  0  0  0  0  0
    7.8435  -14.6105   15.0720 N   0  0  0  0  0  0  0  0  0  0  0  0
    8.8995  -14.9028   21.6108 C   0  0  0  0  0  0  0  0  0  0  0  0
   10.0280  -14.6503   22.1262 O   0  0  0  0  0  0  0  0  0  0  0  0
    7.3518  -11.4257   27.9890 C   0  0  0  0  0  0  0  0  0  0  0  0
    6.7897  -11.9117   26.3319 S   0  0  0  0  0  0  0  0  0  0  0  0
    7.1821  -13.6715   26.0627 C   0  0  0  0  0  0  0  0  0  0  0  0
    6.9078  -13.9639   24.6167 C   0  0  0  0  0  0  0  0  0  0  0  0
    7.9797  -14.7314   23.9353 C   0  0  2  0  0  0  0  0  0  0  0  0
    7.8142  -14.9226   22.5183 N   0  0  0  0  0  0  0  0  0  0  0  0
    8.3579  -16.0085   24.6243 C   0  0  0  0  0  0  0  0  0  0  0  0
    7.5992  -17.0100   24.6939 O   0  0  0  0  0  0  0  0  0  0  0  0
    9.6366  -16.0589   25.2099 N   0  0  0  0  0  0  0  0  0  0  0  0
   10.2539  -17.2922   25.7416 C   0  0  1  0  0  0  0  0  0  0  0  0
   11.5940  -17.4592   25.1479 C   0  0  0  0  0  0  0  0  0  0  0  0
   12.3617  -18.6290   25.6302 C   0  0  0  0  0  0  0  0  0  0  0  0
   13.6947  -18.7424   25.0474 C   0  0  0  0  0  0  0  0  0  0  0  0
   14.1095  -17.8418   24.2437 O   0  0  0  0  0  0  0  0  0  0  0  0
   10.2003  -17.2605   27.1752 C   0  0  0  0  0  0  0  0  0  0  0  0
   10.2863  -18.3765   28.0219 O   0  0  0  0  0  0  0  0  0  0  0  0
   14.5563  -19.7932   25.3191 O   0  0  0  0  0  0  0  0  0  0  0  0
   10.0488  -16.1373   27.7631 O   0  0  0  0  0  0  0  0  0  0  0  0
  2  1  1  1
  2  8  1  0
  3  2  1  0
  3  4  1  0
  4  5  1  0
  5  6  1  0
  7  6  1  0
  8 15  1  0
  8  9  2  0
 10 11  1  0
 12 13  1  0
 12 11  1  0
 14 13  1  1
 14 16  1  0
 15 14  1  0
 16 17  2  0
 18 19  1  0
 18 16  1  0
 19 24  1  0
 19 20  1  1
 21 20  1  0
 22 21  1  0
 23 22  2  0
 24 25  1  0
 26 22  1  0
 27 24  2  0
M  END
$$$$
