KME.pdb
     RDKit          3D

 27 26  0  0  1  0  0  0  0  0999 V2000
    7.6050  -16.7563   20.7382 N   0  0  0  0  0  0  0  0  0  0  0  0
    8.9874  -16.4048   20.8882 C   0  0  1  0  0  0  0  0  0  0  0  0
    9.4856  -15.7266   19.6555 C   0  0  0  0  0  0  0  0  0  0  0  0
    8.2945  -15.0091   19.0407 C   0  0  0  0  0  0  0  0  0  0  0  0
    8.6365  -14.2529   17.7852 C   0  0  0  0  0  0  0  0  0  0  0  0
    7.3659  -13.5298   17.3252 C   0  0  0  0  0  0  0  0  0  0  0  0
    7.5882  -12.7896   16.1166 N   0  0  0  0  0  0  0  0  0  0  0  0
    9.3159  -15.7648   22.1551 C   0  0  0  0  0  0  0  0  0  0  0  0
   10.4899  -15.4593   22.5177 O   0  0  0  0  0  0  0  0  0  0  0  0
    5.2901  -12.4917   26.6486 C   0  0  0  0  0  0  0  0  0  0  0  0
    7.0055  -11.8991   26.5821 S   0  0  0  0  0  0  0  0  0  0  0  0
    8.1089  -13.3083   26.2356 C   0  0  0  0  0  0  0  0  0  0  0  0
    7.7386  -13.8295   24.8781 C   0  0  0  0  0  0  0  0  0  0  0  0
    8.5751  -14.9625   24.4104 C   0  0  2  0  0  0  0  0  0  0  0  0
    8.2970  -15.4451   23.0831 N   0  0  0  0  0  0  0  0  0  0  0  0
    8.6948  -16.0885   25.3934 C   0  0  0  0  0  0  0  0  0  0  0  0
    7.7294  -16.8234   25.7272 O   0  0  0  0  0  0  0  0  0  0  0  0
    9.9677  -16.3117   25.9507 N   0  0  0  0  0  0  0  0  0  0  0  0
   10.2987  -17.4590   26.8219 C   0  0  1  0  0  0  0  0  0  0  0  0
   11.5208  -18.1142   26.3183 C   0  0  0  0  0  0  0  0  0  0  0  0
   11.4501  -18.6057   24.9242 C   0  0  0  0  0  0  0  0  0  0  0  0
   12.6990  -19.1818   24.4365 C   0  0  0  0  0  0  0  0  0  0  0  0
   13.3070  -20.0555   25.1407 O   0  0  0  0  0  0  0  0  0  0  0  0
   10.3399  -17.0133   28.1853 C   0  0  0  0  0  0  0  0  0  0  0  0
   10.1507  -15.6923   28.6201 O   0  0  0  0  0  0  0  0  0  0  0  0
   13.2783  -18.8286   23.2281 O   0  0  0  0  0  0  0  0  0  0  0  0
   10.5803  -17.8641   29.1065 O   0  0  0  0  0  0  0  0  0  0  0  0
  2  1  1  6
  2  8  1  0
  3  2  1  0
  3  4  1  0
  4  5  1  0
  5  6  1  0
  7  6  1  0
  8 15  1  0
  8  9  2  0
 10 11  1  0
 12 13  1  0
 12 11  1  0
 14 13  1  1
 14 16  1  0
 15 14  1  0
 16 17  2  0
 18 19  1  0
 18 16  1  0
 19 24  1  0
 19 20  1  6
 21 20  1  0
 22 21  1  0
 23 22  2  0
 24 25  1  0
 26 22  1  0
 27 24  2  0
M  END
$$$$
