KME.pdb
     RDKit          3D

 27 26  0  0  1  0  0  0  0  0999 V2000
    6.7955  -15.7790   20.3870 N   0  0  0  0  0  0  0  0  0  0  0  0
    7.9531  -14.9539   20.5774 C   0  0  1  0  0  0  0  0  0  0  0  0
    7.8099  -13.6780   19.8163 C   0  0  0  0  0  0  0  0  0  0  0  0
    7.4398  -14.0591   18.3917 C   0  0  0  0  0  0  0  0  0  0  0  0
    8.1429  -13.2304   17.3506 C   0  0  0  0  0  0  0  0  0  0  0  0
    7.6437  -13.6976   15.9790 C   0  0  0  0  0  0  0  0  0  0  0  0
    8.3015  -12.9996   14.9121 N   0  0  0  0  0  0  0  0  0  0  0  0
    8.3912  -14.8346   21.9617 C   0  0  0  0  0  0  0  0  0  0  0  0
    9.5225  -14.3909   22.3171 O   0  0  0  0  0  0  0  0  0  0  0  0
    6.1699  -10.7716   26.2752 C   0  0  0  0  0  0  0  0  0  0  0  0
    6.9106  -12.4209   26.4458 S   0  0  0  0  0  0  0  0  0  0  0  0
    6.1857  -13.5311   25.1946 C   0  0  0  0  0  0  0  0  0  0  0  0
    6.8373  -14.8714   25.3701 C   0  0  0  0  0  0  0  0  0  0  0  0
    7.9288  -15.1504   24.4041 C   0  0  2  0  0  0  0  0  0  0  0  0
    7.5403  -15.2305   23.0204 N   0  0  0  0  0  0  0  0  0  0  0  0
    8.8217  -16.2904   24.7937 C   0  0  0  0  0  0  0  0  0  0  0  0
    8.4482  -17.4920   24.8031 O   0  0  0  0  0  0  0  0  0  0  0  0
   10.1417  -15.9664   25.1588 N   0  0  0  0  0  0  0  0  0  0  0  0
   11.1710  -16.9672   25.5104 C   0  0  1  0  0  0  0  0  0  0  0  0
   12.4704  -16.5428   24.9555 C   0  0  0  0  0  0  0  0  0  0  0  0
   13.4034  -17.6390   24.6120 C   0  0  0  0  0  0  0  0  0  0  0  0
   14.6518  -17.1852   24.0079 C   0  0  0  0  0  0  0  0  0  0  0  0
   14.8797  -15.9342   23.8969 O   0  0  0  0  0  0  0  0  0  0  0  0
   11.1360  -17.1950   26.9268 C   0  0  0  0  0  0  0  0  0  0  0  0
   10.3928  -16.4516   27.8567 O   0  0  0  0  0  0  0  0  0  0  0  0
   15.6264  -18.0500   23.5358 O   0  0  0  0  0  0  0  0  0  0  0  0
   11.8404  -18.1397   27.4183 O   0  0  0  0  0  0  0  0  0  0  0  0
  2  1  1  1
  2  8  1  0
  3  2  1  0
  3  4  1  0
  4  5  1  0
  5  6  1  0
  7  6  1  0
  8 15  1  0
  8  9  2  0
 10 11  1  0
 12 13  1  0
 12 11  1  0
 14 13  1  1
 14 16  1  0
 15 14  1  0
 16 17  2  0
 18 19  1  0
 18 16  1  0
 19 24  1  0
 19 20  1  1
 21 20  1  0
 22 21  1  0
 23 22  2  0
 24 25  1  0
 26 22  1  0
 27 24  2  0
M  END
$$$$
