KME.pdb
     RDKit          3D

 27 26  0  0  1  0  0  0  0  0999 V2000
    6.9690  -16.0176   20.3104 N   0  0  0  0  0  0  0  0  0  0  0  0
    7.7848  -14.8395   20.3702 C   0  0  1  0  0  0  0  0  0  0  0  0
    7.0913  -13.6956   19.7081 C   0  0  0  0  0  0  0  0  0  0  0  0
    7.9661  -13.2731   18.5386 C   0  0  0  0  0  0  0  0  0  0  0  0
    7.4177  -13.6923   17.2012 C   0  0  0  0  0  0  0  0  0  0  0  0
    8.3757  -13.1652   16.1273 C   0  0  0  0  0  0  0  0  0  0  0  0
    8.0429  -13.6736   14.8278 N   0  0  0  0  0  0  0  0  0  0  0  0
    8.3677  -14.5718   21.6782 C   0  0  0  0  0  0  0  0  0  0  0  0
    9.4976  -14.0299   21.8593 O   0  0  0  0  0  0  0  0  0  0  0  0
    6.3820  -11.2434   26.2281 C   0  0  0  0  0  0  0  0  0  0  0  0
    6.9627  -12.5359   27.3640 S   0  0  0  0  0  0  0  0  0  0  0  0
    8.0349  -13.6932   26.4505 C   0  0  0  0  0  0  0  0  0  0  0  0
    7.4480  -13.8411   25.0775 C   0  0  0  0  0  0  0  0  0  0  0  0
    8.2229  -14.7282   24.1749 C   0  0  2  0  0  0  0  0  0  0  0  0
    7.6729  -14.9241   22.8592 N   0  0  0  0  0  0  0  0  0  0  0  0
    8.6429  -16.0266   24.7966 C   0  0  0  0  0  0  0  0  0  0  0  0
    7.8540  -16.9857   24.9995 O   0  0  0  0  0  0  0  0  0  0  0  0
    9.9979  -16.1486   25.1568 N   0  0  0  0  0  0  0  0  0  0  0  0
   10.6245  -17.4119   25.6002 C   0  0  1  0  0  0  0  0  0  0  0  0
   11.9478  -17.5474   24.9624 C   0  0  0  0  0  0  0  0  0  0  0  0
   12.7218  -18.7468   25.3530 C   0  0  0  0  0  0  0  0  0  0  0  0
   14.0102  -18.8646   24.6779 C   0  0  0  0  0  0  0  0  0  0  0  0
   15.0858  -18.8407   25.3647 O   0  0  0  0  0  0  0  0  0  0  0  0
   10.6089  -17.4625   27.0342 C   0  0  0  0  0  0  0  0  0  0  0  0
   10.4809  -18.6248   27.8103 O   0  0  0  0  0  0  0  0  0  0  0  0
   14.1393  -19.0027   23.3051 O   0  0  0  0  0  0  0  0  0  0  0  0
   10.7045  -16.3724   27.6920 O   0  0  0  0  0  0  0  0  0  0  0  0
  2  1  1  1
  2  8  1  0
  3  2  1  0
  3  4  1  0
  4  5  1  0
  5  6  1  0
  7  6  1  0
  8 15  1  0
  8  9  2  0
 10 11  1  0
 12 13  1  0
 12 11  1  0
 14 13  1  1
 14 16  1  0
 15 14  1  0
 16 17  2  0
 18 19  1  0
 18 16  1  0
 19 24  1  0
 19 20  1  1
 21 20  1  0
 22 21  1  0
 23 22  2  0
 24 25  1  0
 26 22  1  0
 27 24  2  0
M  END
$$$$
