KME.pdb
     RDKit          3D

 27 26  0  0  1  0  0  0  0  0999 V2000
    7.8770  -15.2349   19.0353 N   0  0  0  0  0  0  0  0  0  0  0  0
    7.6034  -15.9906   20.2232 C   0  0  1  0  0  0  0  0  0  0  0  0
    7.9203  -17.4325   20.0036 C   0  0  0  0  0  0  0  0  0  0  0  0
    6.9069  -17.9534   18.9970 C   0  0  0  0  0  0  0  0  0  0  0  0
    7.0383  -19.4281   18.7267 C   0  0  0  0  0  0  0  0  0  0  0  0
    5.8783  -19.8312   17.8097 C   0  0  0  0  0  0  0  0  0  0  0  0
    5.9219  -21.2282   17.4866 N   0  0  0  0  0  0  0  0  0  0  0  0
    8.1155  -15.3964   21.4508 C   0  0  0  0  0  0  0  0  0  0  0  0
    9.3450  -15.2455   21.7126 O   0  0  0  0  0  0  0  0  0  0  0  0
    6.6758  -11.0286   27.8558 C   0  0  0  0  0  0  0  0  0  0  0  0
    5.9907  -11.9673   26.4602 S   0  0  0  0  0  0  0  0  0  0  0  0
    7.3306  -12.9131   25.6642 C   0  0  0  0  0  0  0  0  0  0  0  0
    6.7226  -13.6336   24.4968 C   0  0  0  0  0  0  0  0  0  0  0  0
    7.6744  -14.4878   23.7440 C   0  0  2  0  0  0  0  0  0  0  0  0
    7.2265  -14.9451   22.4547 N   0  0  0  0  0  0  0  0  0  0  0  0
    8.2721  -15.6033   24.5484 C   0  0  0  0  0  0  0  0  0  0  0  0
    7.6749  -16.6855   24.7844 O   0  0  0  0  0  0  0  0  0  0  0  0
    9.5719  -15.3995   25.0479 N   0  0  0  0  0  0  0  0  0  0  0  0
   10.4538  -16.4860   25.5242 C   0  0  1  0  0  0  0  0  0  0  0  0
   11.8125  -16.2787   24.9881 C   0  0  0  0  0  0  0  0  0  0  0  0
   12.8284  -17.2577   25.4350 C   0  0  0  0  0  0  0  0  0  0  0  0
   14.1743  -16.9782   24.9451 C   0  0  0  0  0  0  0  0  0  0  0  0
   14.3881  -15.9247   24.2569 O   0  0  0  0  0  0  0  0  0  0  0  0
   10.3486  -16.5805   26.9522 C   0  0  0  0  0  0  0  0  0  0  0  0
   10.6640  -17.7104   27.7226 O   0  0  0  0  0  0  0  0  0  0  0  0
   15.2585  -17.8069   25.1865 O   0  0  0  0  0  0  0  0  0  0  0  0
    9.9218  -15.5718   27.6084 O   0  0  0  0  0  0  0  0  0  0  0  0
  2  1  1  6
  2  8  1  0
  3  2  1  0
  3  4  1  0
  4  5  1  0
  5  6  1  0
  7  6  1  0
  8 15  1  0
  8  9  2  0
 10 11  1  0
 12 13  1  0
 12 11  1  0
 14 13  1  1
 14 16  1  0
 15 14  1  0
 16 17  2  0
 18 19  1  0
 18 16  1  0
 19 24  1  0
 19 20  1  1
 21 20  1  0
 22 21  1  0
 23 22  2  0
 24 25  1  0
 26 22  1  0
 27 24  2  0
M  END
$$$$
