KME.pdb
     RDKit          3D

 27 26  0  0  1  0  0  0  0  0999 V2000
    8.4331  -12.6454   18.9087 N   0  0  0  0  0  0  0  0  0  0  0  0
    7.8737  -13.7248   19.6694 C   0  0  1  0  0  0  0  0  0  0  0  0
    7.9312  -14.9941   18.8862 C   0  0  0  0  0  0  0  0  0  0  0  0
    7.9548  -14.6000   17.4180 C   0  0  0  0  0  0  0  0  0  0  0  0
    7.8572  -15.7753   16.4831 C   0  0  0  0  0  0  0  0  0  0  0  0
    7.7636  -15.2205   15.0575 C   0  0  0  0  0  0  0  0  0  0  0  0
    7.6628  -16.2725   14.0873 N   0  0  0  0  0  0  0  0  0  0  0  0
    8.3344  -13.7961   21.0496 C   0  0  0  0  0  0  0  0  0  0  0  0
    9.5521  -13.8163   21.3961 O   0  0  0  0  0  0  0  0  0  0  0  0
    5.4790  -11.1697   26.2298 C   0  0  0  0  0  0  0  0  0  0  0  0
    5.9836  -12.7630   26.9403 S   0  0  0  0  0  0  0  0  0  0  0  0
    7.3026  -13.4836   25.9088 C   0  0  0  0  0  0  0  0  0  0  0  0
    6.8383  -13.3994   24.4844 C   0  0  0  0  0  0  0  0  0  0  0  0
    7.8047  -13.9368   23.4947 C   0  0  2  0  0  0  0  0  0  0  0  0
    7.4047  -13.8541   22.1145 N   0  0  0  0  0  0  0  0  0  0  0  0
    8.3439  -15.2946   23.8328 C   0  0  0  0  0  0  0  0  0  0  0  0
    7.7425  -16.3666   23.5631 O   0  0  0  0  0  0  0  0  0  0  0  0
    9.5919  -15.3382   24.4818 N   0  0  0  0  0  0  0  0  0  0  0  0
   10.3518  -16.5817   24.7288 C   0  0  1  0  0  0  0  0  0  0  0  0
   11.7360  -16.4083   24.2489 C   0  0  0  0  0  0  0  0  0  0  0  0
   12.6446  -17.5483   24.5035 C   0  0  0  0  0  0  0  0  0  0  0  0
   14.0134  -17.3262   24.0491 C   0  0  0  0  0  0  0  0  0  0  0  0
   14.4601  -16.1344   23.9542 O   0  0  0  0  0  0  0  0  0  0  0  0
   10.2056  -16.9521   26.1075 C   0  0  0  0  0  0  0  0  0  0  0  0
   10.4403  -18.2289   26.6408 O   0  0  0  0  0  0  0  0  0  0  0  0
   14.8767  -18.3545   23.7056 O   0  0  0  0  0  0  0  0  0  0  0  0
    9.8172  -16.0711   26.9460 O   0  0  0  0  0  0  0  0  0  0  0  0
  2  1  1  6
  2  8  1  0
  3  2  1  0
  3  4  1  0
  4  5  1  0
  5  6  1  0
  7  6  1  0
  8 15  1  0
  8  9  2  0
 10 11  1  0
 12 13  1  0
 12 11  1  0
 14 13  1  1
 14 16  1  0
 15 14  1  0
 16 17  2  0
 18 19  1  0
 18 16  1  0
 19 24  1  0
 19 20  1  1
 21 20  1  0
 22 21  1  0
 23 22  2  0
 24 25  1  0
 26 22  1  0
 27 24  2  0
M  END
$$$$
