KME.pdb
     RDKit          3D

 27 26  0  0  1  0  0  0  0  0999 V2000
    7.6393  -15.6928   20.5719 N   0  0  0  0  0  0  0  0  0  0  0  0
    8.6652  -14.7418   20.8883 C   0  0  1  0  0  0  0  0  0  0  0  0
    8.5871  -13.5704   19.9665 C   0  0  0  0  0  0  0  0  0  0  0  0
    7.9904  -14.0795   18.6640 C   0  0  0  0  0  0  0  0  0  0  0  0
    8.4157  -13.2816   17.4609 C   0  0  0  0  0  0  0  0  0  0  0  0
    7.6193  -13.8035   16.2599 C   0  0  0  0  0  0  0  0  0  0  0  0
    7.9845  -13.1253   15.0496 N   0  0  0  0  0  0  0  0  0  0  0  0
    8.7944  -14.4393   22.3075 C   0  0  0  0  0  0  0  0  0  0  0  0
    9.6380  -13.6285   22.7912 O   0  0  0  0  0  0  0  0  0  0  0  0
    7.3302  -10.8129   26.3249 C   0  0  0  0  0  0  0  0  0  0  0  0
    6.1591  -12.0911   26.8663 S   0  0  0  0  0  0  0  0  0  0  0  0
    6.9366  -13.7291   26.6772 C   0  0  0  0  0  0  0  0  0  0  0  0
    6.8031  -14.1117   25.2324 C   0  0  0  0  0  0  0  0  0  0  0  0
    8.0043  -14.7708   24.6622 C   0  0  2  0  0  0  0  0  0  0  0  0
    7.9517  -15.0674   23.2547 N   0  0  0  0  0  0  0  0  0  0  0  0
    8.5003  -15.9429   25.4553 C   0  0  0  0  0  0  0  0  0  0  0  0
    8.4318  -16.0103   26.7100 O   0  0  0  0  0  0  0  0  0  0  0  0
    9.0626  -17.0086   24.7282 N   0  0  0  0  0  0  0  0  0  0  0  0
   10.3197  -17.6910   25.1012 C   0  0  1  0  0  0  0  0  0  0  0  0
   11.4112  -17.2046   24.2362 C   0  0  0  0  0  0  0  0  0  0  0  0
   12.7667  -17.6757   24.5979 C   0  0  0  0  0  0  0  0  0  0  0  0
   13.8251  -17.1399   23.7479 C   0  0  0  0  0  0  0  0  0  0  0  0
   13.5293  -16.3224   22.8134 O   0  0  0  0  0  0  0  0  0  0  0  0
   10.5260  -17.5496   26.5142 C   0  0  0  0  0  0  0  0  0  0  0  0
   10.6531  -18.6040   27.4319 O   0  0  0  0  0  0  0  0  0  0  0  0
   15.1618  -17.4736   23.8968 O   0  0  0  0  0  0  0  0  0  0  0  0
   10.5913  -16.3769   27.0149 O   0  0  0  0  0  0  0  0  0  0  0  0
  2  1  1  1
  2  8  1  0
  3  2  1  0
  3  4  1  0
  4  5  1  0
  5  6  1  0
  7  6  1  0
  8 15  1  0
  8  9  2  0
 10 11  1  0
 12 13  1  0
 12 11  1  0
 14 13  1  1
 14 16  1  0
 15 14  1  0
 16 17  2  0
 18 19  1  0
 18 16  1  0
 19 24  1  0
 19 20  1  6
 21 20  1  0
 22 21  1  0
 23 22  2  0
 24 25  1  0
 26 22  1  0
 27 24  2  0
M  END
$$$$
