KME.pdb
     RDKit          3D

 27 26  0  0  1  0  0  0  0  0999 V2000
   10.2079  -14.6693   19.5822 N   0  0  0  0  0  0  0  0  0  0  0  0
    8.9348  -14.7622   20.2361 C   0  0  1  0  0  0  0  0  0  0  0  0
    8.1088  -15.8365   19.6105 C   0  0  0  0  0  0  0  0  0  0  0  0
    8.0256  -15.5145   18.1269 C   0  0  0  0  0  0  0  0  0  0  0  0
    7.3885  -16.6090   17.3136 C   0  0  0  0  0  0  0  0  0  0  0  0
    7.5403  -16.2300   15.8364 C   0  0  0  0  0  0  0  0  0  0  0  0
    7.1347  -17.3010   14.9725 N   0  0  0  0  0  0  0  0  0  0  0  0
    8.9996  -14.7623   21.6915 C   0  0  0  0  0  0  0  0  0  0  0  0
    9.9777  -15.2044   22.3630 O   0  0  0  0  0  0  0  0  0  0  0  0
    7.5615  -11.9176   28.3347 C   0  0  0  0  0  0  0  0  0  0  0  0
    7.3264  -11.9674   26.5346 S   0  0  0  0  0  0  0  0  0  0  0  0
    6.8030  -13.6448   26.0490 C   0  0  0  0  0  0  0  0  0  0  0  0
    6.7337  -13.6639   24.5502 C   0  0  0  0  0  0  0  0  0  0  0  0
    7.8868  -14.3293   23.8945 C   0  0  2  0  0  0  0  0  0  0  0  0
    7.9253  -14.2518   22.4576 N   0  0  0  0  0  0  0  0  0  0  0  0
    8.1528  -15.7231   24.3795 C   0  0  0  0  0  0  0  0  0  0  0  0
    7.4194  -16.7067   24.0997 O   0  0  0  0  0  0  0  0  0  0  0  0
    9.2925  -15.9082   25.1841 N   0  0  0  0  0  0  0  0  0  0  0  0
    9.7088  -17.2133   25.7394 C   0  0  1  0  0  0  0  0  0  0  0  0
   11.0659  -17.5349   25.2587 C   0  0  0  0  0  0  0  0  0  0  0  0
   11.1393  -18.5839   24.2173 C   0  0  0  0  0  0  0  0  0  0  0  0
   12.4989  -18.9001   23.7917 C   0  0  0  0  0  0  0  0  0  0  0  0
   13.0777  -18.1580   22.9295 O   0  0  0  0  0  0  0  0  0  0  0  0
    9.5345  -17.1916   27.1637 C   0  0  0  0  0  0  0  0  0  0  0  0
    9.6088  -18.3057   28.0139 O   0  0  0  0  0  0  0  0  0  0  0  0
   13.2151  -19.9826   24.2773 O   0  0  0  0  0  0  0  0  0  0  0  0
    9.2752  -16.0809   27.7375 O   0  0  0  0  0  0  0  0  0  0  0  0
  2  1  1  6
  2  8  1  0
  3  2  1  0
  3  4  1  0
  4  5  1  0
  5  6  1  0
  7  6  1  0
  8 15  1  0
  8  9  2  0
 10 11  1  0
 12 13  1  0
 12 11  1  0
 14 13  1  6
 14 16  1  0
 15 14  1  0
 16 17  2  0
 18 19  1  0
 18 16  1  0
 19 24  1  0
 19 20  1  1
 21 20  1  0
 22 21  1  0
 23 22  2  0
 24 25  1  0
 26 22  1  0
 27 24  2  0
M  END
$$$$
