HQF.pdb
     RDKit          3D

 31 32  0  0  1  0  0  0  0  0999 V2000
    7.4773  -17.0373   19.6716 N   0  0  0  0  0  0  0  0  0  0  0  0
    7.6959  -15.9441   20.5918 C   0  0  1  0  0  0  0  0  0  0  0  0
    6.9076  -14.7169   20.1553 C   0  0  0  0  0  0  0  0  0  0  0  0
    7.4835  -14.0511   18.9832 C   0  0  0  0  0  0  0  0  0  0  0  0
    8.3181  -12.9494   18.9241 C   0  0  0  0  0  0  0  0  0  0  0  0
    8.5942  -12.6930   17.6250 N   0  0  0  0  0  0  0  0  0  0  0  0
    7.9572  -13.6007   16.8766 C   0  0  0  0  0  0  0  0  0  0  0  0
    7.2926  -14.4123   17.7008 N   0  0  0  0  0  0  0  0  0  0  0  0
    7.2954  -16.3113   21.9606 C   0  0  0  0  0  0  0  0  0  0  0  0
    6.1158  -16.7281   22.1627 O   0  0  0  0  0  0  0  0  0  0  0  0
    7.5487  -20.8485   24.5773 N   0  0  0  0  0  0  0  0  0  0  0  0
    8.7964  -20.3348   24.1833 C   0  0  0  0  0  0  0  0  0  0  0  0
    9.7303  -21.1235   23.9098 O   0  0  0  0  0  0  0  0  0  0  0  0
    8.9682  -18.8812   24.1037 C   0  0  0  0  0  0  0  0  0  0  0  0
    7.6320  -18.2228   24.3938 C   0  0  0  0  0  0  0  0  0  0  0  0
    7.7823  -16.7153   24.3755 C   0  0  2  0  0  0  0  0  0  0  0  0
    8.1490  -16.2283   23.0738 N   0  0  0  0  0  0  0  0  0  0  0  0
    8.7977  -16.3325   25.3902 C   0  0  0  0  0  0  0  0  0  0  0  0
   10.0193  -16.3119   25.1067 O   0  0  0  0  0  0  0  0  0  0  0  0
    8.4116  -15.9850   26.6904 N   0  0  0  0  0  0  0  0  0  0  0  0
    9.2863  -15.3519   27.6633 C   0  0  1  0  0  0  0  0  0  0  0  0
    8.6917  -14.1455   28.2751 C   0  0  0  0  0  0  0  0  0  0  0  0
    8.1041  -13.2654   27.2507 C   0  0  0  0  0  0  0  0  0  0  0  0
    6.7752  -13.4326   26.8430 C   0  0  0  0  0  0  0  0  0  0  0  0
    6.1879  -12.6197   25.9130 C   0  0  0  0  0  0  0  0  0  0  0  0
    6.8990  -11.5883   25.3347 C   0  0  0  0  0  0  0  0  0  0  0  0
    8.1942  -11.4135   25.7222 C   0  0  0  0  0  0  0  0  0  0  0  0
    8.7929  -12.2310   26.6610 C   0  0  0  0  0  0  0  0  0  0  0  0
    9.6243  -16.3635   28.6724 C   0  0  0  0  0  0  0  0  0  0  0  0
   10.4191  -16.1463   29.6142 O   0  0  0  0  0  0  0  0  0  0  0  0
    9.0659  -17.6438   28.6326 O   0  0  0  0  0  0  0  0  0  0  0  0
  2  1  1  6
  3  2  1  0
  4  5  2  0
  4  3  1  0
  6  5  1  0
  7  8  2  0
  7  6  1  0
  8  4  1  0
  9 17  1  0
  9  2  1  0
 10  9  2  0
 11 12  1  0
 12 14  1  0
 13 12  2  0
 14 15  1  0
 16 15  1  6
 16 17  1  0
 18 16  1  0
 19 18  2  0
 20 18  1  0
 21 29  1  0
 21 20  1  0
 22 23  1  0
 21 22  1  1
 23 28  1  0
 24 23  2  0
 24 25  1  0
 25 26  2  0
 26 27  1  0
 28 27  2  0
 29 31  1  0
 30 29  2  0
M  END
$$$$
