HQF.pdb
     RDKit          3D

 31 32  0  0  1  0  0  0  0  0999 V2000
    6.9707  -16.8736   20.4162 N   0  0  0  0  0  0  0  0  0  0  0  0
    8.0063  -16.1605   21.1294 C   0  0  1  0  0  0  0  0  0  0  0  0
    7.7273  -14.6639   21.1142 C   0  0  0  0  0  0  0  0  0  0  0  0
    7.9756  -14.0463   19.8081 C   0  0  0  0  0  0  0  0  0  0  0  0
    8.3811  -14.6355   18.6239 C   0  0  0  0  0  0  0  0  0  0  0  0
    8.4784  -13.6718   17.6798 N   0  0  0  0  0  0  0  0  0  0  0  0
    8.1461  -12.5037   18.2410 C   0  0  0  0  0  0  0  0  0  0  0  0
    7.8455  -12.7382   19.5194 N   0  0  0  0  0  0  0  0  0  0  0  0
    8.1034  -16.6175   22.5260 C   0  0  0  0  0  0  0  0  0  0  0  0
    7.0405  -16.7442   23.2043 O   0  0  0  0  0  0  0  0  0  0  0  0
   11.7493  -20.8412   24.6407 N   0  0  0  0  0  0  0  0  0  0  0  0
   10.7079  -20.8696   23.6971 C   0  0  0  0  0  0  0  0  0  0  0  0
   10.5513  -21.8853   22.9807 O   0  0  0  0  0  0  0  0  0  0  0  0
    9.8302  -19.7015   23.5787 C   0  0  0  0  0  0  0  0  0  0  0  0
   10.2675  -18.6666   24.5989 C   0  0  0  0  0  0  0  0  0  0  0  0
    9.3822  -17.4406   24.5057 C   0  0  2  0  0  0  0  0  0  0  0  0
    9.3162  -16.9270   23.1648 N   0  0  0  0  0  0  0  0  0  0  0  0
    9.9044  -16.4123   25.4422 C   0  0  0  0  0  0  0  0  0  0  0  0
   10.8621  -15.6697   25.1186 O   0  0  0  0  0  0  0  0  0  0  0  0
    9.3368  -16.2490   26.7117 N   0  0  0  0  0  0  0  0  0  0  0  0
    9.8295  -15.3216   27.7164 C   0  0  1  0  0  0  0  0  0  0  0  0
    8.7490  -14.5686   28.3861 C   0  0  0  0  0  0  0  0  0  0  0  0
    8.0876  -13.6435   27.4502 C   0  0  0  0  0  0  0  0  0  0  0  0
    6.7019  -13.4491   27.4982 C   0  0  0  0  0  0  0  0  0  0  0  0
    6.0561  -12.5804   26.6623 C   0  0  0  0  0  0  0  0  0  0  0  0
    6.7620  -11.8528   25.7261 C   0  0  0  0  0  0  0  0  0  0  0  0
    8.1122  -12.0318   25.6681 C   0  0  0  0  0  0  0  0  0  0  0  0
    8.7703  -12.9076   26.5096 C   0  0  0  0  0  0  0  0  0  0  0  0
   10.6273  -16.0970   28.6747 C   0  0  0  0  0  0  0  0  0  0  0  0
   10.6410  -17.3482   28.6937 O   0  0  0  0  0  0  0  0  0  0  0  0
   11.4265  -15.4667   29.6320 O   0  0  0  0  0  0  0  0  0  0  0  0
  2  1  1  1
  3  2  1  0
  4  5  2  0
  4  3  1  0
  6  5  1  0
  7  8  2  0
  7  6  1  0
  8  4  1  0
  9 17  1  0
  9  2  1  0
 10  9  2  0
 11 12  1  0
 12 14  1  0
 13 12  2  0
 14 15  1  0
 16 15  1  6
 16 17  1  0
 18 16  1  0
 19 18  2  0
 20 18  1  0
 21 29  1  0
 21 20  1  0
 22 23  1  0
 21 22  1  1
 23 28  1  0
 24 23  2  0
 24 25  1  0
 25 26  2  0
 26 27  1  0
 28 27  2  0
 29 31  1  0
 30 29  2  0
M  END
$$$$
