HQF.pdb
     RDKit          3D

 31 32  0  0  1  0  0  0  0  0999 V2000
    6.8111  -17.1123   20.1470 N   0  0  0  0  0  0  0  0  0  0  0  0
    7.4856  -16.1221   20.9560 C   0  0  1  0  0  0  0  0  0  0  0  0
    7.0450  -14.7206   20.5567 C   0  0  0  0  0  0  0  0  0  0  0  0
    7.6806  -14.2479   19.3233 C   0  0  0  0  0  0  0  0  0  0  0  0
    8.5794  -14.8982   18.4968 C   0  0  0  0  0  0  0  0  0  0  0  0
    8.8930  -14.0711   17.4735 N   0  0  0  0  0  0  0  0  0  0  0  0
    8.2171  -12.9285   17.6392 C   0  0  0  0  0  0  0  0  0  0  0  0
    7.4916  -13.0437   18.7528 N   0  0  0  0  0  0  0  0  0  0  0  0
    7.2073  -16.3241   22.3880 C   0  0  0  0  0  0  0  0  0  0  0  0
    6.5287  -15.4525   23.0090 O   0  0  0  0  0  0  0  0  0  0  0  0
    6.9452  -21.5272   25.7456 N   0  0  0  0  0  0  0  0  0  0  0  0
    6.6846  -20.5551   26.7269 C   0  0  0  0  0  0  0  0  0  0  0  0
    6.2676  -20.9111   27.8533 O   0  0  0  0  0  0  0  0  0  0  0  0
    6.9102  -19.1439   26.4004 C   0  0  0  0  0  0  0  0  0  0  0  0
    7.2589  -19.0415   24.9270 C   0  0  0  0  0  0  0  0  0  0  0  0
    7.4147  -17.5874   24.5312 C   0  0  2  0  0  0  0  0  0  0  0  0
    7.6519  -17.4373   23.1214 N   0  0  0  0  0  0  0  0  0  0  0  0
    8.5287  -17.0027   25.3214 C   0  0  0  0  0  0  0  0  0  0  0  0
    9.7232  -17.1716   24.9781 O   0  0  0  0  0  0  0  0  0  0  0  0
    8.2684  -16.2473   26.4712 N   0  0  0  0  0  0  0  0  0  0  0  0
    9.2715  -15.4831   27.1939 C   0  0  1  0  0  0  0  0  0  0  0  0
    8.6861  -14.4642   28.0896 C   0  0  0  0  0  0  0  0  0  0  0  0
    7.7771  -13.5693   27.3533 C   0  0  0  0  0  0  0  0  0  0  0  0
    6.4027  -13.5709   27.6202 C   0  0  0  0  0  0  0  0  0  0  0  0
    5.5316  -12.7372   26.9747 C   0  0  0  0  0  0  0  0  0  0  0  0
    5.9869  -11.8500   26.0210 C   0  0  0  0  0  0  0  0  0  0  0  0
    7.3230  -11.8373   25.7508 C   0  0  0  0  0  0  0  0  0  0  0  0
    8.2079  -12.6767   26.3994 C   0  0  0  0  0  0  0  0  0  0  0  0
   10.1052  -16.4411   27.9309 C   0  0  0  0  0  0  0  0  0  0  0  0
    9.8427  -17.6630   27.9955 O   0  0  0  0  0  0  0  0  0  0  0  0
   11.2552  -16.0306   28.6103 O   0  0  0  0  0  0  0  0  0  0  0  0
  2  1  1  6
  3  2  1  0
  4  5  2  0
  4  3  1  0
  6  5  1  0
  7  8  2  0
  7  6  1  0
  8  4  1  0
  9 17  1  0
  9  2  1  0
 10  9  2  0
 11 12  1  0
 12 14  1  0
 13 12  2  0
 14 15  1  0
 16 15  1  6
 16 17  1  0
 18 16  1  0
 19 18  2  0
 20 18  1  0
 21 29  1  0
 21 20  1  0
 22 23  1  0
 21 22  1  1
 23 28  1  0
 24 23  2  0
 24 25  1  0
 25 26  2  0
 26 27  1  0
 28 27  2  0
 29 31  1  0
 30 29  2  0
M  END
$$$$
