HQF.pdb
     RDKit          3D

 31 32  0  0  1  0  0  0  0  0999 V2000
    7.5023  -17.1173   19.1949 N   0  0  0  0  0  0  0  0  0  0  0  0
    8.0917  -16.2962   20.2284 C   0  0  1  0  0  0  0  0  0  0  0  0
    7.2870  -15.0172   20.4138 C   0  0  0  0  0  0  0  0  0  0  0  0
    7.8405  -13.8780   19.6757 C   0  0  0  0  0  0  0  0  0  0  0  0
    8.8908  -13.8447   18.7760 C   0  0  0  0  0  0  0  0  0  0  0  0
    9.0433  -12.5714   18.3457 N   0  0  0  0  0  0  0  0  0  0  0  0
    8.1209  -11.8141   18.9502 C   0  0  0  0  0  0  0  0  0  0  0  0
    7.4030  -12.6073   19.7471 N   0  0  0  0  0  0  0  0  0  0  0  0
    8.1525  -17.0165   21.5116 C   0  0  0  0  0  0  0  0  0  0  0  0
    7.1441  -17.6861   21.8865 O   0  0  0  0  0  0  0  0  0  0  0  0
   11.9580  -21.0336   23.1830 N   0  0  0  0  0  0  0  0  0  0  0  0
   11.1658  -21.0231   24.3441 C   0  0  0  0  0  0  0  0  0  0  0  0
   11.2336  -21.9827   25.1465 O   0  0  0  0  0  0  0  0  0  0  0  0
   10.2778  -19.8814   24.5828 C   0  0  0  0  0  0  0  0  0  0  0  0
   10.3362  -18.9663   23.3736 C   0  0  0  0  0  0  0  0  0  0  0  0
    9.3599  -17.8203   23.5434 C   0  0  2  0  0  0  0  0  0  0  0  0
    9.2729  -17.0094   22.3597 N   0  0  0  0  0  0  0  0  0  0  0  0
    9.7875  -17.0085   24.7119 C   0  0  0  0  0  0  0  0  0  0  0  0
   10.7962  -16.2657   24.6488 O   0  0  0  0  0  0  0  0  0  0  0  0
    9.0711  -17.0552   25.9140 N   0  0  0  0  0  0  0  0  0  0  0  0
    9.4462  -16.3357   27.1198 C   0  0  1  0  0  0  0  0  0  0  0  0
    8.2851  -15.7791   27.8445 C   0  0  0  0  0  0  0  0  0  0  0  0
    7.7948  -14.5502   27.1974 C   0  0  0  0  0  0  0  0  0  0  0  0
    6.5923  -14.5519   26.4804 C   0  0  0  0  0  0  0  0  0  0  0  0
    6.0931  -13.4252   25.8873 C   0  0  0  0  0  0  0  0  0  0  0  0
    6.7707  -12.2266   25.9776 C   0  0  0  0  0  0  0  0  0  0  0  0
    7.9431  -12.2099   26.6730 C   0  0  0  0  0  0  0  0  0  0  0  0
    8.4524  -13.3445   27.2743 C   0  0  0  0  0  0  0  0  0  0  0  0
   10.2193  -17.2600   27.9589 C   0  0  0  0  0  0  0  0  0  0  0  0
   10.2011  -18.5011   27.7996 O   0  0  0  0  0  0  0  0  0  0  0  0
   11.0296  -16.7932   28.9972 O   0  0  0  0  0  0  0  0  0  0  0  0
  2  1  1  6
  3  2  1  0
  4  5  2  0
  4  3  1  0
  6  5  1  0
  7  8  2  0
  7  6  1  0
  8  4  1  0
  9 17  1  0
  9  2  1  0
 10  9  2  0
 11 12  1  0
 12 14  1  0
 13 12  2  0
 14 15  1  0
 16 15  1  6
 16 17  1  0
 18 16  1  0
 19 18  2  0
 20 18  1  0
 21 29  1  0
 21 20  1  0
 22 23  1  0
 21 22  1  1
 23 28  1  0
 24 23  2  0
 24 25  1  0
 25 26  2  0
 26 27  1  0
 28 27  2  0
 29 31  1  0
 30 29  2  0
M  END
$$$$
