HQF.pdb
     RDKit          3D

 31 32  0  0  1  0  0  0  0  0999 V2000
    7.0067  -17.0982   20.0598 N   0  0  0  0  0  0  0  0  0  0  0  0
    7.9758  -16.3944   20.8692 C   0  0  1  0  0  0  0  0  0  0  0  0
    7.5640  -14.9392   21.0451 C   0  0  0  0  0  0  0  0  0  0  0  0
    7.9128  -14.1003   19.8947 C   0  0  0  0  0  0  0  0  0  0  0  0
    8.6621  -14.4165   18.7756 C   0  0  0  0  0  0  0  0  0  0  0  0
    8.7184  -13.3255   17.9781 N   0  0  0  0  0  0  0  0  0  0  0  0
    8.0277  -12.3427   18.5671 C   0  0  0  0  0  0  0  0  0  0  0  0
    7.5475  -12.8171   19.7177 N   0  0  0  0  0  0  0  0  0  0  0  0
    8.1162  -17.0183   22.1958 C   0  0  0  0  0  0  0  0  0  0  0  0
    7.5286  -18.1183   22.4206 O   0  0  0  0  0  0  0  0  0  0  0  0
   12.0988  -20.2257   23.5466 N   0  0  0  0  0  0  0  0  0  0  0  0
   11.8171  -19.9468   24.8951 C   0  0  0  0  0  0  0  0  0  0  0  0
   12.5839  -20.3763   25.7877 O   0  0  0  0  0  0  0  0  0  0  0  0
   10.6259  -19.1560   25.2188 C   0  0  0  0  0  0  0  0  0  0  0  0
   10.2319  -18.3564   23.9907 C   0  0  0  0  0  0  0  0  0  0  0  0
    9.2996  -17.2286   24.3838 C   0  0  2  0  0  0  0  0  0  0  0  0
    8.8707  -16.4648   23.2441 N   0  0  0  0  0  0  0  0  0  0  0  0
    9.9985  -16.3638   25.3691 C   0  0  0  0  0  0  0  0  0  0  0  0
   11.1456  -15.9137   25.1353 O   0  0  0  0  0  0  0  0  0  0  0  0
    9.3894  -16.0311   26.5851 N   0  0  0  0  0  0  0  0  0  0  0  0
    9.9899  -15.1757   27.5952 C   0  0  1  0  0  0  0  0  0  0  0  0
    8.9941  -14.3871   28.3498 C   0  0  0  0  0  0  0  0  0  0  0  0
    8.0919  -13.6609   27.4398 C   0  0  0  0  0  0  0  0  0  0  0  0
    8.4901  -12.4539   26.8527 C   0  0  0  0  0  0  0  0  0  0  0  0
    7.6898  -11.7644   25.9841 C   0  0  0  0  0  0  0  0  0  0  0  0
    6.4397  -12.2443   25.6512 C   0  0  0  0  0  0  0  0  0  0  0  0
    6.0386  -13.4188   26.2152 C   0  0  0  0  0  0  0  0  0  0  0  0
    6.8424  -14.1200   27.0931 C   0  0  0  0  0  0  0  0  0  0  0  0
   10.7868  -16.0351   28.4797 C   0  0  0  0  0  0  0  0  0  0  0  0
   10.7616  -17.2848   28.4180 O   0  0  0  0  0  0  0  0  0  0  0  0
   11.6296  -15.4925   29.4531 O   0  0  0  0  0  0  0  0  0  0  0  0
  2  1  1  6
  3  2  1  0
  4  5  2  0
  4  3  1  0
  6  5  1  0
  7  8  2  0
  7  6  1  0
  8  4  1  0
  9 17  1  0
  9  2  1  0
 10  9  2  0
 11 12  1  0
 12 14  1  0
 13 12  2  0
 14 15  1  0
 16 15  1  6
 16 17  1  0
 18 16  1  0
 19 18  2  0
 20 18  1  0
 21 29  1  0
 21 20  1  0
 22 23  1  0
 21 22  1  1
 23 28  1  0
 24 23  2  0
 24 25  1  0
 25 26  2  0
 26 27  1  0
 28 27  2  0
 29 31  1  0
 30 29  2  0
M  END
$$$$
