HQF.pdb
     RDKit          3D

 31 32  0  0  1  0  0  0  0  0999 V2000
    9.0194  -16.5992   19.1784 N   0  0  0  0  0  0  0  0  0  0  0  0
    9.1583  -15.6964   20.2989 C   0  0  1  0  0  0  0  0  0  0  0  0
    8.0045  -14.7035   20.3270 C   0  0  0  0  0  0  0  0  0  0  0  0
    7.9580  -13.8429   19.1411 C   0  0  0  0  0  0  0  0  0  0  0  0
    8.5829  -12.6297   18.9147 C   0  0  0  0  0  0  0  0  0  0  0  0
    8.2495  -12.2032   17.6752 N   0  0  0  0  0  0  0  0  0  0  0  0
    7.4376  -13.1136   17.1257 C   0  0  0  0  0  0  0  0  0  0  0  0
    7.2681  -14.0949   18.0133 N   0  0  0  0  0  0  0  0  0  0  0  0
    9.1917  -16.4312   21.5747 C   0  0  0  0  0  0  0  0  0  0  0  0
    8.2634  -17.2548   21.8317 O   0  0  0  0  0  0  0  0  0  0  0  0
   13.9819  -19.5362   22.3019 N   0  0  0  0  0  0  0  0  0  0  0  0
   12.9151  -18.8006   21.7574 C   0  0  0  0  0  0  0  0  0  0  0  0
   13.1044  -18.1043   20.7335 O   0  0  0  0  0  0  0  0  0  0  0  0
   11.6037  -18.8710   22.4087 C   0  0  0  0  0  0  0  0  0  0  0  0
   11.6183  -17.9546   23.6183 C   0  0  0  0  0  0  0  0  0  0  0  0
   10.3361  -17.1494   23.6739 C   0  0  2  0  0  0  0  0  0  0  0  0
   10.2011  -16.2763   22.5400 N   0  0  0  0  0  0  0  0  0  0  0  0
   10.3218  -16.3766   24.9427 C   0  0  0  0  0  0  0  0  0  0  0  0
   10.9282  -15.2830   25.0406 O   0  0  0  0  0  0  0  0  0  0  0  0
    9.6284  -16.8542   26.0614 N   0  0  0  0  0  0  0  0  0  0  0  0
    9.4829  -16.1227   27.3089 C   0  0  1  0  0  0  0  0  0  0  0  0
    8.0749  -15.8226   27.6411 C   0  0  0  0  0  0  0  0  0  0  0  0
    7.6160  -14.6027   26.9551 C   0  0  0  0  0  0  0  0  0  0  0  0
    6.4619  -14.6205   26.1628 C   0  0  0  0  0  0  0  0  0  0  0  0
    5.9915  -13.5025   25.5308 C   0  0  0  0  0  0  0  0  0  0  0  0
    6.6512  -12.2970   25.6555 C   0  0  0  0  0  0  0  0  0  0  0  0
    7.7765  -12.2646   26.4242 C   0  0  0  0  0  0  0  0  0  0  0  0
    8.2565  -13.3903   27.0651 C   0  0  0  0  0  0  0  0  0  0  0  0
   10.1329  -16.9155   28.3601 C   0  0  0  0  0  0  0  0  0  0  0  0
   10.2823  -16.5007   29.5312 O   0  0  0  0  0  0  0  0  0  0  0  0
   10.6270  -18.1969   28.1025 O   0  0  0  0  0  0  0  0  0  0  0  0
  2  1  1  6
  3  2  1  0
  4  5  2  0
  4  3  1  0
  6  5  1  0
  7  8  2  0
  7  6  1  0
  8  4  1  0
  9 17  1  0
  9  2  1  0
 10  9  2  0
 11 12  1  0
 12 14  1  0
 13 12  2  0
 14 15  1  0
 16 15  1  6
 16 17  1  0
 18 16  1  0
 19 18  2  0
 20 18  1  0
 21 29  1  0
 21 20  1  0
 22 23  1  0
 21 22  1  1
 23 28  1  0
 24 23  2  0
 24 25  1  0
 25 26  2  0
 26 27  1  0
 28 27  2  0
 29 31  1  0
 30 29  2  0
M  END
$$$$
