HQF.pdb
     RDKit          3D

 31 32  0  0  1  0  0  0  0  0999 V2000
    8.6449  -16.9575   18.8705 N   0  0  0  0  0  0  0  0  0  0  0  0
    8.8464  -16.0995   20.0163 C   0  0  1  0  0  0  0  0  0  0  0  0
    7.6600  -15.1618   20.1927 C   0  0  0  0  0  0  0  0  0  0  0  0
    7.5525  -14.1640   19.1242 C   0  0  0  0  0  0  0  0  0  0  0  0
    6.5578  -13.9991   18.1770 C   0  0  0  0  0  0  0  0  0  0  0  0
    6.8839  -12.9443   17.3957 N   0  0  0  0  0  0  0  0  0  0  0  0
    8.0493  -12.4498   17.8283 C   0  0  0  0  0  0  0  0  0  0  0  0
    8.4434  -13.1886   18.8667 N   0  0  0  0  0  0  0  0  0  0  0  0
    9.0238  -16.8876   21.2478 C   0  0  0  0  0  0  0  0  0  0  0  0
    8.1763  -17.7875   21.5265 O   0  0  0  0  0  0  0  0  0  0  0  0
   13.4224  -20.6194   23.2124 N   0  0  0  0  0  0  0  0  0  0  0  0
   13.2163  -19.5933   22.2741 C   0  0  0  0  0  0  0  0  0  0  0  0
   14.1690  -19.2140   21.5546 O   0  0  0  0  0  0  0  0  0  0  0  0
   11.8830  -18.9936   22.1649 C   0  0  0  0  0  0  0  0  0  0  0  0
   11.6445  -18.1270   23.3877 C   0  0  0  0  0  0  0  0  0  0  0  0
   10.2621  -17.5103   23.3240 C   0  0  2  0  0  0  0  0  0  0  0  0
   10.0878  -16.7037   22.1471 N   0  0  0  0  0  0  0  0  0  0  0  0
   10.0501  -16.7053   24.5546 C   0  0  0  0  0  0  0  0  0  0  0  0
   10.5683  -15.5702   24.6819 O   0  0  0  0  0  0  0  0  0  0  0  0
    9.2643  -17.1982   25.6034 N   0  0  0  0  0  0  0  0  0  0  0  0
    8.9880  -16.4718   26.8316 C   0  0  1  0  0  0  0  0  0  0  0  0
    7.5831  -16.0262   26.9349 C   0  0  0  0  0  0  0  0  0  0  0  0
    7.4574  -14.5910   26.6287 C   0  0  0  0  0  0  0  0  0  0  0  0
    7.3657  -14.1491   25.3034 C   0  0  0  0  0  0  0  0  0  0  0  0
    7.2233  -12.8275   24.9815 C   0  0  0  0  0  0  0  0  0  0  0  0
    7.1642  -11.8675   25.9708 C   0  0  0  0  0  0  0  0  0  0  0  0
    7.2522  -12.2832   27.2661 C   0  0  0  0  0  0  0  0  0  0  0  0
    7.3959  -13.6165   27.5977 C   0  0  0  0  0  0  0  0  0  0  0  0
    9.3660  -17.3437   27.9509 C   0  0  0  0  0  0  0  0  0  0  0  0
    9.3458  -16.9668   29.1440 O   0  0  0  0  0  0  0  0  0  0  0  0
    9.7751  -18.6627   27.7379 O   0  0  0  0  0  0  0  0  0  0  0  0
  2  1  1  6
  3  2  1  0
  4  5  2  0
  4  3  1  0
  6  5  1  0
  7  8  2  0
  7  6  1  0
  8  4  1  0
  9 17  1  0
  9  2  1  0
 10  9  2  0
 11 12  1  0
 12 14  1  0
 13 12  2  0
 14 15  1  0
 16 15  1  1
 16 17  1  0
 18 16  1  0
 19 18  2  0
 20 18  1  0
 21 29  1  0
 21 20  1  0
 22 23  1  0
 21 22  1  1
 23 28  1  0
 24 23  2  0
 24 25  1  0
 25 26  2  0
 26 27  1  0
 28 27  2  0
 29 31  1  0
 30 29  2  0
M  END
$$$$
