HQF.pdb
     RDKit          3D

 31 32  0  0  1  0  0  0  0  0999 V2000
    7.4691  -17.0083   20.3892 N   0  0  0  0  0  0  0  0  0  0  0  0
    8.2711  -16.0528   21.1196 C   0  0  1  0  0  0  0  0  0  0  0  0
    7.6457  -14.6668   21.0440 C   0  0  0  0  0  0  0  0  0  0  0  0
    7.8383  -14.0198   19.7427 C   0  0  0  0  0  0  0  0  0  0  0  0
    8.4776  -12.8303   19.4424 C   0  0  0  0  0  0  0  0  0  0  0  0
    8.4082  -12.6347   18.1059 N   0  0  0  0  0  0  0  0  0  0  0  0
    7.7461  -13.6652   17.5678 C   0  0  0  0  0  0  0  0  0  0  0  0
    7.4076  -14.4922   18.5583 N   0  0  0  0  0  0  0  0  0  0  0  0
    8.4082  -16.4421   22.5334 C   0  0  0  0  0  0  0  0  0  0  0  0
    7.3611  -16.6037   23.2285 O   0  0  0  0  0  0  0  0  0  0  0  0
   11.5861  -20.7053   25.3521 N   0  0  0  0  0  0  0  0  0  0  0  0
   10.8344  -20.7329   24.1647 C   0  0  0  0  0  0  0  0  0  0  0  0
   10.5961  -21.8305   23.6102 O   0  0  0  0  0  0  0  0  0  0  0  0
   10.3487  -19.4672   23.6070 C   0  0  0  0  0  0  0  0  0  0  0  0
   10.7752  -18.3404   24.5297 C   0  0  0  0  0  0  0  0  0  0  0  0
    9.7561  -17.2202   24.4852 C   0  0  2  0  0  0  0  0  0  0  0  0
    9.6432  -16.6491   23.1710 N   0  0  0  0  0  0  0  0  0  0  0  0
   10.1488  -16.1886   25.4796 C   0  0  0  0  0  0  0  0  0  0  0  0
   11.0185  -15.3267   25.2080 O   0  0  0  0  0  0  0  0  0  0  0  0
    9.5543  -16.1560   26.7469 N   0  0  0  0  0  0  0  0  0  0  0  0
    9.9551  -15.2579   27.8170 C   0  0  1  0  0  0  0  0  0  0  0  0
    8.8099  -14.5901   28.4694 C   0  0  0  0  0  0  0  0  0  0  0  0
    8.0441  -13.7847   27.5028 C   0  0  0  0  0  0  0  0  0  0  0  0
    8.5401  -12.5586   27.0437 C   0  0  0  0  0  0  0  0  0  0  0  0
    7.8694  -11.7952   26.1283 C   0  0  0  0  0  0  0  0  0  0  0  0
    6.6588  -12.2159   25.6171 C   0  0  0  0  0  0  0  0  0  0  0  0
    6.1636  -13.4081   26.0550 C   0  0  0  0  0  0  0  0  0  0  0  0
    6.8363  -14.1838   26.9793 C   0  0  0  0  0  0  0  0  0  0  0  0
   10.7451  -16.0423   28.7744 C   0  0  0  0  0  0  0  0  0  0  0  0
   10.8454  -17.2882   28.7147 O   0  0  0  0  0  0  0  0  0  0  0  0
   11.4381  -15.4271   29.8203 O   0  0  0  0  0  0  0  0  0  0  0  0
  2  1  1  6
  3  2  1  0
  4  5  2  0
  4  3  1  0
  6  5  1  0
  7  8  2  0
  7  6  1  0
  8  4  1  0
  9 17  1  0
  9  2  1  0
 10  9  2  0
 11 12  1  0
 12 14  1  0
 13 12  2  0
 14 15  1  0
 16 15  1  6
 16 17  1  0
 18 16  1  0
 19 18  2  0
 20 18  1  0
 21 29  1  0
 21 20  1  0
 22 23  1  0
 21 22  1  1
 23 28  1  0
 24 23  2  0
 24 25  1  0
 25 26  2  0
 26 27  1  0
 28 27  2  0
 29 31  1  0
 30 29  2  0
M  END
$$$$
