HQF.pdb
     RDKit          3D

 31 32  0  0  1  0  0  0  0  0999 V2000
    9.3384  -15.7943   19.9878 N   0  0  0  0  0  0  0  0  0  0  0  0
    8.3383  -14.9976   20.6621 C   0  0  1  0  0  0  0  0  0  0  0  0
    7.0985  -14.8527   19.7902 C   0  0  0  0  0  0  0  0  0  0  0  0
    7.3960  -14.3419   18.4488 C   0  0  0  0  0  0  0  0  0  0  0  0
    8.2099  -13.2880   18.0738 C   0  0  0  0  0  0  0  0  0  0  0  0
    8.1804  -13.1855   16.7254 N   0  0  0  0  0  0  0  0  0  0  0  0
    7.3739  -14.1424   16.2523 C   0  0  0  0  0  0  0  0  0  0  0  0
    6.9072  -14.8320   17.2945 N   0  0  0  0  0  0  0  0  0  0  0  0
    7.9535  -15.6021   21.9487 C   0  0  0  0  0  0  0  0  0  0  0  0
    6.8057  -16.1277   22.0596 O   0  0  0  0  0  0  0  0  0  0  0  0
    9.3109  -20.5006   23.3223 N   0  0  0  0  0  0  0  0  0  0  0  0
    8.9821  -20.2281   24.6614 C   0  0  0  0  0  0  0  0  0  0  0  0
    8.9490  -21.1652   25.4921 O   0  0  0  0  0  0  0  0  0  0  0  0
    8.6857  -18.8456   25.0485 C   0  0  0  0  0  0  0  0  0  0  0  0
    8.7930  -17.9678   23.8151 C   0  0  0  0  0  0  0  0  0  0  0  0
    8.5635  -16.5178   24.1895 C   0  0  2  0  0  0  0  0  0  0  0  0
    8.7889  -15.6344   23.0782 N   0  0  0  0  0  0  0  0  0  0  0  0
    9.4586  -16.1791   25.3259 C   0  0  0  0  0  0  0  0  0  0  0  0
   10.7054  -16.1785   25.1890 O   0  0  0  0  0  0  0  0  0  0  0  0
    8.9279  -15.8522   26.5796 N   0  0  0  0  0  0  0  0  0  0  0  0
    9.6688  -15.1774   27.6323 C   0  0  1  0  0  0  0  0  0  0  0  0
    8.8718  -14.1470   28.3296 C   0  0  0  0  0  0  0  0  0  0  0  0
    8.1785  -13.2719   27.3689 C   0  0  0  0  0  0  0  0  0  0  0  0
    8.9047  -12.4434   26.5050 C   0  0  0  0  0  0  0  0  0  0  0  0
    8.2969  -11.6361   25.5834 C   0  0  0  0  0  0  0  0  0  0  0  0
    6.9219  -11.6108   25.4722 C   0  0  0  0  0  0  0  0  0  0  0  0
    6.2017  -12.4126   26.3069 C   0  0  0  0  0  0  0  0  0  0  0  0
    6.8096  -13.2302   27.2397 C   0  0  0  0  0  0  0  0  0  0  0  0
   10.1531  -16.2093   28.5578 C   0  0  0  0  0  0  0  0  0  0  0  0
   10.8517  -15.9484   29.5628 O   0  0  0  0  0  0  0  0  0  0  0  0
    9.8538  -17.5598   28.3608 O   0  0  0  0  0  0  0  0  0  0  0  0
  2  1  1  6
  3  2  1  0
  4  5  2  0
  4  3  1  0
  6  5  1  0
  7  8  2  0
  7  6  1  0
  8  4  1  0
  9 17  1  0
  9  2  1  0
 10  9  2  0
 11 12  1  0
 12 14  1  0
 13 12  2  0
 14 15  1  0
 16 15  1  6
 16 17  1  0
 18 16  1  0
 19 18  2  0
 20 18  1  0
 21 29  1  0
 21 20  1  0
 22 23  1  0
 21 22  1  1
 23 28  1  0
 24 23  2  0
 24 25  1  0
 25 26  2  0
 26 27  1  0
 28 27  2  0
 29 31  1  0
 30 29  2  0
M  END
$$$$
