HQF.pdb
     RDKit          3D

 31 32  0  0  1  0  0  0  0  0999 V2000
    6.5318  -17.1532   19.5114 N   0  0  0  0  0  0  0  0  0  0  0  0
    7.2821  -16.2542   20.3591 C   0  0  1  0  0  0  0  0  0  0  0  0
    7.0436  -14.8092   19.9432 C   0  0  0  0  0  0  0  0  0  0  0  0
    7.7392  -14.4452   18.7053 C   0  0  0  0  0  0  0  0  0  0  0  0
    8.5497  -15.2210   17.8959 C   0  0  0  0  0  0  0  0  0  0  0  0
    8.9708  -14.4602   16.8598 N   0  0  0  0  0  0  0  0  0  0  0  0
    8.4471  -13.2372   17.0011 C   0  0  0  0  0  0  0  0  0  0  0  0
    7.7089  -13.2375   18.1122 N   0  0  0  0  0  0  0  0  0  0  0  0
    6.9053  -16.4161   21.7735 C   0  0  0  0  0  0  0  0  0  0  0  0
    5.8518  -15.8519   22.1952 O   0  0  0  0  0  0  0  0  0  0  0  0
    7.1828  -21.6507   23.8550 N   0  0  0  0  0  0  0  0  0  0  0  0
    6.0211  -20.8655   23.7563 C   0  0  0  0  0  0  0  0  0  0  0  0
    4.9027  -21.3880   23.9692 O   0  0  0  0  0  0  0  0  0  0  0  0
    6.1543  -19.4485   23.4047 C   0  0  0  0  0  0  0  0  0  0  0  0
    7.0414  -18.7786   24.4378 C   0  0  0  0  0  0  0  0  0  0  0  0
    7.2540  -17.3235   24.0729 C   0  0  2  0  0  0  0  0  0  0  0  0
    7.6491  -17.1668   22.6997 N   0  0  0  0  0  0  0  0  0  0  0  0
    8.2777  -16.7550   24.9873 C   0  0  0  0  0  0  0  0  0  0  0  0
    9.4976  -16.7979   24.6989 O   0  0  0  0  0  0  0  0  0  0  0  0
    7.9014  -16.1566   26.1959 N   0  0  0  0  0  0  0  0  0  0  0  0
    8.8280  -15.5257   27.1211 C   0  0  1  0  0  0  0  0  0  0  0  0
    8.1799  -14.5260   27.9950 C   0  0  0  0  0  0  0  0  0  0  0  0
    7.5324  -13.4675   27.2015 C   0  0  0  0  0  0  0  0  0  0  0  0
    8.2722  -12.7054   26.2894 C   0  0  0  0  0  0  0  0  0  0  0  0
    7.7010  -11.7313   25.5177 C   0  0  0  0  0  0  0  0  0  0  0  0
    6.3511  -11.4622   25.6143 C   0  0  0  0  0  0  0  0  0  0  0  0
    5.6181  -12.1967   26.4983 C   0  0  0  0  0  0  0  0  0  0  0  0
    6.1891  -13.1819   27.2804 C   0  0  0  0  0  0  0  0  0  0  0  0
    9.4673  -16.5949   27.8983 C   0  0  0  0  0  0  0  0  0  0  0  0
    9.0178  -17.7617   27.9487 O   0  0  0  0  0  0  0  0  0  0  0  0
   10.6314  -16.3607   28.6349 O   0  0  0  0  0  0  0  0  0  0  0  0
  2  1  1  6
  3  2  1  0
  4  5  2  0
  4  3  1  0
  6  5  1  0
  7  8  2  0
  7  6  1  0
  8  4  1  0
  9 17  1  0
  9  2  1  0
 10  9  2  0
 11 12  1  0
 12 14  1  0
 13 12  2  0
 14 15  1  0
 16 15  1  1
 16 17  1  0
 18 16  1  0
 19 18  2  0
 20 18  1  0
 21 29  1  0
 21 20  1  0
 22 23  1  0
 21 22  1  1
 23 28  1  0
 24 23  2  0
 24 25  1  0
 25 26  2  0
 26 27  1  0
 28 27  2  0
 29 31  1  0
 30 29  2  0
M  END
$$$$
