HQF.pdb
     RDKit          3D

 31 32  0  0  1  0  0  0  0  0999 V2000
    7.3286  -17.1509   19.8411 N   0  0  0  0  0  0  0  0  0  0  0  0
    8.1626  -16.3403   20.6996 C   0  0  1  0  0  0  0  0  0  0  0  0
    7.5781  -14.9416   20.8408 C   0  0  0  0  0  0  0  0  0  0  0  0
    7.9456  -14.0511   19.7359 C   0  0  0  0  0  0  0  0  0  0  0  0
    8.7214  -14.3133   18.6210 C   0  0  0  0  0  0  0  0  0  0  0  0
    8.7869  -13.1882   17.8730 N   0  0  0  0  0  0  0  0  0  0  0  0
    8.0762  -12.2365   18.4888 C   0  0  0  0  0  0  0  0  0  0  0  0
    7.5746  -12.7638   19.6069 N   0  0  0  0  0  0  0  0  0  0  0  0
    8.2961  -16.9430   22.0367 C   0  0  0  0  0  0  0  0  0  0  0  0
    7.2687  -17.4346   22.5924 O   0  0  0  0  0  0  0  0  0  0  0  0
   12.4813  -20.6275   23.8679 N   0  0  0  0  0  0  0  0  0  0  0  0
   11.7128  -20.4591   22.7031 C   0  0  0  0  0  0  0  0  0  0  0  0
   11.9685  -21.1494   21.6895 O   0  0  0  0  0  0  0  0  0  0  0  0
   10.6275  -19.4738   22.7094 C   0  0  0  0  0  0  0  0  0  0  0  0
   10.6478  -18.7453   24.0406 C   0  0  0  0  0  0  0  0  0  0  0  0
    9.6203  -17.6318   24.0377 C   0  0  2  0  0  0  0  0  0  0  0  0
    9.5068  -17.0096   22.7469 N   0  0  0  0  0  0  0  0  0  0  0  0
   10.0025  -16.6378   25.0736 C   0  0  0  0  0  0  0  0  0  0  0  0
   10.7848  -15.6944   24.8071 O   0  0  0  0  0  0  0  0  0  0  0  0
    9.4957  -16.7330   26.3754 N   0  0  0  0  0  0  0  0  0  0  0  0
    9.8048  -15.7990   27.4452 C   0  0  1  0  0  0  0  0  0  0  0  0
    8.6004  -15.1852   28.0415 C   0  0  0  0  0  0  0  0  0  0  0  0
    8.0655  -14.1183   27.1782 C   0  0  0  0  0  0  0  0  0  0  0  0
    6.8029  -14.2444   26.5866 C   0  0  0  0  0  0  0  0  0  0  0  0
    6.2631  -13.2647   25.7997 C   0  0  0  0  0  0  0  0  0  0  0  0
    6.9580  -12.0974   25.5580 C   0  0  0  0  0  0  0  0  0  0  0  0
    8.1888  -11.9607   26.1278 C   0  0  0  0  0  0  0  0  0  0  0  0
    8.7394  -12.9464   26.9237 C   0  0  0  0  0  0  0  0  0  0  0  0
   10.5973  -16.5252   28.4455 C   0  0  0  0  0  0  0  0  0  0  0  0
   11.6759  -16.0892   28.9066 O   0  0  0  0  0  0  0  0  0  0  0  0
   10.1808  -17.7627   28.9430 O   0  0  0  0  0  0  0  0  0  0  0  0
  2  1  1  6
  3  2  1  0
  4  5  2  0
  4  3  1  0
  6  5  1  0
  7  8  2  0
  7  6  1  0
  8  4  1  0
  9 17  1  0
  9  2  1  0
 10  9  2  0
 11 12  1  0
 12 14  1  0
 13 12  2  0
 14 15  1  0
 16 15  1  6
 16 17  1  0
 18 16  1  0
 19 18  2  0
 20 18  1  0
 21 29  1  0
 21 20  1  0
 22 23  1  0
 21 22  1  1
 23 28  1  0
 24 23  2  0
 24 25  1  0
 25 26  2  0
 26 27  1  0
 28 27  2  0
 29 31  1  0
 30 29  2  0
M  END
$$$$
