HQF.pdb
     RDKit          3D

 31 32  0  0  1  0  0  0  0  0999 V2000
    9.4243  -16.6912   19.4783 N   0  0  0  0  0  0  0  0  0  0  0  0
    8.9226  -15.6997   20.4028 C   0  0  1  0  0  0  0  0  0  0  0  0
    7.6360  -15.0821   19.8725 C   0  0  0  0  0  0  0  0  0  0  0  0
    7.8081  -14.4207   18.5757 C   0  0  0  0  0  0  0  0  0  0  0  0
    8.2416  -13.1365   18.2985 C   0  0  0  0  0  0  0  0  0  0  0  0
    8.2418  -12.9671   16.9566 N   0  0  0  0  0  0  0  0  0  0  0  0
    7.8222  -14.1055   16.3928 C   0  0  0  0  0  0  0  0  0  0  0  0
    7.5640  -14.9729   17.3729 N   0  0  0  0  0  0  0  0  0  0  0  0
    8.6630  -16.2889   21.7274 C   0  0  0  0  0  0  0  0  0  0  0  0
    7.7394  -17.1486   21.8450 O   0  0  0  0  0  0  0  0  0  0  0  0
   11.2490  -20.3369   23.8409 N   0  0  0  0  0  0  0  0  0  0  0  0
   11.9950  -19.2166   23.4356 C   0  0  0  0  0  0  0  0  0  0  0  0
   13.1756  -19.3691   23.0458 O   0  0  0  0  0  0  0  0  0  0  0  0
   11.3643  -17.8940   23.4815 C   0  0  0  0  0  0  0  0  0  0  0  0
    9.9504  -18.0541   24.0089 C   0  0  0  0  0  0  0  0  0  0  0  0
    9.2791  -16.6997   24.1114 C   0  0  2  0  0  0  0  0  0  0  0  0
    9.3837  -15.9548   22.8865 N   0  0  0  0  0  0  0  0  0  0  0  0
    9.8954  -15.9545   25.2393 C   0  0  0  0  0  0  0  0  0  0  0  0
   10.9361  -15.2744   25.0731 O   0  0  0  0  0  0  0  0  0  0  0  0
    9.3257  -15.9955   26.5177 N   0  0  0  0  0  0  0  0  0  0  0  0
    9.8031  -15.2230   27.6525 C   0  0  1  0  0  0  0  0  0  0  0  0
    8.7222  -14.5006   28.3546 C   0  0  0  0  0  0  0  0  0  0  0  0
    8.0278  -13.5716   27.4469 C   0  0  0  0  0  0  0  0  0  0  0  0
    8.5997  -12.3380   27.1136 C   0  0  0  0  0  0  0  0  0  0  0  0
    7.9966  -11.4605   26.2553 C   0  0  0  0  0  0  0  0  0  0  0  0
    6.7814  -11.7675   25.6783 C   0  0  0  0  0  0  0  0  0  0  0  0
    6.2126  -12.9656   25.9936 C   0  0  0  0  0  0  0  0  0  0  0  0
    6.8168  -13.8562   26.8597 C   0  0  0  0  0  0  0  0  0  0  0  0
   10.5091  -16.1490   28.5470 C   0  0  0  0  0  0  0  0  0  0  0  0
   10.5245  -17.3877   28.3697 O   0  0  0  0  0  0  0  0  0  0  0  0
   11.2128  -15.6867   29.6621 O   0  0  0  0  0  0  0  0  0  0  0  0
  2  1  1  6
  3  2  1  0
  4  5  2  0
  4  3  1  0
  6  5  1  0
  7  8  2  0
  7  6  1  0
  8  4  1  0
  9 17  1  0
  9  2  1  0
 10  9  2  0
 11 12  1  0
 12 14  1  0
 13 12  2  0
 14 15  1  0
 16 15  1  6
 16 17  1  0
 18 16  1  0
 19 18  2  0
 20 18  1  0
 21 29  1  0
 21 20  1  0
 22 23  1  0
 21 22  1  1
 23 28  1  0
 24 23  2  0
 24 25  1  0
 25 26  2  0
 26 27  1  0
 28 27  2  0
 29 31  1  0
 30 29  2  0
M  END
$$$$
