HQF.pdb
     RDKit          3D

 31 32  0  0  1  0  0  0  0  0999 V2000
    8.4372  -17.3092   19.9748 N   0  0  0  0  0  0  0  0  0  0  0  0
    8.8386  -16.2846   20.9122 C   0  0  1  0  0  0  0  0  0  0  0  0
    7.7840  -15.1890   20.9853 C   0  0  0  0  0  0  0  0  0  0  0  0
    7.9275  -14.1820   19.9296 C   0  0  0  0  0  0  0  0  0  0  0  0
    8.8619  -14.1072   18.9123 C   0  0  0  0  0  0  0  0  0  0  0  0
    8.6030  -13.0024   18.1761 N   0  0  0  0  0  0  0  0  0  0  0  0
    7.5376  -12.3898   18.7047 C   0  0  0  0  0  0  0  0  0  0  0  0
    7.1386  -13.1054   19.7575 N   0  0  0  0  0  0  0  0  0  0  0  0
    9.0441  -16.8449   22.2586 C   0  0  0  0  0  0  0  0  0  0  0  0
    8.1824  -17.6481   22.7259 O   0  0  0  0  0  0  0  0  0  0  0  0
   13.7960  -19.5774   24.1797 N   0  0  0  0  0  0  0  0  0  0  0  0
   12.8362  -19.8377   23.1864 C   0  0  0  0  0  0  0  0  0  0  0  0
   13.0586  -20.7244   22.3300 O   0  0  0  0  0  0  0  0  0  0  0  0
   11.5947  -19.0580   23.1825 C   0  0  0  0  0  0  0  0  0  0  0  0
   11.6761  -18.0196   24.2862 C   0  0  0  0  0  0  0  0  0  0  0  0
   10.4014  -17.2016   24.3232 C   0  0  2  0  0  0  0  0  0  0  0  0
   10.1501  -16.5423   23.0709 N   0  0  0  0  0  0  0  0  0  0  0  0
   10.5083  -16.2156   25.4294 C   0  0  0  0  0  0  0  0  0  0  0  0
   11.2605  -15.2165   25.3345 O   0  0  0  0  0  0  0  0  0  0  0  0
    9.7688  -16.3809   26.6068 N   0  0  0  0  0  0  0  0  0  0  0  0
    9.8805  -15.5197   27.7722 C   0  0  1  0  0  0  0  0  0  0  0  0
    8.5701  -15.0679   28.2837 C   0  0  0  0  0  0  0  0  0  0  0  0
    7.9798  -14.0460   27.4024 C   0  0  0  0  0  0  0  0  0  0  0  0
    8.6250  -12.8204   27.1984 C   0  0  0  0  0  0  0  0  0  0  0  0
    8.1202  -11.8576   26.3685 C   0  0  0  0  0  0  0  0  0  0  0  0
    6.9359  -12.0661   25.6919 C   0  0  0  0  0  0  0  0  0  0  0  0
    6.2966  -13.2552   25.8808 C   0  0  0  0  0  0  0  0  0  0  0  0
    6.8014  -14.2316   26.7175 C   0  0  0  0  0  0  0  0  0  0  0  0
   10.6375  -16.2575   28.7913 C   0  0  0  0  0  0  0  0  0  0  0  0
   10.8975  -17.4779   28.6952 O   0  0  0  0  0  0  0  0  0  0  0  0
   11.1150  -15.6240   29.9416 O   0  0  0  0  0  0  0  0  0  0  0  0
  2  1  1  6
  3  2  1  0
  4  5  2  0
  4  3  1  0
  6  5  1  0
  7  8  2  0
  7  6  1  0
  8  4  1  0
  9 17  1  0
  9  2  1  0
 10  9  2  0
 11 12  1  0
 12 14  1  0
 13 12  2  0
 14 15  1  0
 16 15  1  6
 16 17  1  0
 18 16  1  0
 19 18  2  0
 20 18  1  0
 21 29  1  0
 21 20  1  0
 22 23  1  0
 21 22  1  1
 23 28  1  0
 24 23  2  0
 24 25  1  0
 25 26  2  0
 26 27  1  0
 28 27  2  0
 29 31  1  0
 30 29  2  0
M  END
$$$$
