IIP.pdb
     RDKit          3D

 24 24  0  0  1  0  0  0  0  0999 V2000
    9.0254  -21.6475   26.7020 C   0  0  0  0  0  0  0  0  0  0  0  0
    7.8927  -20.7408   27.0270 C   0  0  0  0  0  0  0  0  0  0  0  0
    7.7200  -19.5892   26.0428 C   0  0  2  0  0  0  0  0  0  0  0  0
    9.0114  -18.7982   26.0201 C   0  0  0  0  0  0  0  0  0  0  0  0
    6.6105  -18.6725   26.5367 C   0  0  2  0  0  0  0  0  0  0  0  0
    5.3264  -19.4237   26.3703 N   0  0  0  0  0  0  0  0  0  0  0  0
    6.4486  -17.4913   25.6811 C   0  0  0  0  0  0  0  0  0  0  0  0
    5.9011  -17.6268   24.5508 O   0  0  0  0  0  0  0  0  0  0  0  0
    6.6697  -12.2755   27.4698 C   0  0  0  0  0  0  0  0  0  0  0  0
    6.1610  -13.4285   26.5722 C   0  0  0  0  0  0  0  0  0  0  0  0
    7.3382  -13.8371   25.7553 C   0  0  2  0  0  0  0  0  0  0  0  0
    7.6297  -12.7286   24.7483 C   0  0  0  0  0  0  0  0  0  0  0  0
    7.1649  -15.1794   25.0277 C   0  0  2  0  0  0  0  0  0  0  0  0
    6.8621  -16.1664   26.0346 N   0  0  0  0  0  0  0  0  0  0  0  0
    8.1884  -15.4304   24.0551 C   0  0  0  0  0  0  0  0  0  0  0  0
    9.1929  -16.1806   24.4636 O   0  0  0  0  0  0  0  0  0  0  0  0
    8.3485  -15.0318   22.7099 N   0  0  0  0  0  0  0  0  0  0  0  0
    7.7394  -13.7958   22.1365 C   0  0  0  0  0  0  0  0  0  0  0  0
    7.0516  -14.4073   20.9241 C   0  0  0  0  0  0  0  0  0  0  0  0
    8.1230  -15.2955   20.3905 C   0  0  0  0  0  0  0  0  0  0  0  0
    9.0554  -15.5810   21.5821 C   0  0  1  0  0  0  0  0  0  0  0  0
   10.3468  -14.8635   21.3809 C   0  0  0  0  0  0  0  0  0  0  0  0
   11.3880  -15.3567   20.6145 O   0  0  0  0  0  0  0  0  0  0  0  0
   10.5027  -13.7512   21.9349 O   0  0  0  0  0  0  0  0  0  0  0  0
  2  3  1  0
  2  1  1  0
  3  4  1  1
  5  6  1  6
  5  3  1  0
  7  5  1  0
  8  7  2  0
  9 10  1  0
 11 13  1  0
 11 12  1  6
 11 10  1  0
 13 14  1  1
 14  7  1  0
 15 13  1  0
 15 16  2  0
 17 15  1  0
 18 17  1  0
 19 18  1  0
 20 19  1  0
 20 21  1  0
 21 17  1  0
 21 22  1  6
 22 23  1  0
 24 22  2  0
M  END
$$$$
