IIP.pdb
     RDKit          3D

 24 24  0  0  1  0  0  0  0  0999 V2000
    8.2426  -12.2605   19.2277 C   0  0  0  0  0  0  0  0  0  0  0  0
    7.9233  -13.1997   20.3351 C   0  0  0  0  0  0  0  0  0  0  0  0
    8.6694  -14.5272   20.2551 C   0  0  2  0  0  0  0  0  0  0  0  0
    8.2188  -15.2395   18.9967 C   0  0  0  0  0  0  0  0  0  0  0  0
    8.2870  -15.3875   21.4504 C   0  0  2  0  0  0  0  0  0  0  0  0
    6.8004  -15.5560   21.4006 N   0  0  0  0  0  0  0  0  0  0  0  0
    8.5277  -14.7005   22.7246 C   0  0  0  0  0  0  0  0  0  0  0  0
    9.3677  -13.7578   22.7605 O   0  0  0  0  0  0  0  0  0  0  0  0
    5.3302  -12.5623   26.2474 C   0  0  0  0  0  0  0  0  0  0  0  0
    6.4779  -12.9663   25.2917 C   0  0  0  0  0  0  0  0  0  0  0  0
    7.2641  -13.9907   26.0350 C   0  0  2  0  0  0  0  0  0  0  0  0
    7.8036  -13.3478   27.3093 C   0  0  0  0  0  0  0  0  0  0  0  0
    8.4155  -14.6096   25.2274 C   0  0  2  0  0  0  0  0  0  0  0  0
    7.8669  -15.0131   23.9562 N   0  0  0  0  0  0  0  0  0  0  0  0
    9.2141  -15.5229   25.9921 C   0  0  0  0  0  0  0  0  0  0  0  0
    9.4067  -16.7079   25.4468 O   0  0  0  0  0  0  0  0  0  0  0  0
    9.8587  -15.4138   27.2437 N   0  0  0  0  0  0  0  0  0  0  0  0
    9.5571  -14.3419   28.2375 C   0  0  0  0  0  0  0  0  0  0  0  0
   10.9723  -13.8391   28.4851 C   0  0  0  0  0  0  0  0  0  0  0  0
   11.7203  -15.1190   28.6392 C   0  0  0  0  0  0  0  0  0  0  0  0
   10.8742  -16.1825   27.9153 C   0  0  1  0  0  0  0  0  0  0  0  0
   10.2551  -17.0901   28.9233 C   0  0  0  0  0  0  0  0  0  0  0  0
   10.9367  -18.1156   29.5544 O   0  0  0  0  0  0  0  0  0  0  0  0
    9.0502  -16.9184   29.2186 O   0  0  0  0  0  0  0  0  0  0  0  0
  2  3  1  0
  2  1  1  0
  3  4  1  6
  5  6  1  6
  5  3  1  0
  7  5  1  0
  8  7  2  0
  9 10  1  0
 11 13  1  0
 11 12  1  1
 11 10  1  0
 13 14  1  6
 14  7  1  0
 15 13  1  0
 15 16  2  0
 17 15  1  0
 18 17  1  0
 19 18  1  0
 20 19  1  0
 20 21  1  0
 21 17  1  0
 21 22  1  1
 22 23  1  0
 24 22  2  0
M  END
$$$$
