IIP.pdb
     RDKit          3D

 24 24  0  0  1  0  0  0  0  0999 V2000
    9.2241  -21.3710   26.8992 C   0  0  0  0  0  0  0  0  0  0  0  0
    8.0027  -20.5475   27.1008 C   0  0  0  0  0  0  0  0  0  0  0  0
    7.8526  -19.4078   26.0990 C   0  0  2  0  0  0  0  0  0  0  0  0
    9.0955  -18.5465   26.1837 C   0  0  0  0  0  0  0  0  0  0  0  0
    6.6556  -18.5537   26.4901 C   0  0  2  0  0  0  0  0  0  0  0  0
    5.4329  -19.3601   26.1809 N   0  0  0  0  0  0  0  0  0  0  0  0
    6.5252  -17.3641   25.6407 C   0  0  0  0  0  0  0  0  0  0  0  0
    6.1185  -17.5039   24.4530 O   0  0  0  0  0  0  0  0  0  0  0  0
    6.4894  -12.1120   27.5167 C   0  0  0  0  0  0  0  0  0  0  0  0
    6.0788  -13.2931   26.6055 C   0  0  0  0  0  0  0  0  0  0  0  0
    7.3269  -13.6933   25.8970 C   0  0  2  0  0  0  0  0  0  0  0  0
    7.7282  -12.5597   24.9579 C   0  0  0  0  0  0  0  0  0  0  0  0
    7.2129  -15.0113   25.1155 C   0  0  2  0  0  0  0  0  0  0  0  0
    6.8197  -16.0270   26.0608 N   0  0  0  0  0  0  0  0  0  0  0  0
    8.3166  -15.2387   24.2284 C   0  0  0  0  0  0  0  0  0  0  0  0
    9.3469  -15.8751   24.7501 O   0  0  0  0  0  0  0  0  0  0  0  0
    8.5357  -14.9158   22.8713 N   0  0  0  0  0  0  0  0  0  0  0  0
    7.9213  -13.7367   22.1932 C   0  0  0  0  0  0  0  0  0  0  0  0
    7.3170  -14.4415   20.9869 C   0  0  0  0  0  0  0  0  0  0  0  0
    8.4410  -15.3241   20.5639 C   0  0  0  0  0  0  0  0  0  0  0  0
    9.3172  -15.5076   21.8167 C   0  0  1  0  0  0  0  0  0  0  0  0
   10.5956  -14.7615   21.6381 C   0  0  0  0  0  0  0  0  0  0  0  0
   11.7079  -15.2848   21.0030 O   0  0  0  0  0  0  0  0  0  0  0  0
   10.6717  -13.5946   22.0866 O   0  0  0  0  0  0  0  0  0  0  0  0
  2  3  1  0
  2  1  1  0
  3  4  1  1
  5  6  1  6
  5  3  1  0
  7  5  1  0
  8  7  2  0
  9 10  1  0
 11 13  1  0
 11 12  1  6
 11 10  1  0
 13 14  1  1
 14  7  1  0
 15 13  1  0
 15 16  2  0
 17 15  1  0
 18 17  1  0
 19 18  1  0
 20 19  1  0
 20 21  1  0
 21 17  1  0
 21 22  1  6
 22 23  1  0
 24 22  2  0
M  END
$$$$
