IIP.pdb
     RDKit          3D

 24 24  0  0  1  0  0  0  0  0999 V2000
    7.4036  -21.4917   24.2097 C   0  0  0  0  0  0  0  0  0  0  0  0
    7.0992  -20.6254   25.3790 C   0  0  0  0  0  0  0  0  0  0  0  0
    8.2397  -20.5216   26.3858 C   0  0  2  0  0  0  0  0  0  0  0  0
    8.4871  -21.9039   26.9533 C   0  0  0  0  0  0  0  0  0  0  0  0
    7.8166  -19.6086   27.5271 C   0  0  2  0  0  0  0  0  0  0  0  0
    6.4739  -20.0865   27.9846 N   0  0  0  0  0  0  0  0  0  0  0  0
    7.5729  -18.2344   27.0733 C   0  0  0  0  0  0  0  0  0  0  0  0
    6.4491  -17.9472   26.5732 O   0  0  0  0  0  0  0  0  0  0  0  0
   10.0720  -13.6218   28.7445 C   0  0  0  0  0  0  0  0  0  0  0  0
    8.9898  -14.6201   28.2689 C   0  0  0  0  0  0  0  0  0  0  0  0
    9.3445  -14.9388   26.8573 C   0  0  2  0  0  0  0  0  0  0  0  0
    9.2112  -13.6632   26.0309 C   0  0  0  0  0  0  0  0  0  0  0  0
    8.5017  -16.0624   26.2342 C   0  0  2  0  0  0  0  0  0  0  0  0
    8.5235  -17.1667   27.1613 N   0  0  0  0  0  0  0  0  0  0  0  0
    8.7884  -16.2792   24.8458 C   0  0  0  0  0  0  0  0  0  0  0  0
    9.5024  -17.3530   24.5709 O   0  0  0  0  0  0  0  0  0  0  0  0
    8.4532  -15.5623   23.6763 N   0  0  0  0  0  0  0  0  0  0  0  0
    7.9696  -14.1503   23.6830 C   0  0  0  0  0  0  0  0  0  0  0  0
    6.7104  -14.3239   22.8456 C   0  0  0  0  0  0  0  0  0  0  0  0
    7.2119  -15.1698   21.7256 C   0  0  0  0  0  0  0  0  0  0  0  0
    8.4644  -15.8795   22.2718 C   0  0  1  0  0  0  0  0  0  0  0  0
    9.6783  -15.3081   21.6214 C   0  0  0  0  0  0  0  0  0  0  0  0
   10.0860  -15.6302   20.3390 O   0  0  0  0  0  0  0  0  0  0  0  0
   10.3712  -14.4898   22.2685 O   0  0  0  0  0  0  0  0  0  0  0  0
  2  3  1  0
  2  1  1  0
  3  4  1  1
  5  6  1  6
  5  3  1  0
  7  5  1  0
  8  7  2  0
  9 10  1  0
 11 13  1  0
 11 12  1  6
 11 10  1  0
 13 14  1  1
 14  7  1  0
 15 13  1  0
 15 16  2  0
 17 15  1  0
 18 17  1  0
 19 18  1  0
 20 19  1  0
 20 21  1  0
 21 17  1  0
 21 22  1  6
 22 23  1  0
 24 22  2  0
M  END
$$$$
