IIP.pdb
     RDKit          3D

 24 24  0  0  1  0  0  0  0  0999 V2000
    9.3085  -21.4472   26.8243 C   0  0  0  0  0  0  0  0  0  0  0  0
    8.1876  -20.5353   27.1745 C   0  0  0  0  0  0  0  0  0  0  0  0
    7.9513  -19.4257   26.1558 C   0  0  2  0  0  0  0  0  0  0  0  0
    9.1997  -18.5700   26.1012 C   0  0  0  0  0  0  0  0  0  0  0  0
    6.7977  -18.5527   26.6271 C   0  0  2  0  0  0  0  0  0  0  0  0
    5.5522  -19.3701   26.4802 N   0  0  0  0  0  0  0  0  0  0  0  0
    6.5784  -17.4027   25.7422 C   0  0  0  0  0  0  0  0  0  0  0  0
    6.0755  -17.5986   24.6001 O   0  0  0  0  0  0  0  0  0  0  0  0
    6.3921  -12.0909   27.3491 C   0  0  0  0  0  0  0  0  0  0  0  0
    6.0111  -13.3437   26.5249 C   0  0  0  0  0  0  0  0  0  0  0  0
    7.2405  -13.6990   25.7618 C   0  0  2  0  0  0  0  0  0  0  0  0
    7.5043  -12.5973   24.7397 C   0  0  0  0  0  0  0  0  0  0  0  0
    7.1744  -15.0649   25.0610 C   0  0  2  0  0  0  0  0  0  0  0  0
    6.8869  -16.0452   26.0788 N   0  0  0  0  0  0  0  0  0  0  0  0
    8.2500  -15.2775   24.1366 C   0  0  0  0  0  0  0  0  0  0  0  0
    9.3382  -15.8240   24.6424 O   0  0  0  0  0  0  0  0  0  0  0  0
    8.3901  -15.0183   22.7556 N   0  0  0  0  0  0  0  0  0  0  0  0
    7.6327  -13.9538   22.0339 C   0  0  0  0  0  0  0  0  0  0  0  0
    7.0684  -14.7910   20.8948 C   0  0  0  0  0  0  0  0  0  0  0  0
    8.2657  -15.5765   20.4812 C   0  0  0  0  0  0  0  0  0  0  0  0
    9.1960  -15.5898   21.7081 C   0  0  1  0  0  0  0  0  0  0  0  0
   10.3816  -14.7272   21.4375 C   0  0  0  0  0  0  0  0  0  0  0  0
   11.5458  -15.1854   20.8466 O   0  0  0  0  0  0  0  0  0  0  0  0
   10.3252  -13.5188   21.7617 O   0  0  0  0  0  0  0  0  0  0  0  0
  2  3  1  0
  2  1  1  0
  3  4  1  1
  5  6  1  6
  5  3  1  0
  7  5  1  0
  8  7  2  0
  9 10  1  0
 11 13  1  0
 11 12  1  6
 11 10  1  0
 13 14  1  1
 14  7  1  0
 15 13  1  0
 15 16  2  0
 17 15  1  0
 18 17  1  0
 19 18  1  0
 20 19  1  0
 20 21  1  0
 21 17  1  0
 21 22  1  6
 22 23  1  0
 24 22  2  0
M  END
$$$$
