IIP.pdb
     RDKit          3D

 24 24  0  0  1  0  0  0  0  0999 V2000
    9.3165  -21.6831   26.5478 C   0  0  0  0  0  0  0  0  0  0  0  0
    8.3196  -20.7011   27.0501 C   0  0  0  0  0  0  0  0  0  0  0  0
    8.0078  -19.5780   26.0671 C   0  0  2  0  0  0  0  0  0  0  0  0
    9.2933  -18.8229   25.7997 C   0  0  0  0  0  0  0  0  0  0  0  0
    7.0165  -18.6164   26.7056 C   0  0  2  0  0  0  0  0  0  0  0  0
    5.7061  -19.3363   26.7795 N   0  0  0  0  0  0  0  0  0  0  0  0
    6.7413  -17.4574   25.8485 C   0  0  0  0  0  0  0  0  0  0  0  0
    6.0806  -17.6277   24.7855 O   0  0  0  0  0  0  0  0  0  0  0  0
    6.7357  -12.1746   27.3896 C   0  0  0  0  0  0  0  0  0  0  0  0
    6.2775  -13.3788   26.5329 C   0  0  0  0  0  0  0  0  0  0  0  0
    7.4768  -13.7764   25.7432 C   0  0  2  0  0  0  0  0  0  0  0  0
    7.7337  -12.7026   24.6902 C   0  0  0  0  0  0  0  0  0  0  0  0
    7.3623  -15.1551   25.0747 C   0  0  2  0  0  0  0  0  0  0  0  0
    7.1628  -16.1178   26.1298 N   0  0  0  0  0  0  0  0  0  0  0  0
    8.3615  -15.3804   24.0710 C   0  0  0  0  0  0  0  0  0  0  0  0
    9.4671  -15.9663   24.4870 O   0  0  0  0  0  0  0  0  0  0  0  0
    8.4088  -15.0994   22.6880 N   0  0  0  0  0  0  0  0  0  0  0  0
    7.5769  -14.0497   22.0294 C   0  0  0  0  0  0  0  0  0  0  0  0
    6.9693  -14.8894   20.9146 C   0  0  0  0  0  0  0  0  0  0  0  0
    8.1620  -15.6321   20.4175 C   0  0  0  0  0  0  0  0  0  0  0  0
    9.1657  -15.6323   21.5851 C   0  0  1  0  0  0  0  0  0  0  0  0
   10.3060  -14.7300   21.2554 C   0  0  0  0  0  0  0  0  0  0  0  0
   11.4059  -15.1223   20.5131 O   0  0  0  0  0  0  0  0  0  0  0  0
   10.2709  -13.5494   21.6718 O   0  0  0  0  0  0  0  0  0  0  0  0
  2  3  1  0
  2  1  1  0
  3  4  1  1
  5  6  1  6
  5  3  1  0
  7  5  1  0
  8  7  2  0
  9 10  1  0
 11 13  1  0
 11 12  1  6
 11 10  1  0
 13 14  1  1
 14  7  1  0
 15 13  1  0
 15 16  2  0
 17 15  1  0
 18 17  1  0
 19 18  1  0
 20 19  1  0
 20 21  1  0
 21 17  1  0
 21 22  1  6
 22 23  1  0
 24 22  2  0
M  END
$$$$
