IIP.pdb
     RDKit          3D

 24 24  0  0  1  0  0  0  0  0999 V2000
    9.6812  -22.2581   27.0349 C   0  0  0  0  0  0  0  0  0  0  0  0
    8.2191  -22.0844   26.8281 C   0  0  0  0  0  0  0  0  0  0  0  0
    7.8236  -20.6937   26.3440 C   0  0  2  0  0  0  0  0  0  0  0  0
    8.6187  -20.3933   25.0904 C   0  0  0  0  0  0  0  0  0  0  0  0
    8.2029  -19.6696   27.4035 C   0  0  2  0  0  0  0  0  0  0  0  0
    7.3240  -19.9300   28.5870 N   0  0  0  0  0  0  0  0  0  0  0  0
    7.8608  -18.3018   26.9966 C   0  0  0  0  0  0  0  0  0  0  0  0
    6.6959  -18.0656   26.5688 O   0  0  0  0  0  0  0  0  0  0  0  0
    9.9557  -13.5449   28.7264 C   0  0  0  0  0  0  0  0  0  0  0  0
    8.9898  -14.6496   28.2358 C   0  0  0  0  0  0  0  0  0  0  0  0
    9.3515  -14.8805   26.8089 C   0  0  2  0  0  0  0  0  0  0  0  0
    9.0699  -13.5987   26.0307 C   0  0  0  0  0  0  0  0  0  0  0  0
    8.6212  -16.0651   26.1576 C   0  0  2  0  0  0  0  0  0  0  0  0
    8.7572  -17.1863   27.0543 N   0  0  0  0  0  0  0  0  0  0  0  0
    8.9208  -16.2151   24.7631 C   0  0  0  0  0  0  0  0  0  0  0  0
    9.8166  -17.1363   24.4672 O   0  0  0  0  0  0  0  0  0  0  0  0
    8.4403  -15.5641   23.6058 N   0  0  0  0  0  0  0  0  0  0  0  0
    7.6663  -14.2884   23.6369 C   0  0  0  0  0  0  0  0  0  0  0  0
    6.4733  -14.7108   22.7911 C   0  0  0  0  0  0  0  0  0  0  0  0
    7.1440  -15.4084   21.6576 C   0  0  0  0  0  0  0  0  0  0  0  0
    8.5192  -15.8446   22.1957 C   0  0  1  0  0  0  0  0  0  0  0  0
    9.5830  -15.0147   21.5612 C   0  0  0  0  0  0  0  0  0  0  0  0
   10.0331  -15.2021   20.2663 O   0  0  0  0  0  0  0  0  0  0  0  0
   10.1015  -14.0947   22.2345 O   0  0  0  0  0  0  0  0  0  0  0  0
  2  3  1  0
  2  1  1  0
  3  4  1  6
  5  6  1  1
  5  3  1  0
  7  5  1  0
  8  7  2  0
  9 10  1  0
 11 13  1  0
 11 12  1  6
 11 10  1  0
 13 14  1  1
 14  7  1  0
 15 13  1  0
 15 16  2  0
 17 15  1  0
 18 17  1  0
 19 18  1  0
 20 19  1  0
 20 21  1  0
 21 17  1  0
 21 22  1  6
 22 23  1  0
 24 22  2  0
M  END
$$$$
