IIP.pdb
     RDKit          3D

 24 24  0  0  1  0  0  0  0  0999 V2000
    8.1202  -21.9818   26.4912 C   0  0  0  0  0  0  0  0  0  0  0  0
    8.1709  -20.5880   27.0064 C   0  0  0  0  0  0  0  0  0  0  0  0
    7.8408  -19.5292   25.9600 C   0  0  2  0  0  0  0  0  0  0  0  0
    9.0914  -18.7106   25.7153 C   0  0  0  0  0  0  0  0  0  0  0  0
    6.7666  -18.6022   26.5095 C   0  0  2  0  0  0  0  0  0  0  0  0
    5.4729  -19.3515   26.4347 N   0  0  0  0  0  0  0  0  0  0  0  0
    6.5540  -17.4326   25.6490 C   0  0  0  0  0  0  0  0  0  0  0  0
    6.0097  -17.5958   24.5208 O   0  0  0  0  0  0  0  0  0  0  0  0
    6.5475  -12.1280   27.3134 C   0  0  0  0  0  0  0  0  0  0  0  0
    6.1163  -13.3662   26.4920 C   0  0  0  0  0  0  0  0  0  0  0  0
    7.3194  -13.7495   25.7009 C   0  0  2  0  0  0  0  0  0  0  0  0
    7.5989  -12.6425   24.6888 C   0  0  0  0  0  0  0  0  0  0  0  0
    7.1968  -15.1027   24.9833 C   0  0  2  0  0  0  0  0  0  0  0  0
    6.9135  -16.0902   25.9954 N   0  0  0  0  0  0  0  0  0  0  0  0
    8.2389  -15.3295   24.0246 C   0  0  0  0  0  0  0  0  0  0  0  0
    9.2898  -15.9904   24.4690 O   0  0  0  0  0  0  0  0  0  0  0  0
    8.3775  -14.9846   22.6623 N   0  0  0  0  0  0  0  0  0  0  0  0
    7.6048  -13.8901   22.0046 C   0  0  0  0  0  0  0  0  0  0  0  0
    7.0559  -14.6652   20.8151 C   0  0  0  0  0  0  0  0  0  0  0  0
    8.2662  -15.4052   20.3579 C   0  0  0  0  0  0  0  0  0  0  0  0
    9.1943  -15.4786   21.5843 C   0  0  1  0  0  0  0  0  0  0  0  0
   10.3666  -14.5827   21.3700 C   0  0  0  0  0  0  0  0  0  0  0  0
   11.5001  -14.9555   20.6694 O   0  0  0  0  0  0  0  0  0  0  0  0
   10.3278  -13.4263   21.8494 O   0  0  0  0  0  0  0  0  0  0  0  0
  2  3  1  0
  2  1  1  0
  3  4  1  1
  5  6  1  6
  5  3  1  0
  7  5  1  0
  8  7  2  0
  9 10  1  0
 11 13  1  0
 11 12  1  6
 11 10  1  0
 13 14  1  1
 14  7  1  0
 15 13  1  0
 15 16  2  0
 17 15  1  0
 18 17  1  0
 19 18  1  0
 20 19  1  0
 20 21  1  0
 21 17  1  0
 21 22  1  6
 22 23  1  0
 24 22  2  0
M  END
$$$$
