IIP.pdb
     RDKit          3D

 24 24  0  0  1  0  0  0  0  0999 V2000
    8.7260  -21.8434   25.8968 C   0  0  0  0  0  0  0  0  0  0  0  0
    7.6599  -20.8945   26.3133 C   0  0  0  0  0  0  0  0  0  0  0  0
    7.5387  -19.6675   25.4162 C   0  0  2  0  0  0  0  0  0  0  0  0
    8.8514  -18.9145   25.4771 C   0  0  0  0  0  0  0  0  0  0  0  0
    6.4448  -18.7592   25.9579 C   0  0  2  0  0  0  0  0  0  0  0  0
    5.1414  -19.4353   25.6669 N   0  0  0  0  0  0  0  0  0  0  0  0
    6.3642  -17.4924   25.2214 C   0  0  0  0  0  0  0  0  0  0  0  0
    5.9037  -17.4986   24.0452 O   0  0  0  0  0  0  0  0  0  0  0  0
    6.4969  -12.3873   27.4393 C   0  0  0  0  0  0  0  0  0  0  0  0
    6.0742  -13.5044   26.4557 C   0  0  0  0  0  0  0  0  0  0  0  0
    7.3239  -13.8923   25.7433 C   0  0  2  0  0  0  0  0  0  0  0  0
    7.7752  -12.7102   24.8907 C   0  0  0  0  0  0  0  0  0  0  0  0
    7.1878  -15.1505   24.8719 C   0  0  2  0  0  0  0  0  0  0  0  0
    6.7659  -16.2202   25.7423 N   0  0  0  0  0  0  0  0  0  0  0  0
    8.2931  -15.3402   23.9780 C   0  0  0  0  0  0  0  0  0  0  0  0
    9.2823  -16.0786   24.4414 O   0  0  0  0  0  0  0  0  0  0  0  0
    8.5496  -14.8897   22.6645 N   0  0  0  0  0  0  0  0  0  0  0  0
    7.9432  -13.6571   22.0808 C   0  0  0  0  0  0  0  0  0  0  0  0
    7.3833  -14.2505   20.7957 C   0  0  0  0  0  0  0  0  0  0  0  0
    8.5292  -15.0806   20.3272 C   0  0  0  0  0  0  0  0  0  0  0  0
    9.3690  -15.3737   21.5840 C   0  0  1  0  0  0  0  0  0  0  0  0
   10.6440  -14.6038   21.5158 C   0  0  0  0  0  0  0  0  0  0  0  0
   11.7683  -15.0387   20.8365 O   0  0  0  0  0  0  0  0  0  0  0  0
   10.7056  -13.5005   22.1052 O   0  0  0  0  0  0  0  0  0  0  0  0
  2  3  1  0
  2  1  1  0
  3  4  1  1
  5  6  1  6
  5  3  1  0
  7  5  1  0
  8  7  2  0
  9 10  1  0
 11 13  1  0
 11 12  1  6
 11 10  1  0
 13 14  1  1
 14  7  1  0
 15 13  1  0
 15 16  2  0
 17 15  1  0
 18 17  1  0
 19 18  1  0
 20 19  1  0
 20 21  1  0
 21 17  1  0
 21 22  1  6
 22 23  1  0
 24 22  2  0
M  END
$$$$
