IIP.pdb
     RDKit          3D

 24 24  0  0  1  0  0  0  0  0999 V2000
    8.9801  -20.5063   23.9972 C   0  0  0  0  0  0  0  0  0  0  0  0
    7.6677  -19.8172   24.1125 C   0  0  0  0  0  0  0  0  0  0  0  0
    7.2777  -19.4646   25.5438 C   0  0  2  0  0  0  0  0  0  0  0  0
    7.0893  -20.7590   26.3074 C   0  0  0  0  0  0  0  0  0  0  0  0
    5.9489  -18.7234   25.5310 C   0  0  2  0  0  0  0  0  0  0  0  0
    5.0254  -19.5119   24.6556 N   0  0  0  0  0  0  0  0  0  0  0  0
    6.0502  -17.4202   24.8638 C   0  0  0  0  0  0  0  0  0  0  0  0
    5.7210  -17.3300   23.6477 O   0  0  0  0  0  0  0  0  0  0  0  0
    6.6228  -12.4589   27.4230 C   0  0  0  0  0  0  0  0  0  0  0  0
    6.1300  -13.4409   26.3336 C   0  0  0  0  0  0  0  0  0  0  0  0
    7.3680  -13.9966   25.7184 C   0  0  2  0  0  0  0  0  0  0  0  0
    8.1011  -12.8615   25.0098 C   0  0  0  0  0  0  0  0  0  0  0  0
    7.1202  -15.1564   24.7414 C   0  0  2  0  0  0  0  0  0  0  0  0
    6.4936  -16.2138   25.4957 N   0  0  0  0  0  0  0  0  0  0  0  0
    8.2486  -15.4385   23.9025 C   0  0  0  0  0  0  0  0  0  0  0  0
    9.0954  -16.3362   24.3670 O   0  0  0  0  0  0  0  0  0  0  0  0
    8.6529  -14.9424   22.6438 N   0  0  0  0  0  0  0  0  0  0  0  0
    8.2011  -13.6329   22.0881 C   0  0  0  0  0  0  0  0  0  0  0  0
    7.7076  -14.1066   20.7283 C   0  0  0  0  0  0  0  0  0  0  0  0
    8.8183  -15.0060   20.3053 C   0  0  0  0  0  0  0  0  0  0  0  0
    9.5203  -15.4368   21.6062 C   0  0  1  0  0  0  0  0  0  0  0  0
   10.8547  -14.7769   21.6885 C   0  0  0  0  0  0  0  0  0  0  0  0
   11.1812  -13.8197   22.6328 O   0  0  0  0  0  0  0  0  0  0  0  0
   11.7331  -15.1042   20.8579 O   0  0  0  0  0  0  0  0  0  0  0  0
  2  3  1  0
  2  1  1  0
  3  4  1  1
  5  6  1  6
  5  3  1  0
  7  5  1  0
  8  7  2  0
  9 10  1  0
 11 13  1  0
 11 12  1  6
 11 10  1  0
 13 14  1  1
 14  7  1  0
 15 13  1  0
 15 16  2  0
 17 15  1  0
 18 17  1  0
 19 18  1  0
 20 19  1  0
 20 21  1  0
 21 17  1  0
 21 22  1  1
 22 23  1  0
 24 22  2  0
M  END
$$$$
