IIP.pdb
     RDKit          3D

 24 24  0  0  1  0  0  0  0  0999 V2000
    9.9319  -19.1821   29.0893 C   0  0  0  0  0  0  0  0  0  0  0  0
    9.1384  -19.9807   28.1180 C   0  0  0  0  0  0  0  0  0  0  0  0
    8.5879  -19.1673   26.9517 C   0  0  2  0  0  0  0  0  0  0  0  0
    9.7370  -18.3921   26.3412 C   0  0  0  0  0  0  0  0  0  0  0  0
    7.5676  -18.1684   27.4773 C   0  0  2  0  0  0  0  0  0  0  0  0
    6.3467  -18.9534   27.8432 N   0  0  0  0  0  0  0  0  0  0  0  0
    7.1036  -17.2506   26.4303 C   0  0  0  0  0  0  0  0  0  0  0  0
    6.5150  -17.7262   25.4189 O   0  0  0  0  0  0  0  0  0  0  0  0
    6.5794  -11.7559   27.0537 C   0  0  0  0  0  0  0  0  0  0  0  0
    6.2061  -13.1527   26.5029 C   0  0  0  0  0  0  0  0  0  0  0  0
    7.3718  -13.5713   25.6747 C   0  0  2  0  0  0  0  0  0  0  0  0
    7.4269  -12.6770   24.4397 C   0  0  0  0  0  0  0  0  0  0  0  0
    7.3488  -15.0495   25.2558 C   0  0  2  0  0  0  0  0  0  0  0  0
    7.2596  -15.8274   26.4669 N   0  0  0  0  0  0  0  0  0  0  0  0
    8.3322  -15.3699   24.2624 C   0  0  0  0  0  0  0  0  0  0  0  0
    9.4602  -15.8780   24.7184 O   0  0  0  0  0  0  0  0  0  0  0  0
    8.3437  -15.2537   22.8551 N   0  0  0  0  0  0  0  0  0  0  0  0
    7.4963  -14.2850   22.0993 C   0  0  0  0  0  0  0  0  0  0  0  0
    6.8587  -15.2473   21.1071 C   0  0  0  0  0  0  0  0  0  0  0  0
    8.0370  -16.0486   20.6702 C   0  0  0  0  0  0  0  0  0  0  0  0
    9.0709  -15.9158   21.8035 C   0  0  1  0  0  0  0  0  0  0  0  0
   10.2034  -15.0636   21.3407 C   0  0  0  0  0  0  0  0  0  0  0  0
   11.2665  -15.5388   20.5932 O   0  0  0  0  0  0  0  0  0  0  0  0
   10.1965  -13.8484   21.6432 O   0  0  0  0  0  0  0  0  0  0  0  0
  2  3  1  0
  2  1  1  0
  3  4  1  1
  5  6  1  6
  5  3  1  0
  7  5  1  0
  8  7  2  0
  9 10  1  0
 11 13  1  0
 11 12  1  6
 11 10  1  0
 13 14  1  1
 14  7  1  0
 15 13  1  0
 15 16  2  0
 17 15  1  0
 18 17  1  0
 19 18  1  0
 20 19  1  0
 20 21  1  0
 21 17  1  0
 21 22  1  6
 22 23  1  0
 24 22  2  0
M  END
$$$$
