IIP.pdb
     RDKit          3D

 24 24  0  0  1  0  0  0  0  0999 V2000
    8.8030  -21.6377   26.7622 C   0  0  0  0  0  0  0  0  0  0  0  0
    7.6456  -20.7256   26.9594 C   0  0  0  0  0  0  0  0  0  0  0  0
    7.6008  -19.5612   25.9760 C   0  0  2  0  0  0  0  0  0  0  0  0
    8.8656  -18.7483   26.1588 C   0  0  0  0  0  0  0  0  0  0  0  0
    6.4124  -18.6715   26.3095 C   0  0  2  0  0  0  0  0  0  0  0  0
    5.1832  -19.4334   25.9228 N   0  0  0  0  0  0  0  0  0  0  0  0
    6.3692  -17.4698   25.4682 C   0  0  0  0  0  0  0  0  0  0  0  0
    6.0263  -17.5843   24.2579 O   0  0  0  0  0  0  0  0  0  0  0  0
    6.3126  -12.2549   27.4229 C   0  0  0  0  0  0  0  0  0  0  0  0
    5.9345  -13.4458   26.5104 C   0  0  0  0  0  0  0  0  0  0  0  0
    7.1934  -13.8117   25.8024 C   0  0  2  0  0  0  0  0  0  0  0  0
    7.5771  -12.6573   24.8815 C   0  0  0  0  0  0  0  0  0  0  0  0
    7.1085  -15.1203   25.0016 C   0  0  2  0  0  0  0  0  0  0  0  0
    6.6826  -16.1474   25.9200 N   0  0  0  0  0  0  0  0  0  0  0  0
    8.2433  -15.3366   24.1518 C   0  0  0  0  0  0  0  0  0  0  0  0
    9.2344  -16.0228   24.6862 O   0  0  0  0  0  0  0  0  0  0  0  0
    8.5283  -14.9589   22.8214 N   0  0  0  0  0  0  0  0  0  0  0  0
    7.9130  -13.7773   22.1484 C   0  0  0  0  0  0  0  0  0  0  0  0
    7.4036  -14.4584   20.8860 C   0  0  0  0  0  0  0  0  0  0  0  0
    8.5800  -15.2882   20.5000 C   0  0  0  0  0  0  0  0  0  0  0  0
    9.3890  -15.4869   21.7949 C   0  0  1  0  0  0  0  0  0  0  0  0
   10.6487  -14.6933   21.7163 C   0  0  0  0  0  0  0  0  0  0  0  0
   10.9143  -13.5933   22.5125 O   0  0  0  0  0  0  0  0  0  0  0  0
   11.5187  -15.0381   20.8840 O   0  0  0  0  0  0  0  0  0  0  0  0
  2  3  1  0
  2  1  1  0
  3  4  1  1
  5  6  1  6
  5  3  1  0
  7  5  1  0
  8  7  2  0
  9 10  1  0
 11 13  1  0
 11 12  1  6
 11 10  1  0
 13 14  1  1
 14  7  1  0
 15 13  1  0
 15 16  2  0
 17 15  1  0
 18 17  1  0
 19 18  1  0
 20 19  1  0
 20 21  1  0
 21 17  1  0
 21 22  1  6
 22 23  1  0
 24 22  2  0
M  END
$$$$
