IIP.pdb
     RDKit          3D

 24 24  0  0  1  0  0  0  0  0999 V2000
    9.9863  -19.9537   25.9219 C   0  0  0  0  0  0  0  0  0  0  0  0
    8.5738  -19.6656   25.5581 C   0  0  0  0  0  0  0  0  0  0  0  0
    7.6751  -19.3691   26.7537 C   0  0  2  0  0  0  0  0  0  0  0  0
    7.5775  -20.6301   27.5870 C   0  0  0  0  0  0  0  0  0  0  0  0
    6.2804  -19.0202   26.2555 C   0  0  2  0  0  0  0  0  0  0  0  0
    5.9100  -20.0642   25.2488 N   0  0  0  0  0  0  0  0  0  0  0  0
    6.2640  -17.7657   25.4942 C   0  0  0  0  0  0  0  0  0  0  0  0
    6.0855  -17.8126   24.2445 O   0  0  0  0  0  0  0  0  0  0  0  0
    6.5734  -11.7089   26.5394 C   0  0  0  0  0  0  0  0  0  0  0  0
    6.5863  -12.7962   25.4387 C   0  0  0  0  0  0  0  0  0  0  0  0
    6.7188  -14.0892   26.1672 C   0  0  2  0  0  0  0  0  0  0  0  0
    7.9695  -14.0214   27.0385 C   0  0  0  0  0  0  0  0  0  0  0  0
    6.7774  -15.3237   25.2542 C   0  0  2  0  0  0  0  0  0  0  0  0
    6.4288  -16.4632   26.0665 N   0  0  0  0  0  0  0  0  0  0  0  0
    7.9476  -15.3580   24.4260 C   0  0  0  0  0  0  0  0  0  0  0  0
    8.9646  -16.0489   24.9026 O   0  0  0  0  0  0  0  0  0  0  0  0
    8.2461  -14.7914   23.1675 N   0  0  0  0  0  0  0  0  0  0  0  0
    7.6906  -13.4891   22.6952 C   0  0  0  0  0  0  0  0  0  0  0  0
    7.1406  -13.9369   21.3484 C   0  0  0  0  0  0  0  0  0  0  0  0
    8.2702  -14.7549   20.8227 C   0  0  0  0  0  0  0  0  0  0  0  0
    9.0733  -15.1953   22.0603 C   0  0  1  0  0  0  0  0  0  0  0  0
   10.3726  -14.4646   22.0908 C   0  0  0  0  0  0  0  0  0  0  0  0
   10.6997  -13.5192   23.0468 O   0  0  0  0  0  0  0  0  0  0  0  0
   11.2190  -14.7175   21.2031 O   0  0  0  0  0  0  0  0  0  0  0  0
  2  3  1  0
  2  1  1  0
  3  4  1  1
  5  6  1  6
  5  3  1  0
  7  5  1  0
  8  7  2  0
  9 10  1  0
 11 13  1  0
 11 12  1  6
 11 10  1  0
 13 14  1  1
 14  7  1  0
 15 13  1  0
 15 16  2  0
 17 15  1  0
 18 17  1  0
 19 18  1  0
 20 19  1  0
 20 21  1  0
 21 17  1  0
 21 22  1  1
 22 23  1  0
 24 22  2  0
M  END
$$$$
