RYN.pdb
     RDKit          3D

 32 32  0  0  1  0  0  0  0  0999 V2000
   24.0131  -21.0270  -17.5284 N   0  0  0  0  0  0  0  0  0  0  0  0
   24.3039  -19.9211  -18.3712 C   0  0  0  0  0  0  0  0  0  0  0  0
   23.3317  -19.1909  -18.7832 N   0  0  0  0  0  0  0  0  0  0  0  0
   25.6206  -19.5876  -18.7719 N   0  0  0  0  0  0  0  0  0  0  0  0
   26.7595  -20.3446  -18.3959 C   0  0  0  0  0  0  0  0  0  0  0  0
   27.4669  -19.9266  -17.1520 C   0  0  0  0  0  0  0  0  0  0  0  0
   26.8608  -20.5320  -15.9364 C   0  0  0  0  0  0  0  0  0  0  0  0
   27.8613  -21.3763  -15.1571 C   0  0  2  0  0  0  0  0  0  0  0  0
   28.0863  -22.6459  -15.8074 N   0  0  0  0  0  0  0  0  0  0  0  0
   27.4380  -21.5355  -13.7433 C   0  0  0  0  0  0  0  0  0  0  0  0
   26.5948  -22.4310  -13.4823 O   0  0  0  0  0  0  0  0  0  0  0  0
   23.5063  -18.3990  -19.4094 O   0  0  0  0  0  0  0  0  0  0  0  0
   27.3359  -19.9075   -4.9067 C   0  0  0  0  0  0  0  0  0  0  0  0
   27.6334  -19.9829   -6.2640 C   0  0  0  0  0  0  0  0  0  0  0  0
   28.3162  -21.0501   -6.7798 C   0  0  0  0  0  0  0  0  0  0  0  0
   28.5875  -21.0758   -8.1428 C   0  0  0  0  0  0  0  0  0  0  0  0
   28.2044  -20.0842   -8.9970 C   0  0  0  0  0  0  0  0  0  0  0  0
   28.4530  -20.0537  -10.4421 C   0  0  2  0  0  0  0  0  0  0  0  0
   27.5443  -20.8763  -11.2918 N   0  0  0  0  0  0  0  0  0  0  0  0
   27.9521  -20.7204  -12.7090 C   0  0  0  0  0  0  0  0  0  0  0  0
   26.1576  -20.4063  -11.2222 O   0  0  0  0  0  0  0  0  0  0  0  0
   25.9163  -19.1900  -11.4932 C   0  0  0  0  0  0  0  0  0  0  0  0
   27.5089  -19.0137   -8.4215 C   0  0  0  0  0  0  0  0  0  0  0  0
   27.2182  -18.9464   -7.0762 N   0  0  0  0  0  0  0  0  0  0  0  0
   23.6702  -19.8189  -13.3854 C   0  0  0  0  0  0  0  0  0  0  0  0
   22.7815  -20.8343  -12.9972 O   0  0  0  0  0  0  0  0  0  0  0  0
   22.0419  -21.3598  -13.8867 C   0  0  0  0  0  0  0  0  0  0  0  0
   22.6773  -21.3107  -11.5964 C   0  0  2  0  0  0  0  0  0  0  0  0
   23.7032  -20.5767  -10.7328 N   0  0  0  0  0  0  0  0  0  0  0  0
   25.0106  -21.1759  -10.8841 C   0  0  0  0  0  0  0  0  0  0  0  0
   23.2281  -20.4313   -9.3687 O   0  0  0  0  0  0  0  0  0  0  0  0
   23.8415  -20.9376   -8.2467 O   0  0  0  0  0  0  0  0  0  0  0  0
  1  2  1  0
  2  3  2  0
  4  5  1  0
  4  2  1  0
  6  7  1  0
  6  5  1  0
  8 10  1  0
  8  7  1  0
  8  9  1  6
 10 11  2  0
 12 13  1  0
 13 23  2  0
 13 14  1  0
 14 15  2  0
 15 16  1  0
 16 17  1  0
 18 17  1  1
 19 18  1  0
 19 10  1  0
 20 21  2  0
 20 18  1  0
 22 16  2  0
 23 22  1  0
 24 25  1  0
 25 26  2  0
 25 27  1  0
 28 27  1  6
 28 30  1  0
 28 29  1  0
 29 20  1  0
 30 31  1  0
 32 30  2  0
M  END
$$$$
