RYN.pdb
     RDKit          3D

 32 32  0  0  1  0  0  0  0  0999 V2000
   29.0023  -23.8666  -22.0870 N   0  0  0  0  0  0  0  0  0  0  0  0
   27.7239  -23.2516  -22.1608 C   0  0  0  0  0  0  0  0  0  0  0  0
   26.9063  -23.6421  -23.0703 N   0  0  0  0  0  0  0  0  0  0  0  0
   27.3120  -22.2298  -21.2710 N   0  0  0  0  0  0  0  0  0  0  0  0
   28.0905  -21.8074  -20.1633 C   0  0  0  0  0  0  0  0  0  0  0  0
   27.5668  -20.6597  -19.3689 C   0  0  0  0  0  0  0  0  0  0  0  0
   26.7629  -21.1107  -18.2019 C   0  0  0  0  0  0  0  0  0  0  0  0
   27.6356  -21.6827  -17.0918 C   0  0  2  0  0  0  0  0  0  0  0  0
   28.3109  -22.8820  -17.5288 N   0  0  0  0  0  0  0  0  0  0  0  0
   26.8477  -21.9003  -15.8527 C   0  0  0  0  0  0  0  0  0  0  0  0
   26.1892  -22.9672  -15.7578 O   0  0  0  0  0  0  0  0  0  0  0  0
   25.9975  -23.1828  -23.1833 O   0  0  0  0  0  0  0  0  0  0  0  0
   24.4001  -20.5735   -7.3188 C   0  0  0  0  0  0  0  0  0  0  0  0
   24.9475  -20.5024   -8.5961 C   0  0  0  0  0  0  0  0  0  0  0  0
   24.4134  -19.6796   -9.5494 C   0  0  0  0  0  0  0  0  0  0  0  0
   24.9989  -19.6465  -10.8096 C   0  0  0  0  0  0  0  0  0  0  0  0
   26.0863  -20.3979  -11.1451 C   0  0  0  0  0  0  0  0  0  0  0  0
   26.7540  -20.4046  -12.4510 C   0  0  1  0  0  0  0  0  0  0  0  0
   26.0923  -21.1886  -13.5335 N   0  0  0  0  0  0  0  0  0  0  0  0
   26.8243  -20.9549  -14.8018 C   0  0  0  0  0  0  0  0  0  0  0  0
   24.7200  -20.7341  -13.7760 O   0  0  0  0  0  0  0  0  0  0  0  0
   24.5013  -19.9696  -14.7654 C   0  0  0  0  0  0  0  0  0  0  0  0
   26.5962  -21.2239  -10.1359 C   0  0  0  0  0  0  0  0  0  0  0  0
   26.0482  -21.2887   -8.8732 N   0  0  0  0  0  0  0  0  0  0  0  0
   19.7083  -20.0052  -14.3000 C   0  0  0  0  0  0  0  0  0  0  0  0
   20.7546  -19.0870  -14.4838 O   0  0  0  0  0  0  0  0  0  0  0  0
   20.4818  -17.9585  -15.0000 C   0  0  0  0  0  0  0  0  0  0  0  0
   22.1555  -19.3864  -14.0992 C   0  0  2  0  0  0  0  0  0  0  0  0
   22.2277  -20.7892  -13.4959 N   0  0  0  0  0  0  0  0  0  0  0  0
   23.5641  -21.0635  -13.0160 C   0  0  0  0  0  0  0  0  0  0  0  0
   21.6656  -21.7756  -14.4006 O   0  0  0  0  0  0  0  0  0  0  0  0
   22.2242  -22.1859  -15.5886 O   0  0  0  0  0  0  0  0  0  0  0  0
  1  2  1  0
  2  3  2  0
  4  5  1  0
  4  2  1  0
  6  7  1  0
  6  5  1  0
  8 10  1  0
  8  7  1  0
  8  9  1  6
 10 11  2  0
 12 13  1  0
 13 23  2  0
 13 14  1  0
 14 15  2  0
 15 16  1  0
 16 17  1  0
 18 17  1  1
 19 18  1  0
 19 10  1  0
 20 21  2  0
 20 18  1  0
 22 16  2  0
 23 22  1  0
 24 25  1  0
 25 26  2  0
 25 27  1  0
 28 27  1  1
 28 30  1  0
 28 29  1  0
 29 20  1  0
 30 31  1  0
 32 30  2  0
M  END
$$$$
