RYN.pdb
     RDKit          3D

 32 32  0  0  1  0  0  0  0  0999 V2000
   26.7101  -19.1820  -19.8860 N   0  0  0  0  0  0  0  0  0  0  0  0
   26.1437  -20.1699  -20.7352 C   0  0  0  0  0  0  0  0  0  0  0  0
   26.7982  -20.5307  -21.7790 N   0  0  0  0  0  0  0  0  0  0  0  0
   24.8905  -20.7765  -20.4764 N   0  0  0  0  0  0  0  0  0  0  0  0
   24.0782  -20.4324  -19.3658 C   0  0  0  0  0  0  0  0  0  0  0  0
   23.0162  -19.4120  -19.5970 C   0  0  0  0  0  0  0  0  0  0  0  0
   22.2034  -19.1676  -18.3759 C   0  0  0  0  0  0  0  0  0  0  0  0
   21.2556  -20.3226  -18.0780 C   0  0  2  0  0  0  0  0  0  0  0  0
   20.7566  -20.9121  -19.2981 N   0  0  0  0  0  0  0  0  0  0  0  0
   20.1609  -19.8940  -17.1716 C   0  0  0  0  0  0  0  0  0  0  0  0
   20.4793  -19.3050  -16.1073 O   0  0  0  0  0  0  0  0  0  0  0  0
   26.3838  -21.1828  -22.4518 O   0  0  0  0  0  0  0  0  0  0  0  0
   19.0642  -13.3810  -17.3650 C   0  0  0  0  0  0  0  0  0  0  0  0
   18.5534  -14.6745  -17.4133 C   0  0  0  0  0  0  0  0  0  0  0  0
   18.7559  -15.4742  -18.5045 C   0  0  0  0  0  0  0  0  0  0  0  0
   18.2239  -16.7584  -18.5014 C   0  0  0  0  0  0  0  0  0  0  0  0
   17.5059  -17.2642  -17.4581 C   0  0  0  0  0  0  0  0  0  0  0  0
   16.9245  -18.6089  -17.3894 C   0  0  2  0  0  0  0  0  0  0  0  0
   17.6946  -19.6292  -16.6211 N   0  0  0  0  0  0  0  0  0  0  0  0
   18.8000  -20.1285  -17.4742 C   0  0  0  0  0  0  0  0  0  0  0  0
   16.8772  -20.8030  -16.3007 O   0  0  0  0  0  0  0  0  0  0  0  0
   16.5583  -21.5937  -17.2410 C   0  0  0  0  0  0  0  0  0  0  0  0
   17.3256  -16.4076  -16.3651 C   0  0  0  0  0  0  0  0  0  0  0  0
   17.8347  -15.1277  -16.3249 N   0  0  0  0  0  0  0  0  0  0  0  0
   18.1692  -24.2408  -13.2565 C   0  0  0  0  0  0  0  0  0  0  0  0
   17.0182  -24.0531  -14.0384 O   0  0  0  0  0  0  0  0  0  0  0  0
   16.9209  -24.6947  -15.1308 C   0  0  0  0  0  0  0  0  0  0  0  0
   15.9211  -23.1392  -13.6366 C   0  0  2  0  0  0  0  0  0  0  0  0
   15.4922  -22.3006  -14.8406 N   0  0  0  0  0  0  0  0  0  0  0  0
   16.3886  -21.1799  -15.0195 C   0  0  0  0  0  0  0  0  0  0  0  0
   14.0789  -21.9755  -14.7730 O   0  0  0  0  0  0  0  0  0  0  0  0
   13.5397  -20.7141  -14.8699 O   0  0  0  0  0  0  0  0  0  0  0  0
  1  2  1  0
  2  3  2  0
  4  5  1  0
  4  2  1  0
  6  7  1  0
  6  5  1  0
  8 10  1  0
  8  7  1  0
  8  9  1  6
 10 11  2  0
 12 13  1  0
 13 23  2  0
 13 14  1  0
 14 15  2  0
 15 16  1  0
 16 17  1  0
 18 17  1  1
 19 18  1  0
 19 10  1  0
 20 21  2  0
 20 18  1  0
 22 16  2  0
 23 22  1  0
 24 25  1  0
 25 26  2  0
 25 27  1  0
 28 27  1  6
 28 30  1  0
 28 29  1  0
 29 20  1  0
 30 31  1  0
 32 30  2  0
M  END
$$$$
