RYN.pdb
     RDKit          3D

 32 32  0  0  1  0  0  0  0  0999 V2000
   20.0996  -28.9988  -13.5682 N   0  0  0  0  0  0  0  0  0  0  0  0
   21.2996  -29.0688  -14.3252 C   0  0  0  0  0  0  0  0  0  0  0  0
   21.8704  -30.2100  -14.4668 N   0  0  0  0  0  0  0  0  0  0  0  0
   21.8897  -27.9345  -14.9337 N   0  0  0  0  0  0  0  0  0  0  0  0
   21.2932  -26.6478  -14.9157 C   0  0  0  0  0  0  0  0  0  0  0  0
   20.7361  -26.1443  -16.2036 C   0  0  0  0  0  0  0  0  0  0  0  0
   20.7154  -24.6584  -16.2586 C   0  0  0  0  0  0  0  0  0  0  0  0
   21.8437  -24.1011  -17.1174 C   0  0  2  0  0  0  0  0  0  0  0  0
   23.1259  -24.5959  -16.6741 N   0  0  0  0  0  0  0  0  0  0  0  0
   21.7976  -22.6181  -17.1618 C   0  0  0  0  0  0  0  0  0  0  0  0
   20.7321  -22.0772  -17.5531 O   0  0  0  0  0  0  0  0  0  0  0  0
   22.7245  -30.2974  -15.0258 O   0  0  0  0  0  0  0  0  0  0  0  0
   19.8492  -21.3390  -11.1709 C   0  0  0  0  0  0  0  0  0  0  0  0
   20.6448  -20.9369  -12.2395 C   0  0  0  0  0  0  0  0  0  0  0  0
   20.2349  -19.9506  -13.0942 C   0  0  0  0  0  0  0  0  0  0  0  0
   21.0681  -19.5870  -14.1456 C   0  0  0  0  0  0  0  0  0  0  0  0
   22.2816  -20.1678  -14.3690 C   0  0  0  0  0  0  0  0  0  0  0  0
   23.2088  -19.8269  -15.4530 C   0  0  2  0  0  0  0  0  0  0  0  0
   22.8635  -20.3386  -16.8107 N   0  0  0  0  0  0  0  0  0  0  0  0
   22.9012  -21.8207  -16.7811 C   0  0  0  0  0  0  0  0  0  0  0  0
   23.8528  -19.9348  -17.8142 O   0  0  0  0  0  0  0  0  0  0  0  0
   23.9870  -18.6986  -18.0688 C   0  0  0  0  0  0  0  0  0  0  0  0
   22.6563  -21.1718  -13.4677 C   0  0  0  0  0  0  0  0  0  0  0  0
   21.8626  -21.5644  -12.4118 N   0  0  0  0  0  0  0  0  0  0  0  0
   27.7045  -18.9834  -20.8162 C   0  0  0  0  0  0  0  0  0  0  0  0
   27.9873  -20.2125  -20.1991 O   0  0  0  0  0  0  0  0  0  0  0  0
   29.1843  -20.6378  -20.2241 C   0  0  0  0  0  0  0  0  0  0  0  0
   26.9455  -21.0248  -19.5244 C   0  0  2  0  0  0  0  0  0  0  0  0
   25.6119  -20.2787  -19.5692 N   0  0  0  0  0  0  0  0  0  0  0  0
   24.7146  -20.7886  -18.5562 C   0  0  0  0  0  0  0  0  0  0  0  0
   25.0824  -20.2376  -20.9204 O   0  0  0  0  0  0  0  0  0  0  0  0
   25.1845  -19.1776  -21.7907 O   0  0  0  0  0  0  0  0  0  0  0  0
  1  2  1  0
  2  3  2  0
  4  5  1  0
  4  2  1  0
  6  7  1  0
  6  5  1  0
  8 10  1  0
  8  7  1  0
  8  9  1  1
 10 11  2  0
 12 13  1  0
 13 23  2  0
 13 14  1  0
 14 15  2  0
 15 16  1  0
 16 17  1  0
 18 17  1  1
 19 18  1  0
 19 10  1  0
 20 21  2  0
 20 18  1  0
 22 16  2  0
 23 22  1  0
 24 25  1  0
 25 26  2  0
 25 27  1  0
 28 27  1  1
 28 30  1  0
 28 29  1  0
 29 20  1  0
 30 31  1  0
 32 30  2  0
M  END
$$$$
