RYN.pdb
     RDKit          3D

 32 32  0  0  1  0  0  0  0  0999 V2000
   29.7508  -22.5052  -20.2233 N   0  0  0  0  0  0  0  0  0  0  0  0
   30.9517  -22.7781  -19.5152 C   0  0  0  0  0  0  0  0  0  0  0  0
   32.0605  -22.7739  -20.1623 N   0  0  0  0  0  0  0  0  0  0  0  0
   30.9778  -23.0499  -18.1256 N   0  0  0  0  0  0  0  0  0  0  0  0
   29.8320  -23.4548  -17.3942 C   0  0  0  0  0  0  0  0  0  0  0  0
   29.0661  -24.6166  -17.9288 C   0  0  0  0  0  0  0  0  0  0  0  0
   27.5976  -24.4260  -17.7923 C   0  0  0  0  0  0  0  0  0  0  0  0
   27.1946  -24.0835  -16.3636 C   0  0  2  0  0  0  0  0  0  0  0  0
   27.6074  -25.1192  -15.4458 N   0  0  0  0  0  0  0  0  0  0  0  0
   25.7406  -23.7986  -16.2732 C   0  0  0  0  0  0  0  0  0  0  0  0
   25.1748  -23.3160  -17.2871 O   0  0  0  0  0  0  0  0  0  0  0  0
   32.9497  -22.8995  -19.6693 O   0  0  0  0  0  0  0  0  0  0  0  0
   25.0878  -20.2876   -9.6557 C   0  0  0  0  0  0  0  0  0  0  0  0
   24.5717  -21.1590  -10.6100 C   0  0  0  0  0  0  0  0  0  0  0  0
   23.2844  -21.0368  -11.0562 C   0  0  0  0  0  0  0  0  0  0  0  0
   22.8186  -21.9337  -12.0105 C   0  0  0  0  0  0  0  0  0  0  0  0
   23.5858  -22.9354  -12.5278 C   0  0  0  0  0  0  0  0  0  0  0  0
   23.1582  -23.9082  -13.5388 C   0  0  1  0  0  0  0  0  0  0  0  0
   23.5816  -23.6390  -14.9433 N   0  0  0  0  0  0  0  0  0  0  0  0
   24.9969  -24.0535  -15.0983 C   0  0  0  0  0  0  0  0  0  0  0  0
   23.5487  -22.2079  -15.2586 O   0  0  0  0  0  0  0  0  0  0  0  0
   24.6425  -21.5639  -15.2643 C   0  0  0  0  0  0  0  0  0  0  0  0
   24.8956  -23.0194  -12.0395 C   0  0  0  0  0  0  0  0  0  0  0  0
   25.3993  -22.1525  -11.0942 N   0  0  0  0  0  0  0  0  0  0  0  0
   22.9005  -17.5636  -17.1478 C   0  0  0  0  0  0  0  0  0  0  0  0
   24.0398  -18.2823  -16.7516 O   0  0  0  0  0  0  0  0  0  0  0  0
   25.1786  -17.7421  -16.9118 C   0  0  0  0  0  0  0  0  0  0  0  0
   23.9605  -19.6391  -16.1575 C   0  0  1  0  0  0  0  0  0  0  0  0
   22.5090  -20.1186  -16.1788 N   0  0  0  0  0  0  0  0  0  0  0  0
   22.4022  -21.4294  -15.5773 C   0  0  0  0  0  0  0  0  0  0  0  0
   21.9341  -19.9824  -17.5049 O   0  0  0  0  0  0  0  0  0  0  0  0
   21.1444  -18.9416  -17.9345 O   0  0  0  0  0  0  0  0  0  0  0  0
  1  2  1  0
  2  3  2  0
  4  5  1  0
  4  2  1  0
  6  7  1  0
  6  5  1  0
  8 10  1  0
  8  7  1  0
  8  9  1  1
 10 11  2  0
 12 13  1  0
 13 23  2  0
 13 14  1  0
 14 15  2  0
 15 16  1  0
 16 17  1  0
 18 17  1  6
 19 18  1  0
 19 10  1  0
 20 21  2  0
 20 18  1  0
 22 16  2  0
 23 22  1  0
 24 25  1  0
 25 26  2  0
 25 27  1  0
 28 27  1  1
 28 30  1  0
 28 29  1  0
 29 20  1  0
 30 31  1  0
 32 30  2  0
M  END
$$$$
