RYN.pdb
     RDKit          3D

 32 32  0  0  1  0  0  0  0  0999 V2000
   29.7837  -23.5770  -20.2704 N   0  0  0  0  0  0  0  0  0  0  0  0
   29.3745  -22.7401  -21.3429 C   0  0  0  0  0  0  0  0  0  0  0  0
   29.5154  -23.1691  -22.5446 N   0  0  0  0  0  0  0  0  0  0  0  0
   28.8137  -21.4553  -21.1421 N   0  0  0  0  0  0  0  0  0  0  0  0
   28.3932  -20.9838  -19.8723 C   0  0  0  0  0  0  0  0  0  0  0  0
   27.4709  -21.8624  -19.0978 C   0  0  0  0  0  0  0  0  0  0  0  0
   26.9454  -21.1849  -17.8828 C   0  0  0  0  0  0  0  0  0  0  0  0
   27.7946  -21.4762  -16.6519 C   0  0  2  0  0  0  0  0  0  0  0  0
   28.7085  -22.5668  -16.8985 N   0  0  0  0  0  0  0  0  0  0  0  0
   26.9423  -21.7150  -15.4602 C   0  0  0  0  0  0  0  0  0  0  0  0
   26.1571  -22.6966  -15.4896 O   0  0  0  0  0  0  0  0  0  0  0  0
   29.2745  -22.5712  -23.3409 O   0  0  0  0  0  0  0  0  0  0  0  0
   23.8444  -20.4853   -7.1393 C   0  0  0  0  0  0  0  0  0  0  0  0
   24.5922  -20.4832   -8.3128 C   0  0  0  0  0  0  0  0  0  0  0  0
   25.6830  -21.2958   -8.4574 C   0  0  0  0  0  0  0  0  0  0  0  0
   26.3952  -21.2546   -9.6503 C   0  0  0  0  0  0  0  0  0  0  0  0
   26.0585  -20.4395  -10.6905 C   0  0  0  0  0  0  0  0  0  0  0  0
   26.7620  -20.3528  -11.9745 C   0  0  1  0  0  0  0  0  0  0  0  0
   26.1866  -21.1389  -13.1038 N   0  0  0  0  0  0  0  0  0  0  0  0
   26.9951  -20.8811  -14.3198 C   0  0  0  0  0  0  0  0  0  0  0  0
   24.8248  -20.7068  -13.4317 O   0  0  0  0  0  0  0  0  0  0  0  0
   24.6747  -19.7380  -14.2380 C   0  0  0  0  0  0  0  0  0  0  0  0
   24.9351  -19.6268  -10.4942 C   0  0  0  0  0  0  0  0  0  0  0  0
   24.1997  -19.6347   -9.3289 N   0  0  0  0  0  0  0  0  0  0  0  0
   19.8591  -21.9808  -13.6722 C   0  0  0  0  0  0  0  0  0  0  0  0
   20.6803  -21.8930  -14.8077 O   0  0  0  0  0  0  0  0  0  0  0  0
   20.2663  -22.4102  -15.8919 C   0  0  0  0  0  0  0  0  0  0  0  0
   22.0035  -21.2230  -14.7854 C   0  0  1  0  0  0  0  0  0  0  0  0
   22.3181  -20.7675  -13.3604 N   0  0  0  0  0  0  0  0  0  0  0  0
   23.6109  -21.2655  -12.9456 C   0  0  0  0  0  0  0  0  0  0  0  0
   21.2123  -21.0554  -12.4647 O   0  0  0  0  0  0  0  0  0  0  0  0
   19.9103  -20.6486  -12.6401 O   0  0  0  0  0  0  0  0  0  0  0  0
  1  2  1  0
  2  3  2  0
  4  5  1  0
  4  2  1  0
  6  7  1  0
  6  5  1  0
  8 10  1  0
  8  7  1  0
  8  9  1  6
 10 11  2  0
 12 13  1  0
 13 23  2  0
 13 14  1  0
 14 15  2  0
 15 16  1  0
 16 17  1  0
 18 17  1  1
 19 18  1  0
 19 10  1  0
 20 21  2  0
 20 18  1  0
 22 16  2  0
 23 22  1  0
 24 25  1  0
 25 26  2  0
 25 27  1  0
 28 27  1  6
 28 30  1  0
 28 29  1  0
 29 20  1  0
 30 31  1  0
 32 30  2  0
M  END
$$$$
