RYN.pdb
     RDKit          3D

 32 32  0  0  1  0  0  0  0  0999 V2000
   27.1003  -17.0811  -18.2984 N   0  0  0  0  0  0  0  0  0  0  0  0
   28.1961  -16.6943  -17.4813 C   0  0  0  0  0  0  0  0  0  0  0  0
   28.8204  -15.6090  -17.7650 N   0  0  0  0  0  0  0  0  0  0  0  0
   28.6255  -17.4525  -16.3651 N   0  0  0  0  0  0  0  0  0  0  0  0
   28.3594  -18.8382  -16.2217 C   0  0  0  0  0  0  0  0  0  0  0  0
   26.9271  -19.2491  -16.1750 C   0  0  0  0  0  0  0  0  0  0  0  0
   26.5662  -19.8639  -14.8699 C   0  0  0  0  0  0  0  0  0  0  0  0
   27.6873  -20.7352  -14.3176 C   0  0  2  0  0  0  0  0  0  0  0  0
   27.9805  -21.8313  -15.2109 N   0  0  0  0  0  0  0  0  0  0  0  0
   27.3746  -21.1984  -12.9424 C   0  0  0  0  0  0  0  0  0  0  0  0
   26.7600  -22.2882  -12.8176 O   0  0  0  0  0  0  0  0  0  0  0  0
   29.5920  -15.2844  -17.1743 O   0  0  0  0  0  0  0  0  0  0  0  0
   26.8506  -20.6492   -3.9788 C   0  0  0  0  0  0  0  0  0  0  0  0
   27.1308  -20.4745   -5.3306 C   0  0  0  0  0  0  0  0  0  0  0  0
   26.3770  -19.6372   -6.1064 C   0  0  0  0  0  0  0  0  0  0  0  0
   26.6999  -19.4988   -7.4512 C   0  0  0  0  0  0  0  0  0  0  0  0
   27.7373  -20.1601   -8.0396 C   0  0  0  0  0  0  0  0  0  0  0  0
   28.1336  -20.0537   -9.4477 C   0  0  1  0  0  0  0  0  0  0  0  0
   27.3321  -20.8431  -10.4269 N   0  0  0  0  0  0  0  0  0  0  0  0
   27.7458  -20.4567  -11.7975 C   0  0  0  0  0  0  0  0  0  0  0  0
   25.9024  -20.5312  -10.3395 O   0  0  0  0  0  0  0  0  0  0  0  0
   25.5161  -19.3660  -10.6621 C   0  0  0  0  0  0  0  0  0  0  0  0
   28.4785  -21.0052   -7.2046 C   0  0  0  0  0  0  0  0  0  0  0  0
   28.1945  -21.1729   -5.8666 N   0  0  0  0  0  0  0  0  0  0  0  0
   21.1386  -18.8318  -10.9611 C   0  0  0  0  0  0  0  0  0  0  0  0
   21.8695  -19.1742   -9.8122 O   0  0  0  0  0  0  0  0  0  0  0  0
   21.2647  -19.1858   -8.6949 C   0  0  0  0  0  0  0  0  0  0  0  0
   23.3113  -19.5198   -9.8574 C   0  0  2  0  0  0  0  0  0  0  0  0
   23.4661  -21.0325  -10.0140 N   0  0  0  0  0  0  0  0  0  0  0  0
   24.8602  -21.4081   -9.9306 C   0  0  0  0  0  0  0  0  0  0  0  0
   22.7508  -21.5118  -11.1829 O   0  0  0  0  0  0  0  0  0  0  0  0
   21.4160  -21.8398  -11.2286 O   0  0  0  0  0  0  0  0  0  0  0  0
  1  2  1  0
  2  3  2  0
  4  5  1  0
  4  2  1  0
  6  7  1  0
  6  5  1  0
  8 10  1  0
  8  7  1  0
  8  9  1  6
 10 11  2  0
 12 13  1  0
 13 23  2  0
 13 14  1  0
 14 15  2  0
 15 16  1  0
 16 17  1  0
 18 17  1  1
 19 18  1  0
 19 10  1  0
 20 21  2  0
 20 18  1  0
 22 16  2  0
 23 22  1  0
 24 25  1  0
 25 26  2  0
 25 27  1  0
 28 27  1  1
 28 30  1  0
 28 29  1  0
 29 20  1  0
 30 31  1  0
 32 30  2  0
M  END
$$$$
