RYN.pdb
     RDKit          3D

 32 32  0  0  1  0  0  0  0  0999 V2000
   37.0850  -15.6709  -21.9909 N   0  0  0  0  0  0  0  0  0  0  0  0
   37.2463  -15.6857  -20.5796 C   0  0  0  0  0  0  0  0  0  0  0  0
   38.2925  -16.2434  -20.0870 N   0  0  0  0  0  0  0  0  0  0  0  0
   36.3045  -15.1076  -19.6940 N   0  0  0  0  0  0  0  0  0  0  0  0
   35.2068  -14.3248  -20.1342 C   0  0  0  0  0  0  0  0  0  0  0  0
   35.5246  -13.0176  -20.7765 C   0  0  0  0  0  0  0  0  0  0  0  0
   34.3097  -12.1825  -20.9712 C   0  0  0  0  0  0  0  0  0  0  0  0
   34.3714  -10.8864  -20.1728 C   0  0  2  0  0  0  0  0  0  0  0  0
   35.1416  -11.0583  -18.9634 N   0  0  0  0  0  0  0  0  0  0  0  0
   33.0096  -10.3610  -19.9026 C   0  0  0  0  0  0  0  0  0  0  0  0
   32.2270  -10.2345  -20.8785 O   0  0  0  0  0  0  0  0  0  0  0  0
   38.4380  -16.2699  -19.0733 O   0  0  0  0  0  0  0  0  0  0  0  0
   28.6851  -15.4195  -19.3716 C   0  0  0  0  0  0  0  0  0  0  0  0
   29.1984  -14.2348  -18.8527 C   0  0  0  0  0  0  0  0  0  0  0  0
   30.4704  -14.1745  -18.3531 C   0  0  0  0  0  0  0  0  0  0  0  0
   30.9341  -12.9660  -17.8464 C   0  0  0  0  0  0  0  0  0  0  0  0
   30.1797  -11.8303  -17.8227 C   0  0  0  0  0  0  0  0  0  0  0  0
   30.6102  -10.5255  -17.3094 C   0  0  2  0  0  0  0  0  0  0  0  0
   31.1974   -9.5799  -18.3021 N   0  0  0  0  0  0  0  0  0  0  0  0
   32.5850  -10.0092  -18.6008 C   0  0  0  0  0  0  0  0  0  0  0  0
   31.3080   -8.2214  -17.7629 O   0  0  0  0  0  0  0  0  0  0  0  0
   32.2661   -7.9598  -16.9725 C   0  0  0  0  0  0  0  0  0  0  0  0
   28.8852  -11.9427  -18.3447 C   0  0  0  0  0  0  0  0  0  0  0  0
   28.3841  -13.1198  -18.8569 N   0  0  0  0  0  0  0  0  0  0  0  0
   31.7300   -3.2128  -17.1798 C   0  0  0  0  0  0  0  0  0  0  0  0
   32.5755   -4.0521  -17.9229 O   0  0  0  0  0  0  0  0  0  0  0  0
   33.6889   -3.5865  -18.3200 C   0  0  0  0  0  0  0  0  0  0  0  0
   32.2166   -5.4520  -18.2574 C   0  0  1  0  0  0  0  0  0  0  0  0
   30.8203   -5.7611  -17.7174 N   0  0  0  0  0  0  0  0  0  0  0  0
   30.4473   -7.1221  -18.0334 C   0  0  0  0  0  0  0  0  0  0  0  0
   29.8699   -4.7370  -18.1121 O   0  0  0  0  0  0  0  0  0  0  0  0
   28.9708   -4.8326  -19.1483 O   0  0  0  0  0  0  0  0  0  0  0  0
  1  2  1  0
  2  3  2  0
  4  5  1  0
  4  2  1  0
  6  7  1  0
  6  5  1  0
  8 10  1  0
  8  7  1  0
  8  9  1  1
 10 11  2  0
 12 13  1  0
 13 23  2  0
 13 14  1  0
 14 15  2  0
 15 16  1  0
 16 17  1  0
 18 17  1  6
 19 18  1  0
 19 10  1  0
 20 21  2  0
 20 18  1  0
 22 16  2  0
 23 22  1  0
 24 25  1  0
 25 26  2  0
 25 27  1  0
 28 27  1  1
 28 30  1  0
 28 29  1  0
 29 20  1  0
 30 31  1  0
 32 30  2  0
M  END
$$$$
