RYN.pdb
     RDKit          3D

 32 32  0  0  1  0  0  0  0  0999 V2000
   13.7645  -13.6992  -17.2949 N   0  0  0  0  0  0  0  0  0  0  0  0
   14.4994  -13.0920  -16.2418 C   0  0  0  0  0  0  0  0  0  0  0  0
   13.9838  -13.0705  -15.0663 N   0  0  0  0  0  0  0  0  0  0  0  0
   15.7780  -12.5140  -16.4330 N   0  0  0  0  0  0  0  0  0  0  0  0
   16.3972  -12.4071  -17.7046 C   0  0  0  0  0  0  0  0  0  0  0  0
   17.7378  -11.7566  -17.7497 C   0  0  0  0  0  0  0  0  0  0  0  0
   18.5201  -12.0062  -16.5099 C   0  0  0  0  0  0  0  0  0  0  0  0
   19.8608  -11.2827  -16.5230 C   0  0  2  0  0  0  0  0  0  0  0  0
   20.9044  -12.1338  -17.0444 N   0  0  0  0  0  0  0  0  0  0  0  0
   20.1909  -10.7468  -15.1787 C   0  0  0  0  0  0  0  0  0  0  0  0
   20.5999  -11.5582  -14.3096 O   0  0  0  0  0  0  0  0  0  0  0  0
   14.4800  -12.6224  -14.2900 O   0  0  0  0  0  0  0  0  0  0  0  0
   26.6055   -9.7951  -15.4120 C   0  0  0  0  0  0  0  0  0  0  0  0
   25.3662   -9.3401  -14.9722 C   0  0  0  0  0  0  0  0  0  0  0  0
   24.8202   -9.7949  -13.8033 C   0  0  0  0  0  0  0  0  0  0  0  0
   23.5793   -9.3078  -13.4099 C   0  0  0  0  0  0  0  0  0  0  0  0
   22.8745   -8.3930  -14.1354 C   0  0  0  0  0  0  0  0  0  0  0  0
   21.5670   -7.8353  -13.7739 C   0  0  2  0  0  0  0  0  0  0  0  0
   20.4637   -8.8140  -13.5522 N   0  0  0  0  0  0  0  0  0  0  0  0
   20.0584   -9.3750  -14.8637 C   0  0  0  0  0  0  0  0  0  0  0  0
   19.2649   -8.1707  -13.0064 O   0  0  0  0  0  0  0  0  0  0  0  0
   18.4881   -7.5615  -13.8044 C   0  0  0  0  0  0  0  0  0  0  0  0
   23.4748   -7.9585  -15.3235 C   0  0  0  0  0  0  0  0  0  0  0  0
   24.7026   -8.4140  -15.7523 N   0  0  0  0  0  0  0  0  0  0  0  0
   16.1002   -6.3242   -8.2159 C   0  0  0  0  0  0  0  0  0  0  0  0
   16.0755   -7.1406   -9.3579 O   0  0  0  0  0  0  0  0  0  0  0  0
   14.9963   -7.2108  -10.0249 C   0  0  0  0  0  0  0  0  0  0  0  0
   17.2559   -7.9174   -9.8090 C   0  0  2  0  0  0  0  0  0  0  0  0
   17.6373   -7.4852  -11.2249 N   0  0  0  0  0  0  0  0  0  0  0  0
   18.8489   -8.1527  -11.6467 C   0  0  0  0  0  0  0  0  0  0  0  0
   17.6371   -6.0385  -11.3465 O   0  0  0  0  0  0  0  0  0  0  0  0
   16.5815   -5.2692  -11.7770 O   0  0  0  0  0  0  0  0  0  0  0  0
  1  2  1  0
  2  3  2  0
  4  5  1  0
  4  2  1  0
  6  7  1  0
  6  5  1  0
  8 10  1  0
  8  7  1  0
  8  9  1  1
 10 11  2  0
 12 13  1  0
 13 23  2  0
 13 14  1  0
 14 15  2  0
 15 16  1  0
 16 17  1  0
 18 17  1  1
 19 18  1  0
 19 10  1  0
 20 21  2  0
 20 18  1  0
 22 16  2  0
 23 22  1  0
 24 25  1  0
 25 26  2  0
 25 27  1  0
 28 27  1  6
 28 30  1  0
 28 29  1  0
 29 20  1  0
 30 31  1  0
 32 30  2  0
M  END
$$$$
