RYN.pdb
     RDKit          3D

 32 32  0  0  1  0  0  0  0  0999 V2000
   27.5848  -22.9916  -17.9310 N   0  0  0  0  0  0  0  0  0  0  0  0
   27.5403  -24.0714  -17.0090 C   0  0  0  0  0  0  0  0  0  0  0  0
   28.0626  -25.1930  -17.3515 N   0  0  0  0  0  0  0  0  0  0  0  0
   26.9487  -23.9613  -15.7271 N   0  0  0  0  0  0  0  0  0  0  0  0
   25.6477  -23.4369  -15.5172 C   0  0  0  0  0  0  0  0  0  0  0  0
   25.4893  -21.9590  -15.6318 C   0  0  0  0  0  0  0  0  0  0  0  0
   24.4720  -21.4326  -14.6835 C   0  0  0  0  0  0  0  0  0  0  0  0
   23.3420  -22.4263  -14.4456 C   0  0  2  0  0  0  0  0  0  0  0  0
   22.7535  -22.8511  -15.6941 N   0  0  0  0  0  0  0  0  0  0  0  0
   22.3334  -21.8726  -13.5078 C   0  0  0  0  0  0  0  0  0  0  0  0
   22.7523  -21.2703  -12.4867 O   0  0  0  0  0  0  0  0  0  0  0  0
   28.1290  -25.9619  -16.6778 O   0  0  0  0  0  0  0  0  0  0  0  0
   21.0233  -15.3306  -14.5947 C   0  0  0  0  0  0  0  0  0  0  0  0
   20.5224  -16.5957  -14.3029 C   0  0  0  0  0  0  0  0  0  0  0  0
   19.8979  -16.8516  -13.1131 C   0  0  0  0  0  0  0  0  0  0  0  0
   19.4158  -18.1328  -12.8720 C   0  0  0  0  0  0  0  0  0  0  0  0
   19.5348  -19.1538  -13.7681 C   0  0  0  0  0  0  0  0  0  0  0  0
   19.0437  -20.5228  -13.5785 C   0  0  2  0  0  0  0  0  0  0  0  0
   19.9273  -21.4471  -12.8110 N   0  0  0  0  0  0  0  0  0  0  0  0
   20.9443  -22.0051  -13.7348 C   0  0  0  0  0  0  0  0  0  0  0  0
   19.1886  -22.6003  -12.2883 O   0  0  0  0  0  0  0  0  0  0  0  0
   18.8613  -23.5253  -13.0935 C   0  0  0  0  0  0  0  0  0  0  0  0
   20.1815  -18.8424  -14.9705 C   0  0  0  0  0  0  0  0  0  0  0  0
   20.6748  -17.5869  -15.2520 N   0  0  0  0  0  0  0  0  0  0  0  0
   18.7392  -26.4367   -9.5043 C   0  0  0  0  0  0  0  0  0  0  0  0
   18.4354  -25.4120   -8.5937 O   0  0  0  0  0  0  0  0  0  0  0  0
   18.5888  -25.6431   -7.3538 C   0  0  0  0  0  0  0  0  0  0  0  0
   17.9457  -24.0802   -9.0257 C   0  0  2  0  0  0  0  0  0  0  0  0
   18.0214  -23.9810  -10.5493 N   0  0  0  0  0  0  0  0  0  0  0  0
   18.7876  -22.8190  -10.9416 C   0  0  0  0  0  0  0  0  0  0  0  0
   16.7032  -24.1004  -11.1459 O   0  0  0  0  0  0  0  0  0  0  0  0
   16.1444  -25.2588  -11.6330 O   0  0  0  0  0  0  0  0  0  0  0  0
  1  2  1  0
  2  3  2  0
  4  5  1  0
  4  2  1  0
  6  7  1  0
  6  5  1  0
  8 10  1  0
  8  7  1  0
  8  9  1  6
 10 11  2  0
 12 13  1  0
 13 23  2  0
 13 14  1  0
 14 15  2  0
 15 16  1  0
 16 17  1  0
 18 17  1  1
 19 18  1  0
 19 10  1  0
 20 21  2  0
 20 18  1  0
 22 16  2  0
 23 22  1  0
 24 25  1  0
 25 26  2  0
 25 27  1  0
 28 27  1  1
 28 30  1  0
 28 29  1  0
 29 20  1  0
 30 31  1  0
 32 30  2  0
M  END
$$$$
