RYN.pdb
     RDKit          3D

 32 32  0  0  1  0  0  0  0  0999 V2000
   33.9302  -25.4332  -15.1450 N   0  0  0  0  0  0  0  0  0  0  0  0
   33.1388  -25.1231  -16.2832 C   0  0  0  0  0  0  0  0  0  0  0  0
   33.7237  -24.6719  -17.3332 N   0  0  0  0  0  0  0  0  0  0  0  0
   31.7334  -25.2950  -16.3099 N   0  0  0  0  0  0  0  0  0  0  0  0
   30.9211  -24.8650  -17.3901 C   0  0  0  0  0  0  0  0  0  0  0  0
   30.3381  -23.4964  -17.2928 C   0  0  0  0  0  0  0  0  0  0  0  0
   29.4694  -23.3448  -16.0954 C   0  0  0  0  0  0  0  0  0  0  0  0
   28.1659  -22.6262  -16.4205 C   0  0  2  0  0  0  0  0  0  0  0  0
   28.3545  -21.6643  -17.4809 N   0  0  0  0  0  0  0  0  0  0  0  0
   27.5766  -22.0138  -15.2035 C   0  0  0  0  0  0  0  0  0  0  0  0
   27.3515  -22.7651  -14.2208 O   0  0  0  0  0  0  0  0  0  0  0  0
   33.2018  -24.5506  -18.2064 O   0  0  0  0  0  0  0  0  0  0  0  0
   27.4178  -15.2575  -18.2040 C   0  0  0  0  0  0  0  0  0  0  0  0
   27.3470  -16.0776  -17.0821 C   0  0  0  0  0  0  0  0  0  0  0  0
   26.3510  -15.9256  -16.1569 C   0  0  0  0  0  0  0  0  0  0  0  0
   26.3265  -16.7715  -15.0543 C   0  0  0  0  0  0  0  0  0  0  0  0
   27.2516  -17.7519  -14.8475 C   0  0  0  0  0  0  0  0  0  0  0  0
   27.2787  -18.6795  -13.7117 C   0  0  1  0  0  0  0  0  0  0  0  0
   26.6566  -20.0174  -13.9293 N   0  0  0  0  0  0  0  0  0  0  0  0
   27.2715  -20.6354  -15.1288 C   0  0  0  0  0  0  0  0  0  0  0  0
   25.2248  -19.9121  -14.2248 O   0  0  0  0  0  0  0  0  0  0  0  0
   24.8571  -19.8935  -15.4396 C   0  0  0  0  0  0  0  0  0  0  0  0
   28.2508  -17.8677  -15.8217 C   0  0  0  0  0  0  0  0  0  0  0  0
   28.3140  -17.0514  -16.9301 N   0  0  0  0  0  0  0  0  0  0  0  0
   20.6328  -21.2932  -15.8277 C   0  0  0  0  0  0  0  0  0  0  0  0
   21.2425  -21.7305  -14.6409 O   0  0  0  0  0  0  0  0  0  0  0  0
   20.5394  -22.3829  -13.8076 C   0  0  0  0  0  0  0  0  0  0  0  0
   22.6671  -21.4596  -14.3291 C   0  0  1  0  0  0  0  0  0  0  0  0
   22.7883  -20.0925  -13.6556 N   0  0  0  0  0  0  0  0  0  0  0  0
   24.1616  -19.8336  -13.2837 C   0  0  0  0  0  0  0  0  0  0  0  0
   21.8073  -19.9443  -12.5958 O   0  0  0  0  0  0  0  0  0  0  0  0
   20.4805  -19.6262  -12.7687 O   0  0  0  0  0  0  0  0  0  0  0  0
  1  2  1  0
  2  3  2  0
  4  5  1  0
  4  2  1  0
  6  7  1  0
  6  5  1  0
  8 10  1  0
  8  7  1  0
  8  9  1  6
 10 11  2  0
 12 13  1  0
 13 23  2  0
 13 14  1  0
 14 15  2  0
 15 16  1  0
 16 17  1  0
 18 17  1  1
 19 18  1  0
 19 10  1  0
 20 21  2  0
 20 18  1  0
 22 16  2  0
 23 22  1  0
 24 25  1  0
 25 26  2  0
 25 27  1  0
 28 27  1  6
 28 30  1  0
 28 29  1  0
 29 20  1  0
 30 31  1  0
 32 30  2  0
M  END
$$$$
