RYN.pdb
     RDKit          3D

 32 32  0  0  1  0  0  0  0  0999 V2000
   32.6349  -23.4271  -10.9280 N   0  0  0  0  0  0  0  0  0  0  0  0
   32.0683  -23.3337   -9.6287 C   0  0  0  0  0  0  0  0  0  0  0  0
   32.8456  -23.4309   -8.6116 N   0  0  0  0  0  0  0  0  0  0  0  0
   30.6838  -23.1334   -9.4085 N   0  0  0  0  0  0  0  0  0  0  0  0
   29.9104  -22.1979  -10.1421 C   0  0  0  0  0  0  0  0  0  0  0  0
   30.4841  -20.8322  -10.3099 C   0  0  0  0  0  0  0  0  0  0  0  0
   29.4861  -19.8714  -10.8507 C   0  0  0  0  0  0  0  0  0  0  0  0
   28.3812  -20.5718  -11.6314 C   0  0  2  0  0  0  0  0  0  0  0  0
   28.9312  -21.5206  -12.5708 N   0  0  0  0  0  0  0  0  0  0  0  0
   27.4843  -19.5869  -12.2864 C   0  0  0  0  0  0  0  0  0  0  0  0
   26.8948  -18.7535  -11.5523 O   0  0  0  0  0  0  0  0  0  0  0  0
   32.4747  -23.3227   -7.6627 O   0  0  0  0  0  0  0  0  0  0  0  0
   24.5983  -14.0277  -18.5892 C   0  0  0  0  0  0  0  0  0  0  0  0
   25.2413  -14.9810  -17.8056 C   0  0  0  0  0  0  0  0  0  0  0  0
   25.2724  -16.2972  -18.1768 C   0  0  0  0  0  0  0  0  0  0  0  0
   25.9284  -17.2086  -17.3577 C   0  0  0  0  0  0  0  0  0  0  0  0
   26.5467  -16.8539  -16.1951 C   0  0  0  0  0  0  0  0  0  0  0  0
   27.2597  -17.7626  -15.2912 C   0  0  1  0  0  0  0  0  0  0  0  0
   26.4206  -18.5655  -14.3554 N   0  0  0  0  0  0  0  0  0  0  0  0
   27.2850  -19.5672  -13.6859 C   0  0  0  0  0  0  0  0  0  0  0  0
   25.3950  -19.3353  -15.0655 O   0  0  0  0  0  0  0  0  0  0  0  0
   25.6728  -20.5175  -15.4350 C   0  0  0  0  0  0  0  0  0  0  0  0
   26.4871  -15.4960  -15.8581 C   0  0  0  0  0  0  0  0  0  0  0  0
   25.8482  -14.5580  -16.6397 N   0  0  0  0  0  0  0  0  0  0  0  0
   22.6100  -22.5778  -13.8619 C   0  0  0  0  0  0  0  0  0  0  0  0
   22.1800  -21.3329  -13.3755 O   0  0  0  0  0  0  0  0  0  0  0  0
   21.0785  -21.2806  -12.7445 C   0  0  0  0  0  0  0  0  0  0  0  0
   22.9609  -20.0870  -13.5712 C   0  0  1  0  0  0  0  0  0  0  0  0
   22.9106  -19.6824  -15.0445 N   0  0  0  0  0  0  0  0  0  0  0  0
   24.0797  -18.9064  -15.3945 C   0  0  0  0  0  0  0  0  0  0  0  0
   21.6308  -19.0832  -15.3775 O   0  0  0  0  0  0  0  0  0  0  0  0
   21.3381  -17.7401  -15.3358 O   0  0  0  0  0  0  0  0  0  0  0  0
  1  2  1  0
  2  3  2  0
  4  5  1  0
  4  2  1  0
  6  7  1  0
  6  5  1  0
  8 10  1  0
  8  7  1  0
  8  9  1  6
 10 11  2  0
 12 13  1  0
 13 23  2  0
 13 14  1  0
 14 15  2  0
 15 16  1  0
 16 17  1  0
 18 17  1  1
 19 18  1  0
 19 10  1  0
 20 21  2  0
 20 18  1  0
 22 16  2  0
 23 22  1  0
 24 25  1  0
 25 26  2  0
 25 27  1  0
 28 27  1  6
 28 30  1  0
 28 29  1  0
 29 20  1  0
 30 31  1  0
 32 30  2  0
M  END
$$$$
