DHK.pdb
     RDKit          3D

 28 28  0  0  1  0  0  0  0  0999 V2000
   11.0821  -18.4339   18.6630 N   0  0  0  0  0  0  0  0  0  0  0  0
   12.1389  -17.5763   19.1230 C   0  0  1  0  0  0  0  0  0  0  0  0
   12.6739  -16.8179   17.9215 C   0  0  0  0  0  0  0  0  0  0  0  0
   13.3161  -17.7195   16.9394 C   0  0  0  0  0  0  0  0  0  0  0  0
   12.8069  -17.9728   15.8026 O   0  0  0  0  0  0  0  0  0  0  0  0
   11.5974  -16.6180   20.1146 C   0  0  0  0  0  0  0  0  0  0  0  0
   12.3866  -15.7411   20.6076 O   0  0  0  0  0  0  0  0  0  0  0  0
   14.5317  -18.3415   17.2243 O   0  0  0  0  0  0  0  0  0  0  0  0
   10.2415  -16.6367   20.5363 N   0  0  0  0  0  0  0  0  0  0  0  0
    9.8009  -15.7227   21.5291 C   0  0  1  0  0  0  0  0  0  0  0  0
    8.3873  -15.2914   21.4676 C   0  0  0  0  0  0  0  0  0  0  0  0
    7.9705  -14.6546   20.2235 C   0  0  0  0  0  0  0  0  0  0  0  0
    8.1058  -13.3253   19.8975 C   0  0  0  0  0  0  0  0  0  0  0  0
    7.5934  -13.1318   18.6553 N   0  0  0  0  0  0  0  0  0  0  0  0
    7.1464  -14.3146   18.2119 C   0  0  0  0  0  0  0  0  0  0  0  0
    7.3786  -15.2280   19.1666 N   0  0  0  0  0  0  0  0  0  0  0  0
   10.0517  -16.2670   22.9224 C   0  0  0  0  0  0  0  0  0  0  0  0
   10.3538  -17.4836   23.0735 O   0  0  0  0  0  0  0  0  0  0  0  0
    9.9626  -15.4696   24.0814 N   0  0  0  0  0  0  0  0  0  0  0  0
   10.1470  -16.0538   25.4322 C   0  0  1  0  0  0  0  0  0  0  0  0
   10.1732  -14.9814   26.4582 C   0  0  0  0  0  0  0  0  0  0  0  0
   10.2640  -15.5540   27.8409 C   0  0  0  0  0  0  0  0  0  0  0  0
   10.1943  -14.4933   28.9180 C   0  0  0  0  0  0  0  0  0  0  0  0
   10.2585  -15.2033   30.2683 C   0  0  0  0  0  0  0  0  0  0  0  0
   10.0587  -14.2153   31.3090 N   0  0  0  0  0  0  0  0  0  0  0  0
    9.1177  -17.0675   25.6777 C   0  0  0  0  0  0  0  0  0  0  0  0
    7.9585  -16.8891   25.1568 O   0  0  0  0  0  0  0  0  0  0  0  0
    9.3129  -18.1926   26.4254 O   0  0  0  0  0  0  0  0  0  0  0  0
  2  6  1  0
  2  1  1  6
  3  4  1  0
  3  2  1  0
  4  5  2  0
  6  7  2  0
  8  4  1  0
  9 10  1  0
  9  6  1  0
 11 12  1  0
 10 11  1  6
 12 16  1  0
 13 12  2  0
 13 14  1  0
 14 15  1  0
 16 15  2  0
 17 18  2  0
 17 10  1  0
 19 17  1  0
 20 19  1  0
 20 26  1  0
 20 21  1  1
 22 23  1  0
 22 21  1  0
 24 23  1  0
 24 25  1  0
 26 27  2  0
 26 28  1  0
M  END
$$$$
