DHK.pdb
     RDKit          3D

 28 28  0  0  1  0  0  0  0  0999 V2000
   10.1045  -17.8970   17.6378 N   0  0  0  0  0  0  0  0  0  0  0  0
    9.2513  -18.4651   18.6443 C   0  0  1  0  0  0  0  0  0  0  0  0
    9.8407  -19.8051   19.0465 C   0  0  0  0  0  0  0  0  0  0  0  0
    9.7939  -20.7850   17.9386 C   0  0  0  0  0  0  0  0  0  0  0  0
    8.7592  -20.9644   17.2223 O   0  0  0  0  0  0  0  0  0  0  0  0
    9.2133  -17.5657   19.8210 C   0  0  0  0  0  0  0  0  0  0  0  0
   10.3025  -17.3430   20.4523 O   0  0  0  0  0  0  0  0  0  0  0  0
   10.9049  -21.5685   17.6263 O   0  0  0  0  0  0  0  0  0  0  0  0
    8.0183  -16.9449   20.2720 N   0  0  0  0  0  0  0  0  0  0  0  0
    8.0698  -16.0150   21.3433 C   0  0  1  0  0  0  0  0  0  0  0  0
    7.2489  -14.7914   21.2129 C   0  0  0  0  0  0  0  0  0  0  0  0
    7.6375  -13.8759   20.1462 C   0  0  0  0  0  0  0  0  0  0  0  0
    6.9485  -13.6359   18.9803 C   0  0  0  0  0  0  0  0  0  0  0  0
    7.6400  -12.7231   18.2511 N   0  0  0  0  0  0  0  0  0  0  0  0
    8.7392  -12.3978   18.9450 C   0  0  0  0  0  0  0  0  0  0  0  0
    8.7285  -13.0997   20.0882 N   0  0  0  0  0  0  0  0  0  0  0  0
    7.6995  -16.6750   22.6577 C   0  0  0  0  0  0  0  0  0  0  0  0
    6.6029  -17.2924   22.7603 O   0  0  0  0  0  0  0  0  0  0  0  0
    8.5321  -16.6338   23.7943 N   0  0  0  0  0  0  0  0  0  0  0  0
    8.1742  -17.3621   25.0360 C   0  0  1  0  0  0  0  0  0  0  0  0
    9.3988  -17.7174   25.7960 C   0  0  0  0  0  0  0  0  0  0  0  0
    9.0617  -18.4639   27.0518 C   0  0  0  0  0  0  0  0  0  0  0  0
   10.2894  -18.8612   27.8425 C   0  0  0  0  0  0  0  0  0  0  0  0
    9.8162  -19.6424   29.0660 C   0  0  0  0  0  0  0  0  0  0  0  0
   10.9740  -19.9545   29.8791 N   0  0  0  0  0  0  0  0  0  0  0  0
    7.2163  -16.5723   25.8143 C   0  0  0  0  0  0  0  0  0  0  0  0
    7.3364  -15.2947   25.8019 O   0  0  0  0  0  0  0  0  0  0  0  0
    6.2013  -17.1088   26.5524 O   0  0  0  0  0  0  0  0  0  0  0  0
  2  6  1  0
  2  1  1  6
  3  4  1  0
  3  2  1  0
  4  5  2  0
  6  7  2  0
  8  4  1  0
  9 10  1  0
  9  6  1  0
 11 12  1  0
 10 11  1  6
 12 16  1  0
 13 12  2  0
 13 14  1  0
 14 15  1  0
 16 15  2  0
 17 18  2  0
 17 10  1  0
 19 17  1  0
 20 19  1  0
 20 26  1  0
 20 21  1  1
 22 23  1  0
 22 21  1  0
 24 23  1  0
 24 25  1  0
 26 27  2  0
 26 28  1  0
M  END
$$$$
