DHK.pdb
     RDKit          3D

 28 28  0  0  1  0  0  0  0  0999 V2000
   10.3658  -15.9506   19.2437 N   0  0  0  0  0  0  0  0  0  0  0  0
    9.5344  -16.7770   20.0742 C   0  0  1  0  0  0  0  0  0  0  0  0
   10.1638  -18.1574   20.1291 C   0  0  0  0  0  0  0  0  0  0  0  0
   10.0185  -18.8831   18.8477 C   0  0  0  0  0  0  0  0  0  0  0  0
    8.9140  -18.9624   18.2235 O   0  0  0  0  0  0  0  0  0  0  0  0
    9.4771  -16.2023   21.4385 C   0  0  0  0  0  0  0  0  0  0  0  0
   10.5442  -16.1986   22.1427 O   0  0  0  0  0  0  0  0  0  0  0  0
   11.1087  -19.5230   18.2579 O   0  0  0  0  0  0  0  0  0  0  0  0
    8.2873  -15.6584   21.9909 N   0  0  0  0  0  0  0  0  0  0  0  0
    8.3089  -15.0995   23.2956 C   0  0  1  0  0  0  0  0  0  0  0  0
    7.0898  -14.3932   23.7460 C   0  0  0  0  0  0  0  0  0  0  0  0
    7.1710  -13.7570   25.0559 C   0  0  0  0  0  0  0  0  0  0  0  0
    8.2178  -13.8399   25.9441 C   0  0  0  0  0  0  0  0  0  0  0  0
    7.9065  -13.1112   27.0464 N   0  0  0  0  0  0  0  0  0  0  0  0
    6.6903  -12.5829   26.8535 C   0  0  0  0  0  0  0  0  0  0  0  0
    6.2545  -12.9791   25.6482 N   0  0  0  0  0  0  0  0  0  0  0  0
    8.6363  -16.1535   24.3359 C   0  0  0  0  0  0  0  0  0  0  0  0
    7.8543  -17.1304   24.5040 O   0  0  0  0  0  0  0  0  0  0  0  0
    9.7912  -16.0981   25.1422 N   0  0  0  0  0  0  0  0  0  0  0  0
   10.0752  -17.1476   26.1511 C   0  0  1  0  0  0  0  0  0  0  0  0
   11.2854  -17.9171   25.7676 C   0  0  0  0  0  0  0  0  0  0  0  0
   11.5810  -18.9976   26.7641 C   0  0  0  0  0  0  0  0  0  0  0  0
   12.7570  -19.8596   26.3592 C   0  0  0  0  0  0  0  0  0  0  0  0
   12.9354  -20.9294   27.4339 C   0  0  0  0  0  0  0  0  0  0  0  0
   13.9845  -21.8317   27.0045 N   0  0  0  0  0  0  0  0  0  0  0  0
   10.1697  -16.5420   27.4821 C   0  0  0  0  0  0  0  0  0  0  0  0
    9.9100  -17.2787   28.5003 O   0  0  0  0  0  0  0  0  0  0  0  0
   10.5181  -15.2421   27.7097 O   0  0  0  0  0  0  0  0  0  0  0  0
  2  6  1  0
  2  1  1  6
  3  4  1  0
  3  2  1  0
  4  5  2  0
  6  7  2  0
  8  4  1  0
  9 10  1  0
  9  6  1  0
 11 12  1  0
 10 11  1  1
 12 16  1  0
 13 12  2  0
 13 14  1  0
 14 15  1  0
 16 15  2  0
 17 18  2  0
 17 10  1  0
 19 17  1  0
 20 19  1  0
 20 26  1  0
 20 21  1  6
 22 23  1  0
 22 21  1  0
 24 23  1  0
 24 25  1  0
 26 27  2  0
 26 28  1  0
M  END
$$$$
