DHK.pdb
     RDKit          3D

 28 28  0  0  1  0  0  0  0  0999 V2000
   11.2403  -18.5061   18.0968 N   0  0  0  0  0  0  0  0  0  0  0  0
   10.0845  -18.6301   18.9410 C   0  0  1  0  0  0  0  0  0  0  0  0
   10.1577  -19.9818   19.6282 C   0  0  0  0  0  0  0  0  0  0  0  0
    9.7610  -21.0842   18.7242 C   0  0  0  0  0  0  0  0  0  0  0  0
    9.4702  -20.8996   17.5007 O   0  0  0  0  0  0  0  0  0  0  0  0
   10.1018  -17.5536   19.9588 C   0  0  0  0  0  0  0  0  0  0  0  0
   11.2235  -17.2220   20.4750 O   0  0  0  0  0  0  0  0  0  0  0  0
    9.6884  -22.3989   19.1849 O   0  0  0  0  0  0  0  0  0  0  0  0
    8.9251  -16.8798   20.3805 N   0  0  0  0  0  0  0  0  0  0  0  0
    9.0027  -15.9073   21.4117 C   0  0  1  0  0  0  0  0  0  0  0  0
    7.9596  -14.8587   21.4284 C   0  0  0  0  0  0  0  0  0  0  0  0
    7.8433  -14.0584   20.2147 C   0  0  0  0  0  0  0  0  0  0  0  0
    8.1611  -12.7274   20.0767 C   0  0  0  0  0  0  0  0  0  0  0  0
    7.9093  -12.3547   18.7958 N   0  0  0  0  0  0  0  0  0  0  0  0
    7.4435  -13.4291   18.1446 C   0  0  0  0  0  0  0  0  0  0  0  0
    7.4072  -14.4531   19.0105 N   0  0  0  0  0  0  0  0  0  0  0  0
    9.0137  -16.5618   22.7799 C   0  0  0  0  0  0  0  0  0  0  0  0
    8.0613  -17.3182   23.1190 O   0  0  0  0  0  0  0  0  0  0  0  0
   10.0524  -16.3651   23.7124 N   0  0  0  0  0  0  0  0  0  0  0  0
   10.2253  -17.2724   24.8730 C   0  0  1  0  0  0  0  0  0  0  0  0
   11.0409  -18.4515   24.4882 C   0  0  0  0  0  0  0  0  0  0  0  0
   11.2682  -19.3605   25.6586 C   0  0  0  0  0  0  0  0  0  0  0  0
   12.1873  -20.5170   25.3300 C   0  0  0  0  0  0  0  0  0  0  0  0
   12.3454  -21.3540   26.5972 C   0  0  0  0  0  0  0  0  0  0  0  0
   13.1227  -22.5315   26.2677 N   0  0  0  0  0  0  0  0  0  0  0  0
   10.7805  -16.5268   26.0057 C   0  0  0  0  0  0  0  0  0  0  0  0
   10.8938  -17.1339   27.1306 O   0  0  0  0  0  0  0  0  0  0  0  0
   11.1870  -15.2254   25.9413 O   0  0  0  0  0  0  0  0  0  0  0  0
  2  6  1  0
  2  1  1  6
  3  4  1  0
  3  2  1  0
  4  5  2  0
  6  7  2  0
  8  4  1  0
  9 10  1  0
  9  6  1  0
 11 12  1  0
 10 11  1  1
 12 16  1  0
 13 12  2  0
 13 14  1  0
 14 15  1  0
 16 15  2  0
 17 18  2  0
 17 10  1  0
 19 17  1  0
 20 19  1  0
 20 26  1  0
 20 21  1  6
 22 23  1  0
 22 21  1  0
 24 23  1  0
 24 25  1  0
 26 27  2  0
 26 28  1  0
M  END
$$$$
