DHK.pdb
     RDKit          3D

 28 28  0  0  1  0  0  0  0  0999 V2000
   14.0394  -14.0896   17.9567 N   0  0  0  0  0  0  0  0  0  0  0  0
   13.2470  -15.2687   18.1709 C   0  0  1  0  0  0  0  0  0  0  0  0
   14.1944  -16.4076   18.5024 C   0  0  0  0  0  0  0  0  0  0  0  0
   14.8031  -16.9925   17.2870 C   0  0  0  0  0  0  0  0  0  0  0  0
   14.6150  -16.5133   16.1247 O   0  0  0  0  0  0  0  0  0  0  0  0
   12.3257  -15.0415   19.3087 C   0  0  0  0  0  0  0  0  0  0  0  0
   12.6674  -14.2017   20.2102 O   0  0  0  0  0  0  0  0  0  0  0  0
   15.6259  -18.1161   17.3662 O   0  0  0  0  0  0  0  0  0  0  0  0
   11.0837  -15.7183   19.4351 N   0  0  0  0  0  0  0  0  0  0  0  0
   10.2597  -15.4712   20.5643 C   0  0  1  0  0  0  0  0  0  0  0  0
    8.8044  -15.3600   20.3247 C   0  0  0  0  0  0  0  0  0  0  0  0
    8.3965  -14.3644   19.3400 C   0  0  0  0  0  0  0  0  0  0  0  0
    8.0913  -13.0460   19.5851 C   0  0  0  0  0  0  0  0  0  0  0  0
    7.7566  -12.4553   18.4094 N   0  0  0  0  0  0  0  0  0  0  0  0
    7.8499  -13.3836   17.4477 C   0  0  0  0  0  0  0  0  0  0  0  0
    8.2370  -14.5335   18.0201 N   0  0  0  0  0  0  0  0  0  0  0  0
   10.4669  -16.5272   21.6331 C   0  0  0  0  0  0  0  0  0  0  0  0
   10.1861  -17.7327   21.3838 O   0  0  0  0  0  0  0  0  0  0  0  0
   10.9659  -16.2271   22.9169 N   0  0  0  0  0  0  0  0  0  0  0  0
   11.1813  -17.2927   23.9260 C   0  0  1  0  0  0  0  0  0  0  0  0
   12.6224  -17.3955   24.2671 C   0  0  0  0  0  0  0  0  0  0  0  0
   12.8820  -18.5499   25.1879 C   0  0  0  0  0  0  0  0  0  0  0  0
   14.3332  -18.6491   25.6053 C   0  0  0  0  0  0  0  0  0  0  0  0
   14.6510  -20.1271   25.8186 C   0  0  0  0  0  0  0  0  0  0  0  0
   16.0461  -20.2405   26.1928 N   0  0  0  0  0  0  0  0  0  0  0  0
   10.3247  -17.0521   25.0903 C   0  0  0  0  0  0  0  0  0  0  0  0
   10.3561  -17.9043   26.0492 O   0  0  0  0  0  0  0  0  0  0  0  0
    9.4943  -15.9768   25.2218 O   0  0  0  0  0  0  0  0  0  0  0  0
  2  6  1  0
  2  1  1  1
  3  4  1  0
  3  2  1  0
  4  5  2  0
  6  7  2  0
  8  4  1  0
  9 10  1  0
  9  6  1  0
 11 12  1  0
 10 11  1  6
 12 16  1  0
 13 12  2  0
 13 14  1  0
 14 15  1  0
 16 15  2  0
 17 18  2  0
 17 10  1  0
 19 17  1  0
 20 19  1  0
 20 26  1  0
 20 21  1  1
 22 23  1  0
 22 21  1  0
 24 23  1  0
 24 25  1  0
 26 27  2  0
 26 28  1  0
M  END
$$$$
