DHK.pdb
     RDKit          3D

 28 28  0  0  1  0  0  0  0  0999 V2000
   13.7001  -14.4492   17.7286 N   0  0  0  0  0  0  0  0  0  0  0  0
   13.6144  -15.3871   18.8135 C   0  0  1  0  0  0  0  0  0  0  0  0
   14.9712  -15.4319   19.4932 C   0  0  0  0  0  0  0  0  0  0  0  0
   15.9838  -16.1203   18.6622 C   0  0  0  0  0  0  0  0  0  0  0  0
   15.7836  -17.2610   18.1383 O   0  0  0  0  0  0  0  0  0  0  0  0
   12.5895  -14.9282   19.7798 C   0  0  0  0  0  0  0  0  0  0  0  0
   12.7171  -13.7656   20.2963 O   0  0  0  0  0  0  0  0  0  0  0  0
   17.2253  -15.5352   18.4128 O   0  0  0  0  0  0  0  0  0  0  0  0
   11.4762  -15.7272   20.1523 N   0  0  0  0  0  0  0  0  0  0  0  0
   10.5451  -15.2362   21.1047 C   0  0  1  0  0  0  0  0  0  0  0  0
    9.1093  -15.3879   20.7832 C   0  0  0  0  0  0  0  0  0  0  0  0
    8.5848  -14.4776   19.7715 C   0  0  0  0  0  0  0  0  0  0  0  0
    9.2693  -13.4583   19.1519 C   0  0  0  0  0  0  0  0  0  0  0  0
    8.4307  -12.8447   18.2782 N   0  0  0  0  0  0  0  0  0  0  0  0
    7.2456  -13.4660   18.3487 C   0  0  0  0  0  0  0  0  0  0  0  0
    7.3490  -14.4508   19.2538 N   0  0  0  0  0  0  0  0  0  0  0  0
   10.7762  -15.8615   22.4671 C   0  0  0  0  0  0  0  0  0  0  0  0
   11.3691  -16.9730   22.5526 O   0  0  0  0  0  0  0  0  0  0  0  0
   10.3543  -15.2548   23.6675 N   0  0  0  0  0  0  0  0  0  0  0  0
   10.6025  -15.8966   24.9815 C   0  0  1  0  0  0  0  0  0  0  0  0
   10.2803  -14.9557   26.0835 C   0  0  0  0  0  0  0  0  0  0  0  0
   10.6662  -15.5258   27.4154 C   0  0  0  0  0  0  0  0  0  0  0  0
   10.3332  -14.6003   28.5655 C   0  0  0  0  0  0  0  0  0  0  0  0
   10.8716  -15.2408   29.8427 C   0  0  0  0  0  0  0  0  0  0  0  0
   10.5182  -14.3887   30.9599 N   0  0  0  0  0  0  0  0  0  0  0  0
    9.8648  -17.1601   25.0624 C   0  0  0  0  0  0  0  0  0  0  0  0
    8.7657  -17.2604   24.4075 O   0  0  0  0  0  0  0  0  0  0  0  0
   10.2726  -18.2405   25.7901 O   0  0  0  0  0  0  0  0  0  0  0  0
  2  6  1  0
  2  1  1  6
  3  4  1  0
  3  2  1  0
  4  5  2  0
  6  7  2  0
  8  4  1  0
  9 10  1  0
  9  6  1  0
 11 12  1  0
 10 11  1  6
 12 16  1  0
 13 12  2  0
 13 14  1  0
 14 15  1  0
 16 15  2  0
 17 18  2  0
 17 10  1  0
 19 17  1  0
 20 19  1  0
 20 26  1  0
 20 21  1  1
 22 23  1  0
 22 21  1  0
 24 23  1  0
 24 25  1  0
 26 27  2  0
 26 28  1  0
M  END
$$$$
