DHK.pdb
     RDKit          3D

 28 28  0  0  1  0  0  0  0  0999 V2000
    9.7316  -18.7394   17.8550 N   0  0  0  0  0  0  0  0  0  0  0  0
   10.8752  -17.8796   17.9849 C   0  0  1  0  0  0  0  0  0  0  0  0
   10.9874  -17.0647   16.7089 C   0  0  0  0  0  0  0  0  0  0  0  0
   11.0398  -17.9249   15.5059 C   0  0  0  0  0  0  0  0  0  0  0  0
   11.7757  -18.9587   15.4310 O   0  0  0  0  0  0  0  0  0  0  0  0
   10.6786  -16.9714   19.1388 C   0  0  0  0  0  0  0  0  0  0  0  0
   11.6856  -16.3160   19.5760 O   0  0  0  0  0  0  0  0  0  0  0  0
   10.2685  -17.6328   14.3809 O   0  0  0  0  0  0  0  0  0  0  0  0
    9.4200  -16.8025   19.7744 N   0  0  0  0  0  0  0  0  0  0  0  0
    9.3073  -15.9348   20.8922 C   0  0  1  0  0  0  0  0  0  0  0  0
    8.0945  -15.0916   20.9707 C   0  0  0  0  0  0  0  0  0  0  0  0
    7.8548  -14.2150   19.8300 C   0  0  0  0  0  0  0  0  0  0  0  0
    8.3010  -12.9226   19.6811 C   0  0  0  0  0  0  0  0  0  0  0  0
    7.8648  -12.4511   18.4851 N   0  0  0  0  0  0  0  0  0  0  0  0
    7.1600  -13.4270   17.8967 C   0  0  0  0  0  0  0  0  0  0  0  0
    7.1597  -14.4884   18.7172 N   0  0  0  0  0  0  0  0  0  0  0  0
    9.4126  -16.7052   22.1944 C   0  0  0  0  0  0  0  0  0  0  0  0
    8.5230  -17.5492   22.4954 O   0  0  0  0  0  0  0  0  0  0  0  0
   10.4729  -16.5241   23.1055 N   0  0  0  0  0  0  0  0  0  0  0  0
   10.6992  -17.4759   24.2203 C   0  0  1  0  0  0  0  0  0  0  0  0
   11.7484  -18.4597   23.8528 C   0  0  0  0  0  0  0  0  0  0  0  0
   12.0080  -19.4216   24.9731 C   0  0  0  0  0  0  0  0  0  0  0  0
   13.1450  -20.3743   24.6733 C   0  0  0  0  0  0  0  0  0  0  0  0
   13.2786  -21.3209   25.8638 C   0  0  0  0  0  0  0  0  0  0  0  0
   14.6539  -21.7718   25.9312 N   0  0  0  0  0  0  0  0  0  0  0  0
   11.0012  -16.7365   25.4488 C   0  0  0  0  0  0  0  0  0  0  0  0
   11.4899  -15.5551   25.3375 O   0  0  0  0  0  0  0  0  0  0  0  0
   10.7946  -17.2236   26.7070 O   0  0  0  0  0  0  0  0  0  0  0  0
  2  6  1  0
  2  1  1  6
  3  4  1  0
  3  2  1  0
  4  5  2  0
  6  7  2  0
  8  4  1  0
  9 10  1  0
  9  6  1  0
 11 12  1  0
 10 11  1  1
 12 16  1  0
 13 12  2  0
 13 14  1  0
 14 15  1  0
 16 15  2  0
 17 18  2  0
 17 10  1  0
 19 17  1  0
 20 19  1  0
 20 26  1  0
 20 21  1  6
 22 23  1  0
 22 21  1  0
 24 23  1  0
 24 25  1  0
 26 27  2  0
 26 28  1  0
M  END
$$$$
