DHK.pdb
     RDKit          3D

 28 28  0  0  1  0  0  0  0  0999 V2000
   10.8080  -18.5847   17.4844 N   0  0  0  0  0  0  0  0  0  0  0  0
    9.7304  -18.5318   18.4329 C   0  0  1  0  0  0  0  0  0  0  0  0
    9.7980  -19.7905   19.2790 C   0  0  0  0  0  0  0  0  0  0  0  0
    8.5464  -20.5762   19.2029 C   0  0  0  0  0  0  0  0  0  0  0  0
    7.5408  -20.2038   18.5203 O   0  0  0  0  0  0  0  0  0  0  0  0
    9.8962  -17.3414   19.2991 C   0  0  0  0  0  0  0  0  0  0  0  0
   11.0478  -16.7895   19.3612 O   0  0  0  0  0  0  0  0  0  0  0  0
    8.4139  -21.7831   19.8899 O   0  0  0  0  0  0  0  0  0  0  0  0
    8.8294  -16.7930   20.0593 N   0  0  0  0  0  0  0  0  0  0  0  0
    9.0174  -15.5699   20.7548 C   0  0  1  0  0  0  0  0  0  0  0  0
    7.9570  -14.5477   20.6184 C   0  0  0  0  0  0  0  0  0  0  0  0
    7.6984  -14.0770   19.2624 C   0  0  0  0  0  0  0  0  0  0  0  0
    8.0106  -12.8391   18.7508 C   0  0  0  0  0  0  0  0  0  0  0  0
    7.6046  -12.7930   17.4562 N   0  0  0  0  0  0  0  0  0  0  0  0
    7.0496  -13.9767   17.1624 C   0  0  0  0  0  0  0  0  0  0  0  0
    7.1110  -14.7452   18.2602 N   0  0  0  0  0  0  0  0  0  0  0  0
    9.2304  -15.8116   22.2369 C   0  0  0  0  0  0  0  0  0  0  0  0
    8.2573  -16.1667   22.9588 O   0  0  0  0  0  0  0  0  0  0  0  0
   10.4834  -15.6564   22.8638 N   0  0  0  0  0  0  0  0  0  0  0  0
   10.9119  -16.5603   23.9591 C   0  0  1  0  0  0  0  0  0  0  0  0
   10.8813  -17.9727   23.5032 C   0  0  0  0  0  0  0  0  0  0  0  0
   11.1595  -18.9154   24.6353 C   0  0  0  0  0  0  0  0  0  0  0  0
   11.0780  -20.3681   24.2192 C   0  0  0  0  0  0  0  0  0  0  0  0
   11.3319  -21.2181   25.4619 C   0  0  0  0  0  0  0  0  0  0  0  0
   11.0818  -22.6039   25.1211 N   0  0  0  0  0  0  0  0  0  0  0  0
   12.2225  -16.1408   24.4627 C   0  0  0  0  0  0  0  0  0  0  0  0
   12.5088  -16.3970   25.6871 O   0  0  0  0  0  0  0  0  0  0  0  0
   13.1613  -15.4947   23.7116 O   0  0  0  0  0  0  0  0  0  0  0  0
  2  6  1  0
  2  1  1  6
  3  4  1  0
  3  2  1  0
  4  5  2  0
  6  7  2  0
  8  4  1  0
  9 10  1  0
  9  6  1  0
 11 12  1  0
 10 11  1  1
 12 16  1  0
 13 12  2  0
 13 14  1  0
 14 15  1  0
 16 15  2  0
 17 18  2  0
 17 10  1  0
 19 17  1  0
 20 19  1  0
 20 26  1  0
 20 21  1  6
 22 23  1  0
 22 21  1  0
 24 23  1  0
 24 25  1  0
 26 27  2  0
 26 28  1  0
M  END
$$$$
