DHK.pdb
     RDKit          3D

 28 28  0  0  1  0  0  0  0  0999 V2000
    9.7520  -18.6175   19.5686 N   0  0  0  0  0  0  0  0  0  0  0  0
   10.9124  -17.8462   19.9186 C   0  0  1  0  0  0  0  0  0  0  0  0
   11.5315  -17.3335   18.6307 C   0  0  0  0  0  0  0  0  0  0  0  0
   12.6725  -18.1687   18.1945 C   0  0  0  0  0  0  0  0  0  0  0  0
   12.7171  -19.4250   18.3832 O   0  0  0  0  0  0  0  0  0  0  0  0
   10.5040  -16.7003   20.7642 C   0  0  0  0  0  0  0  0  0  0  0  0
   11.4090  -15.9011   21.1846 O   0  0  0  0  0  0  0  0  0  0  0  0
   13.7690  -17.6023   17.5442 O   0  0  0  0  0  0  0  0  0  0  0  0
    9.1518  -16.4577   21.1237 N   0  0  0  0  0  0  0  0  0  0  0  0
    8.8298  -15.3387   21.9358 C   0  0  1  0  0  0  0  0  0  0  0  0
    7.7395  -14.4567   21.4654 C   0  0  0  0  0  0  0  0  0  0  0  0
    7.8351  -14.0114   20.0798 C   0  0  0  0  0  0  0  0  0  0  0  0
    8.2798  -12.7860   19.6414 C   0  0  0  0  0  0  0  0  0  0  0  0
    8.2126  -12.7629   18.2857 N   0  0  0  0  0  0  0  0  0  0  0  0
    7.7358  -13.9485   17.8827 C   0  0  0  0  0  0  0  0  0  0  0  0
    7.5107  -14.6955   18.9741 N   0  0  0  0  0  0  0  0  0  0  0  0
    8.4902  -15.7698   23.3497 C   0  0  0  0  0  0  0  0  0  0  0  0
    7.3683  -16.2967   23.5905 O   0  0  0  0  0  0  0  0  0  0  0  0
    9.3793  -15.6088   24.4317 N   0  0  0  0  0  0  0  0  0  0  0  0
    9.4248  -16.5916   25.5417 C   0  0  1  0  0  0  0  0  0  0  0  0
    9.8686  -17.9161   25.0393 C   0  0  0  0  0  0  0  0  0  0  0  0
    9.9733  -18.9131   26.1541 C   0  0  0  0  0  0  0  0  0  0  0  0
   10.4971  -20.2550   25.6903 C   0  0  0  0  0  0  0  0  0  0  0  0
   10.6262  -21.1493   26.9211 C   0  0  0  0  0  0  0  0  0  0  0  0
   11.2930  -22.3726   26.5236 N   0  0  0  0  0  0  0  0  0  0  0  0
   10.2602  -16.0728   26.6280 C   0  0  0  0  0  0  0  0  0  0  0  0
    9.9818  -16.4325   27.8280 O   0  0  0  0  0  0  0  0  0  0  0  0
   11.3187  -15.2306   26.4457 O   0  0  0  0  0  0  0  0  0  0  0  0
  2  6  1  0
  2  1  1  6
  3  4  1  0
  3  2  1  0
  4  5  2  0
  6  7  2  0
  8  4  1  0
  9 10  1  0
  9  6  1  0
 11 12  1  0
 10 11  1  6
 12 16  1  0
 13 12  2  0
 13 14  1  0
 14 15  1  0
 16 15  2  0
 17 18  2  0
 17 10  1  0
 19 17  1  0
 20 19  1  0
 20 26  1  0
 20 21  1  6
 22 23  1  0
 22 21  1  0
 24 23  1  0
 24 25  1  0
 26 27  2  0
 26 28  1  0
M  END
$$$$
