DHK.pdb
     RDKit          3D

 28 28  0  0  1  0  0  0  0  0999 V2000
    9.7376  -17.4256   20.7619 N   0  0  0  0  0  0  0  0  0  0  0  0
   10.7589  -17.4412   21.7721 C   0  0  1  0  0  0  0  0  0  0  0  0
   12.0503  -16.9667   21.1303 C   0  0  0  0  0  0  0  0  0  0  0  0
   12.7176  -18.0449   20.3674 C   0  0  0  0  0  0  0  0  0  0  0  0
   12.1905  -19.1874   20.1867 O   0  0  0  0  0  0  0  0  0  0  0  0
   10.3803  -16.5186   22.8678 C   0  0  0  0  0  0  0  0  0  0  0  0
   11.2248  -16.3065   23.8039 O   0  0  0  0  0  0  0  0  0  0  0  0
   13.9780  -17.8496   19.8022 O   0  0  0  0  0  0  0  0  0  0  0  0
    9.1208  -15.8645   22.9171 N   0  0  0  0  0  0  0  0  0  0  0  0
    8.7820  -15.0750   24.0471 C   0  0  1  0  0  0  0  0  0  0  0  0
    7.4170  -14.5065   24.0868 C   0  0  0  0  0  0  0  0  0  0  0  0
    7.1765  -13.5018   25.1162 C   0  0  0  0  0  0  0  0  0  0  0  0
    8.0706  -13.0750   26.0701 C   0  0  0  0  0  0  0  0  0  0  0  0
    7.4641  -12.1353   26.8396 N   0  0  0  0  0  0  0  0  0  0  0  0
    6.2162  -11.9764   26.3781 C   0  0  0  0  0  0  0  0  0  0  0  0
    6.0522  -12.8065   25.3370 N   0  0  0  0  0  0  0  0  0  0  0  0
    8.9924  -15.8470   25.3356 C   0  0  0  0  0  0  0  0  0  0  0  0
    8.3473  -16.9132   25.5383 O   0  0  0  0  0  0  0  0  0  0  0  0
    9.8883  -15.4273   26.3399 N   0  0  0  0  0  0  0  0  0  0  0  0
   10.1654  -16.2745   27.5254 C   0  0  1  0  0  0  0  0  0  0  0  0
   11.5193  -16.8748   27.4246 C   0  0  0  0  0  0  0  0  0  0  0  0
   11.4582  -18.2613   26.8572 C   0  0  0  0  0  0  0  0  0  0  0  0
   12.8218  -18.9088   26.7493 C   0  0  0  0  0  0  0  0  0  0  0  0
   12.6115  -20.3533   26.3018 C   0  0  0  0  0  0  0  0  0  0  0  0
   13.9117  -20.9492   26.0707 N   0  0  0  0  0  0  0  0  0  0  0  0
    9.9660  -15.4936   28.7492 C   0  0  0  0  0  0  0  0  0  0  0  0
   10.1654  -16.0753   29.8756 O   0  0  0  0  0  0  0  0  0  0  0  0
    9.5821  -14.1839   28.7687 O   0  0  0  0  0  0  0  0  0  0  0  0
  2  6  1  0
  2  1  1  6
  3  4  1  0
  3  2  1  0
  4  5  2  0
  6  7  2  0
  8  4  1  0
  9 10  1  0
  9  6  1  0
 11 12  1  0
 10 11  1  6
 12 16  1  0
 13 12  2  0
 13 14  1  0
 14 15  1  0
 16 15  2  0
 17 18  2  0
 17 10  1  0
 19 17  1  0
 20 19  1  0
 20 26  1  0
 20 21  1  6
 22 23  1  0
 22 21  1  0
 24 23  1  0
 24 25  1  0
 26 27  2  0
 26 28  1  0
M  END
$$$$
