DHK.pdb
     RDKit          3D

 28 28  0  0  1  0  0  0  0  0999 V2000
   12.0308  -17.2907   15.8335 N   0  0  0  0  0  0  0  0  0  0  0  0
   11.9847  -15.9560   16.3631 C   0  0  1  0  0  0  0  0  0  0  0  0
   10.6686  -15.7983   17.1033 C   0  0  0  0  0  0  0  0  0  0  0  0
    9.5081  -15.8567   16.1870 C   0  0  0  0  0  0  0  0  0  0  0  0
    9.6172  -16.1595   14.9573 O   0  0  0  0  0  0  0  0  0  0  0  0
   13.1112  -15.7621   17.3055 C   0  0  0  0  0  0  0  0  0  0  0  0
   13.7413  -16.7940   17.7214 O   0  0  0  0  0  0  0  0  0  0  0  0
    8.2196  -15.5772   16.6425 O   0  0  0  0  0  0  0  0  0  0  0  0
   13.5154  -14.4797   17.7623 N   0  0  0  0  0  0  0  0  0  0  0  0
   14.7044  -14.3477   18.5265 C   0  0  1  0  0  0  0  0  0  0  0  0
   15.5690  -13.1844   18.2314 C   0  0  0  0  0  0  0  0  0  0  0  0
   16.3834  -13.2872   17.0259 C   0  0  0  0  0  0  0  0  0  0  0  0
   16.5196  -14.3937   16.2204 C   0  0  0  0  0  0  0  0  0  0  0  0
   17.3653  -14.0855   15.2041 N   0  0  0  0  0  0  0  0  0  0  0  0
   17.7512  -12.8130   15.3689 C   0  0  0  0  0  0  0  0  0  0  0  0
   17.1527  -12.3397   16.4723 N   0  0  0  0  0  0  0  0  0  0  0  0
   14.3990  -14.3241   20.0120 C   0  0  0  0  0  0  0  0  0  0  0  0
   13.4130  -13.6599   20.4373 O   0  0  0  0  0  0  0  0  0  0  0  0
   15.1748  -15.0184   20.9623 N   0  0  0  0  0  0  0  0  0  0  0  0
   14.6479  -15.3125   22.3174 C   0  0  1  0  0  0  0  0  0  0  0  0
   13.3565  -16.0381   22.2218 C   0  0  0  0  0  0  0  0  0  0  0  0
   12.8672  -16.4578   23.5754 C   0  0  0  0  0  0  0  0  0  0  0  0
   11.5162  -17.1377   23.5232 C   0  0  0  0  0  0  0  0  0  0  0  0
   11.1616  -17.5671   24.9449 C   0  0  0  0  0  0  0  0  0  0  0  0
    9.8993  -18.2769   24.9016 N   0  0  0  0  0  0  0  0  0  0  0  0
   15.6605  -16.0293   23.0972 C   0  0  0  0  0  0  0  0  0  0  0  0
   15.7334  -15.7907   24.3560 O   0  0  0  0  0  0  0  0  0  0  0  0
   16.5326  -16.9375   22.5703 O   0  0  0  0  0  0  0  0  0  0  0  0
  2  6  1  0
  2  1  1  1
  3  4  1  0
  3  2  1  0
  4  5  2  0
  6  7  2  0
  8  4  1  0
  9 10  1  0
  9  6  1  0
 11 12  1  0
 10 11  1  6
 12 16  1  0
 13 12  2  0
 13 14  1  0
 14 15  1  0
 16 15  2  0
 17 18  2  0
 17 10  1  0
 19 17  1  0
 20 19  1  0
 20 26  1  0
 20 21  1  6
 22 23  1  0
 22 21  1  0
 24 23  1  0
 24 25  1  0
 26 27  2  0
 26 28  1  0
M  END
$$$$
