DHK.pdb
     RDKit          3D

 28 28  0  0  1  0  0  0  0  0999 V2000
    9.1346  -18.2711   17.1939 N   0  0  0  0  0  0  0  0  0  0  0  0
    8.4807  -18.4554   18.4598 C   0  0  1  0  0  0  0  0  0  0  0  0
    8.6778  -19.9023   18.8748 C   0  0  0  0  0  0  0  0  0  0  0  0
    9.9877  -20.4308   18.4338 C   0  0  0  0  0  0  0  0  0  0  0  0
   10.8386  -20.9214   19.2408 O   0  0  0  0  0  0  0  0  0  0  0  0
    9.0983  -17.5611   19.4666 C   0  0  0  0  0  0  0  0  0  0  0  0
   10.2699  -17.1035   19.2372 O   0  0  0  0  0  0  0  0  0  0  0  0
   10.3517  -20.4137   17.0872 O   0  0  0  0  0  0  0  0  0  0  0  0
    8.4412  -17.1949   20.6711 N   0  0  0  0  0  0  0  0  0  0  0  0
    9.0751  -16.3026   21.5750 C   0  0  1  0  0  0  0  0  0  0  0  0
    8.3636  -15.0446   21.8898 C   0  0  0  0  0  0  0  0  0  0  0  0
    8.1923  -14.1159   20.7783 C   0  0  0  0  0  0  0  0  0  0  0  0
    7.0009  -13.7221   20.2153 C   0  0  0  0  0  0  0  0  0  0  0  0
    7.2673  -12.8536   19.2064 N   0  0  0  0  0  0  0  0  0  0  0  0
    8.5973  -12.7062   19.1383 C   0  0  0  0  0  0  0  0  0  0  0  0
    9.1471  -13.4730   20.0919 N   0  0  0  0  0  0  0  0  0  0  0  0
    9.3905  -16.9898   22.8898 C   0  0  0  0  0  0  0  0  0  0  0  0
    8.4900  -17.6449   23.4849 O   0  0  0  0  0  0  0  0  0  0  0  0
   10.6623  -16.9335   23.4953 N   0  0  0  0  0  0  0  0  0  0  0  0
   10.9940  -17.7809   24.6666 C   0  0  1  0  0  0  0  0  0  0  0  0
   12.3979  -18.2550   24.5784 C   0  0  0  0  0  0  0  0  0  0  0  0
   12.7452  -19.1438   25.7349 C   0  0  0  0  0  0  0  0  0  0  0  0
   14.1862  -19.6050   25.7049 C   0  0  0  0  0  0  0  0  0  0  0  0
   14.3555  -20.6578   26.7977 C   0  0  0  0  0  0  0  0  0  0  0  0
   15.7281  -21.1209   26.7710 N   0  0  0  0  0  0  0  0  0  0  0  0
   10.7042  -17.0508   25.9036 C   0  0  0  0  0  0  0  0  0  0  0  0
   10.5836  -15.7749   25.8373 O   0  0  0  0  0  0  0  0  0  0  0  0
   10.5526  -17.6416   27.1247 O   0  0  0  0  0  0  0  0  0  0  0  0
  2  6  1  0
  2  1  1  6
  3  4  1  0
  3  2  1  0
  4  5  2  0
  6  7  2  0
  8  4  1  0
  9 10  1  0
  9  6  1  0
 11 12  1  0
 10 11  1  1
 12 16  1  0
 13 12  2  0
 13 14  1  0
 14 15  1  0
 16 15  2  0
 17 18  2  0
 17 10  1  0
 19 17  1  0
 20 19  1  0
 20 26  1  0
 20 21  1  1
 22 23  1  0
 22 21  1  0
 24 23  1  0
 24 25  1  0
 26 27  2  0
 26 28  1  0
M  END
$$$$
