DHK.pdb
     RDKit          3D

 28 28  0  0  1  0  0  0  0  0999 V2000
   10.3429  -18.4540   17.4593 N   0  0  0  0  0  0  0  0  0  0  0  0
   11.4373  -17.5925   17.8115 C   0  0  1  0  0  0  0  0  0  0  0  0
   11.8003  -16.7809   16.5809 C   0  0  0  0  0  0  0  0  0  0  0  0
   12.2056  -17.6436   15.4490 C   0  0  0  0  0  0  0  0  0  0  0  0
   11.3670  -18.2611   14.7200 O   0  0  0  0  0  0  0  0  0  0  0  0
   11.0146  -16.6815   18.9006 C   0  0  0  0  0  0  0  0  0  0  0  0
   11.8486  -15.8090   19.3224 O   0  0  0  0  0  0  0  0  0  0  0  0
   13.5514  -17.8191   15.1266 O   0  0  0  0  0  0  0  0  0  0  0  0
    9.7244  -16.7407   19.4909 N   0  0  0  0  0  0  0  0  0  0  0  0
    9.4301  -15.9333   20.6208 C   0  0  1  0  0  0  0  0  0  0  0  0
    8.1175  -15.2515   20.6379 C   0  0  0  0  0  0  0  0  0  0  0  0
    7.8297  -14.3978   19.4910 C   0  0  0  0  0  0  0  0  0  0  0  0
    8.0392  -13.0412   19.4056 C   0  0  0  0  0  0  0  0  0  0  0  0
    7.6402  -12.6199   18.1783 N   0  0  0  0  0  0  0  0  0  0  0  0
    7.1899  -13.6895   17.5085 C   0  0  0  0  0  0  0  0  0  0  0  0
    7.3084  -14.7586   18.3102 N   0  0  0  0  0  0  0  0  0  0  0  0
    9.5475  -16.7295   21.9064 C   0  0  0  0  0  0  0  0  0  0  0  0
    8.9603  -17.8426   22.0085 O   0  0  0  0  0  0  0  0  0  0  0  0
   10.2925  -16.2823   23.0164 N   0  0  0  0  0  0  0  0  0  0  0  0
   10.8856  -17.2410   23.9805 C   0  0  1  0  0  0  0  0  0  0  0  0
   11.7872  -18.1876   23.2772 C   0  0  0  0  0  0  0  0  0  0  0  0
   12.2822  -19.2571   24.2040 C   0  0  0  0  0  0  0  0  0  0  0  0
   13.2498  -20.2085   23.5342 C   0  0  0  0  0  0  0  0  0  0  0  0
   13.6169  -21.2849   24.5529 C   0  0  0  0  0  0  0  0  0  0  0  0
   14.6351  -22.1334   23.9676 N   0  0  0  0  0  0  0  0  0  0  0  0
   11.5445  -16.5084   25.0651 C   0  0  0  0  0  0  0  0  0  0  0  0
   12.2096  -15.4531   24.7636 O   0  0  0  0  0  0  0  0  0  0  0  0
   11.4954  -16.8759   26.3786 O   0  0  0  0  0  0  0  0  0  0  0  0
  2  6  1  0
  2  1  1  6
  3  4  1  0
  3  2  1  0
  4  5  2  0
  6  7  2  0
  8  4  1  0
  9 10  1  0
  9  6  1  0
 11 12  1  0
 10 11  1  6
 12 16  1  0
 13 12  2  0
 13 14  1  0
 14 15  1  0
 16 15  2  0
 17 18  2  0
 17 10  1  0
 19 17  1  0
 20 19  1  0
 20 26  1  0
 20 21  1  6
 22 23  1  0
 22 21  1  0
 24 23  1  0
 24 25  1  0
 26 27  2  0
 26 28  1  0
M  END
$$$$
