DHK.pdb
     RDKit          3D

 28 28  0  0  1  0  0  0  0  0999 V2000
   17.4105  -17.1053   16.2746 N   0  0  0  0  0  0  0  0  0  0  0  0
   17.8760  -17.7843   17.4519 C   0  0  1  0  0  0  0  0  0  0  0  0
   18.7976  -16.8361   18.1977 C   0  0  0  0  0  0  0  0  0  0  0  0
   20.0692  -16.6166   17.4734 C   0  0  0  0  0  0  0  0  0  0  0  0
   20.4299  -17.3300   16.4851 O   0  0  0  0  0  0  0  0  0  0  0  0
   16.7186  -18.1297   18.3098 C   0  0  0  0  0  0  0  0  0  0  0  0
   16.1071  -17.1848   18.9164 O   0  0  0  0  0  0  0  0  0  0  0  0
   20.9434  -15.5972   17.8512 O   0  0  0  0  0  0  0  0  0  0  0  0
   16.2651  -19.4643   18.4830 N   0  0  0  0  0  0  0  0  0  0  0  0
   15.0761  -19.7135   19.2173 C   0  0  1  0  0  0  0  0  0  0  0  0
   14.3079  -20.9270   18.8635 C   0  0  0  0  0  0  0  0  0  0  0  0
   13.4694  -20.8244   17.6746 C   0  0  0  0  0  0  0  0  0  0  0  0
   13.2359  -19.6910   16.9314 C   0  0  0  0  0  0  0  0  0  0  0  0
   12.4008  -20.0100   15.9096 N   0  0  0  0  0  0  0  0  0  0  0  0
   12.1168  -21.3157   16.0102 C   0  0  0  0  0  0  0  0  0  0  0  0
   12.7669  -21.7985   17.0797 N   0  0  0  0  0  0  0  0  0  0  0  0
   15.3556  -19.7686   20.7070 C   0  0  0  0  0  0  0  0  0  0  0  0
   16.5359  -19.6143   21.1280 O   0  0  0  0  0  0  0  0  0  0  0  0
   14.3460  -19.9883   21.6659 N   0  0  0  0  0  0  0  0  0  0  0  0
   14.6619  -20.0513   23.1138 C   0  0  1  0  0  0  0  0  0  0  0  0
   13.4135  -20.0094   23.9159 C   0  0  0  0  0  0  0  0  0  0  0  0
   13.7026  -20.1574   25.3796 C   0  0  0  0  0  0  0  0  0  0  0  0
   12.4549  -20.0771   26.2323 C   0  0  0  0  0  0  0  0  0  0  0  0
   12.8738  -20.3008   27.6834 C   0  0  0  0  0  0  0  0  0  0  0  0
   11.6809  -20.2894   28.5056 N   0  0  0  0  0  0  0  0  0  0  0  0
   15.4897  -21.2287   23.3889 C   0  0  0  0  0  0  0  0  0  0  0  0
   16.4471  -21.1090   24.2351 O   0  0  0  0  0  0  0  0  0  0  0  0
   15.3072  -22.4478   22.8030 O   0  0  0  0  0  0  0  0  0  0  0  0
  2  6  1  0
  2  1  1  6
  3  4  1  0
  3  2  1  0
  4  5  2  0
  6  7  2  0
  8  4  1  0
  9 10  1  0
  9  6  1  0
 11 12  1  0
 10 11  1  6
 12 16  1  0
 13 12  2  0
 13 14  1  0
 14 15  1  0
 16 15  2  0
 17 18  2  0
 17 10  1  0
 19 17  1  0
 20 19  1  0
 20 26  1  0
 20 21  1  1
 22 23  1  0
 22 21  1  0
 24 23  1  0
 24 25  1  0
 26 27  2  0
 26 28  1  0
M  END
$$$$
