DHK.pdb
     RDKit          3D

 28 28  0  0  1  0  0  0  0  0999 V2000
   14.3423  -15.9802   16.9271 N   0  0  0  0  0  0  0  0  0  0  0  0
   14.7648  -15.2759   18.1058 C   0  0  1  0  0  0  0  0  0  0  0  0
   15.5579  -14.0612   17.6582 C   0  0  0  0  0  0  0  0  0  0  0  0
   16.7805  -14.4415   16.9163 C   0  0  0  0  0  0  0  0  0  0  0  0
   16.8278  -15.4436   16.1357 O   0  0  0  0  0  0  0  0  0  0  0  0
   13.5735  -14.8375   18.8697 C   0  0  0  0  0  0  0  0  0  0  0  0
   13.7524  -14.2273   19.9789 O   0  0  0  0  0  0  0  0  0  0  0  0
   17.9563  -13.7017   17.0437 O   0  0  0  0  0  0  0  0  0  0  0  0
   12.2470  -15.0687   18.4186 N   0  0  0  0  0  0  0  0  0  0  0  0
   11.1501  -14.7003   19.2410 C   0  0  1  0  0  0  0  0  0  0  0  0
    9.8389  -14.5296   18.5781 C   0  0  0  0  0  0  0  0  0  0  0  0
    8.7428  -14.0991   19.4386 C   0  0  0  0  0  0  0  0  0  0  0  0
    8.4974  -12.8180   19.8747 C   0  0  0  0  0  0  0  0  0  0  0  0
    7.3878  -12.8340   20.6566 N   0  0  0  0  0  0  0  0  0  0  0  0
    6.9468  -14.0982   20.7097 C   0  0  0  0  0  0  0  0  0  0  0  0
    7.7723  -14.8547   19.9708 N   0  0  0  0  0  0  0  0  0  0  0  0
   10.9624  -15.6887   20.3760 C   0  0  0  0  0  0  0  0  0  0  0  0
   11.1133  -16.9237   20.1612 O   0  0  0  0  0  0  0  0  0  0  0  0
   10.6203  -15.2926   21.6849 N   0  0  0  0  0  0  0  0  0  0  0  0
   10.3330  -16.2943   22.7405 C   0  0  1  0  0  0  0  0  0  0  0  0
   10.5701  -15.7093   24.0841 C   0  0  0  0  0  0  0  0  0  0  0  0
   10.3310  -16.7188   25.1664 C   0  0  0  0  0  0  0  0  0  0  0  0
   10.5284  -16.1462   26.5533 C   0  0  0  0  0  0  0  0  0  0  0  0
   10.1725  -17.2395   27.5579 C   0  0  0  0  0  0  0  0  0  0  0  0
   10.1818  -16.6559   28.8839 N   0  0  0  0  0  0  0  0  0  0  0  0
    8.9765  -16.8206   22.5673 C   0  0  0  0  0  0  0  0  0  0  0  0
    8.0769  -16.0303   22.1057 O   0  0  0  0  0  0  0  0  0  0  0  0
    8.6071  -18.1004   22.8649 O   0  0  0  0  0  0  0  0  0  0  0  0
  2  6  1  0
  2  1  1  6
  3  4  1  0
  3  2  1  0
  4  5  2  0
  6  7  2  0
  8  4  1  0
  9 10  1  0
  9  6  1  0
 11 12  1  0
 10 11  1  6
 12 16  1  0
 13 12  2  0
 13 14  1  0
 14 15  1  0
 16 15  2  0
 17 18  2  0
 17 10  1  0
 19 17  1  0
 20 19  1  0
 20 26  1  0
 20 21  1  1
 22 23  1  0
 22 21  1  0
 24 23  1  0
 24 25  1  0
 26 27  2  0
 26 28  1  0
M  END
$$$$
