CMQ.pdb
     RDKit          3D

 24 23  0  0  1  0  0  0  0  0999 V2000
    6.1589  -18.4986   22.5500 N   0  0  0  0  0  0  0  0  0  0  0  0
    6.8288  -17.7722   21.4928 C   0  0  1  0  0  0  0  0  0  0  0  0
    5.8522  -17.4704   20.3783 C   0  0  0  0  0  0  0  0  0  0  0  0
    6.7853  -17.6347   18.8129 S   0  0  0  0  0  0  0  0  0  0  0  0
    7.4284  -16.5465   22.0586 C   0  0  0  0  0  0  0  0  0  0  0  0
    8.3921  -16.0064   21.4653 O   0  0  0  0  0  0  0  0  0  0  0  0
    6.8815  -10.9137   27.5436 C   0  0  0  0  0  0  0  0  0  0  0  0
    6.2555  -12.4982   26.8642 S   0  0  0  0  0  0  0  0  0  0  0  0
    7.1431  -12.7927   25.3212 C   0  0  0  0  0  0  0  0  0  0  0  0
    6.6907  -14.0001   24.5960 C   0  0  0  0  0  0  0  0  0  0  0  0
    7.7085  -14.8024   23.8760 C   0  0  2  0  0  0  0  0  0  0  0  0
    6.9726  -15.9316   23.2535 N   0  0  0  0  0  0  0  0  0  0  0  0
    8.8391  -15.3003   24.6510 C   0  0  0  0  0  0  0  0  0  0  0  0
    9.4999  -14.4490   25.3292 O   0  0  0  0  0  0  0  0  0  0  0  0
    7.5528  -18.6028   26.2674 N   0  0  0  0  0  0  0  0  0  0  0  0
    8.4566  -18.7504   27.3483 C   0  0  0  0  0  0  0  0  0  0  0  0
    7.9366  -18.7851   28.5074 O   0  0  0  0  0  0  0  0  0  0  0  0
    9.8842  -18.8595   27.1036 C   0  0  0  0  0  0  0  0  0  0  0  0
   10.4233  -18.4293   25.8087 C   0  0  0  0  0  0  0  0  0  0  0  0
   10.5284  -16.9904   25.4763 C   0  0  2  0  0  0  0  0  0  0  0  0
    9.2800  -16.6242   24.7329 N   0  0  0  0  0  0  0  0  0  0  0  0
   11.6122  -16.6886   24.5397 C   0  0  0  0  0  0  0  0  0  0  0  0
   11.4291  -16.5833   23.2750 O   0  0  0  0  0  0  0  0  0  0  0  0
   12.9176  -16.4932   24.9459 O   0  0  0  0  0  0  0  0  0  0  0  0
  2  1  1  1
  3  2  1  0
  3  4  1  0
  5  6  2  0
  5  2  1  0
  7  8  1  0
  9  8  1  0
  9 10  1  0
 11 10  1  1
 11 13  1  0
 11 12  1  0
 12  5  1  0
 13 21  1  0
 14 13  2  0
 16 15  1  0
 16 17  2  0
 18 16  1  0
 20 19  1  6
 19 18  1  0
 20 22  1  0
 21 20  1  0
 22 23  2  0
 22 24  1  0
M  END
$$$$
