CMQ.pdb
     RDKit          3D

 24 23  0  0  1  0  0  0  0  0999 V2000
    8.4160  -14.8862   19.2420 N   0  0  0  0  0  0  0  0  0  0  0  0
    7.6195  -15.4771   20.2957 C   0  0  1  0  0  0  0  0  0  0  0  0
    7.5742  -16.9791   20.1246 C   0  0  0  0  0  0  0  0  0  0  0  0
    6.4811  -17.6185   21.4453 S   0  0  0  0  0  0  0  0  0  0  0  0
    8.1820  -15.0796   21.6025 C   0  0  0  0  0  0  0  0  0  0  0  0
    9.4265  -15.0685   21.7553 O   0  0  0  0  0  0  0  0  0  0  0  0
    6.0963  -10.8296   26.7009 C   0  0  0  0  0  0  0  0  0  0  0  0
    5.8896  -12.6050   27.1123 S   0  0  0  0  0  0  0  0  0  0  0  0
    7.2158  -13.4943   26.2722 C   0  0  0  0  0  0  0  0  0  0  0  0
    6.9386  -13.7659   24.8447 C   0  0  0  0  0  0  0  0  0  0  0  0
    7.9863  -14.4503   24.0497 C   0  0  2  0  0  0  0  0  0  0  0  0
    7.3863  -14.7028   22.7154 N   0  0  0  0  0  0  0  0  0  0  0  0
    8.5432  -15.6824   24.5961 C   0  0  0  0  0  0  0  0  0  0  0  0
    7.8941  -16.7577   24.3867 O   0  0  0  0  0  0  0  0  0  0  0  0
   13.7309  -17.7519   23.0015 N   0  0  0  0  0  0  0  0  0  0  0  0
   13.8805  -16.9463   24.1571 C   0  0  0  0  0  0  0  0  0  0  0  0
   15.0178  -16.4004   24.3113 O   0  0  0  0  0  0  0  0  0  0  0  0
   12.7736  -16.7740   25.0818 C   0  0  0  0  0  0  0  0  0  0  0  0
   11.4654  -17.3474   24.7470 C   0  0  0  0  0  0  0  0  0  0  0  0
   10.3062  -17.1577   25.6481 C   0  0  2  0  0  0  0  0  0  0  0  0
    9.7250  -15.8135   25.3309 N   0  0  0  0  0  0  0  0  0  0  0  0
   10.6777  -17.0698   27.0613 C   0  0  0  0  0  0  0  0  0  0  0  0
   10.5786  -15.9867   27.7403 O   0  0  0  0  0  0  0  0  0  0  0  0
   11.1641  -18.1481   27.7742 O   0  0  0  0  0  0  0  0  0  0  0  0
  2  1  1  6
  3  2  1  0
  3  4  1  0
  5  6  2  0
  5  2  1  0
  7  8  1  0
  9  8  1  0
  9 10  1  0
 11 10  1  1
 11 13  1  0
 11 12  1  0
 12  5  1  0
 13 21  1  0
 14 13  2  0
 16 15  1  0
 16 17  2  0
 18 16  1  0
 20 19  1  6
 19 18  1  0
 20 22  1  0
 21 20  1  0
 22 23  2  0
 22 24  1  0
M  END
$$$$
