CMQ.pdb
     RDKit          3D

 24 23  0  0  1  0  0  0  0  0999 V2000
    9.4407  -15.6007   19.5321 N   0  0  0  0  0  0  0  0  0  0  0  0
    8.3146  -15.9594   20.3672 C   0  0  1  0  0  0  0  0  0  0  0  0
    8.0420  -17.4425   20.2526 C   0  0  0  0  0  0  0  0  0  0  0  0
    7.5143  -17.7407   18.5262 S   0  0  0  0  0  0  0  0  0  0  0  0
    8.5985  -15.5485   21.7574 C   0  0  0  0  0  0  0  0  0  0  0  0
    9.7674  -15.6508   22.1994 O   0  0  0  0  0  0  0  0  0  0  0  0
    7.5051  -11.4391   27.9808 C   0  0  0  0  0  0  0  0  0  0  0  0
    7.5513  -11.7758   26.1785 S   0  0  0  0  0  0  0  0  0  0  0  0
    6.8102  -13.4022   25.9310 C   0  0  0  0  0  0  0  0  0  0  0  0
    6.8017  -13.8433   24.5191 C   0  0  0  0  0  0  0  0  0  0  0  0
    7.9377  -14.6667   24.0398 C   0  0  2  0  0  0  0  0  0  0  0  0
    7.6118  -15.0358   22.6391 N   0  0  0  0  0  0  0  0  0  0  0  0
    8.2743  -15.8570   24.8121 C   0  0  0  0  0  0  0  0  0  0  0  0
    7.5287  -16.8783   24.6621 O   0  0  0  0  0  0  0  0  0  0  0  0
   13.0762  -18.7985   23.7469 N   0  0  0  0  0  0  0  0  0  0  0  0
   12.8942  -19.2980   25.0601 C   0  0  0  0  0  0  0  0  0  0  0  0
   13.8210  -20.0456   25.5042 O   0  0  0  0  0  0  0  0  0  0  0  0
   11.7087  -18.9473   25.8226 C   0  0  0  0  0  0  0  0  0  0  0  0
   10.9333  -17.7635   25.4358 C   0  0  0  0  0  0  0  0  0  0  0  0
    9.7515  -17.3458   26.2237 C   0  0  2  0  0  0  0  0  0  0  0  0
    9.3382  -16.0014   25.7071 N   0  0  0  0  0  0  0  0  0  0  0  0
   10.0486  -17.1169   27.6387 C   0  0  0  0  0  0  0  0  0  0  0  0
   10.1032  -15.9455   28.1572 O   0  0  0  0  0  0  0  0  0  0  0  0
   10.2932  -18.1462   28.5266 O   0  0  0  0  0  0  0  0  0  0  0  0
  2  1  1  6
  3  2  1  0
  3  4  1  0
  5  6  2  0
  5  2  1  0
  7  8  1  0
  9  8  1  0
  9 10  1  0
 11 10  1  1
 11 13  1  0
 11 12  1  0
 12  5  1  0
 13 21  1  0
 14 13  2  0
 16 15  1  0
 16 17  2  0
 18 16  1  0
 20 19  1  6
 19 18  1  0
 20 22  1  0
 21 20  1  0
 22 23  2  0
 22 24  1  0
M  END
$$$$
