CMQ.pdb
     RDKit          3D

 24 23  0  0  1  0  0  0  0  0999 V2000
    8.6129  -15.4721   18.9989 N   0  0  0  0  0  0  0  0  0  0  0  0
    7.7843  -15.9467   20.0861 C   0  0  1  0  0  0  0  0  0  0  0  0
    7.6501  -17.4512   20.0109 C   0  0  0  0  0  0  0  0  0  0  0  0
    6.1249  -17.7886   19.0582 S   0  0  0  0  0  0  0  0  0  0  0  0
    8.3710  -15.5006   21.3663 C   0  0  0  0  0  0  0  0  0  0  0  0
    9.6060  -15.6194   21.5479 O   0  0  0  0  0  0  0  0  0  0  0  0
    6.9491  -11.5990   28.1158 C   0  0  0  0  0  0  0  0  0  0  0  0
    6.3121  -12.1482   26.4859 S   0  0  0  0  0  0  0  0  0  0  0  0
    7.5557  -13.2501   25.7826 C   0  0  0  0  0  0  0  0  0  0  0  0
    7.2553  -13.6802   24.3995 C   0  0  0  0  0  0  0  0  0  0  0  0
    8.2331  -14.5602   23.7157 C   0  0  2  0  0  0  0  0  0  0  0  0
    7.6093  -14.9357   22.4219 N   0  0  0  0  0  0  0  0  0  0  0  0
    8.6746  -15.7524   24.4302 C   0  0  0  0  0  0  0  0  0  0  0  0
    7.8660  -16.7348   24.4786 O   0  0  0  0  0  0  0  0  0  0  0  0
   13.2659  -20.9440   24.8860 N   0  0  0  0  0  0  0  0  0  0  0  0
   13.1721  -19.5436   24.6931 C   0  0  0  0  0  0  0  0  0  0  0  0
   13.7902  -19.0784   23.6848 O   0  0  0  0  0  0  0  0  0  0  0  0
   12.3998  -18.7249   25.6113 C   0  0  0  0  0  0  0  0  0  0  0  0
   11.6277  -17.5937   25.0853 C   0  0  0  0  0  0  0  0  0  0  0  0
   10.2965  -17.2650   25.6437 C   0  0  2  0  0  0  0  0  0  0  0  0
    9.9021  -15.9370   25.0729 N   0  0  0  0  0  0  0  0  0  0  0  0
   10.3114  -17.0495   27.0916 C   0  0  0  0  0  0  0  0  0  0  0  0
   10.2491  -15.8837   27.6217 O   0  0  0  0  0  0  0  0  0  0  0  0
   10.3935  -18.0863   28.0003 O   0  0  0  0  0  0  0  0  0  0  0  0
  2  1  1  6
  3  2  1  0
  3  4  1  0
  5  6  2  0
  5  2  1  0
  7  8  1  0
  9  8  1  0
  9 10  1  0
 11 10  1  1
 11 13  1  0
 11 12  1  0
 12  5  1  0
 13 21  1  0
 14 13  2  0
 16 15  1  0
 16 17  2  0
 18 16  1  0
 20 19  1  6
 19 18  1  0
 20 22  1  0
 21 20  1  0
 22 23  2  0
 22 24  1  0
M  END
$$$$
