CMQ.pdb
     RDKit          3D

 24 23  0  0  1  0  0  0  0  0999 V2000
    7.4759  -13.2246   18.8976 N   0  0  0  0  0  0  0  0  0  0  0  0
    7.3868  -14.4243   19.7018 C   0  0  1  0  0  0  0  0  0  0  0  0
    8.0174  -15.5847   18.9650 C   0  0  0  0  0  0  0  0  0  0  0  0
    6.6931  -16.8228   18.7177 S   0  0  0  0  0  0  0  0  0  0  0  0
    8.0300  -14.1749   21.0080 C   0  0  0  0  0  0  0  0  0  0  0  0
    9.2146  -13.7648   21.0386 O   0  0  0  0  0  0  0  0  0  0  0  0
    6.6731  -11.8887   28.3628 C   0  0  0  0  0  0  0  0  0  0  0  0
    5.9988  -12.3466   26.7197 S   0  0  0  0  0  0  0  0  0  0  0  0
    7.3507  -13.0975   25.7903 C   0  0  0  0  0  0  0  0  0  0  0  0
    6.9946  -13.4427   24.3966 C   0  0  0  0  0  0  0  0  0  0  0  0
    8.0424  -14.0468   23.5392 C   0  0  2  0  0  0  0  0  0  0  0  0
    7.3781  -14.3745   22.2526 N   0  0  0  0  0  0  0  0  0  0  0  0
    8.7420  -15.2155   24.0602 C   0  0  0  0  0  0  0  0  0  0  0  0
    8.1546  -16.3403   23.9550 O   0  0  0  0  0  0  0  0  0  0  0  0
   14.5154  -16.5649   22.9979 N   0  0  0  0  0  0  0  0  0  0  0  0
   14.3724  -17.3612   24.1608 C   0  0  0  0  0  0  0  0  0  0  0  0
   15.3205  -18.1735   24.3988 O   0  0  0  0  0  0  0  0  0  0  0  0
   13.2008  -17.2220   25.0080 C   0  0  0  0  0  0  0  0  0  0  0  0
   12.1744  -16.2355   24.6534 C   0  0  0  0  0  0  0  0  0  0  0  0
   10.7413  -16.5190   24.8937 C   0  0  2  0  0  0  0  0  0  0  0  0
   10.0009  -15.2362   24.6672 N   0  0  0  0  0  0  0  0  0  0  0  0
   10.4442  -16.8708   26.2833 C   0  0  0  0  0  0  0  0  0  0  0  0
    9.9538  -16.0348   27.1227 O   0  0  0  0  0  0  0  0  0  0  0  0
   10.6687  -18.1323   26.7988 O   0  0  0  0  0  0  0  0  0  0  0  0
  2  1  1  6
  3  2  1  0
  3  4  1  0
  5  6  2  0
  5  2  1  0
  7  8  1  0
  9  8  1  0
  9 10  1  0
 11 10  1  1
 11 13  1  0
 11 12  1  0
 12  5  1  0
 13 21  1  0
 14 13  2  0
 16 15  1  0
 16 17  2  0
 18 16  1  0
 20 19  1  1
 19 18  1  0
 20 22  1  0
 21 20  1  0
 22 23  2  0
 22 24  1  0
M  END
$$$$
