CMQ.pdb
     RDKit          3D

 24 23  0  0  1  0  0  0  0  0999 V2000
    8.3464  -13.2785   18.9442 N   0  0  0  0  0  0  0  0  0  0  0  0
    7.3966  -13.6260   19.9791 C   0  0  1  0  0  0  0  0  0  0  0  0
    6.6673  -14.8959   19.6015 C   0  0  0  0  0  0  0  0  0  0  0  0
    7.8883  -16.2526   19.7301 S   0  0  0  0  0  0  0  0  0  0  0  0
    8.1132  -13.7534   21.2645 C   0  0  0  0  0  0  0  0  0  0  0  0
    9.3592  -13.8937   21.2594 O   0  0  0  0  0  0  0  0  0  0  0  0
    5.3958  -11.7844   26.7839 C   0  0  0  0  0  0  0  0  0  0  0  0
    7.1806  -11.7366   27.2042 S   0  0  0  0  0  0  0  0  0  0  0  0
    7.9932  -12.9773   26.1768 C   0  0  0  0  0  0  0  0  0  0  0  0
    7.4669  -13.0434   24.7958 C   0  0  0  0  0  0  0  0  0  0  0  0
    8.2329  -13.8243   23.7952 C   0  0  2  0  0  0  0  0  0  0  0  0
    7.4665  -13.7263   22.5274 N   0  0  0  0  0  0  0  0  0  0  0  0
    8.5160  -15.2200   24.1094 C   0  0  0  0  0  0  0  0  0  0  0  0
    7.6137  -16.0740   23.8304 O   0  0  0  0  0  0  0  0  0  0  0  0
   12.8094  -18.7495   21.9127 N   0  0  0  0  0  0  0  0  0  0  0  0
   12.6561  -19.3225   23.1993 C   0  0  0  0  0  0  0  0  0  0  0  0
   13.5695  -20.1286   23.5615 O   0  0  0  0  0  0  0  0  0  0  0  0
   11.5130  -18.9778   24.0265 C   0  0  0  0  0  0  0  0  0  0  0  0
   11.0023  -17.6026   24.0043 C   0  0  0  0  0  0  0  0  0  0  0  0
    9.8831  -17.1998   24.8857 C   0  0  2  0  0  0  0  0  0  0  0  0
    9.6826  -15.7281   24.6879 N   0  0  0  0  0  0  0  0  0  0  0  0
   10.1879  -17.3378   26.3108 C   0  0  0  0  0  0  0  0  0  0  0  0
   10.4088  -16.3323   27.0752 O   0  0  0  0  0  0  0  0  0  0  0  0
   10.2607  -18.5631   26.9438 O   0  0  0  0  0  0  0  0  0  0  0  0
  2  1  1  6
  3  2  1  0
  3  4  1  0
  5  6  2  0
  5  2  1  0
  7  8  1  0
  9  8  1  0
  9 10  1  0
 11 10  1  1
 11 13  1  0
 11 12  1  0
 12  5  1  0
 13 21  1  0
 14 13  2  0
 16 15  1  0
 16 17  2  0
 18 16  1  0
 20 19  1  6
 19 18  1  0
 20 22  1  0
 21 20  1  0
 22 23  2  0
 22 24  1  0
M  END
$$$$
