CMQ.pdb
     RDKit          3D

 24 23  0  0  1  0  0  0  0  0999 V2000
    8.8895  -19.1739   16.9230 N   0  0  0  0  0  0  0  0  0  0  0  0
    7.9387  -18.4340   17.7246 C   0  0  1  0  0  0  0  0  0  0  0  0
    6.9380  -19.3848   18.3425 C   0  0  0  0  0  0  0  0  0  0  0  0
    7.8988  -20.8040   18.9833 S   0  0  0  0  0  0  0  0  0  0  0  0
    8.6730  -17.6553   18.7426 C   0  0  0  0  0  0  0  0  0  0  0  0
    9.9158  -17.7919   18.8389 O   0  0  0  0  0  0  0  0  0  0  0  0
    7.5420  -11.3501   21.3455 C   0  0  0  0  0  0  0  0  0  0  0  0
    6.4603  -12.4901   20.3998 S   0  0  0  0  0  0  0  0  0  0  0  0
    7.5038  -13.8454   19.8256 C   0  0  0  0  0  0  0  0  0  0  0  0
    7.9524  -14.7499   20.9069 C   0  0  0  0  0  0  0  0  0  0  0  0
    8.8393  -15.8815   20.5452 C   0  0  2  0  0  0  0  0  0  0  0  0
    8.0473  -16.7459   19.6343 N   0  0  0  0  0  0  0  0  0  0  0  0
    9.3951  -16.6718   21.6376 C   0  0  0  0  0  0  0  0  0  0  0  0
    8.7389  -17.6992   22.0053 O   0  0  0  0  0  0  0  0  0  0  0  0
   15.2615  -18.2017   22.1104 N   0  0  0  0  0  0  0  0  0  0  0  0
   14.7859  -18.7262   23.3374 C   0  0  0  0  0  0  0  0  0  0  0  0
   15.6335  -19.3682   24.0337 O   0  0  0  0  0  0  0  0  0  0  0  0
   13.4072  -18.5145   23.7427 C   0  0  0  0  0  0  0  0  0  0  0  0
   12.5397  -17.6694   22.9148 C   0  0  0  0  0  0  0  0  0  0  0  0
   11.1382  -17.4082   23.3141 C   0  0  2  0  0  0  0  0  0  0  0  0
   10.5830  -16.4230   22.3311 N   0  0  0  0  0  0  0  0  0  0  0  0
   11.0192  -16.7370   24.6096 C   0  0  0  0  0  0  0  0  0  0  0  0
   11.2893  -17.3171   25.7207 O   0  0  0  0  0  0  0  0  0  0  0  0
   10.6068  -15.4250   24.7360 O   0  0  0  0  0  0  0  0  0  0  0  0
  2  1  1  1
  3  2  1  0
  3  4  1  0
  5  6  2  0
  5  2  1  0
  7  8  1  0
  9  8  1  0
  9 10  1  0
 11 10  1  1
 11 13  1  0
 11 12  1  0
 12  5  1  0
 13 21  1  0
 14 13  2  0
 16 15  1  0
 16 17  2  0
 18 16  1  0
 20 19  1  6
 19 18  1  0
 20 22  1  0
 21 20  1  0
 22 23  2  0
 22 24  1  0
M  END
$$$$
