CMQ.pdb
     RDKit          3D

 24 23  0  0  1  0  0  0  0  0999 V2000
    9.6315  -15.6359   19.3221 N   0  0  0  0  0  0  0  0  0  0  0  0
    8.5065  -15.9735   20.1673 C   0  0  1  0  0  0  0  0  0  0  0  0
    8.2877  -17.4698   20.1578 C   0  0  0  0  0  0  0  0  0  0  0  0
    7.4035  -17.8546   18.6028 S   0  0  0  0  0  0  0  0  0  0  0  0
    8.7550  -15.4529   21.5272 C   0  0  0  0  0  0  0  0  0  0  0  0
    9.9333  -15.3857   21.9510 O   0  0  0  0  0  0  0  0  0  0  0  0
    7.3611  -11.8646   27.9297 C   0  0  0  0  0  0  0  0  0  0  0  0
    7.7528  -12.3252   26.1980 S   0  0  0  0  0  0  0  0  0  0  0  0
    6.6893  -13.7198   25.7745 C   0  0  0  0  0  0  0  0  0  0  0  0
    6.7365  -14.0906   24.3432 C   0  0  0  0  0  0  0  0  0  0  0  0
    8.0042  -14.6423   23.8081 C   0  0  2  0  0  0  0  0  0  0  0  0
    7.7239  -15.0165   22.3990 N   0  0  0  0  0  0  0  0  0  0  0  0
    8.5991  -15.7663   24.5220 C   0  0  0  0  0  0  0  0  0  0  0  0
    7.9439  -16.8580   24.5382 O   0  0  0  0  0  0  0  0  0  0  0  0
   13.7013  -16.5676   22.9193 N   0  0  0  0  0  0  0  0  0  0  0  0
   13.9054  -16.1823   24.2672 C   0  0  0  0  0  0  0  0  0  0  0  0
   14.9743  -15.5373   24.5055 O   0  0  0  0  0  0  0  0  0  0  0  0
   12.9243  -16.5173   25.2845 C   0  0  0  0  0  0  0  0  0  0  0  0
   11.7016  -17.2274   24.8933 C   0  0  0  0  0  0  0  0  0  0  0  0
   10.4498  -17.0547   25.6648 C   0  0  2  0  0  0  0  0  0  0  0  0
    9.8237  -15.7767   25.1959 N   0  0  0  0  0  0  0  0  0  0  0  0
   10.6743  -16.8468   27.0963 C   0  0  0  0  0  0  0  0  0  0  0  0
   10.4149  -15.7388   27.6872 O   0  0  0  0  0  0  0  0  0  0  0  0
   11.1830  -17.8292   27.9230 O   0  0  0  0  0  0  0  0  0  0  0  0
  2  1  1  6
  3  2  1  0
  3  4  1  0
  5  6  2  0
  5  2  1  0
  7  8  1  0
  9  8  1  0
  9 10  1  0
 11 10  1  1
 11 13  1  0
 11 12  1  0
 12  5  1  0
 13 21  1  0
 14 13  2  0
 16 15  1  0
 16 17  2  0
 18 16  1  0
 20 19  1  6
 19 18  1  0
 20 22  1  0
 21 20  1  0
 22 23  2  0
 22 24  1  0
M  END
$$$$
