CMQ.pdb
     RDKit          3D

 24 23  0  0  1  0  0  0  0  0999 V2000
    8.5313  -15.6938   18.9253 N   0  0  0  0  0  0  0  0  0  0  0  0
    7.4797  -15.3501   19.8580 C   0  0  1  0  0  0  0  0  0  0  0  0
    6.4257  -16.4346   19.8663 C   0  0  0  0  0  0  0  0  0  0  0  0
    7.1677  -17.8720   20.7213 S   0  0  0  0  0  0  0  0  0  0  0  0
    8.0739  -15.1371   21.1935 C   0  0  0  0  0  0  0  0  0  0  0  0
    9.2697  -15.4593   21.3898 O   0  0  0  0  0  0  0  0  0  0  0  0
    7.0143  -11.5827   28.1963 C   0  0  0  0  0  0  0  0  0  0  0  0
    6.3243  -11.9746   26.5427 S   0  0  0  0  0  0  0  0  0  0  0  0
    7.4884  -13.0973   25.7430 C   0  0  0  0  0  0  0  0  0  0  0  0
    7.1084  -13.4626   24.3608 C   0  0  0  0  0  0  0  0  0  0  0  0
    8.0061  -14.3716   23.6086 C   0  0  2  0  0  0  0  0  0  0  0  0
    7.3618  -14.5804   22.2875 N   0  0  0  0  0  0  0  0  0  0  0  0
    8.3281  -15.6541   24.2237 C   0  0  0  0  0  0  0  0  0  0  0  0
    7.4568  -16.5782   24.1329 O   0  0  0  0  0  0  0  0  0  0  0  0
   13.4826  -18.1320   25.6407 N   0  0  0  0  0  0  0  0  0  0  0  0
   12.7632  -19.3157   25.3440 C   0  0  0  0  0  0  0  0  0  0  0  0
   13.3571  -20.4082   25.6068 O   0  0  0  0  0  0  0  0  0  0  0  0
   11.4264  -19.2422   24.7806 C   0  0  0  0  0  0  0  0  0  0  0  0
   10.8373  -17.9272   24.5050 C   0  0  0  0  0  0  0  0  0  0  0  0
    9.7708  -17.3816   25.3749 C   0  0  2  0  0  0  0  0  0  0  0  0
    9.5018  -15.9837   24.9075 N   0  0  0  0  0  0  0  0  0  0  0  0
   10.1832  -17.2262   26.7709 C   0  0  0  0  0  0  0  0  0  0  0  0
   10.7626  -16.1705   27.2113 O   0  0  0  0  0  0  0  0  0  0  0  0
    9.9797  -18.2054   27.7233 O   0  0  0  0  0  0  0  0  0  0  0  0
  2  1  1  6
  3  2  1  0
  3  4  1  0
  5  6  2  0
  5  2  1  0
  7  8  1  0
  9  8  1  0
  9 10  1  0
 11 10  1  1
 11 13  1  0
 11 12  1  0
 12  5  1  0
 13 21  1  0
 14 13  2  0
 16 15  1  0
 16 17  2  0
 18 16  1  0
 20 19  1  6
 19 18  1  0
 20 22  1  0
 21 20  1  0
 22 23  2  0
 22 24  1  0
M  END
$$$$
