CMQ.pdb
     RDKit          3D

 24 23  0  0  1  0  0  0  0  0999 V2000
    8.8529  -14.7111   19.2586 N   0  0  0  0  0  0  0  0  0  0  0  0
    7.9339  -15.4204   20.1225 C   0  0  1  0  0  0  0  0  0  0  0  0
    7.9645  -16.8981   19.8021 C   0  0  0  0  0  0  0  0  0  0  0  0
    6.7775  -17.7000   20.9406 S   0  0  0  0  0  0  0  0  0  0  0  0
    8.2894  -15.1455   21.5296 C   0  0  0  0  0  0  0  0  0  0  0  0
    9.4927  -15.1982   21.8785 O   0  0  0  0  0  0  0  0  0  0  0  0
    7.8745  -11.6583   27.9301 C   0  0  0  0  0  0  0  0  0  0  0  0
    7.9681  -12.2351   26.1915 S   0  0  0  0  0  0  0  0  0  0  0  0
    6.6944  -13.4970   25.9898 C   0  0  0  0  0  0  0  0  0  0  0  0
    6.5485  -13.9777   24.5984 C   0  0  0  0  0  0  0  0  0  0  0  0
    7.7404  -14.5555   23.9325 C   0  0  2  0  0  0  0  0  0  0  0  0
    7.3358  -14.8196   22.5287 N   0  0  0  0  0  0  0  0  0  0  0  0
    8.3235  -15.7535   24.5256 C   0  0  0  0  0  0  0  0  0  0  0  0
    7.6401  -16.8260   24.4622 O   0  0  0  0  0  0  0  0  0  0  0  0
   12.6405  -19.2702   23.4519 N   0  0  0  0  0  0  0  0  0  0  0  0
   12.8808  -19.3612   24.8450 C   0  0  0  0  0  0  0  0  0  0  0  0
   13.6113  -20.3308   25.2212 O   0  0  0  0  0  0  0  0  0  0  0  0
   12.3139  -18.3810   25.7547 C   0  0  0  0  0  0  0  0  0  0  0  0
   11.4543  -17.3200   25.2185 C   0  0  0  0  0  0  0  0  0  0  0  0
   10.0644  -17.1590   25.7024 C   0  0  2  0  0  0  0  0  0  0  0  0
    9.5644  -15.8544   25.1610 N   0  0  0  0  0  0  0  0  0  0  0  0
    9.9692  -17.0110   27.1557 C   0  0  0  0  0  0  0  0  0  0  0  0
   10.0680  -18.0019   27.9635 O   0  0  0  0  0  0  0  0  0  0  0  0
    9.7659  -15.7912   27.7705 O   0  0  0  0  0  0  0  0  0  0  0  0
  2  1  1  6
  3  2  1  0
  3  4  1  0
  5  6  2  0
  5  2  1  0
  7  8  1  0
  9  8  1  0
  9 10  1  0
 11 10  1  1
 11 13  1  0
 11 12  1  0
 12  5  1  0
 13 21  1  0
 14 13  2  0
 16 15  1  0
 16 17  2  0
 18 16  1  0
 20 19  1  1
 19 18  1  0
 20 22  1  0
 21 20  1  0
 22 23  2  0
 22 24  1  0
M  END
$$$$
