CMQ.pdb
     RDKit          3D

 24 23  0  0  1  0  0  0  0  0999 V2000
    9.5069  -15.4576   19.3055 N   0  0  0  0  0  0  0  0  0  0  0  0
    8.4573  -15.9793   20.1541 C   0  0  1  0  0  0  0  0  0  0  0  0
    8.4282  -17.4888   20.0660 C   0  0  0  0  0  0  0  0  0  0  0  0
    7.7044  -17.8990   18.4364 S   0  0  0  0  0  0  0  0  0  0  0  0
    8.6764  -15.5036   21.5353 C   0  0  0  0  0  0  0  0  0  0  0  0
    9.8198  -15.5983   22.0412 O   0  0  0  0  0  0  0  0  0  0  0  0
    7.2680  -11.6281   27.7807 C   0  0  0  0  0  0  0  0  0  0  0  0
    7.5132  -12.0020   26.0018 S   0  0  0  0  0  0  0  0  0  0  0  0
    6.5815  -13.5065   25.6503 C   0  0  0  0  0  0  0  0  0  0  0  0
    6.6494  -13.9311   24.2349 C   0  0  0  0  0  0  0  0  0  0  0  0
    7.8771  -14.6221   23.7731 C   0  0  2  0  0  0  0  0  0  0  0  0
    7.6541  -14.9357   22.3392 N   0  0  0  0  0  0  0  0  0  0  0  0
    8.2825  -15.8214   24.4969 C   0  0  0  0  0  0  0  0  0  0  0  0
    7.6115  -16.8830   24.2866 O   0  0  0  0  0  0  0  0  0  0  0  0
   13.2555  -18.3961   23.5268 N   0  0  0  0  0  0  0  0  0  0  0  0
   13.3325  -17.2603   24.3700 C   0  0  0  0  0  0  0  0  0  0  0  0
   14.4042  -16.5814   24.2922 O   0  0  0  0  0  0  0  0  0  0  0  0
   12.2283  -16.9220   25.2509 C   0  0  0  0  0  0  0  0  0  0  0  0
   10.9688  -17.6658   25.1377 C   0  0  0  0  0  0  0  0  0  0  0  0
    9.7833  -17.2660   25.9294 C   0  0  2  0  0  0  0  0  0  0  0  0
    9.3395  -15.9346   25.4045 N   0  0  0  0  0  0  0  0  0  0  0  0
   10.0841  -17.0195   27.3407 C   0  0  0  0  0  0  0  0  0  0  0  0
    9.9508  -15.8683   27.8893 O   0  0  0  0  0  0  0  0  0  0  0  0
   10.5348  -18.0091   28.1922 O   0  0  0  0  0  0  0  0  0  0  0  0
  2  1  1  6
  3  2  1  0
  3  4  1  0
  5  6  2  0
  5  2  1  0
  7  8  1  0
  9  8  1  0
  9 10  1  0
 11 10  1  1
 11 13  1  0
 11 12  1  0
 12  5  1  0
 13 21  1  0
 14 13  2  0
 16 15  1  0
 16 17  2  0
 18 16  1  0
 20 19  1  6
 19 18  1  0
 20 22  1  0
 21 20  1  0
 22 23  2  0
 22 24  1  0
M  END
$$$$
