CMQ.pdb
     RDKit          3D

 24 23  0  0  1  0  0  0  0  0999 V2000
    7.5352  -14.3631   19.2027 N   0  0  0  0  0  0  0  0  0  0  0  0
    7.0828  -15.2999   20.2086 C   0  0  1  0  0  0  0  0  0  0  0  0
    7.4414  -16.7099   19.7956 C   0  0  0  0  0  0  0  0  0  0  0  0
    5.9488  -17.4139   19.0054 S   0  0  0  0  0  0  0  0  0  0  0  0
    7.6761  -14.9300   21.5099 C   0  0  0  0  0  0  0  0  0  0  0  0
    8.9029  -14.6784   21.5738 O   0  0  0  0  0  0  0  0  0  0  0  0
    7.9280  -11.7830   28.2274 C   0  0  0  0  0  0  0  0  0  0  0  0
    7.5084  -12.0052   26.4558 S   0  0  0  0  0  0  0  0  0  0  0  0
    6.8212  -13.6647   26.2852 C   0  0  0  0  0  0  0  0  0  0  0  0
    6.4793  -14.0265   24.8922 C   0  0  0  0  0  0  0  0  0  0  0  0
    7.5738  -14.4829   24.0024 C   0  0  2  0  0  0  0  0  0  0  0  0
    6.9297  -14.8403   22.7134 N   0  0  0  0  0  0  0  0  0  0  0  0
    8.4059  -15.5833   24.4752 C   0  0  0  0  0  0  0  0  0  0  0  0
    7.9225  -16.7580   24.3872 O   0  0  0  0  0  0  0  0  0  0  0  0
   14.2845  -15.2714   23.0564 N   0  0  0  0  0  0  0  0  0  0  0  0
   14.2960  -16.5054   23.7520 C   0  0  0  0  0  0  0  0  0  0  0  0
   15.4186  -17.0980   23.8151 O   0  0  0  0  0  0  0  0  0  0  0  0
   13.0779  -17.0244   24.3493 C   0  0  0  0  0  0  0  0  0  0  0  0
   11.8581  -16.2102   24.3095 C   0  0  0  0  0  0  0  0  0  0  0  0
   10.6325  -16.6535   25.0119 C   0  0  2  0  0  0  0  0  0  0  0  0
    9.6903  -15.4885   25.0184 N   0  0  0  0  0  0  0  0  0  0  0  0
   10.8512  -16.9533   26.4279 C   0  0  0  0  0  0  0  0  0  0  0  0
   10.4663  -16.1747   27.3711 O   0  0  0  0  0  0  0  0  0  0  0  0
   11.4895  -18.0998   26.8587 O   0  0  0  0  0  0  0  0  0  0  0  0
  2  1  1  6
  3  2  1  0
  3  4  1  0
  5  6  2  0
  5  2  1  0
  7  8  1  0
  9  8  1  0
  9 10  1  0
 11 10  1  1
 11 13  1  0
 11 12  1  0
 12  5  1  0
 13 21  1  0
 14 13  2  0
 16 15  1  0
 16 17  2  0
 18 16  1  0
 20 19  1  1
 19 18  1  0
 20 22  1  0
 21 20  1  0
 22 23  2  0
 22 24  1  0
M  END
$$$$
