KQA.pdb
     RDKit          3D

 24 23  0  0  1  0  0  0  0  0999 V2000
   23.4222  -19.7170  -18.0878 N   0  0  0  0  0  0  0  0  0  0  0  0
   23.4493  -18.2825  -17.8739 C   0  0  1  0  0  0  0  0  0  0  0  0
   24.6242  -17.7437  -18.6201 C   0  0  0  0  0  0  0  0  0  0  0  0
   25.6920  -18.7506  -18.9239 C   0  0  0  0  0  0  0  0  0  0  0  0
   26.8386  -18.0731  -19.6619 C   0  0  0  0  0  0  0  0  0  0  0  0
   27.8804  -19.1316  -20.0266 C   0  0  0  0  0  0  0  0  0  0  0  0
   28.9721  -18.4806  -20.7182 N   0  0  0  0  0  0  0  0  0  0  0  0
   22.1561  -17.6516  -18.2434 C   0  0  0  0  0  0  0  0  0  0  0  0
   21.5894  -17.9200  -19.3322 O   0  0  0  0  0  0  0  0  0  0  0  0
   17.2611  -16.8889  -15.0178 N   0  0  0  0  0  0  0  0  0  0  0  0
   17.5012  -17.8818  -16.0033 C   0  0  0  0  0  0  0  0  0  0  0  0
   16.8096  -18.9215  -16.0194 O   0  0  0  0  0  0  0  0  0  0  0  0
   18.5622  -17.6743  -16.9944 C   0  0  0  0  0  0  0  0  0  0  0  0
   19.1263  -16.2964  -16.8388 C   0  0  0  0  0  0  0  0  0  0  0  0
   20.2680  -16.0405  -17.7994 C   0  0  2  0  0  0  0  0  0  0  0  0
   21.4774  -16.7131  -17.4032 N   0  0  0  0  0  0  0  0  0  0  0  0
   20.5436  -14.5844  -17.8641 C   0  0  0  0  0  0  0  0  0  0  0  0
   21.2438  -13.9874  -16.9922 O   0  0  0  0  0  0  0  0  0  0  0  0
   19.9137  -11.7463  -20.2904 C   0  0  0  0  0  0  0  0  0  0  0  0
   20.2230  -12.3134  -18.9287 C   0  0  2  0  0  0  0  0  0  0  0  0
   20.0387  -13.7581  -18.9121 N   0  0  0  0  0  0  0  0  0  0  0  0
   19.4050  -11.6668  -17.8653 C   0  0  0  0  0  0  0  0  0  0  0  0
   18.3427  -12.1429  -17.4389 O   0  0  0  0  0  0  0  0  0  0  0  0
   19.8509  -10.4731  -17.3231 O   0  0  0  0  0  0  0  0  0  0  0  0
  2  1  1  6
  3  2  1  0
  4  5  1  0
  4  3  1  0
  6  5  1  0
  7  6  1  0
  8  9  2  0
  8  2  1  0
 11 10  1  0
 12 11  2  0
 13 11  1  0
 14 13  1  0
 15 14  1  1
 15 16  1  0
 16  8  1  0
 17 15  1  0
 18 17  2  0
 20 19  1  6
 20 21  1  0
 21 17  1  0
 22 20  1  0
 22 24  1  0
 23 22  2  0
M  END
$$$$
