KQA.pdb
     RDKit          3D

 24 23  0  0  1  0  0  0  0  0999 V2000
   17.2728  -11.5262  -15.2924 N   0  0  0  0  0  0  0  0  0  0  0  0
   17.4198  -10.1916  -15.8418 C   0  0  1  0  0  0  0  0  0  0  0  0
   16.2342   -9.3975  -15.4042 C   0  0  0  0  0  0  0  0  0  0  0  0
   14.9146   -9.9211  -15.8842 C   0  0  0  0  0  0  0  0  0  0  0  0
   13.7947   -9.0159  -15.3893 C   0  0  0  0  0  0  0  0  0  0  0  0
   12.4589   -9.5736  -15.8831 C   0  0  0  0  0  0  0  0  0  0  0  0
   12.1226  -10.7318  -15.0835 N   0  0  0  0  0  0  0  0  0  0  0  0
   18.7246   -9.5884  -15.4671 C   0  0  0  0  0  0  0  0  0  0  0  0
   19.1793   -9.6954  -14.3007 O   0  0  0  0  0  0  0  0  0  0  0  0
   21.8528   -8.6442  -19.9235 N   0  0  0  0  0  0  0  0  0  0  0  0
   22.0327   -9.8585  -19.2108 C   0  0  0  0  0  0  0  0  0  0  0  0
   22.1986  -10.9270  -19.8354 O   0  0  0  0  0  0  0  0  0  0  0  0
   22.0216   -9.8438  -17.7443 C   0  0  0  0  0  0  0  0  0  0  0  0
   21.7951   -8.4448  -17.2620 C   0  0  0  0  0  0  0  0  0  0  0  0
   20.8667   -8.4015  -16.0671 C   0  0  2  0  0  0  0  0  0  0  0  0
   19.5399   -8.8578  -16.3884 N   0  0  0  0  0  0  0  0  0  0  0  0
   20.7722   -7.0093  -15.5638 C   0  0  0  0  0  0  0  0  0  0  0  0
   19.9731   -6.1608  -16.0621 O   0  0  0  0  0  0  0  0  0  0  0  0
   22.1358   -5.0560  -12.6222 C   0  0  0  0  0  0  0  0  0  0  0  0
   21.4630   -5.1757  -13.9656 C   0  0  2  0  0  0  0  0  0  0  0  0
   21.5750   -6.5318  -14.4850 N   0  0  0  0  0  0  0  0  0  0  0  0
   22.0071   -4.1919  -14.9424 C   0  0  0  0  0  0  0  0  0  0  0  0
   22.8673   -4.4766  -15.7885 O   0  0  0  0  0  0  0  0  0  0  0  0
   21.5301   -2.8924  -14.9063 O   0  0  0  0  0  0  0  0  0  0  0  0
  2  1  1  1
  3  2  1  0
  4  5  1  0
  4  3  1  0
  6  5  1  0
  7  6  1  0
  8  9  2  0
  8  2  1  0
 11 10  1  0
 12 11  2  0
 13 11  1  0
 14 13  1  0
 15 14  1  6
 15 16  1  0
 16  8  1  0
 17 15  1  0
 18 17  2  0
 20 19  1  1
 20 21  1  0
 21 17  1  0
 22 20  1  0
 22 24  1  0
 23 22  2  0
M  END
$$$$
