KQA.pdb
     RDKit          3D

 24 23  0  0  1  0  0  0  0  0999 V2000
   18.3319  -12.9869  -16.0026 N   0  0  0  0  0  0  0  0  0  0  0  0
   17.6241  -11.7997  -16.4433 C   0  0  1  0  0  0  0  0  0  0  0  0
   16.1767  -12.1528  -16.5336 C   0  0  0  0  0  0  0  0  0  0  0  0
   15.8579  -13.2593  -17.4928 C   0  0  0  0  0  0  0  0  0  0  0  0
   14.3521  -13.4807  -17.5358 C   0  0  0  0  0  0  0  0  0  0  0  0
   14.0412  -14.5314  -18.6028 C   0  0  0  0  0  0  0  0  0  0  0  0
   12.6048  -14.6189  -18.7546 N   0  0  0  0  0  0  0  0  0  0  0  0
   17.9100  -10.6367  -15.5643 C   0  0  0  0  0  0  0  0  0  0  0  0
   18.0147  -10.7727  -14.3196 O   0  0  0  0  0  0  0  0  0  0  0  0
   22.4764   -7.3256  -15.0162 N   0  0  0  0  0  0  0  0  0  0  0  0
   21.6224   -6.4889  -14.2510 C   0  0  0  0  0  0  0  0  0  0  0  0
   22.1105   -5.5810  -13.5462 O   0  0  0  0  0  0  0  0  0  0  0  0
   20.1720   -6.7015  -14.2973 C   0  0  0  0  0  0  0  0  0  0  0  0
   19.8710   -7.8992  -15.1434 C   0  0  0  0  0  0  0  0  0  0  0  0
   18.3862   -8.1861  -15.2104 C   0  0  2  0  0  0  0  0  0  0  0  0
   18.0834   -9.3065  -16.0619 N   0  0  0  0  0  0  0  0  0  0  0  0
   17.6750   -6.9950  -15.7358 C   0  0  0  0  0  0  0  0  0  0  0  0
   17.7688   -6.6282  -16.9455 O   0  0  0  0  0  0  0  0  0  0  0  0
   14.7738   -4.8884  -14.7478 C   0  0  0  0  0  0  0  0  0  0  0  0
   16.1080   -5.0337  -15.4335 C   0  0  2  0  0  0  0  0  0  0  0  0
   16.8380   -6.1822  -14.9143 N   0  0  0  0  0  0  0  0  0  0  0  0
   16.9249   -3.7941  -15.3149 C   0  0  0  0  0  0  0  0  0  0  0  0
   17.7438   -3.6025  -14.4039 O   0  0  0  0  0  0  0  0  0  0  0  0
   16.7641   -2.8033  -16.2688 O   0  0  0  0  0  0  0  0  0  0  0  0
  2  1  1  1
  3  2  1  0
  4  5  1  0
  4  3  1  0
  6  5  1  0
  7  6  1  0
  8  9  2  0
  8  2  1  0
 11 10  1  0
 12 11  2  0
 13 11  1  0
 14 13  1  0
 15 14  1  6
 15 16  1  0
 16  8  1  0
 17 15  1  0
 18 17  2  0
 20 19  1  1
 20 21  1  0
 21 17  1  0
 22 20  1  0
 22 24  1  0
 23 22  2  0
M  END
$$$$
