KQA.pdb
     RDKit          3D

 24 23  0  0  1  0  0  0  0  0999 V2000
   27.6373  -20.6420  -14.5298 N   0  0  0  0  0  0  0  0  0  0  0  0
   26.8497  -19.8082  -15.4179 C   0  0  1  0  0  0  0  0  0  0  0  0
   26.9909  -20.3671  -16.7945 C   0  0  0  0  0  0  0  0  0  0  0  0
   28.4045  -20.5367  -17.2625 C   0  0  0  0  0  0  0  0  0  0  0  0
   28.4105  -21.0715  -18.6881 C   0  0  0  0  0  0  0  0  0  0  0  0
   29.8609  -21.2183  -19.1506 C   0  0  0  0  0  0  0  0  0  0  0  0
   29.8634  -21.8222  -20.4656 N   0  0  0  0  0  0  0  0  0  0  0  0
   25.4436  -19.6923  -14.9526 C   0  0  0  0  0  0  0  0  0  0  0  0
   25.0584  -20.2594  -13.8996 O   0  0  0  0  0  0  0  0  0  0  0  0
   21.2988  -15.2551  -16.5590 N   0  0  0  0  0  0  0  0  0  0  0  0
   20.5742  -15.9884  -15.5833 C   0  0  0  0  0  0  0  0  0  0  0  0
   19.4730  -15.5622  -15.1767 O   0  0  0  0  0  0  0  0  0  0  0  0
   21.1292  -17.2420  -15.0624 C   0  0  0  0  0  0  0  0  0  0  0  0
   22.4874  -17.4675  -15.6500 C   0  0  0  0  0  0  0  0  0  0  0  0
   23.1118  -18.7546  -15.1548 C   0  0  2  0  0  0  0  0  0  0  0  0
   24.4483  -18.9421  -15.6554 N   0  0  0  0  0  0  0  0  0  0  0  0
   22.2844  -19.9060  -15.5908 C   0  0  0  0  0  0  0  0  0  0  0  0
   22.2611  -20.3078  -16.7928 O   0  0  0  0  0  0  0  0  0  0  0  0
   20.3282  -22.6522  -13.8935 C   0  0  0  0  0  0  0  0  0  0  0  0
   20.7089  -21.8195  -15.0907 C   0  0  2  0  0  0  0  0  0  0  0  0
   21.4588  -20.6382  -14.6861 N   0  0  0  0  0  0  0  0  0  0  0  0
   19.5157  -21.4349  -15.8946 C   0  0  0  0  0  0  0  0  0  0  0  0
   18.9724  -22.1920  -16.7124 O   0  0  0  0  0  0  0  0  0  0  0  0
   18.9835  -20.1681  -15.7224 O   0  0  0  0  0  0  0  0  0  0  0  0
  2  1  1  1
  3  2  1  0
  4  5  1  0
  4  3  1  0
  6  5  1  0
  7  6  1  0
  8  9  2  0
  8  2  1  0
 11 10  1  0
 12 11  2  0
 13 11  1  0
 14 13  1  0
 15 14  1  6
 15 16  1  0
 16  8  1  0
 17 15  1  0
 18 17  2  0
 20 19  1  1
 20 21  1  0
 21 17  1  0
 22 20  1  0
 22 24  1  0
 23 22  2  0
M  END
$$$$
