KQA.pdb
     RDKit          3D

 24 23  0  0  1  0  0  0  0  0999 V2000
   20.3832  -11.3997  -19.6052 N   0  0  0  0  0  0  0  0  0  0  0  0
   21.2358  -10.7292  -18.6419 C   0  0  1  0  0  0  0  0  0  0  0  0
   22.6200  -10.7254  -19.2000 C   0  0  0  0  0  0  0  0  0  0  0  0
   22.9631  -11.9188  -20.0391 C   0  0  0  0  0  0  0  0  0  0  0  0
   24.1877  -12.6152  -19.4611 C   0  0  0  0  0  0  0  0  0  0  0  0
   24.5202  -13.8266  -20.3334 C   0  0  0  0  0  0  0  0  0  0  0  0
   25.7677  -14.3956  -19.8707 N   0  0  0  0  0  0  0  0  0  0  0  0
   20.7167   -9.3797  -18.3007 C   0  0  0  0  0  0  0  0  0  0  0  0
   20.3054   -8.5966  -19.1930 O   0  0  0  0  0  0  0  0  0  0  0  0
   16.1292   -5.1019  -15.9424 N   0  0  0  0  0  0  0  0  0  0  0  0
   16.9310   -6.1571  -15.4342 C   0  0  0  0  0  0  0  0  0  0  0  0
   16.4022   -7.0793  -14.7789 O   0  0  0  0  0  0  0  0  0  0  0  0
   18.3760   -6.1519  -15.6855 C   0  0  0  0  0  0  0  0  0  0  0  0
   18.8302   -7.5410  -16.0093 C   0  0  0  0  0  0  0  0  0  0  0  0
   20.2073   -7.5541  -16.6378 C   0  0  2  0  0  0  0  0  0  0  0  0
   20.6491   -8.8857  -16.9595 N   0  0  0  0  0  0  0  0  0  0  0  0
   21.1855   -6.9519  -15.6993 C   0  0  0  0  0  0  0  0  0  0  0  0
   21.7245   -7.6155  -14.7634 O   0  0  0  0  0  0  0  0  0  0  0  0
   22.8916   -3.5819  -15.2932 C   0  0  0  0  0  0  0  0  0  0  0  0
   22.5655   -4.9957  -14.8853 C   0  0  2  0  0  0  0  0  0  0  0  0
   21.5850   -5.5848  -15.7870 N   0  0  0  0  0  0  0  0  0  0  0  0
   22.0917   -5.0655  -13.4751 C   0  0  0  0  0  0  0  0  0  0  0  0
   20.8967   -5.1718  -13.1625 O   0  0  0  0  0  0  0  0  0  0  0  0
   23.0309   -5.0090  -12.4592 O   0  0  0  0  0  0  0  0  0  0  0  0
  2  1  1  6
  3  2  1  0
  4  5  1  0
  4  3  1  0
  6  5  1  0
  7  6  1  0
  8  9  2  0
  8  2  1  0
 11 10  1  0
 12 11  2  0
 13 11  1  0
 14 13  1  0
 15 14  1  1
 15 16  1  0
 16  8  1  0
 17 15  1  0
 18 17  2  0
 20 19  1  6
 20 21  1  0
 21 17  1  0
 22 20  1  0
 22 24  1  0
 23 22  2  0
M  END
$$$$
