KQA.pdb
     RDKit          3D

 24 23  0  0  1  0  0  0  0  0999 V2000
   18.9240  -12.5388  -19.6080 N   0  0  0  0  0  0  0  0  0  0  0  0
   19.8115  -12.3111  -18.4833 C   0  0  1  0  0  0  0  0  0  0  0  0
   20.5326  -13.5910  -18.2196 C   0  0  0  0  0  0  0  0  0  0  0  0
   19.6472  -14.7575  -17.9008 C   0  0  0  0  0  0  0  0  0  0  0  0
   20.5015  -15.9871  -17.6237 C   0  0  0  0  0  0  0  0  0  0  0  0
   19.5792  -17.1921  -17.4329 C   0  0  0  0  0  0  0  0  0  0  0  0
   20.3964  -18.3576  -17.1724 N   0  0  0  0  0  0  0  0  0  0  0  0
   20.7067  -11.1497  -18.7215 C   0  0  0  0  0  0  0  0  0  0  0  0
   21.7818  -11.2776  -19.3592 O   0  0  0  0  0  0  0  0  0  0  0  0
   22.4668   -8.3712  -21.8721 N   0  0  0  0  0  0  0  0  0  0  0  0
   22.5299   -7.0937  -21.2565 C   0  0  0  0  0  0  0  0  0  0  0  0
   23.3369   -6.2395  -21.6789 O   0  0  0  0  0  0  0  0  0  0  0  0
   21.6435   -6.7912  -20.1279 C   0  0  0  0  0  0  0  0  0  0  0  0
   20.7952   -7.9872  -19.8263 C   0  0  0  0  0  0  0  0  0  0  0  0
   21.2374   -8.6901  -18.5607 C   0  0  2  0  0  0  0  0  0  0  0  0
   20.4146   -9.8301  -18.2520 N   0  0  0  0  0  0  0  0  0  0  0  0
   21.1710   -7.7441  -17.4200 C   0  0  0  0  0  0  0  0  0  0  0  0
   21.9048   -6.7128  -17.3507 O   0  0  0  0  0  0  0  0  0  0  0  0
   18.8545   -6.6308  -14.8251 C   0  0  0  0  0  0  0  0  0  0  0  0
   20.2618   -7.0500  -15.1650 C   0  0  2  0  0  0  0  0  0  0  0  0
   20.2768   -7.9320  -16.3240 N   0  0  0  0  0  0  0  0  0  0  0  0
   20.9386   -7.6942  -14.0052 C   0  0  0  0  0  0  0  0  0  0  0  0
   21.4004   -8.8443  -14.0388 O   0  0  0  0  0  0  0  0  0  0  0  0
   21.0598   -6.9748  -12.8282 O   0  0  0  0  0  0  0  0  0  0  0  0
  2  1  1  6
  3  2  1  0
  4  5  1  0
  4  3  1  0
  6  5  1  0
  7  6  1  0
  8  9  2  0
  8  2  1  0
 11 10  1  0
 12 11  2  0
 13 11  1  0
 14 13  1  0
 15 14  1  6
 15 16  1  0
 16  8  1  0
 17 15  1  0
 18 17  2  0
 20 19  1  1
 20 21  1  0
 21 17  1  0
 22 20  1  0
 22 24  1  0
 23 22  2  0
M  END
$$$$
