KQA.pdb
     RDKit          3D

 24 23  0  0  1  0  0  0  0  0999 V2000
   28.1465  -19.8136  -18.4689 N   0  0  0  0  0  0  0  0  0  0  0  0
   27.5452  -20.6244  -17.4270 C   0  0  1  0  0  0  0  0  0  0  0  0
   28.6138  -21.5128  -16.8825 C   0  0  0  0  0  0  0  0  0  0  0  0
   28.6022  -22.9121  -17.4191 C   0  0  0  0  0  0  0  0  0  0  0  0
   29.7768  -23.6906  -16.8423 C   0  0  0  0  0  0  0  0  0  0  0  0
   29.8545  -25.0494  -17.5401 C   0  0  0  0  0  0  0  0  0  0  0  0
   31.0769  -25.7058  -17.1295 N   0  0  0  0  0  0  0  0  0  0  0  0
   26.8749  -19.7846  -16.4012 C   0  0  0  0  0  0  0  0  0  0  0  0
   26.8588  -18.5318  -16.4959 O   0  0  0  0  0  0  0  0  0  0  0  0
   21.0477  -19.8622  -16.5323 N   0  0  0  0  0  0  0  0  0  0  0  0
   22.1234  -19.1212  -15.9770 C   0  0  0  0  0  0  0  0  0  0  0  0
   22.0350  -17.8798  -15.8738 O   0  0  0  0  0  0  0  0  0  0  0  0
   23.3302  -19.8245  -15.5296 C   0  0  0  0  0  0  0  0  0  0  0  0
   24.2910  -18.8394  -14.9402 C   0  0  0  0  0  0  0  0  0  0  0  0
   25.4874  -19.5221  -14.3123 C   0  0  2  0  0  0  0  0  0  0  0  0
   26.2133  -20.3309  -15.2561 N   0  0  0  0  0  0  0  0  0  0  0  0
   25.0332  -20.3947  -13.2021 C   0  0  0  0  0  0  0  0  0  0  0  0
   24.3072  -21.4156  -13.3955 O   0  0  0  0  0  0  0  0  0  0  0  0
   25.5882  -20.6154   -9.4548 C   0  0  0  0  0  0  0  0  0  0  0  0
   24.8761  -20.9501  -10.7403 C   0  0  2  0  0  0  0  0  0  0  0  0
   25.3830  -20.1431  -11.8418 N   0  0  0  0  0  0  0  0  0  0  0  0
   23.4010  -20.7926  -10.6085 C   0  0  0  0  0  0  0  0  0  0  0  0
   22.7036  -21.5021   -9.8688 O   0  0  0  0  0  0  0  0  0  0  0  0
   22.7736  -19.8044  -11.3484 O   0  0  0  0  0  0  0  0  0  0  0  0
  2  1  1  6
  3  2  1  0
  4  5  1  0
  4  3  1  0
  6  5  1  0
  7  6  1  0
  8  9  2  0
  8  2  1  0
 11 10  1  0
 12 11  2  0
 13 11  1  0
 14 13  1  0
 15 14  1  6
 15 16  1  0
 16  8  1  0
 17 15  1  0
 18 17  2  0
 20 19  1  1
 20 21  1  0
 21 17  1  0
 22 20  1  0
 22 24  1  0
 23 22  2  0
M  END
$$$$
