KQA.pdb
     RDKit          3D

 24 23  0  0  1  0  0  0  0  0999 V2000
   17.9666   -9.7243  -17.5839 N   0  0  0  0  0  0  0  0  0  0  0  0
   17.0928   -9.0077  -16.6743 C   0  0  1  0  0  0  0  0  0  0  0  0
   16.5891   -9.9929  -15.6727 C   0  0  0  0  0  0  0  0  0  0  0  0
   15.7665  -11.1072  -16.2452 C   0  0  0  0  0  0  0  0  0  0  0  0
   15.2560  -11.9964  -15.1196 C   0  0  0  0  0  0  0  0  0  0  0  0
   14.3731  -13.0907  -15.7212 C   0  0  0  0  0  0  0  0  0  0  0  0
   13.8801  -13.9242  -14.6459 N   0  0  0  0  0  0  0  0  0  0  0  0
   17.7750   -7.8312  -16.0764 C   0  0  0  0  0  0  0  0  0  0  0  0
   17.2146   -7.1336  -15.1943 O   0  0  0  0  0  0  0  0  0  0  0  0
   21.7637   -5.0525  -12.5377 N   0  0  0  0  0  0  0  0  0  0  0  0
   22.1931   -5.9323  -13.5655 C   0  0  0  0  0  0  0  0  0  0  0  0
   22.7171   -7.0262  -13.2684 O   0  0  0  0  0  0  0  0  0  0  0  0
   22.0159   -5.5449  -14.9689 C   0  0  0  0  0  0  0  0  0  0  0  0
   21.2895   -6.6321  -15.6977 C   0  0  0  0  0  0  0  0  0  0  0  0
   19.8025   -6.3615  -15.7818 C   0  0  2  0  0  0  0  0  0  0  0  0
   19.0915   -7.4171  -16.4541 N   0  0  0  0  0  0  0  0  0  0  0  0
   19.5704   -5.0972  -16.5223 C   0  0  0  0  0  0  0  0  0  0  0  0
   19.8071   -4.9846  -17.7625 O   0  0  0  0  0  0  0  0  0  0  0  0
   17.4271   -2.1486  -16.2480 C   0  0  0  0  0  0  0  0  0  0  0  0
   18.7803   -2.6974  -16.6212 C   0  0  2  0  0  0  0  0  0  0  0  0
   19.0655   -3.9231  -15.8879 N   0  0  0  0  0  0  0  0  0  0  0  0
   19.8589   -1.6931  -16.4064 C   0  0  0  0  0  0  0  0  0  0  0  0
   19.8866   -0.5912  -16.9740 O   0  0  0  0  0  0  0  0  0  0  0  0
   20.8843   -2.0027  -15.5288 O   0  0  0  0  0  0  0  0  0  0  0  0
  2  1  1  6
  3  2  1  0
  4  5  1  0
  4  3  1  0
  6  5  1  0
  7  6  1  0
  8  9  2  0
  8  2  1  0
 11 10  1  0
 12 11  2  0
 13 11  1  0
 14 13  1  0
 15 14  1  6
 15 16  1  0
 16  8  1  0
 17 15  1  0
 18 17  2  0
 20 19  1  1
 20 21  1  0
 21 17  1  0
 22 20  1  0
 22 24  1  0
 23 22  2  0
M  END
$$$$
