KQA.pdb
     RDKit          3D

 24 23  0  0  1  0  0  0  0  0999 V2000
   15.3857  -18.8713    2.4715 N   0  0  0  0  0  0  0  0  0  0  0  0
   16.0619  -18.7175    3.7457 C   0  0  1  0  0  0  0  0  0  0  0  0
   17.3492  -19.4679    3.6594 C   0  0  0  0  0  0  0  0  0  0  0  0
   17.4801  -20.6054    4.6264 C   0  0  0  0  0  0  0  0  0  0  0  0
   18.8437  -21.2624    4.4613 C   0  0  0  0  0  0  0  0  0  0  0  0
   18.9664  -22.3993    5.4769 C   0  0  0  0  0  0  0  0  0  0  0  0
   20.2545  -23.0346    5.2998 N   0  0  0  0  0  0  0  0  0  0  0  0
   16.2186  -17.2860    4.1104 C   0  0  0  0  0  0  0  0  0  0  0  0
   16.1095  -16.3794    3.2473 O   0  0  0  0  0  0  0  0  0  0  0  0
   13.7703  -13.9609    9.0657 N   0  0  0  0  0  0  0  0  0  0  0  0
   15.1517  -13.6828    8.8952 C   0  0  0  0  0  0  0  0  0  0  0  0
   15.8405  -13.3309    9.8756 O   0  0  0  0  0  0  0  0  0  0  0  0
   15.7558  -13.8123    7.5650 C   0  0  0  0  0  0  0  0  0  0  0  0
   15.8414  -15.2605    7.1958 C   0  0  0  0  0  0  0  0  0  0  0  0
   16.4675  -15.4609    5.8322 C   0  0  2  0  0  0  0  0  0  0  0  0
   16.4987  -16.8463    5.4429 N   0  0  0  0  0  0  0  0  0  0  0  0
   17.8596  -14.9487    5.8465 C   0  0  0  0  0  0  0  0  0  0  0  0
   18.8355  -15.6485    6.2523 O   0  0  0  0  0  0  0  0  0  0  0  0
   19.6846  -11.8636    4.6265 C   0  0  0  0  0  0  0  0  0  0  0  0
   19.5494  -13.1060    5.4689 C   0  0  2  0  0  0  0  0  0  0  0  0
   18.1933  -13.6336    5.4047 N   0  0  0  0  0  0  0  0  0  0  0  0
   19.9509  -12.8585    6.8816 C   0  0  0  0  0  0  0  0  0  0  0  0
   19.1553  -12.8918    7.8318 O   0  0  0  0  0  0  0  0  0  0  0  0
   21.2797  -12.5767    7.1508 O   0  0  0  0  0  0  0  0  0  0  0  0
  2  1  1  6
  3  2  1  0
  4  5  1  0
  4  3  1  0
  6  5  1  0
  7  6  1  0
  8  9  2  0
  8  2  1  0
 11 10  1  0
 12 11  2  0
 13 11  1  0
 14 13  1  0
 15 14  1  1
 15 16  1  0
 16  8  1  0
 17 15  1  0
 18 17  2  0
 20 19  1  6
 20 21  1  0
 21 17  1  0
 22 20  1  0
 22 24  1  0
 23 22  2  0
M  END
$$$$
