KQA.pdb
     RDKit          3D

 24 23  0  0  1  0  0  0  0  0999 V2000
   24.5415  -25.2646  -15.0090 N   0  0  0  0  0  0  0  0  0  0  0  0
   23.2287  -24.6478  -14.9854 C   0  0  1  0  0  0  0  0  0  0  0  0
   22.4004  -25.4025  -13.9996 C   0  0  0  0  0  0  0  0  0  0  0  0
   22.0769  -26.8108  -14.3973 C   0  0  0  0  0  0  0  0  0  0  0  0
   21.2229  -27.4633  -13.3187 C   0  0  0  0  0  0  0  0  0  0  0  0
   21.0391  -28.9414  -13.6662 C   0  0  0  0  0  0  0  0  0  0  0  0
   20.4123  -29.6018  -12.5416 N   0  0  0  0  0  0  0  0  0  0  0  0
   23.3160  -23.1901  -14.7130 C   0  0  0  0  0  0  0  0  0  0  0  0
   24.1649  -22.7285  -13.9097 O   0  0  0  0  0  0  0  0  0  0  0  0
   23.4840  -18.6422  -18.5570 N   0  0  0  0  0  0  0  0  0  0  0  0
   23.2961  -17.8828  -17.3726 C   0  0  0  0  0  0  0  0  0  0  0  0
   23.4163  -16.6403  -17.4054 O   0  0  0  0  0  0  0  0  0  0  0  0
   22.9621  -18.5688  -16.1200 C   0  0  0  0  0  0  0  0  0  0  0  0
   22.9146  -20.0459  -16.3585 C   0  0  0  0  0  0  0  0  0  0  0  0
   22.5723  -20.8119  -15.0985 C   0  0  2  0  0  0  0  0  0  0  0  0
   22.4579  -22.2275  -15.3330 N   0  0  0  0  0  0  0  0  0  0  0  0
   21.2807  -20.3227  -14.5572 C   0  0  0  0  0  0  0  0  0  0  0  0
   20.1773  -20.5274  -15.1468 O   0  0  0  0  0  0  0  0  0  0  0  0
   20.0896  -18.5380  -11.4290 C   0  0  0  0  0  0  0  0  0  0  0  0
   19.9417  -19.0293  -12.8461 C   0  0  2  0  0  0  0  0  0  0  0  0
   21.1939  -19.5886  -13.3368 N   0  0  0  0  0  0  0  0  0  0  0  0
   19.4556  -17.9528  -13.7532 C   0  0  0  0  0  0  0  0  0  0  0  0
   20.1858  -17.3631  -14.5632 O   0  0  0  0  0  0  0  0  0  0  0  0
   18.1207  -17.5896  -13.6912 O   0  0  0  0  0  0  0  0  0  0  0  0
  2  1  1  1
  3  2  1  0
  4  5  1  0
  4  3  1  0
  6  5  1  0
  7  6  1  0
  8  9  2  0
  8  2  1  0
 11 10  1  0
 12 11  2  0
 13 11  1  0
 14 13  1  0
 15 14  1  6
 15 16  1  0
 16  8  1  0
 17 15  1  0
 18 17  2  0
 20 19  1  1
 20 21  1  0
 21 17  1  0
 22 20  1  0
 22 24  1  0
 23 22  2  0
M  END
$$$$
