KQA.pdb
     RDKit          3D

 24 23  0  0  1  0  0  0  0  0999 V2000
   26.8134  -22.8940  -17.0565 N   0  0  0  0  0  0  0  0  0  0  0  0
   26.6705  -21.6787  -16.2775 C   0  0  1  0  0  0  0  0  0  0  0  0
   26.3950  -20.5669  -17.2344 C   0  0  0  0  0  0  0  0  0  0  0  0
   27.5628  -20.1631  -18.0825 C   0  0  0  0  0  0  0  0  0  0  0  0
   28.4426  -19.1891  -17.3108 C   0  0  0  0  0  0  0  0  0  0  0  0
   29.5972  -18.7507  -18.2129 C   0  0  0  0  0  0  0  0  0  0  0  0
   29.3305  -17.4065  -18.6775 N   0  0  0  0  0  0  0  0  0  0  0  0
   25.6447  -21.8304  -15.2137 C   0  0  0  0  0  0  0  0  0  0  0  0
   24.6328  -22.5552  -15.3850 O   0  0  0  0  0  0  0  0  0  0  0  0
   26.1461  -20.3324   -9.1038 N   0  0  0  0  0  0  0  0  0  0  0  0
   24.7801  -20.7086   -9.1892 C   0  0  0  0  0  0  0  0  0  0  0  0
   24.0832  -20.7580   -8.1541 O   0  0  0  0  0  0  0  0  0  0  0  0
   24.2014  -21.0362  -10.4964 C   0  0  0  0  0  0  0  0  0  0  0  0
   25.2660  -20.9584  -11.5459 C   0  0  0  0  0  0  0  0  0  0  0  0
   24.7372  -21.3234  -12.9166 C   0  0  2  0  0  0  0  0  0  0  0  0
   25.7340  -21.1759  -13.9445 N   0  0  0  0  0  0  0  0  0  0  0  0
   23.5873  -20.4487  -13.2526 C   0  0  0  0  0  0  0  0  0  0  0  0
   23.7378  -19.2845  -13.7308 O   0  0  0  0  0  0  0  0  0  0  0  0
   21.1331  -19.8759  -15.0047 C   0  0  0  0  0  0  0  0  0  0  0  0
   21.1018  -20.0615  -13.5093 C   0  0  2  0  0  0  0  0  0  0  0  0
   22.2344  -20.8594  -13.0598 N   0  0  0  0  0  0  0  0  0  0  0  0
   19.8189  -20.6683  -13.0576 C   0  0  0  0  0  0  0  0  0  0  0  0
   19.7500  -21.7598  -12.4737 O   0  0  0  0  0  0  0  0  0  0  0  0
   18.6415  -19.9811  -13.3006 O   0  0  0  0  0  0  0  0  0  0  0  0
  2  1  1  6
  3  2  1  0
  4  5  1  0
  4  3  1  0
  6  5  1  0
  7  6  1  0
  8  9  2  0
  8  2  1  0
 11 10  1  0
 12 11  2  0
 13 11  1  0
 14 13  1  0
 15 14  1  1
 15 16  1  0
 16  8  1  0
 17 15  1  0
 18 17  2  0
 20 19  1  6
 20 21  1  0
 21 17  1  0
 22 20  1  0
 22 24  1  0
 23 22  2  0
M  END
$$$$
