KQA.pdb
     RDKit          3D

 24 23  0  0  1  0  0  0  0  0999 V2000
   23.0305  -21.2448  -10.5154 N   0  0  0  0  0  0  0  0  0  0  0  0
   22.5185  -21.3828  -11.8656 C   0  0  1  0  0  0  0  0  0  0  0  0
   21.0621  -21.0588  -11.8242 C   0  0  0  0  0  0  0  0  0  0  0  0
   20.1690  -22.2177  -11.4997 C   0  0  0  0  0  0  0  0  0  0  0  0
   18.7303  -21.7351  -11.3745 C   0  0  0  0  0  0  0  0  0  0  0  0
   17.8642  -22.8969  -10.8855 C   0  0  0  0  0  0  0  0  0  0  0  0
   16.5325  -22.3960  -10.6218 N   0  0  0  0  0  0  0  0  0  0  0  0
   23.2945  -20.5610  -12.8297 C   0  0  0  0  0  0  0  0  0  0  0  0
   23.8541  -19.4944  -12.4719 O   0  0  0  0  0  0  0  0  0  0  0  0
   28.1058  -21.4340  -15.7007 N   0  0  0  0  0  0  0  0  0  0  0  0
   27.0881  -22.4166  -15.8178 C   0  0  0  0  0  0  0  0  0  0  0  0
   27.3914  -23.5951  -16.0978 O   0  0  0  0  0  0  0  0  0  0  0  0
   25.6877  -22.0347  -15.6081 C   0  0  0  0  0  0  0  0  0  0  0  0
   25.6081  -20.5655  -15.3321 C   0  0  0  0  0  0  0  0  0  0  0  0
   24.1794  -20.1013  -15.1455 C   0  0  2  0  0  0  0  0  0  0  0  0
   23.4572  -20.9180  -14.2057 N   0  0  0  0  0  0  0  0  0  0  0  0
   23.4694  -20.1489  -16.4471 C   0  0  0  0  0  0  0  0  0  0  0  0
   22.8647  -21.1867  -16.8522 O   0  0  0  0  0  0  0  0  0  0  0  0
   22.7031  -17.7021  -19.2507 C   0  0  0  0  0  0  0  0  0  0  0  0
   22.6855  -19.0556  -18.5881 C   0  0  2  0  0  0  0  0  0  0  0  0
   23.4200  -19.0295  -17.3307 N   0  0  0  0  0  0  0  0  0  0  0  0
   23.2207  -20.1150  -19.4877 C   0  0  0  0  0  0  0  0  0  0  0  0
   24.4277  -20.3813  -19.5838 O   0  0  0  0  0  0  0  0  0  0  0  0
   22.3275  -20.8412  -20.2573 O   0  0  0  0  0  0  0  0  0  0  0  0
  2  1  1  1
  3  2  1  0
  4  5  1  0
  4  3  1  0
  6  5  1  0
  7  6  1  0
  8  9  2  0
  8  2  1  0
 11 10  1  0
 12 11  2  0
 13 11  1  0
 14 13  1  0
 15 14  1  6
 15 16  1  0
 16  8  1  0
 17 15  1  0
 18 17  2  0
 20 19  1  6
 20 21  1  0
 21 17  1  0
 22 20  1  0
 22 24  1  0
 23 22  2  0
M  END
$$$$
