KQA.pdb
     RDKit          3D

 24 23  0  0  1  0  0  0  0  0999 V2000
   17.9192  -10.5999  -18.0588 N   0  0  0  0  0  0  0  0  0  0  0  0
   18.9736   -9.6500  -17.7585 C   0  0  1  0  0  0  0  0  0  0  0  0
   19.3468   -8.9803  -19.0390 C   0  0  0  0  0  0  0  0  0  0  0  0
   20.2239   -9.7936  -19.9418 C   0  0  0  0  0  0  0  0  0  0  0  0
   20.5005   -9.0168  -21.2219 C   0  0  0  0  0  0  0  0  0  0  0  0
   21.3745   -9.8753  -22.1374 C   0  0  0  0  0  0  0  0  0  0  0  0
   20.6669  -11.1042  -22.4256 N   0  0  0  0  0  0  0  0  0  0  0  0
   18.5711   -8.7118  -16.6793 C   0  0  0  0  0  0  0  0  0  0  0  0
   17.6637   -7.8621  -16.8615 O   0  0  0  0  0  0  0  0  0  0  0  0
   17.6584   -9.8014  -10.8186 N   0  0  0  0  0  0  0  0  0  0  0  0
   17.5614   -8.3854  -10.7962 C   0  0  0  0  0  0  0  0  0  0  0  0
   17.1248   -7.8084   -9.7785 O   0  0  0  0  0  0  0  0  0  0  0  0
   17.9765   -7.6142  -11.9727 C   0  0  0  0  0  0  0  0  0  0  0  0
   18.3336   -8.5529  -13.0828 C   0  0  0  0  0  0  0  0  0  0  0  0
   18.7668   -7.8143  -14.3311 C   0  0  2  0  0  0  0  0  0  0  0  0
   19.1751   -8.7090  -15.3822 N   0  0  0  0  0  0  0  0  0  0  0  0
   19.9074   -6.9226  -14.0080 C   0  0  0  0  0  0  0  0  0  0  0  0
   21.1133   -7.2993  -14.1122 O   0  0  0  0  0  0  0  0  0  0  0  0
   22.0592   -5.4943  -12.8510 C   0  0  0  0  0  0  0  0  0  0  0  0
   20.8399   -4.7000  -13.2436 C   0  0  2  0  0  0  0  0  0  0  0  0
   19.7235   -5.5811  -13.5579 N   0  0  0  0  0  0  0  0  0  0  0  0
   21.1240   -3.7843  -14.3833 C   0  0  0  0  0  0  0  0  0  0  0  0
   20.7589   -4.0106  -15.5463 O   0  0  0  0  0  0  0  0  0  0  0  0
   21.8317   -2.6203  -14.1347 O   0  0  0  0  0  0  0  0  0  0  0  0
  2  1  1  6
  3  2  1  0
  4  5  1  0
  4  3  1  0
  6  5  1  0
  7  6  1  0
  8  9  2  0
  8  2  1  0
 11 10  1  0
 12 11  2  0
 13 11  1  0
 14 13  1  0
 15 14  1  1
 15 16  1  0
 16  8  1  0
 17 15  1  0
 18 17  2  0
 20 19  1  6
 20 21  1  0
 21 17  1  0
 22 20  1  0
 22 24  1  0
 23 22  2  0
M  END
$$$$
