KQA.pdb
     RDKit          3D

 24 23  0  0  1  0  0  0  0  0999 V2000
   28.0560  -21.7074  -16.8041 N   0  0  0  0  0  0  0  0  0  0  0  0
   27.9415  -20.8360  -15.6500 C   0  0  1  0  0  0  0  0  0  0  0  0
   27.9376  -19.4307  -16.1524 C   0  0  0  0  0  0  0  0  0  0  0  0
   27.0630  -19.1918  -17.3458 C   0  0  0  0  0  0  0  0  0  0  0  0
   27.2417  -17.7600  -17.8323 C   0  0  0  0  0  0  0  0  0  0  0  0
   26.3503  -17.5431  -19.0559 C   0  0  0  0  0  0  0  0  0  0  0  0
   26.5576  -16.1955  -19.5405 N   0  0  0  0  0  0  0  0  0  0  0  0
   26.7612  -21.1851  -14.8182 C   0  0  0  0  0  0  0  0  0  0  0  0
   25.8558  -21.9373  -15.2576 O   0  0  0  0  0  0  0  0  0  0  0  0
   26.0977  -20.3545   -8.5957 N   0  0  0  0  0  0  0  0  0  0  0  0
   24.8892  -21.0200   -8.9298 C   0  0  0  0  0  0  0  0  0  0  0  0
   24.1074  -21.3799   -8.0250 O   0  0  0  0  0  0  0  0  0  0  0  0
   24.5721  -21.2779  -10.3383 C   0  0  0  0  0  0  0  0  0  0  0  0
   25.6807  -20.7607  -11.2011 C   0  0  0  0  0  0  0  0  0  0  0  0
   25.4558  -21.0802  -12.6636 C   0  0  2  0  0  0  0  0  0  0  0  0
   26.5751  -20.7002  -13.4850 N   0  0  0  0  0  0  0  0  0  0  0  0
   24.2543  -20.3581  -13.1490 C   0  0  0  0  0  0  0  0  0  0  0  0
   24.2273  -19.0975  -13.2791 O   0  0  0  0  0  0  0  0  0  0  0  0
   21.4858  -20.7127  -15.3503 C   0  0  0  0  0  0  0  0  0  0  0  0
   21.8530  -20.3271  -13.9404 C   0  0  2  0  0  0  0  0  0  0  0  0
   23.0483  -21.0343  -13.5017 N   0  0  0  0  0  0  0  0  0  0  0  0
   20.7264  -20.5621  -12.9951 C   0  0  0  0  0  0  0  0  0  0  0  0
   20.7449  -21.4375  -12.1174 O   0  0  0  0  0  0  0  0  0  0  0  0
   19.5995  -19.7641  -13.0993 O   0  0  0  0  0  0  0  0  0  0  0  0
  2  1  1  6
  3  2  1  0
  4  5  1  0
  4  3  1  0
  6  5  1  0
  7  6  1  0
  8  9  2  0
  8  2  1  0
 11 10  1  0
 12 11  2  0
 13 11  1  0
 14 13  1  0
 15 14  1  1
 15 16  1  0
 16  8  1  0
 17 15  1  0
 18 17  2  0
 20 19  1  6
 20 21  1  0
 21 17  1  0
 22 20  1  0
 22 24  1  0
 23 22  2  0
M  END
$$$$
