IDM.pdb
     RDKit          3D

 25 24  0  0  1  0  0  0  0  0999 V2000
   29.6859  -16.6335  -17.4873 C   0  0  0  0  0  0  0  0  0  0  0  0
   28.3277  -17.2636  -17.6888 C   0  0  0  0  0  0  0  0  0  0  0  0
   27.5402  -17.4212  -16.4248 C   0  0  2  0  0  0  0  0  0  0  0  0
   28.3027  -18.2555  -15.4156 C   0  0  0  0  0  0  0  0  0  0  0  0
   26.1733  -17.9833  -16.6009 C   0  0  2  0  0  0  0  0  0  0  0  0
   25.4289  -17.2932  -17.6323 N   0  0  0  0  0  0  0  0  0  0  0  0
   25.4087  -18.1514  -15.3595 C   0  0  0  0  0  0  0  0  0  0  0  0
   24.8070  -17.1634  -14.8670 O   0  0  0  0  0  0  0  0  0  0  0  0
   25.3060  -19.4007  -14.6568 N   0  0  0  0  0  0  0  0  0  0  0  0
   24.5034  -19.5203  -13.4578 C   0  0  1  0  0  0  0  0  0  0  0  0
   23.2167  -20.2266  -13.8116 C   0  0  0  0  0  0  0  0  0  0  0  0
   22.2708  -20.3449  -12.7010 C   0  0  0  0  0  0  0  0  0  0  0  0
   21.2001  -20.9848  -12.8505 O   0  0  0  0  0  0  0  0  0  0  0  0
   25.2417  -20.3971  -12.4886 C   0  0  0  0  0  0  0  0  0  0  0  0
   25.6948  -21.5218  -12.8069 O   0  0  0  0  0  0  0  0  0  0  0  0
   22.5265  -19.7584  -11.4591 O   0  0  0  0  0  0  0  0  0  0  0  0
   28.0394  -17.8393   -6.9406 C   0  0  0  0  0  0  0  0  0  0  0  0
   27.9301  -19.5910   -6.6181 S   0  0  0  0  0  0  0  0  0  0  0  0
   27.1791  -20.5855   -7.8844 C   0  0  0  0  0  0  0  0  0  0  0  0
   26.6669  -19.8624   -9.0884 C   0  0  0  0  0  0  0  0  0  0  0  0
   26.0712  -20.7549  -10.1172 C   0  0  2  0  0  0  0  0  0  0  0  0
   25.4296  -19.9386  -11.1811 N   0  0  0  0  0  0  0  0  0  0  0  0
   24.9549  -21.5107   -9.5237 C   0  0  0  0  0  0  0  0  0  0  0  0
   23.6491  -21.2143   -9.8410 O   0  0  0  0  0  0  0  0  0  0  0  0
   25.1566  -22.4330   -8.7235 O   0  0  0  0  0  0  0  0  0  0  0  0
  1  2  1  0
  3  4  1  1
  3  2  1  0
  5  7  1  0
  5  3  1  0
  5  6  1  6
  7  8  2  0
  9 10  1  0
  9  7  1  0
 10 11  1  6
 12 16  1  0
 12 11  1  0
 13 12  2  0
 14 22  1  0
 14 10  1  0
 15 14  2  0
 18 17  1  0
 19 18  1  0
 21 20  1  1
 20 19  1  0
 21 22  1  0
 23 21  1  0
 23 24  1  0
 25 23  2  0
M  END
$$$$
