IDM.pdb
     RDKit          3D

 25 24  0  0  1  0  0  0  0  0999 V2000
   33.1086  -22.1682  -10.8857 C   0  0  0  0  0  0  0  0  0  0  0  0
   32.1673  -22.0296  -12.0593 C   0  0  0  0  0  0  0  0  0  0  0  0
   30.9078  -21.2851  -11.7401 C   0  0  2  0  0  0  0  0  0  0  0  0
   30.1241  -21.9932  -10.6536 C   0  0  0  0  0  0  0  0  0  0  0  0
   30.0177  -21.0260  -12.9045 C   0  0  2  0  0  0  0  0  0  0  0  0
   30.7118  -20.3549  -13.9825 N   0  0  0  0  0  0  0  0  0  0  0  0
   28.7329  -20.3984  -12.5737 C   0  0  0  0  0  0  0  0  0  0  0  0
   28.6803  -19.1541  -12.4017 O   0  0  0  0  0  0  0  0  0  0  0  0
   27.5072  -21.1343  -12.4288 N   0  0  0  0  0  0  0  0  0  0  0  0
   26.3305  -20.5206  -11.8502 C   0  0  1  0  0  0  0  0  0  0  0  0
   25.1349  -20.8852  -12.6969 C   0  0  0  0  0  0  0  0  0  0  0  0
   23.8552  -20.4144  -12.1649 C   0  0  0  0  0  0  0  0  0  0  0  0
   23.7587  -19.2563  -11.6879 O   0  0  0  0  0  0  0  0  0  0  0  0
   26.1137  -21.1193  -10.4908 C   0  0  0  0  0  0  0  0  0  0  0  0
   25.8827  -22.3396  -10.3204 O   0  0  0  0  0  0  0  0  0  0  0  0
   22.7190  -21.2273  -12.1715 O   0  0  0  0  0  0  0  0  0  0  0  0
   29.3845  -18.6960   -5.1436 C   0  0  0  0  0  0  0  0  0  0  0  0
   27.8424  -19.3426   -4.5206 S   0  0  0  0  0  0  0  0  0  0  0  0
   26.8789  -20.3209   -5.6480 C   0  0  0  0  0  0  0  0  0  0  0  0
   26.9169  -19.9165   -7.0867 C   0  0  0  0  0  0  0  0  0  0  0  0
   26.0971  -20.7812   -7.9758 C   0  0  2  0  0  0  0  0  0  0  0  0
   26.1723  -20.2806   -9.3735 N   0  0  0  0  0  0  0  0  0  0  0  0
   24.6745  -20.6403   -7.6210 C   0  0  0  0  0  0  0  0  0  0  0  0
   24.1437  -21.3047   -6.5392 O   0  0  0  0  0  0  0  0  0  0  0  0
   23.9150  -19.9218   -8.2833 O   0  0  0  0  0  0  0  0  0  0  0  0
  1  2  1  0
  3  4  1  1
  3  2  1  0
  5  7  1  0
  5  3  1  0
  5  6  1  6
  7  8  2  0
  9 10  1  0
  9  7  1  0
 10 11  1  6
 12 16  1  0
 12 11  1  0
 13 12  2  0
 14 22  1  0
 14 10  1  0
 15 14  2  0
 18 17  1  0
 19 18  1  0
 21 20  1  1
 20 19  1  0
 21 22  1  0
 23 21  1  0
 23 24  1  0
 25 23  2  0
M  END
$$$$
