IDM.pdb
     RDKit          3D

 25 24  0  0  1  0  0  0  0  0999 V2000
   29.9394  -22.0476  -11.0457 C   0  0  0  0  0  0  0  0  0  0  0  0
   29.5177  -20.6072  -10.8722 C   0  0  0  0  0  0  0  0  0  0  0  0
   28.1874  -20.2885  -11.4816 C   0  0  2  0  0  0  0  0  0  0  0  0
   27.1311  -21.2679  -11.0115 C   0  0  0  0  0  0  0  0  0  0  0  0
   28.1759  -20.2230  -12.9685 C   0  0  2  0  0  0  0  0  0  0  0  0
   29.3354  -19.5339  -13.4928 N   0  0  0  0  0  0  0  0  0  0  0  0
   26.9167  -19.7526  -13.5575 C   0  0  0  0  0  0  0  0  0  0  0  0
   26.6276  -18.5303  -13.5004 O   0  0  0  0  0  0  0  0  0  0  0  0
   25.9735  -20.6215  -14.2060 N   0  0  0  0  0  0  0  0  0  0  0  0
   24.6965  -20.1237  -14.6725 C   0  0  1  0  0  0  0  0  0  0  0  0
   24.6137  -20.3419  -16.1641 C   0  0  0  0  0  0  0  0  0  0  0  0
   23.3912  -19.8244  -16.7805 C   0  0  0  0  0  0  0  0  0  0  0  0
   23.0090  -20.2683  -17.8918 O   0  0  0  0  0  0  0  0  0  0  0  0
   23.6151  -20.9506  -14.0399 C   0  0  0  0  0  0  0  0  0  0  0  0
   23.5382  -22.1923  -14.1944 O   0  0  0  0  0  0  0  0  0  0  0  0
   22.6236  -18.8355  -16.1603 O   0  0  0  0  0  0  0  0  0  0  0  0
   20.7757  -19.4578   -8.0651 C   0  0  0  0  0  0  0  0  0  0  0  0
   19.4681  -20.0416   -9.1298 S   0  0  0  0  0  0  0  0  0  0  0  0
   19.9683  -20.8433  -10.6344 C   0  0  0  0  0  0  0  0  0  0  0  0
   21.1680  -20.2805  -11.3263 C   0  0  0  0  0  0  0  0  0  0  0  0
   21.5644  -21.0303  -12.5472 C   0  0  2  0  0  0  0  0  0  0  0  0
   22.6582  -20.3079  -13.2485 N   0  0  0  0  0  0  0  0  0  0  0  0
   20.4517  -21.0191  -13.5123 C   0  0  0  0  0  0  0  0  0  0  0  0
   19.6130  -22.1024  -13.6409 O   0  0  0  0  0  0  0  0  0  0  0  0
   20.2376  -20.0377  -14.2352 O   0  0  0  0  0  0  0  0  0  0  0  0
  1  2  1  0
  3  4  1  6
  3  2  1  0
  5  7  1  0
  5  3  1  0
  5  6  1  1
  7  8  2  0
  9 10  1  0
  9  7  1  0
 10 11  1  6
 12 16  1  0
 12 11  1  0
 13 12  2  0
 14 22  1  0
 14 10  1  0
 15 14  2  0
 18 17  1  0
 19 18  1  0
 21 20  1  1
 20 19  1  0
 21 22  1  0
 23 21  1  0
 23 24  1  0
 25 23  2  0
M  END
$$$$
