IDM.pdb
     RDKit          3D

 25 24  0  0  1  0  0  0  0  0999 V2000
   30.0345  -22.2376  -17.5851 C   0  0  0  0  0  0  0  0  0  0  0  0
   28.6614  -21.6797  -17.8783 C   0  0  0  0  0  0  0  0  0  0  0  0
   27.9455  -21.1665  -16.6672 C   0  0  2  0  0  0  0  0  0  0  0  0
   27.8185  -22.2511  -15.6167 C   0  0  0  0  0  0  0  0  0  0  0  0
   26.6062  -20.5737  -16.9320 C   0  0  2  0  0  0  0  0  0  0  0  0
   26.6565  -19.5462  -17.9498 N   0  0  0  0  0  0  0  0  0  0  0  0
   25.8664  -20.1569  -15.7350 C   0  0  0  0  0  0  0  0  0  0  0  0
   26.2169  -19.1149  -15.1248 O   0  0  0  0  0  0  0  0  0  0  0  0
   24.7450  -20.8829  -15.2054 N   0  0  0  0  0  0  0  0  0  0  0  0
   24.0064  -20.3884  -14.0627 C   0  0  1  0  0  0  0  0  0  0  0  0
   22.5708  -20.8384  -14.1894 C   0  0  0  0  0  0  0  0  0  0  0  0
   21.6850  -20.3243  -13.1438 C   0  0  0  0  0  0  0  0  0  0  0  0
   22.1115  -19.4836  -12.3135 O   0  0  0  0  0  0  0  0  0  0  0  0
   24.5690  -21.0337  -12.8297 C   0  0  0  0  0  0  0  0  0  0  0  0
   24.9089  -22.2399  -12.7951 O   0  0  0  0  0  0  0  0  0  0  0  0
   20.3574  -20.7469  -13.0394 O   0  0  0  0  0  0  0  0  0  0  0  0
   28.2736  -19.5984   -5.9471 C   0  0  0  0  0  0  0  0  0  0  0  0
   27.6353  -19.0685   -7.5270 S   0  0  0  0  0  0  0  0  0  0  0  0
   26.5503  -20.1991   -8.3640 C   0  0  0  0  0  0  0  0  0  0  0  0
   26.1602  -19.8421   -9.7623 C   0  0  0  0  0  0  0  0  0  0  0  0
   25.2128  -20.8032  -10.3859 C   0  0  2  0  0  0  0  0  0  0  0  0
   24.7184  -20.2566  -11.6769 N   0  0  0  0  0  0  0  0  0  0  0  0
   24.0017  -20.9075   -9.5540 C   0  0  0  0  0  0  0  0  0  0  0  0
   23.9875  -21.6797   -8.4151 O   0  0  0  0  0  0  0  0  0  0  0  0
   22.9626  -20.3055   -9.8531 O   0  0  0  0  0  0  0  0  0  0  0  0
  1  2  1  0
  3  4  1  1
  3  2  1  0
  5  7  1  0
  5  3  1  0
  5  6  1  6
  7  8  2  0
  9 10  1  0
  9  7  1  0
 10 11  1  6
 12 16  1  0
 12 11  1  0
 13 12  2  0
 14 22  1  0
 14 10  1  0
 15 14  2  0
 18 17  1  0
 19 18  1  0
 21 20  1  1
 20 19  1  0
 21 22  1  0
 23 21  1  0
 23 24  1  0
 25 23  2  0
M  END
$$$$
