IDM.pdb
     RDKit          3D

 25 24  0  0  1  0  0  0  0  0999 V2000
   21.6176  -14.1699  -21.0734 C   0  0  0  0  0  0  0  0  0  0  0  0
   21.8272  -13.8404  -19.6139 C   0  0  0  0  0  0  0  0  0  0  0  0
   21.6027  -12.3977  -19.2810 C   0  0  2  0  0  0  0  0  0  0  0  0
   22.4951  -11.5060  -20.1204 C   0  0  0  0  0  0  0  0  0  0  0  0
   21.7670  -12.0508  -17.8430 C   0  0  2  0  0  0  0  0  0  0  0  0
   21.1759  -13.0436  -16.9718 N   0  0  0  0  0  0  0  0  0  0  0  0
   21.3831  -10.6790  -17.4896 C   0  0  0  0  0  0  0  0  0  0  0  0
   21.9278   -9.7137  -18.0831 O   0  0  0  0  0  0  0  0  0  0  0  0
   20.4051  -10.3653  -16.4846 N   0  0  0  0  0  0  0  0  0  0  0  0
   19.9629   -9.0034  -16.2710 C   0  0  1  0  0  0  0  0  0  0  0  0
   18.7651   -9.0275  -15.3522 C   0  0  0  0  0  0  0  0  0  0  0  0
   18.2263   -7.7049  -15.0318 C   0  0  0  0  0  0  0  0  0  0  0  0
   18.2220   -6.7984  -15.9015 O   0  0  0  0  0  0  0  0  0  0  0  0
   21.0577   -8.2647  -15.5575 C   0  0  0  0  0  0  0  0  0  0  0  0
   21.6782   -8.7540  -14.5843 O   0  0  0  0  0  0  0  0  0  0  0  0
   17.7079   -7.4150  -13.7673 O   0  0  0  0  0  0  0  0  0  0  0  0
   26.7814   -2.9693  -16.9388 C   0  0  0  0  0  0  0  0  0  0  0  0
   25.3081   -3.8449  -17.4358 S   0  0  0  0  0  0  0  0  0  0  0  0
   24.4456   -4.7335  -16.1619 C   0  0  0  0  0  0  0  0  0  0  0  0
   23.2724   -5.5533  -16.5940 C   0  0  0  0  0  0  0  0  0  0  0  0
   22.5611   -6.2220  -15.4729 C   0  0  2  0  0  0  0  0  0  0  0  0
   21.3959   -6.9814  -15.9979 N   0  0  0  0  0  0  0  0  0  0  0  0
   21.9587   -5.2026  -14.5968 C   0  0  0  0  0  0  0  0  0  0  0  0
   20.6889   -4.7266  -14.8307 O   0  0  0  0  0  0  0  0  0  0  0  0
   22.5745   -4.7441  -13.6262 O   0  0  0  0  0  0  0  0  0  0  0  0
  1  2  1  0
  3  4  1  6
  3  2  1  0
  5  7  1  0
  5  3  1  0
  5  6  1  1
  7  8  2  0
  9 10  1  0
  9  7  1  0
 10 11  1  1
 12 16  1  0
 12 11  1  0
 13 12  2  0
 14 22  1  0
 14 10  1  0
 15 14  2  0
 18 17  1  0
 19 18  1  0
 21 20  1  6
 20 19  1  0
 21 22  1  0
 23 21  1  0
 23 24  1  0
 25 23  2  0
M  END
$$$$
