IDM.pdb
     RDKit          3D

 25 24  0  0  1  0  0  0  0  0999 V2000
   17.7279  -14.6653  -16.2463 C   0  0  0  0  0  0  0  0  0  0  0  0
   16.8116  -13.4664  -16.3213 C   0  0  0  0  0  0  0  0  0  0  0  0
   17.5335  -12.1556  -16.3771 C   0  0  2  0  0  0  0  0  0  0  0  0
   18.4824  -12.0129  -15.2043 C   0  0  0  0  0  0  0  0  0  0  0  0
   16.6553  -10.9563  -16.4529 C   0  0  2  0  0  0  0  0  0  0  0  0
   15.6308  -11.0940  -17.4655 N   0  0  0  0  0  0  0  0  0  0  0  0
   17.3647   -9.6737  -16.5282 C   0  0  0  0  0  0  0  0  0  0  0  0
   18.0476   -9.4054  -17.5492 O   0  0  0  0  0  0  0  0  0  0  0  0
   17.3281   -8.6869  -15.4841 N   0  0  0  0  0  0  0  0  0  0  0  0
   18.0415   -7.4339  -15.6143 C   0  0  1  0  0  0  0  0  0  0  0  0
   17.1549   -6.3232  -15.1047 C   0  0  0  0  0  0  0  0  0  0  0  0
   15.9988   -6.0381  -15.9558 C   0  0  0  0  0  0  0  0  0  0  0  0
   16.1417   -5.9362  -17.1997 O   0  0  0  0  0  0  0  0  0  0  0  0
   19.2461   -7.4888  -14.7204 C   0  0  0  0  0  0  0  0  0  0  0  0
   19.1929   -7.9140  -13.5423 O   0  0  0  0  0  0  0  0  0  0  0  0
   14.7199   -5.8733  -15.4181 O   0  0  0  0  0  0  0  0  0  0  0  0
   26.5719   -9.8001  -14.1292 C   0  0  0  0  0  0  0  0  0  0  0  0
   25.0909   -9.4719  -15.0690 S   0  0  0  0  0  0  0  0  0  0  0  0
   23.9350   -8.3276  -14.3541 C   0  0  0  0  0  0  0  0  0  0  0  0
   22.6534   -8.1193  -15.0951 C   0  0  0  0  0  0  0  0  0  0  0  0
   21.7446   -7.1304  -14.4578 C   0  0  2  0  0  0  0  0  0  0  0  0
   20.4736   -7.0479  -15.2244 N   0  0  0  0  0  0  0  0  0  0  0  0
   22.3245   -5.7819  -14.5798 C   0  0  0  0  0  0  0  0  0  0  0  0
   23.1365   -5.2669  -13.5954 O   0  0  0  0  0  0  0  0  0  0  0  0
   22.0997   -5.0726  -15.5687 O   0  0  0  0  0  0  0  0  0  0  0  0
  1  2  1  0
  3  4  1  1
  3  2  1  0
  5  7  1  0
  5  3  1  0
  5  6  1  6
  7  8  2  0
  9 10  1  0
  9  7  1  0
 10 11  1  1
 12 16  1  0
 12 11  1  0
 13 12  2  0
 14 22  1  0
 14 10  1  0
 15 14  2  0
 18 17  1  0
 19 18  1  0
 21 20  1  6
 20 19  1  0
 21 22  1  0
 23 21  1  0
 23 24  1  0
 25 23  2  0
M  END
$$$$
