IDM.pdb
     RDKit          3D

 25 24  0  0  1  0  0  0  0  0999 V2000
   25.2207  -14.5372  -15.0872 C   0  0  0  0  0  0  0  0  0  0  0  0
   24.5841  -14.3886  -16.4492 C   0  0  0  0  0  0  0  0  0  0  0  0
   23.9828  -13.0387  -16.6921 C   0  0  2  0  0  0  0  0  0  0  0  0
   24.7216  -11.9714  -15.9102 C   0  0  0  0  0  0  0  0  0  0  0  0
   22.5247  -12.9394  -16.4104 C   0  0  2  0  0  0  0  0  0  0  0  0
   21.7737  -14.0025  -17.0430 N   0  0  0  0  0  0  0  0  0  0  0  0
   21.9396  -11.6128  -16.6376 C   0  0  0  0  0  0  0  0  0  0  0  0
   21.9328  -11.1322  -17.7994 O   0  0  0  0  0  0  0  0  0  0  0  0
   21.3648  -10.8121  -15.5918 N   0  0  0  0  0  0  0  0  0  0  0  0
   20.8398   -9.4908  -15.8645 C   0  0  1  0  0  0  0  0  0  0  0  0
   19.4088   -9.4361  -15.3865 C   0  0  0  0  0  0  0  0  0  0  0  0
   18.7625   -8.1359  -15.5708 C   0  0  0  0  0  0  0  0  0  0  0  0
   19.0276   -7.4378  -16.5811 O   0  0  0  0  0  0  0  0  0  0  0  0
   21.6208   -8.5019  -15.0487 C   0  0  0  0  0  0  0  0  0  0  0  0
   21.8762   -8.6816  -13.8346 O   0  0  0  0  0  0  0  0  0  0  0  0
   17.8444   -7.6393  -14.6422 O   0  0  0  0  0  0  0  0  0  0  0  0
   23.4234   -4.1208  -19.3518 C   0  0  0  0  0  0  0  0  0  0  0  0
   22.8534   -3.3615  -17.8409 S   0  0  0  0  0  0  0  0  0  0  0  0
   22.3827   -4.4623  -16.5283 C   0  0  0  0  0  0  0  0  0  0  0  0
   23.4530   -5.3538  -15.9855 C   0  0  0  0  0  0  0  0  0  0  0  0
   22.9620   -6.3483  -14.9956 C   0  0  2  0  0  0  0  0  0  0  0  0
   22.0796   -7.3364  -15.6701 N   0  0  0  0  0  0  0  0  0  0  0  0
   22.0763   -5.6798  -14.0270 C   0  0  0  0  0  0  0  0  0  0  0  0
   22.5910   -4.9248  -12.9981 O   0  0  0  0  0  0  0  0  0  0  0  0
   20.8452   -5.7763  -14.1087 O   0  0  0  0  0  0  0  0  0  0  0  0
  1  2  1  0
  3  4  1  1
  3  2  1  0
  5  7  1  0
  5  3  1  0
  5  6  1  6
  7  8  2  0
  9 10  1  0
  9  7  1  0
 10 11  1  1
 12 16  1  0
 12 11  1  0
 13 12  2  0
 14 22  1  0
 14 10  1  0
 15 14  2  0
 18 17  1  0
 19 18  1  0
 21 20  1  6
 20 19  1  0
 21 22  1  0
 23 21  1  0
 23 24  1  0
 25 23  2  0
M  END
$$$$
