IDM.pdb
     RDKit          3D

 25 24  0  0  1  0  0  0  0  0999 V2000
   18.8216  -16.5270  -16.1397 C   0  0  0  0  0  0  0  0  0  0  0  0
   17.7952  -15.4341  -16.3253 C   0  0  0  0  0  0  0  0  0  0  0  0
   18.3857  -14.0628  -16.4417 C   0  0  2  0  0  0  0  0  0  0  0  0
   19.2236  -13.7320  -15.2233 C   0  0  0  0  0  0  0  0  0  0  0  0
   17.4012  -12.9717  -16.6774 C   0  0  2  0  0  0  0  0  0  0  0  0
   16.4723  -13.2955  -17.7387 N   0  0  0  0  0  0  0  0  0  0  0  0
   17.9840  -11.6320  -16.8168 C   0  0  0  0  0  0  0  0  0  0  0  0
   18.8473  -11.4243  -17.7070 O   0  0  0  0  0  0  0  0  0  0  0  0
   17.6230  -10.5213  -15.9794 N   0  0  0  0  0  0  0  0  0  0  0  0
   18.2298   -9.2195  -16.1615 C   0  0  1  0  0  0  0  0  0  0  0  0
   17.3196   -8.1782  -15.5560 C   0  0  0  0  0  0  0  0  0  0  0  0
   17.8219   -6.8073  -15.6590 C   0  0  0  0  0  0  0  0  0  0  0  0
   18.4373   -6.4373  -16.6898 O   0  0  0  0  0  0  0  0  0  0  0  0
   19.5156   -9.1925  -15.3874 C   0  0  0  0  0  0  0  0  0  0  0  0
   19.6086   -9.6367  -14.2188 O   0  0  0  0  0  0  0  0  0  0  0  0
   17.6346   -5.8823  -14.6289 O   0  0  0  0  0  0  0  0  0  0  0  0
   26.9210  -11.0687  -15.1234 C   0  0  0  0  0  0  0  0  0  0  0  0
   25.3394  -10.9382  -15.9392 S   0  0  0  0  0  0  0  0  0  0  0  0
   24.2525   -9.6565  -15.3625 C   0  0  0  0  0  0  0  0  0  0  0  0
   22.8753   -9.6345  -15.9435 C   0  0  0  0  0  0  0  0  0  0  0  0
   21.9847   -8.6087  -15.3398 C   0  0  2  0  0  0  0  0  0  0  0  0
   20.6516   -8.6503  -15.9962 N   0  0  0  0  0  0  0  0  0  0  0  0
   22.4984   -7.2652  -15.6574 C   0  0  0  0  0  0  0  0  0  0  0  0
   23.5070   -6.6969  -14.9136 O   0  0  0  0  0  0  0  0  0  0  0  0
   22.0397   -6.6081  -16.6006 O   0  0  0  0  0  0  0  0  0  0  0  0
  1  2  1  0
  3  4  1  1
  3  2  1  0
  5  7  1  0
  5  3  1  0
  5  6  1  6
  7  8  2  0
  9 10  1  0
  9  7  1  0
 10 11  1  1
 12 16  1  0
 12 11  1  0
 13 12  2  0
 14 22  1  0
 14 10  1  0
 15 14  2  0
 18 17  1  0
 19 18  1  0
 21 20  1  6
 20 19  1  0
 21 22  1  0
 23 21  1  0
 23 24  1  0
 25 23  2  0
M  END
$$$$
