IDM.pdb
     RDKit          3D

 25 24  0  0  1  0  0  0  0  0999 V2000
   12.7319  -13.8910  -14.3670 C   0  0  0  0  0  0  0  0  0  0  0  0
   14.0066  -13.2762  -14.8957 C   0  0  0  0  0  0  0  0  0  0  0  0
   14.7049  -12.3902  -13.9108 C   0  0  2  0  0  0  0  0  0  0  0  0
   13.7798  -11.2942  -13.4219 C   0  0  0  0  0  0  0  0  0  0  0  0
   15.9750  -11.7861  -14.3979 C   0  0  2  0  0  0  0  0  0  0  0  0
   16.8968  -12.7836  -14.8971 N   0  0  0  0  0  0  0  0  0  0  0  0
   16.6049  -10.8385  -13.4710 C   0  0  0  0  0  0  0  0  0  0  0  0
   17.4943  -11.2466  -12.6815 O   0  0  0  0  0  0  0  0  0  0  0  0
   16.2585   -9.4453  -13.4072 N   0  0  0  0  0  0  0  0  0  0  0  0
   16.9831   -8.5333  -12.5476 C   0  0  1  0  0  0  0  0  0  0  0  0
   17.8937   -7.6882  -13.4055 C   0  0  0  0  0  0  0  0  0  0  0  0
   18.6750   -6.6998  -12.6607 C   0  0  0  0  0  0  0  0  0  0  0  0
   19.1745   -6.9998  -11.5478 O   0  0  0  0  0  0  0  0  0  0  0  0
   15.9893   -7.6086  -11.9066 C   0  0  0  0  0  0  0  0  0  0  0  0
   15.0914   -7.0264  -12.5594 O   0  0  0  0  0  0  0  0  0  0  0  0
   18.8859   -5.4114  -13.1582 O   0  0  0  0  0  0  0  0  0  0  0  0
   13.0181   -5.5625   -4.7580 C   0  0  0  0  0  0  0  0  0  0  0  0
   14.0214   -6.6113   -5.7960 S   0  0  0  0  0  0  0  0  0  0  0  0
   14.1672   -6.1342   -7.5012 C   0  0  0  0  0  0  0  0  0  0  0  0
   15.0180   -7.0040   -8.3697 C   0  0  0  0  0  0  0  0  0  0  0  0
   15.1069   -6.5418   -9.7799 C   0  0  2  0  0  0  0  0  0  0  0  0
   16.0713   -7.3906  -10.5279 N   0  0  0  0  0  0  0  0  0  0  0  0
   15.7083   -5.1977   -9.8182 C   0  0  0  0  0  0  0  0  0  0  0  0
   14.9501   -4.0740   -9.5817 O   0  0  0  0  0  0  0  0  0  0  0  0
   16.9108   -5.0383  -10.0637 O   0  0  0  0  0  0  0  0  0  0  0  0
  1  2  1  0
  3  4  1  6
  3  2  1  0
  5  7  1  0
  5  3  1  0
  5  6  1  1
  7  8  2  0
  9 10  1  0
  9  7  1  0
 10 11  1  6
 12 16  1  0
 12 11  1  0
 13 12  2  0
 14 22  1  0
 14 10  1  0
 15 14  2  0
 18 17  1  0
 19 18  1  0
 21 20  1  1
 20 19  1  0
 21 22  1  0
 23 21  1  0
 23 24  1  0
 25 23  2  0
M  END
$$$$
