IDM.pdb
     RDKit          3D

 25 24  0  0  1  0  0  0  0  0999 V2000
   13.6776  -12.8466  -16.1495 C   0  0  0  0  0  0  0  0  0  0  0  0
   15.1085  -12.8367  -16.6340 C   0  0  0  0  0  0  0  0  0  0  0  0
   15.9964  -11.8960  -15.8794 C   0  0  2  0  0  0  0  0  0  0  0  0
   15.4821  -10.4740  -15.9780 C   0  0  0  0  0  0  0  0  0  0  0  0
   17.4313  -11.9325  -16.2732 C   0  0  2  0  0  0  0  0  0  0  0  0
   17.9771  -13.2717  -16.2201 N   0  0  0  0  0  0  0  0  0  0  0  0
   18.2820  -10.9415  -15.6040 C   0  0  0  0  0  0  0  0  0  0  0  0
   19.0142  -11.3022  -14.6477 O   0  0  0  0  0  0  0  0  0  0  0  0
   18.3284   -9.5555  -15.9807 N   0  0  0  0  0  0  0  0  0  0  0  0
   19.2492   -8.6379  -15.3435 C   0  0  1  0  0  0  0  0  0  0  0  0
   20.6403   -9.2181  -15.4306 C   0  0  0  0  0  0  0  0  0  0  0  0
   21.6961   -8.3229  -14.9550 C   0  0  0  0  0  0  0  0  0  0  0  0
   21.6143   -7.8017  -13.8149 O   0  0  0  0  0  0  0  0  0  0  0  0
   19.2496   -7.3583  -16.1284 C   0  0  0  0  0  0  0  0  0  0  0  0
   19.3534   -7.3335  -17.3775 O   0  0  0  0  0  0  0  0  0  0  0  0
   22.8106   -8.0256  -15.7432 O   0  0  0  0  0  0  0  0  0  0  0  0
   17.0155    0.2832  -15.8062 C   0  0  0  0  0  0  0  0  0  0  0  0
   17.2172   -1.3120  -15.0324 S   0  0  0  0  0  0  0  0  0  0  0  0
   18.1759   -2.5117  -15.9259 C   0  0  0  0  0  0  0  0  0  0  0  0
   18.2972   -3.8673  -15.3073 C   0  0  0  0  0  0  0  0  0  0  0  0
   19.1008   -4.8251  -16.1117 C   0  0  2  0  0  0  0  0  0  0  0  0
   19.1293   -6.1493  -15.4366 N   0  0  0  0  0  0  0  0  0  0  0  0
   20.5101   -4.3969  -16.1197 C   0  0  0  0  0  0  0  0  0  0  0  0
   20.9890   -3.5504  -17.0931 O   0  0  0  0  0  0  0  0  0  0  0  0
   21.3046   -4.7844  -15.2536 O   0  0  0  0  0  0  0  0  0  0  0  0
  1  2  1  0
  3  4  1  6
  3  2  1  0
  5  7  1  0
  5  3  1  0
  5  6  1  1
  7  8  2  0
  9 10  1  0
  9  7  1  0
 10 11  1  6
 12 16  1  0
 12 11  1  0
 13 12  2  0
 14 22  1  0
 14 10  1  0
 15 14  2  0
 18 17  1  0
 19 18  1  0
 21 20  1  1
 20 19  1  0
 21 22  1  0
 23 21  1  0
 23 24  1  0
 25 23  2  0
M  END
$$$$
