IDM.pdb
     RDKit          3D

 25 24  0  0  1  0  0  0  0  0999 V2000
   30.0750  -20.2653  -16.4384 C   0  0  0  0  0  0  0  0  0  0  0  0
   28.5727  -20.1150  -16.3853 C   0  0  0  0  0  0  0  0  0  0  0  0
   28.0419  -19.8218  -15.0159 C   0  0  2  0  0  0  0  0  0  0  0  0
   28.5703  -20.8222  -14.0079 C   0  0  0  0  0  0  0  0  0  0  0  0
   26.5583  -19.7551  -14.9171 C   0  0  2  0  0  0  0  0  0  0  0  0
   25.9867  -18.8559  -15.8963 N   0  0  0  0  0  0  0  0  0  0  0  0
   26.0379  -19.5315  -13.5632 C   0  0  0  0  0  0  0  0  0  0  0  0
   26.2113  -18.4147  -13.0122 O   0  0  0  0  0  0  0  0  0  0  0  0
   25.3302  -20.5319  -12.8125 N   0  0  0  0  0  0  0  0  0  0  0  0
   24.7462  -20.2256  -11.5237 C   0  0  1  0  0  0  0  0  0  0  0  0
   23.3320  -20.7539  -11.5012 C   0  0  0  0  0  0  0  0  0  0  0  0
   22.3982  -20.0086  -12.3467 C   0  0  0  0  0  0  0  0  0  0  0  0
   22.2496  -18.7719  -12.1835 O   0  0  0  0  0  0  0  0  0  0  0  0
   25.5176  -20.9713  -10.4738 C   0  0  0  0  0  0  0  0  0  0  0  0
   25.8225  -22.1814  -10.5931 O   0  0  0  0  0  0  0  0  0  0  0  0
   21.6548  -20.6411  -13.3463 O   0  0  0  0  0  0  0  0  0  0  0  0
   29.0593  -17.8057   -5.6968 C   0  0  0  0  0  0  0  0  0  0  0  0
   28.7734  -19.4405   -5.0410 S   0  0  0  0  0  0  0  0  0  0  0  0
   27.7806  -20.5305   -6.0323 C   0  0  0  0  0  0  0  0  0  0  0  0
   27.2524  -19.9742   -7.3154 C   0  0  0  0  0  0  0  0  0  0  0  0
   26.5020  -20.9619   -8.1349 C   0  0  2  0  0  0  0  0  0  0  0  0
   25.9097  -20.2867   -9.3195 N   0  0  0  0  0  0  0  0  0  0  0  0
   25.3347  -21.4427   -7.3760 C   0  0  0  0  0  0  0  0  0  0  0  0
   25.4612  -22.4392   -6.4355 O   0  0  0  0  0  0  0  0  0  0  0  0
   24.2075  -20.9665   -7.5606 O   0  0  0  0  0  0  0  0  0  0  0  0
  1  2  1  0
  3  4  1  1
  3  2  1  0
  5  7  1  0
  5  3  1  0
  5  6  1  6
  7  8  2  0
  9 10  1  0
  9  7  1  0
 10 11  1  6
 12 16  1  0
 12 11  1  0
 13 12  2  0
 14 22  1  0
 14 10  1  0
 15 14  2  0
 18 17  1  0
 19 18  1  0
 21 20  1  1
 20 19  1  0
 21 22  1  0
 23 21  1  0
 23 24  1  0
 25 23  2  0
M  END
$$$$
