IDM.pdb
     RDKit          3D

 25 24  0  0  1  0  0  0  0  0999 V2000
   17.2341  -16.0992  -15.2095 C   0  0  0  0  0  0  0  0  0  0  0  0
   16.4867  -14.9963  -15.9220 C   0  0  0  0  0  0  0  0  0  0  0  0
   17.3460  -13.8298  -16.3008 C   0  0  2  0  0  0  0  0  0  0  0  0
   18.0370  -13.2517  -15.0824 C   0  0  0  0  0  0  0  0  0  0  0  0
   16.6429  -12.7423  -17.0345 C   0  0  2  0  0  0  0  0  0  0  0  0
   15.9257  -13.2389  -18.1891 N   0  0  0  0  0  0  0  0  0  0  0  0
   17.4671  -11.5660  -17.3361 C   0  0  0  0  0  0  0  0  0  0  0  0
   18.3469  -11.6422  -18.2311 O   0  0  0  0  0  0  0  0  0  0  0  0
   17.3293  -10.3079  -16.6553 N   0  0  0  0  0  0  0  0  0  0  0  0
   18.2636   -9.2264  -16.8865 C   0  0  1  0  0  0  0  0  0  0  0  0
   17.5358   -7.9169  -16.6995 C   0  0  0  0  0  0  0  0  0  0  0  0
   18.3454   -6.7324  -16.9887 C   0  0  0  0  0  0  0  0  0  0  0  0
   17.8159   -5.5933  -16.9955 O   0  0  0  0  0  0  0  0  0  0  0  0
   19.3298   -9.2987  -15.8322 C   0  0  0  0  0  0  0  0  0  0  0  0
   19.0651   -9.4143  -14.6123 O   0  0  0  0  0  0  0  0  0  0  0  0
   19.7120   -6.8316  -17.2618 O   0  0  0  0  0  0  0  0  0  0  0  0
   27.0741  -11.0160  -14.9131 C   0  0  0  0  0  0  0  0  0  0  0  0
   25.6773  -10.6703  -15.9684 S   0  0  0  0  0  0  0  0  0  0  0  0
   24.2207  -10.0350  -15.1739 C   0  0  0  0  0  0  0  0  0  0  0  0
   22.9927   -9.9207  -16.0188 C   0  0  0  0  0  0  0  0  0  0  0  0
   21.8060   -9.4041  -15.2875 C   0  0  2  0  0  0  0  0  0  0  0  0
   20.6688   -9.2344  -16.2297 N   0  0  0  0  0  0  0  0  0  0  0  0
   22.0813   -8.0385  -14.8089 C   0  0  0  0  0  0  0  0  0  0  0  0
   22.0985   -7.7479  -13.4639 O   0  0  0  0  0  0  0  0  0  0  0  0
   22.3048   -7.1131  -15.5996 O   0  0  0  0  0  0  0  0  0  0  0  0
  1  2  1  0
  3  4  1  1
  3  2  1  0
  5  7  1  0
  5  3  1  0
  5  6  1  6
  7  8  2  0
  9 10  1  0
  9  7  1  0
 10 11  1  1
 12 16  1  0
 12 11  1  0
 13 12  2  0
 14 22  1  0
 14 10  1  0
 15 14  2  0
 18 17  1  0
 19 18  1  0
 21 20  1  6
 20 19  1  0
 21 22  1  0
 23 21  1  0
 23 24  1  0
 25 23  2  0
M  END
$$$$
