IDM.pdb
     RDKit          3D

 25 24  0  0  1  0  0  0  0  0999 V2000
   29.9447  -17.3264  -17.1272 C   0  0  0  0  0  0  0  0  0  0  0  0
   28.6305  -18.0520  -17.2972 C   0  0  0  0  0  0  0  0  0  0  0  0
   27.8344  -18.1659  -16.0339 C   0  0  2  0  0  0  0  0  0  0  0  0
   28.6065  -18.9304  -14.9778 C   0  0  0  0  0  0  0  0  0  0  0  0
   26.4831  -18.7691  -16.1939 C   0  0  2  0  0  0  0  0  0  0  0  0
   25.7439  -18.1692  -17.2837 N   0  0  0  0  0  0  0  0  0  0  0  0
   25.6991  -18.8675  -14.9572 C   0  0  0  0  0  0  0  0  0  0  0  0
   25.2409  -17.8210  -14.4323 O   0  0  0  0  0  0  0  0  0  0  0  0
   25.4198  -20.1118  -14.2946 N   0  0  0  0  0  0  0  0  0  0  0  0
   24.5991  -20.1563  -13.1027 C   0  0  1  0  0  0  0  0  0  0  0  0
   23.3605  -20.9652  -13.4043 C   0  0  0  0  0  0  0  0  0  0  0  0
   22.2859  -20.8078  -12.4232 C   0  0  0  0  0  0  0  0  0  0  0  0
   22.3824  -19.9445  -11.5157 O   0  0  0  0  0  0  0  0  0  0  0  0
   25.3628  -20.8898  -12.0386 C   0  0  0  0  0  0  0  0  0  0  0  0
   25.4999  -22.1359  -12.0446 O   0  0  0  0  0  0  0  0  0  0  0  0
   21.1369  -21.6014  -12.4660 O   0  0  0  0  0  0  0  0  0  0  0  0
   29.6409  -19.2736   -6.0024 C   0  0  0  0  0  0  0  0  0  0  0  0
   27.9084  -18.9805   -6.3133 S   0  0  0  0  0  0  0  0  0  0  0  0
   27.0892  -20.1332   -7.3887 C   0  0  0  0  0  0  0  0  0  0  0  0
   26.8461  -19.6825   -8.7932 C   0  0  0  0  0  0  0  0  0  0  0  0
   26.2302  -20.7217   -9.6597 C   0  0  2  0  0  0  0  0  0  0  0  0
   25.9422  -20.1516  -11.0021 N   0  0  0  0  0  0  0  0  0  0  0  0
   24.9029  -21.0782   -9.1300 C   0  0  0  0  0  0  0  0  0  0  0  0
   24.7463  -22.1312   -8.2581 O   0  0  0  0  0  0  0  0  0  0  0  0
   23.8905  -20.4434   -9.4519 O   0  0  0  0  0  0  0  0  0  0  0  0
  1  2  1  0
  3  4  1  1
  3  2  1  0
  5  7  1  0
  5  3  1  0
  5  6  1  6
  7  8  2  0
  9 10  1  0
  9  7  1  0
 10 11  1  6
 12 16  1  0
 12 11  1  0
 13 12  2  0
 14 22  1  0
 14 10  1  0
 15 14  2  0
 18 17  1  0
 19 18  1  0
 21 20  1  1
 20 19  1  0
 21 22  1  0
 23 21  1  0
 23 24  1  0
 25 23  2  0
M  END
$$$$
