IDM.pdb
     RDKit          3D

 25 24  0  0  1  0  0  0  0  0999 V2000
   26.0449  -25.1104  -17.5956 C   0  0  0  0  0  0  0  0  0  0  0  0
   27.2020  -25.6121  -16.7637 C   0  0  0  0  0  0  0  0  0  0  0  0
   28.0265  -26.6610  -17.4440 C   0  0  2  0  0  0  0  0  0  0  0  0
   27.1697  -27.8462  -17.8407 C   0  0  0  0  0  0  0  0  0  0  0  0
   29.2034  -27.1379  -16.6676 C   0  0  2  0  0  0  0  0  0  0  0  0
   30.0885  -26.0541  -16.2987 N   0  0  0  0  0  0  0  0  0  0  0  0
   29.9124  -28.2794  -17.2576 C   0  0  0  0  0  0  0  0  0  0  0  0
   30.5779  -28.1145  -18.3115 O   0  0  0  0  0  0  0  0  0  0  0  0
   29.8900  -29.6013  -16.6945 N   0  0  0  0  0  0  0  0  0  0  0  0
   30.6109  -30.6916  -17.3171 C   0  0  1  0  0  0  0  0  0  0  0  0
   31.4186  -31.3993  -16.2559 C   0  0  0  0  0  0  0  0  0  0  0  0
   32.3112  -32.4379  -16.7724 C   0  0  0  0  0  0  0  0  0  0  0  0
   33.0411  -32.2039  -17.7677 O   0  0  0  0  0  0  0  0  0  0  0  0
   29.6055  -31.6749  -17.8423 C   0  0  0  0  0  0  0  0  0  0  0  0
   28.3773  -31.5705  -17.6140 O   0  0  0  0  0  0  0  0  0  0  0  0
   32.3775  -33.7025  -16.1823 O   0  0  0  0  0  0  0  0  0  0  0  0
   24.6061  -33.2946  -22.2447 C   0  0  0  0  0  0  0  0  0  0  0  0
   26.3772  -33.4901  -22.1483 S   0  0  0  0  0  0  0  0  0  0  0  0
   27.1381  -33.0740  -20.5977 C   0  0  0  0  0  0  0  0  0  0  0  0
   28.6293  -33.1610  -20.5387 C   0  0  0  0  0  0  0  0  0  0  0  0
   29.1484  -33.7257  -19.2653 C   0  0  2  0  0  0  0  0  0  0  0  0
   30.0600  -32.7475  -18.6156 N   0  0  0  0  0  0  0  0  0  0  0  0
   30.0134  -34.8814  -19.5580 C   0  0  0  0  0  0  0  0  0  0  0  0
   29.5037  -36.1592  -19.5901 O   0  0  0  0  0  0  0  0  0  0  0  0
   31.2219  -34.7391  -19.7834 O   0  0  0  0  0  0  0  0  0  0  0  0
  1  2  1  0
  3  4  1  1
  3  2  1  0
  5  7  1  0
  5  3  1  0
  5  6  1  6
  7  8  2  0
  9 10  1  0
  9  7  1  0
 10 11  1  1
 12 16  1  0
 12 11  1  0
 13 12  2  0
 14 22  1  0
 14 10  1  0
 15 14  2  0
 18 17  1  0
 19 18  1  0
 21 20  1  6
 20 19  1  0
 21 22  1  0
 23 21  1  0
 23 24  1  0
 25 23  2  0
M  END
$$$$
