IDM.pdb
     RDKit          3D

 25 24  0  0  1  0  0  0  0  0999 V2000
   27.8419  -17.7542  -17.7433 C   0  0  0  0  0  0  0  0  0  0  0  0
   28.2120  -18.6814  -16.6094 C   0  0  0  0  0  0  0  0  0  0  0  0
   27.0320  -19.2675  -15.8974 C   0  0  2  0  0  0  0  0  0  0  0  0
   26.1153  -18.1754  -15.3845 C   0  0  0  0  0  0  0  0  0  0  0  0
   27.3668  -20.1970  -14.7841 C   0  0  2  0  0  0  0  0  0  0  0  0
   28.3462  -21.1874  -15.1767 N   0  0  0  0  0  0  0  0  0  0  0  0
   26.2093  -20.7795  -14.0951 C   0  0  0  0  0  0  0  0  0  0  0  0
   25.6236  -21.7697  -14.6022 O   0  0  0  0  0  0  0  0  0  0  0  0
   25.6923  -20.2754  -12.8526 N   0  0  0  0  0  0  0  0  0  0  0  0
   24.6193  -20.9556  -12.1584 C   0  0  1  0  0  0  0  0  0  0  0  0
   24.6643  -20.5594  -10.7023 C   0  0  0  0  0  0  0  0  0  0  0  0
   25.7344  -21.2013   -9.9373 C   0  0  0  0  0  0  0  0  0  0  0  0
   25.9705  -20.8392   -8.7578 O   0  0  0  0  0  0  0  0  0  0  0  0
   23.3164  -20.4600  -12.7155 C   0  0  0  0  0  0  0  0  0  0  0  0
   23.0671  -19.2405  -12.8646 O   0  0  0  0  0  0  0  0  0  0  0  0
   26.5142  -22.2214  -10.4880 O   0  0  0  0  0  0  0  0  0  0  0  0
   18.8932  -24.9415  -15.2369 C   0  0  0  0  0  0  0  0  0  0  0  0
   18.0633  -23.3637  -15.3137 S   0  0  0  0  0  0  0  0  0  0  0  0
   18.9426  -21.9714  -14.6469 C   0  0  0  0  0  0  0  0  0  0  0  0
   20.3472  -22.2185  -14.1985 C   0  0  0  0  0  0  0  0  0  0  0  0
   21.0147  -21.0201  -13.6256 C   0  0  2  0  0  0  0  0  0  0  0  0
   22.3456  -21.3974  -13.0811 N   0  0  0  0  0  0  0  0  0  0  0  0
   20.2635  -20.5572  -12.4462 C   0  0  0  0  0  0  0  0  0  0  0  0
   19.2978  -19.5833  -12.5573 O   0  0  0  0  0  0  0  0  0  0  0  0
   20.4774  -21.0288  -11.3221 O   0  0  0  0  0  0  0  0  0  0  0  0
  1  2  1  0
  3  4  1  1
  3  2  1  0
  5  7  1  0
  5  3  1  0
  5  6  1  6
  7  8  2  0
  9 10  1  0
  9  7  1  0
 10 11  1  1
 12 16  1  0
 12 11  1  0
 13 12  2  0
 14 22  1  0
 14 10  1  0
 15 14  2  0
 18 17  1  0
 19 18  1  0
 21 20  1  1
 20 19  1  0
 21 22  1  0
 23 21  1  0
 23 24  1  0
 25 23  2  0
M  END
$$$$
