IDM.pdb
     RDKit          3D

 25 24  0  0  1  0  0  0  0  0999 V2000
   22.2113  -19.0477  -17.2234 C   0  0  0  0  0  0  0  0  0  0  0  0
   22.3064  -20.2450  -16.3069 C   0  0  0  0  0  0  0  0  0  0  0  0
   21.2321  -20.2962  -15.2648 C   0  0  2  0  0  0  0  0  0  0  0  0
   21.2574  -19.0498  -14.4034 C   0  0  0  0  0  0  0  0  0  0  0  0
   21.2583  -21.5021  -14.3927 C   0  0  2  0  0  0  0  0  0  0  0  0
   21.6881  -22.6837  -15.1092 N   0  0  0  0  0  0  0  0  0  0  0  0
   20.0398  -21.7227  -13.6051 C   0  0  0  0  0  0  0  0  0  0  0  0
   19.5746  -20.7826  -12.9119 O   0  0  0  0  0  0  0  0  0  0  0  0
   19.3329  -22.9735  -13.5751 N   0  0  0  0  0  0  0  0  0  0  0  0
   18.1903  -23.1660  -12.7072 C   0  0  1  0  0  0  0  0  0  0  0  0
   17.2421  -24.1348  -13.3718 C   0  0  0  0  0  0  0  0  0  0  0  0
   16.0283  -24.4118  -12.6023 C   0  0  0  0  0  0  0  0  0  0  0  0
   15.2673  -23.4709  -12.2651 O   0  0  0  0  0  0  0  0  0  0  0  0
   18.6714  -23.8111  -11.4400 C   0  0  0  0  0  0  0  0  0  0  0  0
   19.4413  -24.8005  -11.4371 O   0  0  0  0  0  0  0  0  0  0  0  0
   15.6843  -25.7123  -12.2253 O   0  0  0  0  0  0  0  0  0  0  0  0
   21.2581  -19.7389   -8.6606 C   0  0  0  0  0  0  0  0  0  0  0  0
   21.5839  -21.1683   -7.6433 S   0  0  0  0  0  0  0  0  0  0  0  0
   20.7974  -22.6850   -8.1308 C   0  0  0  0  0  0  0  0  0  0  0  0
   19.3028  -22.7021   -8.1075 C   0  0  0  0  0  0  0  0  0  0  0  0
   18.7020  -23.8053   -8.9025 C   0  0  2  0  0  0  0  0  0  0  0  0
   18.2424  -23.2857  -10.2174 N   0  0  0  0  0  0  0  0  0  0  0  0
   17.4654  -24.2648   -8.2472 C   0  0  0  0  0  0  0  0  0  0  0  0
   16.2533  -23.6766   -8.5268 O   0  0  0  0  0  0  0  0  0  0  0  0
   17.4788  -25.1916   -7.4271 O   0  0  0  0  0  0  0  0  0  0  0  0
  1  2  1  0
  3  4  1  1
  3  2  1  0
  5  7  1  0
  5  3  1  0
  5  6  1  6
  7  8  2  0
  9 10  1  0
  9  7  1  0
 10 11  1  6
 12 16  1  0
 12 11  1  0
 13 12  2  0
 14 22  1  0
 14 10  1  0
 15 14  2  0
 18 17  1  0
 19 18  1  0
 21 20  1  1
 20 19  1  0
 21 22  1  0
 23 21  1  0
 23 24  1  0
 25 23  2  0
M  END
$$$$
