IDM.pdb
     RDKit          3D

 25 24  0  0  1  0  0  0  0  0999 V2000
   28.3156  -20.0287   -4.8066 C   0  0  0  0  0  0  0  0  0  0  0  0
   27.0069  -20.0509   -5.5611 C   0  0  0  0  0  0  0  0  0  0  0  0
   27.1672  -20.0805   -7.0498 C   0  0  2  0  0  0  0  0  0  0  0  0
   28.0498  -18.9417   -7.5192 C   0  0  0  0  0  0  0  0  0  0  0  0
   25.8937  -20.0705   -7.8202 C   0  0  2  0  0  0  0  0  0  0  0  0
   24.9577  -21.0637   -7.3389 N   0  0  0  0  0  0  0  0  0  0  0  0
   26.0528  -20.0945   -9.2789 C   0  0  0  0  0  0  0  0  0  0  0  0
   26.7228  -19.1915   -9.8413 O   0  0  0  0  0  0  0  0  0  0  0  0
   25.4756  -21.1059  -10.1211 N   0  0  0  0  0  0  0  0  0  0  0  0
   25.5998  -21.0392  -11.5620 C   0  0  1  0  0  0  0  0  0  0  0  0
   25.7866  -22.4406  -12.0916 C   0  0  0  0  0  0  0  0  0  0  0  0
   26.0293  -22.5112  -13.5333 C   0  0  0  0  0  0  0  0  0  0  0  0
   26.0990  -21.4571  -14.2131 O   0  0  0  0  0  0  0  0  0  0  0  0
   24.3050  -20.5213  -12.1175 C   0  0  0  0  0  0  0  0  0  0  0  0
   23.2032  -20.7138  -11.5513 O   0  0  0  0  0  0  0  0  0  0  0  0
   26.1886  -23.7355  -14.1872 O   0  0  0  0  0  0  0  0  0  0  0  0
   21.2278  -19.4798  -17.6582 C   0  0  0  0  0  0  0  0  0  0  0  0
   21.0094  -18.5792  -16.1332 S   0  0  0  0  0  0  0  0  0  0  0  0
   22.3557  -17.5356  -15.6283 C   0  0  0  0  0  0  0  0  0  0  0  0
   23.5130  -18.2096  -14.9641 C   0  0  0  0  0  0  0  0  0  0  0  0
   23.1178  -19.2065  -13.9345 C   0  0  2  0  0  0  0  0  0  0  0  0
   24.3324  -19.7966  -13.3129 N   0  0  0  0  0  0  0  0  0  0  0  0
   22.4580  -20.3503  -14.5873 C   0  0  0  0  0  0  0  0  0  0  0  0
   21.1680  -20.7043  -14.2646 O   0  0  0  0  0  0  0  0  0  0  0  0
   23.0422  -21.0262  -15.4438 O   0  0  0  0  0  0  0  0  0  0  0  0
  1  2  1  0
  3  4  1  6
  3  2  1  0
  5  7  1  0
  5  3  1  0
  5  6  1  1
  7  8  2  0
  9 10  1  0
  9  7  1  0
 10 11  1  6
 12 16  1  0
 12 11  1  0
 13 12  2  0
 14 22  1  0
 14 10  1  0
 15 14  2  0
 18 17  1  0
 19 18  1  0
 21 20  1  6
 20 19  1  0
 21 22  1  0
 23 21  1  0
 23 24  1  0
 25 23  2  0
M  END
$$$$
