FEH.pdb
     RDKit          3D

 31 32  0  0  1  0  0  0  0  0999 V2000
    6.6210  -15.9146   25.8193 N   0  0  0  0  0  0  0  0  0  0  0  0
    6.7486  -15.7667   24.3820 C   0  0  1  0  0  0  0  0  0  0  0  0
    6.8784  -14.2782   24.0155 C   0  0  0  0  0  0  0  0  0  0  0  0
    6.9238  -13.4101   25.1954 C   0  0  0  0  0  0  0  0  0  0  0  0
    5.8160  -13.2551   25.9838 C   0  0  0  0  0  0  0  0  0  0  0  0
    5.8627  -12.4323   27.0971 C   0  0  0  0  0  0  0  0  0  0  0  0
    7.0343  -11.7828   27.3880 C   0  0  0  0  0  0  0  0  0  0  0  0
    8.1509  -11.9346   26.5997 C   0  0  0  0  0  0  0  0  0  0  0  0
    8.0846  -12.7565   25.4977 C   0  0  0  0  0  0  0  0  0  0  0  0
    8.0348  -16.3725   23.9325 C   0  0  0  0  0  0  0  0  0  0  0  0
    8.6705  -17.0714   24.7616 O   0  0  0  0  0  0  0  0  0  0  0  0
    8.5645  -16.1937   22.6224 N   0  0  0  0  0  0  0  0  0  0  0  0
    9.8039  -16.7878   22.2175 C   0  0  1  0  0  0  0  0  0  0  0  0
   10.0957  -16.7132   20.7467 C   0  0  0  0  0  0  0  0  0  0  0  0
   11.2974  -17.4283   20.2595 C   0  0  0  0  0  0  0  0  0  0  0  0
   11.0709  -18.8735   20.1967 C   0  0  0  0  0  0  0  0  0  0  0  0
   11.8684  -19.6304   20.8069 O   0  0  0  0  0  0  0  0  0  0  0  0
   10.9824  -16.3613   23.0046 C   0  0  0  0  0  0  0  0  0  0  0  0
   11.5297  -15.2477   22.7520 O   0  0  0  0  0  0  0  0  0  0  0  0
   10.0135  -19.4295   19.4916 O   0  0  0  0  0  0  0  0  0  0  0  0
   11.5607  -17.1331   24.0480 N   0  0  0  0  0  0  0  0  0  0  0  0
   12.7714  -16.6496   24.7221 C   0  0  1  0  0  0  0  0  0  0  0  0
   12.7593  -16.9587   26.1754 C   0  0  0  0  0  0  0  0  0  0  0  0
   11.7450  -16.1454   26.8650 C   0  0  0  0  0  0  0  0  0  0  0  0
   11.2051  -14.9345   26.5006 C   0  0  0  0  0  0  0  0  0  0  0  0
   10.3301  -14.5059   27.4194 N   0  0  0  0  0  0  0  0  0  0  0  0
   10.2948  -15.4358   28.3895 C   0  0  0  0  0  0  0  0  0  0  0  0
   11.1456  -16.4257   28.0603 N   0  0  0  0  0  0  0  0  0  0  0  0
   13.9043  -17.3051   24.0556 C   0  0  0  0  0  0  0  0  0  0  0  0
   15.0852  -17.0219   24.3501 O   0  0  0  0  0  0  0  0  0  0  0  0
   13.7313  -18.2666   23.0709 O   0  0  0  0  0  0  0  0  0  0  0  0
  2  1  1  1
  2  3  1  0
  2 10  1  0
  3  4  1  0
  4  9  1  0
  4  5  2  0
  5  6  1  0
  6  7  2  0
  8  7  1  0
  9  8  2  0
 10 11  2  0
 12 13  1  0
 12 10  1  0
 14 15  1  0
 13 14  1  6
 16 20  1  0
 16 15  1  0
 17 16  2  0
 18 13  1  0
 18 21  1  0
 19 18  2  0
 22 21  1  0
 22 23  1  1
 24 23  1  0
 25 24  2  0
 26 25  1  0
 27 26  1  0
 27 28  2  0
 28 24  1  0
 29 22  1  0
 30 29  2  0
 31 29  1  0
M  END
$$$$
