FEH.pdb
     RDKit          3D

 31 32  0  0  1  0  0  0  0  0999 V2000
    6.3674  -15.9808   25.3302 N   0  0  0  0  0  0  0  0  0  0  0  0
    7.2620  -15.3956   24.3497 C   0  0  1  0  0  0  0  0  0  0  0  0
    8.0489  -14.2347   24.9819 C   0  0  0  0  0  0  0  0  0  0  0  0
    7.1844  -13.1210   25.3820 C   0  0  0  0  0  0  0  0  0  0  0  0
    7.7287  -11.9265   25.7689 C   0  0  0  0  0  0  0  0  0  0  0  0
    6.9080  -10.8771   26.1480 C   0  0  0  0  0  0  0  0  0  0  0  0
    5.5499  -11.0615   26.1266 C   0  0  0  0  0  0  0  0  0  0  0  0
    4.9969  -12.2594   25.7386 C   0  0  0  0  0  0  0  0  0  0  0  0
    5.8290  -13.2902   25.3656 C   0  0  0  0  0  0  0  0  0  0  0  0
    8.3072  -16.3907   23.9744 C   0  0  0  0  0  0  0  0  0  0  0  0
    8.4432  -17.3988   24.7126 O   0  0  0  0  0  0  0  0  0  0  0  0
    9.1450  -16.2472   22.8314 N   0  0  0  0  0  0  0  0  0  0  0  0
   10.2962  -17.0751   22.6258 C   0  0  1  0  0  0  0  0  0  0  0  0
   10.8962  -17.0021   21.2516 C   0  0  0  0  0  0  0  0  0  0  0  0
   12.1029  -17.8220   20.9971 C   0  0  0  0  0  0  0  0  0  0  0  0
   12.5337  -17.7205   19.6013 C   0  0  0  0  0  0  0  0  0  0  0  0
   11.7252  -18.0606   18.7002 O   0  0  0  0  0  0  0  0  0  0  0  0
   11.3465  -16.9448   23.6604 C   0  0  0  0  0  0  0  0  0  0  0  0
   12.0973  -15.9251   23.6600 O   0  0  0  0  0  0  0  0  0  0  0  0
   13.7945  -17.2648   19.2446 O   0  0  0  0  0  0  0  0  0  0  0  0
   11.5811  -17.9081   24.6780 N   0  0  0  0  0  0  0  0  0  0  0  0
   11.6884  -17.4747   26.0761 C   0  0  1  0  0  0  0  0  0  0  0  0
   10.5768  -16.5682   26.4638 C   0  0  0  0  0  0  0  0  0  0  0  0
   10.7608  -16.0909   27.8436 C   0  0  0  0  0  0  0  0  0  0  0  0
   11.7451  -16.4070   28.7503 C   0  0  0  0  0  0  0  0  0  0  0  0
   11.5379  -15.7832   29.9171 N   0  0  0  0  0  0  0  0  0  0  0  0
   10.4157  -15.0564   29.7779 C   0  0  0  0  0  0  0  0  0  0  0  0
    9.9435  -15.2383   28.5305 N   0  0  0  0  0  0  0  0  0  0  0  0
   11.6760  -18.6978   26.8892 C   0  0  0  0  0  0  0  0  0  0  0  0
   10.9308  -19.6601   26.6060 O   0  0  0  0  0  0  0  0  0  0  0  0
   12.4822  -18.8545   28.0071 O   0  0  0  0  0  0  0  0  0  0  0  0
  2  1  1  1
  2  3  1  0
  2 10  1  0
  3  4  1  0
  4  9  1  0
  4  5  2  0
  5  6  1  0
  6  7  2  0
  8  7  1  0
  9  8  2  0
 10 11  2  0
 12 13  1  0
 12 10  1  0
 14 15  1  0
 13 14  1  6
 16 20  1  0
 16 15  1  0
 17 16  2  0
 18 13  1  0
 18 21  1  0
 19 18  2  0
 22 21  1  0
 22 23  1  1
 24 23  1  0
 25 24  2  0
 26 25  1  0
 27 26  1  0
 27 28  2  0
 28 24  1  0
 29 22  1  0
 30 29  2  0
 31 29  1  0
M  END
$$$$
