FEH.pdb
     RDKit          3D

 31 32  0  0  1  0  0  0  0  0999 V2000
    5.8954  -16.7931   25.1150 N   0  0  0  0  0  0  0  0  0  0  0  0
    7.0160  -15.9199   24.8221 C   0  0  1  0  0  0  0  0  0  0  0  0
    7.4335  -15.1559   26.0905 C   0  0  0  0  0  0  0  0  0  0  0  0
    7.1642  -13.7185   25.9958 C   0  0  0  0  0  0  0  0  0  0  0  0
    8.0003  -12.9031   25.2823 C   0  0  0  0  0  0  0  0  0  0  0  0
    7.7430  -11.5448   25.1968 C   0  0  0  0  0  0  0  0  0  0  0  0
    6.6411  -11.0409   25.8378 C   0  0  0  0  0  0  0  0  0  0  0  0
    5.7971  -11.8552   26.5562 C   0  0  0  0  0  0  0  0  0  0  0  0
    6.0697  -13.2023   26.6295 C   0  0  0  0  0  0  0  0  0  0  0  0
    8.2100  -16.7432   24.4756 C   0  0  0  0  0  0  0  0  0  0  0  0
    8.4417  -17.7582   25.1798 O   0  0  0  0  0  0  0  0  0  0  0  0
    9.0854  -16.4306   23.3963 N   0  0  0  0  0  0  0  0  0  0  0  0
   10.3078  -17.1459   23.1793 C   0  0  1  0  0  0  0  0  0  0  0  0
   10.9161  -16.9695   21.8181 C   0  0  0  0  0  0  0  0  0  0  0  0
   12.1645  -17.7138   21.5347 C   0  0  0  0  0  0  0  0  0  0  0  0
   12.6401  -17.4616   20.1730 C   0  0  0  0  0  0  0  0  0  0  0  0
   13.7008  -16.8031   20.0229 O   0  0  0  0  0  0  0  0  0  0  0  0
   11.3294  -16.9621   24.2342 C   0  0  0  0  0  0  0  0  0  0  0  0
   11.9079  -15.8418   24.3520 O   0  0  0  0  0  0  0  0  0  0  0  0
   11.9635  -17.9222   19.0529 O   0  0  0  0  0  0  0  0  0  0  0  0
   11.7203  -17.9797   25.1455 N   0  0  0  0  0  0  0  0  0  0  0  0
   12.7546  -17.6974   26.1477 C   0  0  1  0  0  0  0  0  0  0  0  0
   12.2173  -17.7536   27.5319 C   0  0  0  0  0  0  0  0  0  0  0  0
   11.4747  -16.5222   27.8449 C   0  0  0  0  0  0  0  0  0  0  0  0
   11.2468  -15.4188   27.0567 C   0  0  0  0  0  0  0  0  0  0  0  0
   10.5503  -14.4904   27.7247 N   0  0  0  0  0  0  0  0  0  0  0  0
   10.3202  -14.9835   28.9539 C   0  0  0  0  0  0  0  0  0  0  0  0
   10.8752  -16.2074   29.0315 N   0  0  0  0  0  0  0  0  0  0  0  0
   13.8052  -18.7049   25.9513 C   0  0  0  0  0  0  0  0  0  0  0  0
   15.0060  -18.3790   25.8358 O   0  0  0  0  0  0  0  0  0  0  0  0
   13.5287  -20.0625   25.8833 O   0  0  0  0  0  0  0  0  0  0  0  0
  2  1  1  1
  2  3  1  0
  2 10  1  0
  3  4  1  0
  4  9  1  0
  4  5  2  0
  5  6  1  0
  6  7  2  0
  8  7  1  0
  9  8  2  0
 10 11  2  0
 12 13  1  0
 12 10  1  0
 14 15  1  0
 13 14  1  6
 16 20  1  0
 16 15  1  0
 17 16  2  0
 18 13  1  0
 18 21  1  0
 19 18  2  0
 22 21  1  0
 22 23  1  1
 24 23  1  0
 25 24  2  0
 26 25  1  0
 27 26  1  0
 27 28  2  0
 28 24  1  0
 29 22  1  0
 30 29  2  0
 31 29  1  0
M  END
$$$$
