FEH.pdb
     RDKit          3D

 31 32  0  0  1  0  0  0  0  0999 V2000
    7.9079  -15.1230   20.9590 N   0  0  0  0  0  0  0  0  0  0  0  0
    8.1649  -14.5541   22.2683 C   0  0  1  0  0  0  0  0  0  0  0  0
    6.8394  -14.3457   23.0210 C   0  0  0  0  0  0  0  0  0  0  0  0
    7.0380  -13.8270   24.3771 C   0  0  0  0  0  0  0  0  0  0  0  0
    7.5496  -12.5725   24.5705 C   0  0  0  0  0  0  0  0  0  0  0  0
    7.7373  -12.0869   25.8540 C   0  0  0  0  0  0  0  0  0  0  0  0
    7.4015  -12.8852   26.9166 C   0  0  0  0  0  0  0  0  0  0  0  0
    6.8868  -14.1466   26.7287 C   0  0  0  0  0  0  0  0  0  0  0  0
    6.7078  -14.6114   25.4457 C   0  0  0  0  0  0  0  0  0  0  0  0
    8.9125  -15.5400   23.1005 C   0  0  0  0  0  0  0  0  0  0  0  0
    8.4304  -16.6958   23.2076 O   0  0  0  0  0  0  0  0  0  0  0  0
   10.1314  -15.2299   23.7690 N   0  0  0  0  0  0  0  0  0  0  0  0
   10.9246  -16.2382   24.4069 C   0  0  1  0  0  0  0  0  0  0  0  0
   12.4042  -15.9836   24.4006 C   0  0  0  0  0  0  0  0  0  0  0  0
   13.0779  -15.9488   23.0823 C   0  0  0  0  0  0  0  0  0  0  0  0
   14.5226  -15.7579   23.2250 C   0  0  0  0  0  0  0  0  0  0  0  0
   15.2538  -15.9591   22.2219 O   0  0  0  0  0  0  0  0  0  0  0  0
   10.4679  -16.6218   25.7614 C   0  0  0  0  0  0  0  0  0  0  0  0
   10.3864  -15.7377   26.6643 O   0  0  0  0  0  0  0  0  0  0  0  0
   15.1052  -15.3655   24.4212 O   0  0  0  0  0  0  0  0  0  0  0  0
   10.1085  -17.9455   26.1319 N   0  0  0  0  0  0  0  0  0  0  0  0
    9.6691  -18.2204   27.5049 C   0  0  1  0  0  0  0  0  0  0  0  0
    8.6688  -19.3177   27.5592 C   0  0  0  0  0  0  0  0  0  0  0  0
    7.6064  -19.0938   26.5658 C   0  0  0  0  0  0  0  0  0  0  0  0
    6.9152  -17.9413   26.2750 C   0  0  0  0  0  0  0  0  0  0  0  0
    5.9996  -18.1609   25.3227 N   0  0  0  0  0  0  0  0  0  0  0  0
    6.0883  -19.4596   24.9872 C   0  0  0  0  0  0  0  0  0  0  0  0
    7.0548  -20.0262   25.7333 N   0  0  0  0  0  0  0  0  0  0  0  0
   10.8772  -18.5737   28.2617 C   0  0  0  0  0  0  0  0  0  0  0  0
   11.9630  -18.7999   27.6859 O   0  0  0  0  0  0  0  0  0  0  0  0
   10.8836  -18.6758   29.6451 O   0  0  0  0  0  0  0  0  0  0  0  0
  2  1  1  6
  2  3  1  0
  2 10  1  0
  3  4  1  0
  4  9  1  0
  4  5  2  0
  5  6  1  0
  6  7  2  0
  8  7  1  0
  9  8  2  0
 10 11  2  0
 12 13  1  0
 12 10  1  0
 14 15  1  0
 13 14  1  1
 16 20  1  0
 16 15  1  0
 17 16  2  0
 18 13  1  0
 18 21  1  0
 19 18  2  0
 22 21  1  0
 22 23  1  6
 24 23  1  0
 25 24  2  0
 26 25  1  0
 27 26  1  0
 27 28  2  0
 28 24  1  0
 29 22  1  0
 30 29  2  0
 31 29  1  0
M  END
$$$$
