FEH.pdb
     RDKit          3D

 31 32  0  0  1  0  0  0  0  0999 V2000
    5.4920  -17.4405   23.2592 N   0  0  0  0  0  0  0  0  0  0  0  0
    6.3872  -16.3332   23.5356 C   0  0  1  0  0  0  0  0  0  0  0  0
    5.9758  -15.6380   24.8449 C   0  0  0  0  0  0  0  0  0  0  0  0
    6.7512  -14.4216   25.1038 C   0  0  0  0  0  0  0  0  0  0  0  0
    7.0606  -13.5670   24.0806 C   0  0  0  0  0  0  0  0  0  0  0  0
    7.7951  -12.4194   24.3294 C   0  0  0  0  0  0  0  0  0  0  0  0
    8.2011  -12.1619   25.6131 C   0  0  0  0  0  0  0  0  0  0  0  0
    7.8931  -13.0167   26.6455 C   0  0  0  0  0  0  0  0  0  0  0  0
    7.1625  -14.1520   26.3782 C   0  0  0  0  0  0  0  0  0  0  0  0
    7.7562  -16.8572   23.8086 C   0  0  0  0  0  0  0  0  0  0  0  0
    7.8636  -17.8105   24.6207 O   0  0  0  0  0  0  0  0  0  0  0  0
    8.9291  -16.3293   23.1964 N   0  0  0  0  0  0  0  0  0  0  0  0
   10.1928  -17.0000   23.2738 C   0  0  1  0  0  0  0  0  0  0  0  0
   10.8951  -17.1892   21.9605 C   0  0  0  0  0  0  0  0  0  0  0  0
   10.2062  -18.0098   20.9382 C   0  0  0  0  0  0  0  0  0  0  0  0
   10.9547  -18.0357   19.6800 C   0  0  0  0  0  0  0  0  0  0  0  0
   10.3616  -17.6946   18.6249 O   0  0  0  0  0  0  0  0  0  0  0  0
   11.1228  -16.4553   24.2881 C   0  0  0  0  0  0  0  0  0  0  0  0
   11.5615  -15.2744   24.1598 O   0  0  0  0  0  0  0  0  0  0  0  0
   12.2857  -18.4211   19.6155 O   0  0  0  0  0  0  0  0  0  0  0  0
   11.5730  -17.1823   25.4228 N   0  0  0  0  0  0  0  0  0  0  0  0
   12.5601  -16.5789   26.3258 C   0  0  1  0  0  0  0  0  0  0  0  0
   12.3379  -16.9790   27.7394 C   0  0  0  0  0  0  0  0  0  0  0  0
   11.1421  -16.3129   28.2798 C   0  0  0  0  0  0  0  0  0  0  0  0
   10.3561  -15.3387   27.7107 C   0  0  0  0  0  0  0  0  0  0  0  0
    9.3745  -14.9700   28.5437 N   0  0  0  0  0  0  0  0  0  0  0  0
    9.5153  -15.7022   29.6622 C   0  0  0  0  0  0  0  0  0  0  0  0
   10.5788  -16.5128   29.5084 N   0  0  0  0  0  0  0  0  0  0  0  0
   13.8775  -17.0258   25.8548 C   0  0  0  0  0  0  0  0  0  0  0  0
   13.9902  -17.8445   24.9175 O   0  0  0  0  0  0  0  0  0  0  0  0
   15.0610  -16.5701   26.4169 O   0  0  0  0  0  0  0  0  0  0  0  0
  2  1  1  1
  2  3  1  0
  2 10  1  0
  3  4  1  0
  4  9  1  0
  4  5  2  0
  5  6  1  0
  6  7  2  0
  8  7  1  0
  9  8  2  0
 10 11  2  0
 12 13  1  0
 12 10  1  0
 14 15  1  0
 13 14  1  6
 16 20  1  0
 16 15  1  0
 17 16  2  0
 18 13  1  0
 18 21  1  0
 19 18  2  0
 22 21  1  0
 22 23  1  1
 24 23  1  0
 25 24  2  0
 26 25  1  0
 27 26  1  0
 27 28  2  0
 28 24  1  0
 29 22  1  0
 30 29  2  0
 31 29  1  0
M  END
$$$$
