FEH.pdb
     RDKit          3D

 31 32  0  0  1  0  0  0  0  0999 V2000
    5.3969  -16.5460   23.2116 N   0  0  0  0  0  0  0  0  0  0  0  0
    6.5735  -15.8413   23.6840 C   0  0  1  0  0  0  0  0  0  0  0  0
    6.4642  -15.5904   25.1979 C   0  0  0  0  0  0  0  0  0  0  0  0
    6.6903  -14.1868   25.5534 C   0  0  0  0  0  0  0  0  0  0  0  0
    7.7227  -13.4875   24.9895 C   0  0  0  0  0  0  0  0  0  0  0  0
    7.9339  -12.1615   25.3297 C   0  0  0  0  0  0  0  0  0  0  0  0
    7.0919  -11.5714   26.2362 C   0  0  0  0  0  0  0  0  0  0  0  0
    6.0526  -12.2688   26.8062 C   0  0  0  0  0  0  0  0  0  0  0  0
    5.8592  -13.5855   26.4555 C   0  0  0  0  0  0  0  0  0  0  0  0
    7.7700  -16.7193   23.5394 C   0  0  0  0  0  0  0  0  0  0  0  0
    7.6764  -17.9035   23.9502 O   0  0  0  0  0  0  0  0  0  0  0  0
    8.9958  -16.2773   22.9641 N   0  0  0  0  0  0  0  0  0  0  0  0
   10.1480  -17.1257   22.8888 C   0  0  1  0  0  0  0  0  0  0  0  0
   11.1487  -16.7491   21.8349 C   0  0  0  0  0  0  0  0  0  0  0  0
   12.3090  -17.6509   21.6523 C   0  0  0  0  0  0  0  0  0  0  0  0
   13.1782  -17.1909   20.5675 C   0  0  0  0  0  0  0  0  0  0  0  0
   13.6103  -16.0107   20.6076 O   0  0  0  0  0  0  0  0  0  0  0  0
   10.8223  -17.3720   24.1831 C   0  0  0  0  0  0  0  0  0  0  0  0
   11.1824  -16.3882   24.8944 O   0  0  0  0  0  0  0  0  0  0  0  0
   13.5372  -18.0089   19.5061 O   0  0  0  0  0  0  0  0  0  0  0  0
   11.1049  -18.6664   24.6963 N   0  0  0  0  0  0  0  0  0  0  0  0
   11.7702  -18.8013   25.9975 C   0  0  1  0  0  0  0  0  0  0  0  0
   11.2705  -19.9757   26.7581 C   0  0  0  0  0  0  0  0  0  0  0  0
    9.9113  -19.7211   27.2616 C   0  0  0  0  0  0  0  0  0  0  0  0
    9.2000  -18.5447   27.2911 C   0  0  0  0  0  0  0  0  0  0  0  0
    8.0025  -18.7249   27.8629 N   0  0  0  0  0  0  0  0  0  0  0  0
    7.9263  -20.0212   28.2104 C   0  0  0  0  0  0  0  0  0  0  0  0
    9.0738  -20.6258   27.8504 N   0  0  0  0  0  0  0  0  0  0  0  0
   13.2057  -18.9309   25.7152 C   0  0  0  0  0  0  0  0  0  0  0  0
   13.6239  -19.1595   24.5601 O   0  0  0  0  0  0  0  0  0  0  0  0
   14.1709  -18.8085   26.7040 O   0  0  0  0  0  0  0  0  0  0  0  0
  2  1  1  1
  2  3  1  0
  2 10  1  0
  3  4  1  0
  4  9  1  0
  4  5  2  0
  5  6  1  0
  6  7  2  0
  8  7  1  0
  9  8  2  0
 10 11  2  0
 12 13  1  0
 12 10  1  0
 14 15  1  0
 13 14  1  6
 16 20  1  0
 16 15  1  0
 17 16  2  0
 18 13  1  0
 18 21  1  0
 19 18  2  0
 22 21  1  0
 22 23  1  6
 24 23  1  0
 25 24  2  0
 26 25  1  0
 27 26  1  0
 27 28  2  0
 28 24  1  0
 29 22  1  0
 30 29  2  0
 31 29  1  0
M  END
$$$$
