FEH.pdb
     RDKit          3D

 31 32  0  0  1  0  0  0  0  0999 V2000
    6.1204  -16.5223   25.4990 N   0  0  0  0  0  0  0  0  0  0  0  0
    6.7066  -16.4398   24.1748 C   0  0  1  0  0  0  0  0  0  0  0  0
    6.5792  -15.0063   23.6312 C   0  0  0  0  0  0  0  0  0  0  0  0
    6.9018  -13.9918   24.6384 C   0  0  0  0  0  0  0  0  0  0  0  0
    8.1585  -13.4536   24.7011 C   0  0  0  0  0  0  0  0  0  0  0  0
    8.4596  -12.4963   25.6558 C   0  0  0  0  0  0  0  0  0  0  0  0
    7.4781  -12.1042   26.5286 C   0  0  0  0  0  0  0  0  0  0  0  0
    6.2134  -12.6413   26.4706 C   0  0  0  0  0  0  0  0  0  0  0  0
    5.9336  -13.5914   25.5149 C   0  0  0  0  0  0  0  0  0  0  0  0
    8.1766  -16.6720   24.2668 C   0  0  0  0  0  0  0  0  0  0  0  0
    8.6337  -17.0836   25.3629 O   0  0  0  0  0  0  0  0  0  0  0  0
    9.0702  -16.4491   23.1801 N   0  0  0  0  0  0  0  0  0  0  0  0
   10.3839  -17.0202   23.1487 C   0  0  1  0  0  0  0  0  0  0  0  0
   11.2323  -16.6030   21.9825 C   0  0  0  0  0  0  0  0  0  0  0  0
   10.6614  -16.7939   20.6295 C   0  0  0  0  0  0  0  0  0  0  0  0
   11.5629  -17.5670   19.7729 C   0  0  0  0  0  0  0  0  0  0  0  0
   11.3611  -18.8025   19.6541 O   0  0  0  0  0  0  0  0  0  0  0  0
   11.1425  -16.9005   24.4139 C   0  0  0  0  0  0  0  0  0  0  0  0
   11.5983  -15.7715   24.7618 O   0  0  0  0  0  0  0  0  0  0  0  0
   12.6234  -16.9847   19.0941 O   0  0  0  0  0  0  0  0  0  0  0  0
   11.4057  -17.9902   25.2868 N   0  0  0  0  0  0  0  0  0  0  0  0
   12.2511  -17.7847   26.4688 C   0  0  1  0  0  0  0  0  0  0  0  0
   11.4550  -17.7537   27.7229 C   0  0  0  0  0  0  0  0  0  0  0  0
   11.3113  -16.3711   28.2060 C   0  0  0  0  0  0  0  0  0  0  0  0
   11.7772  -15.2023   27.6515 C   0  0  0  0  0  0  0  0  0  0  0  0
   11.4635  -14.1510   28.4195 N   0  0  0  0  0  0  0  0  0  0  0  0
   10.7908  -14.6290   29.4807 C   0  0  0  0  0  0  0  0  0  0  0  0
   10.6965  -15.9661   29.3570 N   0  0  0  0  0  0  0  0  0  0  0  0
   13.2135  -18.8941   26.4854 C   0  0  0  0  0  0  0  0  0  0  0  0
   14.3264  -18.7820   27.0426 O   0  0  0  0  0  0  0  0  0  0  0  0
   12.9462  -20.1180   25.8899 O   0  0  0  0  0  0  0  0  0  0  0  0
  2  1  1  1
  2  3  1  0
  2 10  1  0
  3  4  1  0
  4  9  1  0
  4  5  2  0
  5  6  1  0
  6  7  2  0
  8  7  1  0
  9  8  2  0
 10 11  2  0
 12 13  1  0
 12 10  1  0
 14 15  1  0
 13 14  1  6
 16 20  1  0
 16 15  1  0
 17 16  2  0
 18 13  1  0
 18 21  1  0
 19 18  2  0
 22 21  1  0
 22 23  1  1
 24 23  1  0
 25 24  2  0
 26 25  1  0
 27 26  1  0
 27 28  2  0
 28 24  1  0
 29 22  1  0
 30 29  2  0
 31 29  1  0
M  END
$$$$
