FEH.pdb
     RDKit          3D

 31 32  0  0  1  0  0  0  0  0999 V2000
    8.7121  -15.7129   15.7236 N   0  0  0  0  0  0  0  0  0  0  0  0
    8.9253  -14.8188   16.8456 C   0  0  1  0  0  0  0  0  0  0  0  0
    7.7299  -14.8916   17.8112 C   0  0  0  0  0  0  0  0  0  0  0  0
    7.8856  -14.0045   18.9673 C   0  0  0  0  0  0  0  0  0  0  0  0
    7.8777  -14.5145   20.2372 C   0  0  0  0  0  0  0  0  0  0  0  0
    8.0235  -13.6723   21.3272 C   0  0  0  0  0  0  0  0  0  0  0  0
    8.1745  -12.3280   21.1059 C   0  0  0  0  0  0  0  0  0  0  0  0
    8.1833  -11.8095   19.8322 C   0  0  0  0  0  0  0  0  0  0  0  0
    8.0370  -12.6625   18.7621 C   0  0  0  0  0  0  0  0  0  0  0  0
   10.0831  -15.3010   17.6522 C   0  0  0  0  0  0  0  0  0  0  0  0
   10.0207  -16.4650   18.1223 O   0  0  0  0  0  0  0  0  0  0  0  0
   11.2385  -14.5083   17.9081 N   0  0  0  0  0  0  0  0  0  0  0  0
   12.4352  -15.0683   18.4624 C   0  0  1  0  0  0  0  0  0  0  0  0
   13.7117  -14.4256   18.0026 C   0  0  0  0  0  0  0  0  0  0  0  0
   14.9796  -15.0388   18.4603 C   0  0  0  0  0  0  0  0  0  0  0  0
   16.1402  -14.3797   17.8581 C   0  0  0  0  0  0  0  0  0  0  0  0
   17.0212  -13.9069   18.6208 O   0  0  0  0  0  0  0  0  0  0  0  0
   12.4269  -15.2149   19.9351 C   0  0  0  0  0  0  0  0  0  0  0  0
   12.1771  -14.2069   20.6595 O   0  0  0  0  0  0  0  0  0  0  0  0
   16.2975  -14.2614   16.4849 O   0  0  0  0  0  0  0  0  0  0  0  0
   12.6893  -16.4363   20.6119 N   0  0  0  0  0  0  0  0  0  0  0  0
   12.5921  -16.4899   22.0753 C   0  0  1  0  0  0  0  0  0  0  0  0
   11.9983  -17.7679   22.5465 C   0  0  0  0  0  0  0  0  0  0  0  0
   11.9989  -17.8231   24.0170 C   0  0  0  0  0  0  0  0  0  0  0  0
   12.3245  -16.8432   24.9249 C   0  0  0  0  0  0  0  0  0  0  0  0
   12.2283  -17.3030   26.1791 N   0  0  0  0  0  0  0  0  0  0  0  0
   11.8394  -18.5871   26.0959 C   0  0  0  0  0  0  0  0  0  0  0  0
   11.6999  -18.9054   24.7954 N   0  0  0  0  0  0  0  0  0  0  0  0
   13.9597  -16.3271   22.5857 C   0  0  0  0  0  0  0  0  0  0  0  0
   14.1862  -16.1858   23.8065 O   0  0  0  0  0  0  0  0  0  0  0  0
   15.0678  -16.3207   21.7514 O   0  0  0  0  0  0  0  0  0  0  0  0
  2  1  1  6
  2  3  1  0
  2 10  1  0
  3  4  1  0
  4  9  1  0
  4  5  2  0
  5  6  1  0
  6  7  2  0
  8  7  1  0
  9  8  2  0
 10 11  2  0
 12 13  1  0
 12 10  1  0
 14 15  1  0
 13 14  1  1
 16 20  1  0
 16 15  1  0
 17 16  2  0
 18 13  1  0
 18 21  1  0
 19 18  2  0
 22 21  1  0
 22 23  1  6
 24 23  1  0
 25 24  2  0
 26 25  1  0
 27 26  1  0
 27 28  2  0
 28 24  1  0
 29 22  1  0
 30 29  2  0
 31 29  1  0
M  END
$$$$
