FEH.pdb
     RDKit          3D

 31 32  0  0  1  0  0  0  0  0999 V2000
    5.9896  -16.7561   24.9788 N   0  0  0  0  0  0  0  0  0  0  0  0
    6.9599  -15.8401   24.4101 C   0  0  1  0  0  0  0  0  0  0  0  0
    7.7039  -15.0974   25.5333 C   0  0  0  0  0  0  0  0  0  0  0  0
    7.1994  -13.7368   25.7385 C   0  0  0  0  0  0  0  0  0  0  0  0
    7.5909  -12.7209   24.9095 C   0  0  0  0  0  0  0  0  0  0  0  0
    7.1130  -11.4361   25.1081 C   0  0  0  0  0  0  0  0  0  0  0  0
    6.2463  -11.2082   26.1454 C   0  0  0  0  0  0  0  0  0  0  0  0
    5.8491  -12.2250   26.9818 C   0  0  0  0  0  0  0  0  0  0  0  0
    6.3350  -13.4948   26.7683 C   0  0  0  0  0  0  0  0  0  0  0  0
    8.0241  -16.6152   23.7101 C   0  0  0  0  0  0  0  0  0  0  0  0
    8.3214  -17.7452   24.1731 O   0  0  0  0  0  0  0  0  0  0  0  0
    8.7073  -16.1343   22.5564 N   0  0  0  0  0  0  0  0  0  0  0  0
    9.8828  -16.7766   22.0481 C   0  0  1  0  0  0  0  0  0  0  0  0
   10.2303  -16.4375   20.6274 C   0  0  0  0  0  0  0  0  0  0  0  0
   11.3448  -17.1895   20.0068 C   0  0  0  0  0  0  0  0  0  0  0  0
   11.0972  -17.4360   18.5848 C   0  0  0  0  0  0  0  0  0  0  0  0
   11.7888  -18.3085   18.0003 O   0  0  0  0  0  0  0  0  0  0  0  0
   11.0757  -16.6646   22.9170 C   0  0  0  0  0  0  0  0  0  0  0  0
   11.5414  -15.5192   23.1901 O   0  0  0  0  0  0  0  0  0  0  0  0
   10.1321  -16.7435   17.8682 O   0  0  0  0  0  0  0  0  0  0  0  0
   11.7553  -17.7789   23.4784 N   0  0  0  0  0  0  0  0  0  0  0  0
   12.9263  -17.5579   24.3350 C   0  0  1  0  0  0  0  0  0  0  0  0
   13.2413  -18.7499   25.1642 C   0  0  0  0  0  0  0  0  0  0  0  0
   12.2358  -18.9176   26.2254 C   0  0  0  0  0  0  0  0  0  0  0  0
   11.2537  -18.0488   26.6395 C   0  0  0  0  0  0  0  0  0  0  0  0
   10.5606  -18.5642   27.6630 N   0  0  0  0  0  0  0  0  0  0  0  0
   11.0878  -19.7731   27.9228 C   0  0  0  0  0  0  0  0  0  0  0  0
   12.0975  -19.9909   27.0596 N   0  0  0  0  0  0  0  0  0  0  0  0
   14.0410  -17.2354   23.4347 C   0  0  0  0  0  0  0  0  0  0  0  0
   13.9086  -17.2803   22.1929 O   0  0  0  0  0  0  0  0  0  0  0  0
   15.2925  -16.8660   23.9052 O   0  0  0  0  0  0  0  0  0  0  0  0
  2  1  1  1
  2  3  1  0
  2 10  1  0
  3  4  1  0
  4  9  1  0
  4  5  2  0
  5  6  1  0
  6  7  2  0
  8  7  1  0
  9  8  2  0
 10 11  2  0
 12 13  1  0
 12 10  1  0
 14 15  1  0
 13 14  1  6
 16 20  1  0
 16 15  1  0
 17 16  2  0
 18 13  1  0
 18 21  1  0
 19 18  2  0
 22 21  1  0
 22 23  1  6
 24 23  1  0
 25 24  2  0
 26 25  1  0
 27 26  1  0
 27 28  2  0
 28 24  1  0
 29 22  1  0
 30 29  2  0
 31 29  1  0
M  END
$$$$
