FEH.pdb
     RDKit          3D

 31 32  0  0  1  0  0  0  0  0999 V2000
    5.7121  -17.5781   24.4503 N   0  0  0  0  0  0  0  0  0  0  0  0
    6.6843  -16.5017   24.4600 C   0  0  1  0  0  0  0  0  0  0  0  0
    6.6039  -15.7318   25.7895 C   0  0  0  0  0  0  0  0  0  0  0  0
    6.6755  -14.2798   25.6040 C   0  0  0  0  0  0  0  0  0  0  0  0
    7.6687  -13.7274   24.8416 C   0  0  0  0  0  0  0  0  0  0  0  0
    7.7337  -12.3544   24.6704 C   0  0  0  0  0  0  0  0  0  0  0  0
    6.7881  -11.5690   25.2771 C   0  0  0  0  0  0  0  0  0  0  0  0
    5.7876  -12.1182   26.0443 C   0  0  0  0  0  0  0  0  0  0  0  0
    5.7399  -13.4845   26.2027 C   0  0  0  0  0  0  0  0  0  0  0  0
    8.0607  -17.0751   24.4465 C   0  0  0  0  0  0  0  0  0  0  0  0
    8.3107  -18.0080   25.2509 O   0  0  0  0  0  0  0  0  0  0  0  0
    9.0878  -16.6154   23.5732 N   0  0  0  0  0  0  0  0  0  0  0  0
   10.4256  -17.1239   23.6415 C   0  0  1  0  0  0  0  0  0  0  0  0
   11.3315  -16.6854   22.5275 C   0  0  0  0  0  0  0  0  0  0  0  0
   12.6826  -17.2894   22.4784 C   0  0  0  0  0  0  0  0  0  0  0  0
   13.3289  -17.0496   21.1865 C   0  0  0  0  0  0  0  0  0  0  0  0
   14.2363  -17.8378   20.8169 O   0  0  0  0  0  0  0  0  0  0  0  0
   11.0895  -16.9483   24.9525 C   0  0  0  0  0  0  0  0  0  0  0  0
   11.2437  -15.7819   25.4207 O   0  0  0  0  0  0  0  0  0  0  0  0
   12.9748  -15.9898   20.3643 O   0  0  0  0  0  0  0  0  0  0  0  0
   11.5822  -18.0219   25.7421 N   0  0  0  0  0  0  0  0  0  0  0  0
   11.7332  -17.8465   27.1914 C   0  0  1  0  0  0  0  0  0  0  0  0
   10.4567  -17.4479   27.8389 C   0  0  0  0  0  0  0  0  0  0  0  0
   10.4177  -15.9912   28.0440 C   0  0  0  0  0  0  0  0  0  0  0  0
   11.3830  -15.0485   27.7787 C   0  0  0  0  0  0  0  0  0  0  0  0
   10.9698  -13.8270   28.1403 N   0  0  0  0  0  0  0  0  0  0  0  0
    9.7315  -13.9665   28.6445 C   0  0  0  0  0  0  0  0  0  0  0  0
    9.3942  -15.2685   28.5888 N   0  0  0  0  0  0  0  0  0  0  0  0
   12.2079  -19.1338   27.7154 C   0  0  0  0  0  0  0  0  0  0  0  0
   13.0833  -19.1913   28.6053 O   0  0  0  0  0  0  0  0  0  0  0  0
   11.7174  -20.3480   27.2579 O   0  0  0  0  0  0  0  0  0  0  0  0
  2  1  1  1
  2  3  1  0
  2 10  1  0
  3  4  1  0
  4  9  1  0
  4  5  2  0
  5  6  1  0
  6  7  2  0
  8  7  1  0
  9  8  2  0
 10 11  2  0
 12 13  1  0
 12 10  1  0
 14 15  1  0
 13 14  1  6
 16 20  1  0
 16 15  1  0
 17 16  2  0
 18 13  1  0
 18 21  1  0
 19 18  2  0
 22 21  1  0
 22 23  1  1
 24 23  1  0
 25 24  2  0
 26 25  1  0
 27 26  1  0
 27 28  2  0
 28 24  1  0
 29 22  1  0
 30 29  2  0
 31 29  1  0
M  END
$$$$
