FEH.pdb
     RDKit          3D

 31 32  0  0  1  0  0  0  0  0999 V2000
    6.0135  -18.2330   25.6844 N   0  0  0  0  0  0  0  0  0  0  0  0
    6.5034  -16.9075   25.3572 C   0  0  1  0  0  0  0  0  0  0  0  0
    6.6201  -16.0592   26.6353 C   0  0  0  0  0  0  0  0  0  0  0  0
    6.8071  -14.6340   26.3495 C   0  0  0  0  0  0  0  0  0  0  0  0
    8.0253  -14.0424   26.5467 C   0  0  0  0  0  0  0  0  0  0  0  0
    8.1971  -12.6947   26.2770 C   0  0  0  0  0  0  0  0  0  0  0  0
    7.1279  -11.9739   25.8120 C   0  0  0  0  0  0  0  0  0  0  0  0
    5.9014  -12.5628   25.6116 C   0  0  0  0  0  0  0  0  0  0  0  0
    5.7504  -13.9031   25.8855 C   0  0  0  0  0  0  0  0  0  0  0  0
    7.9017  -17.0061   24.8489 C   0  0  0  0  0  0  0  0  0  0  0  0
    8.7088  -17.7173   25.4989 O   0  0  0  0  0  0  0  0  0  0  0  0
    8.3531  -16.3369   23.6752 N   0  0  0  0  0  0  0  0  0  0  0  0
    9.6309  -16.6126   23.0888 C   0  0  1  0  0  0  0  0  0  0  0  0
    9.7048  -16.4184   21.6019 C   0  0  0  0  0  0  0  0  0  0  0  0
   11.0051  -16.6929   20.9487 C   0  0  0  0  0  0  0  0  0  0  0  0
   10.9142  -16.5474   19.4945 C   0  0  0  0  0  0  0  0  0  0  0  0
   11.9629  -16.6827   18.8138 O   0  0  0  0  0  0  0  0  0  0  0  0
   10.7752  -15.9540   23.7575 C   0  0  0  0  0  0  0  0  0  0  0  0
   10.6248  -14.7994   24.2552 O   0  0  0  0  0  0  0  0  0  0  0  0
    9.7184  -16.2676   18.8494 O   0  0  0  0  0  0  0  0  0  0  0  0
   12.0646  -16.5379   23.8813 N   0  0  0  0  0  0  0  0  0  0  0  0
   12.8181  -16.3739   25.1301 C   0  0  1  0  0  0  0  0  0  0  0  0
   12.1477  -17.0418   26.2755 C   0  0  0  0  0  0  0  0  0  0  0  0
   11.5888  -16.0409   27.1982 C   0  0  0  0  0  0  0  0  0  0  0  0
   11.5387  -14.6726   27.0721 C   0  0  0  0  0  0  0  0  0  0  0  0
   10.9749  -14.1139   28.1507 N   0  0  0  0  0  0  0  0  0  0  0  0
   10.6543  -15.1158   28.9876 C   0  0  0  0  0  0  0  0  0  0  0  0
   11.0221  -16.2789   28.4185 N   0  0  0  0  0  0  0  0  0  0  0  0
   14.1464  -16.9526   24.8893 C   0  0  0  0  0  0  0  0  0  0  0  0
   15.0480  -16.8940   25.7524 O   0  0  0  0  0  0  0  0  0  0  0  0
   14.4740  -17.5913   23.7023 O   0  0  0  0  0  0  0  0  0  0  0  0
  2  1  1  1
  2  3  1  0
  2 10  1  0
  3  4  1  0
  4  9  1  0
  4  5  2  0
  5  6  1  0
  6  7  2  0
  8  7  1  0
  9  8  2  0
 10 11  2  0
 12 13  1  0
 12 10  1  0
 14 15  1  0
 13 14  1  6
 16 20  1  0
 16 15  1  0
 17 16  2  0
 18 13  1  0
 18 21  1  0
 19 18  2  0
 22 21  1  0
 22 23  1  1
 24 23  1  0
 25 24  2  0
 26 25  1  0
 27 26  1  0
 27 28  2  0
 28 24  1  0
 29 22  1  0
 30 29  2  0
 31 29  1  0
M  END
$$$$
