FEH.pdb
     RDKit          3D

 31 32  0  0  1  0  0  0  0  0999 V2000
    5.2873  -17.4070   23.9673 N   0  0  0  0  0  0  0  0  0  0  0  0
    6.2137  -16.3196   24.2192 C   0  0  1  0  0  0  0  0  0  0  0  0
    6.1321  -15.8897   25.6940 C   0  0  0  0  0  0  0  0  0  0  0  0
    6.6913  -14.5545   25.9227 C   0  0  0  0  0  0  0  0  0  0  0  0
    8.0461  -14.3738   25.9915 C   0  0  0  0  0  0  0  0  0  0  0  0
    8.5703  -13.1103   26.2094 C   0  0  0  0  0  0  0  0  0  0  0  0
    7.7078  -12.0547   26.3533 C   0  0  0  0  0  0  0  0  0  0  0  0
    6.3454  -12.2299   26.2850 C   0  0  0  0  0  0  0  0  0  0  0  0
    5.8438  -13.4930   26.0678 C   0  0  0  0  0  0  0  0  0  0  0  0
    7.6121  -16.8097   24.0528 C   0  0  0  0  0  0  0  0  0  0  0  0
    7.9670  -17.8014   24.7386 O   0  0  0  0  0  0  0  0  0  0  0  0
    8.5477  -16.2087   23.1626 N   0  0  0  0  0  0  0  0  0  0  0  0
    9.8790  -16.7146   23.0064 C   0  0  1  0  0  0  0  0  0  0  0  0
   10.6784  -16.0760   21.9077 C   0  0  0  0  0  0  0  0  0  0  0  0
   12.0777  -16.5302   21.7389 C   0  0  0  0  0  0  0  0  0  0  0  0
   12.6911  -15.9409   20.5470 C   0  0  0  0  0  0  0  0  0  0  0  0
   12.8705  -14.6965   20.5206 O   0  0  0  0  0  0  0  0  0  0  0  0
   10.6691  -16.7775   24.2563 C   0  0  0  0  0  0  0  0  0  0  0  0
   10.7432  -15.7538   24.9979 O   0  0  0  0  0  0  0  0  0  0  0  0
   13.0774  -16.7051   19.4556 O   0  0  0  0  0  0  0  0  0  0  0  0
   11.3713  -17.9327   24.6933 N   0  0  0  0  0  0  0  0  0  0  0  0
   11.6699  -18.1035   26.1201 C   0  0  1  0  0  0  0  0  0  0  0  0
   10.4994  -18.6210   26.8749 C   0  0  0  0  0  0  0  0  0  0  0  0
   10.8503  -18.8265   28.2892 C   0  0  0  0  0  0  0  0  0  0  0  0
   12.0517  -18.6235   28.9265 C   0  0  0  0  0  0  0  0  0  0  0  0
   11.9694  -18.9616   30.2197 N   0  0  0  0  0  0  0  0  0  0  0  0
   10.7125  -19.3879   30.4331 C   0  0  0  0  0  0  0  0  0  0  0  0
   10.0342  -19.3086   29.2732 N   0  0  0  0  0  0  0  0  0  0  0  0
   12.7990  -19.0397   26.1960 C   0  0  0  0  0  0  0  0  0  0  0  0
   13.1181  -19.7548   25.2222 O   0  0  0  0  0  0  0  0  0  0  0  0
   13.5688  -19.1833   27.3409 O   0  0  0  0  0  0  0  0  0  0  0  0
  2  1  1  1
  2  3  1  0
  2 10  1  0
  3  4  1  0
  4  9  1  0
  4  5  2  0
  5  6  1  0
  6  7  2  0
  8  7  1  0
  9  8  2  0
 10 11  2  0
 12 13  1  0
 12 10  1  0
 14 15  1  0
 13 14  1  6
 16 20  1  0
 16 15  1  0
 17 16  2  0
 18 13  1  0
 18 21  1  0
 19 18  2  0
 22 21  1  0
 22 23  1  1
 24 23  1  0
 25 24  2  0
 26 25  1  0
 27 26  1  0
 27 28  2  0
 28 24  1  0
 29 22  1  0
 30 29  2  0
 31 29  1  0
M  END
$$$$
