FEH.pdb
     RDKit          3D

 31 32  0  0  1  0  0  0  0  0999 V2000
    5.8849  -17.5872   24.1130 N   0  0  0  0  0  0  0  0  0  0  0  0
    6.7085  -16.4097   24.3109 C   0  0  1  0  0  0  0  0  0  0  0  0
    6.4426  -15.8091   25.7021 C   0  0  0  0  0  0  0  0  0  0  0  0
    7.1075  -14.5172   25.8937 C   0  0  0  0  0  0  0  0  0  0  0  0
    8.0993  -14.3807   26.8267 C   0  0  0  0  0  0  0  0  0  0  0  0
    8.7238  -13.1574   27.0057 C   0  0  0  0  0  0  0  0  0  0  0  0
    8.3287  -12.0962   26.2332 C   0  0  0  0  0  0  0  0  0  0  0  0
    7.3327  -12.2271   25.2939 C   0  0  0  0  0  0  0  0  0  0  0  0
    6.7241  -13.4508   25.1309 C   0  0  0  0  0  0  0  0  0  0  0  0
    8.1448  -16.8084   24.3477 C   0  0  0  0  0  0  0  0  0  0  0  0
    8.4455  -17.8432   24.9947 O   0  0  0  0  0  0  0  0  0  0  0  0
    9.1741  -16.0752   23.6904 N   0  0  0  0  0  0  0  0  0  0  0  0
   10.5192  -16.5622   23.6094 C   0  0  1  0  0  0  0  0  0  0  0  0
   11.2477  -16.2140   22.3438 C   0  0  0  0  0  0  0  0  0  0  0  0
   12.6507  -16.6722   22.2242 C   0  0  0  0  0  0  0  0  0  0  0  0
   13.2016  -16.3685   20.9020 C   0  0  0  0  0  0  0  0  0  0  0  0
   12.4087  -16.0221   19.9895 O   0  0  0  0  0  0  0  0  0  0  0  0
   11.3583  -16.2655   24.7919 C   0  0  0  0  0  0  0  0  0  0  0  0
   12.5645  -15.9170   24.6275 O   0  0  0  0  0  0  0  0  0  0  0  0
   14.5588  -16.4499   20.6264 O   0  0  0  0  0  0  0  0  0  0  0  0
   10.8967  -16.3491   26.1330 N   0  0  0  0  0  0  0  0  0  0  0  0
   11.8127  -16.0362   27.2362 C   0  0  1  0  0  0  0  0  0  0  0  0
   11.0863  -15.7868   28.5081 C   0  0  0  0  0  0  0  0  0  0  0  0
   10.1518  -16.8880   28.7903 C   0  0  0  0  0  0  0  0  0  0  0  0
    9.0761  -17.3271   28.0549 C   0  0  0  0  0  0  0  0  0  0  0  0
    8.4566  -18.3407   28.6733 N   0  0  0  0  0  0  0  0  0  0  0  0
    9.1254  -18.5681   29.8171 C   0  0  0  0  0  0  0  0  0  0  0  0
   10.1475  -17.6955   29.8924 N   0  0  0  0  0  0  0  0  0  0  0  0
   12.7136  -17.1892   27.3638 C   0  0  0  0  0  0  0  0  0  0  0  0
   12.5794  -18.2027   26.6452 O   0  0  0  0  0  0  0  0  0  0  0  0
   13.7550  -17.2200   28.2796 O   0  0  0  0  0  0  0  0  0  0  0  0
  2  1  1  1
  2  3  1  0
  2 10  1  0
  3  4  1  0
  4  9  1  0
  4  5  2  0
  5  6  1  0
  6  7  2  0
  8  7  1  0
  9  8  2  0
 10 11  2  0
 12 13  1  0
 12 10  1  0
 14 15  1  0
 13 14  1  6
 16 20  1  0
 16 15  1  0
 17 16  2  0
 18 13  1  0
 18 21  1  0
 19 18  2  0
 22 21  1  0
 22 23  1  1
 24 23  1  0
 25 24  2  0
 26 25  1  0
 27 26  1  0
 27 28  2  0
 28 24  1  0
 29 22  1  0
 30 29  2  0
 31 29  1  0
M  END
$$$$
