HWD.pdb
     RDKit          3D

 33 35  0  0  1  0  0  0  0  0999 V2000
   16.9967  -13.0941  -16.7740 N   0  0  0  0  0  0  0  0  0  0  0  0
   16.3127  -12.1958  -15.8633 C   0  0  1  0  0  0  0  0  0  0  0  0
   15.3167  -12.8963  -15.0012 C   0  0  0  0  0  0  0  0  0  0  0  0
   14.2834  -13.6047  -15.7971 C   0  0  0  0  0  0  0  0  0  0  0  0
   13.1580  -12.9886  -16.3254 C   0  0  0  0  0  0  0  0  0  0  0  0
   12.4231  -13.8972  -16.9892 N   0  0  0  0  0  0  0  0  0  0  0  0
   13.0695  -15.0698  -16.8849 C   0  0  0  0  0  0  0  0  0  0  0  0
   14.1877  -14.8818  -16.1655 N   0  0  0  0  0  0  0  0  0  0  0  0
   17.2919  -11.4824  -14.9790 C   0  0  0  0  0  0  0  0  0  0  0  0
   18.4217  -11.9735  -14.7367 O   0  0  0  0  0  0  0  0  0  0  0  0
   16.8955  -10.2416  -14.4318 N   0  0  0  0  0  0  0  0  0  0  0  0
   17.8297   -9.2407  -13.9527 C   0  0  1  0  0  0  0  0  0  0  0  0
   18.8839   -8.9202  -14.9704 C   0  0  0  0  0  0  0  0  0  0  0  0
   20.0986   -8.2978  -14.4565 C   0  0  0  0  0  0  0  0  0  0  0  0
   21.1341   -8.9997  -13.8340 C   0  0  0  0  0  0  0  0  0  0  0  0
   22.0324   -8.0687  -13.4843 N   0  0  0  0  0  0  0  0  0  0  0  0
   21.6321   -6.8450  -13.8436 C   0  0  0  0  0  0  0  0  0  0  0  0
   22.2311   -5.5963  -13.7049 C   0  0  0  0  0  0  0  0  0  0  0  0
   21.5993   -4.4626  -14.1904 C   0  0  0  0  0  0  0  0  0  0  0  0
   20.3654   -4.5593  -14.8187 C   0  0  0  0  0  0  0  0  0  0  0  0
   19.7894   -5.7936  -14.9467 C   0  0  0  0  0  0  0  0  0  0  0  0
   20.3984   -6.9348  -14.4712 C   0  0  0  0  0  0  0  0  0  0  0  0
   17.2266   -8.0780  -13.3321 C   0  0  0  0  0  0  0  0  0  0  0  0
   16.4983   -7.3300  -14.0450 O   0  0  0  0  0  0  0  0  0  0  0  0
   17.3739   -7.6904  -11.9861 N   0  0  0  0  0  0  0  0  0  0  0  0
   16.6807   -6.5385  -11.3843 C   0  0  1  0  0  0  0  0  0  0  0  0
   16.5746   -6.6934   -9.9063 C   0  0  0  0  0  0  0  0  0  0  0  0
   15.8586   -5.5498   -9.3156 C   0  0  0  0  0  0  0  0  0  0  0  0
   15.1109   -4.8283  -10.0146 O   0  0  0  0  0  0  0  0  0  0  0  0
   17.4765   -5.3514  -11.7402 C   0  0  0  0  0  0  0  0  0  0  0  0
   16.8973   -4.1552  -12.0997 O   0  0  0  0  0  0  0  0  0  0  0  0
   15.9971   -5.2484   -7.9752 O   0  0  0  0  0  0  0  0  0  0  0  0
   18.7267   -5.4256  -11.7172 O   0  0  0  0  0  0  0  0  0  0  0  0
  2  1  1  1
  2  3  1  0
  3  4  1  0
  4  8  1  0
  5  4  2  0
  5  6  1  0
  6  7  1  0
  8  7  2  0
  9  2  1  0
  9 10  2  0
 11  9  1  0
 12 13  1  6
 12 11  1  0
 14 13  1  0
 14 15  2  0
 16 15  1  0
 17 16  1  0
 18 17  2  0
 19 18  1  0
 20 19  2  0
 20 21  1  0
 21 22  2  0
 22 17  1  0
 22 14  1  0
 23 12  1  0
 24 23  2  0
 25 23  1  0
 26 30  1  0
 26 25  1  0
 26 27  1  1
 28 27  1  0
 28 29  2  0
 30 31  1  0
 32 28  1  0
 33 30  2  0
M  END
$$$$
