HWD.pdb
     RDKit          3D

 33 35  0  0  1  0  0  0  0  0999 V2000
   28.1729  -21.3983  -17.0629 N   0  0  0  0  0  0  0  0  0  0  0  0
   28.0661  -20.4277  -15.9902 C   0  0  1  0  0  0  0  0  0  0  0  0
   27.6041  -19.0910  -16.4652 C   0  0  0  0  0  0  0  0  0  0  0  0
   28.5728  -18.4589  -17.3953 C   0  0  0  0  0  0  0  0  0  0  0  0
   28.4222  -18.4426  -18.7745 C   0  0  0  0  0  0  0  0  0  0  0  0
   29.4630  -17.7979  -19.3287 N   0  0  0  0  0  0  0  0  0  0  0  0
   30.2612  -17.4112  -18.3201 C   0  0  0  0  0  0  0  0  0  0  0  0
   29.7155  -17.8143  -17.1612 N   0  0  0  0  0  0  0  0  0  0  0  0
   27.1247  -20.9078  -14.9257 C   0  0  0  0  0  0  0  0  0  0  0  0
   25.9822  -21.3381  -15.2188 O   0  0  0  0  0  0  0  0  0  0  0  0
   27.5716  -20.8578  -13.5863 N   0  0  0  0  0  0  0  0  0  0  0  0
   26.7521  -21.2398  -12.4521 C   0  0  1  0  0  0  0  0  0  0  0  0
   27.5470  -21.3167  -11.1825 C   0  0  0  0  0  0  0  0  0  0  0  0
   26.8461  -20.9220   -9.9660 C   0  0  0  0  0  0  0  0  0  0  0  0
   25.4563  -20.8211   -9.8617 C   0  0  0  0  0  0  0  0  0  0  0  0
   25.2249  -20.4024   -8.6097 N   0  0  0  0  0  0  0  0  0  0  0  0
   26.3651  -20.2375   -7.9317 C   0  0  0  0  0  0  0  0  0  0  0  0
   26.6146  -19.8388   -6.6218 C   0  0  0  0  0  0  0  0  0  0  0  0
   27.9161  -19.7655   -6.1516 C   0  0  0  0  0  0  0  0  0  0  0  0
   28.9824  -20.0881   -6.9794 C   0  0  0  0  0  0  0  0  0  0  0  0
   28.7208  -20.4776   -8.2646 C   0  0  0  0  0  0  0  0  0  0  0  0
   27.4351  -20.5571   -8.7544 C   0  0  0  0  0  0  0  0  0  0  0  0
   25.4967  -20.5264  -12.3276 C   0  0  0  0  0  0  0  0  0  0  0  0
   25.5301  -19.2643  -12.2616 O   0  0  0  0  0  0  0  0  0  0  0  0
   24.2164  -21.1109  -12.2717 N   0  0  0  0  0  0  0  0  0  0  0  0
   22.9715  -20.3894  -12.5862 C   0  0  1  0  0  0  0  0  0  0  0  0
   22.8455  -20.1587  -14.0528 C   0  0  0  0  0  0  0  0  0  0  0  0
   21.5595  -19.5133  -14.3671 C   0  0  0  0  0  0  0  0  0  0  0  0
   21.1933  -18.4801  -13.7618 O   0  0  0  0  0  0  0  0  0  0  0  0
   21.8731  -21.2313  -12.0826 C   0  0  0  0  0  0  0  0  0  0  0  0
   20.7713  -20.7046  -11.4468 O   0  0  0  0  0  0  0  0  0  0  0  0
   20.7284  -20.0353  -15.3384 O   0  0  0  0  0  0  0  0  0  0  0  0
   21.9369  -22.4730  -12.2348 O   0  0  0  0  0  0  0  0  0  0  0  0
  2  1  1  6
  2  3  1  0
  3  4  1  0
  4  8  1  0
  5  4  2  0
  5  6  1  0
  6  7  1  0
  8  7  2  0
  9  2  1  0
  9 10  2  0
 11  9  1  0
 12 13  1  1
 12 11  1  0
 14 13  1  0
 14 15  2  0
 16 15  1  0
 17 16  1  0
 18 17  2  0
 19 18  1  0
 20 19  2  0
 20 21  1  0
 21 22  2  0
 22 17  1  0
 22 14  1  0
 23 12  1  0
 24 23  2  0
 25 23  1  0
 26 30  1  0
 26 25  1  0
 26 27  1  6
 28 27  1  0
 28 29  2  0
 30 31  1  0
 32 28  1  0
 33 30  2  0
M  END
$$$$
