HWD.pdb
     RDKit          3D

 33 35  0  0  1  0  0  0  0  0999 V2000
   28.7147  -21.4494  -15.3340 N   0  0  0  0  0  0  0  0  0  0  0  0
   27.9208  -20.5885  -14.4779 C   0  0  1  0  0  0  0  0  0  0  0  0
   27.4414  -19.3616  -15.1784 C   0  0  0  0  0  0  0  0  0  0  0  0
   28.5613  -18.5221  -15.6725 C   0  0  0  0  0  0  0  0  0  0  0  0
   28.9560  -18.4644  -17.0014 C   0  0  0  0  0  0  0  0  0  0  0  0
   29.9933  -17.6184  -17.1216 N   0  0  0  0  0  0  0  0  0  0  0  0
   30.2535  -17.1467  -15.8914 C   0  0  0  0  0  0  0  0  0  0  0  0
   29.3855  -17.6972  -15.0273 N   0  0  0  0  0  0  0  0  0  0  0  0
   26.7317  -21.3237  -13.9345 C   0  0  0  0  0  0  0  0  0  0  0  0
   26.1105  -22.1583  -14.6373 O   0  0  0  0  0  0  0  0  0  0  0  0
   26.3395  -21.0422  -12.6066 N   0  0  0  0  0  0  0  0  0  0  0  0
   25.1144  -21.5386  -12.0094 C   0  0  1  0  0  0  0  0  0  0  0  0
   25.3077  -21.9406  -10.5774 C   0  0  0  0  0  0  0  0  0  0  0  0
   26.2650  -21.1469   -9.8155 C   0  0  0  0  0  0  0  0  0  0  0  0
   25.9110  -20.0835   -8.9810 C   0  0  0  0  0  0  0  0  0  0  0  0
   27.0693  -19.6074   -8.5037 N   0  0  0  0  0  0  0  0  0  0  0  0
   28.1123  -20.2955   -8.9784 C   0  0  0  0  0  0  0  0  0  0  0  0
   29.4807  -20.1755   -8.7542 C   0  0  0  0  0  0  0  0  0  0  0  0
   30.3666  -21.0458   -9.3692 C   0  0  0  0  0  0  0  0  0  0  0  0
   29.9003  -22.0441  -10.2133 C   0  0  0  0  0  0  0  0  0  0  0  0
   28.5526  -22.1487  -10.4241 C   0  0  0  0  0  0  0  0  0  0  0  0
   27.6528  -21.2942   -9.8242 C   0  0  0  0  0  0  0  0  0  0  0  0
   23.9370  -20.7275  -12.2475 C   0  0  0  0  0  0  0  0  0  0  0  0
   23.9793  -19.5045  -11.9303 O   0  0  0  0  0  0  0  0  0  0  0  0
   22.7252  -21.1752  -12.8088 N   0  0  0  0  0  0  0  0  0  0  0  0
   21.7243  -20.2822  -13.4170 C   0  0  1  0  0  0  0  0  0  0  0  0
   21.8332  -20.2937  -14.9029 C   0  0  0  0  0  0  0  0  0  0  0  0
   20.8249  -19.4035  -15.5031 C   0  0  0  0  0  0  0  0  0  0  0  0
   20.2917  -18.4905  -14.8321 O   0  0  0  0  0  0  0  0  0  0  0  0
   20.4106  -20.7797  -12.9748 C   0  0  0  0  0  0  0  0  0  0  0  0
   20.2716  -21.9099  -12.2008 O   0  0  0  0  0  0  0  0  0  0  0  0
   20.4453  -19.5574  -16.8218 O   0  0  0  0  0  0  0  0  0  0  0  0
   19.3774  -20.1567  -13.3113 O   0  0  0  0  0  0  0  0  0  0  0  0
  2  1  1  6
  2  3  1  0
  3  4  1  0
  4  8  1  0
  5  4  2  0
  5  6  1  0
  6  7  1  0
  8  7  2  0
  9  2  1  0
  9 10  2  0
 11  9  1  0
 12 13  1  1
 12 11  1  0
 14 13  1  0
 14 15  2  0
 16 15  1  0
 17 16  1  0
 18 17  2  0
 19 18  1  0
 20 19  2  0
 20 21  1  0
 21 22  2  0
 22 17  1  0
 22 14  1  0
 23 12  1  0
 24 23  2  0
 25 23  1  0
 26 30  1  0
 26 25  1  0
 26 27  1  6
 28 27  1  0
 28 29  2  0
 30 31  1  0
 32 28  1  0
 33 30  2  0
M  END
$$$$
