HWD.pdb
     RDKit          3D

 33 35  0  0  1  0  0  0  0  0999 V2000
   25.3941  -11.5049  -20.3491 N   0  0  0  0  0  0  0  0  0  0  0  0
   25.2974  -10.1469  -19.8483 C   0  0  1  0  0  0  0  0  0  0  0  0
   24.5166   -9.2527  -20.7520 C   0  0  0  0  0  0  0  0  0  0  0  0
   25.1990   -9.0316  -22.0514 C   0  0  0  0  0  0  0  0  0  0  0  0
   24.5354   -8.7242  -23.2305 C   0  0  0  0  0  0  0  0  0  0  0  0
   25.4309   -8.5873  -24.2231 N   0  0  0  0  0  0  0  0  0  0  0  0
   26.6423   -8.8037  -23.6850 C   0  0  0  0  0  0  0  0  0  0  0  0
   26.4906   -9.0701  -22.3775 N   0  0  0  0  0  0  0  0  0  0  0  0
   24.6649  -10.1217  -18.4885 C   0  0  0  0  0  0  0  0  0  0  0  0
   23.7168  -10.8932  -18.2017 O   0  0  0  0  0  0  0  0  0  0  0  0
   25.1753   -9.2004  -17.5467 N   0  0  0  0  0  0  0  0  0  0  0  0
   24.6492   -9.0517  -16.2032 C   0  0  1  0  0  0  0  0  0  0  0  0
   25.6584   -9.4238  -15.1579 C   0  0  0  0  0  0  0  0  0  0  0  0
   26.1036  -10.8126  -15.1666 C   0  0  0  0  0  0  0  0  0  0  0  0
   27.4120  -11.2129  -15.4505 C   0  0  0  0  0  0  0  0  0  0  0  0
   27.3937  -12.5516  -15.3889 N   0  0  0  0  0  0  0  0  0  0  0  0
   26.1746  -13.0096  -15.0879 C   0  0  0  0  0  0  0  0  0  0  0  0
   25.6891  -14.3012  -14.9056 C   0  0  0  0  0  0  0  0  0  0  0  0
   24.3592  -14.5056  -14.5742 C   0  0  0  0  0  0  0  0  0  0  0  0
   23.4987  -13.4273  -14.4207 C   0  0  0  0  0  0  0  0  0  0  0  0
   23.9908  -12.1640  -14.6039 C   0  0  0  0  0  0  0  0  0  0  0  0
   25.3093  -11.9365  -14.9346 C   0  0  0  0  0  0  0  0  0  0  0  0
   23.9547   -7.8060  -15.9450 C   0  0  0  0  0  0  0  0  0  0  0  0
   24.5503   -6.7231  -16.2111 O   0  0  0  0  0  0  0  0  0  0  0  0
   22.6554   -7.6789  -15.4163 N   0  0  0  0  0  0  0  0  0  0  0  0
   21.9700   -6.3890  -15.2272 C   0  0  1  0  0  0  0  0  0  0  0  0
   20.4934   -6.5478  -15.3462 C   0  0  0  0  0  0  0  0  0  0  0  0
   19.8224   -5.2401  -15.2519 C   0  0  0  0  0  0  0  0  0  0  0  0
   20.4712   -4.1747  -15.3614 O   0  0  0  0  0  0  0  0  0  0  0  0
   22.3491   -5.9181  -13.8842 C   0  0  0  0  0  0  0  0  0  0  0  0
   22.5655   -4.5880  -13.6022 O   0  0  0  0  0  0  0  0  0  0  0  0
   18.4601   -5.1611  -15.0402 O   0  0  0  0  0  0  0  0  0  0  0  0
   22.4813   -6.7528  -12.9597 O   0  0  0  0  0  0  0  0  0  0  0  0
  2  1  1  6
  2  3  1  0
  3  4  1  0
  4  8  1  0
  5  4  2  0
  5  6  1  0
  6  7  1  0
  8  7  2  0
  9  2  1  0
  9 10  2  0
 11  9  1  0
 12 13  1  1
 12 11  1  0
 14 13  1  0
 14 15  2  0
 16 15  1  0
 17 16  1  0
 18 17  2  0
 19 18  1  0
 20 19  2  0
 20 21  1  0
 21 22  2  0
 22 17  1  0
 22 14  1  0
 23 12  1  0
 24 23  2  0
 25 23  1  0
 26 30  1  0
 26 25  1  0
 26 27  1  1
 28 27  1  0
 28 29  2  0
 30 31  1  0
 32 28  1  0
 33 30  2  0
M  END
$$$$
