HWD.pdb
     RDKit          3D

 33 35  0  0  1  0  0  0  0  0999 V2000
   27.9441  -20.0131  -14.2909 N   0  0  0  0  0  0  0  0  0  0  0  0
   26.8334  -19.3617  -13.6228 C   0  0  1  0  0  0  0  0  0  0  0  0
   25.8999  -18.6920  -14.5747 C   0  0  0  0  0  0  0  0  0  0  0  0
   26.5920  -17.7050  -15.4407 C   0  0  0  0  0  0  0  0  0  0  0  0
   26.8158  -16.3838  -15.0808 C   0  0  0  0  0  0  0  0  0  0  0  0
   27.4616  -15.7541  -16.0769 N   0  0  0  0  0  0  0  0  0  0  0  0
   27.6453  -16.6584  -17.0527 C   0  0  0  0  0  0  0  0  0  0  0  0
   27.1180  -17.8290  -16.6588 N   0  0  0  0  0  0  0  0  0  0  0  0
   26.0533  -20.3437  -12.8001 C   0  0  0  0  0  0  0  0  0  0  0  0
   25.2027  -21.1000  -13.3301 O   0  0  0  0  0  0  0  0  0  0  0  0
   26.3120  -20.3850  -11.4117 N   0  0  0  0  0  0  0  0  0  0  0  0
   25.6644  -21.3107  -10.5020 C   0  0  1  0  0  0  0  0  0  0  0  0
   26.5082  -21.5994   -9.2960 C   0  0  0  0  0  0  0  0  0  0  0  0
   26.6902  -20.4919   -8.3647 C   0  0  0  0  0  0  0  0  0  0  0  0
   26.2287  -19.1931   -8.5939 C   0  0  0  0  0  0  0  0  0  0  0  0
   26.6256  -18.4833   -7.5287 N   0  0  0  0  0  0  0  0  0  0  0  0
   27.2965  -19.2439   -6.6579 C   0  0  0  0  0  0  0  0  0  0  0  0
   27.8751  -18.9516   -5.4262 C   0  0  0  0  0  0  0  0  0  0  0  0
   28.5097  -19.9471   -4.7007 C   0  0  0  0  0  0  0  0  0  0  0  0
   28.5752  -21.2433   -5.1927 C   0  0  0  0  0  0  0  0  0  0  0  0
   28.0024  -21.5145   -6.4052 C   0  0  0  0  0  0  0  0  0  0  0  0
   27.3667  -20.5407   -7.1449 C   0  0  0  0  0  0  0  0  0  0  0  0
   24.2773  -21.0159  -10.2027 C   0  0  0  0  0  0  0  0  0  0  0  0
   23.9636  -19.8199   -9.9391 O   0  0  0  0  0  0  0  0  0  0  0  0
   23.2219  -21.9482  -10.1759 N   0  0  0  0  0  0  0  0  0  0  0  0
   21.8224  -21.5938   -9.8843 C   0  0  1  0  0  0  0  0  0  0  0  0
   20.8842  -22.5602  -10.5213 C   0  0  0  0  0  0  0  0  0  0  0  0
   20.2554  -21.9636  -11.7120 C   0  0  0  0  0  0  0  0  0  0  0  0
   20.2799  -20.7259  -11.9006 O   0  0  0  0  0  0  0  0  0  0  0  0
   21.6932  -21.6134   -8.4173 C   0  0  0  0  0  0  0  0  0  0  0  0
   20.7851  -20.8262   -7.7456 O   0  0  0  0  0  0  0  0  0  0  0  0
   19.6241  -22.7586  -12.6481 O   0  0  0  0  0  0  0  0  0  0  0  0
   22.4337  -22.3717   -7.7497 O   0  0  0  0  0  0  0  0  0  0  0  0
  2  1  1  6
  2  3  1  0
  3  4  1  0
  4  8  1  0
  5  4  2  0
  5  6  1  0
  6  7  1  0
  8  7  2  0
  9  2  1  0
  9 10  2  0
 11  9  1  0
 12 13  1  1
 12 11  1  0
 14 13  1  0
 14 15  2  0
 16 15  1  0
 17 16  1  0
 18 17  2  0
 19 18  1  0
 20 19  2  0
 20 21  1  0
 21 22  2  0
 22 17  1  0
 22 14  1  0
 23 12  1  0
 24 23  2  0
 25 23  1  0
 26 30  1  0
 26 25  1  0
 26 27  1  6
 28 27  1  0
 28 29  2  0
 30 31  1  0
 32 28  1  0
 33 30  2  0
M  END
$$$$
