HWD.pdb
     RDKit          3D

 33 35  0  0  1  0  0  0  0  0999 V2000
   29.1655  -19.9426  -14.6491 N   0  0  0  0  0  0  0  0  0  0  0  0
   27.8821  -19.3500  -14.9749 C   0  0  1  0  0  0  0  0  0  0  0  0
   27.7024  -19.1319  -16.4399 C   0  0  0  0  0  0  0  0  0  0  0  0
   28.8090  -18.3383  -17.0304 C   0  0  0  0  0  0  0  0  0  0  0  0
   29.7907  -18.8731  -17.8522 C   0  0  0  0  0  0  0  0  0  0  0  0
   30.6429  -17.9009  -18.2190 N   0  0  0  0  0  0  0  0  0  0  0  0
   30.2109  -16.7681  -17.6409 C   0  0  0  0  0  0  0  0  0  0  0  0
   29.1066  -17.0433  -16.9282 N   0  0  0  0  0  0  0  0  0  0  0  0
   26.7555  -20.2063  -14.4778 C   0  0  0  0  0  0  0  0  0  0  0  0
   25.7710  -20.4698  -15.2111 O   0  0  0  0  0  0  0  0  0  0  0  0
   26.8447  -20.7032  -13.1582 N   0  0  0  0  0  0  0  0  0  0  0  0
   25.7730  -21.4239  -12.4979 C   0  0  1  0  0  0  0  0  0  0  0  0
   26.2454  -22.1277  -11.2605 C   0  0  0  0  0  0  0  0  0  0  0  0
   26.3473  -21.3071  -10.0592 C   0  0  0  0  0  0  0  0  0  0  0  0
   25.2838  -20.5833   -9.5138 C   0  0  0  0  0  0  0  0  0  0  0  0
   25.7968  -19.9467   -8.4518 N   0  0  0  0  0  0  0  0  0  0  0  0
   27.0958  -20.2220   -8.2984 C   0  0  0  0  0  0  0  0  0  0  0  0
   28.0239  -19.8103   -7.3464 C   0  0  0  0  0  0  0  0  0  0  0  0
   29.3313  -20.2658   -7.4053 C   0  0  0  0  0  0  0  0  0  0  0  0
   29.7288  -21.1354   -8.4115 C   0  0  0  0  0  0  0  0  0  0  0  0
   28.8050  -21.5303   -9.3401 C   0  0  0  0  0  0  0  0  0  0  0  0
   27.4995  -21.0899   -9.3022 C   0  0  0  0  0  0  0  0  0  0  0  0
   24.5406  -20.6804  -12.3275 C   0  0  0  0  0  0  0  0  0  0  0  0
   24.6161  -19.4326  -12.1395 O   0  0  0  0  0  0  0  0  0  0  0  0
   23.2400  -21.2206  -12.3511 N   0  0  0  0  0  0  0  0  0  0  0  0
   22.0847  -20.5493  -12.9708 C   0  0  1  0  0  0  0  0  0  0  0  0
   22.3761  -20.1854  -14.3859 C   0  0  0  0  0  0  0  0  0  0  0  0
   21.1808  -19.6158  -15.0309 C   0  0  0  0  0  0  0  0  0  0  0  0
   20.8163  -18.4426  -14.7886 O   0  0  0  0  0  0  0  0  0  0  0  0
   20.9645  -21.5015  -12.8848 C   0  0  0  0  0  0  0  0  0  0  0  0
   19.6790  -21.1045  -12.5929 O   0  0  0  0  0  0  0  0  0  0  0  0
   20.4349  -20.3655  -15.9188 O   0  0  0  0  0  0  0  0  0  0  0  0
   21.1820  -22.7190  -13.0836 O   0  0  0  0  0  0  0  0  0  0  0  0
  2  1  1  6
  2  3  1  0
  3  4  1  0
  4  8  1  0
  5  4  2  0
  5  6  1  0
  6  7  1  0
  8  7  2  0
  9  2  1  0
  9 10  2  0
 11  9  1  0
 12 13  1  1
 12 11  1  0
 14 13  1  0
 14 15  2  0
 16 15  1  0
 17 16  1  0
 18 17  2  0
 19 18  1  0
 20 19  2  0
 20 21  1  0
 21 22  2  0
 22 17  1  0
 22 14  1  0
 23 12  1  0
 24 23  2  0
 25 23  1  0
 26 30  1  0
 26 25  1  0
 26 27  1  6
 28 27  1  0
 28 29  2  0
 30 31  1  0
 32 28  1  0
 33 30  2  0
M  END
$$$$
