HWD.pdb
     RDKit          3D

 33 35  0  0  1  0  0  0  0  0999 V2000
   27.7220  -23.4827  -16.4829 N   0  0  0  0  0  0  0  0  0  0  0  0
   27.2269  -22.1393  -16.2495 C   0  0  1  0  0  0  0  0  0  0  0  0
   26.5744  -21.5473  -17.4536 C   0  0  0  0  0  0  0  0  0  0  0  0
   27.5283  -21.3594  -18.5751 C   0  0  0  0  0  0  0  0  0  0  0  0
   28.4604  -20.3332  -18.6332 C   0  0  0  0  0  0  0  0  0  0  0  0
   29.1690  -20.4389  -19.7702 N   0  0  0  0  0  0  0  0  0  0  0  0
   28.6961  -21.5130  -20.4234 C   0  0  0  0  0  0  0  0  0  0  0  0
   27.7091  -22.0591  -19.6948 N   0  0  0  0  0  0  0  0  0  0  0  0
   26.2447  -22.1202  -15.1161 C   0  0  0  0  0  0  0  0  0  0  0  0
   25.5055  -23.1082  -14.8841 O   0  0  0  0  0  0  0  0  0  0  0  0
   26.1841  -20.9527  -14.3227 N   0  0  0  0  0  0  0  0  0  0  0  0
   25.2970  -20.8005  -13.1853 C   0  0  1  0  0  0  0  0  0  0  0  0
   25.8814  -19.9099  -12.1294 C   0  0  0  0  0  0  0  0  0  0  0  0
   27.0439  -20.4357  -11.4230 C   0  0  0  0  0  0  0  0  0  0  0  0
   28.1665  -20.9749  -12.0566 C   0  0  0  0  0  0  0  0  0  0  0  0
   28.9774  -21.3691  -11.0650 N   0  0  0  0  0  0  0  0  0  0  0  0
   28.4425  -21.1142   -9.8668 C   0  0  0  0  0  0  0  0  0  0  0  0
   28.9160  -21.3303   -8.5759 C   0  0  0  0  0  0  0  0  0  0  0  0
   28.1557  -20.9494   -7.4818 C   0  0  0  0  0  0  0  0  0  0  0  0
   26.9167  -20.3496   -7.6606 C   0  0  0  0  0  0  0  0  0  0  0  0
   26.4649  -20.1446   -8.9356 C   0  0  0  0  0  0  0  0  0  0  0  0
   27.2030  -20.5158  -10.0387 C   0  0  0  0  0  0  0  0  0  0  0  0
   23.9153  -20.5101  -13.5127 C   0  0  0  0  0  0  0  0  0  0  0  0
   23.6787  -19.5837  -14.3398 O   0  0  0  0  0  0  0  0  0  0  0  0
   22.7862  -21.1708  -12.9906 N   0  0  0  0  0  0  0  0  0  0  0  0
   21.4009  -20.8619  -13.3841 C   0  0  1  0  0  0  0  0  0  0  0  0
   20.5895  -22.1062  -13.4985 C   0  0  0  0  0  0  0  0  0  0  0  0
   20.3047  -22.6633  -12.1652 C   0  0  0  0  0  0  0  0  0  0  0  0
   21.2002  -23.2344  -11.5018 O   0  0  0  0  0  0  0  0  0  0  0  0
   20.8681  -19.9721  -12.3385 C   0  0  0  0  0  0  0  0  0  0  0  0
   19.7498  -19.1927  -12.5319 O   0  0  0  0  0  0  0  0  0  0  0  0
   19.0409  -22.5674  -11.6170 O   0  0  0  0  0  0  0  0  0  0  0  0
   21.4486  -19.9173  -11.2298 O   0  0  0  0  0  0  0  0  0  0  0  0
  2  1  1  6
  2  3  1  0
  3  4  1  0
  4  8  1  0
  5  4  2  0
  5  6  1  0
  6  7  1  0
  8  7  2  0
  9  2  1  0
  9 10  2  0
 11  9  1  0
 12 13  1  1
 12 11  1  0
 14 13  1  0
 14 15  2  0
 16 15  1  0
 17 16  1  0
 18 17  2  0
 19 18  1  0
 20 19  2  0
 20 21  1  0
 21 22  2  0
 22 17  1  0
 22 14  1  0
 23 12  1  0
 24 23  2  0
 25 23  1  0
 26 30  1  0
 26 25  1  0
 26 27  1  1
 28 27  1  0
 28 29  2  0
 30 31  1  0
 32 28  1  0
 33 30  2  0
M  END
$$$$
