HWD.pdb
     RDKit          3D

 33 35  0  0  1  0  0  0  0  0999 V2000
   28.0194  -22.2134  -15.4859 N   0  0  0  0  0  0  0  0  0  0  0  0
   27.9629  -21.0819  -14.5799 C   0  0  1  0  0  0  0  0  0  0  0  0
   27.2201  -19.9212  -15.1516 C   0  0  0  0  0  0  0  0  0  0  0  0
   27.9349  -19.3049  -16.2971 C   0  0  0  0  0  0  0  0  0  0  0  0
   29.1717  -19.7336  -16.7573 C   0  0  0  0  0  0  0  0  0  0  0  0
   29.5465  -18.9741  -17.8007 N   0  0  0  0  0  0  0  0  0  0  0  0
   28.5657  -18.0785  -18.0005 C   0  0  0  0  0  0  0  0  0  0  0  0
   27.6010  -18.2871  -17.0899 N   0  0  0  0  0  0  0  0  0  0  0  0
   27.3195  -21.4678  -13.2811 C   0  0  0  0  0  0  0  0  0  0  0  0
   26.2845  -22.1782  -13.2579 O   0  0  0  0  0  0  0  0  0  0  0  0
   27.9207  -21.0034  -12.0899 N   0  0  0  0  0  0  0  0  0  0  0  0
   27.2716  -21.0470  -10.7935 C   0  0  1  0  0  0  0  0  0  0  0  0
   28.2011  -20.6539   -9.6839 C   0  0  0  0  0  0  0  0  0  0  0  0
   27.5696  -20.2994   -8.4180 C   0  0  0  0  0  0  0  0  0  0  0  0
   26.3308  -19.6616   -8.3133 C   0  0  0  0  0  0  0  0  0  0  0  0
   26.1321  -19.4878   -6.9993 N   0  0  0  0  0  0  0  0  0  0  0  0
   27.1528  -19.9700   -6.2835 C   0  0  0  0  0  0  0  0  0  0  0  0
   27.3773  -20.0255   -4.9110 C   0  0  0  0  0  0  0  0  0  0  0  0
   28.5342  -20.6067   -4.4170 C   0  0  0  0  0  0  0  0  0  0  0  0
   29.4795  -21.1385   -5.2831 C   0  0  0  0  0  0  0  0  0  0  0  0
   29.2446  -21.0757   -6.6295 C   0  0  0  0  0  0  0  0  0  0  0  0
   28.1019  -20.5019   -7.1438 C   0  0  0  0  0  0  0  0  0  0  0  0
   25.9688  -20.4148  -10.7322 C   0  0  0  0  0  0  0  0  0  0  0  0
   25.8697  -19.2116  -11.1073 O   0  0  0  0  0  0  0  0  0  0  0  0
   24.7772  -21.0199  -10.2874 N   0  0  0  0  0  0  0  0  0  0  0  0
   23.4318  -20.5686  -10.6820 C   0  0  1  0  0  0  0  0  0  0  0  0
   22.9336  -21.3407  -11.8548 C   0  0  0  0  0  0  0  0  0  0  0  0
   21.5298  -20.9994  -12.1412 C   0  0  0  0  0  0  0  0  0  0  0  0
   20.5917  -21.6093  -11.5788 O   0  0  0  0  0  0  0  0  0  0  0  0
   22.5709  -20.7725   -9.5046 C   0  0  0  0  0  0  0  0  0  0  0  0
   21.3479  -20.1551   -9.3687 O   0  0  0  0  0  0  0  0  0  0  0  0
   21.2176  -19.9972  -13.0383 O   0  0  0  0  0  0  0  0  0  0  0  0
   22.9593  -21.5345   -8.5894 O   0  0  0  0  0  0  0  0  0  0  0  0
  2  1  1  6
  2  3  1  0
  3  4  1  0
  4  8  1  0
  5  4  2  0
  5  6  1  0
  6  7  1  0
  8  7  2  0
  9  2  1  0
  9 10  2  0
 11  9  1  0
 12 13  1  1
 12 11  1  0
 14 13  1  0
 14 15  2  0
 16 15  1  0
 17 16  1  0
 18 17  2  0
 19 18  1  0
 20 19  2  0
 20 21  1  0
 21 22  2  0
 22 17  1  0
 22 14  1  0
 23 12  1  0
 24 23  2  0
 25 23  1  0
 26 30  1  0
 26 25  1  0
 26 27  1  6
 28 27  1  0
 28 29  2  0
 30 31  1  0
 32 28  1  0
 33 30  2  0
M  END
$$$$
