HWD.pdb
     RDKit          3D

 33 35  0  0  1  0  0  0  0  0999 V2000
   28.0488  -21.1018  -16.0602 N   0  0  0  0  0  0  0  0  0  0  0  0
   28.1117  -20.2779  -14.8679 C   0  0  1  0  0  0  0  0  0  0  0  0
   27.7178  -18.8618  -15.1236 C   0  0  0  0  0  0  0  0  0  0  0  0
   28.6607  -18.1722  -16.0393 C   0  0  0  0  0  0  0  0  0  0  0  0
   30.0245  -18.4246  -16.0779 C   0  0  0  0  0  0  0  0  0  0  0  0
   30.5964  -17.6410  -17.0079 N   0  0  0  0  0  0  0  0  0  0  0  0
   29.6140  -16.9036  -17.5510 C   0  0  0  0  0  0  0  0  0  0  0  0
   28.4534  -17.2317  -16.9605 N   0  0  0  0  0  0  0  0  0  0  0  0
   27.2304  -20.8313  -13.7878 C   0  0  0  0  0  0  0  0  0  0  0  0
   26.0731  -21.2444  -14.0455 O   0  0  0  0  0  0  0  0  0  0  0  0
   27.7507  -20.8699  -12.4748 N   0  0  0  0  0  0  0  0  0  0  0  0
   26.9348  -21.0808  -11.2942 C   0  0  1  0  0  0  0  0  0  0  0  0
   27.7466  -21.0422  -10.0335 C   0  0  0  0  0  0  0  0  0  0  0  0
   27.0079  -20.7641   -8.8072 C   0  0  0  0  0  0  0  0  0  0  0  0
   25.6195  -20.8692   -8.6893 C   0  0  0  0  0  0  0  0  0  0  0  0
   25.3420  -20.4986   -7.4316 N   0  0  0  0  0  0  0  0  0  0  0  0
   26.4525  -20.1731   -6.7625 C   0  0  0  0  0  0  0  0  0  0  0  0
   26.6542  -19.7520   -5.4514 C   0  0  0  0  0  0  0  0  0  0  0  0
   27.9356  -19.4918   -4.9923 C   0  0  0  0  0  0  0  0  0  0  0  0
   29.0292  -19.6479   -5.8327 C   0  0  0  0  0  0  0  0  0  0  0  0
   28.8144  -20.0619   -7.1189 C   0  0  0  0  0  0  0  0  0  0  0  0
   27.5493  -20.3258   -7.5978 C   0  0  0  0  0  0  0  0  0  0  0  0
   25.7121  -20.3044  -11.2402 C   0  0  0  0  0  0  0  0  0  0  0  0
   25.7993  -19.0455  -11.3165 O   0  0  0  0  0  0  0  0  0  0  0  0
   24.4093  -20.8234  -11.1087 N   0  0  0  0  0  0  0  0  0  0  0  0
   23.1912  -20.0848  -11.4831 C   0  0  1  0  0  0  0  0  0  0  0  0
   23.1914  -19.7590  -12.9369 C   0  0  0  0  0  0  0  0  0  0  0  0
   21.9023  -19.1689  -13.3358 C   0  0  0  0  0  0  0  0  0  0  0  0
   21.5407  -18.0544  -12.8939 O   0  0  0  0  0  0  0  0  0  0  0  0
   22.0593  -20.9595  -11.1328 C   0  0  0  0  0  0  0  0  0  0  0  0
   22.2272  -22.2823  -10.7900 O   0  0  0  0  0  0  0  0  0  0  0  0
   21.0630  -19.8339  -14.2077 O   0  0  0  0  0  0  0  0  0  0  0  0
   20.8983  -20.4894  -11.1451 O   0  0  0  0  0  0  0  0  0  0  0  0
  2  1  1  6
  2  3  1  0
  3  4  1  0
  4  8  1  0
  5  4  2  0
  5  6  1  0
  6  7  1  0
  8  7  2  0
  9  2  1  0
  9 10  2  0
 11  9  1  0
 12 13  1  1
 12 11  1  0
 14 13  1  0
 14 15  2  0
 16 15  1  0
 17 16  1  0
 18 17  2  0
 19 18  1  0
 20 19  2  0
 20 21  1  0
 21 22  2  0
 22 17  1  0
 22 14  1  0
 23 12  1  0
 24 23  2  0
 25 23  1  0
 26 30  1  0
 26 25  1  0
 26 27  1  6
 28 27  1  0
 28 29  2  0
 30 31  1  0
 32 28  1  0
 33 30  2  0
M  END
$$$$
