HWD.pdb
     RDKit          3D

 33 35  0  0  1  0  0  0  0  0999 V2000
   24.1040  -24.1882  -15.5264 N   0  0  0  0  0  0  0  0  0  0  0  0
   22.8186  -23.6937  -15.9820 C   0  0  1  0  0  0  0  0  0  0  0  0
   21.8580  -24.7902  -16.2996 C   0  0  0  0  0  0  0  0  0  0  0  0
   22.3545  -25.6772  -17.3811 C   0  0  0  0  0  0  0  0  0  0  0  0
   22.5991  -27.0332  -17.2174 C   0  0  0  0  0  0  0  0  0  0  0  0
   23.0392  -27.5496  -18.3774 N   0  0  0  0  0  0  0  0  0  0  0  0
   23.0738  -26.5404  -19.2628 C   0  0  0  0  0  0  0  0  0  0  0  0
   22.6595  -25.4184  -18.6523 N   0  0  0  0  0  0  0  0  0  0  0  0
   22.1957  -22.7959  -14.9545 C   0  0  0  0  0  0  0  0  0  0  0  0
   22.2871  -23.0541  -13.7292 O   0  0  0  0  0  0  0  0  0  0  0  0
   21.5056  -21.6529  -15.4168 N   0  0  0  0  0  0  0  0  0  0  0  0
   20.8350  -20.7115  -14.5405 C   0  0  1  0  0  0  0  0  0  0  0  0
   21.4714  -19.3538  -14.5787 C   0  0  0  0  0  0  0  0  0  0  0  0
   20.9160  -18.3629  -13.6641 C   0  0  0  0  0  0  0  0  0  0  0  0
   20.8703  -18.5181  -12.2762 C   0  0  0  0  0  0  0  0  0  0  0  0
   20.2614  -17.4162  -11.8166 N   0  0  0  0  0  0  0  0  0  0  0  0
   19.9278  -16.5911  -12.8140 C   0  0  0  0  0  0  0  0  0  0  0  0
   19.3043  -15.3468  -12.8177 C   0  0  0  0  0  0  0  0  0  0  0  0
   19.0872  -14.6796  -14.0127 C   0  0  0  0  0  0  0  0  0  0  0  0
   19.4882  -15.2432  -15.2160 C   0  0  0  0  0  0  0  0  0  0  0  0
   20.0992  -16.4672  -15.1959 C   0  0  0  0  0  0  0  0  0  0  0  0
   20.3248  -17.1497  -14.0199 C   0  0  0  0  0  0  0  0  0  0  0  0
   19.3891  -20.6955  -14.6400 C   0  0  0  0  0  0  0  0  0  0  0  0
   18.8691  -20.6872  -15.7922 O   0  0  0  0  0  0  0  0  0  0  0  0
   18.4868  -20.6883  -13.5584 N   0  0  0  0  0  0  0  0  0  0  0  0
   17.0235  -20.6223  -13.7123 C   0  0  1  0  0  0  0  0  0  0  0  0
   16.3362  -21.1890  -12.5180 C   0  0  0  0  0  0  0  0  0  0  0  0
   16.6040  -22.6327  -12.4027 C   0  0  0  0  0  0  0  0  0  0  0  0
   17.1983  -23.2517  -13.3146 O   0  0  0  0  0  0  0  0  0  0  0  0
   16.6954  -19.1976  -13.8903 C   0  0  0  0  0  0  0  0  0  0  0  0
   15.4183  -18.7631  -14.1655 O   0  0  0  0  0  0  0  0  0  0  0  0
   16.2043  -23.3358  -11.2835 O   0  0  0  0  0  0  0  0  0  0  0  0
   17.6068  -18.3443  -13.7888 O   0  0  0  0  0  0  0  0  0  0  0  0
  2  1  1  1
  2  3  1  0
  3  4  1  0
  4  8  1  0
  5  4  2  0
  5  6  1  0
  6  7  1  0
  8  7  2  0
  9  2  1  0
  9 10  2  0
 11  9  1  0
 12 13  1  6
 12 11  1  0
 14 13  1  0
 14 15  2  0
 16 15  1  0
 17 16  1  0
 18 17  2  0
 19 18  1  0
 20 19  2  0
 20 21  1  0
 21 22  2  0
 22 17  1  0
 22 14  1  0
 23 12  1  0
 24 23  2  0
 25 23  1  0
 26 30  1  0
 26 25  1  0
 26 27  1  1
 28 27  1  0
 28 29  2  0
 30 31  1  0
 32 28  1  0
 33 30  2  0
M  END
$$$$
