HWD.pdb
     RDKit          3D

 33 35  0  0  1  0  0  0  0  0999 V2000
   19.6490  -13.2964  -16.9075 N   0  0  0  0  0  0  0  0  0  0  0  0
   19.4494  -11.9019  -17.2537 C   0  0  1  0  0  0  0  0  0  0  0  0
   18.0850  -11.4100  -16.9039 C   0  0  0  0  0  0  0  0  0  0  0  0
   17.0153  -12.2180  -17.5411 C   0  0  0  0  0  0  0  0  0  0  0  0
   16.4410  -11.9113  -18.7663 C   0  0  0  0  0  0  0  0  0  0  0  0
   15.5078  -12.8314  -19.0637 N   0  0  0  0  0  0  0  0  0  0  0  0
   15.4889  -13.7076  -18.0460 C   0  0  0  0  0  0  0  0  0  0  0  0
   16.4003  -13.3286  -17.1355 N   0  0  0  0  0  0  0  0  0  0  0  0
   20.4610  -11.0306  -16.5700 C   0  0  0  0  0  0  0  0  0  0  0  0
   20.6005  -11.0578  -15.3226 O   0  0  0  0  0  0  0  0  0  0  0  0
   21.2477  -10.1820  -17.3807 N   0  0  0  0  0  0  0  0  0  0  0  0
   22.2457   -9.2697  -16.8558 C   0  0  1  0  0  0  0  0  0  0  0  0
   23.5648   -9.4137  -17.5550 C   0  0  0  0  0  0  0  0  0  0  0  0
   24.2811  -10.6613  -17.3153 C   0  0  0  0  0  0  0  0  0  0  0  0
   23.9814  -11.8697  -17.9497 C   0  0  0  0  0  0  0  0  0  0  0  0
   24.8359  -12.7628  -17.4317 N   0  0  0  0  0  0  0  0  0  0  0  0
   25.6415  -12.1991  -16.5262 C   0  0  0  0  0  0  0  0  0  0  0  0
   26.6753  -12.7204  -15.7537 C   0  0  0  0  0  0  0  0  0  0  0  0
   27.3792  -11.9002  -14.8865 C   0  0  0  0  0  0  0  0  0  0  0  0
   27.0621  -10.5532  -14.7789 C   0  0  0  0  0  0  0  0  0  0  0  0
   26.0430  -10.0559  -15.5444 C   0  0  0  0  0  0  0  0  0  0  0  0
   25.3286  -10.8525  -16.4130 C   0  0  0  0  0  0  0  0  0  0  0  0
   21.8049   -7.8989  -16.6903 C   0  0  0  0  0  0  0  0  0  0  0  0
   21.3021   -7.3079  -17.6883 O   0  0  0  0  0  0  0  0  0  0  0  0
   21.8824   -7.1439  -15.5038 N   0  0  0  0  0  0  0  0  0  0  0  0
   21.4412   -5.7430  -15.3935 C   0  0  1  0  0  0  0  0  0  0  0  0
   20.1020   -5.6556  -14.7465 C   0  0  0  0  0  0  0  0  0  0  0  0
   19.6700   -4.2517  -14.6373 C   0  0  0  0  0  0  0  0  0  0  0  0
   20.1391   -3.3733  -15.3965 O   0  0  0  0  0  0  0  0  0  0  0  0
   22.4667   -5.0537  -14.5920 C   0  0  0  0  0  0  0  0  0  0  0  0
   22.6039   -3.6838  -14.5893 O   0  0  0  0  0  0  0  0  0  0  0  0
   18.7361   -3.8737  -13.6930 O   0  0  0  0  0  0  0  0  0  0  0  0
   23.2461   -5.7325  -13.8843 O   0  0  0  0  0  0  0  0  0  0  0  0
  2  1  1  1
  2  3  1  0
  3  4  1  0
  4  8  1  0
  5  4  2  0
  5  6  1  0
  6  7  1  0
  8  7  2  0
  9  2  1  0
  9 10  2  0
 11  9  1  0
 12 13  1  6
 12 11  1  0
 14 13  1  0
 14 15  2  0
 16 15  1  0
 17 16  1  0
 18 17  2  0
 19 18  1  0
 20 19  2  0
 20 21  1  0
 21 22  2  0
 22 17  1  0
 22 14  1  0
 23 12  1  0
 24 23  2  0
 25 23  1  0
 26 30  1  0
 26 25  1  0
 26 27  1  1
 28 27  1  0
 28 29  2  0
 30 31  1  0
 32 28  1  0
 33 30  2  0
M  END
$$$$
