HWD.pdb
     RDKit          3D

 33 35  0  0  1  0  0  0  0  0999 V2000
   28.4478  -21.1076  -15.8688 N   0  0  0  0  0  0  0  0  0  0  0  0
   28.3592  -20.2607  -14.6944 C   0  0  1  0  0  0  0  0  0  0  0  0
   27.8421  -18.8960  -15.0047 C   0  0  0  0  0  0  0  0  0  0  0  0
   28.7038  -18.1752  -15.9747 C   0  0  0  0  0  0  0  0  0  0  0  0
   30.0339  -17.8577  -15.7399 C   0  0  0  0  0  0  0  0  0  0  0  0
   30.5317  -17.2082  -16.8058 N   0  0  0  0  0  0  0  0  0  0  0  0
   29.5362  -17.1142  -17.7024 C   0  0  0  0  0  0  0  0  0  0  0  0
   28.4409  -17.6996  -17.1916 N   0  0  0  0  0  0  0  0  0  0  0  0
   27.4758  -20.8807  -13.6528 C   0  0  0  0  0  0  0  0  0  0  0  0
   26.4262  -21.4902  -13.9742 O   0  0  0  0  0  0  0  0  0  0  0  0
   27.8690  -20.7534  -12.3017 N   0  0  0  0  0  0  0  0  0  0  0  0
   27.0685  -21.2198  -11.1856 C   0  0  1  0  0  0  0  0  0  0  0  0
   27.8616  -21.2934   -9.9147 C   0  0  0  0  0  0  0  0  0  0  0  0
   27.1451  -20.9411   -8.6942 C   0  0  0  0  0  0  0  0  0  0  0  0
   25.7526  -20.9344   -8.5788 C   0  0  0  0  0  0  0  0  0  0  0  0
   25.5032  -20.5261   -7.3269 N   0  0  0  0  0  0  0  0  0  0  0  0
   26.6348  -20.2807   -6.6591 C   0  0  0  0  0  0  0  0  0  0  0  0
   26.8670  -19.8593   -5.3531 C   0  0  0  0  0  0  0  0  0  0  0  0
   28.1642  -19.6953   -4.8940 C   0  0  0  0  0  0  0  0  0  0  0  0
   29.2434  -19.9488   -5.7292 C   0  0  0  0  0  0  0  0  0  0  0  0
   28.9987  -20.3617   -7.0104 C   0  0  0  0  0  0  0  0  0  0  0  0
   27.7175  -20.5309   -7.4892 C   0  0  0  0  0  0  0  0  0  0  0  0
   25.7735  -20.5844  -11.0447 C   0  0  0  0  0  0  0  0  0  0  0  0
   25.7334  -19.3251  -10.9413 O   0  0  0  0  0  0  0  0  0  0  0  0
   24.5293  -21.2437  -11.0107 N   0  0  0  0  0  0  0  0  0  0  0  0
   23.2786  -20.6609  -11.5261 C   0  0  1  0  0  0  0  0  0  0  0  0
   22.6202  -21.5831  -12.4936 C   0  0  0  0  0  0  0  0  0  0  0  0
   21.3178  -21.0432  -12.9197 C   0  0  0  0  0  0  0  0  0  0  0  0
   21.2008  -19.8465  -13.2695 O   0  0  0  0  0  0  0  0  0  0  0  0
   22.4241  -20.4228  -10.3505 C   0  0  0  0  0  0  0  0  0  0  0  0
   22.7175  -20.9383   -9.1080 O   0  0  0  0  0  0  0  0  0  0  0  0
   20.1955  -21.8474  -12.9425 O   0  0  0  0  0  0  0  0  0  0  0  0
   21.3907  -19.7264  -10.4783 O   0  0  0  0  0  0  0  0  0  0  0  0
  2  1  1  6
  2  3  1  0
  3  4  1  0
  4  8  1  0
  5  4  2  0
  5  6  1  0
  6  7  1  0
  8  7  2  0
  9  2  1  0
  9 10  2  0
 11  9  1  0
 12 13  1  1
 12 11  1  0
 14 13  1  0
 14 15  2  0
 16 15  1  0
 17 16  1  0
 18 17  2  0
 19 18  1  0
 20 19  2  0
 20 21  1  0
 21 22  2  0
 22 17  1  0
 22 14  1  0
 23 12  1  0
 24 23  2  0
 25 23  1  0
 26 30  1  0
 26 25  1  0
 26 27  1  6
 28 27  1  0
 28 29  2  0
 30 31  1  0
 32 28  1  0
 33 30  2  0
M  END
$$$$
