HWD.pdb
     RDKit          3D

 33 35  0  0  1  0  0  0  0  0999 V2000
   20.4048  -21.5962   -8.6626 N   0  0  0  0  0  0  0  0  0  0  0  0
   21.4719  -22.0791   -9.5182 C   0  0  1  0  0  0  0  0  0  0  0  0
   21.0253  -22.3114  -10.9227 C   0  0  0  0  0  0  0  0  0  0  0  0
   19.9940  -23.3746  -11.0164 C   0  0  0  0  0  0  0  0  0  0  0  0
   18.6351  -23.1503  -10.8477 C   0  0  0  0  0  0  0  0  0  0  0  0
   17.9710  -24.3096  -10.9925 N   0  0  0  0  0  0  0  0  0  0  0  0
   18.8908  -25.2541  -11.2487 C   0  0  0  0  0  0  0  0  0  0  0  0
   20.1047  -24.6800  -11.2608 N   0  0  0  0  0  0  0  0  0  0  0  0
   22.6214  -21.1157   -9.5357 C   0  0  0  0  0  0  0  0  0  0  0  0
   22.4479  -19.9068   -9.8272 O   0  0  0  0  0  0  0  0  0  0  0  0
   23.9015  -21.6189   -9.2126 N   0  0  0  0  0  0  0  0  0  0  0  0
   25.1392  -20.9482   -9.5624 C   0  0  1  0  0  0  0  0  0  0  0  0
   26.2732  -21.3554   -8.6692 C   0  0  0  0  0  0  0  0  0  0  0  0
   26.7826  -20.3230   -7.7739 C   0  0  0  0  0  0  0  0  0  0  0  0
   26.6428  -18.9514   -8.0016 C   0  0  0  0  0  0  0  0  0  0  0  0
   27.2704  -18.3568   -6.9775 N   0  0  0  0  0  0  0  0  0  0  0  0
   27.7868  -19.2556   -6.1336 C   0  0  0  0  0  0  0  0  0  0  0  0
   28.4974  -19.1098   -4.9458 C   0  0  0  0  0  0  0  0  0  0  0  0
   28.9114  -20.2279   -4.2396 C   0  0  0  0  0  0  0  0  0  0  0  0
   28.6228  -21.5023   -4.7077 C   0  0  0  0  0  0  0  0  0  0  0  0
   27.9242  -21.6291   -5.8771 C   0  0  0  0  0  0  0  0  0  0  0  0
   27.5029  -20.5318   -6.5968 C   0  0  0  0  0  0  0  0  0  0  0  0
   25.4638  -20.9458  -10.9749 C   0  0  0  0  0  0  0  0  0  0  0  0
   25.4037  -22.0406  -11.6042 O   0  0  0  0  0  0  0  0  0  0  0  0
   25.8474  -19.8219  -11.7323 N   0  0  0  0  0  0  0  0  0  0  0  0
   26.1060  -19.8598  -13.1818 C   0  0  1  0  0  0  0  0  0  0  0  0
   26.7677  -21.1366  -13.5716 C   0  0  0  0  0  0  0  0  0  0  0  0
   28.1564  -20.8917  -13.9968 C   0  0  0  0  0  0  0  0  0  0  0  0
   28.6170  -19.7285  -14.0509 O   0  0  0  0  0  0  0  0  0  0  0  0
   24.7935  -19.7185  -13.8347 C   0  0  0  0  0  0  0  0  0  0  0  0
   23.6194  -19.6330  -13.1209 O   0  0  0  0  0  0  0  0  0  0  0  0
   28.9818  -21.9423  -14.3458 O   0  0  0  0  0  0  0  0  0  0  0  0
   24.7358  -19.6736  -15.0852 O   0  0  0  0  0  0  0  0  0  0  0  0
  2  1  1  1
  2  3  1  0
  3  4  1  0
  4  8  1  0
  5  4  2  0
  5  6  1  0
  6  7  1  0
  8  7  2  0
  9  2  1  0
  9 10  2  0
 11  9  1  0
 12 13  1  1
 12 11  1  0
 14 13  1  0
 14 15  2  0
 16 15  1  0
 17 16  1  0
 18 17  2  0
 19 18  1  0
 20 19  2  0
 20 21  1  0
 21 22  2  0
 22 17  1  0
 22 14  1  0
 23 12  1  0
 24 23  2  0
 25 23  1  0
 26 30  1  0
 26 25  1  0
 26 27  1  1
 28 27  1  0
 28 29  2  0
 30 31  1  0
 32 28  1  0
 33 30  2  0
M  END
$$$$
