HWD.pdb
     RDKit          3D

 33 35  0  0  1  0  0  0  0  0999 V2000
   28.5997  -21.6289  -15.4266 N   0  0  0  0  0  0  0  0  0  0  0  0
   27.7535  -20.6051  -14.8435 C   0  0  1  0  0  0  0  0  0  0  0  0
   26.9669  -19.8553  -15.8658 C   0  0  0  0  0  0  0  0  0  0  0  0
   27.8368  -19.1060  -16.8065 C   0  0  0  0  0  0  0  0  0  0  0  0
   28.2491  -19.5979  -18.0366 C   0  0  0  0  0  0  0  0  0  0  0  0
   29.0242  -18.6839  -18.6447 N   0  0  0  0  0  0  0  0  0  0  0  0
   29.1034  -17.6297  -17.8164 C   0  0  0  0  0  0  0  0  0  0  0  0
   28.3849  -17.8948  -16.7133 N   0  0  0  0  0  0  0  0  0  0  0  0
   26.8006  -21.2002  -13.8498 C   0  0  0  0  0  0  0  0  0  0  0  0
   26.1934  -22.2710  -14.0970 O   0  0  0  0  0  0  0  0  0  0  0  0
   26.6137  -20.5124  -12.6298 N   0  0  0  0  0  0  0  0  0  0  0  0
   25.6311  -20.8965  -11.6344 C   0  0  1  0  0  0  0  0  0  0  0  0
   25.9660  -20.3591  -10.2747 C   0  0  0  0  0  0  0  0  0  0  0  0
   27.2542  -20.7677   -9.7266 C   0  0  0  0  0  0  0  0  0  0  0  0
   28.1738  -21.5715  -10.4055 C   0  0  0  0  0  0  0  0  0  0  0  0
   29.1945  -21.7389   -9.5532 N   0  0  0  0  0  0  0  0  0  0  0  0
   28.9769  -21.0994   -8.3997 C   0  0  0  0  0  0  0  0  0  0  0  0
   29.7485  -20.9785   -7.2477 C   0  0  0  0  0  0  0  0  0  0  0  0
   29.2898  -20.2273   -6.1774 C   0  0  0  0  0  0  0  0  0  0  0  0
   28.0590  -19.5888   -6.2421 C   0  0  0  0  0  0  0  0  0  0  0  0
   27.3121  -19.7179   -7.3811 C   0  0  0  0  0  0  0  0  0  0  0  0
   27.7473  -20.4602   -8.4576 C   0  0  0  0  0  0  0  0  0  0  0  0
   24.2482  -20.7095  -12.0257 C   0  0  0  0  0  0  0  0  0  0  0  0
   23.8912  -19.5672  -12.4330 O   0  0  0  0  0  0  0  0  0  0  0  0
   23.2412  -21.6940  -11.9969 N   0  0  0  0  0  0  0  0  0  0  0  0
   21.8517  -21.4579  -12.4247 C   0  0  1  0  0  0  0  0  0  0  0  0
   21.1789  -22.7388  -12.7801 C   0  0  0  0  0  0  0  0  0  0  0  0
   19.7735  -22.5003  -13.1508 C   0  0  0  0  0  0  0  0  0  0  0  0
   19.2930  -21.3440  -13.1414 O   0  0  0  0  0  0  0  0  0  0  0  0
   21.1812  -20.8003  -11.2902 C   0  0  0  0  0  0  0  0  0  0  0  0
   20.1997  -19.8504  -11.4626 O   0  0  0  0  0  0  0  0  0  0  0  0
   18.9541  -23.5495  -13.5176 O   0  0  0  0  0  0  0  0  0  0  0  0
   21.5111  -21.1118  -10.1226 O   0  0  0  0  0  0  0  0  0  0  0  0
  2  1  1  6
  2  3  1  0
  3  4  1  0
  4  8  1  0
  5  4  2  0
  5  6  1  0
  6  7  1  0
  8  7  2  0
  9  2  1  0
  9 10  2  0
 11  9  1  0
 12 13  1  1
 12 11  1  0
 14 13  1  0
 14 15  2  0
 16 15  1  0
 17 16  1  0
 18 17  2  0
 19 18  1  0
 20 19  2  0
 20 21  1  0
 21 22  2  0
 22 17  1  0
 22 14  1  0
 23 12  1  0
 24 23  2  0
 25 23  1  0
 26 30  1  0
 26 25  1  0
 26 27  1  1
 28 27  1  0
 28 29  2  0
 30 31  1  0
 32 28  1  0
 33 30  2  0
M  END
$$$$
