WNK.pdb
     RDKit          3D

 32 33  0  0  1  0  0  0  0  0999 V2000
    6.3343  -17.2114   23.9929 N   0  0  0  0  0  0  0  0  0  0  0  0
    7.5435  -16.3965   23.8583 C   0  0  1  0  0  0  0  0  0  0  0  0
    8.0254  -15.9492   25.2206 C   0  0  0  0  0  0  0  0  0  0  0  0
    7.0879  -14.9450   25.7718 C   0  0  0  0  0  0  0  0  0  0  0  0
    5.8899  -15.1625   26.4150 C   0  0  0  0  0  0  0  0  0  0  0  0
    5.3352  -13.9727   26.7571 N   0  0  0  0  0  0  0  0  0  0  0  0
    6.1266  -12.9754   26.3614 C   0  0  0  0  0  0  0  0  0  0  0  0
    6.0089  -11.6065   26.4718 C   0  0  0  0  0  0  0  0  0  0  0  0
    7.0216  -10.8333   25.9480 C   0  0  0  0  0  0  0  0  0  0  0  0
    8.1179  -11.4016   25.3331 C   0  0  0  0  0  0  0  0  0  0  0  0
    8.2147  -12.7776   25.2338 C   0  0  0  0  0  0  0  0  0  0  0  0
    7.2233  -13.5590   25.7458 C   0  0  0  0  0  0  0  0  0  0  0  0
    8.6270  -17.1755   23.2173 C   0  0  0  0  0  0  0  0  0  0  0  0
    8.7390  -18.3867   23.4311 O   0  0  0  0  0  0  0  0  0  0  0  0
   12.8705  -17.1281   19.2491 N   0  0  0  0  0  0  0  0  0  0  0  0
   12.7728  -16.5173   20.5112 C   0  0  0  0  0  0  0  0  0  0  0  0
   13.8050  -16.3442   21.1911 O   0  0  0  0  0  0  0  0  0  0  0  0
   11.4729  -16.0834   21.0345 C   0  0  0  0  0  0  0  0  0  0  0  0
   10.8604  -16.9711   22.0562 C   0  0  2  0  0  0  0  0  0  0  0  0
    9.5279  -16.5036   22.3581 N   0  0  0  0  0  0  0  0  0  0  0  0
   11.6102  -17.0110   23.3327 C   0  0  0  0  0  0  0  0  0  0  0  0
   11.7980  -15.9554   23.9847 O   0  0  0  0  0  0  0  0  0  0  0  0
   12.1479  -18.1976   23.8863 N   0  0  0  0  0  0  0  0  0  0  0  0
   12.6616  -18.2506   25.2755 C   0  0  1  0  0  0  0  0  0  0  0  0
   11.8382  -19.1805   26.0920 C   0  0  0  0  0  0  0  0  0  0  0  0
   12.4596  -19.4061   27.4392 C   0  0  0  0  0  0  0  0  0  0  0  0
   11.6449  -20.4325   28.2244 C   0  0  0  0  0  0  0  0  0  0  0  0
   12.3052  -20.7818   29.5244 C   0  0  0  0  0  0  0  0  0  0  0  0
   11.5827  -21.8525   30.1597 N   0  0  0  0  0  0  0  0  0  0  0  0
   14.0523  -18.7252   25.1821 C   0  0  0  0  0  0  0  0  0  0  0  0
   14.9582  -18.4979   26.0285 O   0  0  0  0  0  0  0  0  0  0  0  0
   14.4253  -19.4979   24.0659 O   0  0  0  0  0  0  0  0  0  0  0  0
  2  1  1  1
  2  3  1  0
  3  4  1  0
  4  5  2  0
  5  6  1  0
  7  8  2  0
  7  6  1  0
  9  8  1  0
 10  9  2  0
 11 10  1  0
 11 12  2  0
 12  4  1  0
 12  7  1  0
 13  2  1  0
 13 20  1  0
 14 13  2  0
 15 16  1  0
 16 18  1  0
 16 17  2  0
 19 20  1  0
 19 18  1  6
 21 19  1  0
 22 21  2  0
 23 21  1  0
 24 23  1  0
 24 25  1  1
 25 26  1  0
 27 26  1  0
 27 28  1  0
 28 29  1  0
 30 24  1  0
 30 32  1  0
 31 30  2  0
M  END
$$$$
