WNK.pdb
     RDKit          3D

 32 33  0  0  1  0  0  0  0  0999 V2000
    9.9832  -15.4156   22.4701 N   0  0  0  0  0  0  0  0  0  0  0  0
    9.6824  -15.4397   23.9030 C   0  0  1  0  0  0  0  0  0  0  0  0
    8.2921  -15.9890   24.1350 C   0  0  0  0  0  0  0  0  0  0  0  0
    7.3111  -14.8809   24.1045 C   0  0  0  0  0  0  0  0  0  0  0  0
    6.5125  -14.4804   23.0566 C   0  0  0  0  0  0  0  0  0  0  0  0
    5.7593  -13.4190   23.4392 N   0  0  0  0  0  0  0  0  0  0  0  0
    6.0331  -13.1041   24.7054 C   0  0  0  0  0  0  0  0  0  0  0  0
    5.5420  -12.1210   25.5373 C   0  0  0  0  0  0  0  0  0  0  0  0
    6.0423  -12.0594   26.8193 C   0  0  0  0  0  0  0  0  0  0  0  0
    7.0011  -12.9468   27.2623 C   0  0  0  0  0  0  0  0  0  0  0  0
    7.4793  -13.9252   26.4100 C   0  0  0  0  0  0  0  0  0  0  0  0
    6.9968  -14.0021   25.1384 C   0  0  0  0  0  0  0  0  0  0  0  0
   10.6465  -16.3027   24.6224 C   0  0  0  0  0  0  0  0  0  0  0  0
   11.5767  -16.8438   24.0164 O   0  0  0  0  0  0  0  0  0  0  0  0
    9.9689  -14.5783   29.0843 N   0  0  0  0  0  0  0  0  0  0  0  0
   11.1094  -15.1266   28.4725 C   0  0  0  0  0  0  0  0  0  0  0  0
   12.0249  -14.3695   28.0898 O   0  0  0  0  0  0  0  0  0  0  0  0
   11.2327  -16.5756   28.2804 C   0  0  0  0  0  0  0  0  0  0  0  0
   11.4995  -17.0209   26.8884 C   0  0  2  0  0  0  0  0  0  0  0  0
   10.4786  -16.4931   26.0141 N   0  0  0  0  0  0  0  0  0  0  0  0
   11.4965  -18.4930   26.7264 C   0  0  0  0  0  0  0  0  0  0  0  0
   10.4171  -19.1300   26.7876 O   0  0  0  0  0  0  0  0  0  0  0  0
   12.6668  -19.2565   26.4998 N   0  0  0  0  0  0  0  0  0  0  0  0
   12.6155  -20.7213   26.2801 C   0  0  1  0  0  0  0  0  0  0  0  0
   13.8282  -21.1732   25.5490 C   0  0  0  0  0  0  0  0  0  0  0  0
   13.7740  -22.6486   25.2794 C   0  0  0  0  0  0  0  0  0  0  0  0
   15.1018  -23.1203   24.6894 C   0  0  0  0  0  0  0  0  0  0  0  0
   15.0898  -24.5943   24.4151 C   0  0  0  0  0  0  0  0  0  0  0  0
   16.3673  -24.9971   23.8884 N   0  0  0  0  0  0  0  0  0  0  0  0
   12.5490  -21.3358   27.6166 C   0  0  0  0  0  0  0  0  0  0  0  0
   13.0978  -20.8807   28.6559 O   0  0  0  0  0  0  0  0  0  0  0  0
   11.8187  -22.5293   27.7720 O   0  0  0  0  0  0  0  0  0  0  0  0
  2  1  1  6
  2  3  1  0
  3  4  1  0
  4  5  2  0
  5  6  1  0
  7  8  2  0
  7  6  1  0
  9  8  1  0
 10  9  2  0
 11 10  1  0
 11 12  2  0
 12  4  1  0
 12  7  1  0
 13  2  1  0
 13 20  1  0
 14 13  2  0
 15 16  1  0
 16 18  1  0
 16 17  2  0
 19 20  1  0
 19 18  1  1
 21 19  1  0
 22 21  2  0
 23 21  1  0
 24 23  1  0
 24 25  1  1
 25 26  1  0
 27 26  1  0
 27 28  1  0
 28 29  1  0
 30 24  1  0
 30 32  1  0
 31 30  2  0
M  END
$$$$
