WNK.pdb
     RDKit          3D

 32 33  0  0  1  0  0  0  0  0999 V2000
    6.5940  -17.3098   25.5648 N   0  0  0  0  0  0  0  0  0  0  0  0
    7.3927  -17.1674   24.3457 C   0  0  1  0  0  0  0  0  0  0  0  0
    7.6420  -15.7044   24.0533 C   0  0  0  0  0  0  0  0  0  0  0  0
    7.0631  -14.8779   25.1364 C   0  0  0  0  0  0  0  0  0  0  0  0
    6.3004  -15.2904   26.2061 C   0  0  0  0  0  0  0  0  0  0  0  0
    5.9632  -14.2172   26.9643 N   0  0  0  0  0  0  0  0  0  0  0  0
    6.4775  -13.1085   26.4316 C   0  0  0  0  0  0  0  0  0  0  0  0
    6.4196  -11.7872   26.8196 C   0  0  0  0  0  0  0  0  0  0  0  0
    7.0713  -10.8613   26.0351 C   0  0  0  0  0  0  0  0  0  0  0  0
    7.7599  -11.2355   24.8998 C   0  0  0  0  0  0  0  0  0  0  0  0
    7.8046  -12.5672   24.5298 C   0  0  0  0  0  0  0  0  0  0  0  0
    7.1661  -13.4977   25.2928 C   0  0  0  0  0  0  0  0  0  0  0  0
    8.7034  -17.8378   24.5014 C   0  0  0  0  0  0  0  0  0  0  0  0
    9.3960  -17.6350   25.5037 O   0  0  0  0  0  0  0  0  0  0  0  0
   12.0110  -22.0885   21.5770 N   0  0  0  0  0  0  0  0  0  0  0  0
   11.6542  -21.3766   22.7353 C   0  0  0  0  0  0  0  0  0  0  0  0
   12.4221  -21.3800   23.7191 O   0  0  0  0  0  0  0  0  0  0  0  0
   10.3914  -20.6326   22.7978 C   0  0  0  0  0  0  0  0  0  0  0  0
   10.4673  -19.2851   23.4187 C   0  0  2  0  0  0  0  0  0  0  0  0
    9.1432  -18.7122   23.4799 N   0  0  0  0  0  0  0  0  0  0  0  0
   11.3213  -18.3349   22.6697 C   0  0  0  0  0  0  0  0  0  0  0  0
   12.4898  -18.6594   22.3473 O   0  0  0  0  0  0  0  0  0  0  0  0
   10.8960  -17.0423   22.2797 N   0  0  0  0  0  0  0  0  0  0  0  0
   11.7701  -16.1316   21.5031 C   0  0  1  0  0  0  0  0  0  0  0  0
   11.0587  -14.8587   21.2158 C   0  0  0  0  0  0  0  0  0  0  0  0
    9.8177  -15.1073   20.4092 C   0  0  0  0  0  0  0  0  0  0  0  0
    9.0751  -13.7929   20.1757 C   0  0  0  0  0  0  0  0  0  0  0  0
    8.5148  -13.7162   18.7871 C   0  0  0  0  0  0  0  0  0  0  0  0
    7.8170  -12.4688   18.6170 N   0  0  0  0  0  0  0  0  0  0  0  0
   12.9592  -15.8915   22.3377 C   0  0  0  0  0  0  0  0  0  0  0  0
   13.1216  -16.3151   23.5137 O   0  0  0  0  0  0  0  0  0  0  0  0
   14.0144  -15.1296   21.8010 O   0  0  0  0  0  0  0  0  0  0  0  0
  2  1  1  1
  2  3  1  0
  3  4  1  0
  4  5  2  0
  5  6  1  0
  7  8  2  0
  7  6  1  0
  9  8  1  0
 10  9  2  0
 11 10  1  0
 11 12  2  0
 12  4  1  0
 12  7  1  0
 13  2  1  0
 13 20  1  0
 14 13  2  0
 15 16  1  0
 16 18  1  0
 16 17  2  0
 19 20  1  0
 19 18  1  6
 21 19  1  0
 22 21  2  0
 23 21  1  0
 24 23  1  0
 24 25  1  1
 25 26  1  0
 27 26  1  0
 27 28  1  0
 28 29  1  0
 30 24  1  0
 30 32  1  0
 31 30  2  0
M  END
$$$$
