WNK.pdb
     RDKit          3D

 32 33  0  0  1  0  0  0  0  0999 V2000
    6.4641  -17.8533   23.7466 N   0  0  0  0  0  0  0  0  0  0  0  0
    7.4181  -16.7610   23.5437 C   0  0  1  0  0  0  0  0  0  0  0  0
    7.9788  -16.3045   24.8723 C   0  0  0  0  0  0  0  0  0  0  0  0
    7.0869  -15.2793   25.4596 C   0  0  0  0  0  0  0  0  0  0  0  0
    5.8877  -15.4669   26.1100 C   0  0  0  0  0  0  0  0  0  0  0  0
    5.3835  -14.2658   26.4888 N   0  0  0  0  0  0  0  0  0  0  0  0
    6.2094  -13.2899   26.1105 C   0  0  0  0  0  0  0  0  0  0  0  0
    6.1466  -11.9210   26.2575 C   0  0  0  0  0  0  0  0  0  0  0  0
    7.1835  -11.1743   25.7428 C   0  0  0  0  0  0  0  0  0  0  0  0
    8.2506  -11.7684   25.1014 C   0  0  0  0  0  0  0  0  0  0  0  0
    8.2924  -13.1440   24.9655 C   0  0  0  0  0  0  0  0  0  0  0  0
    7.2763  -13.8995   25.4679 C   0  0  0  0  0  0  0  0  0  0  0  0
    8.5459  -17.2067   22.6944 C   0  0  0  0  0  0  0  0  0  0  0  0
    8.7471  -18.4097   22.5004 O   0  0  0  0  0  0  0  0  0  0  0  0
    9.4862  -16.6226   18.9627 N   0  0  0  0  0  0  0  0  0  0  0  0
   10.3909  -15.5800   19.2275 C   0  0  0  0  0  0  0  0  0  0  0  0
   10.6643  -14.7606   18.3267 O   0  0  0  0  0  0  0  0  0  0  0  0
   11.0145  -15.4471   20.5486 C   0  0  0  0  0  0  0  0  0  0  0  0
   10.6761  -16.5090   21.5310 C   0  0  2  0  0  0  0  0  0  0  0  0
    9.3848  -16.2273   22.1129 N   0  0  0  0  0  0  0  0  0  0  0  0
   11.6450  -16.6154   22.6458 C   0  0  0  0  0  0  0  0  0  0  0  0
   12.8574  -16.8334   22.4064 O   0  0  0  0  0  0  0  0  0  0  0  0
   11.2856  -16.4841   24.0087 N   0  0  0  0  0  0  0  0  0  0  0  0
   12.2475  -16.7596   25.1021 C   0  0  1  0  0  0  0  0  0  0  0  0
   11.5204  -17.0106   26.3739 C   0  0  0  0  0  0  0  0  0  0  0  0
   12.4737  -17.3735   27.4747 C   0  0  0  0  0  0  0  0  0  0  0  0
   11.7076  -17.5882   28.7788 C   0  0  0  0  0  0  0  0  0  0  0  0
   12.6367  -17.8411   29.9281 C   0  0  0  0  0  0  0  0  0  0  0  0
   11.8722  -18.1674   31.1033 N   0  0  0  0  0  0  0  0  0  0  0  0
   13.0096  -17.9499   24.6895 C   0  0  0  0  0  0  0  0  0  0  0  0
   12.5119  -19.0030   24.2078 O   0  0  0  0  0  0  0  0  0  0  0  0
   14.4099  -17.9351   24.8347 O   0  0  0  0  0  0  0  0  0  0  0  0
  2  1  1  1
  2  3  1  0
  3  4  1  0
  4  5  2  0
  5  6  1  0
  7  8  2  0
  7  6  1  0
  9  8  1  0
 10  9  2  0
 11 10  1  0
 11 12  2  0
 12  4  1  0
 12  7  1  0
 13  2  1  0
 13 20  1  0
 14 13  2  0
 15 16  1  0
 16 18  1  0
 16 17  2  0
 19 20  1  0
 19 18  1  6
 21 19  1  0
 22 21  2  0
 23 21  1  0
 24 23  1  0
 24 25  1  1
 25 26  1  0
 27 26  1  0
 27 28  1  0
 28 29  1  0
 30 24  1  0
 30 32  1  0
 31 30  2  0
M  END
$$$$
