WNK.pdb
     RDKit          3D

 32 33  0  0  1  0  0  0  0  0999 V2000
    6.2287  -18.6114   24.5522 N   0  0  0  0  0  0  0  0  0  0  0  0
    6.8919  -17.3413   24.2500 C   0  0  1  0  0  0  0  0  0  0  0  0
    7.6630  -16.8552   25.4571 C   0  0  0  0  0  0  0  0  0  0  0  0
    7.0224  -15.6336   25.9942 C   0  0  0  0  0  0  0  0  0  0  0  0
    5.8088  -15.5210   26.6351 C   0  0  0  0  0  0  0  0  0  0  0  0
    5.5866  -14.2235   26.9626 N   0  0  0  0  0  0  0  0  0  0  0  0
    6.6130  -13.4740   26.5596 C   0  0  0  0  0  0  0  0  0  0  0  0
    6.8597  -12.1213   26.6552 C   0  0  0  0  0  0  0  0  0  0  0  0
    8.0406  -11.6478   26.1272 C   0  0  0  0  0  0  0  0  0  0  0  0
    8.9493  -12.4914   25.5224 C   0  0  0  0  0  0  0  0  0  0  0  0
    8.6806  -13.8453   25.4378 C   0  0  0  0  0  0  0  0  0  0  0  0
    7.5180  -14.3325   25.9542 C   0  0  0  0  0  0  0  0  0  0  0  0
    7.8441  -17.5059   23.1284 C   0  0  0  0  0  0  0  0  0  0  0  0
    8.3295  -18.6131   22.8757 O   0  0  0  0  0  0  0  0  0  0  0  0
    9.3955  -15.5758   17.9643 N   0  0  0  0  0  0  0  0  0  0  0  0
    9.8227  -15.1419   19.2311 C   0  0  0  0  0  0  0  0  0  0  0  0
   10.9731  -14.6768   19.3651 O   0  0  0  0  0  0  0  0  0  0  0  0
    8.9315  -15.2306   20.3930 C   0  0  0  0  0  0  0  0  0  0  0  0
    9.1819  -16.3709   21.3117 C   0  0  2  0  0  0  0  0  0  0  0  0
    8.1846  -16.3706   22.3562 N   0  0  0  0  0  0  0  0  0  0  0  0
   10.5068  -16.3204   21.9714 C   0  0  0  0  0  0  0  0  0  0  0  0
   11.5544  -16.3556   21.2814 O   0  0  0  0  0  0  0  0  0  0  0  0
   10.6786  -16.2326   23.3737 N   0  0  0  0  0  0  0  0  0  0  0  0
   12.0228  -16.2047   23.9976 C   0  0  1  0  0  0  0  0  0  0  0  0
   11.9481  -16.6933   25.3993 C   0  0  0  0  0  0  0  0  0  0  0  0
   11.3636  -15.6468   26.3023 C   0  0  0  0  0  0  0  0  0  0  0  0
   11.2799  -16.1788   27.7319 C   0  0  0  0  0  0  0  0  0  0  0  0
   10.7416  -15.1440   28.6739 C   0  0  0  0  0  0  0  0  0  0  0  0
   10.6628  -15.6949   30.0014 N   0  0  0  0  0  0  0  0  0  0  0  0
   12.8743  -17.0845   23.1797 C   0  0  0  0  0  0  0  0  0  0  0  0
   12.5360  -18.2116   22.7280 O   0  0  0  0  0  0  0  0  0  0  0  0
   14.1768  -16.6541   22.8626 O   0  0  0  0  0  0  0  0  0  0  0  0
  2  1  1  1
  2  3  1  0
  3  4  1  0
  4  5  2  0
  5  6  1  0
  7  8  2  0
  7  6  1  0
  9  8  1  0
 10  9  2  0
 11 10  1  0
 11 12  2  0
 12  4  1  0
 12  7  1  0
 13  2  1  0
 13 20  1  0
 14 13  2  0
 15 16  1  0
 16 18  1  0
 16 17  2  0
 19 20  1  0
 19 18  1  6
 21 19  1  0
 22 21  2  0
 23 21  1  0
 24 23  1  0
 24 25  1  1
 25 26  1  0
 27 26  1  0
 27 28  1  0
 28 29  1  0
 30 24  1  0
 30 32  1  0
 31 30  2  0
M  END
$$$$
