WNK.pdb
     RDKit          3D

 32 33  0  0  1  0  0  0  0  0999 V2000
    5.6344  -17.8826   23.5470 N   0  0  0  0  0  0  0  0  0  0  0  0
    6.3528  -16.6120   23.4300 C   0  0  1  0  0  0  0  0  0  0  0  0
    7.3686  -16.4826   24.5434 C   0  0  0  0  0  0  0  0  0  0  0  0
    6.8559  -15.5528   25.5750 C   0  0  0  0  0  0  0  0  0  0  0  0
    5.9787  -15.8214   26.6019 C   0  0  0  0  0  0  0  0  0  0  0  0
    5.7604  -14.6916   27.3202 N   0  0  0  0  0  0  0  0  0  0  0  0
    6.4641  -13.6844   26.8025 C   0  0  0  0  0  0  0  0  0  0  0  0
    6.5801  -12.3596   27.1646 C   0  0  0  0  0  0  0  0  0  0  0  0
    7.4072  -11.5597   26.4071 C   0  0  0  0  0  0  0  0  0  0  0  0
    8.0983  -12.0597   25.3229 C   0  0  0  0  0  0  0  0  0  0  0  0
    7.9665  -13.3925   24.9780 C   0  0  0  0  0  0  0  0  0  0  0  0
    7.1532  -14.1993   25.7150 C   0  0  0  0  0  0  0  0  0  0  0  0
    7.0713  -16.5379   22.1377 C   0  0  0  0  0  0  0  0  0  0  0  0
    7.5056  -17.5627   21.6024 O   0  0  0  0  0  0  0  0  0  0  0  0
    8.8780  -12.1992   18.2586 N   0  0  0  0  0  0  0  0  0  0  0  0
    8.1824  -13.4083   18.4312 C   0  0  0  0  0  0  0  0  0  0  0  0
    8.0828  -14.2016   17.4729 O   0  0  0  0  0  0  0  0  0  0  0  0
    7.5744  -13.7446   19.7231 C   0  0  0  0  0  0  0  0  0  0  0  0
    7.9661  -15.0575   20.2976 C   0  0  2  0  0  0  0  0  0  0  0  0
    7.2490  -15.2716   21.5326 N   0  0  0  0  0  0  0  0  0  0  0  0
    9.4107  -15.1619   20.6063 C   0  0  0  0  0  0  0  0  0  0  0  0
   10.2608  -14.7337   19.7887 O   0  0  0  0  0  0  0  0  0  0  0  0
    9.9154  -15.7309   21.8002 N   0  0  0  0  0  0  0  0  0  0  0  0
   11.3703  -15.8611   22.0513 C   0  0  1  0  0  0  0  0  0  0  0  0
   11.6079  -16.5812   23.3296 C   0  0  0  0  0  0  0  0  0  0  0  0
   11.0809  -15.7953   24.4945 C   0  0  0  0  0  0  0  0  0  0  0  0
   11.3219  -16.5625   25.7934 C   0  0  0  0  0  0  0  0  0  0  0  0
   10.8375  -15.7930   26.9855 C   0  0  0  0  0  0  0  0  0  0  0  0
   11.0588  -16.5649   28.1801 N   0  0  0  0  0  0  0  0  0  0  0  0
   11.9182  -16.6177   20.9130 C   0  0  0  0  0  0  0  0  0  0  0  0
   11.2352  -17.1774   20.0137 O   0  0  0  0  0  0  0  0  0  0  0  0
   13.3160  -16.7400   20.7976 O   0  0  0  0  0  0  0  0  0  0  0  0
  2  1  1  1
  2  3  1  0
  3  4  1  0
  4  5  2  0
  5  6  1  0
  7  8  2  0
  7  6  1  0
  9  8  1  0
 10  9  2  0
 11 10  1  0
 11 12  2  0
 12  4  1  0
 12  7  1  0
 13  2  1  0
 13 20  1  0
 14 13  2  0
 15 16  1  0
 16 18  1  0
 16 17  2  0
 19 20  1  0
 19 18  1  1
 21 19  1  0
 22 21  2  0
 23 21  1  0
 24 23  1  0
 24 25  1  1
 25 26  1  0
 27 26  1  0
 27 28  1  0
 28 29  1  0
 30 24  1  0
 30 32  1  0
 31 30  2  0
M  END
$$$$
