WNK.pdb
     RDKit          3D

 32 33  0  0  1  0  0  0  0  0999 V2000
    6.8241  -17.6306   24.4986 N   0  0  0  0  0  0  0  0  0  0  0  0
    7.7038  -16.5991   23.9451 C   0  0  1  0  0  0  0  0  0  0  0  0
    8.1967  -15.6876   25.0471 C   0  0  0  0  0  0  0  0  0  0  0  0
    7.0971  -14.7965   25.4808 C   0  0  0  0  0  0  0  0  0  0  0  0
    5.8790  -15.1482   26.0183 C   0  0  0  0  0  0  0  0  0  0  0  0
    5.1550  -14.0297   26.2733 N   0  0  0  0  0  0  0  0  0  0  0  0
    5.8537  -12.9498   25.9222 C   0  0  0  0  0  0  0  0  0  0  0  0
    5.5616  -11.6041   25.9811 C   0  0  0  0  0  0  0  0  0  0  0  0
    6.5181  -10.7218   25.5292 C   0  0  0  0  0  0  0  0  0  0  0  0
    7.7280  -11.1618   25.0337 C   0  0  0  0  0  0  0  0  0  0  0  0
    7.9993  -12.5170   24.9841 C   0  0  0  0  0  0  0  0  0  0  0  0
    7.0659  -13.4051   25.4264 C   0  0  0  0  0  0  0  0  0  0  0  0
    8.8816  -17.2152   23.2932 C   0  0  0  0  0  0  0  0  0  0  0  0
    9.2819  -18.3291   23.6458 O   0  0  0  0  0  0  0  0  0  0  0  0
   10.0288  -17.9657   18.5326 N   0  0  0  0  0  0  0  0  0  0  0  0
    9.8256  -16.7678   19.2394 C   0  0  0  0  0  0  0  0  0  0  0  0
    8.8064  -16.0849   19.0101 O   0  0  0  0  0  0  0  0  0  0  0  0
   10.7975  -16.3149   20.2405 C   0  0  0  0  0  0  0  0  0  0  0  0
   10.7107  -16.9756   21.5683 C   0  0  2  0  0  0  0  0  0  0  0  0
    9.5360  -16.5017   22.2617 N   0  0  0  0  0  0  0  0  0  0  0  0
   11.8747  -16.7039   22.4425 C   0  0  0  0  0  0  0  0  0  0  0  0
   12.3484  -15.5442   22.5164 O   0  0  0  0  0  0  0  0  0  0  0  0
   12.5113  -17.6957   23.2267 N   0  0  0  0  0  0  0  0  0  0  0  0
   13.5898  -17.3616   24.1868 C   0  0  1  0  0  0  0  0  0  0  0  0
   13.6289  -18.3639   25.2837 C   0  0  0  0  0  0  0  0  0  0  0  0
   12.4249  -18.2365   26.1705 C   0  0  0  0  0  0  0  0  0  0  0  0
   12.5046  -19.2534   27.3078 C   0  0  0  0  0  0  0  0  0  0  0  0
   11.2715  -19.2239   28.1602 C   0  0  0  0  0  0  0  0  0  0  0  0
   11.4127  -20.1598   29.2447 N   0  0  0  0  0  0  0  0  0  0  0  0
   14.8451  -17.3766   23.4172 C   0  0  0  0  0  0  0  0  0  0  0  0
   14.9747  -17.8165   22.2431 O   0  0  0  0  0  0  0  0  0  0  0  0
   16.0092  -16.8632   24.0199 O   0  0  0  0  0  0  0  0  0  0  0  0
  2  1  1  1
  2  3  1  0
  3  4  1  0
  4  5  2  0
  5  6  1  0
  7  8  2  0
  7  6  1  0
  9  8  1  0
 10  9  2  0
 11 10  1  0
 11 12  2  0
 12  4  1  0
 12  7  1  0
 13  2  1  0
 13 20  1  0
 14 13  2  0
 15 16  1  0
 16 18  1  0
 16 17  2  0
 19 20  1  0
 19 18  1  6
 21 19  1  0
 22 21  2  0
 23 21  1  0
 24 23  1  0
 24 25  1  1
 25 26  1  0
 27 26  1  0
 27 28  1  0
 28 29  1  0
 30 24  1  0
 30 32  1  0
 31 30  2  0
M  END
$$$$
