WNK.pdb
     RDKit          3D

 32 33  0  0  1  0  0  0  0  0999 V2000
    6.4781  -17.8135   24.4710 N   0  0  0  0  0  0  0  0  0  0  0  0
    7.4208  -16.7881   24.0190 C   0  0  1  0  0  0  0  0  0  0  0  0
    8.0290  -16.0781   25.2082 C   0  0  0  0  0  0  0  0  0  0  0  0
    7.0823  -15.0579   25.7124 C   0  0  0  0  0  0  0  0  0  0  0  0
    5.8962  -15.2560   26.3834 C   0  0  0  0  0  0  0  0  0  0  0  0
    5.3266  -14.0569   26.6629 N   0  0  0  0  0  0  0  0  0  0  0  0
    6.0965  -13.0723   26.1991 C   0  0  0  0  0  0  0  0  0  0  0  0
    5.9580  -11.7013   26.2310 C   0  0  0  0  0  0  0  0  0  0  0  0
    6.9513  -10.9446   25.6493 C   0  0  0  0  0  0  0  0  0  0  0  0
    8.0489  -11.5308   25.0538 C   0  0  0  0  0  0  0  0  0  0  0  0
    8.1668  -12.9086   25.0336 C   0  0  0  0  0  0  0  0  0  0  0  0
    7.1948  -13.6739   25.6037 C   0  0  0  0  0  0  0  0  0  0  0  0
    8.5176  -17.3995   23.2348 C   0  0  0  0  0  0  0  0  0  0  0  0
    8.8850  -18.5556   23.4668 O   0  0  0  0  0  0  0  0  0  0  0  0
   11.7278  -17.6955   18.7633 N   0  0  0  0  0  0  0  0  0  0  0  0
   11.6900  -16.4977   19.4978 C   0  0  0  0  0  0  0  0  0  0  0  0
   12.6538  -15.7074   19.4337 O   0  0  0  0  0  0  0  0  0  0  0  0
   10.5318  -16.1697   20.3362 C   0  0  0  0  0  0  0  0  0  0  0  0
   10.3598  -17.0045   21.5530 C   0  0  2  0  0  0  0  0  0  0  0  0
    9.1332  -16.6323   22.2181 N   0  0  0  0  0  0  0  0  0  0  0  0
   11.4557  -16.8504   22.5371 C   0  0  0  0  0  0  0  0  0  0  0  0
   11.9279  -15.7133   22.7793 O   0  0  0  0  0  0  0  0  0  0  0  0
   12.0265  -17.9340   23.2468 N   0  0  0  0  0  0  0  0  0  0  0  0
   13.1380  -17.7415   24.2082 C   0  0  1  0  0  0  0  0  0  0  0  0
   13.1309  -18.8260   25.2246 C   0  0  0  0  0  0  0  0  0  0  0  0
   11.9280  -18.7189   26.1156 C   0  0  0  0  0  0  0  0  0  0  0  0
   11.7894  -19.9847   26.9596 C   0  0  0  0  0  0  0  0  0  0  0  0
   10.7171  -19.8399   27.9974 C   0  0  0  0  0  0  0  0  0  0  0  0
   10.5700  -21.0790   28.7148 N   0  0  0  0  0  0  0  0  0  0  0  0
   14.3782  -17.7737   23.4150 C   0  0  0  0  0  0  0  0  0  0  0  0
   15.4765  -17.2596   23.7588 O   0  0  0  0  0  0  0  0  0  0  0  0
   14.3615  -18.4259   22.1675 O   0  0  0  0  0  0  0  0  0  0  0  0
  2  1  1  1
  2  3  1  0
  3  4  1  0
  4  5  2  0
  5  6  1  0
  7  8  2  0
  7  6  1  0
  9  8  1  0
 10  9  2  0
 11 10  1  0
 11 12  2  0
 12  4  1  0
 12  7  1  0
 13  2  1  0
 13 20  1  0
 14 13  2  0
 15 16  1  0
 16 18  1  0
 16 17  2  0
 19 20  1  0
 19 18  1  6
 21 19  1  0
 22 21  2  0
 23 21  1  0
 24 23  1  0
 24 25  1  1
 25 26  1  0
 27 26  1  0
 27 28  1  0
 28 29  1  0
 30 24  1  0
 30 32  1  0
 31 30  2  0
M  END
$$$$
