WNK.pdb
     RDKit          3D

 32 33  0  0  1  0  0  0  0  0999 V2000
    6.3237  -17.2586   23.8341 N   0  0  0  0  0  0  0  0  0  0  0  0
    7.0862  -16.0934   23.3812 C   0  0  1  0  0  0  0  0  0  0  0  0
    8.0088  -15.6145   24.4801 C   0  0  0  0  0  0  0  0  0  0  0  0
    7.2252  -14.8806   25.4992 C   0  0  0  0  0  0  0  0  0  0  0  0
    6.4087  -15.3983   26.4798 C   0  0  0  0  0  0  0  0  0  0  0  0
    5.8684  -14.3855   27.2027 N   0  0  0  0  0  0  0  0  0  0  0  0
    6.3005  -13.2150   26.7328 C   0  0  0  0  0  0  0  0  0  0  0  0
    6.0454  -11.9165   27.1184 C   0  0  0  0  0  0  0  0  0  0  0  0
    6.6613  -10.9070   26.4119 C   0  0  0  0  0  0  0  0  0  0  0  0
    7.5050  -11.1780   25.3547 C   0  0  0  0  0  0  0  0  0  0  0  0
    7.7463  -12.4887   24.9854 C   0  0  0  0  0  0  0  0  0  0  0  0
    7.1463  -13.5008   25.6720 C   0  0  0  0  0  0  0  0  0  0  0  0
    7.9118  -16.4384   22.2018 C   0  0  0  0  0  0  0  0  0  0  0  0
    8.3369  -17.5879   22.0490 O   0  0  0  0  0  0  0  0  0  0  0  0
    7.1393  -12.9734   18.8622 N   0  0  0  0  0  0  0  0  0  0  0  0
    7.9148  -14.1237   18.6365 C   0  0  0  0  0  0  0  0  0  0  0  0
    7.5276  -14.9723   17.8073 O   0  0  0  0  0  0  0  0  0  0  0  0
    9.1706  -14.3350   19.3647 C   0  0  0  0  0  0  0  0  0  0  0  0
    9.2162  -15.5375   20.2359 C   0  0  2  0  0  0  0  0  0  0  0  0
    8.2021  -15.4256   21.2578 N   0  0  0  0  0  0  0  0  0  0  0  0
   10.5140  -15.7210   20.9251 C   0  0  0  0  0  0  0  0  0  0  0  0
   10.6871  -15.2503   22.0754 O   0  0  0  0  0  0  0  0  0  0  0  0
   11.6096  -16.4139   20.3563 N   0  0  0  0  0  0  0  0  0  0  0  0
   12.4279  -17.3660   21.1441 C   0  0  1  0  0  0  0  0  0  0  0  0
   11.6670  -18.6199   21.3844 C   0  0  0  0  0  0  0  0  0  0  0  0
   12.5381  -19.6629   22.0213 C   0  0  0  0  0  0  0  0  0  0  0  0
   12.2234  -19.7659   23.5126 C   0  0  0  0  0  0  0  0  0  0  0  0
   13.0210  -20.8521   24.1700 C   0  0  0  0  0  0  0  0  0  0  0  0
   12.6281  -20.9712   25.5496 N   0  0  0  0  0  0  0  0  0  0  0  0
   13.6358  -17.6300   20.3444 C   0  0  0  0  0  0  0  0  0  0  0  0
   14.8040  -17.7418   20.8041 O   0  0  0  0  0  0  0  0  0  0  0  0
   13.5008  -17.7734   18.9503 O   0  0  0  0  0  0  0  0  0  0  0  0
  2  1  1  1
  2  3  1  0
  3  4  1  0
  4  5  2  0
  5  6  1  0
  7  8  2  0
  7  6  1  0
  9  8  1  0
 10  9  2  0
 11 10  1  0
 11 12  2  0
 12  4  1  0
 12  7  1  0
 13  2  1  0
 13 20  1  0
 14 13  2  0
 15 16  1  0
 16 18  1  0
 16 17  2  0
 19 20  1  0
 19 18  1  1
 21 19  1  0
 22 21  2  0
 23 21  1  0
 24 23  1  0
 24 25  1  6
 25 26  1  0
 27 26  1  0
 27 28  1  0
 28 29  1  0
 30 24  1  0
 30 32  1  0
 31 30  2  0
M  END
$$$$
