WNK.pdb
     RDKit          3D

 32 33  0  0  1  0  0  0  0  0999 V2000
    5.7775  -17.7269   24.0039 N   0  0  0  0  0  0  0  0  0  0  0  0
    6.3399  -16.4006   23.7414 C   0  0  1  0  0  0  0  0  0  0  0  0
    7.2702  -15.9970   24.8638 C   0  0  0  0  0  0  0  0  0  0  0  0
    6.5989  -15.0007   25.7286 C   0  0  0  0  0  0  0  0  0  0  0  0
    5.6466  -15.2205   26.6988 C   0  0  0  0  0  0  0  0  0  0  0  0
    5.2844  -14.0379   27.2560 N   0  0  0  0  0  0  0  0  0  0  0  0
    5.9653  -13.0431   26.6866 C   0  0  0  0  0  0  0  0  0  0  0  0
    5.9563  -11.6811   26.8979 C   0  0  0  0  0  0  0  0  0  0  0  0
    6.7970  -10.9088   26.1268 C   0  0  0  0  0  0  0  0  0  0  0  0
    7.6217  -11.4714   25.1748 C   0  0  0  0  0  0  0  0  0  0  0  0
    7.6139  -12.8405   24.9801 C   0  0  0  0  0  0  0  0  0  0  0  0
    6.7894  -13.6210   25.7329 C   0  0  0  0  0  0  0  0  0  0  0  0
    7.1129  -16.4041   22.4788 C   0  0  0  0  0  0  0  0  0  0  0  0
    7.6201  -17.4484   22.0573 O   0  0  0  0  0  0  0  0  0  0  0  0
    7.5533  -13.4628   17.5561 N   0  0  0  0  0  0  0  0  0  0  0  0
    8.3985  -13.4426   18.6790 C   0  0  0  0  0  0  0  0  0  0  0  0
    9.6184  -13.2281   18.5255 O   0  0  0  0  0  0  0  0  0  0  0  0
    7.8614  -13.6709   20.0248 C   0  0  0  0  0  0  0  0  0  0  0  0
    8.0470  -15.0408   20.5691 C   0  0  2  0  0  0  0  0  0  0  0  0
    7.2574  -15.1890   21.7690 N   0  0  0  0  0  0  0  0  0  0  0  0
    9.4501  -15.3511   20.9271 C   0  0  0  0  0  0  0  0  0  0  0  0
   10.3305  -15.4001   20.0343 O   0  0  0  0  0  0  0  0  0  0  0  0
    9.8807  -15.6050   22.2514 N   0  0  0  0  0  0  0  0  0  0  0  0
   11.2729  -16.0107   22.5578 C   0  0  1  0  0  0  0  0  0  0  0  0
   11.3592  -16.5432   23.9427 C   0  0  0  0  0  0  0  0  0  0  0  0
   12.7410  -17.0483   24.2387 C   0  0  0  0  0  0  0  0  0  0  0  0
   12.7911  -17.6364   25.6477 C   0  0  0  0  0  0  0  0  0  0  0  0
   14.1669  -18.1217   25.9934 C   0  0  0  0  0  0  0  0  0  0  0  0
   14.2126  -18.4914   27.3837 N   0  0  0  0  0  0  0  0  0  0  0  0
   11.6252  -17.0479   21.5737 C   0  0  0  0  0  0  0  0  0  0  0  0
   10.9294  -18.0640   21.3052 O   0  0  0  0  0  0  0  0  0  0  0  0
   12.8326  -16.9165   20.8618 O   0  0  0  0  0  0  0  0  0  0  0  0
  2  1  1  1
  2  3  1  0
  3  4  1  0
  4  5  2  0
  5  6  1  0
  7  8  2  0
  7  6  1  0
  9  8  1  0
 10  9  2  0
 11 10  1  0
 11 12  2  0
 12  4  1  0
 12  7  1  0
 13  2  1  0
 13 20  1  0
 14 13  2  0
 15 16  1  0
 16 18  1  0
 16 17  2  0
 19 20  1  0
 19 18  1  1
 21 19  1  0
 22 21  2  0
 23 21  1  0
 24 23  1  0
 24 25  1  1
 25 26  1  0
 27 26  1  0
 27 28  1  0
 28 29  1  0
 30 24  1  0
 30 32  1  0
 31 30  2  0
M  END
$$$$
