WNK.pdb
     RDKit          3D

 32 33  0  0  1  0  0  0  0  0999 V2000
   10.6123  -16.9687   18.9163 N   0  0  0  0  0  0  0  0  0  0  0  0
   11.4178  -15.7939   19.2559 C   0  0  1  0  0  0  0  0  0  0  0  0
   11.0426  -15.2834   20.6295 C   0  0  0  0  0  0  0  0  0  0  0  0
    9.6364  -14.8212   20.6183 C   0  0  0  0  0  0  0  0  0  0  0  0
    8.5778  -15.2994   21.3578 C   0  0  0  0  0  0  0  0  0  0  0  0
    7.4548  -14.6056   21.0449 N   0  0  0  0  0  0  0  0  0  0  0  0
    7.7354  -13.6844   20.1230 C   0  0  0  0  0  0  0  0  0  0  0  0
    6.9499  -12.7457   19.4894 C   0  0  0  0  0  0  0  0  0  0  0  0
    7.5558  -11.9237   18.5647 C   0  0  0  0  0  0  0  0  0  0  0  0
    8.9008  -12.0302   18.2777 C   0  0  0  0  0  0  0  0  0  0  0  0
    9.6697  -12.9796   18.9258 C   0  0  0  0  0  0  0  0  0  0  0  0
    9.0885  -13.8017   19.8434 C   0  0  0  0  0  0  0  0  0  0  0  0
   12.8581  -16.1365   19.2674 C   0  0  0  0  0  0  0  0  0  0  0  0
   13.2294  -17.2736   19.5747 O   0  0  0  0  0  0  0  0  0  0  0  0
   15.3820  -13.4518   16.0815 N   0  0  0  0  0  0  0  0  0  0  0  0
   16.0050  -14.3545   16.9605 C   0  0  0  0  0  0  0  0  0  0  0  0
   16.6362  -15.3263   16.4970 O   0  0  0  0  0  0  0  0  0  0  0  0
   15.9198  -14.1652   18.4127 C   0  0  0  0  0  0  0  0  0  0  0  0
   15.2157  -15.2372   19.1623 C   0  0  2  0  0  0  0  0  0  0  0  0
   13.7957  -15.1357   18.9203 N   0  0  0  0  0  0  0  0  0  0  0  0
   15.4164  -15.1654   20.6278 C   0  0  0  0  0  0  0  0  0  0  0  0
   14.9201  -14.2183   21.2846 O   0  0  0  0  0  0  0  0  0  0  0  0
   16.1545  -16.1236   21.3633 N   0  0  0  0  0  0  0  0  0  0  0  0
   16.1863  -16.1183   22.8450 C   0  0  1  0  0  0  0  0  0  0  0  0
   15.5276  -17.3400   23.3767 C   0  0  0  0  0  0  0  0  0  0  0  0
   15.7234  -17.4532   24.8603 C   0  0  0  0  0  0  0  0  0  0  0  0
   15.1816  -18.7922   25.3575 C   0  0  0  0  0  0  0  0  0  0  0  0
   15.3740  -18.9492   26.8361 C   0  0  0  0  0  0  0  0  0  0  0  0
   14.8705  -20.2312   27.2544 N   0  0  0  0  0  0  0  0  0  0  0  0
   17.6081  -16.0806   23.2259 C   0  0  0  0  0  0  0  0  0  0  0  0
   18.0464  -15.8384   24.3826 O   0  0  0  0  0  0  0  0  0  0  0  0
   18.5763  -16.3324   22.2353 O   0  0  0  0  0  0  0  0  0  0  0  0
  2  1  1  1
  2  3  1  0
  3  4  1  0
  4  5  2  0
  5  6  1  0
  7  8  2  0
  7  6  1  0
  9  8  1  0
 10  9  2  0
 11 10  1  0
 11 12  2  0
 12  4  1  0
 12  7  1  0
 13  2  1  0
 13 20  1  0
 14 13  2  0
 15 16  1  0
 16 18  1  0
 16 17  2  0
 19 20  1  0
 19 18  1  6
 21 19  1  0
 22 21  2  0
 23 21  1  0
 24 23  1  0
 24 25  1  1
 25 26  1  0
 27 26  1  0
 27 28  1  0
 28 29  1  0
 30 24  1  0
 30 32  1  0
 31 30  2  0
M  END
$$$$
