WNK.pdb
     RDKit          3D

 32 33  0  0  1  0  0  0  0  0999 V2000
    6.9628  -17.5467   24.3121 N   0  0  0  0  0  0  0  0  0  0  0  0
    7.9087  -16.5244   23.8597 C   0  0  1  0  0  0  0  0  0  0  0  0
    8.4585  -15.7615   25.0445 C   0  0  0  0  0  0  0  0  0  0  0  0
    7.3982  -14.8987   25.6124 C   0  0  0  0  0  0  0  0  0  0  0  0
    6.2555  -15.2819   26.2786 C   0  0  0  0  0  0  0  0  0  0  0  0
    5.5438  -14.1818   26.6299 N   0  0  0  0  0  0  0  0  0  0  0  0
    6.1777  -13.0835   26.2182 C   0  0  0  0  0  0  0  0  0  0  0  0
    5.8687  -11.7449   26.3293 C   0  0  0  0  0  0  0  0  0  0  0  0
    6.7510  -10.8376   25.7854 C   0  0  0  0  0  0  0  0  0  0  0  0
    7.9053  -11.2466   25.1503 C   0  0  0  0  0  0  0  0  0  0  0  0
    8.1950  -12.5951   25.0506 C   0  0  0  0  0  0  0  0  0  0  0  0
    7.3346  -13.5076   25.5823 C   0  0  0  0  0  0  0  0  0  0  0  0
    9.0446  -17.1476   23.1434 C   0  0  0  0  0  0  0  0  0  0  0  0
    9.4186  -18.2884   23.4336 O   0  0  0  0  0  0  0  0  0  0  0  0
    9.7630  -17.2742   19.2702 N   0  0  0  0  0  0  0  0  0  0  0  0
   10.6425  -16.1778   19.2816 C   0  0  0  0  0  0  0  0  0  0  0  0
   10.8273  -15.5279   18.2322 O   0  0  0  0  0  0  0  0  0  0  0  0
   11.3428  -15.7923   20.5116 C   0  0  0  0  0  0  0  0  0  0  0  0
   11.0549  -16.6275   21.7060 C   0  0  2  0  0  0  0  0  0  0  0  0
    9.6899  -16.4095   22.1236 N   0  0  0  0  0  0  0  0  0  0  0  0
   11.9222  -16.3206   22.8665 C   0  0  0  0  0  0  0  0  0  0  0  0
   11.9715  -15.1528   23.3230 O   0  0  0  0  0  0  0  0  0  0  0  0
   12.7265  -17.2863   23.5179 N   0  0  0  0  0  0  0  0  0  0  0  0
   13.5759  -16.9410   24.6823 C   0  0  1  0  0  0  0  0  0  0  0  0
   13.4014  -17.9480   25.7614 C   0  0  0  0  0  0  0  0  0  0  0  0
   13.6498  -19.3356   25.2463 C   0  0  0  0  0  0  0  0  0  0  0  0
   12.8356  -20.3453   26.0533 C   0  0  0  0  0  0  0  0  0  0  0  0
   12.9532  -21.7276   25.4847 C   0  0  0  0  0  0  0  0  0  0  0  0
   12.3621  -22.6746   26.3933 N   0  0  0  0  0  0  0  0  0  0  0  0
   14.9640  -16.9333   24.1911 C   0  0  0  0  0  0  0  0  0  0  0  0
   15.3353  -17.3186   23.0499 O   0  0  0  0  0  0  0  0  0  0  0  0
   15.9773  -16.4615   25.0471 O   0  0  0  0  0  0  0  0  0  0  0  0
  2  1  1  1
  2  3  1  0
  3  4  1  0
  4  5  2  0
  5  6  1  0
  7  8  2  0
  7  6  1  0
  9  8  1  0
 10  9  2  0
 11 10  1  0
 11 12  2  0
 12  4  1  0
 12  7  1  0
 13  2  1  0
 13 20  1  0
 14 13  2  0
 15 16  1  0
 16 18  1  0
 16 17  2  0
 19 20  1  0
 19 18  1  6
 21 19  1  0
 22 21  2  0
 23 21  1  0
 24 23  1  0
 24 25  1  1
 25 26  1  0
 27 26  1  0
 27 28  1  0
 28 29  1  0
 30 24  1  0
 30 32  1  0
 31 30  2  0
M  END
$$$$
