HQH.pdb
     RDKit          3D

 30 31  0  0  1  0  0  0  0  0999 V2000
    9.2521  -15.7583   19.7124 N   0  0  0  0  0  0  0  0  0  0  0  0
    8.3063  -14.9108   20.4117 C   0  0  1  0  0  0  0  0  0  0  0  0
    7.0630  -14.6717   19.6120 C   0  0  0  0  0  0  0  0  0  0  0  0
    7.4352  -14.2091   18.2578 C   0  0  0  0  0  0  0  0  0  0  0  0
    7.9595  -12.9931   17.9171 C   0  0  0  0  0  0  0  0  0  0  0  0
    8.1642  -12.9382   16.5911 N   0  0  0  0  0  0  0  0  0  0  0  0
    7.7670  -14.1221   16.1023 C   0  0  0  0  0  0  0  0  0  0  0  0
    7.3167  -14.9187   17.0986 N   0  0  0  0  0  0  0  0  0  0  0  0
    7.9973  -15.5561   21.7317 C   0  0  0  0  0  0  0  0  0  0  0  0
    7.1583  -15.0535   22.5166 O   0  0  0  0  0  0  0  0  0  0  0  0
    9.2352  -21.4678   22.9184 N   0  0  0  0  0  0  0  0  0  0  0  0
    9.9728  -20.5801   22.1054 C   0  0  0  0  0  0  0  0  0  0  0  0
   10.7693  -21.0385   21.2622 O   0  0  0  0  0  0  0  0  0  0  0  0
    9.7917  -19.1265   22.2640 C   0  0  0  0  0  0  0  0  0  0  0  0
    8.7800  -18.8273   23.3508 C   0  0  0  0  0  0  0  0  0  0  0  0
    8.5146  -17.3492   23.4482 C   0  0  2  0  0  0  0  0  0  0  0  0
    8.6344  -16.7527   22.1477 N   0  0  0  0  0  0  0  0  0  0  0  0
    9.4542  -16.7776   24.4349 C   0  0  0  0  0  0  0  0  0  0  0  0
   10.1676  -15.8074   24.0725 O   0  0  0  0  0  0  0  0  0  0  0  0
    9.5997  -17.2511   25.7523 N   0  0  0  0  0  0  0  0  0  0  0  0
    9.3881  -16.4463   26.9442 C   0  0  1  0  0  0  0  0  0  0  0  0
    7.9463  -15.9947   26.8756 C   0  0  0  0  0  0  0  0  0  0  0  0
    7.7599  -14.5455   26.8576 C   0  0  0  0  0  0  0  0  0  0  0  0
    8.6984  -13.5451   26.9426 C   0  0  0  0  0  0  0  0  0  0  0  0
    8.0965  -12.3356   26.8935 N   0  0  0  0  0  0  0  0  0  0  0  0
    6.7704  -12.5773   26.7769 C   0  0  0  0  0  0  0  0  0  0  0  0
    6.5700  -13.9144   26.7555 N   0  0  0  0  0  0  0  0  0  0  0  0
    9.5717  -17.2198   28.1805 C   0  0  0  0  0  0  0  0  0  0  0  0
   10.0535  -16.5944   29.3058 O   0  0  0  0  0  0  0  0  0  0  0  0
    9.2958  -18.4296   28.2161 O   0  0  0  0  0  0  0  0  0  0  0  0
  2  1  1  6
  2  3  1  0
  3  4  1  0
  4  8  1  0
  5  4  2  0
  5  6  1  0
  6  7  1  0
  8  7  2  0
  9 17  1  0
  9  2  1  0
 10  9  2  0
 11 12  1  0
 12 14  1  0
 13 12  2  0
 14 15  1  0
 16 15  1  6
 16 17  1  0
 18 16  1  0
 19 18  2  0
 20 18  1  0
 21 28  1  0
 21 20  1  0
 21 22  1  6
 22 23  1  0
 23 24  2  0
 24 25  1  0
 26 25  1  0
 27 23  1  0
 27 26  2  0
 28 29  1  0
 30 28  2  0
M  END
$$$$
