HQH.pdb
     RDKit          3D

 30 31  0  0  1  0  0  0  0  0999 V2000
    7.5697  -17.2341   19.1939 N   0  0  0  0  0  0  0  0  0  0  0  0
    7.5682  -16.0071   19.9660 C   0  0  1  0  0  0  0  0  0  0  0  0
    6.7237  -14.9435   19.3351 C   0  0  0  0  0  0  0  0  0  0  0  0
    7.3495  -14.5118   18.0669 C   0  0  0  0  0  0  0  0  0  0  0  0
    8.5244  -14.9627   17.5319 C   0  0  0  0  0  0  0  0  0  0  0  0
    8.7694  -14.3344   16.3707 N   0  0  0  0  0  0  0  0  0  0  0  0
    7.7458  -13.4893   16.1797 C   0  0  0  0  0  0  0  0  0  0  0  0
    6.8630  -13.5766   17.2010 N   0  0  0  0  0  0  0  0  0  0  0  0
    7.0962  -16.3356   21.3529 C   0  0  0  0  0  0  0  0  0  0  0  0
    5.8739  -16.3545   21.6326 O   0  0  0  0  0  0  0  0  0  0  0  0
    7.9195  -21.2013   24.2729 N   0  0  0  0  0  0  0  0  0  0  0  0
    7.4619  -20.4439   25.3729 C   0  0  0  0  0  0  0  0  0  0  0  0
    7.1675  -21.0237   26.4371 O   0  0  0  0  0  0  0  0  0  0  0  0
    7.3386  -18.9809   25.2487 C   0  0  0  0  0  0  0  0  0  0  0  0
    7.6838  -18.5307   23.8443 C   0  0  0  0  0  0  0  0  0  0  0  0
    7.6340  -17.0309   23.7313 C   0  0  2  0  0  0  0  0  0  0  0  0
    8.0029  -16.6367   22.4008 N   0  0  0  0  0  0  0  0  0  0  0  0
    8.5192  -16.4622   24.7687 C   0  0  0  0  0  0  0  0  0  0  0  0
    9.7610  -16.5272   24.5808 O   0  0  0  0  0  0  0  0  0  0  0  0
    8.0591  -15.8537   25.9515 N   0  0  0  0  0  0  0  0  0  0  0  0
    8.9222  -15.3395   27.0021 C   0  0  1  0  0  0  0  0  0  0  0  0
    8.0662  -14.3742   27.7912 C   0  0  0  0  0  0  0  0  0  0  0  0
    7.5914  -13.2183   27.0338 C   0  0  0  0  0  0  0  0  0  0  0  0
    7.9272  -12.8101   25.7652 C   0  0  0  0  0  0  0  0  0  0  0  0
    7.2587  -11.6789   25.4469 N   0  0  0  0  0  0  0  0  0  0  0  0
    6.4974  -11.3739   26.5229 C   0  0  0  0  0  0  0  0  0  0  0  0
    6.7007  -12.3064   27.4807 N   0  0  0  0  0  0  0  0  0  0  0  0
    9.3854  -16.3966   27.9122 C   0  0  0  0  0  0  0  0  0  0  0  0
   10.2949  -16.0924   28.8969 O   0  0  0  0  0  0  0  0  0  0  0  0
    8.9630  -17.5583   27.7986 O   0  0  0  0  0  0  0  0  0  0  0  0
  2  1  1  6
  2  3  1  0
  3  4  1  0
  4  8  1  0
  5  4  2  0
  5  6  1  0
  6  7  1  0
  8  7  2  0
  9 17  1  0
  9  2  1  0
 10  9  2  0
 11 12  1  0
 12 14  1  0
 13 12  2  0
 14 15  1  0
 16 15  1  6
 16 17  1  0
 18 16  1  0
 19 18  2  0
 20 18  1  0
 21 28  1  0
 21 20  1  0
 21 22  1  1
 22 23  1  0
 23 24  2  0
 24 25  1  0
 26 25  1  0
 27 23  1  0
 27 26  2  0
 28 29  1  0
 30 28  2  0
M  END
$$$$
