HQH.pdb
     RDKit          3D

 30 31  0  0  1  0  0  0  0  0999 V2000
   15.1317  -21.2701   23.9660 N   0  0  0  0  0  0  0  0  0  0  0  0
   15.0421  -22.6532   23.5409 C   0  0  1  0  0  0  0  0  0  0  0  0
   16.3837  -23.2313   23.2117 C   0  0  0  0  0  0  0  0  0  0  0  0
   17.1782  -22.2289   22.4698 C   0  0  0  0  0  0  0  0  0  0  0  0
   16.7580  -21.0035   22.0322 C   0  0  0  0  0  0  0  0  0  0  0  0
   17.7598  -20.3772   21.3940 N   0  0  0  0  0  0  0  0  0  0  0  0
   18.8079  -21.2128   21.4328 C   0  0  0  0  0  0  0  0  0  0  0  0
   18.4811  -22.3524   22.0843 N   0  0  0  0  0  0  0  0  0  0  0  0
   14.3605  -23.4277   24.6317 C   0  0  0  0  0  0  0  0  0  0  0  0
   14.1755  -24.6637   24.5288 O   0  0  0  0  0  0  0  0  0  0  0  0
   11.8227  -26.8873   28.1549 N   0  0  0  0  0  0  0  0  0  0  0  0
   13.2042  -26.5970   28.1689 C   0  0  0  0  0  0  0  0  0  0  0  0
   14.0174  -27.4653   27.7945 O   0  0  0  0  0  0  0  0  0  0  0  0
   13.6656  -25.2742   28.6252 C   0  0  0  0  0  0  0  0  0  0  0  0
   14.2788  -24.4955   27.4798 C   0  0  0  0  0  0  0  0  0  0  0  0
   13.3096  -23.4793   26.9388 C   0  0  2  0  0  0  0  0  0  0  0  0
   13.8989  -22.8025   25.8179 N   0  0  0  0  0  0  0  0  0  0  0  0
   12.9421  -22.5636   28.0386 C   0  0  0  0  0  0  0  0  0  0  0  0
   13.8498  -22.2046   28.8315 O   0  0  0  0  0  0  0  0  0  0  0  0
   11.6418  -22.0696   28.2528 N   0  0  0  0  0  0  0  0  0  0  0  0
   11.3004  -21.0451   29.2260 C   0  0  1  0  0  0  0  0  0  0  0  0
   11.8738  -21.5288   30.5392 C   0  0  0  0  0  0  0  0  0  0  0  0
   11.3466  -22.8110   31.0011 C   0  0  0  0  0  0  0  0  0  0  0  0
   10.4489  -23.6545   30.3917 C   0  0  0  0  0  0  0  0  0  0  0  0
   10.2268  -24.7389   31.1679 N   0  0  0  0  0  0  0  0  0  0  0  0
   10.9902  -24.5759   32.2730 C   0  0  0  0  0  0  0  0  0  0  0  0
   11.6660  -23.4093   32.1692 N   0  0  0  0  0  0  0  0  0  0  0  0
   11.9091  -19.7460   28.9065 C   0  0  0  0  0  0  0  0  0  0  0  0
   11.4476  -18.6103   29.5284 O   0  0  0  0  0  0  0  0  0  0  0  0
   12.8338  -19.6668   28.0821 O   0  0  0  0  0  0  0  0  0  0  0  0
  2  1  1  1
  2  3  1  0
  3  4  1  0
  4  8  1  0
  5  4  2  0
  5  6  1  0
  6  7  1  0
  8  7  2  0
  9 17  1  0
  9  2  1  0
 10  9  2  0
 11 12  1  0
 12 14  1  0
 13 12  2  0
 14 15  1  0
 16 15  1  1
 16 17  1  0
 18 16  1  0
 19 18  2  0
 20 18  1  0
 21 28  1  0
 21 20  1  0
 21 22  1  1
 22 23  1  0
 23 24  2  0
 24 25  1  0
 26 25  1  0
 27 23  1  0
 27 26  2  0
 28 29  1  0
 30 28  2  0
M  END
$$$$
