HQH.pdb
     RDKit          3D

 30 31  0  0  1  0  0  0  0  0999 V2000
    8.0640  -18.4620   13.8767 N   0  0  0  0  0  0  0  0  0  0  0  0
    8.4890  -17.4372   14.8099 C   0  0  1  0  0  0  0  0  0  0  0  0
    7.7443  -16.1525   14.6163 C   0  0  0  0  0  0  0  0  0  0  0  0
    8.2344  -15.4842   13.3917 C   0  0  0  0  0  0  0  0  0  0  0  0
    9.1780  -15.9510   12.5191 C   0  0  0  0  0  0  0  0  0  0  0  0
    9.3626  -15.0647   11.5273 N   0  0  0  0  0  0  0  0  0  0  0  0
    8.5328  -14.0421   11.7807 C   0  0  0  0  0  0  0  0  0  0  0  0
    7.8310  -14.2716   12.9142 N   0  0  0  0  0  0  0  0  0  0  0  0
    8.3080  -17.9754   16.1998 C   0  0  0  0  0  0  0  0  0  0  0  0
    7.4846  -18.8911   16.4367 O   0  0  0  0  0  0  0  0  0  0  0  0
   10.5572  -22.0293   18.5060 N   0  0  0  0  0  0  0  0  0  0  0  0
   10.3712  -21.4451   19.7777 C   0  0  0  0  0  0  0  0  0  0  0  0
   10.6836  -22.0879   20.7998 O   0  0  0  0  0  0  0  0  0  0  0  0
    9.8114  -20.0860   19.8797 C   0  0  0  0  0  0  0  0  0  0  0  0
    9.6706  -19.4595   18.5079 C   0  0  0  0  0  0  0  0  0  0  0  0
    9.1027  -18.0693   18.6058 C   0  0  2  0  0  0  0  0  0  0  0  0
    9.0532  -17.4773   17.2986 N   0  0  0  0  0  0  0  0  0  0  0  0
    9.9314  -17.3003   19.5573 C   0  0  0  0  0  0  0  0  0  0  0  0
   11.1367  -17.1016   19.2585 O   0  0  0  0  0  0  0  0  0  0  0  0
    9.4558  -16.7777   20.7745 N   0  0  0  0  0  0  0  0  0  0  0  0
   10.1901  -15.8438   21.6122 C   0  0  1  0  0  0  0  0  0  0  0  0
    9.1500  -14.8977   22.1695 C   0  0  0  0  0  0  0  0  0  0  0  0
    8.6206  -13.9351   21.2060 C   0  0  0  0  0  0  0  0  0  0  0  0
    9.0108  -13.6944   19.9104 C   0  0  0  0  0  0  0  0  0  0  0  0
    8.2577  -12.7094   19.3718 N   0  0  0  0  0  0  0  0  0  0  0  0
    7.3880  -12.3280   20.3355 C   0  0  0  0  0  0  0  0  0  0  0  0
    7.6099  -13.0709   21.4433 N   0  0  0  0  0  0  0  0  0  0  0  0
   10.8592  -16.5103   22.7384 C   0  0  0  0  0  0  0  0  0  0  0  0
   10.7037  -17.8648   22.9134 O   0  0  0  0  0  0  0  0  0  0  0  0
   11.5613  -15.8615   23.5303 O   0  0  0  0  0  0  0  0  0  0  0  0
  2  1  1  6
  2  3  1  0
  3  4  1  0
  4  8  1  0
  5  4  2  0
  5  6  1  0
  6  7  1  0
  8  7  2  0
  9 17  1  0
  9  2  1  0
 10  9  2  0
 11 12  1  0
 12 14  1  0
 13 12  2  0
 14 15  1  0
 16 15  1  6
 16 17  1  0
 18 16  1  0
 19 18  2  0
 20 18  1  0
 21 28  1  0
 21 20  1  0
 21 22  1  1
 22 23  1  0
 23 24  2  0
 24 25  1  0
 26 25  1  0
 27 23  1  0
 27 26  2  0
 28 29  1  0
 30 28  2  0
M  END
$$$$
