HQH.pdb
     RDKit          3D

 30 31  0  0  1  0  0  0  0  0999 V2000
    8.4540  -17.3837   18.1683 N   0  0  0  0  0  0  0  0  0  0  0  0
    9.3162  -17.7840   19.2628 C   0  0  1  0  0  0  0  0  0  0  0  0
   10.7327  -17.3442   19.0563 C   0  0  0  0  0  0  0  0  0  0  0  0
   11.2693  -17.9839   17.8360 C   0  0  0  0  0  0  0  0  0  0  0  0
   10.6164  -18.8514   17.0047 C   0  0  0  0  0  0  0  0  0  0  0  0
   11.4289  -19.2238   16.0024 N   0  0  0  0  0  0  0  0  0  0  0  0
   12.5916  -18.5879   16.2079 C   0  0  0  0  0  0  0  0  0  0  0  0
   12.5226  -17.8230   17.3215 N   0  0  0  0  0  0  0  0  0  0  0  0
    8.7432  -17.2206   20.5311 C   0  0  0  0  0  0  0  0  0  0  0  0
    8.4820  -15.9986   20.6359 O   0  0  0  0  0  0  0  0  0  0  0  0
    6.2099  -20.8576   24.8744 N   0  0  0  0  0  0  0  0  0  0  0  0
    5.6209  -20.4335   23.6635 C   0  0  0  0  0  0  0  0  0  0  0  0
    4.6074  -21.0208   23.2354 O   0  0  0  0  0  0  0  0  0  0  0  0
    6.2109  -19.3044   22.9231 C   0  0  0  0  0  0  0  0  0  0  0  0
    7.3774  -18.7129   23.6870 C   0  0  0  0  0  0  0  0  0  0  0  0
    7.9942  -17.5690   22.9284 C   0  0  2  0  0  0  0  0  0  0  0  0
    8.4735  -18.0373   21.6585 N   0  0  0  0  0  0  0  0  0  0  0  0
    9.0597  -16.9825   23.7674 C   0  0  0  0  0  0  0  0  0  0  0  0
   10.0935  -16.5573   23.1911 O   0  0  0  0  0  0  0  0  0  0  0  0
    8.9889  -16.8707   25.1686 N   0  0  0  0  0  0  0  0  0  0  0  0
    8.8529  -15.6150   25.8883 C   0  0  1  0  0  0  0  0  0  0  0  0
    7.5583  -15.0065   25.3973 C   0  0  0  0  0  0  0  0  0  0  0  0
    7.2142  -13.7252   26.0096 C   0  0  0  0  0  0  0  0  0  0  0  0
    7.8774  -13.0193   26.9846 C   0  0  0  0  0  0  0  0  0  0  0  0
    7.2105  -11.8784   27.2696 N   0  0  0  0  0  0  0  0  0  0  0  0
    6.1204  -11.8670   26.4682 C   0  0  0  0  0  0  0  0  0  0  0  0
    6.1255  -12.9849   25.7076 N   0  0  0  0  0  0  0  0  0  0  0  0
    8.7491  -15.8120   27.3411 C   0  0  0  0  0  0  0  0  0  0  0  0
    9.4339  -14.9745   28.1891 O   0  0  0  0  0  0  0  0  0  0  0  0
    8.0500  -16.7260   27.8067 O   0  0  0  0  0  0  0  0  0  0  0  0
  2  1  1  6
  2  3  1  0
  3  4  1  0
  4  8  1  0
  5  4  2  0
  5  6  1  0
  6  7  1  0
  8  7  2  0
  9 17  1  0
  9  2  1  0
 10  9  2  0
 11 12  1  0
 12 14  1  0
 13 12  2  0
 14 15  1  0
 16 15  1  1
 16 17  1  0
 18 16  1  0
 19 18  2  0
 20 18  1  0
 21 28  1  0
 21 20  1  0
 21 22  1  6
 22 23  1  0
 23 24  2  0
 24 25  1  0
 26 25  1  0
 27 23  1  0
 27 26  2  0
 28 29  1  0
 30 28  2  0
M  END
$$$$
