HQH.pdb
     RDKit          3D

 30 31  0  0  1  0  0  0  0  0999 V2000
    6.8862  -21.2600   18.7799 N   0  0  0  0  0  0  0  0  0  0  0  0
    7.4141  -20.8655   20.0711 C   0  0  1  0  0  0  0  0  0  0  0  0
    8.2454  -19.6228   19.9861 C   0  0  0  0  0  0  0  0  0  0  0  0
    9.4076  -19.8724   19.1067 C   0  0  0  0  0  0  0  0  0  0  0  0
    9.9920  -21.0785   18.8350 C   0  0  0  0  0  0  0  0  0  0  0  0
   11.0258  -20.9073   17.9954 N   0  0  0  0  0  0  0  0  0  0  0  0
   11.0877  -19.5919   17.7420 C   0  0  0  0  0  0  0  0  0  0  0  0
   10.1106  -18.9349   18.4080 N   0  0  0  0  0  0  0  0  0  0  0  0
    6.2550  -20.6904   21.0092 C   0  0  0  0  0  0  0  0  0  0  0  0
    5.5217  -19.6749   20.9488 O   0  0  0  0  0  0  0  0  0  0  0  0
    3.2696  -25.2978   23.9972 N   0  0  0  0  0  0  0  0  0  0  0  0
    2.6200  -24.1567   24.5159 C   0  0  0  0  0  0  0  0  0  0  0  0
    1.5975  -24.2979   25.2158 O   0  0  0  0  0  0  0  0  0  0  0  0
    3.1582  -22.8166   24.2235 C   0  0  0  0  0  0  0  0  0  0  0  0
    4.3548  -22.9089   23.2995 C   0  0  0  0  0  0  0  0  0  0  0  0
    4.8858  -21.5407   22.9667 C   0  0  2  0  0  0  0  0  0  0  0  0
    5.9392  -21.6567   21.9978 N   0  0  0  0  0  0  0  0  0  0  0  0
    5.3249  -20.8998   24.2236 C   0  0  0  0  0  0  0  0  0  0  0  0
    4.4417  -20.5859   25.0620 O   0  0  0  0  0  0  0  0  0  0  0  0
    6.6675  -20.6198   24.5393 N   0  0  0  0  0  0  0  0  0  0  0  0
    7.1052  -19.9496   25.7528 C   0  0  1  0  0  0  0  0  0  0  0  0
    8.1763  -20.8402   26.3418 C   0  0  0  0  0  0  0  0  0  0  0  0
    7.6889  -22.1080   26.8808 C   0  0  0  0  0  0  0  0  0  0  0  0
    6.4931  -22.3909   27.4963 C   0  0  0  0  0  0  0  0  0  0  0  0
    6.4478  -23.6949   27.8504 N   0  0  0  0  0  0  0  0  0  0  0  0
    7.6234  -24.2354   27.4548 C   0  0  0  0  0  0  0  0  0  0  0  0
    8.3715  -23.2734   26.8689 N   0  0  0  0  0  0  0  0  0  0  0  0
    7.6976  -18.6322   25.4809 C   0  0  0  0  0  0  0  0  0  0  0  0
    8.1752  -17.8757   26.5244 O   0  0  0  0  0  0  0  0  0  0  0  0
    7.7698  -18.1991   24.3198 O   0  0  0  0  0  0  0  0  0  0  0  0
  2  1  1  6
  2  3  1  0
  3  4  1  0
  4  8  1  0
  5  4  2  0
  5  6  1  0
  6  7  1  0
  8  7  2  0
  9 17  1  0
  9  2  1  0
 10  9  2  0
 11 12  1  0
 12 14  1  0
 13 12  2  0
 14 15  1  0
 16 15  1  1
 16 17  1  0
 18 16  1  0
 19 18  2  0
 20 18  1  0
 21 28  1  0
 21 20  1  0
 21 22  1  6
 22 23  1  0
 23 24  2  0
 24 25  1  0
 26 25  1  0
 27 23  1  0
 27 26  2  0
 28 29  1  0
 30 28  2  0
M  END
$$$$
