HQH.pdb
     RDKit          3D

 30 31  0  0  1  0  0  0  0  0999 V2000
    8.5291  -12.2745   18.6764 N   0  0  0  0  0  0  0  0  0  0  0  0
    8.4671  -13.6208   19.2104 C   0  0  1  0  0  0  0  0  0  0  0  0
    9.1002  -14.6219   18.2942 C   0  0  0  0  0  0  0  0  0  0  0  0
    8.3697  -14.6373   17.0087 C   0  0  0  0  0  0  0  0  0  0  0  0
    7.4092  -13.7560   16.5956 C   0  0  0  0  0  0  0  0  0  0  0  0
    6.9736  -14.0945   15.3713 N   0  0  0  0  0  0  0  0  0  0  0  0
    7.6630  -15.1894   15.0188 C   0  0  0  0  0  0  0  0  0  0  0  0
    8.5236  -15.5436   16.0006 N   0  0  0  0  0  0  0  0  0  0  0  0
    9.1270  -13.6129   20.5590 C   0  0  0  0  0  0  0  0  0  0  0  0
   10.2240  -13.0325   20.7389 O   0  0  0  0  0  0  0  0  0  0  0  0
    6.3626  -13.8814   26.0339 N   0  0  0  0  0  0  0  0  0  0  0  0
    6.1420  -14.9615   25.1521 C   0  0  0  0  0  0  0  0  0  0  0  0
    5.1784  -15.7282   25.3501 O   0  0  0  0  0  0  0  0  0  0  0  0
    7.0517  -15.1680   24.0116 C   0  0  0  0  0  0  0  0  0  0  0  0
    8.2021  -14.1838   24.0580 C   0  0  0  0  0  0  0  0  0  0  0  0
    9.1858  -14.4516   22.9512 C   0  0  2  0  0  0  0  0  0  0  0  0
    8.5453  -14.2557   21.6811 N   0  0  0  0  0  0  0  0  0  0  0  0
    9.7139  -15.8204   23.1269 C   0  0  0  0  0  0  0  0  0  0  0  0
    8.9867  -16.7809   22.7662 O   0  0  0  0  0  0  0  0  0  0  0  0
   10.9778  -16.1145   23.6717 N   0  0  0  0  0  0  0  0  0  0  0  0
   12.1419  -16.4984   22.8903 C   0  0  1  0  0  0  0  0  0  0  0  0
   12.3404  -15.3837   21.8876 C   0  0  0  0  0  0  0  0  0  0  0  0
   13.4928  -15.5531   21.0053 C   0  0  0  0  0  0  0  0  0  0  0  0
   14.3877  -16.5935   20.9308 C   0  0  0  0  0  0  0  0  0  0  0  0
   15.3119  -16.3463   19.9756 N   0  0  0  0  0  0  0  0  0  0  0  0
   14.9957  -15.1421   19.4459 C   0  0  0  0  0  0  0  0  0  0  0  0
   13.8955  -14.6651   20.0705 N   0  0  0  0  0  0  0  0  0  0  0  0
   13.3565  -16.6030   23.7114 C   0  0  0  0  0  0  0  0  0  0  0  0
   13.3005  -16.2849   25.0475 O   0  0  0  0  0  0  0  0  0  0  0  0
   14.4290  -16.9751   23.2092 O   0  0  0  0  0  0  0  0  0  0  0  0
  2  1  1  6
  2  3  1  0
  3  4  1  0
  4  8  1  0
  5  4  2  0
  5  6  1  0
  6  7  1  0
  8  7  2  0
  9 17  1  0
  9  2  1  0
 10  9  2  0
 11 12  1  0
 12 14  1  0
 13 12  2  0
 14 15  1  0
 16 15  1  1
 16 17  1  0
 18 16  1  0
 19 18  2  0
 20 18  1  0
 21 28  1  0
 21 20  1  0
 21 22  1  6
 22 23  1  0
 23 24  2  0
 24 25  1  0
 26 25  1  0
 27 23  1  0
 27 26  2  0
 28 29  1  0
 30 28  2  0
M  END
$$$$
