HQH.pdb
     RDKit          3D

 30 31  0  0  1  0  0  0  0  0999 V2000
   10.7462  -15.9013   15.3991 N   0  0  0  0  0  0  0  0  0  0  0  0
   10.7225  -15.0985   16.6060 C   0  0  1  0  0  0  0  0  0  0  0  0
    9.4649  -15.2995   17.3938 C   0  0  0  0  0  0  0  0  0  0  0  0
    8.3194  -14.7592   16.6306 C   0  0  0  0  0  0  0  0  0  0  0  0
    7.4126  -15.4681   15.8925 C   0  0  0  0  0  0  0  0  0  0  0  0
    6.5181  -14.6322   15.3408 N   0  0  0  0  0  0  0  0  0  0  0  0
    6.8666  -13.3987   15.7349 C   0  0  0  0  0  0  0  0  0  0  0  0
    7.9642  -13.4463   16.5242 N   0  0  0  0  0  0  0  0  0  0  0  0
   11.9402  -15.4438   17.4136 C   0  0  0  0  0  0  0  0  0  0  0  0
   11.9869  -16.4946   18.0964 O   0  0  0  0  0  0  0  0  0  0  0  0
   17.5496  -12.7212   16.5298 N   0  0  0  0  0  0  0  0  0  0  0  0
   17.8309  -13.5873   17.6086 C   0  0  0  0  0  0  0  0  0  0  0  0
   18.9966  -13.6651   18.0450 O   0  0  0  0  0  0  0  0  0  0  0  0
   16.7450  -14.3862   18.2031 C   0  0  0  0  0  0  0  0  0  0  0  0
   15.4131  -14.0337   17.5738 C   0  0  0  0  0  0  0  0  0  0  0  0
   14.3102  -14.8945   18.1282 C   0  0  2  0  0  0  0  0  0  0  0  0
   13.0832  -14.6049   17.4410 N   0  0  0  0  0  0  0  0  0  0  0  0
   14.2276  -14.6546   19.5839 C   0  0  0  0  0  0  0  0  0  0  0  0
   14.3764  -13.4751   19.9938 O   0  0  0  0  0  0  0  0  0  0  0  0
   13.9932  -15.6628   20.5375 N   0  0  0  0  0  0  0  0  0  0  0  0
   14.0247  -15.4581   21.9764 C   0  0  1  0  0  0  0  0  0  0  0  0
   13.3480  -16.6726   22.5717 C   0  0  0  0  0  0  0  0  0  0  0  0
   11.8959  -16.7035   22.4107 C   0  0  0  0  0  0  0  0  0  0  0  0
   11.0624  -15.7715   21.8404 C   0  0  0  0  0  0  0  0  0  0  0  0
    9.7792  -16.1925   21.9037 N   0  0  0  0  0  0  0  0  0  0  0  0
    9.8064  -17.3977   22.5182 C   0  0  0  0  0  0  0  0  0  0  0  0
   11.0875  -17.7038   22.8235 N   0  0  0  0  0  0  0  0  0  0  0  0
   15.3960  -15.3896   22.5012 C   0  0  0  0  0  0  0  0  0  0  0  0
   16.4528  -15.6962   21.6774 O   0  0  0  0  0  0  0  0  0  0  0  0
   15.6063  -15.0579   23.6788 O   0  0  0  0  0  0  0  0  0  0  0  0
  2  1  1  6
  2  3  1  0
  3  4  1  0
  4  8  1  0
  5  4  2  0
  5  6  1  0
  6  7  1  0
  8  7  2  0
  9 17  1  0
  9  2  1  0
 10  9  2  0
 11 12  1  0
 12 14  1  0
 13 12  2  0
 14 15  1  0
 16 15  1  6
 16 17  1  0
 18 16  1  0
 19 18  2  0
 20 18  1  0
 21 28  1  0
 21 20  1  0
 21 22  1  1
 22 23  1  0
 23 24  2  0
 24 25  1  0
 26 25  1  0
 27 23  1  0
 27 26  2  0
 28 29  1  0
 30 28  2  0
M  END
$$$$
