HQH.pdb
     RDKit          3D

 30 31  0  0  1  0  0  0  0  0999 V2000
   10.3490  -15.3942   19.6918 N   0  0  0  0  0  0  0  0  0  0  0  0
    9.1289  -15.3029   20.4693 C   0  0  1  0  0  0  0  0  0  0  0  0
    7.9071  -15.5222   19.6315 C   0  0  0  0  0  0  0  0  0  0  0  0
    7.8733  -14.5188   18.5460 C   0  0  0  0  0  0  0  0  0  0  0  0
    8.8446  -13.6082   18.2344 C   0  0  0  0  0  0  0  0  0  0  0  0
    8.4542  -12.8625   17.1881 N   0  0  0  0  0  0  0  0  0  0  0  0
    7.2366  -13.3079   16.8453 C   0  0  0  0  0  0  0  0  0  0  0  0
    6.8565  -14.3200   17.6584 N   0  0  0  0  0  0  0  0  0  0  0  0
    9.2180  -16.3020   21.5864 C   0  0  0  0  0  0  0  0  0  0  0  0
    8.2936  -16.4179   22.4258 O   0  0  0  0  0  0  0  0  0  0  0  0
   13.4729  -20.9652   21.9341 N   0  0  0  0  0  0  0  0  0  0  0  0
   12.9353  -20.9823   23.2393 C   0  0  0  0  0  0  0  0  0  0  0  0
   13.3304  -21.8396   24.0544 O   0  0  0  0  0  0  0  0  0  0  0  0
   11.9164  -19.9884   23.6202 C   0  0  0  0  0  0  0  0  0  0  0  0
   11.6412  -19.0363   22.4748 C   0  0  0  0  0  0  0  0  0  0  0  0
   10.5490  -18.0645   22.8320 C   0  0  2  0  0  0  0  0  0  0  0  0
   10.3417  -17.1529   21.7422 N   0  0  0  0  0  0  0  0  0  0  0  0
   10.9301  -17.3862   24.0882 C   0  0  0  0  0  0  0  0  0  0  0  0
   11.8681  -16.5498   24.0424 O   0  0  0  0  0  0  0  0  0  0  0  0
   10.3092  -17.6181   25.3298 N   0  0  0  0  0  0  0  0  0  0  0  0
   10.7280  -17.0157   26.5847 C   0  0  1  0  0  0  0  0  0  0  0  0
    9.8284  -15.8151   26.7760 C   0  0  0  0  0  0  0  0  0  0  0  0
   10.0105  -15.1105   28.0431 C   0  0  0  0  0  0  0  0  0  0  0  0
    9.9962  -13.7603   28.2992 C   0  0  0  0  0  0  0  0  0  0  0  0
   10.2132  -13.5326   29.6140 N   0  0  0  0  0  0  0  0  0  0  0  0
   10.3651  -14.7481   30.1885 C   0  0  0  0  0  0  0  0  0  0  0  0
   10.2420  -15.7001   29.2361 N   0  0  0  0  0  0  0  0  0  0  0  0
   10.5413  -17.9199   27.7284 C   0  0  0  0  0  0  0  0  0  0  0  0
   11.2816  -17.7292   28.8708 O   0  0  0  0  0  0  0  0  0  0  0  0
    9.7228  -18.8514   27.6706 O   0  0  0  0  0  0  0  0  0  0  0  0
  2  1  1  6
  2  3  1  0
  3  4  1  0
  4  8  1  0
  5  4  2  0
  5  6  1  0
  6  7  1  0
  8  7  2  0
  9 17  1  0
  9  2  1  0
 10  9  2  0
 11 12  1  0
 12 14  1  0
 13 12  2  0
 14 15  1  0
 16 15  1  6
 16 17  1  0
 18 16  1  0
 19 18  2  0
 20 18  1  0
 21 28  1  0
 21 20  1  0
 21 22  1  1
 22 23  1  0
 23 24  2  0
 24 25  1  0
 26 25  1  0
 27 23  1  0
 27 26  2  0
 28 29  1  0
 30 28  2  0
M  END
$$$$
