HQH.pdb
     RDKit          3D

 30 31  0  0  1  0  0  0  0  0999 V2000
    9.7641  -15.0801   20.1299 N   0  0  0  0  0  0  0  0  0  0  0  0
    8.4511  -14.8612   20.7042 C   0  0  1  0  0  0  0  0  0  0  0  0
    7.3514  -15.2483   19.7643 C   0  0  0  0  0  0  0  0  0  0  0  0
    7.5420  -14.5487   18.4757 C   0  0  0  0  0  0  0  0  0  0  0  0
    8.5713  -13.7158   18.1341 C   0  0  0  0  0  0  0  0  0  0  0  0
    8.3997  -13.2666   16.8803 N   0  0  0  0  0  0  0  0  0  0  0  0
    7.2611  -13.8198   16.4376 C   0  0  0  0  0  0  0  0  0  0  0  0
    6.7155  -14.6082   17.3919 N   0  0  0  0  0  0  0  0  0  0  0  0
    8.3753  -15.6335   21.9896 C   0  0  0  0  0  0  0  0  0  0  0  0
    7.3217  -15.6563   22.6692 O   0  0  0  0  0  0  0  0  0  0  0  0
   12.2656  -20.3137   23.5049 N   0  0  0  0  0  0  0  0  0  0  0  0
   11.4122  -20.2761   24.6288 C   0  0  0  0  0  0  0  0  0  0  0  0
   11.4802  -21.1838   25.4814 O   0  0  0  0  0  0  0  0  0  0  0  0
   10.4543  -19.1667   24.7790 C   0  0  0  0  0  0  0  0  0  0  0  0
   10.5127  -18.2417   23.5810 C   0  0  0  0  0  0  0  0  0  0  0  0
    9.4852  -17.1480   23.6936 C   0  0  2  0  0  0  0  0  0  0  0  0
    9.4819  -16.3659   22.4895 N   0  0  0  0  0  0  0  0  0  0  0  0
    9.7925  -16.3511   24.8993 C   0  0  0  0  0  0  0  0  0  0  0  0
   10.8236  -15.6314   24.8802 O   0  0  0  0  0  0  0  0  0  0  0  0
    9.0040  -16.3479   26.0651 N   0  0  0  0  0  0  0  0  0  0  0  0
    9.3663  -15.6757   27.3020 C   0  0  1  0  0  0  0  0  0  0  0  0
    8.1144  -14.9559   27.7518 C   0  0  0  0  0  0  0  0  0  0  0  0
    7.7846  -13.7614   26.9775 C   0  0  0  0  0  0  0  0  0  0  0  0
    8.5000  -13.1451   25.9789 C   0  0  0  0  0  0  0  0  0  0  0  0
    7.8339  -12.0573   25.5310 N   0  0  0  0  0  0  0  0  0  0  0  0
    6.6917  -11.9892   26.2531 C   0  0  0  0  0  0  0  0  0  0  0  0
    6.6648  -13.0208   27.1268 N   0  0  0  0  0  0  0  0  0  0  0  0
    9.7603  -16.6204   28.3568 C   0  0  0  0  0  0  0  0  0  0  0  0
   10.2042  -16.1397   29.5657 O   0  0  0  0  0  0  0  0  0  0  0  0
    9.6954  -17.8451   28.1649 O   0  0  0  0  0  0  0  0  0  0  0  0
  2  1  1  6
  2  3  1  0
  3  4  1  0
  4  8  1  0
  5  4  2  0
  5  6  1  0
  6  7  1  0
  8  7  2  0
  9 17  1  0
  9  2  1  0
 10  9  2  0
 11 12  1  0
 12 14  1  0
 13 12  2  0
 14 15  1  0
 16 15  1  6
 16 17  1  0
 18 16  1  0
 19 18  2  0
 20 18  1  0
 21 28  1  0
 21 20  1  0
 21 22  1  1
 22 23  1  0
 23 24  2  0
 24 25  1  0
 26 25  1  0
 27 23  1  0
 27 26  2  0
 28 29  1  0
 30 28  2  0
M  END
$$$$
