HQH.pdb
     RDKit          3D

 30 31  0  0  1  0  0  0  0  0999 V2000
   13.5445  -16.4066   12.7505 N   0  0  0  0  0  0  0  0  0  0  0  0
   13.0226  -16.4208   14.1029 C   0  0  1  0  0  0  0  0  0  0  0  0
   11.9527  -17.4526   14.2850 C   0  0  0  0  0  0  0  0  0  0  0  0
   10.7826  -17.0939   13.4551 C   0  0  0  0  0  0  0  0  0  0  0  0
   10.3355  -17.7414   12.3367 C   0  0  0  0  0  0  0  0  0  0  0  0
    9.2478  -17.1204   11.8525 N   0  0  0  0  0  0  0  0  0  0  0  0
    9.0148  -16.0830   12.6697 C   0  0  0  0  0  0  0  0  0  0  0  0
    9.9375  -16.0424   13.6582 N   0  0  0  0  0  0  0  0  0  0  0  0
   14.1739  -16.6491   15.0392 C   0  0  0  0  0  0  0  0  0  0  0  0
   14.9539  -17.6181   14.8808 O   0  0  0  0  0  0  0  0  0  0  0  0
   17.6266  -12.4661   18.3862 N   0  0  0  0  0  0  0  0  0  0  0  0
   17.4141  -12.6510   17.0029 C   0  0  0  0  0  0  0  0  0  0  0  0
   17.6637  -11.7181   16.2137 O   0  0  0  0  0  0  0  0  0  0  0  0
   16.9010  -13.9417   16.5112 C   0  0  0  0  0  0  0  0  0  0  0  0
   15.9655  -14.5682   17.5243 C   0  0  0  0  0  0  0  0  0  0  0  0
   15.5111  -15.9289   17.0696 C   0  0  2  0  0  0  0  0  0  0  0  0
   14.4297  -15.7871   16.1357 N   0  0  0  0  0  0  0  0  0  0  0  0
   15.1422  -16.7138   18.2659 C   0  0  0  0  0  0  0  0  0  0  0  0
   14.0324  -16.4734   18.8063 O   0  0  0  0  0  0  0  0  0  0  0  0
   15.9545  -17.7116   18.8362 N   0  0  0  0  0  0  0  0  0  0  0  0
   15.5689  -18.5404   19.9665 C   0  0  1  0  0  0  0  0  0  0  0  0
   16.0444  -19.9349   19.6252 C   0  0  0  0  0  0  0  0  0  0  0  0
   15.2409  -20.6255   18.6188 C   0  0  0  0  0  0  0  0  0  0  0  0
   14.0234  -20.2759   18.0858 C   0  0  0  0  0  0  0  0  0  0  0  0
   13.6265  -21.2008   17.1831 N   0  0  0  0  0  0  0  0  0  0  0  0
   14.6014  -22.1383   17.1485 C   0  0  0  0  0  0  0  0  0  0  0  0
   15.5760  -21.7877   18.0176 N   0  0  0  0  0  0  0  0  0  0  0  0
   16.2224  -18.1220   21.2149 C   0  0  0  0  0  0  0  0  0  0  0  0
   15.9130  -18.7647   22.3899 O   0  0  0  0  0  0  0  0  0  0  0  0
   17.0488  -17.1958   21.2161 O   0  0  0  0  0  0  0  0  0  0  0  0
  2  1  1  6
  2  3  1  0
  3  4  1  0
  4  8  1  0
  5  4  2  0
  5  6  1  0
  6  7  1  0
  8  7  2  0
  9 17  1  0
  9  2  1  0
 10  9  2  0
 11 12  1  0
 12 14  1  0
 13 12  2  0
 14 15  1  0
 16 15  1  1
 16 17  1  0
 18 16  1  0
 19 18  2  0
 20 18  1  0
 21 28  1  0
 21 20  1  0
 21 22  1  6
 22 23  1  0
 23 24  2  0
 24 25  1  0
 26 25  1  0
 27 23  1  0
 27 26  2  0
 28 29  1  0
 30 28  2  0
M  END
$$$$
