HQH.pdb
     RDKit          3D

 30 31  0  0  1  0  0  0  0  0999 V2000
    9.9487  -15.5178   16.1221 N   0  0  0  0  0  0  0  0  0  0  0  0
   10.6566  -16.7825   16.0890 C   0  0  1  0  0  0  0  0  0  0  0  0
   11.1224  -17.1335   14.7097 C   0  0  0  0  0  0  0  0  0  0  0  0
   10.0531  -16.8176   13.7385 C   0  0  0  0  0  0  0  0  0  0  0  0
    8.8866  -16.1481   13.9853 C   0  0  0  0  0  0  0  0  0  0  0  0
    8.1642  -16.0563   12.8570 N   0  0  0  0  0  0  0  0  0  0  0  0
    8.8805  -16.6696   11.9036 C   0  0  0  0  0  0  0  0  0  0  0  0
   10.0397  -17.1445   12.4141 N   0  0  0  0  0  0  0  0  0  0  0  0
   11.8045  -16.6938   17.0527 C   0  0  0  0  0  0  0  0  0  0  0  0
   12.5020  -17.7004   17.3222 O   0  0  0  0  0  0  0  0  0  0  0  0
   16.3205  -14.3230   17.6592 N   0  0  0  0  0  0  0  0  0  0  0  0
   16.2185  -14.0556   19.0416 C   0  0  0  0  0  0  0  0  0  0  0  0
   17.2531  -14.0168   19.7370 O   0  0  0  0  0  0  0  0  0  0  0  0
   14.8931  -13.8264   19.6430 C   0  0  0  0  0  0  0  0  0  0  0  0
   13.7991  -13.9882   18.6080 C   0  0  0  0  0  0  0  0  0  0  0  0
   13.1394  -15.3355   18.7268 C   0  0  2  0  0  0  0  0  0  0  0  0
   12.1494  -15.4784   17.6967 N   0  0  0  0  0  0  0  0  0  0  0  0
   12.5777  -15.4538   20.0883 C   0  0  0  0  0  0  0  0  0  0  0  0
   13.3697  -15.3572   21.0604 O   0  0  0  0  0  0  0  0  0  0  0  0
   11.2141  -15.6675   20.3634 N   0  0  0  0  0  0  0  0  0  0  0  0
   10.6372  -15.6899   21.6975 C   0  0  1  0  0  0  0  0  0  0  0  0
    9.1577  -15.4449   21.5016 C   0  0  0  0  0  0  0  0  0  0  0  0
    8.8350  -14.3450   20.5954 C   0  0  0  0  0  0  0  0  0  0  0  0
    9.6700  -13.4200   20.0156 C   0  0  0  0  0  0  0  0  0  0  0  0
    8.9581  -12.5672   19.2452 N   0  0  0  0  0  0  0  0  0  0  0  0
    7.6665  -12.9586   19.3415 C   0  0  0  0  0  0  0  0  0  0  0  0
    7.5954  -14.0337   20.1584 N   0  0  0  0  0  0  0  0  0  0  0  0
   10.8065  -16.9922   22.3577 C   0  0  0  0  0  0  0  0  0  0  0  0
   11.4285  -18.0170   21.6852 O   0  0  0  0  0  0  0  0  0  0  0  0
   10.3933  -17.1730   23.5142 O   0  0  0  0  0  0  0  0  0  0  0  0
  2  1  1  6
  2  3  1  0
  3  4  1  0
  4  8  1  0
  5  4  2  0
  5  6  1  0
  6  7  1  0
  8  7  2  0
  9 17  1  0
  9  2  1  0
 10  9  2  0
 11 12  1  0
 12 14  1  0
 13 12  2  0
 14 15  1  0
 16 15  1  1
 16 17  1  0
 18 16  1  0
 19 18  2  0
 20 18  1  0
 21 28  1  0
 21 20  1  0
 21 22  1  6
 22 23  1  0
 23 24  2  0
 24 25  1  0
 26 25  1  0
 27 23  1  0
 27 26  2  0
 28 29  1  0
 30 28  2  0
M  END
$$$$
