HQH.pdb
     RDKit          3D

 30 31  0  0  1  0  0  0  0  0999 V2000
    7.7571  -17.3811   20.4383 N   0  0  0  0  0  0  0  0  0  0  0  0
    9.1728  -17.4266   20.7472 C   0  0  1  0  0  0  0  0  0  0  0  0
   10.0228  -17.3331   19.5178 C   0  0  0  0  0  0  0  0  0  0  0  0
    9.1552  -17.1175   18.3400 C   0  0  0  0  0  0  0  0  0  0  0  0
    7.9942  -16.3966   18.2922 C   0  0  0  0  0  0  0  0  0  0  0  0
    7.4854  -16.4305   17.0499 N   0  0  0  0  0  0  0  0  0  0  0  0
    8.3299  -17.1739   16.3202 C   0  0  0  0  0  0  0  0  0  0  0  0
    9.3597  -17.6070   17.0831 N   0  0  0  0  0  0  0  0  0  0  0  0
    9.4708  -16.3133   21.7095 C   0  0  0  0  0  0  0  0  0  0  0  0
   10.5243  -15.6399   21.6134 O   0  0  0  0  0  0  0  0  0  0  0  0
    5.3265  -14.0583   25.9434 N   0  0  0  0  0  0  0  0  0  0  0  0
    6.4597  -13.2512   26.1834 C   0  0  0  0  0  0  0  0  0  0  0  0
    6.3834  -12.3148   27.0036 O   0  0  0  0  0  0  0  0  0  0  0  0
    7.7150  -13.5258   25.4626 C   0  0  0  0  0  0  0  0  0  0  0  0
    7.5203  -14.6347   24.4493 C   0  0  0  0  0  0  0  0  0  0  0  0
    8.8125  -14.9583   23.7492 C   0  0  2  0  0  0  0  0  0  0  0  0
    8.5825  -15.9752   22.7619 N   0  0  0  0  0  0  0  0  0  0  0  0
    9.8014  -15.3588   24.7715 C   0  0  0  0  0  0  0  0  0  0  0  0
   10.2060  -14.4785   25.5733 O   0  0  0  0  0  0  0  0  0  0  0  0
   10.3170  -16.6618   24.9027 N   0  0  0  0  0  0  0  0  0  0  0  0
   11.3458  -17.0479   25.8543 C   0  0  1  0  0  0  0  0  0  0  0  0
   10.6899  -16.9628   27.2144 C   0  0  0  0  0  0  0  0  0  0  0  0
   10.8365  -15.6724   27.8842 C   0  0  0  0  0  0  0  0  0  0  0  0
   11.3950  -14.5067   27.4172 C   0  0  0  0  0  0  0  0  0  0  0  0
   11.3323  -13.5464   28.3666 N   0  0  0  0  0  0  0  0  0  0  0  0
   10.7302  -14.1123   29.4380 C   0  0  0  0  0  0  0  0  0  0  0  0
   10.4317  -15.3977   29.1432 N   0  0  0  0  0  0  0  0  0  0  0  0
   11.8071  -18.4283   25.6492 C   0  0  0  0  0  0  0  0  0  0  0  0
   12.8238  -18.9259   26.4291 O   0  0  0  0  0  0  0  0  0  0  0  0
   11.2871  -19.1459   24.7800 O   0  0  0  0  0  0  0  0  0  0  0  0
  2  1  1  6
  2  3  1  0
  3  4  1  0
  4  8  1  0
  5  4  2  0
  5  6  1  0
  6  7  1  0
  8  7  2  0
  9 17  1  0
  9  2  1  0
 10  9  2  0
 11 12  1  0
 12 14  1  0
 13 12  2  0
 14 15  1  0
 16 15  1  1
 16 17  1  0
 18 16  1  0
 19 18  2  0
 20 18  1  0
 21 28  1  0
 21 20  1  0
 21 22  1  1
 22 23  1  0
 23 24  2  0
 24 25  1  0
 26 25  1  0
 27 23  1  0
 27 26  2  0
 28 29  1  0
 30 28  2  0
M  END
$$$$
