TYW.pdb
     RDKit          3D

 34 36  0  0  1  0  0  0  0  0999 V2000
   26.6604  -26.4567  -18.8910 C   0  0  0  0  0  0  0  0  0  0  0  0
   26.6344  -25.4470  -17.7904 C   0  0  1  0  0  0  0  0  0  0  0  0
   25.8825  -25.8476  -16.6943 O   0  0  0  0  0  0  0  0  0  0  0  0
   28.0358  -25.0577  -17.3379 C   0  0  2  0  0  0  0  0  0  0  0  0
   28.7255  -26.1334  -16.7099 N   0  0  0  0  0  0  0  0  0  0  0  0
   27.9178  -23.8406  -16.5237 C   0  0  0  0  0  0  0  0  0  0  0  0
   28.2836  -23.9611  -15.3039 O   0  0  0  0  0  0  0  0  0  0  0  0
   25.9908  -15.7979  -13.4531 O   0  0  0  0  0  0  0  0  0  0  0  0
   26.3475  -16.8700  -14.2772 C   0  0  0  0  0  0  0  0  0  0  0  0
   27.6483  -17.3063  -14.3832 C   0  0  0  0  0  0  0  0  0  0  0  0
   27.9887  -18.3821  -15.2136 C   0  0  0  0  0  0  0  0  0  0  0  0
   27.0116  -19.0193  -15.9395 C   0  0  0  0  0  0  0  0  0  0  0  0
   27.3196  -20.1455  -16.8177 C   0  0  0  0  0  0  0  0  0  0  0  0
   27.3572  -21.4835  -16.1213 C   0  0  2  0  0  0  0  0  0  0  0  0
   27.4414  -22.5953  -16.9947 N   0  0  0  0  0  0  0  0  0  0  0  0
   26.2116  -21.6166  -15.1433 C   0  0  0  0  0  0  0  0  0  0  0  0
   25.1070  -22.0378  -15.5824 O   0  0  0  0  0  0  0  0  0  0  0  0
   25.7186  -18.5667  -15.8185 C   0  0  0  0  0  0  0  0  0  0  0  0
   25.3792  -17.5062  -15.0005 C   0  0  0  0  0  0  0  0  0  0  0  0
   26.3737  -21.2788  -13.7781 N   0  0  0  0  0  0  0  0  0  0  0  0
   25.3090  -21.6564  -12.8413 C   0  0  1  0  0  0  0  0  0  0  0  0
   25.8796  -22.2228  -11.5944 C   0  0  0  0  0  0  0  0  0  0  0  0
   26.2350  -21.1922  -10.6201 C   0  0  0  0  0  0  0  0  0  0  0  0
   25.3415  -20.5048   -9.7944 C   0  0  0  0  0  0  0  0  0  0  0  0
   26.0065  -19.6078   -9.0625 N   0  0  0  0  0  0  0  0  0  0  0  0
   27.3061  -19.6783   -9.3735 C   0  0  0  0  0  0  0  0  0  0  0  0
   28.3944  -18.9886   -8.8920 C   0  0  0  0  0  0  0  0  0  0  0  0
   29.6761  -19.2288   -9.3323 C   0  0  0  0  0  0  0  0  0  0  0  0
   29.8354  -20.2055  -10.2930 C   0  0  0  0  0  0  0  0  0  0  0  0
   28.7486  -20.8875  -10.7684 C   0  0  0  0  0  0  0  0  0  0  0  0
   27.4618  -20.6616  -10.3421 C   0  0  0  0  0  0  0  0  0  0  0  0
   24.4359  -20.5045  -12.6621 C   0  0  0  0  0  0  0  0  0  0  0  0
   24.7925  -19.2852  -12.7711 O   0  0  0  0  0  0  0  0  0  0  0  0
   23.0824  -20.7322  -12.3419 O   0  0  0  0  0  0  0  0  0  0  0  0
  2  1  1  6
  2  3  1  0
  4  5  1  1
  4  2  1  0
  6  7  2  0
  6  4  1  0
  8  9  1  0
  9 19  2  0
  9 10  1  0
 10 11  2  0
 11 12  1  0
 12 13  1  0
 14 13  1  6
 14 15  1  0
 15  6  1  0
 16 14  1  0
 16 20  1  0
 17 16  2  0
 18 12  2  0
 19 18  1  0
 21 20  1  0
 21 32  1  0
 21 22  1  1
 23 22  1  0
 24 23  2  0
 25 26  1  0
 25 24  1  0
 26 31  2  0
 27 26  1  0
 27 28  2  0
 28 29  1  0
 29 30  2  0
 31 23  1  0
 31 30  1  0
 32 33  2  0
 32 34  1  0
M  END
$$$$
