TYW.pdb
     RDKit          3D

 34 36  0  0  1  0  0  0  0  0999 V2000
   26.8934  -17.8165  -18.5573 C   0  0  0  0  0  0  0  0  0  0  0  0
   27.4219  -18.9834  -19.3256 C   0  0  1  0  0  0  0  0  0  0  0  0
   28.0461  -18.6235  -20.5122 O   0  0  0  0  0  0  0  0  0  0  0  0
   28.3632  -19.8404  -18.4890 C   0  0  2  0  0  0  0  0  0  0  0  0
   28.9017  -20.9356  -19.2225 N   0  0  0  0  0  0  0  0  0  0  0  0
   27.6513  -20.2115  -17.2588 C   0  0  0  0  0  0  0  0  0  0  0  0
   26.7514  -21.1098  -17.3976 O   0  0  0  0  0  0  0  0  0  0  0  0
   24.5139  -21.1778   -9.1012 O   0  0  0  0  0  0  0  0  0  0  0  0
   25.2806  -20.7764  -10.1996 C   0  0  0  0  0  0  0  0  0  0  0  0
   25.0418  -19.5940  -10.8620 C   0  0  0  0  0  0  0  0  0  0  0  0
   25.8196  -19.2065  -11.9610 C   0  0  0  0  0  0  0  0  0  0  0  0
   26.8421  -20.0165  -12.3924 C   0  0  0  0  0  0  0  0  0  0  0  0
   27.6793  -19.6532  -13.5333 C   0  0  0  0  0  0  0  0  0  0  0  0
   27.0934  -20.0190  -14.8748 C   0  0  2  0  0  0  0  0  0  0  0  0
   27.8956  -19.6527  -15.9830 N   0  0  0  0  0  0  0  0  0  0  0  0
   25.6776  -19.5041  -15.0051 C   0  0  0  0  0  0  0  0  0  0  0  0
   25.5132  -18.2638  -15.1635 O   0  0  0  0  0  0  0  0  0  0  0  0
   27.0630  -21.1933  -11.7160 C   0  0  0  0  0  0  0  0  0  0  0  0
   26.2981  -21.5786  -10.6318 C   0  0  0  0  0  0  0  0  0  0  0  0
   24.5716  -20.3861  -14.9509 N   0  0  0  0  0  0  0  0  0  0  0  0
   23.2238  -19.8104  -15.0270 C   0  0  1  0  0  0  0  0  0  0  0  0
   22.7777  -19.6961  -16.4374 C   0  0  0  0  0  0  0  0  0  0  0  0
   21.4240  -19.1566  -16.5567 C   0  0  0  0  0  0  0  0  0  0  0  0
   20.9802  -17.9389  -16.0344 C   0  0  0  0  0  0  0  0  0  0  0  0
   19.6800  -17.7860  -16.2958 N   0  0  0  0  0  0  0  0  0  0  0  0
   19.2490  -18.8570  -16.9724 C   0  0  0  0  0  0  0  0  0  0  0  0
   18.0118  -19.1708  -17.4850 C   0  0  0  0  0  0  0  0  0  0  0  0
   17.7736  -20.3327  -18.1832 C   0  0  0  0  0  0  0  0  0  0  0  0
   18.8404  -21.1898  -18.3550 C   0  0  0  0  0  0  0  0  0  0  0  0
   20.0684  -20.8722  -17.8420 C   0  0  0  0  0  0  0  0  0  0  0  0
   20.3257  -19.7181  -17.1418 C   0  0  0  0  0  0  0  0  0  0  0  0
   22.3515  -20.5867  -14.1566 C   0  0  0  0  0  0  0  0  0  0  0  0
   21.3520  -20.1253  -13.5133 O   0  0  0  0  0  0  0  0  0  0  0  0
   22.6144  -21.9621  -13.9975 O   0  0  0  0  0  0  0  0  0  0  0  0
  2  1  1  1
  2  3  1  0
  4  5  1  6
  4  2  1  0
  6  7  2  0
  6  4  1  0
  8  9  1  0
  9 19  2  0
  9 10  1  0
 10 11  2  0
 11 12  1  0
 12 13  1  0
 14 13  1  1
 14 15  1  0
 15  6  1  0
 16 14  1  0
 16 20  1  0
 17 16  2  0
 18 12  2  0
 19 18  1  0
 21 20  1  0
 21 32  1  0
 21 22  1  6
 23 22  1  0
 24 23  2  0
 25 26  1  0
 25 24  1  0
 26 31  2  0
 27 26  1  0
 27 28  2  0
 28 29  1  0
 29 30  2  0
 31 23  1  0
 31 30  1  0
 32 33  2  0
 32 34  1  0
M  END
$$$$
