TYW.pdb
     RDKit          3D

 34 36  0  0  1  0  0  0  0  0999 V2000
   28.1533  -21.1222  -14.1423 C   0  0  0  0  0  0  0  0  0  0  0  0
   27.8904  -20.0928  -15.1924 C   0  0  1  0  0  0  0  0  0  0  0  0
   28.6339  -20.2847  -16.3489 O   0  0  0  0  0  0  0  0  0  0  0  0
   26.4110  -19.9972  -15.5423 C   0  0  2  0  0  0  0  0  0  0  0  0
   26.1470  -19.0100  -16.5338 N   0  0  0  0  0  0  0  0  0  0  0  0
   25.6676  -19.8258  -14.2869 C   0  0  0  0  0  0  0  0  0  0  0  0
   25.6087  -18.6267  -13.8456 O   0  0  0  0  0  0  0  0  0  0  0  0
   19.2465  -18.4500  -15.5520 O   0  0  0  0  0  0  0  0  0  0  0  0
   20.1749  -19.1338  -14.7609 C   0  0  0  0  0  0  0  0  0  0  0  0
   20.9091  -20.1910  -15.2480 C   0  0  0  0  0  0  0  0  0  0  0  0
   21.8354  -20.8654  -14.4418 C   0  0  0  0  0  0  0  0  0  0  0  0
   22.0206  -20.4706  -13.1390 C   0  0  0  0  0  0  0  0  0  0  0  0
   22.9755  -21.1437  -12.2617 C   0  0  0  0  0  0  0  0  0  0  0  0
   24.3819  -20.6032  -12.3441 C   0  0  2  0  0  0  0  0  0  0  0  0
   25.0403  -20.8704  -13.5692 N   0  0  0  0  0  0  0  0  0  0  0  0
   25.2015  -21.0441  -11.1523 C   0  0  0  0  0  0  0  0  0  0  0  0
   25.5426  -22.2564  -11.0869 O   0  0  0  0  0  0  0  0  0  0  0  0
   21.2764  -19.4121  -12.6730 C   0  0  0  0  0  0  0  0  0  0  0  0
   20.3621  -18.7446  -13.4651 C   0  0  0  0  0  0  0  0  0  0  0  0
   25.5739  -20.1253  -10.1417 N   0  0  0  0  0  0  0  0  0  0  0  0
   26.4390  -20.6038   -9.0570 C   0  0  1  0  0  0  0  0  0  0  0  0
   27.2685  -19.4985   -8.5171 C   0  0  0  0  0  0  0  0  0  0  0  0
   28.1036  -19.9197   -7.3933 C   0  0  0  0  0  0  0  0  0  0  0  0
   28.8022  -21.1264   -7.3011 C   0  0  0  0  0  0  0  0  0  0  0  0
   29.4244  -21.1954   -6.1218 N   0  0  0  0  0  0  0  0  0  0  0  0
   29.1634  -20.0786   -5.4325 C   0  0  0  0  0  0  0  0  0  0  0  0
   29.5778  -19.6602   -4.1895 C   0  0  0  0  0  0  0  0  0  0  0  0
   29.2113  -18.4446   -3.6581 C   0  0  0  0  0  0  0  0  0  0  0  0
   28.3971  -17.6433   -4.4310 C   0  0  0  0  0  0  0  0  0  0  0  0
   27.9877  -18.0657   -5.6664 C   0  0  0  0  0  0  0  0  0  0  0  0
   28.3422  -19.2755   -6.2135 C   0  0  0  0  0  0  0  0  0  0  0  0
   25.6029  -21.2912   -8.0826 C   0  0  0  0  0  0  0  0  0  0  0  0
   25.9897  -22.2299   -7.3112 O   0  0  0  0  0  0  0  0  0  0  0  0
   24.2530  -20.9038   -7.9651 O   0  0  0  0  0  0  0  0  0  0  0  0
  2  1  1  1
  2  3  1  0
  4  5  1  6
  4  2  1  0
  6  7  2  0
  6  4  1  0
  8  9  1  0
  9 19  2  0
  9 10  1  0
 10 11  2  0
 11 12  1  0
 12 13  1  0
 14 13  1  6
 14 15  1  0
 15  6  1  0
 16 14  1  0
 16 20  1  0
 17 16  2  0
 18 12  2  0
 19 18  1  0
 21 20  1  0
 21 32  1  0
 21 22  1  1
 23 22  1  0
 24 23  2  0
 25 26  1  0
 25 24  1  0
 26 31  2  0
 27 26  1  0
 27 28  2  0
 28 29  1  0
 29 30  2  0
 31 23  1  0
 31 30  1  0
 32 33  2  0
 32 34  1  0
M  END
$$$$
