TYW.pdb
     RDKit          3D

 34 36  0  0  1  0  0  0  0  0999 V2000
   29.0938  -23.6221  -17.1191 C   0  0  0  0  0  0  0  0  0  0  0  0
   28.5548  -22.6787  -16.0939 C   0  0  1  0  0  0  0  0  0  0  0  0
   29.5443  -22.0562  -15.3452 O   0  0  0  0  0  0  0  0  0  0  0  0
   27.6379  -21.6289  -16.7082 C   0  0  2  0  0  0  0  0  0  0  0  0
   28.2884  -20.8552  -17.7109 N   0  0  0  0  0  0  0  0  0  0  0  0
   27.0550  -20.8493  -15.6080 C   0  0  0  0  0  0  0  0  0  0  0  0
   27.5560  -19.6848  -15.4375 O   0  0  0  0  0  0  0  0  0  0  0  0
   23.2561  -16.2704  -18.0433 O   0  0  0  0  0  0  0  0  0  0  0  0
   23.4623  -17.1806  -17.0019 C   0  0  0  0  0  0  0  0  0  0  0  0
   23.6653  -16.7696  -15.7043 C   0  0  0  0  0  0  0  0  0  0  0  0
   23.8705  -17.6948  -14.6724 C   0  0  0  0  0  0  0  0  0  0  0  0
   23.8708  -19.0398  -14.9525 C   0  0  0  0  0  0  0  0  0  0  0  0
   24.0801  -20.0407  -13.9088 C   0  0  0  0  0  0  0  0  0  0  0  0
   25.5183  -20.4614  -13.7318 C   0  0  2  0  0  0  0  0  0  0  0  0
   26.0142  -21.2973  -14.7619 N   0  0  0  0  0  0  0  0  0  0  0  0
   25.7424  -21.0581  -12.3605 C   0  0  0  0  0  0  0  0  0  0  0  0
   25.0152  -22.0281  -12.0133 O   0  0  0  0  0  0  0  0  0  0  0  0
   23.6663  -19.4282  -16.2557 C   0  0  0  0  0  0  0  0  0  0  0  0
   23.4635  -18.5186  -17.2759 C   0  0  0  0  0  0  0  0  0  0  0  0
   26.7367  -20.5440  -11.4938 N   0  0  0  0  0  0  0  0  0  0  0  0
   26.8344  -21.1077  -10.1423 C   0  0  1  0  0  0  0  0  0  0  0  0
   28.0178  -20.5668   -9.4293 C   0  0  0  0  0  0  0  0  0  0  0  0
   27.7301  -20.2334   -8.0351 C   0  0  0  0  0  0  0  0  0  0  0  0
   26.5216  -19.7286   -7.5478 C   0  0  0  0  0  0  0  0  0  0  0  0
   26.6268  -19.5010   -6.2365 N   0  0  0  0  0  0  0  0  0  0  0  0
   27.8596  -19.8379   -5.8396 C   0  0  0  0  0  0  0  0  0  0  0  0
   28.4543  -19.8106   -4.5997 C   0  0  0  0  0  0  0  0  0  0  0  0
   29.7488  -20.2287   -4.3910 C   0  0  0  0  0  0  0  0  0  0  0  0
   30.4442  -20.6858   -5.4910 C   0  0  0  0  0  0  0  0  0  0  0  0
   29.8470  -20.7097   -6.7219 C   0  0  0  0  0  0  0  0  0  0  0  0
   28.5567  -20.2960   -6.9503 C   0  0  0  0  0  0  0  0  0  0  0  0
   25.5560  -20.9046   -9.4749 C   0  0  0  0  0  0  0  0  0  0  0  0
   24.8394  -19.8534   -9.5588 O   0  0  0  0  0  0  0  0  0  0  0  0
   25.0500  -21.9412   -8.6652 O   0  0  0  0  0  0  0  0  0  0  0  0
  2  1  1  6
  2  3  1  0
  4  5  1  6
  4  2  1  0
  6  7  2  0
  6  4  1  0
  8  9  1  0
  9 19  2  0
  9 10  1  0
 10 11  2  0
 11 12  1  0
 12 13  1  0
 14 13  1  6
 14 15  1  0
 15  6  1  0
 16 14  1  0
 16 20  1  0
 17 16  2  0
 18 12  2  0
 19 18  1  0
 21 20  1  0
 21 32  1  0
 21 22  1  1
 23 22  1  0
 24 23  2  0
 25 26  1  0
 25 24  1  0
 26 31  2  0
 27 26  1  0
 27 28  2  0
 28 29  1  0
 29 30  2  0
 31 23  1  0
 31 30  1  0
 32 33  2  0
 32 34  1  0
M  END
$$$$
