TYW.pdb
     RDKit          3D

 34 36  0  0  1  0  0  0  0  0999 V2000
   28.8488  -20.1644  -19.4799 C   0  0  0  0  0  0  0  0  0  0  0  0
   27.9814  -20.4299  -18.2931 C   0  0  1  0  0  0  0  0  0  0  0  0
   26.6596  -20.6930  -18.6258 O   0  0  0  0  0  0  0  0  0  0  0  0
   28.5274  -21.5570  -17.4260 C   0  0  2  0  0  0  0  0  0  0  0  0
   28.5766  -22.8017  -18.1156 N   0  0  0  0  0  0  0  0  0  0  0  0
   27.7529  -21.5726  -16.1779 C   0  0  0  0  0  0  0  0  0  0  0  0
   26.7360  -22.3486  -16.1750 O   0  0  0  0  0  0  0  0  0  0  0  0
   24.4236  -20.2477   -8.1332 O   0  0  0  0  0  0  0  0  0  0  0  0
   25.2802  -20.2874   -9.2379 C   0  0  0  0  0  0  0  0  0  0  0  0
   26.0606  -21.3862   -9.5159 C   0  0  0  0  0  0  0  0  0  0  0  0
   26.9136  -21.4096  -10.6271 C   0  0  0  0  0  0  0  0  0  0  0  0
   26.9785  -20.3190  -11.4602 C   0  0  0  0  0  0  0  0  0  0  0  0
   27.8529  -20.2985  -12.6305 C   0  0  0  0  0  0  0  0  0  0  0  0
   27.2396  -20.8938  -13.8740 C   0  0  2  0  0  0  0  0  0  0  0  0
   28.0568  -20.8083  -15.0276 N   0  0  0  0  0  0  0  0  0  0  0  0
   25.8563  -20.3333  -14.1165 C   0  0  0  0  0  0  0  0  0  0  0  0
   25.7657  -19.2133  -14.6891 O   0  0  0  0  0  0  0  0  0  0  0  0
   26.1902  -19.2319  -11.1635 C   0  0  0  0  0  0  0  0  0  0  0  0
   25.3478  -19.2053  -10.0687 C   0  0  0  0  0  0  0  0  0  0  0  0
   24.6996  -21.0429  -13.7133 N   0  0  0  0  0  0  0  0  0  0  0  0
   23.3906  -20.4231  -13.9504 C   0  0  1  0  0  0  0  0  0  0  0  0
   23.1915  -20.1467  -15.3944 C   0  0  0  0  0  0  0  0  0  0  0  0
   21.9129  -19.4935  -15.6705 C   0  0  0  0  0  0  0  0  0  0  0  0
   21.6387  -18.1326  -15.5109 C   0  0  0  0  0  0  0  0  0  0  0  0
   20.3610  -17.8937  -15.8156 N   0  0  0  0  0  0  0  0  0  0  0  0
   19.7816  -19.0462  -16.1716 C   0  0  0  0  0  0  0  0  0  0  0  0
   18.5015  -19.3294  -16.5874 C   0  0  0  0  0  0  0  0  0  0  0  0
   18.1012  -20.5989  -16.9372 C   0  0  0  0  0  0  0  0  0  0  0  0
   19.0478  -21.5987  -16.8550 C   0  0  0  0  0  0  0  0  0  0  0  0
   20.3194  -21.3106  -16.4399 C   0  0  0  0  0  0  0  0  0  0  0  0
   20.7375  -20.0503  -16.0859 C   0  0  0  0  0  0  0  0  0  0  0  0
   22.3749  -21.2616  -13.3288 C   0  0  0  0  0  0  0  0  0  0  0  0
   22.4275  -22.5317  -13.2288 O   0  0  0  0  0  0  0  0  0  0  0  0
   21.2320  -20.6402  -12.7866 O   0  0  0  0  0  0  0  0  0  0  0  0
  2  1  1  6
  2  3  1  0
  4  5  1  6
  4  2  1  0
  6  7  2  0
  6  4  1  0
  8  9  1  0
  9 19  2  0
  9 10  1  0
 10 11  2  0
 11 12  1  0
 12 13  1  0
 14 13  1  1
 14 15  1  0
 15  6  1  0
 16 14  1  0
 16 20  1  0
 17 16  2  0
 18 12  2  0
 19 18  1  0
 21 20  1  0
 21 32  1  0
 21 22  1  6
 23 22  1  0
 24 23  2  0
 25 26  1  0
 25 24  1  0
 26 31  2  0
 27 26  1  0
 27 28  2  0
 28 29  1  0
 29 30  2  0
 31 23  1  0
 31 30  1  0
 32 33  2  0
 32 34  1  0
M  END
$$$$
