TYW.pdb
     RDKit          3D

 34 36  0  0  1  0  0  0  0  0999 V2000
   29.3074  -23.2523  -16.6037 C   0  0  0  0  0  0  0  0  0  0  0  0
   30.0054  -22.1824  -17.3779 C   0  0  1  0  0  0  0  0  0  0  0  0
   30.9259  -22.6765  -18.2921 O   0  0  0  0  0  0  0  0  0  0  0  0
   29.0250  -21.2558  -18.0854 C   0  0  2  0  0  0  0  0  0  0  0  0
   29.6784  -20.2090  -18.7957 N   0  0  0  0  0  0  0  0  0  0  0  0
   28.0412  -20.8069  -17.0910 C   0  0  0  0  0  0  0  0  0  0  0  0
   28.3900  -19.7908  -16.3967 O   0  0  0  0  0  0  0  0  0  0  0  0
   20.7857  -18.7337  -12.6383 O   0  0  0  0  0  0  0  0  0  0  0  0
   21.6916  -19.2296  -13.5811 C   0  0  0  0  0  0  0  0  0  0  0  0
   21.8062  -20.5756  -13.8440 C   0  0  0  0  0  0  0  0  0  0  0  0
   22.7192  -21.0559  -14.7920 C   0  0  0  0  0  0  0  0  0  0  0  0
   23.5193  -20.1735  -15.4765 C   0  0  0  0  0  0  0  0  0  0  0  0
   24.4851  -20.6284  -16.4740 C   0  0  0  0  0  0  0  0  0  0  0  0
   25.8755  -20.8551  -15.9336 C   0  0  2  0  0  0  0  0  0  0  0  0
   26.7826  -21.4118  -16.8681 N   0  0  0  0  0  0  0  0  0  0  0  0
   25.8329  -21.6454  -14.6452 C   0  0  0  0  0  0  0  0  0  0  0  0
   25.7638  -22.9020  -14.7259 O   0  0  0  0  0  0  0  0  0  0  0  0
   23.3883  -18.8332  -15.1979 C   0  0  0  0  0  0  0  0  0  0  0  0
   22.4890  -18.3558  -14.2639 C   0  0  0  0  0  0  0  0  0  0  0  0
   25.8691  -20.9954  -13.3881 N   0  0  0  0  0  0  0  0  0  0  0  0
   25.8558  -21.8272  -12.1790 C   0  0  1  0  0  0  0  0  0  0  0  0
   27.0858  -21.6129  -11.3775 C   0  0  0  0  0  0  0  0  0  0  0  0
   26.8196  -20.9342  -10.1101 C   0  0  0  0  0  0  0  0  0  0  0  0
   25.6093  -20.3436   -9.7374 C   0  0  0  0  0  0  0  0  0  0  0  0
   25.7368  -19.7810   -8.5334 N   0  0  0  0  0  0  0  0  0  0  0  0
   26.9861  -19.9793   -8.0967 C   0  0  0  0  0  0  0  0  0  0  0  0
   27.6064  -19.6191   -6.9232 C   0  0  0  0  0  0  0  0  0  0  0  0
   28.9155  -19.9435   -6.6488 C   0  0  0  0  0  0  0  0  0  0  0  0
   29.5986  -20.6573   -7.6113 C   0  0  0  0  0  0  0  0  0  0  0  0
   28.9759  -21.0118   -8.7770 C   0  0  0  0  0  0  0  0  0  0  0  0
   27.6707  -20.6967   -9.0693 C   0  0  0  0  0  0  0  0  0  0  0  0
   24.6026  -21.5843  -11.4777 C   0  0  0  0  0  0  0  0  0  0  0  0
   24.0262  -22.4067  -10.6921 O   0  0  0  0  0  0  0  0  0  0  0  0
   23.9568  -20.3462  -11.6676 O   0  0  0  0  0  0  0  0  0  0  0  0
  2  1  1  6
  2  3  1  0
  4  5  1  1
  4  2  1  0
  6  7  2  0
  6  4  1  0
  8  9  1  0
  9 19  2  0
  9 10  1  0
 10 11  2  0
 11 12  1  0
 12 13  1  0
 14 13  1  6
 14 15  1  0
 15  6  1  0
 16 14  1  0
 16 20  1  0
 17 16  2  0
 18 12  2  0
 19 18  1  0
 21 20  1  0
 21 32  1  0
 21 22  1  1
 23 22  1  0
 24 23  2  0
 25 26  1  0
 25 24  1  0
 26 31  2  0
 27 26  1  0
 27 28  2  0
 28 29  1  0
 29 30  2  0
 31 23  1  0
 31 30  1  0
 32 33  2  0
 32 34  1  0
M  END
$$$$
