TYW.pdb
     RDKit          3D

 34 36  0  0  1  0  0  0  0  0999 V2000
   28.2573  -17.6249  -14.5631 C   0  0  0  0  0  0  0  0  0  0  0  0
   27.1737  -18.5378  -14.0898 C   0  0  1  0  0  0  0  0  0  0  0  0
   26.1787  -18.7466  -15.0351 O   0  0  0  0  0  0  0  0  0  0  0  0
   27.7211  -19.8777  -13.6150 C   0  0  2  0  0  0  0  0  0  0  0  0
   28.3521  -20.6109  -14.6597 N   0  0  0  0  0  0  0  0  0  0  0  0
   26.6298  -20.5874  -12.9342 C   0  0  0  0  0  0  0  0  0  0  0  0
   26.1174  -21.5594  -13.5891 O   0  0  0  0  0  0  0  0  0  0  0  0
   30.1237  -20.8143   -7.0848 O   0  0  0  0  0  0  0  0  0  0  0  0
   28.8812  -20.8844   -7.7227 C   0  0  0  0  0  0  0  0  0  0  0  0
   28.7065  -21.5665   -8.9051 C   0  0  0  0  0  0  0  0  0  0  0  0
   27.4546  -21.6270   -9.5313 C   0  0  0  0  0  0  0  0  0  0  0  0
   26.3756  -20.9960   -8.9610 C   0  0  0  0  0  0  0  0  0  0  0  0
   25.0515  -21.0325   -9.5776 C   0  0  0  0  0  0  0  0  0  0  0  0
   25.0686  -21.0110  -11.0862 C   0  0  2  0  0  0  0  0  0  0  0  0
   26.1351  -20.2679  -11.6486 N   0  0  0  0  0  0  0  0  0  0  0  0
   23.7270  -20.5819  -11.6363 C   0  0  0  0  0  0  0  0  0  0  0  0
   23.2618  -19.4725  -11.2580 O   0  0  0  0  0  0  0  0  0  0  0  0
   26.5728  -20.3202   -7.7797 C   0  0  0  0  0  0  0  0  0  0  0  0
   27.8058  -20.2586   -7.1592 C   0  0  0  0  0  0  0  0  0  0  0  0
   23.0154  -21.3997  -12.5468 N   0  0  0  0  0  0  0  0  0  0  0  0
   21.7327  -20.9067  -13.0621 C   0  0  1  0  0  0  0  0  0  0  0  0
   21.9055  -19.6021  -13.7471 C   0  0  0  0  0  0  0  0  0  0  0  0
   22.7400  -19.7017  -14.9435 C   0  0  0  0  0  0  0  0  0  0  0  0
   23.0265  -20.8757  -15.6451 C   0  0  0  0  0  0  0  0  0  0  0  0
   23.8513  -20.6026  -16.6587 N   0  0  0  0  0  0  0  0  0  0  0  0
   24.1192  -19.2915  -16.6532 C   0  0  0  0  0  0  0  0  0  0  0  0
   24.8894  -18.5178  -17.4898 C   0  0  0  0  0  0  0  0  0  0  0  0
   25.0211  -17.1576  -17.3265 C   0  0  0  0  0  0  0  0  0  0  0  0
   24.3399  -16.5846  -16.2730 C   0  0  0  0  0  0  0  0  0  0  0  0
   23.5759  -17.3599  -15.4438 C   0  0  0  0  0  0  0  0  0  0  0  0
   23.4327  -18.7188  -15.5901 C   0  0  0  0  0  0  0  0  0  0  0  0
   21.1347  -21.9617  -13.8687 C   0  0  0  0  0  0  0  0  0  0  0  0
   21.7023  -23.0585  -14.1858 O   0  0  0  0  0  0  0  0  0  0  0  0
   19.8225  -21.7771  -14.3485 O   0  0  0  0  0  0  0  0  0  0  0  0
  2  1  1  6
  2  3  1  0
  4  5  1  6
  4  2  1  0
  6  7  2  0
  6  4  1  0
  8  9  1  0
  9 19  2  0
  9 10  1  0
 10 11  2  0
 11 12  1  0
 12 13  1  0
 14 13  1  1
 14 15  1  0
 15  6  1  0
 16 14  1  0
 16 20  1  0
 17 16  2  0
 18 12  2  0
 19 18  1  0
 21 20  1  0
 21 32  1  0
 21 22  1  6
 23 22  1  0
 24 23  2  0
 25 26  1  0
 25 24  1  0
 26 31  2  0
 27 26  1  0
 27 28  2  0
 28 29  1  0
 29 30  2  0
 31 23  1  0
 31 30  1  0
 32 33  2  0
 32 34  1  0
M  END
$$$$
