TYW.pdb
     RDKit          3D

 34 36  0  0  1  0  0  0  0  0999 V2000
   32.2112  -23.3274  -21.0840 C   0  0  0  0  0  0  0  0  0  0  0  0
   31.4813  -22.0494  -20.8286 C   0  0  1  0  0  0  0  0  0  0  0  0
   30.8737  -21.5270  -21.9623 O   0  0  0  0  0  0  0  0  0  0  0  0
   30.4534  -22.1905  -19.7133 C   0  0  2  0  0  0  0  0  0  0  0  0
   29.8351  -20.9518  -19.3806 N   0  0  0  0  0  0  0  0  0  0  0  0
   31.1073  -22.8756  -18.5903 C   0  0  0  0  0  0  0  0  0  0  0  0
   31.7989  -22.1247  -17.8196 O   0  0  0  0  0  0  0  0  0  0  0  0
   25.3227  -25.5075  -16.2452 O   0  0  0  0  0  0  0  0  0  0  0  0
   26.6937  -25.2460  -16.1583 C   0  0  0  0  0  0  0  0  0  0  0  0
   27.1921  -23.9633  -16.1541 C   0  0  0  0  0  0  0  0  0  0  0  0
   28.5689  -23.7187  -16.0664 C   0  0  0  0  0  0  0  0  0  0  0  0
   29.4451  -24.7736  -15.9828 C   0  0  0  0  0  0  0  0  0  0  0  0
   30.8884  -24.5666  -15.8893 C   0  0  0  0  0  0  0  0  0  0  0  0
   31.6356  -24.8133  -17.1767 C   0  0  2  0  0  0  0  0  0  0  0  0
   31.0184  -24.2619  -18.3260 N   0  0  0  0  0  0  0  0  0  0  0  0
   31.9446  -26.2834  -17.3496 C   0  0  0  0  0  0  0  0  0  0  0  0
   30.9906  -27.1022  -17.2514 O   0  0  0  0  0  0  0  0  0  0  0  0
   28.9253  -26.0468  -15.9888 C   0  0  0  0  0  0  0  0  0  0  0  0
   27.5683  -26.2918  -16.0751 C   0  0  0  0  0  0  0  0  0  0  0  0
   33.2631  -26.7266  -17.6128 N   0  0  0  0  0  0  0  0  0  0  0  0
   33.4420  -28.0747  -18.1647 C   0  0  1  0  0  0  0  0  0  0  0  0
   32.1676  -28.5898  -18.7231 C   0  0  0  0  0  0  0  0  0  0  0  0
   32.3026  -29.9324  -19.2859 C   0  0  0  0  0  0  0  0  0  0  0  0
   32.3266  -31.1253  -18.5585 C   0  0  0  0  0  0  0  0  0  0  0  0
   32.5042  -32.1543  -19.3903 N   0  0  0  0  0  0  0  0  0  0  0  0
   32.5971  -31.6853  -20.6402 C   0  0  0  0  0  0  0  0  0  0  0  0
   32.7619  -32.3312  -21.8433 C   0  0  0  0  0  0  0  0  0  0  0  0
   32.8107  -31.6587  -23.0431 C   0  0  0  0  0  0  0  0  0  0  0  0
   32.6859  -30.2859  -22.9970 C   0  0  0  0  0  0  0  0  0  0  0  0
   32.5230  -29.6493  -21.7967 C   0  0  0  0  0  0  0  0  0  0  0  0
   32.4726  -30.3028  -20.5889 C   0  0  0  0  0  0  0  0  0  0  0  0
   34.5618  -28.0366  -19.0952 C   0  0  0  0  0  0  0  0  0  0  0  0
   35.2875  -29.0345  -19.4166 O   0  0  0  0  0  0  0  0  0  0  0  0
   34.8881  -26.8071  -19.7021 O   0  0  0  0  0  0  0  0  0  0  0  0
  2  1  1  6
  2  3  1  0
  4  5  1  1
  4  2  1  0
  6  7  2  0
  6  4  1  0
  8  9  1  0
  9 19  2  0
  9 10  1  0
 10 11  2  0
 11 12  1  0
 12 13  1  0
 14 13  1  1
 14 15  1  0
 15  6  1  0
 16 14  1  0
 16 20  1  0
 17 16  2  0
 18 12  2  0
 19 18  1  0
 21 20  1  0
 21 32  1  0
 21 22  1  6
 23 22  1  0
 24 23  2  0
 25 26  1  0
 25 24  1  0
 26 31  2  0
 27 26  1  0
 27 28  2  0
 28 29  1  0
 29 30  2  0
 31 23  1  0
 31 30  1  0
 32 33  2  0
 32 34  1  0
M  END
$$$$
