TYW.pdb
     RDKit          3D

 34 36  0  0  1  0  0  0  0  0999 V2000
   28.9873  -20.2068  -16.8125 C   0  0  0  0  0  0  0  0  0  0  0  0
   28.3257  -20.0276  -15.4853 C   0  0  1  0  0  0  0  0  0  0  0  0
   29.0667  -19.2551  -14.6013 O   0  0  0  0  0  0  0  0  0  0  0  0
   26.9218  -19.4519  -15.6188 C   0  0  2  0  0  0  0  0  0  0  0  0
   26.9077  -18.1977  -16.2925 N   0  0  0  0  0  0  0  0  0  0  0  0
   26.3168  -19.4407  -14.2802 C   0  0  0  0  0  0  0  0  0  0  0  0
   26.3071  -18.3039  -13.6940 O   0  0  0  0  0  0  0  0  0  0  0  0
   20.1965  -18.1847  -15.8499 O   0  0  0  0  0  0  0  0  0  0  0  0
   21.0682  -18.8838  -15.0090 C   0  0  0  0  0  0  0  0  0  0  0  0
   21.7855  -19.9737  -15.4466 C   0  0  0  0  0  0  0  0  0  0  0  0
   22.6547  -20.6629  -14.5909 C   0  0  0  0  0  0  0  0  0  0  0  0
   22.7996  -20.2499  -13.2886 C   0  0  0  0  0  0  0  0  0  0  0  0
   23.6946  -20.9375  -12.3608 C   0  0  0  0  0  0  0  0  0  0  0  0
   25.1165  -20.4331  -12.3811 C   0  0  2  0  0  0  0  0  0  0  0  0
   25.7681  -20.5709  -13.6310 N   0  0  0  0  0  0  0  0  0  0  0  0
   25.9212  -21.0379  -11.2527 C   0  0  0  0  0  0  0  0  0  0  0  0
   26.7430  -21.9510  -11.5377 O   0  0  0  0  0  0  0  0  0  0  0  0
   22.0732  -19.1588  -12.8726 C   0  0  0  0  0  0  0  0  0  0  0  0
   21.2152  -18.4765  -13.7136 C   0  0  0  0  0  0  0  0  0  0  0  0
   25.7571  -20.5937   -9.9186 N   0  0  0  0  0  0  0  0  0  0  0  0
   26.4981  -21.2916   -8.8614 C   0  0  1  0  0  0  0  0  0  0  0  0
   27.8579  -20.7194   -8.7043 C   0  0  0  0  0  0  0  0  0  0  0  0
   28.0004  -19.9379   -7.4768 C   0  0  0  0  0  0  0  0  0  0  0  0
   27.4144  -18.6942   -7.2268 C   0  0  0  0  0  0  0  0  0  0  0  0
   27.7918  -18.2542   -6.0241 N   0  0  0  0  0  0  0  0  0  0  0  0
   28.6044  -19.1618   -5.4702 C   0  0  0  0  0  0  0  0  0  0  0  0
   29.2367  -19.1903   -4.2491 C   0  0  0  0  0  0  0  0  0  0  0  0
   30.0261  -20.2446   -3.8495 C   0  0  0  0  0  0  0  0  0  0  0  0
   30.1643  -21.2938   -4.7341 C   0  0  0  0  0  0  0  0  0  0  0  0
   29.5331  -21.2589   -5.9477 C   0  0  0  0  0  0  0  0  0  0  0  0
   28.7420  -20.2155   -6.3647 C   0  0  0  0  0  0  0  0  0  0  0  0
   25.6768  -21.2908   -7.6586 C   0  0  0  0  0  0  0  0  0  0  0  0
   24.6140  -20.6064   -7.4922 O   0  0  0  0  0  0  0  0  0  0  0  0
   26.0696  -22.1055   -6.5778 O   0  0  0  0  0  0  0  0  0  0  0  0
  2  1  1  6
  2  3  1  0
  4  5  1  1
  4  2  1  0
  6  7  2  0
  6  4  1  0
  8  9  1  0
  9 19  2  0
  9 10  1  0
 10 11  2  0
 11 12  1  0
 12 13  1  0
 14 13  1  6
 14 15  1  0
 15  6  1  0
 16 14  1  0
 16 20  1  0
 17 16  2  0
 18 12  2  0
 19 18  1  0
 21 20  1  0
 21 32  1  0
 21 22  1  1
 23 22  1  0
 24 23  2  0
 25 26  1  0
 25 24  1  0
 26 31  2  0
 27 26  1  0
 27 28  2  0
 28 29  1  0
 29 30  2  0
 31 23  1  0
 31 30  1  0
 32 33  2  0
 32 34  1  0
M  END
$$$$
