TYW.pdb
     RDKit          3D

 34 36  0  0  1  0  0  0  0  0999 V2000
   29.3216  -19.0375  -15.0997 C   0  0  0  0  0  0  0  0  0  0  0  0
   28.9364  -18.1867  -16.2655 C   0  0  1  0  0  0  0  0  0  0  0  0
   29.9614  -17.3604  -16.7058 O   0  0  0  0  0  0  0  0  0  0  0  0
   28.4085  -19.0157  -17.4293 C   0  0  2  0  0  0  0  0  0  0  0  0
   28.0763  -18.2185  -18.5612 N   0  0  0  0  0  0  0  0  0  0  0  0
   27.3130  -19.8508  -16.9191 C   0  0  0  0  0  0  0  0  0  0  0  0
   26.1815  -19.2638  -16.8133 O   0  0  0  0  0  0  0  0  0  0  0  0
   21.4716  -25.8596  -14.5980 O   0  0  0  0  0  0  0  0  0  0  0  0
   22.6310  -25.2346  -15.0678 C   0  0  0  0  0  0  0  0  0  0  0  0
   23.8701  -25.4988  -14.5306 C   0  0  0  0  0  0  0  0  0  0  0  0
   25.0220  -24.8638  -15.0132 C   0  0  0  0  0  0  0  0  0  0  0  0
   24.9216  -23.9586  -16.0419 C   0  0  0  0  0  0  0  0  0  0  0  0
   26.0952  -23.2728  -16.5776 C   0  0  0  0  0  0  0  0  0  0  0  0
   26.3361  -21.9039  -15.9903 C   0  0  2  0  0  0  0  0  0  0  0  0
   27.4357  -21.2113  -16.5532 N   0  0  0  0  0  0  0  0  0  0  0  0
   26.4195  -21.9695  -14.4819 C   0  0  0  0  0  0  0  0  0  0  0  0
   27.5389  -22.2324  -13.9639 O   0  0  0  0  0  0  0  0  0  0  0  0
   23.6738  -23.7096  -16.5635 C   0  0  0  0  0  0  0  0  0  0  0  0
   22.5357  -24.3340  -16.0903 C   0  0  0  0  0  0  0  0  0  0  0  0
   25.2774  -21.7433  -13.6766 N   0  0  0  0  0  0  0  0  0  0  0  0
   25.4574  -21.6891  -12.2211 C   0  0  1  0  0  0  0  0  0  0  0  0
   26.5255  -20.7259  -11.8569 C   0  0  0  0  0  0  0  0  0  0  0  0
   26.6153  -20.5052  -10.4144 C   0  0  0  0  0  0  0  0  0  0  0  0
   25.5920  -20.0189   -9.5965 C   0  0  0  0  0  0  0  0  0  0  0  0
   26.0361  -19.9045   -8.3426 N   0  0  0  0  0  0  0  0  0  0  0  0
   27.3144  -20.2983   -8.3021 C   0  0  0  0  0  0  0  0  0  0  0  0
   28.2052  -20.3873   -7.2579 C   0  0  0  0  0  0  0  0  0  0  0  0
   29.4920  -20.8474   -7.4207 C   0  0  0  0  0  0  0  0  0  0  0  0
   29.8658  -21.2244   -8.6937 C   0  0  0  0  0  0  0  0  0  0  0  0
   28.9751  -21.1327   -9.7284 C   0  0  0  0  0  0  0  0  0  0  0  0
   27.6871  -20.6753   -9.5860 C   0  0  0  0  0  0  0  0  0  0  0  0
   24.1571  -21.4393  -11.6144 C   0  0  0  0  0  0  0  0  0  0  0  0
   23.2219  -20.7462  -12.1347 O   0  0  0  0  0  0  0  0  0  0  0  0
   23.8885  -21.9995  -10.3494 O   0  0  0  0  0  0  0  0  0  0  0  0
  2  1  1  1
  2  3  1  0
  4  5  1  6
  4  2  1  0
  6  7  2  0
  6  4  1  0
  8  9  1  0
  9 19  2  0
  9 10  1  0
 10 11  2  0
 11 12  1  0
 12 13  1  0
 14 13  1  6
 14 15  1  0
 15  6  1  0
 16 14  1  0
 16 20  1  0
 17 16  2  0
 18 12  2  0
 19 18  1  0
 21 20  1  0
 21 32  1  0
 21 22  1  6
 23 22  1  0
 24 23  2  0
 25 26  1  0
 25 24  1  0
 26 31  2  0
 27 26  1  0
 27 28  2  0
 28 29  1  0
 29 30  2  0
 31 23  1  0
 31 30  1  0
 32 33  2  0
 32 34  1  0
M  END
$$$$
