TYW.pdb
     RDKit          3D

 34 36  0  0  1  0  0  0  0  0999 V2000
    4.0318  -36.2281  -64.3889 C   0  0  0  0  0  0  0  0  0  0  0  0
    3.6729  -35.9681  -62.9623 C   0  0  1  0  0  0  0  0  0  0  0  0
    2.8093  -34.8936  -62.7995 O   0  0  0  0  0  0  0  0  0  0  0  0
    3.0915  -37.2022  -62.2845 C   0  0  2  0  0  0  0  0  0  0  0  0
    4.0828  -38.1801  -61.9875 N   0  0  0  0  0  0  0  0  0  0  0  0
    1.9792  -37.6829  -63.1151 C   0  0  0  0  0  0  0  0  0  0  0  0
    2.1531  -38.8316  -63.6502 O   0  0  0  0  0  0  0  0  0  0  0  0
    4.3921  -40.2560  -67.2869 O   0  0  0  0  0  0  0  0  0  0  0  0
    3.2549  -39.9616  -66.5282 C   0  0  0  0  0  0  0  0  0  0  0  0
    2.1551  -39.3404  -67.0744 C   0  0  0  0  0  0  0  0  0  0  0  0
    1.0236  -39.0526  -66.3000 C   0  0  0  0  0  0  0  0  0  0  0  0
    1.0031  -39.3934  -64.9692 C   0  0  0  0  0  0  0  0  0  0  0  0
   -0.1548  -39.1135  -64.1233 C   0  0  0  0  0  0  0  0  0  0  0  0
   -0.3700  -37.6491  -63.8304 C   0  0  2  0  0  0  0  0  0  0  0  0
    0.7774  -36.9746  -63.3462 N   0  0  0  0  0  0  0  0  0  0  0  0
   -1.5679  -37.4479  -62.9298 C   0  0  0  0  0  0  0  0  0  0  0  0
   -1.8835  -36.2662  -62.6230 O   0  0  0  0  0  0  0  0  0  0  0  0
    2.1128  -40.0132  -64.4442 C   0  0  0  0  0  0  0  0  0  0  0  0
    3.2304  -40.2987  -65.2048 C   0  0  0  0  0  0  0  0  0  0  0  0
   -2.3116  -38.5512  -62.4460 N   0  0  0  0  0  0  0  0  0  0  0  0
   -2.3570  -38.7718  -60.9958 C   0  0  1  0  0  0  0  0  0  0  0  0
   -2.8634  -37.5665  -60.2943 C   0  0  0  0  0  0  0  0  0  0  0  0
   -1.8218  -36.8818  -59.5302 C   0  0  0  0  0  0  0  0  0  0  0  0
   -1.5539  -37.0611  -58.1705 C   0  0  0  0  0  0  0  0  0  0  0  0
   -0.5652  -36.2454  -57.7968 N   0  0  0  0  0  0  0  0  0  0  0  0
   -0.1696  -35.5350  -58.8596 C   0  0  0  0  0  0  0  0  0  0  0  0
    0.8156  -34.5859  -59.0027 C   0  0  0  0  0  0  0  0  0  0  0  0
    1.0871  -33.9775  -60.2071 C   0  0  0  0  0  0  0  0  0  0  0  0
    0.3214  -34.3603  -61.2885 C   0  0  0  0  0  0  0  0  0  0  0  0
   -0.6577  -35.3045  -61.1394 C   0  0  0  0  0  0  0  0  0  0  0  0
   -0.9441  -35.9222  -59.9457 C   0  0  0  0  0  0  0  0  0  0  0  0
   -3.1027  -39.9982  -60.7489 C   0  0  0  0  0  0  0  0  0  0  0  0
   -4.1687  -40.0857  -60.0547 O   0  0  0  0  0  0  0  0  0  0  0  0
   -2.6260  -41.1983  -61.3135 O   0  0  0  0  0  0  0  0  0  0  0  0
  2  1  1  6
  2  3  1  0
  4  5  1  6
  4  2  1  0
  6  7  2  0
  6  4  1  0
  8  9  1  0
  9 19  2  0
  9 10  1  0
 10 11  2  0
 11 12  1  0
 12 13  1  0
 14 13  1  1
 14 15  1  0
 15  6  1  0
 16 14  1  0
 16 20  1  0
 17 16  2  0
 18 12  2  0
 19 18  1  0
 21 20  1  0
 21 32  1  0
 21 22  1  1
 23 22  1  0
 24 23  2  0
 25 26  1  0
 25 24  1  0
 26 31  2  0
 27 26  1  0
 27 28  2  0
 28 29  1  0
 29 30  2  0
 31 23  1  0
 31 30  1  0
 32 33  2  0
 32 34  1  0
M  END
$$$$
