KKH.pdb
     RDKit          3D

 29 29  0  0  1  0  0  0  0  0999 V2000
   27.9698  -18.6615  -16.9796 N   0  0  0  0  0  0  0  0  0  0  0  0
   26.9963  -19.7267  -16.8585 C   0  0  1  0  0  0  0  0  0  0  0  0
   27.2869  -20.6682  -15.7426 C   0  0  0  0  0  0  0  0  0  0  0  0
   28.5289  -21.4635  -15.8628 C   0  0  0  0  0  0  0  0  0  0  0  0
   28.6734  -22.3167  -17.0685 C   0  0  0  0  0  0  0  0  0  0  0  0
   28.4404  -23.7763  -16.8291 C   0  0  0  0  0  0  0  0  0  0  0  0
   28.6255  -24.5112  -18.0743 N   0  0  0  0  0  0  0  0  0  0  0  0
   25.6213  -19.1515  -16.7398 C   0  0  0  0  0  0  0  0  0  0  0  0
   25.3092  -18.4534  -15.7388 O   0  0  0  0  0  0  0  0  0  0  0  0
   24.5925  -19.3277  -17.6931 N   0  0  0  0  0  0  0  0  0  0  0  0
   23.2590  -18.8847  -17.5468 C   0  0  1  0  0  0  0  0  0  0  0  0
   22.3596  -19.0813  -18.7249 C   0  0  0  0  0  0  0  0  0  0  0  0
   20.9632  -18.5559  -18.4669 C   0  0  0  0  0  0  0  0  0  0  0  0
   20.8963  -17.0589  -18.7492 C   0  0  0  0  0  0  0  0  0  0  0  0
   19.5017  -16.5288  -18.4228 C   0  0  0  0  0  0  0  0  0  0  0  0
   19.4529  -15.1016  -18.6918 N   0  0  0  0  0  0  0  0  0  0  0  0
   22.6520  -19.5871  -16.3534 C   0  0  0  0  0  0  0  0  0  0  0  0
   22.9646  -20.7829  -16.1327 O   0  0  0  0  0  0  0  0  0  0  0  0
   21.7562  -18.9413  -15.4946 N   0  0  0  0  0  0  0  0  0  0  0  0
   21.2548  -19.6425  -14.2850 C   0  0  1  0  0  0  0  0  0  0  0  0
   21.5909  -18.8595  -13.0820 C   0  0  0  0  0  0  0  0  0  0  0  0
   21.0467  -19.2657  -11.8037 C   0  0  0  0  0  0  0  0  0  0  0  0
   20.2809  -20.3292  -11.4332 C   0  0  0  0  0  0  0  0  0  0  0  0
   20.0930  -20.2875  -10.0778 N   0  0  0  0  0  0  0  0  0  0  0  0
   20.7437  -19.2049   -9.6355 C   0  0  0  0  0  0  0  0  0  0  0  0
   21.3169  -18.5860  -10.6500 N   0  0  0  0  0  0  0  0  0  0  0  0
   19.7855  -19.8629  -14.4965 C   0  0  0  0  0  0  0  0  0  0  0  0
   19.1097  -19.0254  -15.1928 O   0  0  0  0  0  0  0  0  0  0  0  0
   19.0747  -20.9124  -13.9942 O   0  0  0  0  0  0  0  0  0  0  0  0
  2  3  1  0
  2  1  1  1
  3  4  1  0
  4  5  1  0
  5  6  1  0
  6  7  1  0
  8  9  2  0
  8  2  1  0
 10  8  1  0
 11 10  1  0
 11 12  1  6
 13 14  1  0
 13 12  1  0
 15 16  1  0
 15 14  1  0
 17 11  1  0
 17 19  1  0
 18 17  2  0
 20 19  1  0
 20 27  1  0
 20 21  1  1
 22 26  1  0
 22 21  1  0
 23 22  2  0
 24 23  1  0
 24 25  1  0
 25 26  2  0
 27 28  2  0
 27 29  1  0
M  END
$$$$
