KKH.pdb
     RDKit          3D

 29 29  0  0  1  0  0  0  0  0999 V2000
   16.3042  -15.1505  -16.7024 N   0  0  0  0  0  0  0  0  0  0  0  0
   17.5309  -14.5171  -16.2655 C   0  0  1  0  0  0  0  0  0  0  0  0
   18.7421  -15.0334  -16.9600 C   0  0  0  0  0  0  0  0  0  0  0  0
   18.9377  -16.4999  -16.9331 C   0  0  0  0  0  0  0  0  0  0  0  0
   19.7708  -17.0526  -15.8364 C   0  0  0  0  0  0  0  0  0  0  0  0
   19.9797  -18.5340  -15.9000 C   0  0  0  0  0  0  0  0  0  0  0  0
   20.7490  -18.9691  -14.7409 N   0  0  0  0  0  0  0  0  0  0  0  0
   17.4169  -13.0326  -16.4035 C   0  0  0  0  0  0  0  0  0  0  0  0
   17.5551  -12.4872  -17.5305 O   0  0  0  0  0  0  0  0  0  0  0  0
   17.1556  -12.1448  -15.3349 N   0  0  0  0  0  0  0  0  0  0  0  0
   16.9896  -10.7471  -15.4564 C   0  0  1  0  0  0  0  0  0  0  0  0
   15.9614  -10.1198  -14.5707 C   0  0  0  0  0  0  0  0  0  0  0  0
   14.5631  -10.6026  -14.8938 C   0  0  0  0  0  0  0  0  0  0  0  0
   13.5373   -9.8865  -14.0221 C   0  0  0  0  0  0  0  0  0  0  0  0
   12.1469  -10.4682  -14.2688 C   0  0  0  0  0  0  0  0  0  0  0  0
   11.1998   -9.8615  -13.3488 N   0  0  0  0  0  0  0  0  0  0  0  0
   18.3229  -10.0846  -15.1930 C   0  0  0  0  0  0  0  0  0  0  0  0
   19.0086  -10.4739  -14.2160 O   0  0  0  0  0  0  0  0  0  0  0  0
   18.8080   -9.0547  -16.0061 N   0  0  0  0  0  0  0  0  0  0  0  0
   20.1606   -8.4924  -15.7600 C   0  0  1  0  0  0  0  0  0  0  0  0
   20.9941   -8.6583  -16.9645 C   0  0  0  0  0  0  0  0  0  0  0  0
   22.3201   -8.0782  -16.9877 C   0  0  0  0  0  0  0  0  0  0  0  0
   23.0746   -7.4848  -16.0217 C   0  0  0  0  0  0  0  0  0  0  0  0
   24.2968   -7.1655  -16.5494 N   0  0  0  0  0  0  0  0  0  0  0  0
   24.2774   -7.5662  -17.8263 C   0  0  0  0  0  0  0  0  0  0  0  0
   23.1084   -8.1117  -18.1028 N   0  0  0  0  0  0  0  0  0  0  0  0
   19.9603   -7.0685  -15.3304 C   0  0  0  0  0  0  0  0  0  0  0  0
   18.9357   -6.4174  -15.7418 O   0  0  0  0  0  0  0  0  0  0  0  0
   20.8025   -6.3755  -14.5121 O   0  0  0  0  0  0  0  0  0  0  0  0
  2  3  1  0
  2  1  1  6
  3  4  1  0
  4  5  1  0
  5  6  1  0
  6  7  1  0
  8  9  2  0
  8  2  1  0
 10  8  1  0
 11 10  1  0
 11 12  1  1
 13 14  1  0
 13 12  1  0
 15 16  1  0
 15 14  1  0
 17 11  1  0
 17 19  1  0
 18 17  2  0
 20 19  1  0
 20 27  1  0
 20 21  1  6
 22 26  1  0
 22 21  1  0
 23 22  2  0
 24 23  1  0
 24 25  1  0
 25 26  2  0
 27 28  2  0
 27 29  1  0
M  END
$$$$
