KKH.pdb
     RDKit          3D

 29 29  0  0  1  0  0  0  0  0999 V2000
   29.0869  -23.9073  -16.7301 N   0  0  0  0  0  0  0  0  0  0  0  0
   27.7684  -23.7238  -17.3000 C   0  0  1  0  0  0  0  0  0  0  0  0
   26.8862  -24.9125  -17.1424 C   0  0  0  0  0  0  0  0  0  0  0  0
   27.3785  -26.1767  -17.7331 C   0  0  0  0  0  0  0  0  0  0  0  0
   27.6562  -27.2976  -16.8010 C   0  0  0  0  0  0  0  0  0  0  0  0
   28.0468  -28.5796  -17.4687 C   0  0  0  0  0  0  0  0  0  0  0  0
   28.2917  -29.6016  -16.4587 N   0  0  0  0  0  0  0  0  0  0  0  0
   27.1322  -22.4960  -16.7314 C   0  0  0  0  0  0  0  0  0  0  0  0
   27.4753  -22.0705  -15.5964 O   0  0  0  0  0  0  0  0  0  0  0  0
   26.1350  -21.7339  -17.3819 N   0  0  0  0  0  0  0  0  0  0  0  0
   25.6051  -20.5114  -16.9121 C   0  0  1  0  0  0  0  0  0  0  0  0
   25.2294  -19.5056  -17.9526 C   0  0  0  0  0  0  0  0  0  0  0  0
   25.7674  -18.1275  -17.6305 C   0  0  0  0  0  0  0  0  0  0  0  0
   25.3380  -17.1251  -18.6963 C   0  0  0  0  0  0  0  0  0  0  0  0
   25.9402  -15.7543  -18.3953 C   0  0  0  0  0  0  0  0  0  0  0  0
   25.5251  -14.8098  -19.4186 N   0  0  0  0  0  0  0  0  0  0  0  0
   24.3864  -20.8130  -16.0696 C   0  0  0  0  0  0  0  0  0  0  0  0
   23.6421  -21.7672  -16.4035 O   0  0  0  0  0  0  0  0  0  0  0  0
   24.0699  -20.0593  -14.9343 N   0  0  0  0  0  0  0  0  0  0  0  0
   22.9167  -20.4509  -14.0841 C   0  0  1  0  0  0  0  0  0  0  0  0
   23.2430  -20.2162  -12.6658 C   0  0  0  0  0  0  0  0  0  0  0  0
   24.2250  -21.0617  -12.0208 C   0  0  0  0  0  0  0  0  0  0  0  0
   24.9529  -22.1220  -12.4687 C   0  0  0  0  0  0  0  0  0  0  0  0
   25.7985  -22.5300  -11.4725 N   0  0  0  0  0  0  0  0  0  0  0  0
   25.5809  -21.7180  -10.4310 C   0  0  0  0  0  0  0  0  0  0  0  0
   24.6477  -20.8385  -10.7411 N   0  0  0  0  0  0  0  0  0  0  0  0
   21.7321  -19.6796  -14.5883 C   0  0  0  0  0  0  0  0  0  0  0  0
   21.9054  -18.5378  -15.1441 O   0  0  0  0  0  0  0  0  0  0  0  0
   20.4369  -20.0975  -14.5042 O   0  0  0  0  0  0  0  0  0  0  0  0
  2  3  1  0
  2  1  1  1
  3  4  1  0
  4  5  1  0
  5  6  1  0
  6  7  1  0
  8  9  2  0
  8  2  1  0
 10  8  1  0
 11 10  1  0
 11 12  1  6
 13 14  1  0
 13 12  1  0
 15 16  1  0
 15 14  1  0
 17 11  1  0
 17 19  1  0
 18 17  2  0
 20 19  1  0
 20 27  1  0
 20 21  1  1
 22 26  1  0
 22 21  1  0
 23 22  2  0
 24 23  1  0
 24 25  1  0
 25 26  2  0
 27 28  2  0
 27 29  1  0
M  END
$$$$
