KKH.pdb
     RDKit          3D

 29 29  0  0  1  0  0  0  0  0999 V2000
   35.1077  -26.0959  -20.3685 N   0  0  0  0  0  0  0  0  0  0  0  0
   33.8317  -26.6729  -19.9999 C   0  0  1  0  0  0  0  0  0  0  0  0
   32.7531  -26.4020  -20.9894 C   0  0  0  0  0  0  0  0  0  0  0  0
   32.4495  -24.9782  -21.2545 C   0  0  0  0  0  0  0  0  0  0  0  0
   31.7985  -24.2096  -20.1646 C   0  0  0  0  0  0  0  0  0  0  0  0
   31.3532  -22.8340  -20.5539 C   0  0  0  0  0  0  0  0  0  0  0  0
   32.5086  -21.9483  -20.6249 N   0  0  0  0  0  0  0  0  0  0  0  0
   33.9863  -28.1394  -19.7525 C   0  0  0  0  0  0  0  0  0  0  0  0
   34.2078  -28.9253  -20.7117 O   0  0  0  0  0  0  0  0  0  0  0  0
   33.9030  -28.7522  -18.4814 N   0  0  0  0  0  0  0  0  0  0  0  0
   34.0634  -30.1328  -18.2283 C   0  0  1  0  0  0  0  0  0  0  0  0
   34.9110  -30.4995  -17.0525 C   0  0  0  0  0  0  0  0  0  0  0  0
   36.3845  -30.2824  -17.3251 C   0  0  0  0  0  0  0  0  0  0  0  0
   37.2218  -30.7680  -16.1470 C   0  0  0  0  0  0  0  0  0  0  0  0
   38.7036  -30.5242  -16.4250 C   0  0  0  0  0  0  0  0  0  0  0  0
   39.4991  -31.1421  -15.3777 N   0  0  0  0  0  0  0  0  0  0  0  0
   32.6935  -30.7459  -18.0459 C   0  0  0  0  0  0  0  0  0  0  0  0
   31.9033  -30.2252  -17.2208 O   0  0  0  0  0  0  0  0  0  0  0  0
   32.2875  -31.8723  -18.7694 N   0  0  0  0  0  0  0  0  0  0  0  0
   30.9084  -32.3993  -18.6058 C   0  0  1  0  0  0  0  0  0  0  0  0
   30.0311  -31.8251  -19.6420 C   0  0  0  0  0  0  0  0  0  0  0  0
   28.6702  -32.3047  -19.7563 C   0  0  0  0  0  0  0  0  0  0  0  0
   27.9302  -33.1464  -18.9825 C   0  0  0  0  0  0  0  0  0  0  0  0
   26.6633  -33.2195  -19.4958 N   0  0  0  0  0  0  0  0  0  0  0  0
   26.6414  -32.4246  -20.5723 C   0  0  0  0  0  0  0  0  0  0  0  0
   27.8278  -31.8725  -20.7409 N   0  0  0  0  0  0  0  0  0  0  0  0
   31.0158  -33.8959  -18.6374 C   0  0  0  0  0  0  0  0  0  0  0  0
   32.1554  -34.4485  -18.8340 O   0  0  0  0  0  0  0  0  0  0  0  0
   29.9707  -34.7558  -18.4720 O   0  0  0  0  0  0  0  0  0  0  0  0
  2  3  1  0
  2  1  1  6
  3  4  1  0
  4  5  1  0
  5  6  1  0
  6  7  1  0
  8  9  2  0
  8  2  1  0
 10  8  1  0
 11 10  1  0
 11 12  1  1
 13 14  1  0
 13 12  1  0
 15 16  1  0
 15 14  1  0
 17 11  1  0
 17 19  1  0
 18 17  2  0
 20 19  1  0
 20 27  1  0
 20 21  1  6
 22 26  1  0
 22 21  1  0
 23 22  2  0
 24 23  1  0
 24 25  1  0
 25 26  2  0
 27 28  2  0
 27 29  1  0
M  END
$$$$
