KKH.pdb
     RDKit          3D

 29 29  0  0  1  0  0  0  0  0999 V2000
   28.1404  -19.4607  -15.1185 N   0  0  0  0  0  0  0  0  0  0  0  0
   27.1799  -20.5265  -15.3147 C   0  0  1  0  0  0  0  0  0  0  0  0
   27.6112  -21.5318  -16.3244 C   0  0  0  0  0  0  0  0  0  0  0  0
   28.3591  -21.0105  -17.4899 C   0  0  0  0  0  0  0  0  0  0  0  0
   28.7613  -21.9895  -18.5303 C   0  0  0  0  0  0  0  0  0  0  0  0
   29.6688  -21.4378  -19.5857 C   0  0  0  0  0  0  0  0  0  0  0  0
   30.0204  -22.4930  -20.5280 N   0  0  0  0  0  0  0  0  0  0  0  0
   26.8606  -21.1741  -14.0053 C   0  0  0  0  0  0  0  0  0  0  0  0
   26.2166  -22.2563  -13.9724 O   0  0  0  0  0  0  0  0  0  0  0  0
   27.2333  -20.6588  -12.7429 N   0  0  0  0  0  0  0  0  0  0  0  0
   26.5077  -20.8328  -11.5432 C   0  0  1  0  0  0  0  0  0  0  0  0
   27.1470  -20.3092  -10.2972 C   0  0  0  0  0  0  0  0  0  0  0  0
   26.2888  -20.5519   -9.0737 C   0  0  0  0  0  0  0  0  0  0  0  0
   26.9754  -20.0098   -7.8248 C   0  0  0  0  0  0  0  0  0  0  0  0
   26.1535  -20.3577   -6.5855 C   0  0  0  0  0  0  0  0  0  0  0  0
   26.8269  -19.8506   -5.4020 N   0  0  0  0  0  0  0  0  0  0  0  0
   25.1556  -20.1758  -11.7049 C   0  0  0  0  0  0  0  0  0  0  0  0
   25.1071  -18.9467  -11.9560 O   0  0  0  0  0  0  0  0  0  0  0  0
   23.9647  -20.8996  -11.5822 N   0  0  0  0  0  0  0  0  0  0  0  0
   22.6624  -20.2282  -11.8257 C   0  0  1  0  0  0  0  0  0  0  0  0
   22.3015  -20.3461  -13.2502 C   0  0  0  0  0  0  0  0  0  0  0  0
   21.0239  -19.8330  -13.6969 C   0  0  0  0  0  0  0  0  0  0  0  0
   20.0214  -19.1829  -13.0433 C   0  0  0  0  0  0  0  0  0  0  0  0
   19.0479  -18.8503  -13.9463 N   0  0  0  0  0  0  0  0  0  0  0  0
   19.4636  -19.2973  -15.1374 C   0  0  0  0  0  0  0  0  0  0  0  0
   20.6379  -19.8842  -15.0062 N   0  0  0  0  0  0  0  0  0  0  0  0
   21.6775  -20.8487  -10.8785 C   0  0  0  0  0  0  0  0  0  0  0  0
   20.4448  -20.5005  -10.9232 O   0  0  0  0  0  0  0  0  0  0  0  0
   21.9861  -21.7842   -9.9358 O   0  0  0  0  0  0  0  0  0  0  0  0
  2  3  1  0
  2  1  1  1
  3  4  1  0
  4  5  1  0
  5  6  1  0
  6  7  1  0
  8  9  2  0
  8  2  1  0
 10  8  1  0
 11 10  1  0
 11 12  1  1
 13 14  1  0
 13 12  1  0
 15 16  1  0
 15 14  1  0
 17 11  1  0
 17 19  1  0
 18 17  2  0
 20 19  1  0
 20 27  1  0
 20 21  1  6
 22 26  1  0
 22 21  1  0
 23 22  2  0
 24 23  1  0
 24 25  1  0
 25 26  2  0
 27 28  2  0
 27 29  1  0
M  END
$$$$
