KKH.pdb
     RDKit          3D

 29 29  0  0  1  0  0  0  0  0999 V2000
   26.8225  -17.1881  -17.3497 N   0  0  0  0  0  0  0  0  0  0  0  0
   25.8669  -17.4482  -18.4063 C   0  0  1  0  0  0  0  0  0  0  0  0
   26.4790  -18.0557  -19.6197 C   0  0  0  0  0  0  0  0  0  0  0  0
   27.9320  -18.3277  -19.5545 C   0  0  0  0  0  0  0  0  0  0  0  0
   28.5656  -18.9196  -20.7589 C   0  0  0  0  0  0  0  0  0  0  0  0
   30.0303  -19.1972  -20.6183 C   0  0  0  0  0  0  0  0  0  0  0  0
   30.5377  -19.7807  -21.8540 N   0  0  0  0  0  0  0  0  0  0  0  0
   24.7449  -18.2880  -17.8853 C   0  0  0  0  0  0  0  0  0  0  0  0
   23.7874  -18.6069  -18.6391 O   0  0  0  0  0  0  0  0  0  0  0  0
   24.6572  -18.7796  -16.5628 N   0  0  0  0  0  0  0  0  0  0  0  0
   23.6576  -19.6541  -16.0813 C   0  0  1  0  0  0  0  0  0  0  0  0
   24.1256  -20.8085  -15.2545 C   0  0  0  0  0  0  0  0  0  0  0  0
   24.6628  -21.9376  -16.1084 C   0  0  0  0  0  0  0  0  0  0  0  0
   25.1616  -23.0796  -15.2298 C   0  0  0  0  0  0  0  0  0  0  0  0
   25.6659  -24.2269  -16.1028 C   0  0  0  0  0  0  0  0  0  0  0  0
   26.2246  -25.2675  -15.2565 N   0  0  0  0  0  0  0  0  0  0  0  0
   22.6700  -18.8474  -15.2690 C   0  0  0  0  0  0  0  0  0  0  0  0
   23.1020  -17.9242  -14.5360 O   0  0  0  0  0  0  0  0  0  0  0  0
   21.2953  -19.1030  -15.3140 N   0  0  0  0  0  0  0  0  0  0  0  0
   20.3472  -18.1700  -14.6530 C   0  0  1  0  0  0  0  0  0  0  0  0
   20.5668  -16.8012  -15.1542 C   0  0  0  0  0  0  0  0  0  0  0  0
   19.6894  -15.7397  -14.7084 C   0  0  0  0  0  0  0  0  0  0  0  0
   18.6913  -15.7078  -13.7824 C   0  0  0  0  0  0  0  0  0  0  0  0
   18.2144  -14.4280  -13.6905 N   0  0  0  0  0  0  0  0  0  0  0  0
   18.9234  -13.6936  -14.5562 C   0  0  0  0  0  0  0  0  0  0  0  0
   19.8055  -14.4592  -15.1697 N   0  0  0  0  0  0  0  0  0  0  0  0
   18.9702  -18.7126  -14.9009 C   0  0  0  0  0  0  0  0  0  0  0  0
   18.7058  -19.2953  -16.0115 O   0  0  0  0  0  0  0  0  0  0  0  0
   17.9327  -18.6378  -14.0194 O   0  0  0  0  0  0  0  0  0  0  0  0
  2  3  1  0
  2  1  1  1
  3  4  1  0
  4  5  1  0
  5  6  1  0
  6  7  1  0
  8  9  2  0
  8  2  1  0
 10  8  1  0
 11 10  1  0
 11 12  1  1
 13 14  1  0
 13 12  1  0
 15 16  1  0
 15 14  1  0
 17 11  1  0
 17 19  1  0
 18 17  2  0
 20 19  1  0
 20 27  1  0
 20 21  1  6
 22 26  1  0
 22 21  1  0
 23 22  2  0
 24 23  1  0
 24 25  1  0
 25 26  2  0
 27 28  2  0
 27 29  1  0
M  END
$$$$
