KKH.pdb
     RDKit          3D

 29 29  0  0  1  0  0  0  0  0999 V2000
   33.7861  -33.3172  -15.8104 N   0  0  0  0  0  0  0  0  0  0  0  0
   33.7865  -32.5285  -17.0249 C   0  0  1  0  0  0  0  0  0  0  0  0
   33.8753  -33.3505  -18.2628 C   0  0  0  0  0  0  0  0  0  0  0  0
   35.0935  -34.1765  -18.4149 C   0  0  0  0  0  0  0  0  0  0  0  0
   36.2390  -33.5687  -19.1364 C   0  0  0  0  0  0  0  0  0  0  0  0
   37.4216  -34.4726  -19.2998 C   0  0  0  0  0  0  0  0  0  0  0  0
   38.4703  -33.7769  -20.0352 N   0  0  0  0  0  0  0  0  0  0  0  0
   32.5900  -31.6322  -17.0526 C   0  0  0  0  0  0  0  0  0  0  0  0
   32.3215  -30.9007  -16.0629 O   0  0  0  0  0  0  0  0  0  0  0  0
   31.6916  -31.5260  -18.1388 N   0  0  0  0  0  0  0  0  0  0  0  0
   30.6328  -30.5956  -18.2349 C   0  0  1  0  0  0  0  0  0  0  0  0
   30.5561  -29.8033  -19.5005 C   0  0  0  0  0  0  0  0  0  0  0  0
   31.5668  -28.6762  -19.5267 C   0  0  0  0  0  0  0  0  0  0  0  0
   31.4441  -27.8803  -20.8215 C   0  0  0  0  0  0  0  0  0  0  0  0
   32.4349  -26.7181  -20.8149 C   0  0  0  0  0  0  0  0  0  0  0  0
   32.2572  -25.9256  -22.0198 N   0  0  0  0  0  0  0  0  0  0  0  0
   29.3285  -31.3377  -18.0500 C   0  0  0  0  0  0  0  0  0  0  0  0
   29.2069  -32.4809  -18.5545 O   0  0  0  0  0  0  0  0  0  0  0  0
   28.2606  -30.7850  -17.3350 N   0  0  0  0  0  0  0  0  0  0  0  0
   27.0091  -31.5642  -17.1542 C   0  0  1  0  0  0  0  0  0  0  0  0
   26.7496  -31.7603  -15.7163 C   0  0  0  0  0  0  0  0  0  0  0  0
   25.5349  -32.4322  -15.3060 C   0  0  0  0  0  0  0  0  0  0  0  0
   24.5799  -33.1026  -16.0083 C   0  0  0  0  0  0  0  0  0  0  0  0
   23.6628  -33.6140  -15.1301 N   0  0  0  0  0  0  0  0  0  0  0  0
   24.0652  -33.2537  -13.9055 C   0  0  0  0  0  0  0  0  0  0  0  0
   25.1779  -32.5502  -13.9928 N   0  0  0  0  0  0  0  0  0  0  0  0
   25.9319  -30.8198  -17.8875 C   0  0  0  0  0  0  0  0  0  0  0  0
   26.0781  -29.5714  -18.1382 O   0  0  0  0  0  0  0  0  0  0  0  0
   24.7646  -31.3708  -18.3269 O   0  0  0  0  0  0  0  0  0  0  0  0
  2  3  1  0
  2  1  1  1
  3  4  1  0
  4  5  1  0
  5  6  1  0
  6  7  1  0
  8  9  2  0
  8  2  1  0
 10  8  1  0
 11 10  1  0
 11 12  1  6
 13 14  1  0
 13 12  1  0
 15 16  1  0
 15 14  1  0
 17 11  1  0
 17 19  1  0
 18 17  2  0
 20 19  1  0
 20 27  1  0
 20 21  1  1
 22 26  1  0
 22 21  1  0
 23 22  2  0
 24 23  1  0
 24 25  1  0
 25 26  2  0
 27 28  2  0
 27 29  1  0
M  END
$$$$
