KKH.pdb
     RDKit          3D

 29 29  0  0  1  0  0  0  0  0999 V2000
   15.7453  -20.8110    0.1669 N   0  0  0  0  0  0  0  0  0  0  0  0
   15.0535  -20.3354    1.3468 C   0  0  1  0  0  0  0  0  0  0  0  0
   14.3760  -21.4185    2.1110 C   0  0  0  0  0  0  0  0  0  0  0  0
   13.2256  -22.0691    1.4454 C   0  0  0  0  0  0  0  0  0  0  0  0
   13.4603  -23.4012    0.8348 C   0  0  0  0  0  0  0  0  0  0  0  0
   12.2673  -23.9889    0.1468 C   0  0  0  0  0  0  0  0  0  0  0  0
   12.6122  -25.2964   -0.3975 N   0  0  0  0  0  0  0  0  0  0  0  0
   15.9953  -19.5648    2.2157 C   0  0  0  0  0  0  0  0  0  0  0  0
   17.1416  -20.0208    2.4703 O   0  0  0  0  0  0  0  0  0  0  0  0
   15.7028  -18.3132    2.8041 N   0  0  0  0  0  0  0  0  0  0  0  0
   16.6030  -17.5417    3.5724 C   0  0  1  0  0  0  0  0  0  0  0  0
   16.5008  -16.0574    3.4248 C   0  0  0  0  0  0  0  0  0  0  0  0
   17.6035  -15.3355    4.1700 C   0  0  0  0  0  0  0  0  0  0  0  0
   17.5816  -13.8464    3.8431 C   0  0  0  0  0  0  0  0  0  0  0  0
   18.8184  -13.1663    4.4265 C   0  0  0  0  0  0  0  0  0  0  0  0
   18.8395  -11.7717    4.0192 N   0  0  0  0  0  0  0  0  0  0  0  0
   16.4108  -17.8964    5.0295 C   0  0  0  0  0  0  0  0  0  0  0  0
   15.2489  -18.1206    5.4487 O   0  0  0  0  0  0  0  0  0  0  0  0
   17.4895  -17.9802    5.9165 N   0  0  0  0  0  0  0  0  0  0  0  0
   17.2462  -18.2781    7.3512 C   0  0  1  0  0  0  0  0  0  0  0  0
   17.4791  -19.7111    7.6072 C   0  0  0  0  0  0  0  0  0  0  0  0
   16.3528  -20.6202    7.5937 C   0  0  0  0  0  0  0  0  0  0  0  0
   15.0356  -20.4472    7.8930 C   0  0  0  0  0  0  0  0  0  0  0  0
   14.3696  -21.6181    7.6494 N   0  0  0  0  0  0  0  0  0  0  0  0
   15.2819  -22.4905    7.2046 C   0  0  0  0  0  0  0  0  0  0  0  0
   16.4671  -21.9122    7.1653 N   0  0  0  0  0  0  0  0  0  0  0  0
   18.1285  -17.3519    8.1360 C   0  0  0  0  0  0  0  0  0  0  0  0
   18.8879  -16.5224    7.5210 O   0  0  0  0  0  0  0  0  0  0  0  0
   18.2011  -17.3116    9.4969 O   0  0  0  0  0  0  0  0  0  0  0  0
  2  3  1  0
  2  1  1  6
  3  4  1  0
  4  5  1  0
  5  6  1  0
  6  7  1  0
  8  9  2  0
  8  2  1  0
 10  8  1  0
 11 10  1  0
 11 12  1  1
 13 14  1  0
 13 12  1  0
 15 16  1  0
 15 14  1  0
 17 11  1  0
 17 19  1  0
 18 17  2  0
 20 19  1  0
 20 27  1  0
 20 21  1  6
 22 26  1  0
 22 21  1  0
 23 22  2  0
 24 23  1  0
 24 25  1  0
 25 26  2  0
 27 28  2  0
 27 29  1  0
M  END
$$$$
