KKH.pdb
     RDKit          3D

 29 29  0  0  1  0  0  0  0  0999 V2000
   24.9009  -26.7389  -16.7779 N   0  0  0  0  0  0  0  0  0  0  0  0
   23.8318  -26.2274  -17.6099 C   0  0  1  0  0  0  0  0  0  0  0  0
   22.8779  -27.2785  -18.0584 C   0  0  0  0  0  0  0  0  0  0  0  0
   23.4764  -28.5283  -18.5774 C   0  0  0  0  0  0  0  0  0  0  0  0
   23.5237  -29.6908  -17.6563 C   0  0  0  0  0  0  0  0  0  0  0  0
   24.0165  -30.9595  -18.2807 C   0  0  0  0  0  0  0  0  0  0  0  0
   24.0744  -32.0101  -17.2719 N   0  0  0  0  0  0  0  0  0  0  0  0
   23.1230  -25.1154  -16.9051 C   0  0  0  0  0  0  0  0  0  0  0  0
   23.0644  -25.0965  -15.6469 O   0  0  0  0  0  0  0  0  0  0  0  0
   22.4836  -24.0334  -17.5521 N   0  0  0  0  0  0  0  0  0  0  0  0
   21.9326  -22.9050  -16.9048 C   0  0  1  0  0  0  0  0  0  0  0  0
   21.8057  -21.6626  -17.7267 C   0  0  0  0  0  0  0  0  0  0  0  0
   23.1514  -21.1559  -18.2012 C   0  0  0  0  0  0  0  0  0  0  0  0
   22.9721  -19.9788  -19.1537 C   0  0  0  0  0  0  0  0  0  0  0  0
   24.3350  -19.4871  -19.6369 C   0  0  0  0  0  0  0  0  0  0  0  0
   24.1469  -18.4457  -20.6326 N   0  0  0  0  0  0  0  0  0  0  0  0
   20.5649  -23.2781  -16.3793 C   0  0  0  0  0  0  0  0  0  0  0  0
   19.8136  -23.9833  -17.0967 O   0  0  0  0  0  0  0  0  0  0  0  0
   20.1188  -22.8593  -15.1213 N   0  0  0  0  0  0  0  0  0  0  0  0
   18.7718  -23.2618  -14.6421 C   0  0  1  0  0  0  0  0  0  0  0  0
   18.8817  -23.8678  -13.3027 C   0  0  0  0  0  0  0  0  0  0  0  0
   19.3006  -25.2486  -13.1876 C   0  0  0  0  0  0  0  0  0  0  0  0
   19.5762  -26.2005  -14.1217 C   0  0  0  0  0  0  0  0  0  0  0  0
   20.0012  -27.3351  -13.4845 N   0  0  0  0  0  0  0  0  0  0  0  0
   19.9823  -27.0661  -12.1735 C   0  0  0  0  0  0  0  0  0  0  0  0
   19.5681  -25.8285  -11.9801 N   0  0  0  0  0  0  0  0  0  0  0  0
   17.9113  -22.0338  -14.7033 C   0  0  0  0  0  0  0  0  0  0  0  0
   18.4480  -20.8744  -14.5999 O   0  0  0  0  0  0  0  0  0  0  0  0
   16.5572  -22.0382  -14.8628 O   0  0  0  0  0  0  0  0  0  0  0  0
  2  3  1  0
  2  1  1  1
  3  4  1  0
  4  5  1  0
  5  6  1  0
  6  7  1  0
  8  9  2  0
  8  2  1  0
 10  8  1  0
 11 10  1  0
 11 12  1  6
 13 14  1  0
 13 12  1  0
 15 16  1  0
 15 14  1  0
 17 11  1  0
 17 19  1  0
 18 17  2  0
 20 19  1  0
 20 27  1  0
 20 21  1  1
 22 26  1  0
 22 21  1  0
 23 22  2  0
 24 23  1  0
 24 25  1  0
 25 26  2  0
 27 28  2  0
 27 29  1  0
M  END
$$$$
