KKH.pdb
     RDKit          3D

 29 29  0  0  1  0  0  0  0  0999 V2000
   27.5951  -20.7680  -16.8164 N   0  0  0  0  0  0  0  0  0  0  0  0
   27.3050  -22.1430  -16.4667 C   0  0  1  0  0  0  0  0  0  0  0  0
   28.5130  -23.0124  -16.4374 C   0  0  0  0  0  0  0  0  0  0  0  0
   29.6163  -22.6321  -17.3473 C   0  0  0  0  0  0  0  0  0  0  0  0
   29.9514  -23.5794  -18.4393 C   0  0  0  0  0  0  0  0  0  0  0  0
   31.0368  -23.1107  -19.3581 C   0  0  0  0  0  0  0  0  0  0  0  0
   31.2462  -24.0975  -20.4103 N   0  0  0  0  0  0  0  0  0  0  0  0
   26.5665  -22.1951  -15.1677 C   0  0  0  0  0  0  0  0  0  0  0  0
   26.0545  -23.2755  -14.7712 O   0  0  0  0  0  0  0  0  0  0  0  0
   26.3827  -21.0912  -14.3040 N   0  0  0  0  0  0  0  0  0  0  0  0
   25.6550  -21.1139  -13.0932 C   0  0  1  0  0  0  0  0  0  0  0  0
   26.4156  -20.7679  -11.8534 C   0  0  0  0  0  0  0  0  0  0  0  0
   25.5631  -20.8995  -10.6091 C   0  0  0  0  0  0  0  0  0  0  0  0
   26.3593  -20.4973   -9.3724 C   0  0  0  0  0  0  0  0  0  0  0  0
   25.5073  -20.6880   -8.1193 C   0  0  0  0  0  0  0  0  0  0  0  0
   26.3092  -20.3997   -6.9423 N   0  0  0  0  0  0  0  0  0  0  0  0
   24.4852  -20.1648  -13.2227 C   0  0  0  0  0  0  0  0  0  0  0  0
   24.7010  -18.9883  -13.6042 O   0  0  0  0  0  0  0  0  0  0  0  0
   23.1766  -20.5631  -12.9296 N   0  0  0  0  0  0  0  0  0  0  0  0
   22.1546  -20.5972  -14.0070 C   0  0  1  0  0  0  0  0  0  0  0  0
   22.6558  -21.3935  -15.1418 C   0  0  0  0  0  0  0  0  0  0  0  0
   21.7806  -21.6419  -16.2677 C   0  0  0  0  0  0  0  0  0  0  0  0
   20.5054  -21.2476  -16.5379 C   0  0  0  0  0  0  0  0  0  0  0  0
   20.1573  -21.6999  -17.7822 N   0  0  0  0  0  0  0  0  0  0  0  0
   21.2186  -22.3619  -18.2582 C   0  0  0  0  0  0  0  0  0  0  0  0
   22.1932  -22.3364  -17.3693 N   0  0  0  0  0  0  0  0  0  0  0  0
   20.8939  -21.1216  -13.3843 C   0  0  0  0  0  0  0  0  0  0  0  0
   20.9464  -21.7354  -12.2603 O   0  0  0  0  0  0  0  0  0  0  0  0
   19.6487  -21.0025  -13.9270 O   0  0  0  0  0  0  0  0  0  0  0  0
  2  3  1  0
  2  1  1  1
  3  4  1  0
  4  5  1  0
  5  6  1  0
  6  7  1  0
  8  9  2  0
  8  2  1  0
 10  8  1  0
 11 10  1  0
 11 12  1  1
 13 14  1  0
 13 12  1  0
 15 16  1  0
 15 14  1  0
 17 11  1  0
 17 19  1  0
 18 17  2  0
 20 19  1  0
 20 27  1  0
 20 21  1  6
 22 26  1  0
 22 21  1  0
 23 22  2  0
 24 23  1  0
 24 25  1  0
 25 26  2  0
 27 28  2  0
 27 29  1  0
M  END
$$$$
