KKH.pdb
     RDKit          3D

 29 29  0  0  1  0  0  0  0  0999 V2000
   31.7754  -28.7703  -19.0762 N   0  0  0  0  0  0  0  0  0  0  0  0
   32.5144  -27.6079  -18.6294 C   0  0  1  0  0  0  0  0  0  0  0  0
   33.9093  -27.5599  -19.1471 C   0  0  0  0  0  0  0  0  0  0  0  0
   34.4121  -28.7938  -19.7908 C   0  0  0  0  0  0  0  0  0  0  0  0
   35.2519  -29.6959  -18.9642 C   0  0  0  0  0  0  0  0  0  0  0  0
   35.8093  -30.8746  -19.7003 C   0  0  0  0  0  0  0  0  0  0  0  0
   36.6193  -31.6785  -18.7933 N   0  0  0  0  0  0  0  0  0  0  0  0
   31.7638  -26.3615  -18.9741 C   0  0  0  0  0  0  0  0  0  0  0  0
   32.2696  -25.2312  -18.7429 O   0  0  0  0  0  0  0  0  0  0  0  0
   30.4792  -26.3352  -19.5635 N   0  0  0  0  0  0  0  0  0  0  0  0
   29.7417  -25.1679  -19.8624 C   0  0  1  0  0  0  0  0  0  0  0  0
   29.7864  -24.6977  -21.2809 C   0  0  0  0  0  0  0  0  0  0  0  0
   29.0125  -23.4112  -21.4773 C   0  0  0  0  0  0  0  0  0  0  0  0
   29.0896  -22.9594  -22.9315 C   0  0  0  0  0  0  0  0  0  0  0  0
   28.3340  -21.6441  -23.1095 C   0  0  0  0  0  0  0  0  0  0  0  0
   28.4403  -21.2098  -24.4920 N   0  0  0  0  0  0  0  0  0  0  0  0
   28.2988  -25.4046  -19.4774 C   0  0  0  0  0  0  0  0  0  0  0  0
   27.7909  -26.5309  -19.7003 O   0  0  0  0  0  0  0  0  0  0  0  0
   27.5208  -24.4054  -18.8828 N   0  0  0  0  0  0  0  0  0  0  0  0
   26.0755  -24.6420  -18.6355 C   0  0  1  0  0  0  0  0  0  0  0  0
   25.8777  -25.1018  -17.2489 C   0  0  0  0  0  0  0  0  0  0  0  0
   24.5299  -25.2913  -16.7561 C   0  0  0  0  0  0  0  0  0  0  0  0
   23.3122  -25.1530  -17.3500 C   0  0  0  0  0  0  0  0  0  0  0  0
   22.3413  -25.5229  -16.4588 N   0  0  0  0  0  0  0  0  0  0  0  0
   22.9723  -25.8831  -15.3348 C   0  0  0  0  0  0  0  0  0  0  0  0
   24.2752  -25.7514  -15.4954 N   0  0  0  0  0  0  0  0  0  0  0  0
   25.3681  -23.3631  -18.9763 C   0  0  0  0  0  0  0  0  0  0  0  0
   24.0905  -23.3009  -18.8954 O   0  0  0  0  0  0  0  0  0  0  0  0
   25.9839  -22.2164  -19.3826 O   0  0  0  0  0  0  0  0  0  0  0  0
  2  3  1  0
  2  1  1  6
  3  4  1  0
  4  5  1  0
  5  6  1  0
  6  7  1  0
  8  9  2  0
  8  2  1  0
 10  8  1  0
 11 10  1  0
 11 12  1  6
 13 14  1  0
 13 12  1  0
 15 16  1  0
 15 14  1  0
 17 11  1  0
 17 19  1  0
 18 17  2  0
 20 19  1  0
 20 27  1  0
 20 21  1  1
 22 26  1  0
 22 21  1  0
 23 22  2  0
 24 23  1  0
 24 25  1  0
 25 26  2  0
 27 28  2  0
 27 29  1  0
M  END
$$$$
