WIT.pdb
     RDKit          3D

 30 31  0  0  1  0  0  0  0  0999 V2000
   27.6803  -22.8873  -13.7415 N   0  0  0  0  0  0  0  0  0  0  0  0
   27.2250  -21.8889  -12.7407 C   0  0  1  0  0  0  0  0  0  0  0  0
   27.9309  -20.6288  -13.0827 C   0  0  0  0  0  0  0  0  0  0  0  0
   29.2675  -20.4205  -12.5241 C   0  0  0  0  0  0  0  0  0  0  0  0
   30.0721  -19.3229  -12.8336 C   0  0  0  0  0  0  0  0  0  0  0  0
   31.2211  -19.4752  -12.1914 N   0  0  0  0  0  0  0  0  0  0  0  0
   31.2354  -20.6025  -11.4728 C   0  0  0  0  0  0  0  0  0  0  0  0
   32.2132  -21.1558  -10.6385 C   0  0  0  0  0  0  0  0  0  0  0  0
   31.9313  -22.3415  -10.0014 C   0  0  0  0  0  0  0  0  0  0  0  0
   30.7120  -22.9492  -10.1951 C   0  0  0  0  0  0  0  0  0  0  0  0
   29.7736  -22.3952  -11.0115 C   0  0  0  0  0  0  0  0  0  0  0  0
   30.0204  -21.1940  -11.6769 C   0  0  0  0  0  0  0  0  0  0  0  0
   25.7707  -21.7658  -12.8030 C   0  0  0  0  0  0  0  0  0  0  0  0
   25.1331  -22.0749  -13.8354 O   0  0  0  0  0  0  0  0  0  0  0  0
   21.0784  -20.4997   -8.9534 C   0  0  0  0  0  0  0  0  0  0  0  0
   21.4908  -20.7356  -10.3959 C   0  0  0  0  0  0  0  0  0  0  0  0
   23.0001  -20.8719  -10.4106 C   0  0  2  0  0  0  0  0  0  0  0  0
   23.5826  -19.5829   -9.9005 C   0  0  0  0  0  0  0  0  0  0  0  0
   23.5413  -21.2304  -11.7654 C   0  0  2  0  0  0  0  0  0  0  0  0
   24.9680  -21.2883  -11.7115 N   0  0  0  0  0  0  0  0  0  0  0  0
   23.0675  -20.1648  -12.7124 C   0  0  0  0  0  0  0  0  0  0  0  0
   23.4162  -18.9751  -12.5530 O   0  0  0  0  0  0  0  0  0  0  0  0
   23.5597  -19.6549  -16.3218 C   0  0  0  0  0  0  0  0  0  0  0  0
   22.0630  -19.8353  -16.1782 C   0  0  1  0  0  0  0  0  0  0  0  0
   21.7857  -21.1676  -16.4759 O   0  0  0  0  0  0  0  0  0  0  0  0
   21.7110  -19.4916  -14.7486 C   0  0  2  0  0  0  0  0  0  0  0  0
   22.2179  -20.4683  -13.8102 N   0  0  0  0  0  0  0  0  0  0  0  0
   20.2314  -19.4580  -14.6548 C   0  0  0  0  0  0  0  0  0  0  0  0
   19.4825  -18.5070  -15.3786 O   0  0  0  0  0  0  0  0  0  0  0  0
   19.5484  -20.2384  -13.9548 O   0  0  0  0  0  0  0  0  0  0  0  0
  2  1  1  6
  2 13  1  0
  3  4  1  0
  3  2  1  0
  4 12  1  0
  5  4  2  0
  5  6  1  0
  6  7  1  0
  7  8  1  0
  8  9  2  0
 10  9  1  0
 11 10  2  0
 12  7  2  0
 12 11  1  0
 13 20  1  0
 13 14  2  0
 16 17  1  0
 16 15  1  0
 17 18  1  6
 19 17  1  0
 19 21  1  0
 19 20  1  1
 21 22  2  0
 24 23  1  1
 24 26  1  0
 25 24  1  0
 26 28  1  0
 26 27  1  1
 27 21  1  0
 28 29  1  0
 30 28  2  0
M  END
$$$$
