WIT.pdb
     RDKit          3D

 30 31  0  0  1  0  0  0  0  0999 V2000
   24.2096  -20.8487  -14.3073 N   0  0  0  0  0  0  0  0  0  0  0  0
   23.8937  -19.9596  -13.1604 C   0  0  1  0  0  0  0  0  0  0  0  0
   22.5167  -19.4631  -13.4063 C   0  0  0  0  0  0  0  0  0  0  0  0
   22.2909  -18.6309  -14.5888 C   0  0  0  0  0  0  0  0  0  0  0  0
   21.3606  -18.9370  -15.5832 C   0  0  0  0  0  0  0  0  0  0  0  0
   21.4505  -18.0013  -16.5171 N   0  0  0  0  0  0  0  0  0  0  0  0
   22.3796  -17.0903  -16.2105 C   0  0  0  0  0  0  0  0  0  0  0  0
   22.8009  -15.9363  -16.8807 C   0  0  0  0  0  0  0  0  0  0  0  0
   23.7822  -15.1673  -16.3002 C   0  0  0  0  0  0  0  0  0  0  0  0
   24.3206  -15.5434  -15.0911 C   0  0  0  0  0  0  0  0  0  0  0  0
   23.8977  -16.6704  -14.4547 C   0  0  0  0  0  0  0  0  0  0  0  0
   22.9051  -17.4784  -15.0101 C   0  0  0  0  0  0  0  0  0  0  0  0
   24.0175  -20.7109  -11.9137 C   0  0  0  0  0  0  0  0  0  0  0  0
   23.5576  -21.8702  -11.8018 O   0  0  0  0  0  0  0  0  0  0  0  0
   27.0663  -20.3448   -6.5509 C   0  0  0  0  0  0  0  0  0  0  0  0
   25.9897  -21.0746   -7.3351 C   0  0  0  0  0  0  0  0  0  0  0  0
   25.7596  -20.2900   -8.6112 C   0  0  2  0  0  0  0  0  0  0  0  0
   25.3669  -18.8907   -8.2255 C   0  0  0  0  0  0  0  0  0  0  0  0
   24.7402  -20.9264   -9.5127 C   0  0  2  0  0  0  0  0  0  0  0  0
   24.6601  -20.1944  -10.7372 N   0  0  0  0  0  0  0  0  0  0  0  0
   23.4353  -20.9026   -8.7689 C   0  0  0  0  0  0  0  0  0  0  0  0
   22.7664  -19.8492   -8.6967 O   0  0  0  0  0  0  0  0  0  0  0  0
   20.5551  -23.6751   -8.8830 C   0  0  0  0  0  0  0  0  0  0  0  0
   21.0261  -23.4738   -7.4579 C   0  0  1  0  0  0  0  0  0  0  0  0
   21.9327  -24.4951   -7.1833 O   0  0  0  0  0  0  0  0  0  0  0  0
   21.6763  -22.1102   -7.3952 C   0  0  2  0  0  0  0  0  0  0  0  0
   22.9208  -22.0631   -8.1304 N   0  0  0  0  0  0  0  0  0  0  0  0
   21.9503  -21.8178   -5.9675 C   0  0  0  0  0  0  0  0  0  0  0  0
   20.8951  -21.6874   -5.0408 O   0  0  0  0  0  0  0  0  0  0  0  0
   23.0937  -21.6681   -5.4821 O   0  0  0  0  0  0  0  0  0  0  0  0
  2  1  1  6
  2 13  1  0
  3  4  1  0
  3  2  1  0
  4 12  1  0
  5  4  2  0
  5  6  1  0
  6  7  1  0
  7  8  1  0
  8  9  2  0
 10  9  1  0
 11 10  2  0
 12  7  2  0
 12 11  1  0
 13 20  1  0
 13 14  2  0
 16 17  1  0
 16 15  1  0
 17 18  1  1
 19 17  1  0
 19 21  1  0
 19 20  1  6
 21 22  2  0
 24 23  1  6
 24 26  1  0
 25 24  1  0
 26 28  1  0
 26 27  1  6
 27 21  1  0
 28 29  1  0
 30 28  2  0
M  END
$$$$
