WIT.pdb
     RDKit          3D

 30 31  0  0  1  0  0  0  0  0999 V2000
   17.7142  -11.5850  -17.3850 N   0  0  0  0  0  0  0  0  0  0  0  0
   18.6810  -10.5429  -17.8150 C   0  0  1  0  0  0  0  0  0  0  0  0
   17.9480   -9.6935  -18.7867 C   0  0  0  0  0  0  0  0  0  0  0  0
   17.7616  -10.2111  -20.1430 C   0  0  0  0  0  0  0  0  0  0  0  0
   16.7454  -11.0994  -20.4984 C   0  0  0  0  0  0  0  0  0  0  0  0
   16.8988  -11.3900  -21.7821 N   0  0  0  0  0  0  0  0  0  0  0  0
   17.9505  -10.7530  -22.3067 C   0  0  0  0  0  0  0  0  0  0  0  0
   18.4744  -10.7444  -23.6043 C   0  0  0  0  0  0  0  0  0  0  0  0
   19.5756   -9.9604  -23.8573 C   0  0  0  0  0  0  0  0  0  0  0  0
   20.1302   -9.2125  -22.8443 C   0  0  0  0  0  0  0  0  0  0  0  0
   19.6063   -9.2347  -21.5876 C   0  0  0  0  0  0  0  0  0  0  0  0
   18.4904  -10.0173  -21.2893 C   0  0  0  0  0  0  0  0  0  0  0  0
   19.1499   -9.8022  -16.6465 C   0  0  0  0  0  0  0  0  0  0  0  0
   18.4055   -9.5996  -15.6602 O   0  0  0  0  0  0  0  0  0  0  0  0
   23.4234  -11.1073  -14.0976 C   0  0  0  0  0  0  0  0  0  0  0  0
   22.0824  -10.6386  -14.6350 C   0  0  0  0  0  0  0  0  0  0  0  0
   22.1953   -9.1460  -14.8723 C   0  0  2  0  0  0  0  0  0  0  0  0
   22.6429   -8.5090  -13.5859 C   0  0  0  0  0  0  0  0  0  0  0  0
   20.9197   -8.5371  -15.3813 C   0  0  2  0  0  0  0  0  0  0  0  0
   20.4730   -9.2542  -16.5337 N   0  0  0  0  0  0  0  0  0  0  0  0
   21.2291   -7.1040  -15.7085 C   0  0  0  0  0  0  0  0  0  0  0  0
   22.1213   -6.8218  -16.5372 O   0  0  0  0  0  0  0  0  0  0  0  0
   18.6702   -4.2795  -16.5958 C   0  0  0  0  0  0  0  0  0  0  0  0
   19.4668   -3.8350  -15.3870 C   0  0  1  0  0  0  0  0  0  0  0  0
   18.6855   -4.1057  -14.2659 O   0  0  0  0  0  0  0  0  0  0  0  0
   20.7511   -4.6328  -15.3857 C   0  0  2  0  0  0  0  0  0  0  0  0
   20.5260   -6.0317  -15.0961 N   0  0  0  0  0  0  0  0  0  0  0  0
   21.6252   -4.0591  -14.3341 C   0  0  0  0  0  0  0  0  0  0  0  0
   22.1252   -2.7452  -14.4471 O   0  0  0  0  0  0  0  0  0  0  0  0
   21.9794   -4.6660  -13.2990 O   0  0  0  0  0  0  0  0  0  0  0  0
  2  1  1  1
  2 13  1  0
  3  4  1  0
  3  2  1  0
  4 12  1  0
  5  4  2  0
  5  6  1  0
  6  7  1  0
  7  8  1  0
  8  9  2  0
 10  9  1  0
 11 10  2  0
 12  7  2  0
 12 11  1  0
 13 20  1  0
 13 14  2  0
 16 17  1  0
 16 15  1  0
 17 18  1  1
 19 17  1  0
 19 21  1  0
 19 20  1  6
 21 22  2  0
 24 23  1  6
 24 26  1  0
 25 24  1  0
 26 28  1  0
 26 27  1  1
 27 21  1  0
 28 29  1  0
 30 28  2  0
M  END
$$$$
