WIT.pdb
     RDKit          3D

 30 31  0  0  1  0  0  0  0  0999 V2000
   24.1894  -20.0801  -10.6838 N   0  0  0  0  0  0  0  0  0  0  0  0
   24.5727  -20.1045  -12.1184 C   0  0  1  0  0  0  0  0  0  0  0  0
   25.3358  -21.3634  -12.3074 C   0  0  0  0  0  0  0  0  0  0  0  0
   26.6993  -21.4225  -11.7788 C   0  0  0  0  0  0  0  0  0  0  0  0
   27.0364  -22.0499  -10.5785 C   0  0  0  0  0  0  0  0  0  0  0  0
   28.3359  -21.8756  -10.3870 N   0  0  0  0  0  0  0  0  0  0  0  0
   28.8882  -21.1736  -11.3816 C   0  0  0  0  0  0  0  0  0  0  0  0
   30.2090  -20.7699  -11.6072 C   0  0  0  0  0  0  0  0  0  0  0  0
   30.4872  -20.0611  -12.7524 C   0  0  0  0  0  0  0  0  0  0  0  0
   29.4760  -19.7685  -13.6386 C   0  0  0  0  0  0  0  0  0  0  0  0
   28.1967  -20.1696  -13.4009 C   0  0  0  0  0  0  0  0  0  0  0  0
   27.8724  -20.8898  -12.2508 C   0  0  0  0  0  0  0  0  0  0  0  0
   23.3702  -20.0341  -12.9447 C   0  0  0  0  0  0  0  0  0  0  0  0
   22.2484  -20.3600  -12.4938 O   0  0  0  0  0  0  0  0  0  0  0  0
   22.8794  -15.8660  -16.3296 C   0  0  0  0  0  0  0  0  0  0  0  0
   22.7331  -16.9476  -15.2736 C   0  0  0  0  0  0  0  0  0  0  0  0
   22.3587  -18.2265  -15.9954 C   0  0  2  0  0  0  0  0  0  0  0  0
   21.1174  -17.9539  -16.7990 C   0  0  0  0  0  0  0  0  0  0  0  0
   22.1750  -19.3909  -15.0640 C   0  0  2  0  0  0  0  0  0  0  0  0
   23.3731  -19.5978  -14.3134 N   0  0  0  0  0  0  0  0  0  0  0  0
   21.8492  -20.5798  -15.9225 C   0  0  0  0  0  0  0  0  0  0  0  0
   22.2503  -20.6362  -17.1050 O   0  0  0  0  0  0  0  0  0  0  0  0
   22.1254  -24.4134  -15.0338 C   0  0  0  0  0  0  0  0  0  0  0  0
   20.6869  -24.0929  -15.3818 C   0  0  1  0  0  0  0  0  0  0  0  0
   20.0081  -23.9205  -14.1776 O   0  0  0  0  0  0  0  0  0  0  0  0
   20.7030  -22.8259  -16.2067 C   0  0  2  0  0  0  0  0  0  0  0  0
   21.0842  -21.6696  -15.4263 N   0  0  0  0  0  0  0  0  0  0  0  0
   19.3299  -22.6220  -16.7283 C   0  0  0  0  0  0  0  0  0  0  0  0
   18.7631  -23.5304  -17.6464 O   0  0  0  0  0  0  0  0  0  0  0  0
   18.5868  -21.6666  -16.4118 O   0  0  0  0  0  0  0  0  0  0  0  0
  2  1  1  1
  2 13  1  0
  3  4  1  0
  3  2  1  0
  4 12  1  0
  5  4  2  0
  5  6  1  0
  6  7  1  0
  7  8  1  0
  8  9  2  0
 10  9  1  0
 11 10  2  0
 12  7  2  0
 12 11  1  0
 13 20  1  0
 13 14  2  0
 16 17  1  0
 16 15  1  0
 17 18  1  1
 19 17  1  0
 19 21  1  0
 19 20  1  6
 21 22  2  0
 24 23  1  1
 24 26  1  0
 25 24  1  0
 26 28  1  0
 26 27  1  1
 27 21  1  0
 28 29  1  0
 30 28  2  0
M  END
$$$$
