WIT.pdb
     RDKit          3D

 30 31  0  0  1  0  0  0  0  0999 V2000
   26.1484  -20.3839  -17.6791 N   0  0  0  0  0  0  0  0  0  0  0  0
   25.1982  -19.7583  -16.7244 C   0  0  1  0  0  0  0  0  0  0  0  0
   23.9826  -19.4457  -17.5166 C   0  0  0  0  0  0  0  0  0  0  0  0
   24.0328  -18.2965  -18.4214 C   0  0  0  0  0  0  0  0  0  0  0  0
   24.6136  -18.3361  -19.6899 C   0  0  0  0  0  0  0  0  0  0  0  0
   24.5216  -17.1210  -20.2103 N   0  0  0  0  0  0  0  0  0  0  0  0
   23.9166  -16.2732  -19.3722 C   0  0  0  0  0  0  0  0  0  0  0  0
   23.5927  -14.9179  -19.5009 C   0  0  0  0  0  0  0  0  0  0  0  0
   22.9386  -14.3026  -18.4593 C   0  0  0  0  0  0  0  0  0  0  0  0
   22.6214  -15.0220  -17.3301 C   0  0  0  0  0  0  0  0  0  0  0  0
   22.9458  -16.3402  -17.2235 C   0  0  0  0  0  0  0  0  0  0  0  0
   23.6101  -17.0013  -18.2570 C   0  0  0  0  0  0  0  0  0  0  0  0
   24.9410  -20.6791  -15.6200 C   0  0  0  0  0  0  0  0  0  0  0  0
   24.6180  -21.8713  -15.8258 O   0  0  0  0  0  0  0  0  0  0  0  0
   25.6481  -21.3061   -9.5495 C   0  0  0  0  0  0  0  0  0  0  0  0
   24.7770  -21.6624  -10.7415 C   0  0  0  0  0  0  0  0  0  0  0  0
   25.2504  -20.8175  -11.9071 C   0  0  2  0  0  0  0  0  0  0  0  0
   25.1330  -19.3733  -11.5051 C   0  0  0  0  0  0  0  0  0  0  0  0
   24.5032  -21.1045  -13.1784 C   0  0  2  0  0  0  0  0  0  0  0  0
   25.0322  -20.3030  -14.2365 N   0  0  0  0  0  0  0  0  0  0  0  0
   23.0606  -20.7826  -12.9103 C   0  0  0  0  0  0  0  0  0  0  0  0
   22.7481  -19.7431  -12.2905 O   0  0  0  0  0  0  0  0  0  0  0  0
   20.2288  -20.3671  -15.3261 C   0  0  0  0  0  0  0  0  0  0  0  0
   19.8091  -21.5086  -14.4239 C   0  0  1  0  0  0  0  0  0  0  0  0
   20.1047  -22.6894  -15.1014 O   0  0  0  0  0  0  0  0  0  0  0  0
   20.6049  -21.3775  -13.1451 C   0  0  2  0  0  0  0  0  0  0  0  0
   22.0131  -21.6373  -13.3478 N   0  0  0  0  0  0  0  0  0  0  0  0
   20.0659  -22.3724  -12.1866 C   0  0  0  0  0  0  0  0  0  0  0  0
   18.7681  -22.2323  -11.6526 O   0  0  0  0  0  0  0  0  0  0  0  0
   20.6901  -23.3800  -11.7861 O   0  0  0  0  0  0  0  0  0  0  0  0
  2  1  1  6
  2 13  1  0
  3  4  1  0
  3  2  1  0
  4 12  1  0
  5  4  2  0
  5  6  1  0
  6  7  1  0
  7  8  1  0
  8  9  2  0
 10  9  1  0
 11 10  2  0
 12  7  2  0
 12 11  1  0
 13 20  1  0
 13 14  2  0
 16 17  1  0
 16 15  1  0
 17 18  1  1
 19 17  1  0
 19 21  1  0
 19 20  1  6
 21 22  2  0
 24 23  1  6
 24 26  1  0
 25 24  1  0
 26 28  1  0
 26 27  1  6
 27 21  1  0
 28 29  1  0
 30 28  2  0
M  END
$$$$
