WIT.pdb
     RDKit          3D

 30 31  0  0  1  0  0  0  0  0999 V2000
   18.0525  -12.0467  -17.4572 N   0  0  0  0  0  0  0  0  0  0  0  0
   18.9650  -10.9499  -17.8693 C   0  0  1  0  0  0  0  0  0  0  0  0
   18.1099   -9.9601  -18.5708 C   0  0  0  0  0  0  0  0  0  0  0  0
   17.6681  -10.2792  -19.9291 C   0  0  0  0  0  0  0  0  0  0  0  0
   17.5482  -11.5812  -20.4172 C   0  0  0  0  0  0  0  0  0  0  0  0
   17.1703  -11.5004  -21.6846 N   0  0  0  0  0  0  0  0  0  0  0  0
   17.0293  -10.2293  -22.0740 C   0  0  0  0  0  0  0  0  0  0  0  0
   16.6383   -9.6743  -23.2977 C   0  0  0  0  0  0  0  0  0  0  0  0
   16.5629   -8.3047  -23.3975 C   0  0  0  0  0  0  0  0  0  0  0  0
   16.8688   -7.5214  -22.3084 C   0  0  0  0  0  0  0  0  0  0  0  0
   17.2480   -8.0805  -21.1262 C   0  0  0  0  0  0  0  0  0  0  0  0
   17.3379   -9.4655  -20.9836 C   0  0  0  0  0  0  0  0  0  0  0  0
   19.6283  -10.3996  -16.6898 C   0  0  0  0  0  0  0  0  0  0  0  0
   19.0217  -10.2661  -15.6026 O   0  0  0  0  0  0  0  0  0  0  0  0
   24.4346  -11.9272  -15.1154 C   0  0  0  0  0  0  0  0  0  0  0  0
   22.9893  -11.4833  -15.2598 C   0  0  0  0  0  0  0  0  0  0  0  0
   22.9957   -9.9707  -15.3534 C   0  0  2  0  0  0  0  0  0  0  0  0
   23.6714   -9.4370  -14.1208 C   0  0  0  0  0  0  0  0  0  0  0  0
   21.6214   -9.3904  -15.5310 C   0  0  2  0  0  0  0  0  0  0  0  0
   21.0000   -9.9727  -16.6784 N   0  0  0  0  0  0  0  0  0  0  0  0
   21.7994   -7.9076  -15.6925 C   0  0  0  0  0  0  0  0  0  0  0  0
   22.5035   -7.4512  -16.6190 O   0  0  0  0  0  0  0  0  0  0  0  0
   18.9710   -5.3274  -14.1749 C   0  0  0  0  0  0  0  0  0  0  0  0
   19.9403   -4.9110  -15.2613 C   0  0  1  0  0  0  0  0  0  0  0  0
   20.0051   -3.5197  -15.2340 O   0  0  0  0  0  0  0  0  0  0  0  0
   21.2730   -5.5445  -14.9319 C   0  0  2  0  0  0  0  0  0  0  0  0
   21.1799   -6.9825  -14.8095 N   0  0  0  0  0  0  0  0  0  0  0  0
   21.7210   -4.9800  -13.6359 C   0  0  0  0  0  0  0  0  0  0  0  0
   22.1923   -3.6535  -13.5494 O   0  0  0  0  0  0  0  0  0  0  0  0
   21.7193   -5.6058  -12.5525 O   0  0  0  0  0  0  0  0  0  0  0  0
  2  1  1  1
  2 13  1  0
  3  4  1  0
  3  2  1  0
  4 12  1  0
  5  4  2  0
  5  6  1  0
  6  7  1  0
  7  8  1  0
  8  9  2  0
 10  9  1  0
 11 10  2  0
 12  7  2  0
 12 11  1  0
 13 20  1  0
 13 14  2  0
 16 17  1  0
 16 15  1  0
 17 18  1  1
 19 17  1  0
 19 21  1  0
 19 20  1  6
 21 22  2  0
 24 23  1  1
 24 26  1  0
 25 24  1  0
 26 28  1  0
 26 27  1  1
 27 21  1  0
 28 29  1  0
 30 28  2  0
M  END
$$$$
