WIT.pdb
     RDKit          3D

 30 31  0  0  1  0  0  0  0  0999 V2000
   26.3686  -23.0835  -12.1964 N   0  0  0  0  0  0  0  0  0  0  0  0
   25.7500  -21.8445  -11.6598 C   0  0  1  0  0  0  0  0  0  0  0  0
   26.8073  -20.8054  -11.7327 C   0  0  0  0  0  0  0  0  0  0  0  0
   27.8819  -20.8525  -10.7402 C   0  0  0  0  0  0  0  0  0  0  0  0
   29.1762  -21.2919  -11.0227 C   0  0  0  0  0  0  0  0  0  0  0  0
   29.8702  -21.2437   -9.8950 N   0  0  0  0  0  0  0  0  0  0  0  0
   29.1238  -20.8000   -8.8785 C   0  0  0  0  0  0  0  0  0  0  0  0
   29.4334  -20.5742   -7.5326 C   0  0  0  0  0  0  0  0  0  0  0  0
   28.4459  -20.0846   -6.7101 C   0  0  0  0  0  0  0  0  0  0  0  0
   27.1936  -19.8309   -7.2206 C   0  0  0  0  0  0  0  0  0  0  0  0
   26.9117  -20.0577   -8.5333 C   0  0  0  0  0  0  0  0  0  0  0  0
   27.8849  -20.5547   -9.4007 C   0  0  0  0  0  0  0  0  0  0  0  0
   24.5650  -21.5121  -12.4466 C   0  0  0  0  0  0  0  0  0  0  0  0
   24.4364  -21.9020  -13.6296 O   0  0  0  0  0  0  0  0  0  0  0  0
   18.9609  -21.2435  -10.2908 C   0  0  0  0  0  0  0  0  0  0  0  0
   19.7551  -21.1390  -11.5811 C   0  0  0  0  0  0  0  0  0  0  0  0
   21.2147  -21.0051  -11.1956 C   0  0  2  0  0  0  0  0  0  0  0  0
   21.3419  -19.8155  -10.2848 C   0  0  0  0  0  0  0  0  0  0  0  0
   22.1257  -20.8961  -12.3852 C   0  0  2  0  0  0  0  0  0  0  0  0
   23.4735  -20.7257  -11.9425 N   0  0  0  0  0  0  0  0  0  0  0  0
   21.6524  -19.7132  -13.1811 C   0  0  0  0  0  0  0  0  0  0  0  0
   21.7390  -18.5580  -12.7114 O   0  0  0  0  0  0  0  0  0  0  0  0
   22.7621  -18.5399  -16.5915 C   0  0  0  0  0  0  0  0  0  0  0  0
   21.2888  -18.8671  -16.7172 C   0  0  1  0  0  0  0  0  0  0  0  0
   21.2038  -20.1609  -17.2265 O   0  0  0  0  0  0  0  0  0  0  0  0
   20.6933  -18.7661  -15.3311 C   0  0  2  0  0  0  0  0  0  0  0  0
   21.0976  -19.8636  -14.4806 N   0  0  0  0  0  0  0  0  0  0  0  0
   19.2183  -18.7933  -15.4821 C   0  0  0  0  0  0  0  0  0  0  0  0
   18.5376  -17.7369  -16.1222 O   0  0  0  0  0  0  0  0  0  0  0  0
   18.4815  -19.7175  -15.0720 O   0  0  0  0  0  0  0  0  0  0  0  0
  2  1  1  6
  2 13  1  0
  3  4  1  0
  3  2  1  0
  4 12  1  0
  5  4  2  0
  5  6  1  0
  6  7  1  0
  7  8  1  0
  8  9  2  0
 10  9  1  0
 11 10  2  0
 12  7  2  0
 12 11  1  0
 13 20  1  0
 13 14  2  0
 16 17  1  0
 16 15  1  0
 17 18  1  1
 19 17  1  0
 19 21  1  0
 19 20  1  1
 21 22  2  0
 24 23  1  1
 24 26  1  0
 25 24  1  0
 26 28  1  0
 26 27  1  1
 27 21  1  0
 28 29  1  0
 30 28  2  0
M  END
$$$$
