WIT.pdb
     RDKit          3D

 30 31  0  0  1  0  0  0  0  0999 V2000
   28.6913  -21.4580  -13.1238 N   0  0  0  0  0  0  0  0  0  0  0  0
   27.3942  -21.4286  -12.4012 C   0  0  1  0  0  0  0  0  0  0  0  0
   27.4457  -20.2245  -11.5349 C   0  0  0  0  0  0  0  0  0  0  0  0
   28.2869  -20.2785  -10.3385 C   0  0  0  0  0  0  0  0  0  0  0  0
   29.6698  -20.4637  -10.3736 C   0  0  0  0  0  0  0  0  0  0  0  0
   30.0999  -20.5051   -9.1209 N   0  0  0  0  0  0  0  0  0  0  0  0
   29.0944  -20.3587   -8.2522 C   0  0  0  0  0  0  0  0  0  0  0  0
   29.0779  -20.3222   -6.8534 C   0  0  0  0  0  0  0  0  0  0  0  0
   27.8714  -20.1342   -6.2207 C   0  0  0  0  0  0  0  0  0  0  0  0
   26.7237  -19.9881   -6.9655 C   0  0  0  0  0  0  0  0  0  0  0  0
   26.7602  -20.0272   -8.3261 C   0  0  0  0  0  0  0  0  0  0  0  0
   27.9635  -20.2168   -9.0063 C   0  0  0  0  0  0  0  0  0  0  0  0
   26.2994  -21.3924  -13.3677 C   0  0  0  0  0  0  0  0  0  0  0  0
   26.3290  -20.6279  -14.3591 O   0  0  0  0  0  0  0  0  0  0  0  0
   23.2432  -23.4003  -16.9244 C   0  0  0  0  0  0  0  0  0  0  0  0
   22.5630  -23.6737  -15.5944 C   0  0  0  0  0  0  0  0  0  0  0  0
   23.6330  -23.5996  -14.5237 C   0  0  2  0  0  0  0  0  0  0  0  0
   23.0977  -24.2752  -13.2917 C   0  0  0  0  0  0  0  0  0  0  0  0
   24.0785  -22.1934  -14.2391 C   0  0  2  0  0  0  0  0  0  0  0  0
   25.1226  -22.2096  -13.2637 N   0  0  0  0  0  0  0  0  0  0  0  0
   22.8698  -21.4528  -13.7416 C   0  0  0  0  0  0  0  0  0  0  0  0
   22.4614  -21.6201  -12.5722 O   0  0  0  0  0  0  0  0  0  0  0  0
   21.7962  -17.5916  -14.8672 C   0  0  0  0  0  0  0  0  0  0  0  0
   20.7130  -18.6273  -15.0848 C   0  0  1  0  0  0  0  0  0  0  0  0
   20.7840  -19.0122  -16.4217 O   0  0  0  0  0  0  0  0  0  0  0  0
   21.0073  -19.7785  -14.1498 C   0  0  2  0  0  0  0  0  0  0  0  0
   22.1579  -20.5460  -14.5722 N   0  0  0  0  0  0  0  0  0  0  0  0
   19.8154  -20.6608  -14.1483 C   0  0  0  0  0  0  0  0  0  0  0  0
   18.6226  -20.2634  -13.5091 O   0  0  0  0  0  0  0  0  0  0  0  0
   19.7672  -21.7867  -14.6916 O   0  0  0  0  0  0  0  0  0  0  0  0
  2  1  1  6
  2 13  1  0
  3  4  1  0
  3  2  1  0
  4 12  1  0
  5  4  2  0
  5  6  1  0
  6  7  1  0
  7  8  1  0
  8  9  2  0
 10  9  1  0
 11 10  2  0
 12  7  2  0
 12 11  1  0
 13 20  1  0
 13 14  2  0
 16 17  1  0
 16 15  1  0
 17 18  1  1
 19 17  1  0
 19 21  1  0
 19 20  1  1
 21 22  2  0
 24 23  1  6
 24 26  1  0
 25 24  1  0
 26 28  1  0
 26 27  1  6
 27 21  1  0
 28 29  1  0
 30 28  2  0
M  END
$$$$
