WIT.pdb
     RDKit          3D

 30 31  0  0  1  0  0  0  0  0999 V2000
   24.1032  -19.3380  -10.1704 N   0  0  0  0  0  0  0  0  0  0  0  0
   25.4548  -19.8930  -10.4364 C   0  0  1  0  0  0  0  0  0  0  0  0
   25.5442  -21.1341   -9.6271 C   0  0  0  0  0  0  0  0  0  0  0  0
   25.6326  -20.9972   -8.1727 C   0  0  0  0  0  0  0  0  0  0  0  0
   24.6134  -21.3755   -7.2974 C   0  0  0  0  0  0  0  0  0  0  0  0
   25.0084  -21.0739   -6.0690 N   0  0  0  0  0  0  0  0  0  0  0  0
   26.2251  -20.5199   -6.0674 C   0  0  0  0  0  0  0  0  0  0  0  0
   27.0336  -20.0655   -5.0195 C   0  0  0  0  0  0  0  0  0  0  0  0
   28.2717  -19.5518   -5.3273 C   0  0  0  0  0  0  0  0  0  0  0  0
   28.6826  -19.4966   -6.6394 C   0  0  0  0  0  0  0  0  0  0  0  0
   27.8809  -19.9433   -7.6453 C   0  0  0  0  0  0  0  0  0  0  0  0
   26.6177  -20.4707   -7.3755 C   0  0  0  0  0  0  0  0  0  0  0  0
   25.6098  -20.1312  -11.8692 C   0  0  0  0  0  0  0  0  0  0  0  0
   24.6416  -20.4830  -12.5810 O   0  0  0  0  0  0  0  0  0  0  0  0
   27.4353  -18.2723  -16.4315 C   0  0  0  0  0  0  0  0  0  0  0  0
   28.4566  -19.2566  -15.8886 C   0  0  0  0  0  0  0  0  0  0  0  0
   28.2626  -19.3162  -14.3867 C   0  0  2  0  0  0  0  0  0  0  0  0
   29.4247  -20.0711  -13.8030 C   0  0  0  0  0  0  0  0  0  0  0  0
   26.9474  -19.9249  -13.9910 C   0  0  2  0  0  0  0  0  0  0  0  0
   26.8578  -19.9877  -12.5663 N   0  0  0  0  0  0  0  0  0  0  0  0
   26.9054  -21.2940  -14.6078 C   0  0  0  0  0  0  0  0  0  0  0  0
   27.7154  -22.1756  -14.2486 O   0  0  0  0  0  0  0  0  0  0  0  0
   24.3714  -24.0961  -14.7857 C   0  0  0  0  0  0  0  0  0  0  0  0
   24.5116  -23.5338  -16.1847 C   0  0  1  0  0  0  0  0  0  0  0  0
   23.5019  -22.5872  -16.3434 O   0  0  0  0  0  0  0  0  0  0  0  0
   25.8870  -22.9124  -16.2760 C   0  0  2  0  0  0  0  0  0  0  0  0
   25.9541  -21.6315  -15.6079 N   0  0  0  0  0  0  0  0  0  0  0  0
   26.1891  -22.7200  -17.7150 C   0  0  0  0  0  0  0  0  0  0  0  0
   26.4530  -23.8240  -18.5521 O   0  0  0  0  0  0  0  0  0  0  0  0
   26.2337  -21.6080  -18.2867 O   0  0  0  0  0  0  0  0  0  0  0  0
  2  1  1  6
  2 13  1  0
  3  4  1  0
  3  2  1  0
  4 12  1  0
  5  4  2  0
  5  6  1  0
  6  7  1  0
  7  8  1  0
  8  9  2  0
 10  9  1  0
 11 10  2  0
 12  7  2  0
 12 11  1  0
 13 20  1  0
 13 14  2  0
 16 17  1  0
 16 15  1  0
 17 18  1  1
 19 17  1  0
 19 21  1  0
 19 20  1  1
 21 22  2  0
 24 23  1  1
 24 26  1  0
 25 24  1  0
 26 28  1  0
 26 27  1  1
 27 21  1  0
 28 29  1  0
 30 28  2  0
M  END
$$$$
