WIT.pdb
     RDKit          3D

 30 31  0  0  1  0  0  0  0  0999 V2000
   19.8105  -14.5053  -15.5892 N   0  0  0  0  0  0  0  0  0  0  0  0
   19.4987  -13.3403  -16.4560 C   0  0  1  0  0  0  0  0  0  0  0  0
   18.1139  -13.5622  -16.9418 C   0  0  0  0  0  0  0  0  0  0  0  0
   17.8465  -14.7761  -17.7144 C   0  0  0  0  0  0  0  0  0  0  0  0
   18.7845  -15.3816  -18.5519 C   0  0  0  0  0  0  0  0  0  0  0  0
   18.1978  -16.4238  -19.1225 N   0  0  0  0  0  0  0  0  0  0  0  0
   16.9298  -16.5538  -18.7196 C   0  0  0  0  0  0  0  0  0  0  0  0
   15.9496  -17.5001  -19.0392 C   0  0  0  0  0  0  0  0  0  0  0  0
   14.7165  -17.3886  -18.4406 C   0  0  0  0  0  0  0  0  0  0  0  0
   14.4765  -16.3643  -17.5538 C   0  0  0  0  0  0  0  0  0  0  0  0
   15.4432  -15.4527  -17.2562 C   0  0  0  0  0  0  0  0  0  0  0  0
   16.7070  -15.5299  -17.8422 C   0  0  0  0  0  0  0  0  0  0  0  0
   19.6449  -12.1077  -15.6858 C   0  0  0  0  0  0  0  0  0  0  0  0
   18.8956  -11.8513  -14.7159 O   0  0  0  0  0  0  0  0  0  0  0  0
   23.6728  -11.6430  -15.0771 C   0  0  0  0  0  0  0  0  0  0  0  0
   22.9767  -10.6717  -14.1398 C   0  0  0  0  0  0  0  0  0  0  0  0
   22.2706   -9.6471  -15.0049 C   0  0  2  0  0  0  0  0  0  0  0  0
   22.5071   -8.2920  -14.3977 C   0  0  0  0  0  0  0  0  0  0  0  0
   20.8056   -9.9344  -15.1731 C   0  0  2  0  0  0  0  0  0  0  0  0
   20.6359  -11.1075  -15.9710 N   0  0  0  0  0  0  0  0  0  0  0  0
   20.2045   -8.7262  -15.8330 C   0  0  0  0  0  0  0  0  0  0  0  0
   20.5039   -8.4328  -17.0106 O   0  0  0  0  0  0  0  0  0  0  0  0
   16.4570   -7.8951  -16.0891 C   0  0  0  0  0  0  0  0  0  0  0  0
   17.1252   -6.7371  -15.3778 C   0  0  1  0  0  0  0  0  0  0  0  0
   16.9361   -6.9377  -14.0123 O   0  0  0  0  0  0  0  0  0  0  0  0
   18.5888   -6.7709  -15.7556 C   0  0  2  0  0  0  0  0  0  0  0  0
   19.2845   -7.8852  -15.1508 N   0  0  0  0  0  0  0  0  0  0  0  0
   19.1973   -5.5068  -15.2753 C   0  0  0  0  0  0  0  0  0  0  0  0
   20.1749   -5.5156  -14.2588 O   0  0  0  0  0  0  0  0  0  0  0  0
   18.9081   -4.3708  -15.7127 O   0  0  0  0  0  0  0  0  0  0  0  0
  2  1  1  1
  2 13  1  0
  3  4  1  0
  3  2  1  0
  4 12  1  0
  5  4  2  0
  5  6  1  0
  6  7  1  0
  7  8  1  0
  8  9  2  0
 10  9  1  0
 11 10  2  0
 12  7  2  0
 12 11  1  0
 13 20  1  0
 13 14  2  0
 16 17  1  0
 16 15  1  0
 17 18  1  1
 19 17  1  0
 19 21  1  0
 19 20  1  6
 21 22  2  0
 24 23  1  6
 24 26  1  0
 25 24  1  0
 26 28  1  0
 26 27  1  1
 27 21  1  0
 28 29  1  0
 30 28  2  0
M  END
$$$$
