WIT.pdb
     RDKit          3D

 30 31  0  0  1  0  0  0  0  0999 V2000
   24.9541  -19.1771  -11.2943 N   0  0  0  0  0  0  0  0  0  0  0  0
   26.0570  -20.1384  -11.5492 C   0  0  1  0  0  0  0  0  0  0  0  0
   25.8549  -21.2453  -10.5812 C   0  0  0  0  0  0  0  0  0  0  0  0
   26.0535  -20.9559   -9.1603 C   0  0  0  0  0  0  0  0  0  0  0  0
   25.0073  -20.7433   -8.2612 C   0  0  0  0  0  0  0  0  0  0  0  0
   25.5435  -20.4671   -7.0814 N   0  0  0  0  0  0  0  0  0  0  0  0
   26.8792  -20.4823   -7.1343 C   0  0  0  0  0  0  0  0  0  0  0  0
   27.8470  -20.2683   -6.1463 C   0  0  0  0  0  0  0  0  0  0  0  0
   29.1722  -20.3721   -6.4990 C   0  0  0  0  0  0  0  0  0  0  0  0
   29.5129  -20.6794   -7.7963 C   0  0  0  0  0  0  0  0  0  0  0  0
   28.5564  -20.8834   -8.7436 C   0  0  0  0  0  0  0  0  0  0  0  0
   27.2010  -20.7867   -8.4271 C   0  0  0  0  0  0  0  0  0  0  0  0
   26.0070  -20.5787  -12.9412 C   0  0  0  0  0  0  0  0  0  0  0  0
   24.9170  -20.7902  -13.5201 O   0  0  0  0  0  0  0  0  0  0  0  0
   28.6228  -17.4779  -16.0119 C   0  0  0  0  0  0  0  0  0  0  0  0
   27.5878  -18.4224  -15.4259 C   0  0  0  0  0  0  0  0  0  0  0  0
   28.0322  -19.8322  -15.7599 C   0  0  2  0  0  0  0  0  0  0  0  0
   28.1146  -19.9453  -17.2570 C   0  0  0  0  0  0  0  0  0  0  0  0
   27.1349  -20.8830  -15.1702 C   0  0  2  0  0  0  0  0  0  0  0  0
   27.1768  -20.8034  -13.7441 N   0  0  0  0  0  0  0  0  0  0  0  0
   27.6429  -22.2075  -15.6644 C   0  0  0  0  0  0  0  0  0  0  0  0
   28.8289  -22.5466  -15.4621 O   0  0  0  0  0  0  0  0  0  0  0  0
   25.6375  -25.7985  -15.6336 C   0  0  0  0  0  0  0  0  0  0  0  0
   26.0538  -25.3575  -17.0213 C   0  0  1  0  0  0  0  0  0  0  0  0
   24.9504  -24.7290  -17.5941 O   0  0  0  0  0  0  0  0  0  0  0  0
   27.2192  -24.4090  -16.8531 C   0  0  2  0  0  0  0  0  0  0  0  0
   26.8030  -23.1113  -16.3693 N   0  0  0  0  0  0  0  0  0  0  0  0
   27.8501  -24.2455  -18.1851 C   0  0  0  0  0  0  0  0  0  0  0  0
   28.5928  -25.2940  -18.7668 O   0  0  0  0  0  0  0  0  0  0  0  0
   27.7805  -23.2067  -18.8788 O   0  0  0  0  0  0  0  0  0  0  0  0
  2  1  1  6
  2 13  1  0
  3  4  1  0
  3  2  1  0
  4 12  1  0
  5  4  2  0
  5  6  1  0
  6  7  1  0
  7  8  1  0
  8  9  2  0
 10  9  1  0
 11 10  2  0
 12  7  2  0
 12 11  1  0
 13 20  1  0
 13 14  2  0
 16 17  1  0
 16 15  1  0
 17 18  1  6
 19 17  1  0
 19 21  1  0
 19 20  1  1
 21 22  2  0
 24 23  1  1
 24 26  1  0
 25 24  1  0
 26 28  1  0
 26 27  1  6
 27 21  1  0
 28 29  1  0
 30 28  2  0
M  END
$$$$
