WIT.pdb
     RDKit          3D

 30 31  0  0  1  0  0  0  0  0999 V2000
   20.5390  -12.2958  -19.3807 N   0  0  0  0  0  0  0  0  0  0  0  0
   21.1230  -10.9307  -19.3471 C   0  0  1  0  0  0  0  0  0  0  0  0
   20.0799  -10.0353  -19.9069 C   0  0  0  0  0  0  0  0  0  0  0  0
   19.8045  -10.1197  -21.3419 C   0  0  0  0  0  0  0  0  0  0  0  0
   18.7828  -10.8978  -21.8884 C   0  0  0  0  0  0  0  0  0  0  0  0
   18.8471  -10.7745  -23.2061 N   0  0  0  0  0  0  0  0  0  0  0  0
   19.8445   -9.9642  -23.5746 C   0  0  0  0  0  0  0  0  0  0  0  0
   20.2711   -9.5366  -24.8370 C   0  0  0  0  0  0  0  0  0  0  0  0
   21.3349   -8.6677  -24.9055 C   0  0  0  0  0  0  0  0  0  0  0  0
   21.9476   -8.2437  -23.7487 C   0  0  0  0  0  0  0  0  0  0  0  0
   21.5181   -8.6717  -22.5295 C   0  0  0  0  0  0  0  0  0  0  0  0
   20.4430   -9.5538  -22.4166 C   0  0  0  0  0  0  0  0  0  0  0  0
   21.4915  -10.5926  -17.9746 C   0  0  0  0  0  0  0  0  0  0  0  0
   20.7589  -10.9013  -17.0071 O   0  0  0  0  0  0  0  0  0  0  0  0
   26.1508  -10.2297  -14.2645 C   0  0  0  0  0  0  0  0  0  0  0  0
   24.7392   -9.7119  -14.4789 C   0  0  0  0  0  0  0  0  0  0  0  0
   24.3802   -9.9846  -15.9258 C   0  0  2  0  0  0  0  0  0  0  0  0
   25.4398   -9.3566  -16.7883 C   0  0  0  0  0  0  0  0  0  0  0  0
   23.0058   -9.4982  -16.2886 C   0  0  2  0  0  0  0  0  0  0  0  0
   22.6962   -9.8914  -17.6270 N   0  0  0  0  0  0  0  0  0  0  0  0
   23.0277   -8.0032  -16.1435 C   0  0  0  0  0  0  0  0  0  0  0  0
   23.8816   -7.3204  -16.7492 O   0  0  0  0  0  0  0  0  0  0  0  0
   20.5119   -5.5360  -17.0543 C   0  0  0  0  0  0  0  0  0  0  0  0
   20.6660   -5.3330  -15.5616 C   0  0  1  0  0  0  0  0  0  0  0  0
   19.6283   -6.0319  -14.9490 O   0  0  0  0  0  0  0  0  0  0  0  0
   22.0208   -5.8835  -15.1777 C   0  0  2  0  0  0  0  0  0  0  0  0
   22.0889   -7.3207  -15.3237 N   0  0  0  0  0  0  0  0  0  0  0  0
   22.2519   -5.5336  -13.7553 C   0  0  0  0  0  0  0  0  0  0  0  0
   22.4239   -4.1908  -13.3599 O   0  0  0  0  0  0  0  0  0  0  0  0
   22.3112   -6.3650  -12.8223 O   0  0  0  0  0  0  0  0  0  0  0  0
  2  1  1  1
  2 13  1  0
  3  4  1  0
  3  2  1  0
  4 12  1  0
  5  4  2  0
  5  6  1  0
  6  7  1  0
  7  8  1  0
  8  9  2  0
 10  9  1  0
 11 10  2  0
 12  7  2  0
 12 11  1  0
 13 20  1  0
 13 14  2  0
 16 17  1  0
 16 15  1  0
 17 18  1  6
 19 17  1  0
 19 21  1  0
 19 20  1  6
 21 22  2  0
 24 23  1  6
 24 26  1  0
 25 24  1  0
 26 28  1  0
 26 27  1  1
 27 21  1  0
 28 29  1  0
 30 28  2  0
M  END
$$$$
