WIT.pdb
     RDKit          3D

 30 31  0  0  1  0  0  0  0  0999 V2000
   23.5620  -20.4362  -11.3034 N   0  0  0  0  0  0  0  0  0  0  0  0
   24.9340  -19.9209  -11.5439 C   0  0  1  0  0  0  0  0  0  0  0  0
   25.8419  -20.8488  -10.8244 C   0  0  0  0  0  0  0  0  0  0  0  0
   25.8507  -20.7999   -9.3617 C   0  0  0  0  0  0  0  0  0  0  0  0
   24.8881  -21.4177   -8.5619 C   0  0  0  0  0  0  0  0  0  0  0  0
   25.1757  -21.1356   -7.2995 N   0  0  0  0  0  0  0  0  0  0  0  0
   26.2678  -20.3706   -7.2047 C   0  0  0  0  0  0  0  0  0  0  0  0
   26.9398  -19.8506   -6.0928 C   0  0  0  0  0  0  0  0  0  0  0  0
   28.0717  -19.0996   -6.3079 C   0  0  0  0  0  0  0  0  0  0  0  0
   28.5125  -18.8791   -7.5925 C   0  0  0  0  0  0  0  0  0  0  0  0
   27.8443  -19.3932   -8.6618 C   0  0  0  0  0  0  0  0  0  0  0  0
   26.6917  -20.1595   -8.4867 C   0  0  0  0  0  0  0  0  0  0  0  0
   25.1895  -19.8693  -12.9813 C   0  0  0  0  0  0  0  0  0  0  0  0
   24.6896  -20.7095  -13.7636 O   0  0  0  0  0  0  0  0  0  0  0  0
   25.0834  -16.8817  -17.3982 C   0  0  0  0  0  0  0  0  0  0  0  0
   26.4921  -17.0508  -16.8564 C   0  0  0  0  0  0  0  0  0  0  0  0
   26.3695  -17.2892  -15.3648 C   0  0  2  0  0  0  0  0  0  0  0  0
   27.6180  -16.7644  -14.7116 C   0  0  0  0  0  0  0  0  0  0  0  0
   26.1250  -18.7313  -15.0216 C   0  0  2  0  0  0  0  0  0  0  0  0
   26.0186  -18.8751  -13.6040 N   0  0  0  0  0  0  0  0  0  0  0  0
   27.2898  -19.5060  -15.5692 C   0  0  0  0  0  0  0  0  0  0  0  0
   28.4289  -19.3729  -15.0722 O   0  0  0  0  0  0  0  0  0  0  0  0
   27.8820  -23.2268  -16.0097 C   0  0  0  0  0  0  0  0  0  0  0  0
   27.8804  -22.6279  -17.4006 C   0  0  1  0  0  0  0  0  0  0  0  0
   26.6014  -22.8149  -17.9201 O   0  0  0  0  0  0  0  0  0  0  0  0
   28.2202  -21.1622  -17.2517 C   0  0  2  0  0  0  0  0  0  0  0  0
   27.1392  -20.4076  -16.6571 N   0  0  0  0  0  0  0  0  0  0  0  0
   28.4862  -20.6311  -18.6105 C   0  0  0  0  0  0  0  0  0  0  0  0
   29.6399  -21.0168  -19.3242 O   0  0  0  0  0  0  0  0  0  0  0  0
   27.7409  -19.8290  -19.2156 O   0  0  0  0  0  0  0  0  0  0  0  0
  2  1  1  6
  2 13  1  0
  3  4  1  0
  3  2  1  0
  4 12  1  0
  5  4  2  0
  5  6  1  0
  6  7  1  0
  7  8  1  0
  8  9  2  0
 10  9  1  0
 11 10  2  0
 12  7  2  0
 12 11  1  0
 13 20  1  0
 13 14  2  0
 16 17  1  0
 16 15  1  0
 17 18  1  1
 19 17  1  0
 19 21  1  0
 19 20  1  1
 21 22  2  0
 24 23  1  1
 24 26  1  0
 25 24  1  0
 26 28  1  0
 26 27  1  6
 27 21  1  0
 28 29  1  0
 30 28  2  0
M  END
$$$$
