WIT.pdb
     RDKit          3D

 30 31  0  0  1  0  0  0  0  0999 V2000
   25.3234  -21.0668   -9.2269 N   0  0  0  0  0  0  0  0  0  0  0  0
   26.0094  -20.0675  -10.0850 C   0  0  1  0  0  0  0  0  0  0  0  0
   27.3964  -20.5687  -10.2527 C   0  0  0  0  0  0  0  0  0  0  0  0
   28.2355  -20.6714   -9.0580 C   0  0  0  0  0  0  0  0  0  0  0  0
   29.4817  -21.2996   -9.0404 C   0  0  0  0  0  0  0  0  0  0  0  0
   29.9390  -21.2466   -7.7979 N   0  0  0  0  0  0  0  0  0  0  0  0
   29.0798  -20.6233   -6.9854 C   0  0  0  0  0  0  0  0  0  0  0  0
   29.1473  -20.3256   -5.6196 C   0  0  0  0  0  0  0  0  0  0  0  0
   28.0993  -19.6418   -5.0491 C   0  0  0  0  0  0  0  0  0  0  0  0
   27.0231  -19.2705   -5.8219 C   0  0  0  0  0  0  0  0  0  0  0  0
   26.9756  -19.5700   -7.1494 C   0  0  0  0  0  0  0  0  0  0  0  0
   28.0176  -20.2630   -7.7662 C   0  0  0  0  0  0  0  0  0  0  0  0
   25.2906  -19.9372  -11.3501 C   0  0  0  0  0  0  0  0  0  0  0  0
   24.0953  -20.2933  -11.4613 O   0  0  0  0  0  0  0  0  0  0  0  0
   27.7519  -16.5921  -15.1157 C   0  0  0  0  0  0  0  0  0  0  0  0
   26.8245  -17.1054  -14.0281 C   0  0  0  0  0  0  0  0  0  0  0  0
   26.0118  -18.2332  -14.6319 C   0  0  2  0  0  0  0  0  0  0  0  0
   25.2433  -17.6731  -15.7966 C   0  0  0  0  0  0  0  0  0  0  0  0
   25.1063  -18.8995  -13.6354 C   0  0  2  0  0  0  0  0  0  0  0  0
   25.8813  -19.4044  -12.5463 N   0  0  0  0  0  0  0  0  0  0  0  0
   24.3999  -20.0038  -14.3689 C   0  0  0  0  0  0  0  0  0  0  0  0
   25.0510  -20.9288  -14.9008 O   0  0  0  0  0  0  0  0  0  0  0  0
   22.1769  -22.4675  -13.0577 C   0  0  0  0  0  0  0  0  0  0  0  0
   21.3059  -21.7872  -14.0930 C   0  0  1  0  0  0  0  0  0  0  0  0
   20.5162  -20.8628  -13.4129 O   0  0  0  0  0  0  0  0  0  0  0  0
   22.2339  -21.1178  -15.0812 C   0  0  2  0  0  0  0  0  0  0  0  0
   22.9837  -20.0363  -14.4815 N   0  0  0  0  0  0  0  0  0  0  0  0
   21.3940  -20.5716  -16.1744 C   0  0  0  0  0  0  0  0  0  0  0  0
   20.6727  -21.4304  -17.0297 O   0  0  0  0  0  0  0  0  0  0  0  0
   21.2582  -19.3528  -16.4216 O   0  0  0  0  0  0  0  0  0  0  0  0
  2  1  1  1
  2 13  1  0
  3  4  1  0
  3  2  1  0
  4 12  1  0
  5  4  2  0
  5  6  1  0
  6  7  1  0
  7  8  1  0
  8  9  2  0
 10  9  1  0
 11 10  2  0
 12  7  2  0
 12 11  1  0
 13 20  1  0
 13 14  2  0
 16 17  1  0
 16 15  1  0
 17 18  1  6
 19 17  1  0
 19 21  1  0
 19 20  1  1
 21 22  2  0
 24 23  1  1
 24 26  1  0
 25 24  1  0
 26 28  1  0
 26 27  1  1
 27 21  1  0
 28 29  1  0
 30 28  2  0
M  END
$$$$
