WIT.pdb
     RDKit          3D

 30 31  0  0  1  0  0  0  0  0999 V2000
   27.2316  -21.1336  -13.7820 N   0  0  0  0  0  0  0  0  0  0  0  0
   26.1732  -20.4911  -12.9619 C   0  0  1  0  0  0  0  0  0  0  0  0
   24.8932  -20.7999  -13.6471 C   0  0  0  0  0  0  0  0  0  0  0  0
   24.6122  -20.1177  -14.9110 C   0  0  0  0  0  0  0  0  0  0  0  0
   25.3529  -20.3152  -16.0773 C   0  0  0  0  0  0  0  0  0  0  0  0
   24.8558  -19.5133  -17.0077 N   0  0  0  0  0  0  0  0  0  0  0  0
   23.8312  -18.7941  -16.5386 C   0  0  0  0  0  0  0  0  0  0  0  0
   23.0057  -17.8475  -17.1557 C   0  0  0  0  0  0  0  0  0  0  0  0
   21.9996  -17.2766  -16.4118 C   0  0  0  0  0  0  0  0  0  0  0  0
   21.8289  -17.6431  -15.0966 C   0  0  0  0  0  0  0  0  0  0  0  0
   22.6431  -18.5658  -14.5137 C   0  0  0  0  0  0  0  0  0  0  0  0
   23.6758  -19.1678  -15.2333 C   0  0  0  0  0  0  0  0  0  0  0  0
   26.2323  -21.0101  -11.5977 C   0  0  0  0  0  0  0  0  0  0  0  0
   26.1989  -22.2400  -11.3652 O   0  0  0  0  0  0  0  0  0  0  0  0
   28.6720  -18.9481   -7.1609 C   0  0  0  0  0  0  0  0  0  0  0  0
   28.0863  -19.8715   -8.2148 C   0  0  0  0  0  0  0  0  0  0  0  0
   26.5784  -19.7993   -8.0814 C   0  0  2  0  0  0  0  0  0  0  0  0
   26.2160  -20.2761   -6.7022 C   0  0  0  0  0  0  0  0  0  0  0  0
   25.8595  -20.5771   -9.1467 C   0  0  2  0  0  0  0  0  0  0  0  0
   26.3288  -20.1727  -10.4344 N   0  0  0  0  0  0  0  0  0  0  0  0
   24.3956  -20.2862   -8.9763 C   0  0  0  0  0  0  0  0  0  0  0  0
   23.9896  -19.1070   -8.8932 O   0  0  0  0  0  0  0  0  0  0  0  0
   21.7358  -20.6506  -11.1799 C   0  0  0  0  0  0  0  0  0  0  0  0
   21.2753  -21.5573  -10.0578 C   0  0  1  0  0  0  0  0  0  0  0  0
   21.6095  -22.8586  -10.4261 O   0  0  0  0  0  0  0  0  0  0  0  0
   22.0047  -21.1197   -8.8078 C   0  0  2  0  0  0  0  0  0  0  0  0
   23.4324  -21.3285   -8.9060 N   0  0  0  0  0  0  0  0  0  0  0  0
   21.4770  -21.9296   -7.6832 C   0  0  0  0  0  0  0  0  0  0  0  0
   22.3401  -22.7119   -6.8883 O   0  0  0  0  0  0  0  0  0  0  0  0
   20.2707  -21.9858   -7.3562 O   0  0  0  0  0  0  0  0  0  0  0  0
  2  1  1  6
  2 13  1  0
  3  4  1  0
  3  2  1  0
  4 12  1  0
  5  4  2  0
  5  6  1  0
  6  7  1  0
  7  8  1  0
  8  9  2  0
 10  9  1  0
 11 10  2  0
 12  7  2  0
 12 11  1  0
 13 20  1  0
 13 14  2  0
 16 17  1  0
 16 15  1  0
 17 18  1  1
 19 17  1  0
 19 21  1  0
 19 20  1  6
 21 22  2  0
 24 23  1  6
 24 26  1  0
 25 24  1  0
 26 28  1  0
 26 27  1  6
 27 21  1  0
 28 29  1  0
 30 28  2  0
M  END
$$$$
