WIT.pdb
     RDKit          3D

 30 31  0  0  1  0  0  0  0  0999 V2000
   27.5031  -19.3935  -10.5306 N   0  0  0  0  0  0  0  0  0  0  0  0
   26.8019  -20.6928  -10.6908 C   0  0  1  0  0  0  0  0  0  0  0  0
   26.0865  -20.9220   -9.4107 C   0  0  0  0  0  0  0  0  0  0  0  0
   26.7687  -20.5512   -8.1701 C   0  0  0  0  0  0  0  0  0  0  0  0
   26.1849  -19.7719   -7.1702 C   0  0  0  0  0  0  0  0  0  0  0  0
   27.0910  -19.5964   -6.2193 N   0  0  0  0  0  0  0  0  0  0  0  0
   28.2410  -20.2085   -6.5191 C   0  0  0  0  0  0  0  0  0  0  0  0
   29.4476  -20.3065   -5.8171 C   0  0  0  0  0  0  0  0  0  0  0  0
   30.4705  -21.0351   -6.3778 C   0  0  0  0  0  0  0  0  0  0  0  0
   30.2882  -21.6428   -7.5987 C   0  0  0  0  0  0  0  0  0  0  0  0
   29.1066  -21.5352   -8.2668 C   0  0  0  0  0  0  0  0  0  0  0  0
   28.0445  -20.8047   -7.7331 C   0  0  0  0  0  0  0  0  0  0  0  0
   25.9066  -20.6239  -11.8429 C   0  0  0  0  0  0  0  0  0  0  0  0
   25.3189  -19.5618  -12.1503 O   0  0  0  0  0  0  0  0  0  0  0  0
   27.5528  -23.1686  -16.1103 C   0  0  0  0  0  0  0  0  0  0  0  0
   26.9919  -22.1451  -15.1385 C   0  0  0  0  0  0  0  0  0  0  0  0
   25.5124  -22.4373  -14.9892 C   0  0  2  0  0  0  0  0  0  0  0  0
   24.8604  -22.2005  -16.3233 C   0  0  0  0  0  0  0  0  0  0  0  0
   24.8640  -21.6296  -13.9009 C   0  0  2  0  0  0  0  0  0  0  0  0
   25.6289  -21.7434  -12.6993 N   0  0  0  0  0  0  0  0  0  0  0  0
   23.4771  -22.1797  -13.7266 C   0  0  0  0  0  0  0  0  0  0  0  0
   23.2528  -23.3977  -13.8959 O   0  0  0  0  0  0  0  0  0  0  0  0
   20.6894  -20.7802  -11.0442 C   0  0  0  0  0  0  0  0  0  0  0  0
   20.1633  -20.8136  -12.4638 C   0  0  1  0  0  0  0  0  0  0  0  0
   20.2801  -19.5207  -12.9692 O   0  0  0  0  0  0  0  0  0  0  0  0
   21.0181  -21.7981  -13.2295 C   0  0  2  0  0  0  0  0  0  0  0  0
   22.3848  -21.3454  -13.3661 N   0  0  0  0  0  0  0  0  0  0  0  0
   20.4224  -21.9421  -14.5798 C   0  0  0  0  0  0  0  0  0  0  0  0
   19.1466  -22.5192  -14.7493 O   0  0  0  0  0  0  0  0  0  0  0  0
   20.9770  -21.5789  -15.6408 O   0  0  0  0  0  0  0  0  0  0  0  0
  2  1  1  1
  2 13  1  0
  3  4  1  0
  3  2  1  0
  4 12  1  0
  5  4  2  0
  5  6  1  0
  6  7  1  0
  7  8  1  0
  8  9  2  0
 10  9  1  0
 11 10  2  0
 12  7  2  0
 12 11  1  0
 13 20  1  0
 13 14  2  0
 16 17  1  0
 16 15  1  0
 17 18  1  6
 19 17  1  0
 19 21  1  0
 19 20  1  1
 21 22  2  0
 24 23  1  1
 24 26  1  0
 25 24  1  0
 26 28  1  0
 26 27  1  6
 27 21  1  0
 28 29  1  0
 30 28  2  0
M  END
$$$$
