HMV.pdb
     RDKit          3D

 26 26  0  0  1  0  0  0  0  0999 V2000
   20.7669  -14.3040  -19.6845 N   0  0  0  0  0  0  0  0  0  0  0  0
   21.3515  -12.9723  -19.7107 C   0  0  1  0  0  0  0  0  0  0  0  0
   20.8022  -12.2689  -20.9353 C   0  0  0  0  0  0  0  0  0  0  0  0
   21.3655  -12.8622  -22.1886 C   0  0  0  0  0  0  0  0  0  0  0  0
   22.1787  -12.2400  -23.1146 C   0  0  0  0  0  0  0  0  0  0  0  0
   22.4514  -13.1149  -24.0713 N   0  0  0  0  0  0  0  0  0  0  0  0
   21.8447  -14.2788  -23.7980 C   0  0  0  0  0  0  0  0  0  0  0  0
   21.1842  -14.1134  -22.6457 N   0  0  0  0  0  0  0  0  0  0  0  0
   20.9077  -12.1744  -18.5260 C   0  0  0  0  0  0  0  0  0  0  0  0
   19.7632  -12.3834  -18.0548 O   0  0  0  0  0  0  0  0  0  0  0  0
   22.8075   -9.6091  -11.5619 C   0  0  0  0  0  0  0  0  0  0  0  0
   23.2089  -10.5369  -13.0870 S   0  0  0  0  0  0  0  0  0  0  0  0
   22.0356  -10.0560  -14.3817 C   0  0  0  0  0  0  0  0  0  0  0  0
   22.3984  -10.8171  -15.6321 C   0  0  0  0  0  0  0  0  0  0  0  0
   21.3877  -10.4834  -16.7081 C   0  0  2  0  0  0  0  0  0  0  0  0
   21.7295  -11.1967  -17.9209 N   0  0  0  0  0  0  0  0  0  0  0  0
   21.3548   -9.0014  -16.9550 C   0  0  0  0  0  0  0  0  0  0  0  0
   22.2569   -8.4447  -17.6311 O   0  0  0  0  0  0  0  0  0  0  0  0
   19.1323   -6.7823  -18.9052 C   0  0  0  0  0  0  0  0  0  0  0  0
   19.1448   -6.2883  -17.4916 C   0  0  1  0  0  0  0  0  0  0  0  0
   17.8246   -6.6108  -16.7791 C   0  0  0  0  0  0  0  0  0  0  0  0
   20.3206   -6.7632  -16.6977 C   0  0  2  0  0  0  0  0  0  0  0  0
   20.3145   -8.1793  -16.4394 N   0  0  0  0  0  0  0  0  0  0  0  0
   20.3181   -6.0282  -15.3954 C   0  0  0  0  0  0  0  0  0  0  0  0
   20.5589   -4.6639  -15.3040 O   0  0  0  0  0  0  0  0  0  0  0  0
   20.0923   -6.6376  -14.3136 O   0  0  0  0  0  0  0  0  0  0  0  0
  2  1  1  1
  2  9  1  0
  3  2  1  0
  4  3  1  0
  5  4  2  0
  6  5  1  0
  7  6  1  0
  7  8  2  0
  8  4  1  0
  9 16  1  0
  9 10  2  0
 12 11  1  0
 12 13  1  0
 13 14  1  0
 15 14  1  1
 16 15  1  0
 17 15  1  0
 17 18  2  0
 20 19  1  6
 20 22  1  0
 21 20  1  0
 22 23  1  1
 23 17  1  0
 24 22  1  0
 24 25  1  0
 26 24  2  0
M  END
$$$$
