HMV.pdb
     RDKit          3D

 26 26  0  0  1  0  0  0  0  0999 V2000
   28.3365  -19.9725  -15.7403 N   0  0  0  0  0  0  0  0  0  0  0  0
   27.5990  -19.3103  -14.6757 C   0  0  1  0  0  0  0  0  0  0  0  0
   26.5381  -18.4529  -15.3355 C   0  0  0  0  0  0  0  0  0  0  0  0
   27.1397  -17.2094  -15.9116 C   0  0  0  0  0  0  0  0  0  0  0  0
   27.3967  -16.0237  -15.2530 C   0  0  0  0  0  0  0  0  0  0  0  0
   27.9311  -15.1806  -16.1240 N   0  0  0  0  0  0  0  0  0  0  0  0
   28.0288  -15.7773  -17.3206 C   0  0  0  0  0  0  0  0  0  0  0  0
   27.5425  -17.0163  -17.1797 N   0  0  0  0  0  0  0  0  0  0  0  0
   26.8747  -20.3094  -13.8307 C   0  0  0  0  0  0  0  0  0  0  0  0
   26.3639  -21.3112  -14.3886 O   0  0  0  0  0  0  0  0  0  0  0  0
   26.0670  -19.5119   -7.3282 C   0  0  0  0  0  0  0  0  0  0  0  0
   25.6297  -21.2704   -7.5817 S   0  0  0  0  0  0  0  0  0  0  0  0
   25.1821  -21.5096   -9.3215 C   0  0  0  0  0  0  0  0  0  0  0  0
   26.1282  -20.6814  -10.1542 C   0  0  0  0  0  0  0  0  0  0  0  0
   25.8204  -20.9244  -11.6160 C   0  0  2  0  0  0  0  0  0  0  0  0
   26.7458  -20.1652  -12.4307 N   0  0  0  0  0  0  0  0  0  0  0  0
   24.4012  -20.5382  -11.9242 C   0  0  0  0  0  0  0  0  0  0  0  0
   24.0363  -19.3367  -11.8602 O   0  0  0  0  0  0  0  0  0  0  0  0
   22.4758  -21.1079  -15.1649 C   0  0  0  0  0  0  0  0  0  0  0  0
   21.6671  -21.6176  -14.0121 C   0  0  1  0  0  0  0  0  0  0  0  0
   21.6152  -23.1511  -14.0054 C   0  0  0  0  0  0  0  0  0  0  0  0
   22.1058  -21.0832  -12.6853 C   0  0  2  0  0  0  0  0  0  0  0  0
   23.4259  -21.5049  -12.2959 N   0  0  0  0  0  0  0  0  0  0  0  0
   21.1215  -21.5466  -11.6593 C   0  0  0  0  0  0  0  0  0  0  0  0
   19.8129  -21.0848  -11.6133 O   0  0  0  0  0  0  0  0  0  0  0  0
   21.4558  -22.3908  -10.7827 O   0  0  0  0  0  0  0  0  0  0  0  0
  2  1  1  6
  2  9  1  0
  3  2  1  0
  4  3  1  0
  5  4  2  0
  6  5  1  0
  7  6  1  0
  7  8  2  0
  8  4  1  0
  9 16  1  0
  9 10  2  0
 12 11  1  0
 12 13  1  0
 13 14  1  0
 15 14  1  1
 16 15  1  0
 17 15  1  0
 17 18  2  0
 20 19  1  6
 20 22  1  0
 21 20  1  0
 22 23  1  1
 23 17  1  0
 24 22  1  0
 24 25  1  0
 26 24  2  0
M  END
$$$$
