HMV.pdb
     RDKit          3D

 26 26  0  0  1  0  0  0  0  0999 V2000
   25.3825  -21.0535  -14.0017 N   0  0  0  0  0  0  0  0  0  0  0  0
   24.6919  -20.1625  -13.0825 C   0  0  1  0  0  0  0  0  0  0  0  0
   23.3641  -19.8067  -13.7201 C   0  0  0  0  0  0  0  0  0  0  0  0
   23.5696  -19.0138  -14.9728 C   0  0  0  0  0  0  0  0  0  0  0  0
   24.5316  -18.0509  -15.2030 C   0  0  0  0  0  0  0  0  0  0  0  0
   24.3666  -17.5957  -16.4362 N   0  0  0  0  0  0  0  0  0  0  0  0
   23.3339  -18.2286  -17.0111 C   0  0  0  0  0  0  0  0  0  0  0  0
   22.8543  -19.0928  -16.1084 N   0  0  0  0  0  0  0  0  0  0  0  0
   24.3746  -20.8643  -11.8005 C   0  0  0  0  0  0  0  0  0  0  0  0
   23.8859  -22.0194  -11.8523 O   0  0  0  0  0  0  0  0  0  0  0  0
   26.4361  -19.2648   -5.7942 C   0  0  0  0  0  0  0  0  0  0  0  0
   27.5628  -19.7264   -7.1600 S   0  0  0  0  0  0  0  0  0  0  0  0
   26.5961  -20.5493   -8.4533 C   0  0  0  0  0  0  0  0  0  0  0  0
   25.1392  -20.2690   -8.1824 C   0  0  0  0  0  0  0  0  0  0  0  0
   24.3142  -20.9176   -9.2729 C   0  0  2  0  0  0  0  0  0  0  0  0
   24.6049  -20.2741  -10.5371 N   0  0  0  0  0  0  0  0  0  0  0  0
   22.8496  -20.8189   -8.9513 C   0  0  0  0  0  0  0  0  0  0  0  0
   22.2534  -19.7137   -9.0136 O   0  0  0  0  0  0  0  0  0  0  0  0
   19.8582  -21.5846  -10.6039 C   0  0  0  0  0  0  0  0  0  0  0  0
   19.7755  -22.3388   -9.3129 C   0  0  1  0  0  0  0  0  0  0  0  0
   19.9789  -23.8434   -9.5350 C   0  0  0  0  0  0  0  0  0  0  0  0
   20.6916  -21.8179   -8.2509 C   0  0  2  0  0  0  0  0  0  0  0  0
   22.0887  -21.9582   -8.5677 N   0  0  0  0  0  0  0  0  0  0  0  0
   20.3984  -22.5651   -6.9893 C   0  0  0  0  0  0  0  0  0  0  0  0
   19.1831  -22.4672   -6.3250 O   0  0  0  0  0  0  0  0  0  0  0  0
   21.2651  -23.3256   -6.4761 O   0  0  0  0  0  0  0  0  0  0  0  0
  2  1  1  6
  2  9  1  0
  3  2  1  0
  4  3  1  0
  5  4  2  0
  6  5  1  0
  7  6  1  0
  7  8  2  0
  8  4  1  0
  9 16  1  0
  9 10  2  0
 12 11  1  0
 12 13  1  0
 13 14  1  0
 15 14  1  1
 16 15  1  0
 17 15  1  0
 17 18  2  0
 20 19  1  6
 20 22  1  0
 21 20  1  0
 22 23  1  6
 23 17  1  0
 24 22  1  0
 24 25  1  0
 26 24  2  0
M  END
$$$$
