HMV.pdb
     RDKit          3D

 26 26  0  0  1  0  0  0  0  0999 V2000
   21.7815  -15.6169  -18.0815 N   0  0  0  0  0  0  0  0  0  0  0  0
   21.2027  -14.2865  -18.1857 C   0  0  1  0  0  0  0  0  0  0  0  0
   19.7276  -14.4162  -17.8641 C   0  0  0  0  0  0  0  0  0  0  0  0
   19.0105  -15.1662  -18.9427 C   0  0  0  0  0  0  0  0  0  0  0  0
   19.5486  -15.6643  -20.1125 C   0  0  0  0  0  0  0  0  0  0  0  0
   18.5766  -16.2596  -20.7877 N   0  0  0  0  0  0  0  0  0  0  0  0
   17.4309  -16.1646  -20.0979 C   0  0  0  0  0  0  0  0  0  0  0  0
   17.7073  -15.4948  -18.9725 N   0  0  0  0  0  0  0  0  0  0  0  0
   21.7847  -13.3721  -17.1551 C   0  0  0  0  0  0  0  0  0  0  0  0
   22.0963  -13.8481  -16.0361 O   0  0  0  0  0  0  0  0  0  0  0  0
   26.7018  -12.2491  -14.6710 C   0  0  0  0  0  0  0  0  0  0  0  0
   26.4879  -10.6041  -15.4430 S   0  0  0  0  0  0  0  0  0  0  0  0
   24.7156  -10.2390  -15.5436 C   0  0  0  0  0  0  0  0  0  0  0  0
   24.1043  -11.2106  -16.5216 C   0  0  0  0  0  0  0  0  0  0  0  0
   22.5979  -11.0852  -16.4456 C   0  0  2  0  0  0  0  0  0  0  0  0
   21.9952  -11.9956  -17.3966 N   0  0  0  0  0  0  0  0  0  0  0  0
   22.1749   -9.6703  -16.7234 C   0  0  0  0  0  0  0  0  0  0  0  0
   22.4898   -9.1081  -17.8030 O   0  0  0  0  0  0  0  0  0  0  0  0
   18.6191   -8.1467  -15.3622 C   0  0  0  0  0  0  0  0  0  0  0  0
   19.4778   -7.5400  -16.4286 C   0  0  1  0  0  0  0  0  0  0  0  0
   19.0351   -6.1062  -16.7490 C   0  0  0  0  0  0  0  0  0  0  0  0
   20.9426   -7.6024  -16.1308 C   0  0  2  0  0  0  0  0  0  0  0  0
   21.4108   -8.9195  -15.7871 N   0  0  0  0  0  0  0  0  0  0  0  0
   21.2162   -6.6731  -14.9917 C   0  0  0  0  0  0  0  0  0  0  0  0
   21.2786   -5.2947  -15.1469 O   0  0  0  0  0  0  0  0  0  0  0  0
   21.4035   -7.1213  -13.8269 O   0  0  0  0  0  0  0  0  0  0  0  0
  2  1  1  1
  2  9  1  0
  3  2  1  0
  4  3  1  0
  5  4  2  0
  6  5  1  0
  7  6  1  0
  7  8  2  0
  8  4  1  0
  9 16  1  0
  9 10  2  0
 12 11  1  0
 12 13  1  0
 13 14  1  0
 15 14  1  6
 16 15  1  0
 17 15  1  0
 17 18  2  0
 20 19  1  1
 20 22  1  0
 21 20  1  0
 22 23  1  1
 23 17  1  0
 24 22  1  0
 24 25  1  0
 26 24  2  0
M  END
$$$$
