HMV.pdb
     RDKit          3D

 26 26  0  0  1  0  0  0  0  0999 V2000
   20.3785  -20.5356  -12.9409 N   0  0  0  0  0  0  0  0  0  0  0  0
   21.1771  -20.4647  -14.1545 C   0  0  1  0  0  0  0  0  0  0  0  0
   20.4080  -19.6136  -15.1446 C   0  0  0  0  0  0  0  0  0  0  0  0
   19.4526  -20.4497  -15.9372 C   0  0  0  0  0  0  0  0  0  0  0  0
   18.0733  -20.4074  -15.8956 C   0  0  0  0  0  0  0  0  0  0  0  0
   17.6115  -21.3079  -16.7505 N   0  0  0  0  0  0  0  0  0  0  0  0
   18.6408  -21.9303  -17.3427 C   0  0  0  0  0  0  0  0  0  0  0  0
   19.7608  -21.3984  -16.8386 N   0  0  0  0  0  0  0  0  0  0  0  0
   22.4700  -19.7575  -13.8987 C   0  0  0  0  0  0  0  0  0  0  0  0
   22.4435  -18.6526  -13.3036 O   0  0  0  0  0  0  0  0  0  0  0  0
   25.9400  -20.9887   -8.8554 C   0  0  0  0  0  0  0  0  0  0  0  0
   26.3372  -21.3863  -10.5967 S   0  0  0  0  0  0  0  0  0  0  0  0
   25.3964  -20.2723  -11.6729 C   0  0  0  0  0  0  0  0  0  0  0  0
   25.7887  -20.5746  -13.0974 C   0  0  0  0  0  0  0  0  0  0  0  0
   24.9945  -19.6717  -14.0165 C   0  0  2  0  0  0  0  0  0  0  0  0
   23.7160  -20.2883  -14.3025 N   0  0  0  0  0  0  0  0  0  0  0  0
   25.7563  -19.4153  -15.2861 C   0  0  0  0  0  0  0  0  0  0  0  0
   25.6218  -20.1758  -16.2783 O   0  0  0  0  0  0  0  0  0  0  0  0
   26.2786  -15.5310  -16.3281 C   0  0  0  0  0  0  0  0  0  0  0  0
   26.2919  -16.7135  -17.2468 C   0  0  1  0  0  0  0  0  0  0  0  0
   26.7635  -16.3191  -18.6527 C   0  0  0  0  0  0  0  0  0  0  0  0
   27.0701  -17.8775  -16.7196 C   0  0  2  0  0  0  0  0  0  0  0  0
   26.6495  -18.3153  -15.4144 N   0  0  0  0  0  0  0  0  0  0  0  0
   28.5090  -17.4746  -16.6604 C   0  0  0  0  0  0  0  0  0  0  0  0
   29.1662  -17.2141  -15.4654 O   0  0  0  0  0  0  0  0  0  0  0  0
   29.1874  -17.3556  -17.7180 O   0  0  0  0  0  0  0  0  0  0  0  0
  2  1  1  1
  2  9  1  0
  3  2  1  0
  4  3  1  0
  5  4  2  0
  6  5  1  0
  7  6  1  0
  7  8  2  0
  8  4  1  0
  9 16  1  0
  9 10  2  0
 12 11  1  0
 12 13  1  0
 13 14  1  0
 15 14  1  1
 16 15  1  0
 17 15  1  0
 17 18  2  0
 20 19  1  1
 20 22  1  0
 21 20  1  0
 22 23  1  1
 23 17  1  0
 24 22  1  0
 24 25  1  0
 26 24  2  0
M  END
$$$$
