HMV.pdb
     RDKit          3D

 26 26  0  0  1  0  0  0  0  0999 V2000
   24.3185   -9.7519  -18.8675 N   0  0  0  0  0  0  0  0  0  0  0  0
   23.0207   -9.8835  -18.2239 C   0  0  1  0  0  0  0  0  0  0  0  0
   23.2685  -10.4140  -16.8263 C   0  0  0  0  0  0  0  0  0  0  0  0
   23.7351  -11.8354  -16.8704 C   0  0  0  0  0  0  0  0  0  0  0  0
   23.9826  -12.5984  -17.9940 C   0  0  0  0  0  0  0  0  0  0  0  0
   24.3780  -13.7978  -17.5939 N   0  0  0  0  0  0  0  0  0  0  0  0
   24.3950  -13.8382  -16.2539 C   0  0  0  0  0  0  0  0  0  0  0  0
   24.0006  -12.6342  -15.8221 N   0  0  0  0  0  0  0  0  0  0  0  0
   22.3699   -8.5465  -18.0631 C   0  0  0  0  0  0  0  0  0  0  0  0
   23.0851   -7.5632  -17.7510 O   0  0  0  0  0  0  0  0  0  0  0  0
   15.8028   -6.9933  -19.3110 C   0  0  0  0  0  0  0  0  0  0  0  0
   16.9640   -5.8109  -20.0864 S   0  0  0  0  0  0  0  0  0  0  0  0
   18.4653   -5.7277  -19.0747 C   0  0  0  0  0  0  0  0  0  0  0  0
   19.0708   -7.1085  -19.0420 C   0  0  0  0  0  0  0  0  0  0  0  0
   20.3268   -7.0626  -18.1988 C   0  0  2  0  0  0  0  0  0  0  0  0
   20.9824   -8.3526  -18.2494 N   0  0  0  0  0  0  0  0  0  0  0  0
   19.9934   -6.6917  -16.7812 C   0  0  0  0  0  0  0  0  0  0  0  0
   19.3106   -7.4637  -16.0610 O   0  0  0  0  0  0  0  0  0  0  0  0
   22.1575   -6.3197  -13.8392 C   0  0  0  0  0  0  0  0  0  0  0  0
   21.3760   -5.0493  -13.9722 C   0  0  1  0  0  0  0  0  0  0  0  0
   22.2672   -3.8971  -14.4544 C   0  0  0  0  0  0  0  0  0  0  0  0
   20.1517   -5.1811  -14.8220 C   0  0  2  0  0  0  0  0  0  0  0  0
   20.4313   -5.4670  -16.2048 N   0  0  0  0  0  0  0  0  0  0  0  0
   19.3935   -3.8954  -14.7316 C   0  0  0  0  0  0  0  0  0  0  0  0
   18.7529   -3.4826  -13.5710 O   0  0  0  0  0  0  0  0  0  0  0  0
   19.3094   -3.1271  -15.7294 O   0  0  0  0  0  0  0  0  0  0  0  0
  2  1  1  1
  2  9  1  0
  3  2  1  0
  4  3  1  0
  5  4  2  0
  6  5  1  0
  7  6  1  0
  7  8  2  0
  8  4  1  0
  9 16  1  0
  9 10  2  0
 12 11  1  0
 12 13  1  0
 13 14  1  0
 15 14  1  6
 16 15  1  0
 17 15  1  0
 17 18  2  0
 20 19  1  6
 20 22  1  0
 21 20  1  0
 22 23  1  6
 23 17  1  0
 24 22  1  0
 24 25  1  0
 26 24  2  0
M  END
$$$$
