HMV.pdb
     RDKit          3D

 26 26  0  0  1  0  0  0  0  0999 V2000
   28.5329  -20.9765  -16.0738 N   0  0  0  0  0  0  0  0  0  0  0  0
   27.8953  -20.0378  -15.1638 C   0  0  1  0  0  0  0  0  0  0  0  0
   27.1208  -19.0504  -16.0131 C   0  0  0  0  0  0  0  0  0  0  0  0
   28.0458  -18.0848  -16.6854 C   0  0  0  0  0  0  0  0  0  0  0  0
   28.4187  -16.8343  -16.2348 C   0  0  0  0  0  0  0  0  0  0  0  0
   29.2489  -16.3107  -17.1246 N   0  0  0  0  0  0  0  0  0  0  0  0
   29.4261  -17.1762  -18.1331 C   0  0  0  0  0  0  0  0  0  0  0  0
   28.6866  -18.2566  -17.8547 N   0  0  0  0  0  0  0  0  0  0  0  0
   26.8931  -20.7341  -14.2991 C   0  0  0  0  0  0  0  0  0  0  0  0
   26.1415  -21.5931  -14.8217 O   0  0  0  0  0  0  0  0  0  0  0  0
   27.0261  -20.5046   -7.8709 C   0  0  0  0  0  0  0  0  0  0  0  0
   25.2164  -20.6899   -8.0666 S   0  0  0  0  0  0  0  0  0  0  0  0
   24.8653  -21.1545   -9.7827 C   0  0  0  0  0  0  0  0  0  0  0  0
   25.9592  -20.5765  -10.6450 C   0  0  0  0  0  0  0  0  0  0  0  0
   25.7062  -20.9848  -12.0802 C   0  0  2  0  0  0  0  0  0  0  0  0
   26.7632  -20.4594  -12.9188 N   0  0  0  0  0  0  0  0  0  0  0  0
   24.3657  -20.4842  -12.5393 C   0  0  0  0  0  0  0  0  0  0  0  0
   24.1542  -19.2521  -12.6740 O   0  0  0  0  0  0  0  0  0  0  0  0
   22.4754  -20.9119  -15.7455 C   0  0  0  0  0  0  0  0  0  0  0  0
   21.6002  -21.3653  -14.6181 C   0  0  1  0  0  0  0  0  0  0  0  0
   21.4527  -22.8926  -14.6094 C   0  0  0  0  0  0  0  0  0  0  0  0
   22.0287  -20.8534  -13.2792 C   0  0  2  0  0  0  0  0  0  0  0  0
   23.2956  -21.3735  -12.8357 N   0  0  0  0  0  0  0  0  0  0  0  0
   20.9725  -21.2273  -12.2889 C   0  0  0  0  0  0  0  0  0  0  0  0
   21.1800  -22.1708  -11.2915 O   0  0  0  0  0  0  0  0  0  0  0  0
   19.8333  -20.6857  -12.3285 O   0  0  0  0  0  0  0  0  0  0  0  0
  2  1  1  6
  2  9  1  0
  3  2  1  0
  4  3  1  0
  5  4  2  0
  6  5  1  0
  7  6  1  0
  7  8  2  0
  8  4  1  0
  9 16  1  0
  9 10  2  0
 12 11  1  0
 12 13  1  0
 13 14  1  0
 15 14  1  1
 16 15  1  0
 17 15  1  0
 17 18  2  0
 20 19  1  6
 20 22  1  0
 21 20  1  0
 22 23  1  1
 23 17  1  0
 24 22  1  0
 24 25  1  0
 26 24  2  0
M  END
$$$$
