HMV.pdb
     RDKit          3D

 26 26  0  0  1  0  0  0  0  0999 V2000
   28.2002  -21.1981  -15.5538 N   0  0  0  0  0  0  0  0  0  0  0  0
   27.5201  -20.2461  -14.6896 C   0  0  1  0  0  0  0  0  0  0  0  0
   26.8399  -19.2345  -15.5897 C   0  0  0  0  0  0  0  0  0  0  0  0
   27.8493  -18.3731  -16.2820 C   0  0  0  0  0  0  0  0  0  0  0  0
   28.5317  -17.2963  -15.7522 C   0  0  0  0  0  0  0  0  0  0  0  0
   29.3279  -16.8140  -16.6947 N   0  0  0  0  0  0  0  0  0  0  0  0
   29.1853  -17.5388  -17.8135 C   0  0  0  0  0  0  0  0  0  0  0  0
   28.2797  -18.4887  -17.5504 N   0  0  0  0  0  0  0  0  0  0  0  0
   26.4361  -20.9184  -13.9087 C   0  0  0  0  0  0  0  0  0  0  0  0
   25.7789  -21.8357  -14.4587 O   0  0  0  0  0  0  0  0  0  0  0  0
   26.2866  -19.0798   -7.8954 C   0  0  0  0  0  0  0  0  0  0  0  0
   26.3286  -20.9056   -8.0077 S   0  0  0  0  0  0  0  0  0  0  0  0
   26.2691  -21.3786   -9.7561 C   0  0  0  0  0  0  0  0  0  0  0  0
   25.1125  -20.6457  -10.3882 C   0  0  0  0  0  0  0  0  0  0  0  0
   25.0001  -21.0805  -11.8334 C   0  0  2  0  0  0  0  0  0  0  0  0
   26.1269  -20.5579  -12.5775 N   0  0  0  0  0  0  0  0  0  0  0  0
   23.7046  -20.6019  -12.4258 C   0  0  0  0  0  0  0  0  0  0  0  0
   23.5360  -19.3862  -12.6991 O   0  0  0  0  0  0  0  0  0  0  0  0
   21.2658  -23.1368  -14.6882 C   0  0  0  0  0  0  0  0  0  0  0  0
   21.2139  -21.6403  -14.7031 C   0  0  1  0  0  0  0  0  0  0  0  0
   19.9083  -21.1364  -15.3324 C   0  0  0  0  0  0  0  0  0  0  0  0
   21.4476  -21.0158  -13.3638 C   0  0  2  0  0  0  0  0  0  0  0  0
   22.6304  -21.4942  -12.6973 N   0  0  0  0  0  0  0  0  0  0  0  0
   20.2540  -21.3060  -12.5110 C   0  0  0  0  0  0  0  0  0  0  0  0
   18.9999  -20.7688  -12.7686 O   0  0  0  0  0  0  0  0  0  0  0  0
   20.3501  -22.0651  -11.5073 O   0  0  0  0  0  0  0  0  0  0  0  0
  2  1  1  6
  2  9  1  0
  3  2  1  0
  4  3  1  0
  5  4  2  0
  6  5  1  0
  7  6  1  0
  7  8  2  0
  8  4  1  0
  9 16  1  0
  9 10  2  0
 12 11  1  0
 12 13  1  0
 13 14  1  0
 15 14  1  1
 16 15  1  0
 17 15  1  0
 17 18  2  0
 20 19  1  1
 20 22  1  0
 21 20  1  0
 22 23  1  1
 23 17  1  0
 24 22  1  0
 24 25  1  0
 26 24  2  0
M  END
$$$$
