IVA.pdb
     RDKit          3D

 21 20  0  0  1  0  0  0  0  0999 V2000
   16.5768  -15.7324  -15.1620 C   0  0  0  0  0  0  0  0  0  0  0  0
   16.7251  -15.2099  -16.6047 C   0  0  0  0  0  0  0  0  0  0  0  0
   17.7713  -14.1365  -16.5278 C   0  0  2  0  0  0  0  0  0  0  0  0
   17.4692  -13.1622  -15.4105 C   0  0  0  0  0  0  0  0  0  0  0  0
   18.0509  -13.4313  -17.8319 C   0  0  2  0  0  0  0  0  0  0  0  0
   18.5532  -14.5005  -18.7201 N   0  0  0  0  0  0  0  0  0  0  0  0
   19.0962  -12.4037  -17.7674 C   0  0  0  0  0  0  0  0  0  0  0  0
   20.3091  -12.7538  -17.5704 O   0  0  0  0  0  0  0  0  0  0  0  0
   20.8297   -7.9281  -18.8579 C   0  0  0  0  0  0  0  0  0  0  0  0
   19.9030   -9.1178  -19.0199 C   0  0  1  0  0  0  0  0  0  0  0  0
   20.1685   -9.8336  -20.3059 C   0  0  0  0  0  0  0  0  0  0  0  0
   19.9682  -10.0368  -17.8173 C   0  0  2  0  0  0  0  0  0  0  0  0
   18.8935  -11.0026  -17.9085 N   0  0  0  0  0  0  0  0  0  0  0  0
   19.7990   -9.1806  -16.6088 C   0  0  0  0  0  0  0  0  0  0  0  0
   18.7473   -8.5299  -16.4435 O   0  0  0  0  0  0  0  0  0  0  0  0
   21.8455   -8.6443  -13.4860 C   0  0  0  0  0  0  0  0  0  0  0  0
   20.6728   -8.3538  -14.3989 C   0  0  2  0  0  0  0  0  0  0  0  0
   20.8118   -9.0905  -15.6405 N   0  0  0  0  0  0  0  0  0  0  0  0
   20.5174   -6.8968  -14.6394 C   0  0  0  0  0  0  0  0  0  0  0  0
   20.9877   -6.3046  -15.6239 O   0  0  0  0  0  0  0  0  0  0  0  0
   19.8048   -6.1529  -13.7092 O   0  0  0  0  0  0  0  0  0  0  0  0
  2  3  1  0
  2  1  1  0
  3  5  1  0
  3  4  1  1
  5  7  1  0
  5  6  1  6
  7  8  2  0
 10  9  1  1
 10 11  1  0
 10 12  1  0
 12 14  1  0
 13  7  1  0
 12 13  1  6
 14 15  2  0
 17 16  1  1
 17 19  1  0
 18 17  1  0
 18 14  1  0
 19 20  2  0
 19 21  1  0
M  END
$$$$
