IVA.pdb
     RDKit          3D

 21 20  0  0  1  0  0  0  0  0999 V2000
   14.7284  -10.5914  -17.7584 C   0  0  0  0  0  0  0  0  0  0  0  0
   15.8510  -10.9547  -16.7663 C   0  0  0  0  0  0  0  0  0  0  0  0
   17.0837  -11.1102  -17.6084 C   0  0  2  0  0  0  0  0  0  0  0  0
   16.8723  -12.1400  -18.6964 C   0  0  0  0  0  0  0  0  0  0  0  0
   18.3525  -11.3615  -16.8317 C   0  0  2  0  0  0  0  0  0  0  0  0
   18.0822  -12.6131  -16.0936 N   0  0  0  0  0  0  0  0  0  0  0  0
   18.6784  -10.3382  -15.8320 C   0  0  0  0  0  0  0  0  0  0  0  0
   18.1588  -10.4111  -14.6671 O   0  0  0  0  0  0  0  0  0  0  0  0
   21.7176   -9.4608  -13.9643 C   0  0  0  0  0  0  0  0  0  0  0  0
   21.2863   -8.2116  -14.7084 C   0  0  1  0  0  0  0  0  0  0  0  0
   22.1202   -8.0009  -15.9319 C   0  0  0  0  0  0  0  0  0  0  0  0
   19.8022   -8.2337  -15.0115 C   0  0  2  0  0  0  0  0  0  0  0  0
   19.5483   -9.2300  -16.0308 N   0  0  0  0  0  0  0  0  0  0  0  0
   19.4417   -6.8753  -15.5085 C   0  0  0  0  0  0  0  0  0  0  0  0
   19.8610   -6.4810  -16.6155 O   0  0  0  0  0  0  0  0  0  0  0  0
   16.9690   -4.2842  -14.3735 C   0  0  0  0  0  0  0  0  0  0  0  0
   18.1303   -4.7463  -15.2285 C   0  0  2  0  0  0  0  0  0  0  0  0
   18.6298   -6.0199  -14.7466 N   0  0  0  0  0  0  0  0  0  0  0  0
   19.2041   -3.7225  -15.2882 C   0  0  0  0  0  0  0  0  0  0  0  0
   20.2549   -3.7835  -14.6299 O   0  0  0  0  0  0  0  0  0  0  0  0
   19.0229   -2.6333  -16.1292 O   0  0  0  0  0  0  0  0  0  0  0  0
  2  3  1  0
  2  1  1  0
  3  5  1  0
  3  4  1  6
  5  7  1  0
  5  6  1  1
  7  8  2  0
 10  9  1  6
 10 11  1  0
 10 12  1  0
 12 14  1  0
 13  7  1  0
 12 13  1  6
 14 15  2  0
 17 16  1  1
 17 19  1  0
 18 17  1  0
 18 14  1  0
 19 20  2  0
 19 21  1  0
M  END
$$$$
