IVA.pdb
     RDKit          3D

 21 20  0  0  1  0  0  0  0  0999 V2000
   33.4818  -31.7190  -21.3086 C   0  0  0  0  0  0  0  0  0  0  0  0
   33.4177  -30.2642  -20.8026 C   0  0  0  0  0  0  0  0  0  0  0  0
   32.4655  -30.2938  -19.6428 C   0  0  2  0  0  0  0  0  0  0  0  0
   31.1584  -30.9504  -20.0293 C   0  0  0  0  0  0  0  0  0  0  0  0
   32.2504  -28.9622  -18.9670 C   0  0  2  0  0  0  0  0  0  0  0  0
   33.5080  -28.7254  -18.2273 N   0  0  0  0  0  0  0  0  0  0  0  0
   31.1641  -28.9375  -17.9809 C   0  0  0  0  0  0  0  0  0  0  0  0
   31.3706  -29.4004  -16.8081 O   0  0  0  0  0  0  0  0  0  0  0  0
   26.8227  -27.0478  -16.4773 C   0  0  0  0  0  0  0  0  0  0  0  0
   28.0775  -27.0551  -17.3292 C   0  0  1  0  0  0  0  0  0  0  0  0
   28.9113  -25.8416  -17.0670 C   0  0  0  0  0  0  0  0  0  0  0  0
   28.8545  -28.3442  -17.1573 C   0  0  2  0  0  0  0  0  0  0  0  0
   29.8533  -28.4305  -18.2018 N   0  0  0  0  0  0  0  0  0  0  0  0
   27.8738  -29.4602  -17.2798 C   0  0  0  0  0  0  0  0  0  0  0  0
   27.2268  -29.6134  -18.3355 O   0  0  0  0  0  0  0  0  0  0  0  0
   26.9045  -32.3534  -15.0606 C   0  0  0  0  0  0  0  0  0  0  0  0
   26.7421  -31.4742  -16.2827 C   0  0  2  0  0  0  0  0  0  0  0  0
   27.6608  -30.3537  -16.2178 N   0  0  0  0  0  0  0  0  0  0  0  0
   25.3368  -31.0232  -16.4465 C   0  0  0  0  0  0  0  0  0  0  0  0
   24.9200  -29.9127  -16.0802 O   0  0  0  0  0  0  0  0  0  0  0  0
   24.4362  -31.8938  -17.0442 O   0  0  0  0  0  0  0  0  0  0  0  0
  2  3  1  0
  2  1  1  0
  3  5  1  0
  3  4  1  6
  5  7  1  0
  5  6  1  1
  7  8  2  0
 10  9  1  1
 10 11  1  0
 10 12  1  0
 12 14  1  0
 13  7  1  0
 12 13  1  6
 14 15  2  0
 17 16  1  1
 17 19  1  0
 18 17  1  0
 18 14  1  0
 19 20  2  0
 19 21  1  0
M  END
$$$$
