IVA.pdb
     RDKit          3D

 21 20  0  0  1  0  0  0  0  0999 V2000
   21.3709  -17.4304  -18.2316 C   0  0  0  0  0  0  0  0  0  0  0  0
   20.1368  -17.6433  -17.3327 C   0  0  0  0  0  0  0  0  0  0  0  0
   20.6030  -18.5552  -16.2356 C   0  0  2  0  0  0  0  0  0  0  0  0
   21.3675  -17.7880  -15.1792 C   0  0  0  0  0  0  0  0  0  0  0  0
   21.3573  -19.7748  -16.7046 C   0  0  2  0  0  0  0  0  0  0  0  0
   20.3437  -20.5696  -17.4294 N   0  0  0  0  0  0  0  0  0  0  0  0
   21.8818  -20.6278  -15.6322 C   0  0  0  0  0  0  0  0  0  0  0  0
   21.0781  -21.1087  -14.7632 O   0  0  0  0  0  0  0  0  0  0  0  0
   25.2885  -23.7357  -13.9038 C   0  0  0  0  0  0  0  0  0  0  0  0
   24.5737  -22.9470  -14.9842 C   0  0  1  0  0  0  0  0  0  0  0  0
   23.8239  -23.8559  -15.9052 C   0  0  0  0  0  0  0  0  0  0  0  0
   23.6947  -21.8660  -14.3892 C   0  0  2  0  0  0  0  0  0  0  0  0
   23.2453  -20.9916  -15.4520 N   0  0  0  0  0  0  0  0  0  0  0  0
   24.5344  -21.1133  -13.4143 C   0  0  0  0  0  0  0  0  0  0  0  0
   25.3719  -20.2817  -13.8189 O   0  0  0  0  0  0  0  0  0  0  0  0
   24.3926  -19.8386  -10.1081 C   0  0  0  0  0  0  0  0  0  0  0  0
   25.2387  -20.6833  -11.0373 C   0  0  2  0  0  0  0  0  0  0  0  0
   24.4004  -21.3239  -12.0326 N   0  0  0  0  0  0  0  0  0  0  0  0
   26.0519  -21.6725  -10.2855 C   0  0  0  0  0  0  0  0  0  0  0  0
   25.8591  -22.8982  -10.3244 O   0  0  0  0  0  0  0  0  0  0  0  0
   27.0882  -21.1995   -9.4926 O   0  0  0  0  0  0  0  0  0  0  0  0
  2  3  1  0
  2  1  1  0
  3  5  1  0
  3  4  1  1
  5  7  1  0
  5  6  1  6
  7  8  2  0
 10  9  1  1
 10 11  1  0
 10 12  1  0
 12 14  1  0
 13  7  1  0
 12 13  1  6
 14 15  2  0
 17 16  1  1
 17 19  1  0
 18 17  1  0
 18 14  1  0
 19 20  2  0
 19 21  1  0
M  END
$$$$
