IVA.pdb
     RDKit          3D

 21 20  0  0  1  0  0  0  0  0999 V2000
   16.7239  -17.2890  -17.7124 C   0  0  0  0  0  0  0  0  0  0  0  0
   16.7238  -16.2867  -16.5410 C   0  0  0  0  0  0  0  0  0  0  0  0
   17.4848  -15.0949  -17.0441 C   0  0  2  0  0  0  0  0  0  0  0  0
   18.8298  -15.5051  -17.6024 C   0  0  0  0  0  0  0  0  0  0  0  0
   17.6050  -13.9591  -16.0584 C   0  0  2  0  0  0  0  0  0  0  0  0
   16.2064  -13.5602  -15.7950 N   0  0  0  0  0  0  0  0  0  0  0  0
   18.2995  -12.7706  -16.5663 C   0  0  0  0  0  0  0  0  0  0  0  0
   19.5288  -12.8583  -16.9033 O   0  0  0  0  0  0  0  0  0  0  0  0
   16.2968   -9.1108  -17.1177 C   0  0  0  0  0  0  0  0  0  0  0  0
   17.5628   -9.3828  -17.9073 C   0  0  1  0  0  0  0  0  0  0  0  0
   18.2375   -8.1061  -18.2962 C   0  0  0  0  0  0  0  0  0  0  0  0
   18.4857  -10.3266  -17.1639 C   0  0  2  0  0  0  0  0  0  0  0  0
   17.7247  -11.4797  -16.7311 N   0  0  0  0  0  0  0  0  0  0  0  0
   19.0136   -9.5785  -15.9876 C   0  0  0  0  0  0  0  0  0  0  0  0
   18.2645   -9.3121  -15.0261 O   0  0  0  0  0  0  0  0  0  0  0  0
   22.4281   -8.9317  -14.6928 C   0  0  0  0  0  0  0  0  0  0  0  0
   20.9641   -8.5534  -14.7728 C   0  0  2  0  0  0  0  0  0  0  0  0
   20.3537   -9.1623  -15.9391 N   0  0  0  0  0  0  0  0  0  0  0  0
   20.7808   -7.0799  -14.7633 C   0  0  0  0  0  0  0  0  0  0  0  0
   20.5200   -6.4092  -15.7748 O   0  0  0  0  0  0  0  0  0  0  0  0
   20.9086   -6.4129  -13.5528 O   0  0  0  0  0  0  0  0  0  0  0  0
  2  3  1  0
  2  1  1  0
  3  5  1  0
  3  4  1  1
  5  7  1  0
  5  6  1  6
  7  8  2  0
 10  9  1  1
 10 11  1  0
 10 12  1  0
 12 14  1  0
 13  7  1  0
 12 13  1  1
 14 15  2  0
 17 16  1  6
 17 19  1  0
 18 17  1  0
 18 14  1  0
 19 20  2  0
 19 21  1  0
M  END
$$$$
