IVA.pdb
     RDKit          3D

 21 20  0  0  1  0  0  0  0  0999 V2000
   19.8726  -20.5366  -12.1183 C   0  0  0  0  0  0  0  0  0  0  0  0
   21.2283  -20.2697  -12.8021 C   0  0  0  0  0  0  0  0  0  0  0  0
   22.2597  -20.7975  -11.8480 C   0  0  2  0  0  0  0  0  0  0  0  0
   22.0234  -20.2744  -10.4482 C   0  0  0  0  0  0  0  0  0  0  0  0
   23.6889  -20.6022  -12.2902 C   0  0  2  0  0  0  0  0  0  0  0  0
   23.8085  -21.4369  -13.5041 N   0  0  0  0  0  0  0  0  0  0  0  0
   24.7005  -21.0811  -11.3414 C   0  0  0  0  0  0  0  0  0  0  0  0
   24.6118  -22.2673  -10.8751 O   0  0  0  0  0  0  0  0  0  0  0  0
   29.2099  -21.0983   -9.4414 C   0  0  0  0  0  0  0  0  0  0  0  0
   28.1597  -20.7232  -10.4694 C   0  0  1  0  0  0  0  0  0  0  0  0
   28.3436  -21.5014  -11.7332 C   0  0  0  0  0  0  0  0  0  0  0  0
   26.7607  -20.8538   -9.9030 C   0  0  2  0  0  0  0  0  0  0  0  0
   25.8154  -20.3342  -10.8687 N   0  0  0  0  0  0  0  0  0  0  0  0
   26.7238  -20.0465   -8.6504 C   0  0  0  0  0  0  0  0  0  0  0  0
   26.5826  -18.8081   -8.7065 O   0  0  0  0  0  0  0  0  0  0  0  0
   26.7938  -20.8698   -4.9717 C   0  0  0  0  0  0  0  0  0  0  0  0
   26.9311  -19.9235   -6.1458 C   0  0  2  0  0  0  0  0  0  0  0  0
   26.8462  -20.6591   -7.3930 N   0  0  0  0  0  0  0  0  0  0  0  0
   28.1824  -19.1284   -6.0614 C   0  0  0  0  0  0  0  0  0  0  0  0
   29.2091  -19.3843   -6.7106 O   0  0  0  0  0  0  0  0  0  0  0  0
   28.2059  -18.0351   -5.2067 O   0  0  0  0  0  0  0  0  0  0  0  0
  2  3  1  0
  2  1  1  0
  3  5  1  0
  3  4  1  1
  5  7  1  0
  5  6  1  6
  7  8  2  0
 10  9  1  1
 10 11  1  0
 10 12  1  0
 12 14  1  0
 13  7  1  0
 12 13  1  6
 14 15  2  0
 17 16  1  1
 17 19  1  0
 18 17  1  0
 18 14  1  0
 19 20  2  0
 19 21  1  0
M  END
$$$$
