IVA.pdb
     RDKit          3D

 21 20  0  0  1  0  0  0  0  0999 V2000
   27.3609  -19.9844   -3.3098 C   0  0  0  0  0  0  0  0  0  0  0  0
   28.1755  -19.5011   -4.5261 C   0  0  0  0  0  0  0  0  0  0  0  0
   27.3169  -19.8047   -5.7191 C   0  0  2  0  0  0  0  0  0  0  0  0
   26.8388  -21.2399   -5.6935 C   0  0  0  0  0  0  0  0  0  0  0  0
   27.9283  -19.4367   -7.0484 C   0  0  2  0  0  0  0  0  0  0  0  0
   28.2667  -18.0050   -6.9061 N   0  0  0  0  0  0  0  0  0  0  0  0
   27.0231  -19.5493   -8.1976 C   0  0  0  0  0  0  0  0  0  0  0  0
   26.1092  -18.6722   -8.3648 O   0  0  0  0  0  0  0  0  0  0  0  0
   26.5398  -21.3199  -12.8369 C   0  0  0  0  0  0  0  0  0  0  0  0
   27.1790  -21.3541  -11.4619 C   0  0  1  0  0  0  0  0  0  0  0  0
   28.6487  -21.0907  -11.5465 C   0  0  0  0  0  0  0  0  0  0  0  0
   26.4737  -20.4188  -10.5013 C   0  0  2  0  0  0  0  0  0  0  0  0
   27.0586  -20.5722   -9.1858 N   0  0  0  0  0  0  0  0  0  0  0  0
   25.0378  -20.8188  -10.4837 C   0  0  0  0  0  0  0  0  0  0  0  0
   24.6862  -21.8680   -9.9073 O   0  0  0  0  0  0  0  0  0  0  0  0
   21.8286  -19.1415  -11.4847 C   0  0  0  0  0  0  0  0  0  0  0  0
   22.6498  -20.3642  -11.1331 C   0  0  2  0  0  0  0  0  0  0  0  0
   24.0608  -20.0288  -11.1103 N   0  0  0  0  0  0  0  0  0  0  0  0
   22.3687  -21.4931  -12.0559 C   0  0  0  0  0  0  0  0  0  0  0  0
   23.1148  -21.8234  -12.9915 O   0  0  0  0  0  0  0  0  0  0  0  0
   21.2037  -22.2219  -11.8615 O   0  0  0  0  0  0  0  0  0  0  0  0
  2  3  1  0
  2  1  1  0
  3  5  1  0
  3  4  1  6
  5  7  1  0
  5  6  1  1
  7  8  2  0
 10  9  1  6
 10 11  1  0
 10 12  1  0
 12 14  1  0
 13  7  1  0
 12 13  1  1
 14 15  2  0
 17 16  1  6
 17 19  1  0
 18 17  1  0
 18 14  1  0
 19 20  2  0
 19 21  1  0
M  END
$$$$
