IVA.pdb
     RDKit          3D

 21 20  0  0  1  0  0  0  0  0999 V2000
   19.0906  -11.0707  -14.1571 C   0  0  0  0  0  0  0  0  0  0  0  0
   18.5595  -11.2169  -12.7173 C   0  0  0  0  0  0  0  0  0  0  0  0
   17.6706  -10.0264  -12.5042 C   0  0  2  0  0  0  0  0  0  0  0  0
   18.3438   -8.7548  -12.9721 C   0  0  0  0  0  0  0  0  0  0  0  0
   17.1182   -9.8918  -11.1067 C   0  0  2  0  0  0  0  0  0  0  0  0
   16.3963  -11.1615  -10.8800 N   0  0  0  0  0  0  0  0  0  0  0  0
   16.1440   -8.8092  -10.9286 C   0  0  0  0  0  0  0  0  0  0  0  0
   15.1448   -8.7276  -11.7206 O   0  0  0  0  0  0  0  0  0  0  0  0
   13.4541   -8.2586   -8.9593 C   0  0  0  0  0  0  0  0  0  0  0  0
   14.2815   -7.0161   -8.6913 C   0  0  1  0  0  0  0  0  0  0  0  0
   14.9823   -7.1118   -7.3736 C   0  0  0  0  0  0  0  0  0  0  0  0
   15.2304   -6.7266   -9.8362 C   0  0  2  0  0  0  0  0  0  0  0  0
   16.1963   -7.8014   -9.9257 N   0  0  0  0  0  0  0  0  0  0  0  0
   15.9110   -5.4388   -9.5192 C   0  0  0  0  0  0  0  0  0  0  0  0
   16.7814   -5.3926   -8.6264 O   0  0  0  0  0  0  0  0  0  0  0  0
   15.8623   -1.9950  -11.0480 C   0  0  0  0  0  0  0  0  0  0  0  0
   16.2073   -2.9773   -9.9484 C   0  0  2  0  0  0  0  0  0  0  0  0
   15.5883   -4.2619  -10.2136 N   0  0  0  0  0  0  0  0  0  0  0  0
   15.8314   -2.4523   -8.6112 C   0  0  0  0  0  0  0  0  0  0  0  0
   14.8501   -2.8501   -7.9632 O   0  0  0  0  0  0  0  0  0  0  0  0
   16.6233   -1.4587   -8.0526 O   0  0  0  0  0  0  0  0  0  0  0  0
  2  3  1  0
  2  1  1  0
  3  5  1  0
  3  4  1  1
  5  7  1  0
  5  6  1  6
  7  8  2  0
 10  9  1  6
 10 11  1  0
 10 12  1  0
 12 14  1  0
 13  7  1  0
 12 13  1  1
 14 15  2  0
 17 16  1  6
 17 19  1  0
 18 17  1  0
 18 14  1  0
 19 20  2  0
 19 21  1  0
M  END
$$$$
