IVA.pdb
     RDKit          3D

 21 20  0  0  1  0  0  0  0  0999 V2000
   25.1515  -13.8028  -15.2530 C   0  0  0  0  0  0  0  0  0  0  0  0
   23.7155  -13.6644  -15.7965 C   0  0  0  0  0  0  0  0  0  0  0  0
   23.5283  -12.1954  -16.0408 C   0  0  2  0  0  0  0  0  0  0  0  0
   23.8510  -11.3925  -14.7998 C   0  0  0  0  0  0  0  0  0  0  0  0
   22.1902  -11.8171  -16.6261 C   0  0  2  0  0  0  0  0  0  0  0  0
   22.1286  -12.5651  -17.8994 N   0  0  0  0  0  0  0  0  0  0  0  0
   22.0401  -10.3958  -16.9582 C   0  0  0  0  0  0  0  0  0  0  0  0
   22.8385   -9.8604  -17.7998 O   0  0  0  0  0  0  0  0  0  0  0  0
   19.8244   -8.6294  -19.0044 C   0  0  0  0  0  0  0  0  0  0  0  0
   19.6837   -7.9642  -17.6487 C   0  0  1  0  0  0  0  0  0  0  0  0
   18.4586   -8.4457  -16.9391 C   0  0  0  0  0  0  0  0  0  0  0  0
   20.9405   -8.1295  -16.8191 C   0  0  2  0  0  0  0  0  0  0  0  0
   21.0588   -9.5166  -16.4215 N   0  0  0  0  0  0  0  0  0  0  0  0
   20.7868   -7.2549  -15.6217 C   0  0  0  0  0  0  0  0  0  0  0  0
   20.0468   -7.6052  -14.6802 O   0  0  0  0  0  0  0  0  0  0  0  0
   22.4527   -4.0822  -14.4611 C   0  0  0  0  0  0  0  0  0  0  0  0
   21.3753   -5.1435  -14.3862 C   0  0  2  0  0  0  0  0  0  0  0  0
   21.4663   -6.0296  -15.5308 N   0  0  0  0  0  0  0  0  0  0  0  0
   20.0238   -4.5403  -14.2649 C   0  0  0  0  0  0  0  0  0  0  0  0
   19.2590   -4.3590  -15.2258 O   0  0  0  0  0  0  0  0  0  0  0  0
   19.5898   -4.1566  -13.0037 O   0  0  0  0  0  0  0  0  0  0  0  0
  2  3  1  0
  2  1  1  0
  3  5  1  0
  3  4  1  1
  5  7  1  0
  5  6  1  6
  7  8  2  0
 10  9  1  6
 10 11  1  0
 10 12  1  0
 12 14  1  0
 13  7  1  0
 12 13  1  1
 14 15  2  0
 17 16  1  6
 17 19  1  0
 18 17  1  0
 18 14  1  0
 19 20  2  0
 19 21  1  0
M  END
$$$$
