IVA.pdb
     RDKit          3D

 21 20  0  0  1  0  0  0  0  0999 V2000
   17.4007  -16.9116  -16.9651 C   0  0  0  0  0  0  0  0  0  0  0  0
   17.1116  -16.5721  -15.4894 C   0  0  0  0  0  0  0  0  0  0  0  0
   16.7478  -15.1159  -15.4858 C   0  0  2  0  0  0  0  0  0  0  0  0
   17.7642  -14.2998  -16.2538 C   0  0  0  0  0  0  0  0  0  0  0  0
   16.4734  -14.5361  -14.1203 C   0  0  2  0  0  0  0  0  0  0  0  0
   15.3220  -15.3170  -13.6211 N   0  0  0  0  0  0  0  0  0  0  0  0
   16.0664  -13.1264  -14.1175 C   0  0  0  0  0  0  0  0  0  0  0  0
   15.0066  -12.7780  -14.7402 O   0  0  0  0  0  0  0  0  0  0  0  0
   14.6582  -10.9608  -11.6753 C   0  0  0  0  0  0  0  0  0  0  0  0
   15.9072  -10.2383  -12.1426 C   0  0  1  0  0  0  0  0  0  0  0  0
   17.0119  -10.3754  -11.1439 C   0  0  0  0  0  0  0  0  0  0  0  0
   16.3177  -10.6856  -13.5305 C   0  0  2  0  0  0  0  0  0  0  0  0
   16.7544  -12.0645  -13.4670 N   0  0  0  0  0  0  0  0  0  0  0  0
   17.4404   -9.8019  -13.9557 C   0  0  0  0  0  0  0  0  0  0  0  0
   18.5233   -9.8219  -13.3363 O   0  0  0  0  0  0  0  0  0  0  0  0
   17.9716   -7.4202  -16.8310 C   0  0  0  0  0  0  0  0  0  0  0  0
   18.3414   -8.0257  -15.4933 C   0  0  2  0  0  0  0  0  0  0  0  0
   17.3022   -8.9366  -15.0528 N   0  0  0  0  0  0  0  0  0  0  0  0
   18.6189   -6.9774  -14.4788 C   0  0  0  0  0  0  0  0  0  0  0  0
   19.7060   -6.3873  -14.3742 O   0  0  0  0  0  0  0  0  0  0  0  0
   17.6037   -6.6372  -13.5957 O   0  0  0  0  0  0  0  0  0  0  0  0
  2  3  1  0
  2  1  1  0
  3  5  1  0
  3  4  1  1
  5  7  1  0
  5  6  1  6
  7  8  2  0
 10  9  1  1
 10 11  1  0
 10 12  1  0
 12 14  1  0
 13  7  1  0
 12 13  1  1
 14 15  2  0
 17 16  1  6
 17 19  1  0
 18 17  1  0
 18 14  1  0
 19 20  2  0
 19 21  1  0
M  END
$$$$
