IVA.pdb
     RDKit          3D

 21 20  0  0  1  0  0  0  0  0999 V2000
   28.1451  -21.5171  -10.3903 C   0  0  0  0  0  0  0  0  0  0  0  0
   26.6535  -21.4581  -10.7749 C   0  0  0  0  0  0  0  0  0  0  0  0
   26.6379  -21.1029  -12.2331 C   0  0  2  0  0  0  0  0  0  0  0  0
   27.5059  -19.8945  -12.5074 C   0  0  0  0  0  0  0  0  0  0  0  0
   25.2617  -20.9579  -12.8340 C   0  0  2  0  0  0  0  0  0  0  0  0
   24.6243  -22.2703  -12.5975 N   0  0  0  0  0  0  0  0  0  0  0  0
   25.2408  -20.7280  -14.2830 C   0  0  0  0  0  0  0  0  0  0  0  0
   25.7614  -21.5953  -15.0635 O   0  0  0  0  0  0  0  0  0  0  0  0
   22.6078  -18.1257  -16.1695 C   0  0  0  0  0  0  0  0  0  0  0  0
   23.3606  -19.2096  -16.9170 C   0  0  1  0  0  0  0  0  0  0  0  0
   23.3499  -18.9520  -18.3901 C   0  0  0  0  0  0  0  0  0  0  0  0
   24.7606  -19.3896  -16.3671 C   0  0  2  0  0  0  0  0  0  0  0  0
   24.6777  -19.5967  -14.9366 N   0  0  0  0  0  0  0  0  0  0  0  0
   25.5092  -18.1367  -16.6702 C   0  0  0  0  0  0  0  0  0  0  0  0
   25.1364  -17.0501  -16.1833 O   0  0  0  0  0  0  0  0  0  0  0  0
   28.8835  -17.2663  -17.7936 C   0  0  0  0  0  0  0  0  0  0  0  0
   27.3998  -16.9696  -17.8512 C   0  0  2  0  0  0  0  0  0  0  0  0
   26.6394  -18.1547  -17.5031 N   0  0  0  0  0  0  0  0  0  0  0  0
   27.0026  -16.4323  -19.1773 C   0  0  0  0  0  0  0  0  0  0  0  0
   26.4760  -17.1151  -20.0703 O   0  0  0  0  0  0  0  0  0  0  0  0
   27.2336  -15.0880  -19.4339 O   0  0  0  0  0  0  0  0  0  0  0  0
  2  3  1  0
  2  1  1  0
  3  5  1  0
  3  4  1  1
  5  7  1  0
  5  6  1  6
  7  8  2  0
 10  9  1  1
 10 11  1  0
 10 12  1  0
 12 14  1  0
 13  7  1  0
 12 13  1  1
 14 15  2  0
 17 16  1  6
 17 19  1  0
 18 17  1  0
 18 14  1  0
 19 20  2  0
 19 21  1  0
M  END
$$$$
