IVA.pdb
     RDKit          3D

 21 20  0  0  1  0  0  0  0  0999 V2000
   11.5057  -15.9721  -13.3590 C   0  0  0  0  0  0  0  0  0  0  0  0
   12.7121  -16.0405  -14.3164 C   0  0  0  0  0  0  0  0  0  0  0  0
   13.6878  -15.0283  -13.7911 C   0  0  2  0  0  0  0  0  0  0  0  0
   13.0128  -13.6955  -13.5526 C   0  0  0  0  0  0  0  0  0  0  0  0
   14.9498  -14.8845  -14.6054 C   0  0  2  0  0  0  0  0  0  0  0  0
   15.6156  -16.1975  -14.4743 N   0  0  0  0  0  0  0  0  0  0  0  0
   15.8935  -13.8759  -14.1103 C   0  0  0  0  0  0  0  0  0  0  0  0
   16.5794  -14.1202  -13.0604 O   0  0  0  0  0  0  0  0  0  0  0  0
   18.7852   -9.9476  -14.8522 C   0  0  0  0  0  0  0  0  0  0  0  0
   17.9525  -11.1361  -15.2932 C   0  0  1  0  0  0  0  0  0  0  0  0
   18.8136  -12.2022  -15.8920 C   0  0  0  0  0  0  0  0  0  0  0  0
   17.0859  -11.6532  -14.1635 C   0  0  2  0  0  0  0  0  0  0  0  0
   16.1361  -12.6046  -14.7010 N   0  0  0  0  0  0  0  0  0  0  0  0
   16.3758  -10.4752  -13.5887 C   0  0  0  0  0  0  0  0  0  0  0  0
   15.6079   -9.7971  -14.3009 O   0  0  0  0  0  0  0  0  0  0  0  0
   16.0649   -8.9914  -10.1429 C   0  0  0  0  0  0  0  0  0  0  0  0
   15.9765   -8.9185  -11.6528 C   0  0  2  0  0  0  0  0  0  0  0  0
   16.5557  -10.1088  -12.2453 N   0  0  0  0  0  0  0  0  0  0  0  0
   16.6087   -7.6811  -12.1764 C   0  0  0  0  0  0  0  0  0  0  0  0
   17.7696   -7.6296  -12.6133 O   0  0  0  0  0  0  0  0  0  0  0  0
   15.8583   -6.5136  -12.1777 O   0  0  0  0  0  0  0  0  0  0  0  0
  2  3  1  0
  2  1  1  0
  3  5  1  0
  3  4  1  6
  5  7  1  0
  5  6  1  1
  7  8  2  0
 10  9  1  1
 10 11  1  0
 10 12  1  0
 12 14  1  0
 13  7  1  0
 12 13  1  6
 14 15  2  0
 17 16  1  1
 17 19  1  0
 18 17  1  0
 18 14  1  0
 19 20  2  0
 19 21  1  0
M  END
$$$$
