IVA.pdb
     RDKit          3D

 21 20  0  0  1  0  0  0  0  0999 V2000
   27.9003  -16.5740  -15.6816 C   0  0  0  0  0  0  0  0  0  0  0  0
   27.9922  -17.8382  -16.5591 C   0  0  0  0  0  0  0  0  0  0  0  0
   27.0823  -18.8368  -15.9051 C   0  0  2  0  0  0  0  0  0  0  0  0
   25.6848  -18.2784  -15.7494 C   0  0  0  0  0  0  0  0  0  0  0  0
   27.6050  -19.4187  -14.6151 C   0  0  2  0  0  0  0  0  0  0  0  0
   28.7949  -20.1940  -15.0246 N   0  0  0  0  0  0  0  0  0  0  0  0
   26.6950  -20.3551  -13.9457 C   0  0  0  0  0  0  0  0  0  0  0  0
   26.4305  -21.4763  -14.4983 O   0  0  0  0  0  0  0  0  0  0  0  0
   26.7050  -21.4906  -10.2179 C   0  0  0  0  0  0  0  0  0  0  0  0
   25.2986  -21.0788  -10.6087 C   0  0  1  0  0  0  0  0  0  0  0  0
   24.9306  -19.7691   -9.9876 C   0  0  0  0  0  0  0  0  0  0  0  0
   25.1203  -21.0808  -12.1131 C   0  0  2  0  0  0  0  0  0  0  0  0
   26.0520  -20.1380  -12.6953 N   0  0  0  0  0  0  0  0  0  0  0  0
   23.7157  -20.6604  -12.3830 C   0  0  0  0  0  0  0  0  0  0  0  0
   23.3566  -19.4882  -12.1513 O   0  0  0  0  0  0  0  0  0  0  0  0
   20.8394  -22.1647  -14.2403 C   0  0  0  0  0  0  0  0  0  0  0  0
   21.4028  -21.2174  -13.2020 C   0  0  2  0  0  0  0  0  0  0  0  0
   22.7771  -21.5682  -12.8990 N   0  0  0  0  0  0  0  0  0  0  0  0
   20.5614  -21.1869  -11.9788 C   0  0  0  0  0  0  0  0  0  0  0  0
   20.8390  -21.7964  -10.9335 O   0  0  0  0  0  0  0  0  0  0  0  0
   19.3964  -20.4331  -12.0051 O   0  0  0  0  0  0  0  0  0  0  0  0
  2  3  1  0
  2  1  1  0
  3  5  1  0
  3  4  1  1
  5  7  1  0
  5  6  1  6
  7  8  2  0
 10  9  1  6
 10 11  1  0
 10 12  1  0
 12 14  1  0
 13  7  1  0
 12 13  1  6
 14 15  2  0
 17 16  1  6
 17 19  1  0
 18 17  1  0
 18 14  1  0
 19 20  2  0
 19 21  1  0
M  END
$$$$
