IVA.pdb
     RDKit          3D

 21 20  0  0  1  0  0  0  0  0999 V2000
   19.0449   -9.7958  -14.2002 C   0  0  0  0  0  0  0  0  0  0  0  0
   18.6688  -10.1250  -12.7419 C   0  0  0  0  0  0  0  0  0  0  0  0
   17.6774   -9.0705  -12.3446 C   0  0  2  0  0  0  0  0  0  0  0  0
   18.2016   -7.6862  -12.6578 C   0  0  0  0  0  0  0  0  0  0  0  0
   17.1755   -9.1767  -10.9259 C   0  0  2  0  0  0  0  0  0  0  0  0
   16.5506  -10.5147  -10.8632 N   0  0  0  0  0  0  0  0  0  0  0  0
   16.1389   -8.2040  -10.5623 C   0  0  0  0  0  0  0  0  0  0  0  0
   15.0477   -8.1722  -11.2262 O   0  0  0  0  0  0  0  0  0  0  0  0
   13.8029   -5.2458   -7.4581 C   0  0  0  0  0  0  0  0  0  0  0  0
   14.6510   -6.4318   -7.8757 C   0  0  1  0  0  0  0  0  0  0  0  0
   13.8924   -7.7122   -7.7292 C   0  0  0  0  0  0  0  0  0  0  0  0
   15.2148   -6.2446   -9.2693 C   0  0  2  0  0  0  0  0  0  0  0  0
   16.2236   -7.2559   -9.5049 N   0  0  0  0  0  0  0  0  0  0  0  0
   15.8209   -4.8834   -9.3118 C   0  0  0  0  0  0  0  0  0  0  0  0
   16.7331   -4.5780   -8.5172 O   0  0  0  0  0  0  0  0  0  0  0  0
   15.3070   -1.8453  -11.4947 C   0  0  0  0  0  0  0  0  0  0  0  0
   15.9061   -2.5759  -10.3115 C   0  0  2  0  0  0  0  0  0  0  0  0
   15.3804   -3.9258  -10.2394 N   0  0  0  0  0  0  0  0  0  0  0  0
   15.6870   -1.8330   -9.0446 C   0  0  0  0  0  0  0  0  0  0  0  0
   14.7149   -2.0169   -8.2946 O   0  0  0  0  0  0  0  0  0  0  0  0
   16.6235   -0.8770   -8.6769 O   0  0  0  0  0  0  0  0  0  0  0  0
  2  3  1  0
  2  1  1  0
  3  5  1  0
  3  4  1  1
  5  7  1  0
  5  6  1  6
  7  8  2  0
 10  9  1  6
 10 11  1  0
 10 12  1  0
 12 14  1  0
 13  7  1  0
 12 13  1  1
 14 15  2  0
 17 16  1  6
 17 19  1  0
 18 17  1  0
 18 14  1  0
 19 20  2  0
 19 21  1  0
M  END
$$$$
