HDE.pdb
     RDKit          3D

 28 28  0  0  1  0  0  0  0  0999 V2000
   20.5133  -13.8833  -19.9546 N   0  0  0  0  0  0  0  0  0  0  0  0
   20.7338  -13.1959  -18.7144 C   0  0  1  0  0  0  0  0  0  0  0  0
   21.2241  -14.1801  -17.6664 C   0  0  0  0  0  0  0  0  0  0  0  0
   20.0886  -15.0773  -17.3235 C   0  0  0  0  0  0  0  0  0  0  0  0
   19.7651  -16.2637  -17.9705 C   0  0  0  0  0  0  0  0  0  0  0  0
   18.6786  -16.8005  -17.3886 N   0  0  0  0  0  0  0  0  0  0  0  0
   18.3051  -15.9896  -16.3936 C   0  0  0  0  0  0  0  0  0  0  0  0
   19.1611  -14.9361  -16.3485 N   0  0  0  0  0  0  0  0  0  0  0  0
   21.6939  -12.0303  -18.8510 C   0  0  0  0  0  0  0  0  0  0  0  0
   22.7489  -12.2427  -19.4264 O   0  0  0  0  0  0  0  0  0  0  0  0
   21.3493  -10.7712  -18.3246 N   0  0  0  0  0  0  0  0  0  0  0  0
   21.9928   -9.5219  -18.4068 C   0  0  1  0  0  0  0  0  0  0  0  0
   22.4269   -9.0503  -19.7957 C   0  0  0  0  0  0  0  0  0  0  0  0
   23.1552   -7.7671  -19.7879 C   0  0  0  0  0  0  0  0  0  0  0  0
   24.0698   -7.5179  -18.9663 O   0  0  0  0  0  0  0  0  0  0  0  0
   21.3443   -8.3976  -17.7162 C   0  0  0  0  0  0  0  0  0  0  0  0
   20.1976   -8.0091  -18.1162 O   0  0  0  0  0  0  0  0  0  0  0  0
   22.8603   -6.7477  -20.7162 O   0  0  0  0  0  0  0  0  0  0  0  0
   21.9024   -7.6997  -16.6225 N   0  0  0  0  0  0  0  0  0  0  0  0
   21.2317   -6.6335  -15.8929 C   0  0  1  0  0  0  0  0  0  0  0  0
   20.6935   -7.0713  -14.5884 C   0  0  0  0  0  0  0  0  0  0  0  0
   19.5921   -8.0375  -14.5261 C   0  0  0  0  0  0  0  0  0  0  0  0
   19.0252   -8.4066  -13.2330 C   0  0  0  0  0  0  0  0  0  0  0  0
   19.4539   -8.0644  -12.1092 O   0  0  0  0  0  0  0  0  0  0  0  0
   22.0155   -5.4127  -15.9261 C   0  0  0  0  0  0  0  0  0  0  0  0
   23.1522   -5.3782  -16.4751 O   0  0  0  0  0  0  0  0  0  0  0  0
   17.8787   -9.2300  -13.1677 O   0  0  0  0  0  0  0  0  0  0  0  0
   21.5436   -4.2393  -15.3547 O   0  0  0  0  0  0  0  0  0  0  0  0
  2  1  1  6
  2  9  1  0
  2  3  1  0
  3  4  1  0
  4  5  2  0
  5  6  1  0
  7  6  1  0
  8  4  1  0
  8  7  2  0
  9 11  1  0
 10  9  2  0
 11 12  1  0
 12 16  1  0
 13 14  1  0
 12 13  1  6
 14 18  1  0
 15 14  2  0
 16 17  2  0
 19 16  1  0
 19 20  1  0
 20 25  1  0
 20 21  1  1
 22 21  1  0
 23 24  2  0
 23 22  1  0
 25 26  2  0
 25 28  1  0
 27 23  1  0
M  END
$$$$
