HDE.pdb
     RDKit          3D

 28 28  0  0  1  0  0  0  0  0999 V2000
   15.2817  -12.1662  -15.1771 N   0  0  0  0  0  0  0  0  0  0  0  0
   16.0221  -11.4000  -16.1381 C   0  0  1  0  0  0  0  0  0  0  0  0
   15.0731  -10.8390  -17.1831 C   0  0  0  0  0  0  0  0  0  0  0  0
   14.4646  -11.9888  -17.9038 C   0  0  0  0  0  0  0  0  0  0  0  0
   14.7334  -12.3613  -19.2153 C   0  0  0  0  0  0  0  0  0  0  0  0
   13.9983  -13.4433  -19.5252 N   0  0  0  0  0  0  0  0  0  0  0  0
   13.2727  -13.7662  -18.4498 C   0  0  0  0  0  0  0  0  0  0  0  0
   13.5522  -12.8826  -17.4571 N   0  0  0  0  0  0  0  0  0  0  0  0
   16.8404  -10.2928  -15.5025 C   0  0  0  0  0  0  0  0  0  0  0  0
   16.2489   -9.5099  -14.7770 O   0  0  0  0  0  0  0  0  0  0  0  0
   18.2211  -10.2031  -15.7608 N   0  0  0  0  0  0  0  0  0  0  0  0
   19.1841   -9.2623  -15.3497 C   0  0  1  0  0  0  0  0  0  0  0  0
   20.6151   -9.7670  -15.1565 C   0  0  0  0  0  0  0  0  0  0  0  0
   21.5192   -8.7738  -14.5457 C   0  0  0  0  0  0  0  0  0  0  0  0
   22.7216   -9.0252  -14.2920 O   0  0  0  0  0  0  0  0  0  0  0  0
   19.2346   -7.9979  -16.0984 C   0  0  0  0  0  0  0  0  0  0  0  0
   19.4740   -8.0337  -17.3503 O   0  0  0  0  0  0  0  0  0  0  0  0
   21.0739   -7.4768  -14.2176 O   0  0  0  0  0  0  0  0  0  0  0  0
   19.0350   -6.7210  -15.5289 N   0  0  0  0  0  0  0  0  0  0  0  0
   19.0111   -5.4749  -16.2809 C   0  0  1  0  0  0  0  0  0  0  0  0
   17.9023   -4.5805  -15.8886 C   0  0  0  0  0  0  0  0  0  0  0  0
   17.7539   -3.2630  -16.5150 C   0  0  0  0  0  0  0  0  0  0  0  0
   16.6881   -2.3683  -16.0753 C   0  0  0  0  0  0  0  0  0  0  0  0
   15.8853   -2.5735  -15.1388 O   0  0  0  0  0  0  0  0  0  0  0  0
   20.3413   -4.9026  -16.3744 C   0  0  0  0  0  0  0  0  0  0  0  0
   20.5867   -3.9377  -17.1513 O   0  0  0  0  0  0  0  0  0  0  0  0
   16.4845   -1.1306  -16.7260 O   0  0  0  0  0  0  0  0  0  0  0  0
   21.3917   -5.3960  -15.6133 O   0  0  0  0  0  0  0  0  0  0  0  0
  2  1  1  1
  2  9  1  0
  2  3  1  0
  3  4  1  0
  4  5  2  0
  5  6  1  0
  7  6  1  0
  8  4  1  0
  8  7  2  0
  9 11  1  0
 10  9  2  0
 11 12  1  0
 12 16  1  0
 13 14  1  0
 12 13  1  6
 14 18  1  0
 15 14  2  0
 16 17  2  0
 19 16  1  0
 19 20  1  0
 20 25  1  0
 20 21  1  1
 22 21  1  0
 23 24  2  0
 23 22  1  0
 25 26  2  0
 25 28  1  0
 27 23  1  0
M  END
$$$$
