HDE.pdb
     RDKit          3D

 28 28  0  0  1  0  0  0  0  0999 V2000
   14.5989  -10.9338  -12.9718 N   0  0  0  0  0  0  0  0  0  0  0  0
   15.9194  -10.6715  -12.4753 C   0  0  1  0  0  0  0  0  0  0  0  0
   16.9465  -11.2934  -13.4057 C   0  0  0  0  0  0  0  0  0  0  0  0
   16.7059  -12.7608  -13.4275 C   0  0  0  0  0  0  0  0  0  0  0  0
   16.5262  -13.5724  -12.3139 C   0  0  0  0  0  0  0  0  0  0  0  0
   16.3367  -14.8401  -12.7190 N   0  0  0  0  0  0  0  0  0  0  0  0
   16.3914  -14.8549  -14.0547 C   0  0  0  0  0  0  0  0  0  0  0  0
   16.6166  -13.5895  -14.4933 N   0  0  0  0  0  0  0  0  0  0  0  0
   16.1917   -9.1923  -12.2824 C   0  0  0  0  0  0  0  0  0  0  0  0
   16.0249   -8.4651  -13.2481 O   0  0  0  0  0  0  0  0  0  0  0  0
   16.6172   -8.7142  -11.0287 N   0  0  0  0  0  0  0  0  0  0  0  0
   17.0100   -7.4294  -10.6088 C   0  0  1  0  0  0  0  0  0  0  0  0
   16.6794   -7.0342   -9.1686 C   0  0  0  0  0  0  0  0  0  0  0  0
   17.1224   -5.6738   -8.8080 C   0  0  0  0  0  0  0  0  0  0  0  0
   17.8788   -5.4491   -7.8329 O   0  0  0  0  0  0  0  0  0  0  0  0
   18.3989   -7.0378  -10.8907 C   0  0  0  0  0  0  0  0  0  0  0  0
   19.3437   -7.6451  -10.2872 O   0  0  0  0  0  0  0  0  0  0  0  0
   16.7177   -4.5466   -9.5520 O   0  0  0  0  0  0  0  0  0  0  0  0
   18.7768   -6.0213  -11.7955 N   0  0  0  0  0  0  0  0  0  0  0  0
   20.1512   -5.7011  -12.1523 C   0  0  1  0  0  0  0  0  0  0  0  0
   20.9434   -6.8877  -12.5365 C   0  0  0  0  0  0  0  0  0  0  0  0
   20.6808   -7.5774  -13.8037 C   0  0  0  0  0  0  0  0  0  0  0  0
   21.5472   -8.6738  -14.2242 C   0  0  0  0  0  0  0  0  0  0  0  0
   22.2586   -8.7059  -15.2522 O   0  0  0  0  0  0  0  0  0  0  0  0
   20.2018   -4.5425  -13.0245 C   0  0  0  0  0  0  0  0  0  0  0  0
   21.3007   -4.0037  -13.3357 O   0  0  0  0  0  0  0  0  0  0  0  0
   21.6413   -9.8466  -13.4417 O   0  0  0  0  0  0  0  0  0  0  0  0
   19.0435   -3.9847  -13.5474 O   0  0  0  0  0  0  0  0  0  0  0  0
  2  1  1  6
  2  9  1  0
  2  3  1  0
  3  4  1  0
  4  5  2  0
  5  6  1  0
  7  6  1  0
  8  4  1  0
  8  7  2  0
  9 11  1  0
 10  9  2  0
 11 12  1  0
 12 16  1  0
 13 14  1  0
 12 13  1  1
 14 18  1  0
 15 14  2  0
 16 17  2  0
 19 16  1  0
 19 20  1  0
 20 25  1  0
 20 21  1  6
 22 21  1  0
 23 24  2  0
 23 22  1  0
 25 26  2  0
 25 28  1  0
 27 23  1  0
M  END
$$$$
