HDE.pdb
     RDKit          3D

 28 28  0  0  1  0  0  0  0  0999 V2000
   20.0574  -10.2696  -17.3646 N   0  0  0  0  0  0  0  0  0  0  0  0
   20.9797  -10.5816  -16.3105 C   0  0  1  0  0  0  0  0  0  0  0  0
   22.2439  -11.1823  -16.9007 C   0  0  0  0  0  0  0  0  0  0  0  0
   21.8828  -12.4943  -17.5007 C   0  0  0  0  0  0  0  0  0  0  0  0
   20.6350  -13.1023  -17.4368 C   0  0  0  0  0  0  0  0  0  0  0  0
   20.6836  -14.2769  -18.0888 N   0  0  0  0  0  0  0  0  0  0  0  0
   21.9242  -14.4303  -18.5627 C   0  0  0  0  0  0  0  0  0  0  0  0
   22.6611  -13.3463  -18.2072 N   0  0  0  0  0  0  0  0  0  0  0  0
   21.3066   -9.3827  -15.4415 C   0  0  0  0  0  0  0  0  0  0  0  0
   22.0822   -9.5608  -14.5164 O   0  0  0  0  0  0  0  0  0  0  0  0
   20.7216   -8.1332  -15.7201 N   0  0  0  0  0  0  0  0  0  0  0  0
   20.8746   -6.8774  -15.1028 C   0  0  1  0  0  0  0  0  0  0  0  0
   22.2957   -6.4506  -14.7311 C   0  0  0  0  0  0  0  0  0  0  0  0
   22.3637   -5.1539  -14.0305 C   0  0  0  0  0  0  0  0  0  0  0  0
   21.7693   -4.9432  -12.9461 O   0  0  0  0  0  0  0  0  0  0  0  0
   20.2007   -5.7390  -15.7445 C   0  0  0  0  0  0  0  0  0  0  0  0
   20.6214   -5.3346  -16.8782 O   0  0  0  0  0  0  0  0  0  0  0  0
   23.1121   -4.0764  -14.5473 O   0  0  0  0  0  0  0  0  0  0  0  0
   19.1019   -5.0438  -15.1931 N   0  0  0  0  0  0  0  0  0  0  0  0
   18.3863   -3.9659  -15.8602 C   0  0  1  0  0  0  0  0  0  0  0  0
   16.9593   -4.2714  -16.0913 C   0  0  0  0  0  0  0  0  0  0  0  0
   16.1130   -4.7423  -14.9903 C   0  0  0  0  0  0  0  0  0  0  0  0
   14.6851   -4.9476  -15.2115 C   0  0  0  0  0  0  0  0  0  0  0  0
   14.1477   -5.9683  -15.6943 O   0  0  0  0  0  0  0  0  0  0  0  0
   18.7162   -2.6829  -15.2679 C   0  0  0  0  0  0  0  0  0  0  0  0
   19.4251   -2.6049  -14.2257 O   0  0  0  0  0  0  0  0  0  0  0  0
   13.7595   -3.9360  -14.8702 O   0  0  0  0  0  0  0  0  0  0  0  0
   18.2634   -1.4955  -15.8257 O   0  0  0  0  0  0  0  0  0  0  0  0
  2  1  1  6
  2  9  1  0
  2  3  1  0
  3  4  1  0
  4  5  2  0
  5  6  1  0
  7  6  1  0
  8  4  1  0
  8  7  2  0
  9 11  1  0
 10  9  2  0
 11 12  1  0
 12 16  1  0
 13 14  1  0
 12 13  1  6
 14 18  1  0
 15 14  2  0
 16 17  2  0
 19 16  1  0
 19 20  1  0
 20 25  1  0
 20 21  1  1
 22 21  1  0
 23 24  2  0
 23 22  1  0
 25 26  2  0
 25 28  1  0
 27 23  1  0
M  END
$$$$
