HDE.pdb
     RDKit          3D

 28 28  0  0  1  0  0  0  0  0999 V2000
   21.4412  -13.8826  -19.4049 N   0  0  0  0  0  0  0  0  0  0  0  0
   22.1322  -12.8174  -18.7362 C   0  0  1  0  0  0  0  0  0  0  0  0
   23.3616  -12.4253  -19.5375 C   0  0  0  0  0  0  0  0  0  0  0  0
   24.2402  -13.6216  -19.6305 C   0  0  0  0  0  0  0  0  0  0  0  0
   24.1802  -14.6006  -20.6149 C   0  0  0  0  0  0  0  0  0  0  0  0
   25.1249  -15.5261  -20.3736 N   0  0  0  0  0  0  0  0  0  0  0  0
   25.7803  -15.1623  -19.2666 C   0  0  0  0  0  0  0  0  0  0  0  0
   25.2453  -14.0013  -18.8080 N   0  0  0  0  0  0  0  0  0  0  0  0
   21.2478  -11.6125  -18.4806 C   0  0  0  0  0  0  0  0  0  0  0  0
   20.6435  -11.1528  -19.4360 O   0  0  0  0  0  0  0  0  0  0  0  0
   21.1522  -11.0741  -17.1836 N   0  0  0  0  0  0  0  0  0  0  0  0
   20.3903  -10.0052  -16.6751 C   0  0  1  0  0  0  0  0  0  0  0  0
   19.1252  -10.3602  -15.8919 C   0  0  0  0  0  0  0  0  0  0  0  0
   18.1829  -11.2150  -16.6390 C   0  0  0  0  0  0  0  0  0  0  0  0
   17.7176  -10.8863  -17.7566 O   0  0  0  0  0  0  0  0  0  0  0  0
   21.1206   -8.9676  -15.9323 C   0  0  0  0  0  0  0  0  0  0  0  0
   21.9905   -9.3248  -15.0713 O   0  0  0  0  0  0  0  0  0  0  0  0
   17.7573  -12.4598  -16.1316 O   0  0  0  0  0  0  0  0  0  0  0  0
   20.9307   -7.5782  -16.1005 N   0  0  0  0  0  0  0  0  0  0  0  0
   21.5489   -6.5530  -15.2725 C   0  0  1  0  0  0  0  0  0  0  0  0
   21.6061   -5.2312  -15.9301 C   0  0  0  0  0  0  0  0  0  0  0  0
   22.0466   -4.0486  -15.1832 C   0  0  0  0  0  0  0  0  0  0  0  0
   21.9978   -2.7338  -15.8147 C   0  0  0  0  0  0  0  0  0  0  0  0
   21.7247   -2.4944  -17.0112 O   0  0  0  0  0  0  0  0  0  0  0  0
   21.0422   -6.6115  -13.9139 C   0  0  0  0  0  0  0  0  0  0  0  0
   21.8211   -6.5634  -12.9211 O   0  0  0  0  0  0  0  0  0  0  0  0
   22.2755   -1.5716  -15.0605 O   0  0  0  0  0  0  0  0  0  0  0  0
   19.6828   -6.7230  -13.6575 O   0  0  0  0  0  0  0  0  0  0  0  0
  2  1  1  6
  2  9  1  0
  2  3  1  0
  3  4  1  0
  4  5  2  0
  5  6  1  0
  7  6  1  0
  8  4  1  0
  8  7  2  0
  9 11  1  0
 10  9  2  0
 11 12  1  0
 12 16  1  0
 13 14  1  0
 12 13  1  1
 14 18  1  0
 15 14  2  0
 16 17  2  0
 19 16  1  0
 19 20  1  0
 20 25  1  0
 20 21  1  6
 22 21  1  0
 23 24  2  0
 23 22  1  0
 25 26  2  0
 25 28  1  0
 27 23  1  0
M  END
$$$$
