HDE.pdb
     RDKit          3D

 28 28  0  0  1  0  0  0  0  0999 V2000
   21.9568  -10.2132    7.0695 N   0  0  0  0  0  0  0  0  0  0  0  0
   22.7340   -9.7380    8.1783 C   0  0  1  0  0  0  0  0  0  0  0  0
   23.6192  -10.8580    8.6973 C   0  0  0  0  0  0  0  0  0  0  0  0
   22.7314  -11.9205    9.2400 C   0  0  0  0  0  0  0  0  0  0  0  0
   21.8852  -11.7930   10.3349 C   0  0  0  0  0  0  0  0  0  0  0  0
   21.2421  -12.9568   10.5323 N   0  0  0  0  0  0  0  0  0  0  0  0
   21.6559  -13.8164    9.5958 C   0  0  0  0  0  0  0  0  0  0  0  0
   22.5648  -13.1906    8.8042 N   0  0  0  0  0  0  0  0  0  0  0  0
   23.5590   -8.5128    7.8356 C   0  0  0  0  0  0  0  0  0  0  0  0
   24.4180   -8.6421    6.9784 O   0  0  0  0  0  0  0  0  0  0  0  0
   23.3164   -7.2950    8.4982 N   0  0  0  0  0  0  0  0  0  0  0  0
   23.9545   -6.0436    8.4057 C   0  0  1  0  0  0  0  0  0  0  0  0
   23.0874   -4.8008    8.6138 C   0  0  0  0  0  0  0  0  0  0  0  0
   23.8255   -3.5305    8.4776 C   0  0  0  0  0  0  0  0  0  0  0  0
   24.8866   -3.4369    7.8153 O   0  0  0  0  0  0  0  0  0  0  0  0
   25.1971   -5.8770    9.1738 C   0  0  0  0  0  0  0  0  0  0  0  0
   25.1942   -6.1599   10.4170 O   0  0  0  0  0  0  0  0  0  0  0  0
   23.3679   -2.3443    9.0872 O   0  0  0  0  0  0  0  0  0  0  0  0
   26.4183   -5.4188    8.6323 N   0  0  0  0  0  0  0  0  0  0  0  0
   27.6473   -5.2466    9.3932 C   0  0  1  0  0  0  0  0  0  0  0  0
   28.2971   -6.5261    9.7449 C   0  0  0  0  0  0  0  0  0  0  0  0
   29.1174   -7.2378    8.7595 C   0  0  0  0  0  0  0  0  0  0  0  0
   29.8400   -8.4428    9.1540 C   0  0  0  0  0  0  0  0  0  0  0  0
   29.9109   -8.9224   10.3067 O   0  0  0  0  0  0  0  0  0  0  0  0
   28.4737   -4.2057    8.8108 C   0  0  0  0  0  0  0  0  0  0  0  0
   28.1988   -3.7032    7.6853 O   0  0  0  0  0  0  0  0  0  0  0  0
   30.5527   -9.1923    8.1912 O   0  0  0  0  0  0  0  0  0  0  0  0
   29.5966   -3.7257    9.4702 O   0  0  0  0  0  0  0  0  0  0  0  0
  2  1  1  6
  2  9  1  0
  2  3  1  0
  3  4  1  0
  4  5  2  0
  5  6  1  0
  7  6  1  0
  8  4  1  0
  8  7  2  0
  9 11  1  0
 10  9  2  0
 11 12  1  0
 12 16  1  0
 13 14  1  0
 12 13  1  1
 14 18  1  0
 15 14  2  0
 16 17  2  0
 19 16  1  0
 19 20  1  0
 20 25  1  0
 20 21  1  6
 22 21  1  0
 23 24  2  0
 23 22  1  0
 25 26  2  0
 25 28  1  0
 27 23  1  0
M  END
$$$$
