HDE.pdb
     RDKit          3D

 28 28  0  0  1  0  0  0  0  0999 V2000
   18.6945  -11.9296  -15.1507 N   0  0  0  0  0  0  0  0  0  0  0  0
   18.8710  -11.4356  -16.4863 C   0  0  1  0  0  0  0  0  0  0  0  0
   18.2023  -12.3792  -17.4712 C   0  0  0  0  0  0  0  0  0  0  0  0
   18.8651  -13.7048  -17.3474 C   0  0  0  0  0  0  0  0  0  0  0  0
   18.7735  -14.5615  -16.2572 C   0  0  0  0  0  0  0  0  0  0  0  0
   19.5050  -15.6629  -16.5001 N   0  0  0  0  0  0  0  0  0  0  0  0
   20.0566  -15.5286  -17.7104 C   0  0  0  0  0  0  0  0  0  0  0  0
   19.6704  -14.3360  -18.2328 N   0  0  0  0  0  0  0  0  0  0  0  0
   18.3576  -10.0197  -16.6620 C   0  0  0  0  0  0  0  0  0  0  0  0
   18.5397   -9.4922  -17.7472 O   0  0  0  0  0  0  0  0  0  0  0  0
   17.7033   -9.3728  -15.5968 N   0  0  0  0  0  0  0  0  0  0  0  0
   17.1551   -8.0806  -15.4905 C   0  0  1  0  0  0  0  0  0  0  0  0
   15.8223   -7.9463  -14.7520 C   0  0  0  0  0  0  0  0  0  0  0  0
   14.7302   -8.7414  -15.3455 C   0  0  0  0  0  0  0  0  0  0  0  0
   14.6345   -9.9813  -15.1805 O   0  0  0  0  0  0  0  0  0  0  0  0
   18.0554   -7.0172  -15.0210 C   0  0  0  0  0  0  0  0  0  0  0  0
   19.0858   -7.3389  -14.3424 O   0  0  0  0  0  0  0  0  0  0  0  0
   13.7259   -8.1409  -16.1320 O   0  0  0  0  0  0  0  0  0  0  0  0
   17.8650   -5.6396  -15.2673 N   0  0  0  0  0  0  0  0  0  0  0  0
   18.8732   -4.6132  -15.0462 C   0  0  1  0  0  0  0  0  0  0  0  0
   20.2289   -5.0318  -15.4586 C   0  0  0  0  0  0  0  0  0  0  0  0
   21.3640   -4.1140  -15.3190 C   0  0  0  0  0  0  0  0  0  0  0  0
   22.6806   -4.5115  -15.8073 C   0  0  0  0  0  0  0  0  0  0  0  0
   22.9730   -4.8277  -16.9812 O   0  0  0  0  0  0  0  0  0  0  0  0
   18.3988   -3.3179  -15.4966 C   0  0  0  0  0  0  0  0  0  0  0  0
   17.5382   -3.2181  -16.4153 O   0  0  0  0  0  0  0  0  0  0  0  0
   23.7807   -4.5672  -14.9221 O   0  0  0  0  0  0  0  0  0  0  0  0
   18.8750   -2.1420  -14.9337 O   0  0  0  0  0  0  0  0  0  0  0  0
  2  1  1  1
  2  9  1  0
  2  3  1  0
  3  4  1  0
  4  5  2  0
  5  6  1  0
  7  6  1  0
  8  4  1  0
  8  7  2  0
  9 11  1  0
 10  9  2  0
 11 12  1  0
 12 16  1  0
 13 14  1  0
 12 13  1  1
 14 18  1  0
 15 14  2  0
 16 17  2  0
 19 16  1  0
 19 20  1  0
 20 25  1  0
 20 21  1  6
 22 21  1  0
 23 24  2  0
 23 22  1  0
 25 26  2  0
 25 28  1  0
 27 23  1  0
M  END
$$$$
