HDE.pdb
     RDKit          3D

 28 28  0  0  1  0  0  0  0  0999 V2000
   18.6708  -11.6771  -15.4842 N   0  0  0  0  0  0  0  0  0  0  0  0
   17.5667  -10.9245  -14.9612 C   0  0  1  0  0  0  0  0  0  0  0  0
   16.5857  -11.8643  -14.2817 C   0  0  0  0  0  0  0  0  0  0  0  0
   16.0202  -12.7590  -15.3265 C   0  0  0  0  0  0  0  0  0  0  0  0
   14.7412  -12.6761  -15.8633 C   0  0  0  0  0  0  0  0  0  0  0  0
   14.5837  -13.6485  -16.7780 N   0  0  0  0  0  0  0  0  0  0  0  0
   15.7239  -14.3440  -16.8358 C   0  0  0  0  0  0  0  0  0  0  0  0
   16.6045  -13.8066  -15.9525 N   0  0  0  0  0  0  0  0  0  0  0  0
   18.0022   -9.8227  -14.0148 C   0  0  0  0  0  0  0  0  0  0  0  0
   18.5093  -10.1642  -12.9587 O   0  0  0  0  0  0  0  0  0  0  0  0
   17.8139   -8.4744  -14.3726 N   0  0  0  0  0  0  0  0  0  0  0  0
   18.1153   -7.2810  -13.6897 C   0  0  1  0  0  0  0  0  0  0  0  0
   18.6965   -6.1319  -14.5152 C   0  0  0  0  0  0  0  0  0  0  0  0
   19.9288   -6.4870  -15.2448 C   0  0  0  0  0  0  0  0  0  0  0  0
   20.9102   -7.0300  -14.6830 O   0  0  0  0  0  0  0  0  0  0  0  0
   17.0674   -6.7389  -12.8122 C   0  0  0  0  0  0  0  0  0  0  0  0
   15.8545   -6.7833  -13.2029 O   0  0  0  0  0  0  0  0  0  0  0  0
   20.0649   -6.2361  -16.6255 O   0  0  0  0  0  0  0  0  0  0  0  0
   17.3030   -6.1610  -11.5453 N   0  0  0  0  0  0  0  0  0  0  0  0
   16.2597   -5.7372  -10.6229 C   0  0  1  0  0  0  0  0  0  0  0  0
   15.2304   -6.7723  -10.3944 C   0  0  0  0  0  0  0  0  0  0  0  0
   15.5816   -8.0371   -9.7407 C   0  0  0  0  0  0  0  0  0  0  0  0
   14.5363   -9.0086   -9.4348 C   0  0  0  0  0  0  0  0  0  0  0  0
   14.6993  -10.1395   -8.9268 O   0  0  0  0  0  0  0  0  0  0  0  0
   16.8322   -5.0841   -9.4604 C   0  0  0  0  0  0  0  0  0  0  0  0
   18.0816   -5.0416   -9.2813 O   0  0  0  0  0  0  0  0  0  0  0  0
   13.1837   -8.7097   -9.7134 O   0  0  0  0  0  0  0  0  0  0  0  0
   16.0265   -4.4833   -8.5033 O   0  0  0  0  0  0  0  0  0  0  0  0
  2  1  1  1
  2  9  1  0
  2  3  1  0
  3  4  1  0
  4  5  2  0
  5  6  1  0
  7  6  1  0
  8  4  1  0
  8  7  2  0
  9 11  1  0
 10  9  2  0
 11 12  1  0
 12 16  1  0
 13 14  1  0
 12 13  1  6
 14 18  1  0
 15 14  2  0
 16 17  2  0
 19 16  1  0
 19 20  1  0
 20 25  1  0
 20 21  1  1
 22 21  1  0
 23 24  2  0
 23 22  1  0
 25 26  2  0
 25 28  1  0
 27 23  1  0
M  END
$$$$
