HDE.pdb
     RDKit          3D

 28 28  0  0  1  0  0  0  0  0999 V2000
   20.0045  -11.4004  -16.2505 N   0  0  0  0  0  0  0  0  0  0  0  0
   19.0721  -10.5593  -15.5560 C   0  0  1  0  0  0  0  0  0  0  0  0
   18.2621  -11.3944  -14.5793 C   0  0  0  0  0  0  0  0  0  0  0  0
   17.4777  -12.3797  -15.3702 C   0  0  0  0  0  0  0  0  0  0  0  0
   17.2072  -12.3001  -16.7309 C   0  0  0  0  0  0  0  0  0  0  0  0
   16.4717  -13.3642  -17.0966 N   0  0  0  0  0  0  0  0  0  0  0  0
   16.2687  -14.1142  -16.0087 C   0  0  0  0  0  0  0  0  0  0  0  0
   16.8796  -13.5190  -14.9519 N   0  0  0  0  0  0  0  0  0  0  0  0
   19.7426   -9.3988  -14.8468 C   0  0  0  0  0  0  0  0  0  0  0  0
   20.3789   -9.6558  -13.8377 O   0  0  0  0  0  0  0  0  0  0  0  0
   19.6152   -8.0942  -15.3597 N   0  0  0  0  0  0  0  0  0  0  0  0
   20.1915   -6.8758  -14.9537 C   0  0  1  0  0  0  0  0  0  0  0  0
   21.7019   -6.8642  -14.7121 C   0  0  0  0  0  0  0  0  0  0  0  0
   22.2239   -5.5568  -14.2704 C   0  0  0  0  0  0  0  0  0  0  0  0
   21.6941   -4.8997  -13.3424 O   0  0  0  0  0  0  0  0  0  0  0  0
   19.8373   -5.6835  -15.7377 C   0  0  0  0  0  0  0  0  0  0  0  0
   20.1989   -5.6206  -16.9587 O   0  0  0  0  0  0  0  0  0  0  0  0
   23.3593   -4.9762  -14.8719 O   0  0  0  0  0  0  0  0  0  0  0  0
   19.1135   -4.5798  -15.2348 N   0  0  0  0  0  0  0  0  0  0  0  0
   18.6697   -3.4481  -16.0354 C   0  0  1  0  0  0  0  0  0  0  0  0
   17.3020   -3.0003  -15.7009 C   0  0  0  0  0  0  0  0  0  0  0  0
   16.2387   -3.9802  -15.4570 C   0  0  0  0  0  0  0  0  0  0  0  0
   15.0347   -3.5779  -14.7369 C   0  0  0  0  0  0  0  0  0  0  0  0
   13.9278   -3.2908  -15.2428 O   0  0  0  0  0  0  0  0  0  0  0  0
   19.7090   -2.4393  -16.1245 C   0  0  0  0  0  0  0  0  0  0  0  0
   20.7839   -2.5459  -15.4702 O   0  0  0  0  0  0  0  0  0  0  0  0
   15.0476   -3.4815  -13.3272 O   0  0  0  0  0  0  0  0  0  0  0  0
   19.5582   -1.3206  -16.9320 O   0  0  0  0  0  0  0  0  0  0  0  0
  2  1  1  1
  2  9  1  0
  2  3  1  0
  3  4  1  0
  4  5  2  0
  5  6  1  0
  7  6  1  0
  8  4  1  0
  8  7  2  0
  9 11  1  0
 10  9  2  0
 11 12  1  0
 12 16  1  0
 13 14  1  0
 12 13  1  6
 14 18  1  0
 15 14  2  0
 16 17  2  0
 19 16  1  0
 19 20  1  0
 20 25  1  0
 20 21  1  1
 22 21  1  0
 23 24  2  0
 23 22  1  0
 25 26  2  0
 25 28  1  0
 27 23  1  0
M  END
$$$$
