HDE.pdb
     RDKit          3D

 28 28  0  0  1  0  0  0  0  0999 V2000
   19.2972  -11.7832  -17.4295 N   0  0  0  0  0  0  0  0  0  0  0  0
   19.7242  -10.5167  -17.9519 C   0  0  1  0  0  0  0  0  0  0  0  0
   18.7419  -10.0446  -19.0099 C   0  0  0  0  0  0  0  0  0  0  0  0
   18.7072  -11.0723  -20.0843 C   0  0  0  0  0  0  0  0  0  0  0  0
   19.7084  -11.3064  -21.0190 C   0  0  0  0  0  0  0  0  0  0  0  0
   19.3271  -12.3071  -21.8315 N   0  0  0  0  0  0  0  0  0  0  0  0
   18.1151  -12.7128  -21.4393 C   0  0  0  0  0  0  0  0  0  0  0  0
   17.7309  -11.9633  -20.3739 N   0  0  0  0  0  0  0  0  0  0  0  0
   19.9020   -9.4658  -16.8733 C   0  0  0  0  0  0  0  0  0  0  0  0
   18.9595   -9.2742  -16.1221 O   0  0  0  0  0  0  0  0  0  0  0  0
   21.1164   -8.7613  -16.7727 N   0  0  0  0  0  0  0  0  0  0  0  0
   21.5037   -7.6909  -15.9446 C   0  0  1  0  0  0  0  0  0  0  0  0
   22.8029   -7.8545  -15.1539 C   0  0  0  0  0  0  0  0  0  0  0  0
   22.7831   -8.9830  -14.2037 C   0  0  0  0  0  0  0  0  0  0  0  0
   21.7921   -9.2324  -13.4761 O   0  0  0  0  0  0  0  0  0  0  0  0
   21.4935   -6.3505  -16.5490 C   0  0  0  0  0  0  0  0  0  0  0  0
   21.9538   -6.2045  -17.7290 O   0  0  0  0  0  0  0  0  0  0  0  0
   23.8866   -9.8501  -14.0675 O   0  0  0  0  0  0  0  0  0  0  0  0
   21.0043   -5.1884  -15.9126 N   0  0  0  0  0  0  0  0  0  0  0  0
   20.5359   -3.9993  -16.6094 C   0  0  1  0  0  0  0  0  0  0  0  0
   19.7087   -4.3079  -17.7941 C   0  0  0  0  0  0  0  0  0  0  0  0
   19.0372   -3.2328  -18.5314 C   0  0  0  0  0  0  0  0  0  0  0  0
   18.9006   -3.3250  -19.9815 C   0  0  0  0  0  0  0  0  0  0  0  0
   19.2638   -4.2801  -20.7023 O   0  0  0  0  0  0  0  0  0  0  0  0
   20.0314   -3.0153  -15.6697 C   0  0  0  0  0  0  0  0  0  0  0  0
   19.3737   -3.3608  -14.6486 O   0  0  0  0  0  0  0  0  0  0  0  0
   18.3092   -2.2679  -20.7091 O   0  0  0  0  0  0  0  0  0  0  0  0
   20.2536   -1.6586  -15.8604 O   0  0  0  0  0  0  0  0  0  0  0  0
  2  1  1  1
  2  9  1  0
  2  3  1  0
  3  4  1  0
  4  5  2  0
  5  6  1  0
  7  6  1  0
  8  4  1  0
  8  7  2  0
  9 11  1  0
 10  9  2  0
 11 12  1  0
 12 16  1  0
 13 14  1  0
 12 13  1  6
 14 18  1  0
 15 14  2  0
 16 17  2  0
 19 16  1  0
 19 20  1  0
 20 25  1  0
 20 21  1  6
 22 21  1  0
 23 24  2  0
 23 22  1  0
 25 26  2  0
 25 28  1  0
 27 23  1  0
M  END
$$$$
