HDE.pdb
     RDKit          3D

 28 28  0  0  1  0  0  0  0  0999 V2000
   18.7439  -15.3613  -17.6854 N   0  0  0  0  0  0  0  0  0  0  0  0
   19.8627  -14.5388  -17.3236 C   0  0  1  0  0  0  0  0  0  0  0  0
   21.0685  -15.4166  -17.0357 C   0  0  0  0  0  0  0  0  0  0  0  0
   20.6555  -16.4372  -16.0359 C   0  0  0  0  0  0  0  0  0  0  0  0
   19.8219  -16.2178  -14.9460 C   0  0  0  0  0  0  0  0  0  0  0  0
   19.6748  -17.3678  -14.2656 N   0  0  0  0  0  0  0  0  0  0  0  0
   20.3901  -18.3076  -14.8918 C   0  0  0  0  0  0  0  0  0  0  0  0
   20.9912  -17.7465  -15.9727 N   0  0  0  0  0  0  0  0  0  0  0  0
   20.1919  -13.4981  -18.3761 C   0  0  0  0  0  0  0  0  0  0  0  0
   20.5900  -13.9048  -19.4556 O   0  0  0  0  0  0  0  0  0  0  0  0
   20.0326  -12.1302  -18.0851 N   0  0  0  0  0  0  0  0  0  0  0  0
   20.2219  -10.9832  -18.8788 C   0  0  1  0  0  0  0  0  0  0  0  0
   19.4722  -10.9244  -20.2108 C   0  0  0  0  0  0  0  0  0  0  0  0
   19.8330   -9.7630  -21.0462 C   0  0  0  0  0  0  0  0  0  0  0  0
   20.6380   -8.8815  -20.6608 O   0  0  0  0  0  0  0  0  0  0  0  0
   20.0777   -9.6833  -18.2069 C   0  0  0  0  0  0  0  0  0  0  0  0
   19.0245   -9.4572  -17.5247 O   0  0  0  0  0  0  0  0  0  0  0  0
   19.2896   -9.5861  -22.3351 O   0  0  0  0  0  0  0  0  0  0  0  0
   21.0330   -8.6444  -18.2587 N   0  0  0  0  0  0  0  0  0  0  0  0
   20.9560   -7.4114  -17.4888 C   0  0  1  0  0  0  0  0  0  0  0  0
   20.6929   -7.6384  -16.0527 C   0  0  0  0  0  0  0  0  0  0  0  0
   21.7629   -8.1082  -15.1669 C   0  0  0  0  0  0  0  0  0  0  0  0
   21.4771   -8.3641  -13.7589 C   0  0  0  0  0  0  0  0  0  0  0  0
   21.3649   -7.5063  -12.8560 O   0  0  0  0  0  0  0  0  0  0  0  0
   22.0379   -6.5121  -17.8445 C   0  0  0  0  0  0  0  0  0  0  0  0
   22.1280   -5.3607  -17.3337 O   0  0  0  0  0  0  0  0  0  0  0  0
   21.2975   -9.6880  -13.2985 O   0  0  0  0  0  0  0  0  0  0  0  0
   23.0122   -6.8856  -18.7596 O   0  0  0  0  0  0  0  0  0  0  0  0
  2  1  1  6
  2  9  1  0
  2  3  1  0
  3  4  1  0
  4  5  2  0
  5  6  1  0
  7  6  1  0
  8  4  1  0
  8  7  2  0
  9 11  1  0
 10  9  2  0
 11 12  1  0
 12 16  1  0
 13 14  1  0
 12 13  1  6
 14 18  1  0
 15 14  2  0
 16 17  2  0
 19 16  1  0
 19 20  1  0
 20 25  1  0
 20 21  1  1
 22 21  1  0
 23 24  2  0
 23 22  1  0
 25 26  2  0
 25 28  1  0
 27 23  1  0
M  END
$$$$
