HDE.pdb
     RDKit          3D

 28 28  0  0  1  0  0  0  0  0999 V2000
   19.0895  -14.7246  -18.9361 N   0  0  0  0  0  0  0  0  0  0  0  0
   19.4805  -13.7447  -17.9634 C   0  0  1  0  0  0  0  0  0  0  0  0
   20.4074  -14.3817  -16.9425 C   0  0  0  0  0  0  0  0  0  0  0  0
   19.6331  -15.4251  -16.2189 C   0  0  0  0  0  0  0  0  0  0  0  0
   19.6554  -16.7882  -16.4884 C   0  0  0  0  0  0  0  0  0  0  0  0
   18.8303  -17.4193  -15.6352 N   0  0  0  0  0  0  0  0  0  0  0  0
   18.2868  -16.4969  -14.8345 C   0  0  0  0  0  0  0  0  0  0  0  0
   18.7721  -15.2780  -15.1855 N   0  0  0  0  0  0  0  0  0  0  0  0
   20.1238  -12.5215  -18.5871 C   0  0  0  0  0  0  0  0  0  0  0  0
   20.8762  -12.7078  -19.5297 O   0  0  0  0  0  0  0  0  0  0  0  0
   19.8418  -11.2413  -18.0746 N   0  0  0  0  0  0  0  0  0  0  0  0
   20.2020   -9.9585  -18.5287 C   0  0  1  0  0  0  0  0  0  0  0  0
   19.9909   -9.6588  -20.0137 C   0  0  0  0  0  0  0  0  0  0  0  0
   20.4714   -8.3262  -20.4262 C   0  0  0  0  0  0  0  0  0  0  0  0
   19.6893   -7.3902  -20.7192 O   0  0  0  0  0  0  0  0  0  0  0  0
   19.7021   -8.8167  -17.7488 C   0  0  0  0  0  0  0  0  0  0  0  0
   18.4557   -8.7479  -17.4892 O   0  0  0  0  0  0  0  0  0  0  0  0
   21.8481   -8.0328  -20.5077 O   0  0  0  0  0  0  0  0  0  0  0  0
   20.5099   -7.7689  -17.2546 N   0  0  0  0  0  0  0  0  0  0  0  0
   20.1330   -6.8763  -16.1682 C   0  0  1  0  0  0  0  0  0  0  0  0
   21.2710   -6.4988  -15.3048 C   0  0  0  0  0  0  0  0  0  0  0  0
   21.0757   -5.5806  -14.1782 C   0  0  0  0  0  0  0  0  0  0  0  0
   22.2229   -5.1590  -13.3807 C   0  0  0  0  0  0  0  0  0  0  0  0
   22.6650   -5.7262  -12.3577 O   0  0  0  0  0  0  0  0  0  0  0  0
   19.2669   -5.8156  -16.6482 C   0  0  0  0  0  0  0  0  0  0  0  0
   19.3908   -5.3450  -17.8135 O   0  0  0  0  0  0  0  0  0  0  0  0
   22.9540   -4.0046  -13.7407 O   0  0  0  0  0  0  0  0  0  0  0  0
   18.2714   -5.2800  -15.8430 O   0  0  0  0  0  0  0  0  0  0  0  0
  2  1  1  6
  2  9  1  0
  2  3  1  0
  3  4  1  0
  4  5  2  0
  5  6  1  0
  7  6  1  0
  8  4  1  0
  8  7  2  0
  9 11  1  0
 10  9  2  0
 11 12  1  0
 12 16  1  0
 13 14  1  0
 12 13  1  6
 14 18  1  0
 15 14  2  0
 16 17  2  0
 19 16  1  0
 19 20  1  0
 20 25  1  0
 20 21  1  6
 22 21  1  0
 23 24  2  0
 23 22  1  0
 25 26  2  0
 25 28  1  0
 27 23  1  0
M  END
$$$$
