HDE.pdb
     RDKit          3D

 28 28  0  0  1  0  0  0  0  0999 V2000
   19.7793  -13.5745  -17.0572 N   0  0  0  0  0  0  0  0  0  0  0  0
   18.9693  -12.3902  -17.0770 C   0  0  1  0  0  0  0  0  0  0  0  0
   17.5416  -12.7429  -16.6967 C   0  0  0  0  0  0  0  0  0  0  0  0
   17.0410  -13.7309  -17.6891 C   0  0  0  0  0  0  0  0  0  0  0  0
   17.6962  -14.1204  -18.8510 C   0  0  0  0  0  0  0  0  0  0  0  0
   16.9429  -15.0259  -19.4989 N   0  0  0  0  0  0  0  0  0  0  0  0
   15.8312  -15.2207  -18.7822 C   0  0  0  0  0  0  0  0  0  0  0  0
   15.8847  -14.4335  -17.6769 N   0  0  0  0  0  0  0  0  0  0  0  0
   19.5107  -11.2926  -16.1818 C   0  0  0  0  0  0  0  0  0  0  0  0
   19.8632  -11.6138  -15.0584 O   0  0  0  0  0  0  0  0  0  0  0  0
   19.5891   -9.9711  -16.6598 N   0  0  0  0  0  0  0  0  0  0  0  0
   20.0697   -8.7925  -16.0587 C   0  0  1  0  0  0  0  0  0  0  0  0
   21.4417   -8.8614  -15.3859 C   0  0  0  0  0  0  0  0  0  0  0  0
   21.3790   -8.9626  -13.9152 C   0  0  0  0  0  0  0  0  0  0  0  0
   20.3356   -8.7070  -13.2674 O   0  0  0  0  0  0  0  0  0  0  0  0
   20.0103   -7.5662  -16.8678 C   0  0  0  0  0  0  0  0  0  0  0  0
   20.5590   -7.5616  -18.0187 O   0  0  0  0  0  0  0  0  0  0  0  0
   22.4986   -9.3607  -13.1563 O   0  0  0  0  0  0  0  0  0  0  0  0
   19.3808   -6.3687  -16.4625 N   0  0  0  0  0  0  0  0  0  0  0  0
   19.3325   -5.1500  -17.2572 C   0  0  1  0  0  0  0  0  0  0  0  0
   18.2081   -4.2632  -16.8935 C   0  0  0  0  0  0  0  0  0  0  0  0
   16.8459   -4.7961  -16.7890 C   0  0  0  0  0  0  0  0  0  0  0  0
   15.7625   -3.9298  -16.3354 C   0  0  0  0  0  0  0  0  0  0  0  0
   15.6060   -3.4797  -15.1793 O   0  0  0  0  0  0  0  0  0  0  0  0
   20.6517   -4.5569  -17.3736 C   0  0  0  0  0  0  0  0  0  0  0  0
   21.5785   -4.8565  -16.5699 O   0  0  0  0  0  0  0  0  0  0  0  0
   14.7550   -3.5190  -17.2371 O   0  0  0  0  0  0  0  0  0  0  0  0
   20.9416   -3.6381  -18.3727 O   0  0  0  0  0  0  0  0  0  0  0  0
  2  1  1  1
  2  9  1  0
  2  3  1  0
  3  4  1  0
  4  5  2  0
  5  6  1  0
  7  6  1  0
  8  4  1  0
  8  7  2  0
  9 11  1  0
 10  9  2  0
 11 12  1  0
 12 16  1  0
 13 14  1  0
 12 13  1  6
 14 18  1  0
 15 14  2  0
 16 17  2  0
 19 16  1  0
 19 20  1  0
 20 25  1  0
 20 21  1  1
 22 21  1  0
 23 24  2  0
 23 22  1  0
 25 26  2  0
 25 28  1  0
 27 23  1  0
M  END
$$$$
