HDE.pdb
     RDKit          3D

 28 28  0  0  1  0  0  0  0  0999 V2000
   18.8658  -12.0378  -15.3527 N   0  0  0  0  0  0  0  0  0  0  0  0
   19.0919  -11.5194  -16.6715 C   0  0  1  0  0  0  0  0  0  0  0  0
   18.2984  -12.3309  -17.6810 C   0  0  0  0  0  0  0  0  0  0  0  0
   18.7984  -13.7305  -17.6283 C   0  0  0  0  0  0  0  0  0  0  0  0
   19.9138  -14.1700  -16.9257 C   0  0  0  0  0  0  0  0  0  0  0  0
   20.0590  -15.4932  -17.1132 N   0  0  0  0  0  0  0  0  0  0  0  0
   19.0697  -15.9038  -17.9131 C   0  0  0  0  0  0  0  0  0  0  0  0
   18.2970  -14.8332  -18.2312 N   0  0  0  0  0  0  0  0  0  0  0  0
   18.7631  -10.0437  -16.7873 C   0  0  0  0  0  0  0  0  0  0  0  0
   18.9496   -9.5152  -17.8714 O   0  0  0  0  0  0  0  0  0  0  0  0
   18.2657   -9.3453  -15.6710 N   0  0  0  0  0  0  0  0  0  0  0  0
   17.9906   -7.9785  -15.4771 C   0  0  1  0  0  0  0  0  0  0  0  0
   16.6724   -7.6227  -14.7876 C   0  0  0  0  0  0  0  0  0  0  0  0
   16.3999   -6.1735  -14.7360 C   0  0  0  0  0  0  0  0  0  0  0  0
   16.2736   -5.5510  -13.6543 O   0  0  0  0  0  0  0  0  0  0  0  0
   19.0612   -7.1672  -14.8792 C   0  0  0  0  0  0  0  0  0  0  0  0
   19.6317   -7.5869  -13.8189 O   0  0  0  0  0  0  0  0  0  0  0  0
   16.2714   -5.4064  -15.9120 O   0  0  0  0  0  0  0  0  0  0  0  0
   19.5168   -5.9347  -15.3970 N   0  0  0  0  0  0  0  0  0  0  0  0
   20.7880   -5.3135  -15.0551 C   0  0  1  0  0  0  0  0  0  0  0  0
   21.9496   -5.9930  -15.6652 C   0  0  0  0  0  0  0  0  0  0  0  0
   23.3001   -5.4455  -15.5020 C   0  0  0  0  0  0  0  0  0  0  0  0
   24.4443   -6.1648  -16.0527 C   0  0  0  0  0  0  0  0  0  0  0  0
   24.4193   -7.2826  -16.6126 O   0  0  0  0  0  0  0  0  0  0  0  0
   20.7071   -3.8699  -15.1785 C   0  0  0  0  0  0  0  0  0  0  0  0
   21.5228   -3.1141  -14.5801 O   0  0  0  0  0  0  0  0  0  0  0  0
   25.7390   -5.6033  -15.9816 O   0  0  0  0  0  0  0  0  0  0  0  0
   19.7294   -3.2684  -15.9586 O   0  0  0  0  0  0  0  0  0  0  0  0
  2  1  1  1
  2  9  1  0
  2  3  1  0
  3  4  1  0
  4  5  2  0
  5  6  1  0
  7  6  1  0
  8  4  1  0
  8  7  2  0
  9 11  1  0
 10  9  2  0
 11 12  1  0
 12 16  1  0
 13 14  1  0
 12 13  1  1
 14 18  1  0
 15 14  2  0
 16 17  2  0
 19 16  1  0
 19 20  1  0
 20 25  1  0
 20 21  1  6
 22 21  1  0
 23 24  2  0
 23 22  1  0
 25 26  2  0
 25 28  1  0
 27 23  1  0
M  END
$$$$
