GTT.pdb
     RDKit          3D

 19 18  0  0  1  0  0  0  0  0999 V2000
    7.0892  -17.9396   17.4796 N   0  0  0  0  0  0  0  0  0  0  0  0
    6.7050  -18.0345   18.8664 C   0  0  0  0  0  0  0  0  0  0  0  0
    7.7934  -17.3696   19.6655 C   0  0  0  0  0  0  0  0  0  0  0  0
    8.9767  -17.3268   19.2525 O   0  0  0  0  0  0  0  0  0  0  0  0
    7.4622  -13.8004   21.4306 C   0  0  0  0  0  0  0  0  0  0  0  0
    8.0982  -14.8108   22.3189 C   0  0  1  0  0  0  0  0  0  0  0  0
    7.1328  -15.2248   23.2444 O   0  0  0  0  0  0  0  0  0  0  0  0
    8.5627  -16.0526   21.6041 C   0  0  2  0  0  0  0  0  0  0  0  0
    7.5511  -16.7608   20.9139 N   0  0  0  0  0  0  0  0  0  0  0  0
    9.3331  -16.9087   22.5549 C   0  0  0  0  0  0  0  0  0  0  0  0
    8.7659  -17.8965   23.0848 O   0  0  0  0  0  0  0  0  0  0  0  0
   13.6091  -18.4584   24.3724 C   0  0  0  0  0  0  0  0  0  0  0  0
   12.9023  -17.4280   23.5003 C   0  0  1  0  0  0  0  0  0  0  0  0
   13.2397  -17.6328   22.1678 O   0  0  0  0  0  0  0  0  0  0  0  0
   11.4203  -17.6060   23.7376 C   0  0  2  0  0  0  0  0  0  0  0  0
   10.6900  -16.6713   22.9028 N   0  0  0  0  0  0  0  0  0  0  0  0
   11.1552  -17.2728   25.1498 C   0  0  0  0  0  0  0  0  0  0  0  0
   11.3048  -18.1773   26.1915 O   0  0  0  0  0  0  0  0  0  0  0  0
   10.7738  -16.1181   25.4491 O   0  0  0  0  0  0  0  0  0  0  0  0
  1  2  1  0
  2  3  1  0
  3  4  2  0
  6  5  1  6
  6  7  1  0
  6  8  1  0
  8 10  1  0
  8  9  1  1
  9  3  1  0
 10 11  2  0
 10 16  1  0
 13 12  1  1
 13 14  1  0
 13 15  1  0
 15 17  1  0
 15 16  1  6
 17 19  2  0
 17 18  1  0
M  END
$$$$
