GTT.pdb
     RDKit          3D

 19 18  0  0  1  0  0  0  0  0999 V2000
    8.1022  -12.7281   18.0294 N   0  0  0  0  0  0  0  0  0  0  0  0
    8.9915  -13.3249   18.9952 C   0  0  0  0  0  0  0  0  0  0  0  0
    8.1522  -13.6955   20.1883 C   0  0  0  0  0  0  0  0  0  0  0  0
    7.0121  -13.2042   20.3656 O   0  0  0  0  0  0  0  0  0  0  0  0
    6.8161  -16.9915   21.0627 C   0  0  0  0  0  0  0  0  0  0  0  0
    7.4304  -16.4590   22.3091 C   0  0  1  0  0  0  0  0  0  0  0  0
    8.6411  -17.1344   22.5036 O   0  0  0  0  0  0  0  0  0  0  0  0
    7.7661  -14.9918   22.2511 C   0  0  2  0  0  0  0  0  0  0  0  0
    8.5923  -14.6083   21.1687 N   0  0  0  0  0  0  0  0  0  0  0  0
    8.2970  -14.5555   23.5771 C   0  0  0  0  0  0  0  0  0  0  0  0
    9.5347  -14.3895   23.7151 O   0  0  0  0  0  0  0  0  0  0  0  0
    6.7719  -11.7136   26.0562 C   0  0  0  0  0  0  0  0  0  0  0  0
    6.9542  -13.0751   26.7157 C   0  0  1  0  0  0  0  0  0  0  0  0
    5.7532  -13.7739   26.6855 O   0  0  0  0  0  0  0  0  0  0  0  0
    8.0380  -13.7882   25.9404 C   0  0  2  0  0  0  0  0  0  0  0  0
    7.4756  -14.3125   24.7105 N   0  0  0  0  0  0  0  0  0  0  0  0
    8.4962  -14.9236   26.7629 C   0  0  0  0  0  0  0  0  0  0  0  0
    9.1636  -14.7749   27.9704 O   0  0  0  0  0  0  0  0  0  0  0  0
    8.2829  -16.0937   26.3710 O   0  0  0  0  0  0  0  0  0  0  0  0
  1  2  1  0
  2  3  1  0
  3  4  2  0
  6  5  1  6
  6  7  1  0
  6  8  1  0
  8 10  1  0
  8  9  1  6
  9  3  1  0
 10 11  2  0
 10 16  1  0
 13 12  1  6
 13 14  1  0
 13 15  1  0
 15 17  1  0
 15 16  1  6
 17 19  2  0
 17 18  1  0
M  END
$$$$
