GTT.pdb
     RDKit          3D

 19 18  0  0  1  0  0  0  0  0999 V2000
    8.9282  -15.1866   13.7241 N   0  0  0  0  0  0  0  0  0  0  0  0
    8.2530  -15.4189   14.9770 C   0  0  0  0  0  0  0  0  0  0  0  0
    9.1116  -14.8103   16.0529 C   0  0  0  0  0  0  0  0  0  0  0  0
   10.2668  -14.3877   15.8088 O   0  0  0  0  0  0  0  0  0  0  0  0
    7.8288  -12.4870   19.2954 C   0  0  0  0  0  0  0  0  0  0  0  0
    8.7766  -13.5937   19.5972 C   0  0  1  0  0  0  0  0  0  0  0  0
    8.0292  -14.6596   20.1120 O   0  0  0  0  0  0  0  0  0  0  0  0
    9.5035  -14.1272   18.3906 C   0  0  2  0  0  0  0  0  0  0  0  0
    8.6737  -14.6797   17.3868 N   0  0  0  0  0  0  0  0  0  0  0  0
   10.5822  -15.0583   18.8375 C   0  0  0  0  0  0  0  0  0  0  0  0
   10.3451  -16.2913   18.8826 O   0  0  0  0  0  0  0  0  0  0  0  0
   14.0354  -15.5162   17.4664 C   0  0  0  0  0  0  0  0  0  0  0  0
   14.2047  -15.2221   18.9519 C   0  0  1  0  0  0  0  0  0  0  0  0
   14.5172  -13.8797   19.1301 O   0  0  0  0  0  0  0  0  0  0  0  0
   12.8966  -15.5866   19.6155 C   0  0  2  0  0  0  0  0  0  0  0  0
   11.8809  -14.6291   19.2213 N   0  0  0  0  0  0  0  0  0  0  0  0
   13.0952  -15.4797   21.0732 C   0  0  0  0  0  0  0  0  0  0  0  0
   13.9544  -16.2990   21.7915 O   0  0  0  0  0  0  0  0  0  0  0  0
   12.4655  -14.6105   21.7185 O   0  0  0  0  0  0  0  0  0  0  0  0
  1  2  1  0
  2  3  1  0
  3  4  2  0
  6  5  1  6
  6  7  1  0
  6  8  1  0
  8 10  1  0
  8  9  1  6
  9  3  1  0
 10 11  2  0
 10 16  1  0
 13 12  1  6
 13 14  1  0
 13 15  1  0
 15 17  1  0
 15 16  1  6
 17 19  2  0
 17 18  1  0
M  END
$$$$
