GTT.pdb
     RDKit          3D

 19 18  0  0  1  0  0  0  0  0999 V2000
    9.2343  -16.4468   15.2769 N   0  0  0  0  0  0  0  0  0  0  0  0
    8.2210  -16.3514   16.2986 C   0  0  0  0  0  0  0  0  0  0  0  0
    8.8772  -15.7367   17.5056 C   0  0  0  0  0  0  0  0  0  0  0  0
   10.1155  -15.5443   17.5516 O   0  0  0  0  0  0  0  0  0  0  0  0
    7.6440  -12.5926   19.6079 C   0  0  0  0  0  0  0  0  0  0  0  0
    8.0390  -13.7191   20.4963 C   0  0  1  0  0  0  0  0  0  0  0  0
    6.8641  -14.2930   20.9962 O   0  0  0  0  0  0  0  0  0  0  0  0
    8.7868  -14.8225   19.7949 C   0  0  2  0  0  0  0  0  0  0  0  0
    8.1469  -15.3440   18.6460 N   0  0  0  0  0  0  0  0  0  0  0  0
    9.1571  -15.8747   20.7880 C   0  0  0  0  0  0  0  0  0  0  0  0
    8.3597  -16.8221   21.0004 O   0  0  0  0  0  0  0  0  0  0  0  0
   12.2757  -17.9392   20.7420 C   0  0  0  0  0  0  0  0  0  0  0  0
   12.1906  -17.3352   22.1383 C   0  0  1  0  0  0  0  0  0  0  0  0
   13.0076  -16.2134   22.2132 O   0  0  0  0  0  0  0  0  0  0  0  0
   10.7380  -16.9878   22.3701 C   0  0  2  0  0  0  0  0  0  0  0  0
   10.3752  -15.8706   21.5192 N   0  0  0  0  0  0  0  0  0  0  0  0
   10.6035  -16.5637   23.7764 C   0  0  0  0  0  0  0  0  0  0  0  0
   10.7087  -17.4336   24.8524 O   0  0  0  0  0  0  0  0  0  0  0  0
   10.3822  -15.3591   24.0380 O   0  0  0  0  0  0  0  0  0  0  0  0
  1  2  1  0
  2  3  1  0
  3  4  2  0
  6  5  1  6
  6  7  1  0
  6  8  1  0
  8 10  1  0
  8  9  1  6
  9  3  1  0
 10 11  2  0
 10 16  1  0
 13 12  1  6
 13 14  1  0
 13 15  1  0
 15 17  1  0
 15 16  1  6
 17 19  2  0
 17 18  1  0
M  END
$$$$
