GTT.pdb
     RDKit          3D

 19 18  0  0  1  0  0  0  0  0999 V2000
    2.8021  -19.2797   21.2552 N   0  0  0  0  0  0  0  0  0  0  0  0
    3.1695  -17.8853   21.2777 C   0  0  0  0  0  0  0  0  0  0  0  0
    4.6683  -17.8326   21.4047 C   0  0  0  0  0  0  0  0  0  0  0  0
    5.3527  -18.8763   21.5272 O   0  0  0  0  0  0  0  0  0  0  0  0
    7.0933  -16.8662   18.9119 C   0  0  0  0  0  0  0  0  0  0  0  0
    7.4282  -16.0731   20.1256 C   0  0  1  0  0  0  0  0  0  0  0  0
    6.9246  -14.7807   19.9361 O   0  0  0  0  0  0  0  0  0  0  0  0
    6.8008  -16.5928   21.3924 C   0  0  2  0  0  0  0  0  0  0  0  0
    5.3863  -16.6192   21.3937 N   0  0  0  0  0  0  0  0  0  0  0  0
    7.3745  -15.8619   22.5617 C   0  0  0  0  0  0  0  0  0  0  0  0
    7.0256  -14.6731   22.7701 O   0  0  0  0  0  0  0  0  0  0  0  0
    6.9971  -15.4177   25.9570 C   0  0  0  0  0  0  0  0  0  0  0  0
    8.3822  -16.0430   25.8472 C   0  0  1  0  0  0  0  0  0  0  0  0
    8.2827  -17.4240   25.9678 O   0  0  0  0  0  0  0  0  0  0  0  0
    8.9338  -15.6357   24.5003 C   0  0  2  0  0  0  0  0  0  0  0  0
    8.3055  -16.4372   23.4676 N   0  0  0  0  0  0  0  0  0  0  0  0
   10.3784  -15.9337   24.5054 C   0  0  0  0  0  0  0  0  0  0  0  0
   11.2960  -15.2642   25.3024 O   0  0  0  0  0  0  0  0  0  0  0  0
   10.8239  -16.8351   23.7588 O   0  0  0  0  0  0  0  0  0  0  0  0
  1  2  1  0
  2  3  1  0
  3  4  2  0
  6  5  1  6
  6  7  1  0
  6  8  1  0
  8 10  1  0
  8  9  1  6
  9  3  1  0
 10 11  2  0
 10 16  1  0
 13 12  1  6
 13 14  1  0
 13 15  1  0
 15 17  1  0
 15 16  1  6
 17 19  2  0
 17 18  1  0
M  END
$$$$
