GTT.pdb
     RDKit          3D

 19 18  0  0  1  0  0  0  0  0999 V2000
   12.4799  -14.2390   19.5141 N   0  0  0  0  0  0  0  0  0  0  0  0
   12.0687  -15.1893   20.5179 C   0  0  0  0  0  0  0  0  0  0  0  0
   10.7803  -14.6749   21.1017 C   0  0  0  0  0  0  0  0  0  0  0  0
   10.6244  -13.4617   21.3783 O   0  0  0  0  0  0  0  0  0  0  0  0
    6.0311  -15.1300   22.2316 C   0  0  0  0  0  0  0  0  0  0  0  0
    7.2714  -15.8208   21.7858 C   0  0  1  0  0  0  0  0  0  0  0  0
    7.1909  -15.9759   20.3968 O   0  0  0  0  0  0  0  0  0  0  0  0
    8.5362  -15.0486   22.0553 C   0  0  2  0  0  0  0  0  0  0  0  0
    9.6819  -15.5172   21.3702 N   0  0  0  0  0  0  0  0  0  0  0  0
    8.7401  -14.9371   23.5305 C   0  0  0  0  0  0  0  0  0  0  0  0
    9.7141  -15.5290   24.0592 O   0  0  0  0  0  0  0  0  0  0  0  0
    7.5053  -11.7920   26.0964 C   0  0  0  0  0  0  0  0  0  0  0  0
    7.1092  -13.2191   26.4545 C   0  0  1  0  0  0  0  0  0  0  0  0
    5.8271  -13.4801   25.9860 O   0  0  0  0  0  0  0  0  0  0  0  0
    8.1358  -14.1251   25.8145 C   0  0  2  0  0  0  0  0  0  0  0  0
    7.8869  -14.1909   24.3870 N   0  0  0  0  0  0  0  0  0  0  0  0
    7.9499  -15.4741   26.3812 C   0  0  0  0  0  0  0  0  0  0  0  0
    8.2417  -15.7985   27.6985 O   0  0  0  0  0  0  0  0  0  0  0  0
    7.5063  -16.3920   25.6540 O   0  0  0  0  0  0  0  0  0  0  0  0
  1  2  1  0
  2  3  1  0
  3  4  2  0
  6  5  1  6
  6  7  1  0
  6  8  1  0
  8 10  1  0
  8  9  1  6
  9  3  1  0
 10 11  2  0
 10 16  1  0
 13 12  1  6
 13 14  1  0
 13 15  1  0
 15 17  1  0
 15 16  1  6
 17 19  2  0
 17 18  1  0
M  END
$$$$
