GTT.pdb
     RDKit          3D

 19 18  0  0  1  0  0  0  0  0999 V2000
    7.8425  -13.1017   18.0252 N   0  0  0  0  0  0  0  0  0  0  0  0
    8.7985  -13.4046   19.0616 C   0  0  0  0  0  0  0  0  0  0  0  0
    8.0189  -13.9589   20.2236 C   0  0  0  0  0  0  0  0  0  0  0  0
    6.7653  -13.9910   20.2161 O   0  0  0  0  0  0  0  0  0  0  0  0
    9.1391  -17.1671   22.7961 C   0  0  0  0  0  0  0  0  0  0  0  0
    7.8361  -16.5151   22.4937 C   0  0  1  0  0  0  0  0  0  0  0  0
    6.9499  -16.8468   23.5253 O   0  0  0  0  0  0  0  0  0  0  0  0
    7.8963  -15.0107   22.4515 C   0  0  2  0  0  0  0  0  0  0  0  0
    8.6443  -14.4706   21.3790 N   0  0  0  0  0  0  0  0  0  0  0  0
    8.3298  -14.4978   23.7854 C   0  0  0  0  0  0  0  0  0  0  0  0
    9.5562  -14.3479   24.0133 O   0  0  0  0  0  0  0  0  0  0  0  0
    6.6318  -11.4951   25.9271 C   0  0  0  0  0  0  0  0  0  0  0  0
    6.7709  -12.7965   26.7074 C   0  0  1  0  0  0  0  0  0  0  0  0
    5.5737  -13.5006   26.6597 O   0  0  0  0  0  0  0  0  0  0  0  0
    7.9009  -13.5666   26.0636 C   0  0  2  0  0  0  0  0  0  0  0  0
    7.4264  -14.1634   24.8296 N   0  0  0  0  0  0  0  0  0  0  0  0
    8.2803  -14.6513   26.9884 C   0  0  0  0  0  0  0  0  0  0  0  0
    8.7968  -14.4306   28.2573 O   0  0  0  0  0  0  0  0  0  0  0  0
    8.1376  -15.8431   26.6314 O   0  0  0  0  0  0  0  0  0  0  0  0
  1  2  1  0
  2  3  1  0
  3  4  2  0
  6  5  1  1
  6  7  1  0
  6  8  1  0
  8 10  1  0
  8  9  1  6
  9  3  1  0
 10 11  2  0
 10 16  1  0
 13 12  1  6
 13 14  1  0
 13 15  1  0
 15 17  1  0
 15 16  1  6
 17 19  2  0
 17 18  1  0
M  END
$$$$
