GTT.pdb
     RDKit          3D

 19 18  0  0  1  0  0  0  0  0999 V2000
   -1.9350  -26.1724   25.3508 N   0  0  0  0  0  0  0  0  0  0  0  0
   -3.3550  -26.2015   25.6011 C   0  0  0  0  0  0  0  0  0  0  0  0
   -3.6205  -25.2234   26.7137 C   0  0  0  0  0  0  0  0  0  0  0  0
   -3.2797  -25.4671   27.8957 O   0  0  0  0  0  0  0  0  0  0  0  0
   -2.3550  -21.7878   27.4019 C   0  0  0  0  0  0  0  0  0  0  0  0
   -3.8421  -21.7351   27.4079 C   0  0  1  0  0  0  0  0  0  0  0  0
   -4.2504  -21.2265   26.1692 O   0  0  0  0  0  0  0  0  0  0  0  0
   -4.5046  -23.0798   27.5551 C   0  0  2  0  0  0  0  0  0  0  0  0
   -4.2619  -23.9867   26.4968 N   0  0  0  0  0  0  0  0  0  0  0  0
   -5.9580  -22.8842   27.8377 C   0  0  0  0  0  0  0  0  0  0  0  0
   -6.7424  -22.6656   26.8810 O   0  0  0  0  0  0  0  0  0  0  0  0
   -8.5687  -25.0239   29.0492 C   0  0  0  0  0  0  0  0  0  0  0  0
   -8.5315  -23.8886   30.0649 C   0  0  1  0  0  0  0  0  0  0  0  0
   -7.7724  -24.2698   31.1649 O   0  0  0  0  0  0  0  0  0  0  0  0
   -7.9327  -22.6954   29.3562 C   0  0  2  0  0  0  0  0  0  0  0  0
   -6.5175  -22.9308   29.1428 N   0  0  0  0  0  0  0  0  0  0  0  0
   -8.0805  -21.5306   30.2490 C   0  0  0  0  0  0  0  0  0  0  0  0
   -7.0181  -20.9359   30.9147 O   0  0  0  0  0  0  0  0  0  0  0  0
   -9.2158  -21.0345   30.4315 O   0  0  0  0  0  0  0  0  0  0  0  0
  1  2  1  0
  2  3  1  0
  3  4  2  0
  6  5  1  6
  6  7  1  0
  6  8  1  0
  8 10  1  0
  8  9  1  6
  9  3  1  0
 10 11  2  0
 10 16  1  0
 13 12  1  6
 13 14  1  0
 13 15  1  0
 15 17  1  0
 15 16  1  1
 17 19  2  0
 17 18  1  0
M  END
$$$$
