GTT.pdb
     RDKit          3D

 19 18  0  0  1  0  0  0  0  0999 V2000
    8.1399  -16.1032   15.3007 N   0  0  0  0  0  0  0  0  0  0  0  0
    7.4746  -16.4050   16.5441 C   0  0  0  0  0  0  0  0  0  0  0  0
    8.3610  -15.8921   17.6470 C   0  0  0  0  0  0  0  0  0  0  0  0
    9.6111  -15.9256   17.5523 O   0  0  0  0  0  0  0  0  0  0  0  0
    7.8690  -12.4897   19.6524 C   0  0  0  0  0  0  0  0  0  0  0  0
    8.1929  -13.6203   20.5641 C   0  0  1  0  0  0  0  0  0  0  0  0
    7.0094  -13.9886   21.2149 O   0  0  0  0  0  0  0  0  0  0  0  0
    8.6932  -14.8542   19.8600 C   0  0  2  0  0  0  0  0  0  0  0  0
    7.8451  -15.3485   18.8413 N   0  0  0  0  0  0  0  0  0  0  0  0
    9.0539  -15.8882   20.8754 C   0  0  0  0  0  0  0  0  0  0  0  0
    8.1632  -16.6678   21.2966 O   0  0  0  0  0  0  0  0  0  0  0  0
   11.3678  -18.6467   20.4862 C   0  0  0  0  0  0  0  0  0  0  0  0
   11.8679  -17.9074   21.7211 C   0  0  1  0  0  0  0  0  0  0  0  0
   12.9020  -17.0495   21.3658 O   0  0  0  0  0  0  0  0  0  0  0  0
   10.6831  -17.1556   22.2829 C   0  0  2  0  0  0  0  0  0  0  0  0
   10.3633  -16.0475   21.4032 N   0  0  0  0  0  0  0  0  0  0  0  0
   11.0866  -16.6082   23.5917 C   0  0  0  0  0  0  0  0  0  0  0  0
   11.2891  -17.3906   24.7198 O   0  0  0  0  0  0  0  0  0  0  0  0
   11.2619  -15.3745   23.7160 O   0  0  0  0  0  0  0  0  0  0  0  0
  1  2  1  0
  2  3  1  0
  3  4  2  0
  6  5  1  6
  6  7  1  0
  6  8  1  0
  8 10  1  0
  8  9  1  6
  9  3  1  0
 10 11  2  0
 10 16  1  0
 13 12  1  6
 13 14  1  0
 13 15  1  0
 15 17  1  0
 15 16  1  6
 17 19  2  0
 17 18  1  0
M  END
$$$$
