GTT.pdb
     RDKit          3D

 19 18  0  0  1  0  0  0  0  0999 V2000
    8.5041  -16.7131   15.3846 N   0  0  0  0  0  0  0  0  0  0  0  0
    7.6168  -16.5186   16.5047 C   0  0  0  0  0  0  0  0  0  0  0  0
    8.4660  -16.0515   17.6561 C   0  0  0  0  0  0  0  0  0  0  0  0
    9.7167  -16.1387   17.6257 O   0  0  0  0  0  0  0  0  0  0  0  0
    7.6919  -12.6481   19.6884 C   0  0  0  0  0  0  0  0  0  0  0  0
    8.1195  -13.7658   20.5728 C   0  0  1  0  0  0  0  0  0  0  0  0
    6.9763  -14.2544   21.2164 O   0  0  0  0  0  0  0  0  0  0  0  0
    8.7265  -14.9329   19.8392 C   0  0  2  0  0  0  0  0  0  0  0  0
    7.9127  -15.4932   18.8267 N   0  0  0  0  0  0  0  0  0  0  0  0
    9.2068  -15.9415   20.8304 C   0  0  0  0  0  0  0  0  0  0  0  0
    8.4806  -16.9319   21.0951 O   0  0  0  0  0  0  0  0  0  0  0  0
   12.7644  -17.9297   23.5552 C   0  0  0  0  0  0  0  0  0  0  0  0
   12.3822  -16.8238   22.5791 C   0  0  1  0  0  0  0  0  0  0  0  0
   13.0266  -17.0285   21.3649 O   0  0  0  0  0  0  0  0  0  0  0  0
   10.8789  -16.8784   22.4327 C   0  0  2  0  0  0  0  0  0  0  0  0
   10.4545  -15.8487   21.5035 N   0  0  0  0  0  0  0  0  0  0  0  0
   10.2946  -16.5812   23.7541 C   0  0  0  0  0  0  0  0  0  0  0  0
    9.9669  -17.5577   24.6840 O   0  0  0  0  0  0  0  0  0  0  0  0
   10.0735  -15.3915   24.0763 O   0  0  0  0  0  0  0  0  0  0  0  0
  1  2  1  0
  2  3  1  0
  3  4  2  0
  6  5  1  6
  6  7  1  0
  6  8  1  0
  8 10  1  0
  8  9  1  6
  9  3  1  0
 10 11  2  0
 10 16  1  0
 13 12  1  1
 13 14  1  0
 13 15  1  0
 15 17  1  0
 15 16  1  6
 17 19  2  0
 17 18  1  0
M  END
$$$$
