GTT.pdb
     RDKit          3D

 19 18  0  0  1  0  0  0  0  0999 V2000
    8.2529  -13.0194   17.8523 N   0  0  0  0  0  0  0  0  0  0  0  0
    9.0360  -13.7256   18.8362 C   0  0  0  0  0  0  0  0  0  0  0  0
    8.1164  -14.0273   19.9888 C   0  0  0  0  0  0  0  0  0  0  0  0
    6.9646  -13.5357   20.0543 O   0  0  0  0  0  0  0  0  0  0  0  0
    6.7412  -17.2717   21.1124 C   0  0  0  0  0  0  0  0  0  0  0  0
    7.2795  -16.6010   22.3268 C   0  0  1  0  0  0  0  0  0  0  0  0
    8.4792  -17.2391   22.6634 O   0  0  0  0  0  0  0  0  0  0  0  0
    7.6125  -15.1455   22.1290 C   0  0  2  0  0  0  0  0  0  0  0  0
    8.4904  -14.8722   21.0538 N   0  0  0  0  0  0  0  0  0  0  0  0
    8.0750  -14.5657   23.4253 C   0  0  0  0  0  0  0  0  0  0  0  0
    9.2902  -14.2806   23.5681 O   0  0  0  0  0  0  0  0  0  0  0  0
    7.0881  -12.1494   27.5524 C   0  0  0  0  0  0  0  0  0  0  0  0
    6.5129  -12.9747   26.4079 C   0  0  1  0  0  0  0  0  0  0  0  0
    5.7827  -12.1516   25.5588 O   0  0  0  0  0  0  0  0  0  0  0  0
    7.6882  -13.6092   25.7005 C   0  0  2  0  0  0  0  0  0  0  0  0
    7.2117  -14.3125   24.5248 N   0  0  0  0  0  0  0  0  0  0  0  0
    8.2803  -14.5954   26.6237 C   0  0  0  0  0  0  0  0  0  0  0  0
    9.0754  -14.2496   27.7072 O   0  0  0  0  0  0  0  0  0  0  0  0
    8.0682  -15.8159   26.4402 O   0  0  0  0  0  0  0  0  0  0  0  0
  1  2  1  0
  2  3  1  0
  3  4  2  0
  6  5  1  6
  6  7  1  0
  6  8  1  0
  8 10  1  0
  8  9  1  6
  9  3  1  0
 10 11  2  0
 10 16  1  0
 13 12  1  1
 13 14  1  0
 13 15  1  0
 15 17  1  0
 15 16  1  6
 17 19  2  0
 17 18  1  0
M  END
$$$$
