GTT.pdb
     RDKit          3D

 19 18  0  0  1  0  0  0  0  0999 V2000
    4.0679  -18.7498   20.2931 N   0  0  0  0  0  0  0  0  0  0  0  0
    3.9838  -17.4484   20.9089 C   0  0  0  0  0  0  0  0  0  0  0  0
    5.3879  -16.9114   20.9840 C   0  0  0  0  0  0  0  0  0  0  0  0
    6.3692  -17.6677   21.1780 O   0  0  0  0  0  0  0  0  0  0  0  0
    8.6489  -13.2313   20.4021 C   0  0  0  0  0  0  0  0  0  0  0  0
    7.2715  -13.7629   20.2166 C   0  0  1  0  0  0  0  0  0  0  0  0
    7.1103  -14.0488   18.8557 O   0  0  0  0  0  0  0  0  0  0  0  0
    7.0032  -15.0474   20.9561 C   0  0  2  0  0  0  0  0  0  0  0  0
    5.6819  -15.5398   20.8421 N   0  0  0  0  0  0  0  0  0  0  0  0
    7.4552  -14.9038   22.3722 C   0  0  0  0  0  0  0  0  0  0  0  0
    6.8754  -14.0751   23.1176 O   0  0  0  0  0  0  0  0  0  0  0  0
    6.8176  -16.4869   25.2199 C   0  0  0  0  0  0  0  0  0  0  0  0
    8.3219  -16.7007   25.1058 C   0  0  1  0  0  0  0  0  0  0  0  0
    8.5755  -17.9015   24.4536 O   0  0  0  0  0  0  0  0  0  0  0  0
    8.8685  -15.5189   24.3383 C   0  0  2  0  0  0  0  0  0  0  0  0
    8.5175  -15.6587   22.9379 N   0  0  0  0  0  0  0  0  0  0  0  0
   10.3383  -15.5571   24.4550 C   0  0  0  0  0  0  0  0  0  0  0  0
   11.0188  -15.3297   25.6428 O   0  0  0  0  0  0  0  0  0  0  0  0
   11.0305  -15.8060   23.4414 O   0  0  0  0  0  0  0  0  0  0  0  0
  1  2  1  0
  2  3  1  0
  3  4  2  0
  6  5  1  6
  6  7  1  0
  6  8  1  0
  8 10  1  0
  8  9  1  1
  9  3  1  0
 10 11  2  0
 10 16  1  0
 13 12  1  6
 13 14  1  0
 13 15  1  0
 15 17  1  0
 15 16  1  6
 17 19  2  0
 17 18  1  0
M  END
$$$$
