DTV.pdb
     RDKit          3D

 23 22  0  0  1  0  0  0  0  0999 V2000
   11.2242  -16.8547   18.8054 N   0  0  0  0  0  0  0  0  0  0  0  0
   10.8552  -17.1509   20.1822 C   0  0  1  0  0  0  0  0  0  0  0  0
   12.1200  -17.4458   20.9729 C   0  0  0  0  0  0  0  0  0  0  0  0
   12.9857  -18.4510   20.3382 C   0  0  0  0  0  0  0  0  0  0  0  0
   12.5176  -19.3989   19.6751 O   0  0  0  0  0  0  0  0  0  0  0  0
   10.0233  -16.0938   20.7707 C   0  0  0  0  0  0  0  0  0  0  0  0
   10.3482  -14.8886   20.6192 O   0  0  0  0  0  0  0  0  0  0  0  0
   14.3849  -18.4101   20.4361 O   0  0  0  0  0  0  0  0  0  0  0  0
    6.4085  -15.3064   20.2033 C   0  0  0  0  0  0  0  0  0  0  0  0
    6.6113  -15.4870   21.6935 C   0  0  1  0  0  0  0  0  0  0  0  0
    6.2494  -16.7961   22.0120 O   0  0  0  0  0  0  0  0  0  0  0  0
    8.0473  -15.2828   22.0816 C   0  0  2  0  0  0  0  0  0  0  0  0
    8.8392  -16.3574   21.5224 N   0  0  0  0  0  0  0  0  0  0  0  0
    8.2533  -15.1202   23.5299 C   0  0  0  0  0  0  0  0  0  0  0  0
    8.9978  -15.9514   24.1113 O   0  0  0  0  0  0  0  0  0  0  0  0
    5.6463  -12.8664   26.1696 C   0  0  0  0  0  0  0  0  0  0  0  0
    7.1267  -12.8020   26.3305 C   0  0  1  0  0  0  0  0  0  0  0  0
    7.4374  -12.6157   27.8005 C   0  0  0  0  0  0  0  0  0  0  0  0
    7.8427  -13.9914   25.7454 C   0  0  2  0  0  0  0  0  0  0  0  0
    7.6659  -14.0868   24.3102 N   0  0  0  0  0  0  0  0  0  0  0  0
    7.4496  -15.2597   26.3839 C   0  0  0  0  0  0  0  0  0  0  0  0
    6.5157  -15.9718   25.9315 O   0  0  0  0  0  0  0  0  0  0  0  0
    8.1014  -15.7219   27.5206 O   0  0  0  0  0  0  0  0  0  0  0  0
  2  1  1  6
  2  6  1  0
  3  2  1  0
  3  4  1  0
  4  5  2  0
  4  8  1  0
  6  7  2  0
 10  9  1  6
 10 11  1  0
 10 12  1  0
 12 14  1  0
 12 13  1  1
 13  6  1  0
 14 15  2  0
 17 16  1  1
 17 19  1  0
 18 17  1  0
 19 21  1  0
 20 14  1  0
 19 20  1  6
 21 22  2  0
 21 23  1  0
M  END
$$$$
