DTV.pdb
     RDKit          3D

 23 22  0  0  1  0  0  0  0  0999 V2000
   11.0483  -18.3212   21.0920 N   0  0  0  0  0  0  0  0  0  0  0  0
   11.7041  -17.0356   21.2836 C   0  0  1  0  0  0  0  0  0  0  0  0
   12.4597  -16.6799   20.0130 C   0  0  0  0  0  0  0  0  0  0  0  0
   13.6746  -17.4835   19.8105 C   0  0  0  0  0  0  0  0  0  0  0  0
   13.6355  -18.7285   19.7343 O   0  0  0  0  0  0  0  0  0  0  0  0
   10.7644  -15.9964   21.7229 C   0  0  0  0  0  0  0  0  0  0  0  0
   11.1400  -14.7975   21.7721 O   0  0  0  0  0  0  0  0  0  0  0  0
   14.9482  -16.9067   19.6908 O   0  0  0  0  0  0  0  0  0  0  0  0
    7.2660  -15.6301   20.3026 C   0  0  0  0  0  0  0  0  0  0  0  0
    7.1621  -15.5128   21.8092 C   0  0  1  0  0  0  0  0  0  0  0  0
    6.7213  -16.7429   22.2977 O   0  0  0  0  0  0  0  0  0  0  0  0
    8.4942  -15.2044   22.4297 C   0  0  2  0  0  0  0  0  0  0  0  0
    9.4176  -16.2710   22.1068 N   0  0  0  0  0  0  0  0  0  0  0  0
    8.4267  -14.9300   23.8742 C   0  0  0  0  0  0  0  0  0  0  0  0
    9.0766  -15.6843   24.6435 O   0  0  0  0  0  0  0  0  0  0  0  0
    6.6843  -12.2175   27.7075 C   0  0  0  0  0  0  0  0  0  0  0  0
    6.7310  -12.4800   26.2409 C   0  0  1  0  0  0  0  0  0  0  0  0
    7.3017  -11.2558   25.5569 C   0  0  0  0  0  0  0  0  0  0  0  0
    7.4856  -13.7337   25.8829 C   0  0  2  0  0  0  0  0  0  0  0  0
    7.6760  -13.8700   24.4527 N   0  0  0  0  0  0  0  0  0  0  0  0
    6.8521  -14.9498   26.4220 C   0  0  0  0  0  0  0  0  0  0  0  0
    5.8780  -15.5034   25.8487 O   0  0  0  0  0  0  0  0  0  0  0  0
    7.3105  -15.5369   27.5948 O   0  0  0  0  0  0  0  0  0  0  0  0
  2  1  1  6
  2  6  1  0
  3  2  1  0
  3  4  1  0
  4  5  2  0
  4  8  1  0
  6  7  2  0
 10  9  1  6
 10 11  1  0
 10 12  1  0
 12 14  1  0
 12 13  1  1
 13  6  1  0
 14 15  2  0
 17 16  1  1
 17 19  1  0
 18 17  1  0
 19 21  1  0
 20 14  1  0
 19 20  1  6
 21 22  2  0
 21 23  1  0
M  END
$$$$
