DTV.pdb
     RDKit          3D

 23 22  0  0  1  0  0  0  0  0999 V2000
   10.6542  -15.0290   18.3116 N   0  0  0  0  0  0  0  0  0  0  0  0
   10.9954  -15.1709   19.7198 C   0  0  1  0  0  0  0  0  0  0  0  0
   12.1680  -14.2545   20.0317 C   0  0  0  0  0  0  0  0  0  0  0  0
   13.4390  -14.7126   19.4509 C   0  0  0  0  0  0  0  0  0  0  0  0
   13.7974  -15.9065   19.5095 O   0  0  0  0  0  0  0  0  0  0  0  0
    9.8338  -14.9624   20.5932 C   0  0  0  0  0  0  0  0  0  0  0  0
    9.0250  -14.0328   20.3429 O   0  0  0  0  0  0  0  0  0  0  0  0
   14.3256  -13.8431   18.7975 O   0  0  0  0  0  0  0  0  0  0  0  0
    6.2933  -16.5633   23.4074 C   0  0  0  0  0  0  0  0  0  0  0  0
    7.5487  -16.7649   22.5841 C   0  0  1  0  0  0  0  0  0  0  0  0
    7.1536  -17.0441   21.2757 O   0  0  0  0  0  0  0  0  0  0  0  0
    8.4013  -15.5290   22.5700 C   0  0  2  0  0  0  0  0  0  0  0  0
    9.5598  -15.7707   21.7371 N   0  0  0  0  0  0  0  0  0  0  0  0
    8.7587  -15.0394   23.9113 C   0  0  0  0  0  0  0  0  0  0  0  0
    9.8947  -15.3412   24.3602 O   0  0  0  0  0  0  0  0  0  0  0  0
    7.4621  -11.4633   25.7204 C   0  0  0  0  0  0  0  0  0  0  0  0
    7.3942  -12.6948   26.5575 C   0  0  1  0  0  0  0  0  0  0  0  0
    5.9450  -13.1209   26.6593 C   0  0  0  0  0  0  0  0  0  0  0  0
    8.2788  -13.8064   26.0563 C   0  0  2  0  0  0  0  0  0  0  0  0
    7.9040  -14.2496   24.7284 N   0  0  0  0  0  0  0  0  0  0  0  0
    8.3185  -14.9571   26.9757 C   0  0  0  0  0  0  0  0  0  0  0  0
    7.7207  -16.0347   26.7202 O   0  0  0  0  0  0  0  0  0  0  0  0
    9.0241  -14.8953   28.1710 O   0  0  0  0  0  0  0  0  0  0  0  0
  2  1  1  6
  2  6  1  0
  3  2  1  0
  3  4  1  0
  4  5  2  0
  4  8  1  0
  6  7  2  0
 10  9  1  1
 10 11  1  0
 10 12  1  0
 12 14  1  0
 12 13  1  6
 13  6  1  0
 14 15  2  0
 17 16  1  6
 17 19  1  0
 18 17  1  0
 19 21  1  0
 20 14  1  0
 19 20  1  6
 21 22  2  0
 21 23  1  0
M  END
$$$$
