DTV.pdb
     RDKit          3D

 23 22  0  0  1  0  0  0  0  0999 V2000
   11.9382  -16.6913   19.6992 N   0  0  0  0  0  0  0  0  0  0  0  0
   11.1028  -17.1635   20.7940 C   0  0  1  0  0  0  0  0  0  0  0  0
   11.9791  -17.9066   21.7900 C   0  0  0  0  0  0  0  0  0  0  0  0
   12.8010  -18.9593   21.1745 C   0  0  0  0  0  0  0  0  0  0  0  0
   13.5080  -19.7272   21.8584 O   0  0  0  0  0  0  0  0  0  0  0  0
   10.3142  -16.0800   21.3940 C   0  0  0  0  0  0  0  0  0  0  0  0
   10.7685  -14.9076   21.3982 O   0  0  0  0  0  0  0  0  0  0  0  0
   12.8438  -19.1674   19.7874 O   0  0  0  0  0  0  0  0  0  0  0  0
    6.9153  -14.8910   20.4623 C   0  0  0  0  0  0  0  0  0  0  0  0
    6.8918  -15.2003   21.9449 C   0  0  1  0  0  0  0  0  0  0  0  0
    6.3677  -16.4840   22.0988 O   0  0  0  0  0  0  0  0  0  0  0  0
    8.2730  -15.1769   22.5334 C   0  0  2  0  0  0  0  0  0  0  0  0
    9.0319  -16.2814   21.9870 N   0  0  0  0  0  0  0  0  0  0  0  0
    8.2906  -15.1490   24.0050 C   0  0  0  0  0  0  0  0  0  0  0  0
    8.9431  -16.0461   24.5988 O   0  0  0  0  0  0  0  0  0  0  0  0
    7.3014  -11.7395   26.4695 C   0  0  0  0  0  0  0  0  0  0  0  0
    6.7946  -13.0924   26.8365 C   0  0  1  0  0  0  0  0  0  0  0  0
    5.3345  -13.1753   26.4452 C   0  0  0  0  0  0  0  0  0  0  0  0
    7.6058  -14.2146   26.2431 C   0  0  2  0  0  0  0  0  0  0  0  0
    7.6192  -14.1755   24.7945 N   0  0  0  0  0  0  0  0  0  0  0  0
    7.1601  -15.5412   26.7042 C   0  0  0  0  0  0  0  0  0  0  0  0
    6.4119  -16.2727   26.0049 O   0  0  0  0  0  0  0  0  0  0  0  0
    7.5527  -16.0393   27.9404 O   0  0  0  0  0  0  0  0  0  0  0  0
  2  1  1  6
  2  6  1  0
  3  2  1  0
  3  4  1  0
  4  5  2  0
  4  8  1  0
  6  7  2  0
 10  9  1  6
 10 11  1  0
 10 12  1  0
 12 14  1  0
 12 13  1  1
 13  6  1  0
 14 15  2  0
 17 16  1  6
 17 19  1  0
 18 17  1  0
 19 21  1  0
 20 14  1  0
 19 20  1  6
 21 22  2  0
 21 23  1  0
M  END
$$$$
