DTV.pdb
     RDKit          3D

 23 22  0  0  1  0  0  0  0  0999 V2000
   11.6011  -16.4543   19.1711 N   0  0  0  0  0  0  0  0  0  0  0  0
   11.2240  -16.7949   20.5354 C   0  0  1  0  0  0  0  0  0  0  0  0
   12.4883  -16.9526   21.3654 C   0  0  0  0  0  0  0  0  0  0  0  0
   13.3388  -18.0701   20.9290 C   0  0  0  0  0  0  0  0  0  0  0  0
   13.0676  -18.7480   19.9170 O   0  0  0  0  0  0  0  0  0  0  0  0
   10.2632  -15.8378   21.0982 C   0  0  0  0  0  0  0  0  0  0  0  0
   10.3704  -14.6148   20.8266 O   0  0  0  0  0  0  0  0  0  0  0  0
   14.5028  -18.4446   21.6176 O   0  0  0  0  0  0  0  0  0  0  0  0
    6.7426  -15.4469   20.5132 C   0  0  0  0  0  0  0  0  0  0  0  0
    6.8752  -15.5914   22.0152 C   0  0  1  0  0  0  0  0  0  0  0  0
    6.6248  -16.9264   22.3334 O   0  0  0  0  0  0  0  0  0  0  0  0
    8.2595  -15.2430   22.4809 C   0  0  2  0  0  0  0  0  0  0  0  0
    9.1885  -16.2205   21.9555 N   0  0  0  0  0  0  0  0  0  0  0  0
    8.3715  -15.0803   23.9395 C   0  0  0  0  0  0  0  0  0  0  0  0
    9.1671  -15.8379   24.5528 O   0  0  0  0  0  0  0  0  0  0  0  0
    7.4120  -11.5168   26.0896 C   0  0  0  0  0  0  0  0  0  0  0  0
    6.9946  -12.8229   26.6742 C   0  0  1  0  0  0  0  0  0  0  0  0
    5.5036  -12.9824   26.4651 C   0  0  0  0  0  0  0  0  0  0  0  0
    7.7720  -13.9944   26.1333 C   0  0  2  0  0  0  0  0  0  0  0  0
    7.6397  -14.1242   24.6960 N   0  0  0  0  0  0  0  0  0  0  0  0
    7.4101  -15.2646   26.7864 C   0  0  0  0  0  0  0  0  0  0  0  0
    6.5920  -16.0696   26.2699 O   0  0  0  0  0  0  0  0  0  0  0  0
    7.9636  -15.6251   28.0087 O   0  0  0  0  0  0  0  0  0  0  0  0
  2  1  1  6
  2  6  1  0
  3  2  1  0
  3  4  1  0
  4  5  2  0
  4  8  1  0
  6  7  2  0
 10  9  1  6
 10 11  1  0
 10 12  1  0
 12 14  1  0
 12 13  1  1
 13  6  1  0
 14 15  2  0
 17 16  1  6
 17 19  1  0
 18 17  1  0
 19 21  1  0
 20 14  1  0
 19 20  1  6
 21 22  2  0
 21 23  1  0
M  END
$$$$
