DTV.pdb
     RDKit          3D

 23 22  0  0  1  0  0  0  0  0999 V2000
   10.0275  -16.8570   19.4574 N   0  0  0  0  0  0  0  0  0  0  0  0
   10.3339  -17.1494   20.8502 C   0  0  1  0  0  0  0  0  0  0  0  0
   11.7368  -16.6489   21.1560 C   0  0  0  0  0  0  0  0  0  0  0  0
   12.7552  -17.1574   20.2249 C   0  0  0  0  0  0  0  0  0  0  0  0
   12.9038  -18.3784   20.0141 O   0  0  0  0  0  0  0  0  0  0  0  0
    9.3085  -16.6280   21.7625 C   0  0  0  0  0  0  0  0  0  0  0  0
    8.6806  -15.5812   21.4610 O   0  0  0  0  0  0  0  0  0  0  0  0
   13.6203  -16.3087   19.5176 O   0  0  0  0  0  0  0  0  0  0  0  0
    6.0462  -17.3889   25.3480 C   0  0  0  0  0  0  0  0  0  0  0  0
    7.1634  -17.8738   24.4473 C   0  0  1  0  0  0  0  0  0  0  0  0
    6.5817  -18.6047   23.4112 O   0  0  0  0  0  0  0  0  0  0  0  0
    7.9254  -16.7260   23.8502 C   0  0  2  0  0  0  0  0  0  0  0  0
    8.9725  -17.2524   23.0010 N   0  0  0  0  0  0  0  0  0  0  0  0
    8.4307  -15.7671   24.8460 C   0  0  0  0  0  0  0  0  0  0  0  0
    9.5887  -15.9531   25.3015 O   0  0  0  0  0  0  0  0  0  0  0  0
    7.1658  -11.7832   25.2226 C   0  0  0  0  0  0  0  0  0  0  0  0
    7.3541  -12.5229   26.5029 C   0  0  1  0  0  0  0  0  0  0  0  0
    5.9885  -12.8249   27.0826 C   0  0  0  0  0  0  0  0  0  0  0  0
    8.1958  -13.7637   26.3569 C   0  0  2  0  0  0  0  0  0  0  0  0
    7.6950  -14.6479   25.3235 N   0  0  0  0  0  0  0  0  0  0  0  0
    8.3388  -14.5036   27.6230 C   0  0  0  0  0  0  0  0  0  0  0  0
    7.7075  -15.5691   27.8468 O   0  0  0  0  0  0  0  0  0  0  0  0
    9.1840  -14.0484   28.6274 O   0  0  0  0  0  0  0  0  0  0  0  0
  2  1  1  6
  2  6  1  0
  3  2  1  0
  3  4  1  0
  4  5  2  0
  4  8  1  0
  6  7  2  0
 10  9  1  1
 10 11  1  0
 10 12  1  0
 12 14  1  0
 12 13  1  1
 13  6  1  0
 14 15  2  0
 17 16  1  6
 17 19  1  0
 18 17  1  0
 19 21  1  0
 20 14  1  0
 19 20  1  6
 21 22  2  0
 21 23  1  0
M  END
$$$$
