DTV.pdb
     RDKit          3D

 23 22  0  0  1  0  0  0  0  0999 V2000
   10.5776  -17.1429   18.9121 N   0  0  0  0  0  0  0  0  0  0  0  0
   10.9494  -16.9073   20.2998 C   0  0  1  0  0  0  0  0  0  0  0  0
   12.4359  -16.5928   20.3593 C   0  0  0  0  0  0  0  0  0  0  0  0
   13.2894  -17.7259   19.9716 C   0  0  0  0  0  0  0  0  0  0  0  0
   13.0438  -18.8922   20.3414 O   0  0  0  0  0  0  0  0  0  0  0  0
   10.1038  -15.8873   20.9326 C   0  0  0  0  0  0  0  0  0  0  0  0
   10.2041  -14.6859   20.5754 O   0  0  0  0  0  0  0  0  0  0  0  0
   14.4279  -17.5705   19.1662 O   0  0  0  0  0  0  0  0  0  0  0  0
    6.7010  -15.2858   20.6423 C   0  0  0  0  0  0  0  0  0  0  0  0
    6.8932  -15.3988   22.1406 C   0  0  1  0  0  0  0  0  0  0  0  0
    6.5544  -16.7002   22.5115 O   0  0  0  0  0  0  0  0  0  0  0  0
    8.3212  -15.1492   22.5320 C   0  0  2  0  0  0  0  0  0  0  0  0
    9.1514  -16.1837   21.9532 N   0  0  0  0  0  0  0  0  0  0  0  0
    8.5223  -15.0056   23.9830 C   0  0  0  0  0  0  0  0  0  0  0  0
    9.3138  -15.8059   24.5454 O   0  0  0  0  0  0  0  0  0  0  0  0
    7.8239  -11.4398   26.2646 C   0  0  0  0  0  0  0  0  0  0  0  0
    7.3655  -12.7460   26.8174 C   0  0  1  0  0  0  0  0  0  0  0  0
    5.8643  -12.8355   26.6425 C   0  0  0  0  0  0  0  0  0  0  0  0
    8.0783  -13.9305   26.2187 C   0  0  2  0  0  0  0  0  0  0  0  0
    7.8809  -14.0230   24.7859 N   0  0  0  0  0  0  0  0  0  0  0  0
    7.7004  -15.2023   26.8595 C   0  0  0  0  0  0  0  0  0  0  0  0
    6.8013  -15.9451   26.3863 O   0  0  0  0  0  0  0  0  0  0  0  0
    8.3283  -15.6336   28.0214 O   0  0  0  0  0  0  0  0  0  0  0  0
  2  1  1  6
  2  6  1  0
  3  2  1  0
  3  4  1  0
  4  5  2  0
  4  8  1  0
  6  7  2  0
 10  9  1  6
 10 11  1  0
 10 12  1  0
 12 14  1  0
 12 13  1  1
 13  6  1  0
 14 15  2  0
 17 16  1  6
 17 19  1  0
 18 17  1  0
 19 21  1  0
 20 14  1  0
 19 20  1  6
 21 22  2  0
 21 23  1  0
M  END
$$$$
