DTV.pdb
     RDKit          3D

 23 22  0  0  1  0  0  0  0  0999 V2000
   11.5382  -17.2388   19.3313 N   0  0  0  0  0  0  0  0  0  0  0  0
   11.3421  -17.2565   20.7737 C   0  0  1  0  0  0  0  0  0  0  0  0
   12.7037  -17.2646   21.4505 C   0  0  0  0  0  0  0  0  0  0  0  0
   13.4905  -18.4743   21.1672 C   0  0  0  0  0  0  0  0  0  0  0  0
   14.6955  -18.4164   20.8479 O   0  0  0  0  0  0  0  0  0  0  0  0
   10.4642  -16.1696   21.2252 C   0  0  0  0  0  0  0  0  0  0  0  0
   10.6899  -14.9906   20.8512 O   0  0  0  0  0  0  0  0  0  0  0  0
   12.9414  -19.7638   21.2369 O   0  0  0  0  0  0  0  0  0  0  0  0
    6.8766  -15.9372   20.6490 C   0  0  0  0  0  0  0  0  0  0  0  0
    7.0524  -15.6659   22.1288 C   0  0  1  0  0  0  0  0  0  0  0  0
    6.7451  -16.8428   22.8119 O   0  0  0  0  0  0  0  0  0  0  0  0
    8.4676  -15.2833   22.4533 C   0  0  2  0  0  0  0  0  0  0  0  0
    9.3427  -16.3750   22.0835 N   0  0  0  0  0  0  0  0  0  0  0  0
    8.6602  -14.8483   23.8463 C   0  0  0  0  0  0  0  0  0  0  0  0
    9.5241  -15.4525   24.5331 O   0  0  0  0  0  0  0  0  0  0  0  0
    5.8335  -12.3242   26.1012 C   0  0  0  0  0  0  0  0  0  0  0  0
    7.3138  -12.2200   26.2414 C   0  0  1  0  0  0  0  0  0  0  0  0
    7.6271  -11.7712   27.6530 C   0  0  0  0  0  0  0  0  0  0  0  0
    8.0385  -13.4889   25.8753 C   0  0  2  0  0  0  0  0  0  0  0  0
    7.9340  -13.7923   24.4620 N   0  0  0  0  0  0  0  0  0  0  0  0
    7.5918  -14.6461   26.6704 C   0  0  0  0  0  0  0  0  0  0  0  0
    6.6452  -15.3861   26.2957 O   0  0  0  0  0  0  0  0  0  0  0  0
    8.2045  -14.9671   27.8753 O   0  0  0  0  0  0  0  0  0  0  0  0
  2  1  1  6
  2  6  1  0
  3  2  1  0
  3  4  1  0
  4  5  2  0
  4  8  1  0
  6  7  2  0
 10  9  1  6
 10 11  1  0
 10 12  1  0
 12 14  1  0
 12 13  1  1
 13  6  1  0
 14 15  2  0
 17 16  1  1
 17 19  1  0
 18 17  1  0
 19 21  1  0
 20 14  1  0
 19 20  1  6
 21 22  2  0
 21 23  1  0
M  END
$$$$
