DTV.pdb
     RDKit          3D

 23 22  0  0  1  0  0  0  0  0999 V2000
    9.5959  -17.8631   20.3228 N   0  0  0  0  0  0  0  0  0  0  0  0
    8.6449  -16.8456   19.8989 C   0  0  1  0  0  0  0  0  0  0  0  0
    7.7907  -17.4142   18.7768 C   0  0  0  0  0  0  0  0  0  0  0  0
    8.5463  -17.6796   17.5434 C   0  0  0  0  0  0  0  0  0  0  0  0
    9.7921  -17.7535   17.5373 O   0  0  0  0  0  0  0  0  0  0  0  0
    7.8653  -16.3151   21.0243 C   0  0  0  0  0  0  0  0  0  0  0  0
    6.9677  -15.4605   20.8125 O   0  0  0  0  0  0  0  0  0  0  0  0
    7.9202  -17.8656   16.3015 O   0  0  0  0  0  0  0  0  0  0  0  0
    5.6916  -18.1502   23.1560 C   0  0  0  0  0  0  0  0  0  0  0  0
    6.5613  -17.3743   24.1237 C   0  0  1  0  0  0  0  0  0  0  0  0
    7.5439  -18.2442   24.5969 O   0  0  0  0  0  0  0  0  0  0  0  0
    7.2368  -16.2159   23.4483 C   0  0  2  0  0  0  0  0  0  0  0  0
    8.0691  -16.7206   22.3774 N   0  0  0  0  0  0  0  0  0  0  0  0
    7.9717  -15.3367   24.3722 C   0  0  0  0  0  0  0  0  0  0  0  0
    9.2281  -15.3367   24.3039 O   0  0  0  0  0  0  0  0  0  0  0  0
    6.9536  -11.5590   25.6014 C   0  0  0  0  0  0  0  0  0  0  0  0
    7.3408  -12.4655   26.7194 C   0  0  1  0  0  0  0  0  0  0  0  0
    6.0887  -12.8379   27.4848 C   0  0  0  0  0  0  0  0  0  0  0  0
    8.1100  -13.6785   26.2650 C   0  0  2  0  0  0  0  0  0  0  0  0
    7.3533  -14.4907   25.3332 N   0  0  0  0  0  0  0  0  0  0  0  0
    8.5751  -14.5086   27.3899 C   0  0  0  0  0  0  0  0  0  0  0  0
    8.1988  -15.7004   27.5384 O   0  0  0  0  0  0  0  0  0  0  0  0
    9.4551  -14.0022   28.3383 O   0  0  0  0  0  0  0  0  0  0  0  0
  2  1  1  1
  2  6  1  0
  3  2  1  0
  3  4  1  0
  4  5  2  0
  4  8  1  0
  6  7  2  0
 10  9  1  6
 10 11  1  0
 10 12  1  0
 12 14  1  0
 12 13  1  6
 13  6  1  0
 14 15  2  0
 17 16  1  6
 17 19  1  0
 18 17  1  0
 19 21  1  0
 20 14  1  0
 19 20  1  6
 21 22  2  0
 21 23  1  0
M  END
$$$$
