DTV.pdb
     RDKit          3D

 23 22  0  0  1  0  0  0  0  0999 V2000
   11.1613  -15.0893   18.4291 N   0  0  0  0  0  0  0  0  0  0  0  0
   11.4032  -14.9902   19.8613 C   0  0  1  0  0  0  0  0  0  0  0  0
   12.6973  -14.2241   20.0851 C   0  0  0  0  0  0  0  0  0  0  0  0
   13.8741  -14.8782   19.4933 C   0  0  0  0  0  0  0  0  0  0  0  0
   14.1801  -16.0565   19.7676 O   0  0  0  0  0  0  0  0  0  0  0  0
   10.2519  -14.4278   20.5782 C   0  0  0  0  0  0  0  0  0  0  0  0
    9.8981  -13.2419   20.3555 O   0  0  0  0  0  0  0  0  0  0  0  0
   14.7238  -14.2244   18.5880 O   0  0  0  0  0  0  0  0  0  0  0  0
    6.8191  -14.9492   20.3237 C   0  0  0  0  0  0  0  0  0  0  0  0
    7.1068  -15.2297   21.7842 C   0  0  1  0  0  0  0  0  0  0  0  0
    7.2602  -16.6090   21.9257 O   0  0  0  0  0  0  0  0  0  0  0  0
    8.3744  -14.5617   22.2329 C   0  0  2  0  0  0  0  0  0  0  0  0
    9.4910  -15.1631   21.5358 N   0  0  0  0  0  0  0  0  0  0  0  0
    8.5556  -14.5527   23.6936 C   0  0  0  0  0  0  0  0  0  0  0  0
    9.5202  -15.2074   24.1670 O   0  0  0  0  0  0  0  0  0  0  0  0
    7.1986  -11.5402   26.4268 C   0  0  0  0  0  0  0  0  0  0  0  0
    6.9604  -12.9726   26.7636 C   0  0  1  0  0  0  0  0  0  0  0  0
    5.5021  -13.2858   26.5037 C   0  0  0  0  0  0  0  0  0  0  0  0
    7.8820  -13.9175   26.0376 C   0  0  2  0  0  0  0  0  0  0  0  0
    7.7121  -13.8533   24.5998 N   0  0  0  0  0  0  0  0  0  0  0  0
    7.7416  -15.3105   26.4968 C   0  0  0  0  0  0  0  0  0  0  0  0
    7.0513  -16.1532   25.8664 O   0  0  0  0  0  0  0  0  0  0  0  0
    8.3719  -15.7505   27.6541 O   0  0  0  0  0  0  0  0  0  0  0  0
  2  1  1  6
  2  6  1  0
  3  2  1  0
  3  4  1  0
  4  5  2  0
  4  8  1  0
  6  7  2  0
 10  9  1  6
 10 11  1  0
 10 12  1  0
 12 14  1  0
 12 13  1  6
 13  6  1  0
 14 15  2  0
 17 16  1  6
 17 19  1  0
 18 17  1  0
 19 21  1  0
 20 14  1  0
 19 20  1  6
 21 22  2  0
 21 23  1  0
M  END
$$$$
