DTV.pdb
     RDKit          3D

 23 22  0  0  1  0  0  0  0  0999 V2000
   10.2808  -17.7029   19.3288 N   0  0  0  0  0  0  0  0  0  0  0  0
   10.6770  -17.4778   20.7115 C   0  0  1  0  0  0  0  0  0  0  0  0
   11.9606  -16.6627   20.7240 C   0  0  0  0  0  0  0  0  0  0  0  0
   13.1256  -17.3983   20.2098 C   0  0  0  0  0  0  0  0  0  0  0  0
   13.6543  -17.1129   19.1160 O   0  0  0  0  0  0  0  0  0  0  0  0
    9.5938  -16.8867   21.5071 C   0  0  0  0  0  0  0  0  0  0  0  0
    8.8118  -16.0576   20.9761 O   0  0  0  0  0  0  0  0  0  0  0  0
   13.7146  -18.4617   20.9107 O   0  0  0  0  0  0  0  0  0  0  0  0
    6.3118  -17.2133   25.0579 C   0  0  0  0  0  0  0  0  0  0  0  0
    7.4608  -17.7470   24.2274 C   0  0  1  0  0  0  0  0  0  0  0  0
    6.9154  -18.5186   23.2011 O   0  0  0  0  0  0  0  0  0  0  0  0
    8.2586  -16.6334   23.6128 C   0  0  2  0  0  0  0  0  0  0  0  0
    9.3688  -17.2038   22.8802 N   0  0  0  0  0  0  0  0  0  0  0  0
    8.6831  -15.6053   24.5768 C   0  0  0  0  0  0  0  0  0  0  0  0
    9.8574  -15.6723   25.0236 O   0  0  0  0  0  0  0  0  0  0  0  0
    5.8955  -12.8419   26.1052 C   0  0  0  0  0  0  0  0  0  0  0  0
    7.3260  -12.4258   26.1528 C   0  0  1  0  0  0  0  0  0  0  0  0
    7.5500  -11.6391   27.4268 C   0  0  0  0  0  0  0  0  0  0  0  0
    8.2874  -13.5781   26.0209 C   0  0  2  0  0  0  0  0  0  0  0  0
    7.8525  -14.5453   25.0331 N   0  0  0  0  0  0  0  0  0  0  0  0
    8.5415  -14.2538   27.3054 C   0  0  0  0  0  0  0  0  0  0  0  0
    9.2241  -13.7173   28.2165 O   0  0  0  0  0  0  0  0  0  0  0  0
    8.0324  -15.5209   27.5615 O   0  0  0  0  0  0  0  0  0  0  0  0
  2  1  1  6
  2  6  1  0
  3  2  1  0
  3  4  1  0
  4  5  2  0
  4  8  1  0
  6  7  2  0
 10  9  1  6
 10 11  1  0
 10 12  1  0
 12 14  1  0
 12 13  1  1
 13  6  1  0
 14 15  2  0
 17 16  1  1
 17 19  1  0
 18 17  1  0
 19 21  1  0
 20 14  1  0
 19 20  1  6
 21 22  2  0
 21 23  1  0
M  END
$$$$
