SLP.pdb
     RDKit          3D

 22 22  0  0  1  0  0  0  0  0999 V2000
   20.4811  -21.3553  -16.8931 O   0  0  0  0  0  0  0  0  0  0  0  0
   20.9094  -21.8507  -15.6494 C   0  0  0  0  0  0  0  0  0  0  0  0
   20.8825  -20.7009  -14.6990 C   0  0  2  0  0  0  0  0  0  0  0  0
   20.0779  -19.6548  -15.3091 N   0  0  0  0  0  0  0  0  0  0  0  0
   22.2035  -20.1933  -14.2935 C   0  0  0  0  0  0  0  0  0  0  0  0
   22.5568  -19.0575  -14.6824 O   0  0  0  0  0  0  0  0  0  0  0  0
   26.3395  -21.6315  -10.1582 C   0  0  0  0  0  0  0  0  0  0  0  0
   26.1363  -20.7737  -11.4227 C   0  0  2  0  0  0  0  0  0  0  0  0
   26.3005  -19.3543  -11.0089 C   0  0  0  0  0  0  0  0  0  0  0  0
   24.8026  -21.1381  -11.9380 C   0  0  0  0  0  0  0  0  0  0  0  0
   24.4280  -20.5460  -13.2939 C   0  0  2  0  0  0  0  0  0  0  0  0
   23.0615  -20.9670  -13.4779 N   0  0  0  0  0  0  0  0  0  0  0  0
   25.3586  -20.8249  -14.3303 C   0  0  0  0  0  0  0  0  0  0  0  0
   25.4582  -22.0212  -14.7639 O   0  0  0  0  0  0  0  0  0  0  0  0
   26.2310  -19.8736  -14.9684 N   0  0  0  0  0  0  0  0  0  0  0  0
   26.4122  -18.4943  -14.6719 C   0  0  0  0  0  0  0  0  0  0  0  0
   27.7891  -18.1316  -15.1672 C   0  0  0  0  0  0  0  0  0  0  0  0
   27.7966  -18.9562  -16.4655 C   0  0  0  0  0  0  0  0  0  0  0  0
   27.1242  -20.2184  -16.0775 C   0  0  1  0  0  0  0  0  0  0  0  0
   28.0556  -21.3022  -15.7031 C   0  0  0  0  0  0  0  0  0  0  0  0
   28.7675  -22.0165  -16.6253 O   0  0  0  0  0  0  0  0  0  0  0  0
   28.1910  -21.5701  -14.4835 O   0  0  0  0  0  0  0  0  0  0  0  0
  1  2  1  0
  2  3  1  0
  3  4  1  6
  3  5  1  0
  5  6  2  0
  8  7  1  1
  9  8  1  0
 11 10  1  1
 10  8  1  0
 11 13  1  0
 12  5  1  0
 12 11  1  0
 13 15  1  0
 14 13  2  0
 15 19  1  0
 15 16  1  0
 16 17  1  0
 18 17  1  0
 19 20  1  1
 19 18  1  0
 20 22  2  0
 20 21  1  0
M  END
$$$$
