SLP.pdb
     RDKit          3D

 22 22  0  0  1  0  0  0  0  0999 V2000
   21.8211  -20.5185  -11.8903 O   0  0  0  0  0  0  0  0  0  0  0  0
   22.5207  -21.6863  -11.5406 C   0  0  0  0  0  0  0  0  0  0  0  0
   23.7234  -21.2505  -10.7728 C   0  0  2  0  0  0  0  0  0  0  0  0
   23.2625  -20.3712   -9.7105 N   0  0  0  0  0  0  0  0  0  0  0  0
   24.7808  -20.6135  -11.5749 C   0  0  0  0  0  0  0  0  0  0  0  0
   24.8124  -19.3645  -11.6452 O   0  0  0  0  0  0  0  0  0  0  0  0
   29.0468  -19.4690  -11.7398 C   0  0  0  0  0  0  0  0  0  0  0  0
   28.7150  -20.9462  -11.4501 C   0  0  2  0  0  0  0  0  0  0  0  0
   29.9986  -21.6143  -11.1054 C   0  0  0  0  0  0  0  0  0  0  0  0
   28.0412  -21.4458  -12.6639 C   0  0  0  0  0  0  0  0  0  0  0  0
   26.7501  -20.7302  -13.0513 C   0  0  2  0  0  0  0  0  0  0  0  0
   25.7476  -21.3911  -12.2535 N   0  0  0  0  0  0  0  0  0  0  0  0
   26.5333  -20.6340  -14.4520 C   0  0  0  0  0  0  0  0  0  0  0  0
   26.4103  -21.7072  -15.1318 O   0  0  0  0  0  0  0  0  0  0  0  0
   26.4321  -19.4173  -15.2152 N   0  0  0  0  0  0  0  0  0  0  0  0
   26.6478  -18.0780  -14.7873 C   0  0  0  0  0  0  0  0  0  0  0  0
   27.0095  -17.2917  -16.0215 C   0  0  0  0  0  0  0  0  0  0  0  0
   26.0395  -17.9538  -17.0146 C   0  0  0  0  0  0  0  0  0  0  0  0
   26.0830  -19.3863  -16.6379 C   0  0  1  0  0  0  0  0  0  0  0  0
   27.0271  -20.1885  -17.4426 C   0  0  0  0  0  0  0  0  0  0  0  0
   26.7831  -20.5330  -18.7423 O   0  0  0  0  0  0  0  0  0  0  0  0
   28.0953  -20.5644  -16.8995 O   0  0  0  0  0  0  0  0  0  0  0  0
  1  2  1  0
  2  3  1  0
  3  4  1  1
  3  5  1  0
  5  6  2  0
  8  7  1  6
  9  8  1  0
 11 10  1  6
 10  8  1  0
 11 13  1  0
 12  5  1  0
 12 11  1  0
 13 15  1  0
 14 13  2  0
 15 19  1  0
 15 16  1  0
 16 17  1  0
 18 17  1  0
 19 20  1  6
 19 18  1  0
 20 22  2  0
 20 21  1  0
M  END
$$$$
