SLP.pdb
     RDKit          3D

 22 22  0  0  1  0  0  0  0  0999 V2000
   30.3564  -19.4969  -13.1733 O   0  0  0  0  0  0  0  0  0  0  0  0
   29.6974  -20.6150  -12.6338 C   0  0  0  0  0  0  0  0  0  0  0  0
   30.3998  -20.9526  -11.3616 C   0  0  2  0  0  0  0  0  0  0  0  0
   31.2840  -22.0726  -11.6403 N   0  0  0  0  0  0  0  0  0  0  0  0
   29.5189  -21.2370  -10.2169 C   0  0  0  0  0  0  0  0  0  0  0  0
   29.1025  -22.4059  -10.0544 O   0  0  0  0  0  0  0  0  0  0  0  0
   27.5677  -18.4512   -5.2696 C   0  0  0  0  0  0  0  0  0  0  0  0
   27.2911  -19.6858   -6.1502 C   0  0  2  0  0  0  0  0  0  0  0  0
   27.3226  -20.8700   -5.2503 C   0  0  0  0  0  0  0  0  0  0  0  0
   28.3220  -19.6584   -7.2053 C   0  0  0  0  0  0  0  0  0  0  0  0
   27.9700  -20.3869   -8.4994 C   0  0  2  0  0  0  0  0  0  0  0  0
   29.1482  -20.2153   -9.3123 N   0  0  0  0  0  0  0  0  0  0  0  0
   26.7154  -20.0185   -9.0545 C   0  0  0  0  0  0  0  0  0  0  0  0
   26.3301  -18.8056   -8.9559 O   0  0  0  0  0  0  0  0  0  0  0  0
   25.7996  -20.8922   -9.7408 N   0  0  0  0  0  0  0  0  0  0  0  0
   25.9708  -22.2589  -10.0957 C   0  0  0  0  0  0  0  0  0  0  0  0
   24.5859  -22.8413  -10.2197 C   0  0  0  0  0  0  0  0  0  0  0  0
   23.8859  -21.6437  -10.8839 C   0  0  0  0  0  0  0  0  0  0  0  0
   24.4689  -20.4726  -10.1879 C   0  0  1  0  0  0  0  0  0  0  0  0
   23.6520  -19.9786   -9.0605 C   0  0  0  0  0  0  0  0  0  0  0  0
   22.5429  -19.2000   -9.2368 O   0  0  0  0  0  0  0  0  0  0  0  0
   24.0006  -20.2932   -7.8957 O   0  0  0  0  0  0  0  0  0  0  0  0
  1  2  1  0
  2  3  1  0
  3  4  1  6
  3  5  1  0
  5  6  2  0
  8  7  1  1
  9  8  1  0
 11 10  1  1
 10  8  1  0
 11 13  1  0
 12  5  1  0
 12 11  1  0
 13 15  1  0
 14 13  2  0
 15 19  1  0
 15 16  1  0
 16 17  1  0
 18 17  1  0
 19 20  1  1
 19 18  1  0
 20 22  2  0
 20 21  1  0
M  END
$$$$
