SLP.pdb
     RDKit          3D

 22 22  0  0  1  0  0  0  0  0999 V2000
   16.3564  -11.7283  -18.2542 O   0  0  0  0  0  0  0  0  0  0  0  0
   16.6028  -10.6630  -17.3711 C   0  0  0  0  0  0  0  0  0  0  0  0
   17.7943  -11.0474  -16.5596 C   0  0  2  0  0  0  0  0  0  0  0  0
   17.3832  -12.1219  -15.6706 N   0  0  0  0  0  0  0  0  0  0  0  0
   18.4248   -9.9461  -15.8134 C   0  0  0  0  0  0  0  0  0  0  0  0
   17.8624   -9.5205  -14.7797 O   0  0  0  0  0  0  0  0  0  0  0  0
   21.2440   -8.9179  -12.8331 C   0  0  0  0  0  0  0  0  0  0  0  0
   21.7547   -9.6799  -14.0718 C   0  0  2  0  0  0  0  0  0  0  0  0
   23.1402  -10.1235  -13.7612 C   0  0  0  0  0  0  0  0  0  0  0  0
   21.6241   -8.7364  -15.1986 C   0  0  0  0  0  0  0  0  0  0  0  0
   20.2060   -8.2697  -15.5154 C   0  0  2  0  0  0  0  0  0  0  0  0
   19.6441   -9.3768  -16.2483 N   0  0  0  0  0  0  0  0  0  0  0  0
   20.1333   -6.9763  -16.0986 C   0  0  0  0  0  0  0  0  0  0  0  0
   20.9686   -6.6642  -17.0118 O   0  0  0  0  0  0  0  0  0  0  0  0
   19.1879   -5.9438  -15.7624 N   0  0  0  0  0  0  0  0  0  0  0  0
   18.1370   -5.9774  -14.8043 C   0  0  0  0  0  0  0  0  0  0  0  0
   17.8689   -4.5449  -14.4188 C   0  0  0  0  0  0  0  0  0  0  0  0
   18.0338   -3.8943  -15.8026 C   0  0  0  0  0  0  0  0  0  0  0  0
   19.1833   -4.6207  -16.3917 C   0  0  1  0  0  0  0  0  0  0  0  0
   20.4795   -3.9345  -16.2141 C   0  0  0  0  0  0  0  0  0  0  0  0
   20.8197   -2.8068  -16.9069 O   0  0  0  0  0  0  0  0  0  0  0  0
   21.2953   -4.4164  -15.3898 O   0  0  0  0  0  0  0  0  0  0  0  0
  1  2  1  0
  2  3  1  0
  3  4  1  1
  3  5  1  0
  5  6  2  0
  8  7  1  1
  9  8  1  0
 11 10  1  6
 10  8  1  0
 11 13  1  0
 12  5  1  0
 12 11  1  0
 13 15  1  0
 14 13  2  0
 15 19  1  0
 15 16  1  0
 16 17  1  0
 18 17  1  0
 19 20  1  1
 19 18  1  0
 20 22  2  0
 20 21  1  0
M  END
$$$$
