SLP.pdb
     RDKit          3D

 22 22  0  0  1  0  0  0  0  0999 V2000
   19.6170  -13.2812  -19.2118 O   0  0  0  0  0  0  0  0  0  0  0  0
   19.9334  -12.1236  -18.4803 C   0  0  0  0  0  0  0  0  0  0  0  0
   21.0325  -12.4971  -17.5431 C   0  0  2  0  0  0  0  0  0  0  0  0
   20.5714  -13.6386  -16.7696 N   0  0  0  0  0  0  0  0  0  0  0  0
   21.5042  -11.4117  -16.6675 C   0  0  0  0  0  0  0  0  0  0  0  0
   20.9227  -11.2241  -15.5754 O   0  0  0  0  0  0  0  0  0  0  0  0
   24.3248  -10.3372  -13.7796 C   0  0  0  0  0  0  0  0  0  0  0  0
   24.9224  -10.6746  -15.1600 C   0  0  2  0  0  0  0  0  0  0  0  0
   26.3954  -10.7731  -14.9770 C   0  0  0  0  0  0  0  0  0  0  0  0
   24.4617   -9.6028  -16.0633 C   0  0  0  0  0  0  0  0  0  0  0  0
   22.9495   -9.4671  -16.2189 C   0  0  2  0  0  0  0  0  0  0  0  0
   22.5946  -10.5941  -17.0449 N   0  0  0  0  0  0  0  0  0  0  0  0
   22.5178   -8.1768  -16.6273 C   0  0  0  0  0  0  0  0  0  0  0  0
   22.9657   -7.6945  -17.7209 O   0  0  0  0  0  0  0  0  0  0  0  0
   21.5981   -7.3243  -15.9198 N   0  0  0  0  0  0  0  0  0  0  0  0
   20.8982   -7.5820  -14.7086 C   0  0  0  0  0  0  0  0  0  0  0  0
   20.5843   -6.2363  -14.1059 C   0  0  0  0  0  0  0  0  0  0  0  0
   20.2419   -5.4745  -15.3974 C   0  0  0  0  0  0  0  0  0  0  0  0
   21.2404   -5.9768  -16.3704 C   0  0  1  0  0  0  0  0  0  0  0  0
   22.4345   -5.1168  -16.5006 C   0  0  0  0  0  0  0  0  0  0  0  0
   22.4129   -3.9159  -17.1524 O   0  0  0  0  0  0  0  0  0  0  0  0
   23.5090   -5.5160  -15.9874 O   0  0  0  0  0  0  0  0  0  0  0  0
  1  2  1  0
  2  3  1  0
  3  4  1  1
  3  5  1  0
  5  6  2  0
  8  7  1  1
  9  8  1  0
 11 10  1  6
 10  8  1  0
 11 13  1  0
 12  5  1  0
 12 11  1  0
 13 15  1  0
 14 13  2  0
 15 19  1  0
 15 16  1  0
 16 17  1  0
 18 17  1  0
 19 20  1  1
 19 18  1  0
 20 22  2  0
 20 21  1  0
M  END
$$$$
