SLP.pdb
     RDKit          3D

 22 22  0  0  1  0  0  0  0  0999 V2000
   26.2710  -17.9282  -16.6847 O   0  0  0  0  0  0  0  0  0  0  0  0
   27.3170  -18.6313  -17.3067 C   0  0  0  0  0  0  0  0  0  0  0  0
   28.1147  -19.2640  -16.2162 C   0  0  2  0  0  0  0  0  0  0  0  0
   29.2343  -19.9490  -16.8415 N   0  0  0  0  0  0  0  0  0  0  0  0
   27.3598  -20.1672  -15.3321 C   0  0  0  0  0  0  0  0  0  0  0  0
   27.1733  -21.3494  -15.6977 O   0  0  0  0  0  0  0  0  0  0  0  0
   24.2943  -20.8335  -10.8643 C   0  0  0  0  0  0  0  0  0  0  0  0
   25.8194  -21.0464  -10.7949 C   0  0  2  0  0  0  0  0  0  0  0  0
   26.2370  -20.7071   -9.4080 C   0  0  0  0  0  0  0  0  0  0  0  0
   26.3866  -20.1956  -11.8585 C   0  0  0  0  0  0  0  0  0  0  0  0
   26.0536  -20.6079  -13.2897 C   0  0  2  0  0  0  0  0  0  0  0  0
   26.8544  -19.7160  -14.0908 N   0  0  0  0  0  0  0  0  0  0  0  0
   24.6624  -20.6874  -13.5660 C   0  0  0  0  0  0  0  0  0  0  0  0
   23.9290  -19.6686  -13.3353 O   0  0  0  0  0  0  0  0  0  0  0  0
   23.9648  -21.8295  -14.0970 N   0  0  0  0  0  0  0  0  0  0  0  0
   24.4770  -23.1199  -14.4068 C   0  0  0  0  0  0  0  0  0  0  0  0
   23.3071  -24.0681  -14.3373 C   0  0  0  0  0  0  0  0  0  0  0  0
   22.2341  -23.1641  -14.9673 C   0  0  0  0  0  0  0  0  0  0  0  0
   22.5314  -21.8276  -14.4005 C   0  0  1  0  0  0  0  0  0  0  0  0
   21.7279  -21.4912  -13.2073 C   0  0  0  0  0  0  0  0  0  0  0  0
   20.4145  -21.1210  -13.2811 O   0  0  0  0  0  0  0  0  0  0  0  0
   22.2852  -21.5510  -12.0835 O   0  0  0  0  0  0  0  0  0  0  0  0
  1  2  1  0
  2  3  1  0
  3  4  1  6
  3  5  1  0
  5  6  2  0
  8  7  1  1
  9  8  1  0
 11 10  1  1
 10  8  1  0
 11 13  1  0
 12  5  1  0
 12 11  1  0
 13 15  1  0
 14 13  2  0
 15 19  1  0
 15 16  1  0
 16 17  1  0
 18 17  1  0
 19 20  1  1
 19 18  1  0
 20 22  2  0
 20 21  1  0
M  END
$$$$
