SLP.pdb
     RDKit          3D

 22 22  0  0  1  0  0  0  0  0999 V2000
   27.6617  -16.9991  -16.0780 O   0  0  0  0  0  0  0  0  0  0  0  0
   27.3448  -18.3191  -16.4427 C   0  0  0  0  0  0  0  0  0  0  0  0
   27.9459  -19.2055  -15.4040 C   0  0  2  0  0  0  0  0  0  0  0  0
   28.9902  -19.9829  -16.0512 N   0  0  0  0  0  0  0  0  0  0  0  0
   26.9922  -20.0745  -14.6951 C   0  0  0  0  0  0  0  0  0  0  0  0
   26.7713  -21.2201  -15.1475 O   0  0  0  0  0  0  0  0  0  0  0  0
   26.2332  -22.0931  -10.7466 C   0  0  0  0  0  0  0  0  0  0  0  0
   26.3666  -20.5585  -10.6877 C   0  0  2  0  0  0  0  0  0  0  0  0
   26.3485  -20.1815   -9.2487 C   0  0  0  0  0  0  0  0  0  0  0  0
   25.2522  -20.0329  -11.4993 C   0  0  0  0  0  0  0  0  0  0  0  0
   25.2621  -20.4215  -12.9751 C   0  0  2  0  0  0  0  0  0  0  0  0
   26.3365  -19.6316  -13.5230 N   0  0  0  0  0  0  0  0  0  0  0  0
   23.9913  -20.3508  -13.6063 C   0  0  0  0  0  0  0  0  0  0  0  0
   23.3776  -19.2320  -13.6326 O   0  0  0  0  0  0  0  0  0  0  0  0
   23.2962  -21.4394  -14.2425 N   0  0  0  0  0  0  0  0  0  0  0  0
   23.7154  -22.7889  -14.4050 C   0  0  0  0  0  0  0  0  0  0  0  0
   22.4588  -23.6076  -14.5582 C   0  0  0  0  0  0  0  0  0  0  0  0
   21.6449  -22.6293  -15.4220 C   0  0  0  0  0  0  0  0  0  0  0  0
   21.9650  -21.3048  -14.8397 C   0  0  1  0  0  0  0  0  0  0  0  0
   20.9754  -20.8309  -13.8505 C   0  0  0  0  0  0  0  0  0  0  0  0
   19.7816  -20.2708  -14.2092 O   0  0  0  0  0  0  0  0  0  0  0  0
   21.2532  -20.9525  -12.6317 O   0  0  0  0  0  0  0  0  0  0  0  0
  1  2  1  0
  2  3  1  0
  3  4  1  6
  3  5  1  0
  5  6  2  0
  8  7  1  1
  9  8  1  0
 11 10  1  1
 10  8  1  0
 11 13  1  0
 12  5  1  0
 12 11  1  0
 13 15  1  0
 14 13  2  0
 15 19  1  0
 15 16  1  0
 16 17  1  0
 18 17  1  0
 19 20  1  1
 19 18  1  0
 20 22  2  0
 20 21  1  0
M  END
$$$$
