SLP.pdb
     RDKit          3D

 22 22  0  0  1  0  0  0  0  0999 V2000
   25.7746  -17.9481  -15.7058 O   0  0  0  0  0  0  0  0  0  0  0  0
   26.3836  -19.1678  -16.0478 C   0  0  0  0  0  0  0  0  0  0  0  0
   27.4622  -19.4034  -15.0442 C   0  0  2  0  0  0  0  0  0  0  0  0
   28.5601  -20.0591  -15.7359 N   0  0  0  0  0  0  0  0  0  0  0  0
   27.0516  -20.1613  -13.8508 C   0  0  0  0  0  0  0  0  0  0  0  0
   26.8596  -21.3933  -13.9572 O   0  0  0  0  0  0  0  0  0  0  0  0
   26.8870  -19.0129   -7.9286 C   0  0  0  0  0  0  0  0  0  0  0  0
   26.5870  -20.1188   -8.9597 C   0  0  2  0  0  0  0  0  0  0  0  0
   27.3899  -21.3060   -8.5608 C   0  0  0  0  0  0  0  0  0  0  0  0
   26.9195  -19.5356  -10.2735 C   0  0  0  0  0  0  0  0  0  0  0  0
   26.3580  -20.2686  -11.4888 C   0  0  2  0  0  0  0  0  0  0  0  0
   26.8782  -19.5172  -12.6038 N   0  0  0  0  0  0  0  0  0  0  0  0
   24.9577  -20.5015  -11.4349 C   0  0  0  0  0  0  0  0  0  0  0  0
   24.1744  -19.5100  -11.2548 O   0  0  0  0  0  0  0  0  0  0  0  0
   24.3021  -21.7766  -11.5668 N   0  0  0  0  0  0  0  0  0  0  0  0
   24.8823  -23.0573  -11.7825 C   0  0  0  0  0  0  0  0  0  0  0  0
   23.8948  -24.0650  -11.2514 C   0  0  0  0  0  0  0  0  0  0  0  0
   22.5948  -23.3880  -11.7171 C   0  0  0  0  0  0  0  0  0  0  0  0
   22.8496  -21.9479  -11.4780 C   0  0  1  0  0  0  0  0  0  0  0  0
   22.3261  -21.4535  -10.1880 C   0  0  0  0  0  0  0  0  0  0  0  0
   20.9972  -21.2214   -9.9699 O   0  0  0  0  0  0  0  0  0  0  0  0
   23.1454  -21.2409   -9.2601 O   0  0  0  0  0  0  0  0  0  0  0  0
  1  2  1  0
  2  3  1  0
  3  4  1  6
  3  5  1  0
  5  6  2  0
  8  7  1  1
  9  8  1  0
 11 10  1  1
 10  8  1  0
 11 13  1  0
 12  5  1  0
 12 11  1  0
 13 15  1  0
 14 13  2  0
 15 19  1  0
 15 16  1  0
 16 17  1  0
 18 17  1  0
 19 20  1  1
 19 18  1  0
 20 22  2  0
 20 21  1  0
M  END
$$$$
