SLP.pdb
     RDKit          3D

 22 22  0  0  1  0  0  0  0  0999 V2000
   16.0789  -10.0855  -19.1333 O   0  0  0  0  0  0  0  0  0  0  0  0
   16.4311   -9.2136  -18.0887 C   0  0  0  0  0  0  0  0  0  0  0  0
   17.0377  -10.0546  -17.0160 C   0  0  2  0  0  0  0  0  0  0  0  0
   15.9492  -10.7331  -16.3315 N   0  0  0  0  0  0  0  0  0  0  0  0
   17.9001   -9.3319  -16.0668 C   0  0  0  0  0  0  0  0  0  0  0  0
   17.3715   -8.7708  -15.0810 O   0  0  0  0  0  0  0  0  0  0  0  0
   23.2587  -10.1236  -13.8456 C   0  0  0  0  0  0  0  0  0  0  0  0
   22.1456   -9.0585  -13.8967 C   0  0  2  0  0  0  0  0  0  0  0  0
   21.5680   -8.9760  -12.5282 C   0  0  0  0  0  0  0  0  0  0  0  0
   21.2190   -9.5047  -14.9546 C   0  0  0  0  0  0  0  0  0  0  0  0
   20.1064   -8.5265  -15.3215 C   0  0  2  0  0  0  0  0  0  0  0  0
   19.3001   -9.2707  -16.2567 N   0  0  0  0  0  0  0  0  0  0  0  0
   20.5649   -7.2395  -15.7105 C   0  0  0  0  0  0  0  0  0  0  0  0
   21.5325   -7.1542  -16.5385 O   0  0  0  0  0  0  0  0  0  0  0  0
   20.0395   -5.9773  -15.2592 N   0  0  0  0  0  0  0  0  0  0  0  0
   18.9102   -5.7288  -14.4308 C   0  0  0  0  0  0  0  0  0  0  0  0
   19.1446   -4.3864  -13.7860 C   0  0  0  0  0  0  0  0  0  0  0  0
   19.7724   -3.6562  -14.9852 C   0  0  0  0  0  0  0  0  0  0  0  0
   20.6419   -4.6861  -15.6010 C   0  0  1  0  0  0  0  0  0  0  0  0
   22.0521   -4.6168  -15.1662 C   0  0  0  0  0  0  0  0  0  0  0  0
   22.9222   -3.6697  -15.6280 O   0  0  0  0  0  0  0  0  0  0  0  0
   22.4576   -5.4691  -14.3376 O   0  0  0  0  0  0  0  0  0  0  0  0
  1  2  1  0
  2  3  1  0
  3  4  1  1
  3  5  1  0
  5  6  2  0
  8  7  1  1
  9  8  1  0
 11 10  1  6
 10  8  1  0
 11 13  1  0
 12  5  1  0
 12 11  1  0
 13 15  1  0
 14 13  2  0
 15 19  1  0
 15 16  1  0
 16 17  1  0
 18 17  1  0
 19 20  1  1
 19 18  1  0
 20 22  2  0
 20 21  1  0
M  END
$$$$
