SLP.pdb
     RDKit          3D

 22 22  0  0  1  0  0  0  0  0999 V2000
   20.2189  -20.3280  -15.4882 O   0  0  0  0  0  0  0  0  0  0  0  0
   20.3955  -21.4138  -14.6134 C   0  0  0  0  0  0  0  0  0  0  0  0
   20.8388  -20.8434  -13.3080 C   0  0  2  0  0  0  0  0  0  0  0  0
   19.7896  -19.9475  -12.8494 N   0  0  0  0  0  0  0  0  0  0  0  0
   22.1471  -20.1689  -13.3319 C   0  0  0  0  0  0  0  0  0  0  0  0
   22.1800  -18.9185  -13.2937 O   0  0  0  0  0  0  0  0  0  0  0  0
   27.7162  -21.7584  -11.8521 C   0  0  0  0  0  0  0  0  0  0  0  0
   26.9535  -20.6369  -12.5847 C   0  0  2  0  0  0  0  0  0  0  0  0
   27.1835  -19.3866  -11.8122 C   0  0  0  0  0  0  0  0  0  0  0  0
   25.5524  -21.0934  -12.6577 C   0  0  0  0  0  0  0  0  0  0  0  0
   24.6069  -20.2138  -13.4711 C   0  0  2  0  0  0  0  0  0  0  0  0
   23.3483  -20.9127  -13.3936 N   0  0  0  0  0  0  0  0  0  0  0  0
   25.0978  -19.8615  -14.7568 C   0  0  0  0  0  0  0  0  0  0  0  0
   25.1058  -20.7458  -15.6770 O   0  0  0  0  0  0  0  0  0  0  0  0
   25.6034  -18.5720  -15.1499 N   0  0  0  0  0  0  0  0  0  0  0  0
   25.7583  -17.3987  -14.3607 C   0  0  0  0  0  0  0  0  0  0  0  0
   26.8350  -16.5796  -15.0259 C   0  0  0  0  0  0  0  0  0  0  0  0
   26.4544  -16.8385  -16.4934 C   0  0  0  0  0  0  0  0  0  0  0  0
   26.0734  -18.2706  -16.5045 C   0  0  1  0  0  0  0  0  0  0  0  0
   27.1666  -19.1776  -16.9104 C   0  0  0  0  0  0  0  0  0  0  0  0
   27.5498  -19.3369  -18.2124 O   0  0  0  0  0  0  0  0  0  0  0  0
   27.7616  -19.8245  -16.0133 O   0  0  0  0  0  0  0  0  0  0  0  0
  1  2  1  0
  2  3  1  0
  3  4  1  6
  3  5  1  0
  5  6  2  0
  8  7  1  1
  9  8  1  0
 11 10  1  6
 10  8  1  0
 11 13  1  0
 12  5  1  0
 12 11  1  0
 13 15  1  0
 14 13  2  0
 15 19  1  0
 15 16  1  0
 16 17  1  0
 18 17  1  0
 19 20  1  1
 19 18  1  0
 20 22  2  0
 20 21  1  0
M  END
$$$$
