SLP.pdb
     RDKit          3D

 22 22  0  0  1  0  0  0  0  0999 V2000
   18.4060   -8.3584  -19.8398 O   0  0  0  0  0  0  0  0  0  0  0  0
   19.1994   -9.5003  -20.0456 C   0  0  0  0  0  0  0  0  0  0  0  0
   18.9698  -10.3969  -18.8755 C   0  0  2  0  0  0  0  0  0  0  0  0
   17.5826  -10.8291  -18.9281 N   0  0  0  0  0  0  0  0  0  0  0  0
   19.2999   -9.8127  -17.5652 C   0  0  0  0  0  0  0  0  0  0  0  0
   18.3719   -9.5846  -16.7573 O   0  0  0  0  0  0  0  0  0  0  0  0
   23.7314  -10.3753  -13.7699 C   0  0  0  0  0  0  0  0  0  0  0  0
   22.5373   -9.4377  -14.0371 C   0  0  2  0  0  0  0  0  0  0  0  0
   21.5708   -9.6470  -12.9258 C   0  0  0  0  0  0  0  0  0  0  0  0
   22.0487   -9.7930  -15.3832 C   0  0  0  0  0  0  0  0  0  0  0  0
   20.9178   -8.9270  -15.9312 C   0  0  2  0  0  0  0  0  0  0  0  0
   20.6379   -9.5149  -17.2175 N   0  0  0  0  0  0  0  0  0  0  0  0
   21.1718   -7.5305  -15.8756 C   0  0  0  0  0  0  0  0  0  0  0  0
   22.2844   -7.0883  -16.3181 O   0  0  0  0  0  0  0  0  0  0  0  0
   20.2814   -6.5241  -15.3585 N   0  0  0  0  0  0  0  0  0  0  0  0
   18.9447   -6.6719  -14.8952 C   0  0  0  0  0  0  0  0  0  0  0  0
   18.6973   -5.5297  -13.9430 C   0  0  0  0  0  0  0  0  0  0  0  0
   19.4497   -4.4238  -14.7021 C   0  0  0  0  0  0  0  0  0  0  0  0
   20.6563   -5.1150  -15.2143 C   0  0  1  0  0  0  0  0  0  0  0  0
   21.8465   -4.9588  -14.3532 C   0  0  0  0  0  0  0  0  0  0  0  0
   22.1480   -5.8296  -13.3440 O   0  0  0  0  0  0  0  0  0  0  0  0
   22.6058   -3.9814  -14.5661 O   0  0  0  0  0  0  0  0  0  0  0  0
  1  2  1  0
  2  3  1  0
  3  4  1  1
  3  5  1  0
  5  6  2  0
  8  7  1  1
  9  8  1  0
 11 10  1  6
 10  8  1  0
 11 13  1  0
 12  5  1  0
 12 11  1  0
 13 15  1  0
 14 13  2  0
 15 19  1  0
 15 16  1  0
 16 17  1  0
 18 17  1  0
 19 20  1  1
 19 18  1  0
 20 22  2  0
 20 21  1  0
M  END
$$$$
