SLP.pdb
     RDKit          3D

 22 22  0  0  1  0  0  0  0  0999 V2000
   20.2043  -23.0450  -15.2060 O   0  0  0  0  0  0  0  0  0  0  0  0
   20.7689  -21.7607  -15.2917 C   0  0  0  0  0  0  0  0  0  0  0  0
   20.8877  -21.2518  -13.8943 C   0  0  2  0  0  0  0  0  0  0  0  0
   19.7741  -20.3446  -13.6688 N   0  0  0  0  0  0  0  0  0  0  0  0
   22.1736  -20.6135  -13.5682 C   0  0  0  0  0  0  0  0  0  0  0  0
   22.3803  -19.4429  -13.9591 O   0  0  0  0  0  0  0  0  0  0  0  0
   26.7449  -21.6152   -9.7769 C   0  0  0  0  0  0  0  0  0  0  0  0
   26.2280  -20.6789  -10.8870 C   0  0  2  0  0  0  0  0  0  0  0  0
   25.9751  -19.3583  -10.2507 C   0  0  0  0  0  0  0  0  0  0  0  0
   25.0433  -21.3522  -11.4528 C   0  0  0  0  0  0  0  0  0  0  0  0
   24.4916  -20.7553  -12.7445 C   0  0  2  0  0  0  0  0  0  0  0  0
   23.1602  -21.3023  -12.8252 N   0  0  0  0  0  0  0  0  0  0  0  0
   25.3458  -20.9068  -13.8695 C   0  0  0  0  0  0  0  0  0  0  0  0
   25.4998  -22.0689  -14.3743 O   0  0  0  0  0  0  0  0  0  0  0  0
   26.0811  -19.8575  -14.5263 N   0  0  0  0  0  0  0  0  0  0  0  0
   26.2154  -18.4933  -14.1467 C   0  0  0  0  0  0  0  0  0  0  0  0
   27.5017  -18.0063  -14.7640 C   0  0  0  0  0  0  0  0  0  0  0  0
   27.4052  -18.7359  -16.1145 C   0  0  0  0  0  0  0  0  0  0  0  0
   26.8570  -20.0640  -15.7519 C   0  0  1  0  0  0  0  0  0  0  0  0
   27.8870  -21.1071  -15.5689 C   0  0  0  0  0  0  0  0  0  0  0  0
   28.5259  -21.7069  -16.6174 O   0  0  0  0  0  0  0  0  0  0  0  0
   28.1797  -21.4493  -14.3965 O   0  0  0  0  0  0  0  0  0  0  0  0
  1  2  1  0
  2  3  1  0
  3  4  1  6
  3  5  1  0
  5  6  2  0
  8  7  1  1
  9  8  1  0
 11 10  1  1
 10  8  1  0
 11 13  1  0
 12  5  1  0
 12 11  1  0
 13 15  1  0
 14 13  2  0
 15 19  1  0
 15 16  1  0
 16 17  1  0
 18 17  1  0
 19 20  1  1
 19 18  1  0
 20 22  2  0
 20 21  1  0
M  END
$$$$
