RLG.pdb
     RDKit          3D

 24 23  0  0  1  0  0  0  0  0999 V2000
   26.4417  -17.9889  -21.5032 N   0  0  0  0  0  0  0  0  0  0  0  0
   25.1590  -18.5973  -21.2572 C   0  0  0  0  0  0  0  0  0  0  0  0
   24.7639  -19.4815  -22.1009 N   0  0  0  0  0  0  0  0  0  0  0  0
   24.4342  -18.1916  -20.1294 N   0  0  0  0  0  0  0  0  0  0  0  0
   25.0469  -17.2146  -19.2181 C   0  0  0  0  0  0  0  0  0  0  0  0
   25.7212  -17.8957  -18.0799 C   0  0  0  0  0  0  0  0  0  0  0  0
   24.8737  -18.7607  -17.2165 C   0  0  0  0  0  0  0  0  0  0  0  0
   25.5868  -19.3149  -16.0327 C   0  0  2  0  0  0  0  0  0  0  0  0
   26.7670  -20.0841  -16.3540 N   0  0  0  0  0  0  0  0  0  0  0  0
   24.7071  -20.1827  -15.1987 C   0  0  0  0  0  0  0  0  0  0  0  0
   24.2304  -21.2375  -15.6803 O   0  0  0  0  0  0  0  0  0  0  0  0
   23.8526  -19.9586  -22.0608 C   0  0  0  0  0  0  0  0  0  0  0  0
   25.7862  -22.2199  -11.6428 C   0  0  2  0  0  0  0  0  0  0  0  0
   25.3520  -20.7833  -11.2662 C   0  0  0  0  0  0  0  0  0  0  0  0
   25.6475  -20.6394   -9.8182 C   0  0  0  0  0  0  0  0  0  0  0  0
   23.9244  -20.6810  -11.6141 C   0  0  2  0  0  0  0  0  0  0  0  0
   23.5054  -20.7084  -13.0252 N   0  0  0  0  0  0  0  0  0  0  0  0
   24.3778  -19.8620  -13.8556 C   0  0  0  0  0  0  0  0  0  0  0  0
   22.0943  -20.3628  -13.2542 O   0  0  0  0  0  0  0  0  0  0  0  0
   21.6277  -19.1950  -13.2062 N   0  0  0  0  0  0  0  0  0  0  0  0
   21.2048  -21.4441  -13.5671 C   0  0  0  0  0  0  0  0  0  0  0  0
   19.8245  -21.3084  -13.8060 C   0  0  0  0  0  0  0  0  0  0  0  0
   18.8965  -21.3888  -12.6689 O   0  0  0  0  0  0  0  0  0  0  0  0
   17.5241  -21.1393  -12.9476 O   0  0  0  0  0  0  0  0  0  0  0  0
  1  2  1  0
  2  4  1  0
  3  2  2  0
  4  5  1  0
  5  6  1  0
  7  8  1  0
  7  6  1  0
  8  9  1  6
  8 10  1  0
 10 11  2  0
 13 12  1  6
 13 15  1  0
 14 13  1  0
 16 15  1  6
 16 18  1  0
 17 10  1  0
 17 16  1  0
 18 19  2  0
 20 21  1  0
 20 18  1  0
 21 22  1  0
 22 24  2  0
 22 23  1  0
M  END
$$$$
