RLG.pdb
     RDKit          3D

 24 23  0  0  1  0  0  0  0  0999 V2000
   16.2839  -11.1897  -20.5125 N   0  0  0  0  0  0  0  0  0  0  0  0
   16.0433  -12.5548  -20.1193 C   0  0  0  0  0  0  0  0  0  0  0  0
   15.1729  -13.2105  -20.7991 N   0  0  0  0  0  0  0  0  0  0  0  0
   16.7638  -13.0731  -19.0358 N   0  0  0  0  0  0  0  0  0  0  0  0
   17.5579  -12.1469  -18.2162 C   0  0  0  0  0  0  0  0  0  0  0  0
   18.9049  -11.9291  -18.8094 C   0  0  0  0  0  0  0  0  0  0  0  0
   19.7895  -10.9473  -18.1270 C   0  0  0  0  0  0  0  0  0  0  0  0
   20.9056  -11.5700  -17.3633 C   0  0  2  0  0  0  0  0  0  0  0  0
   20.5225  -12.7230  -16.5813 N   0  0  0  0  0  0  0  0  0  0  0  0
   21.5625  -10.6053  -16.4356 C   0  0  0  0  0  0  0  0  0  0  0  0
   21.1812  -10.5244  -15.2441 O   0  0  0  0  0  0  0  0  0  0  0  0
   14.9385  -14.2008  -20.6443 C   0  0  0  0  0  0  0  0  0  0  0  0
   24.9155  -10.5419  -14.1014 C   0  0  2  0  0  0  0  0  0  0  0  0
   25.2986  -10.2772  -15.5769 C   0  0  0  0  0  0  0  0  0  0  0  0
   26.7816  -10.3343  -15.6247 C   0  0  0  0  0  0  0  0  0  0  0  0
   24.7237   -8.9657  -15.9219 C   0  0  2  0  0  0  0  0  0  0  0  0
   23.2629   -8.7846  -15.9478 N   0  0  0  0  0  0  0  0  0  0  0  0
   22.6224   -9.7563  -16.8492 C   0  0  0  0  0  0  0  0  0  0  0  0
   22.8183   -7.4206  -16.2722 O   0  0  0  0  0  0  0  0  0  0  0  0
   23.3809   -6.6652  -17.1066 N   0  0  0  0  0  0  0  0  0  0  0  0
   21.6512   -6.9401  -15.5900 C   0  0  0  0  0  0  0  0  0  0  0  0
   21.0965   -5.6565  -15.7490 C   0  0  0  0  0  0  0  0  0  0  0  0
   19.9419   -5.2753  -14.9231 O   0  0  0  0  0  0  0  0  0  0  0  0
   19.5272   -3.9166  -14.9959 O   0  0  0  0  0  0  0  0  0  0  0  0
  1  2  1  0
  2  4  1  0
  3  2  2  0
  4  5  1  0
  5  6  1  0
  7  8  1  0
  7  6  1  0
  8  9  1  1
  8 10  1  0
 10 11  2  0
 13 12  1  6
 13 15  1  0
 14 13  1  0
 16 15  1  1
 16 18  1  0
 17 10  1  0
 17 16  1  0
 18 19  2  0
 20 21  1  0
 20 18  1  0
 21 22  1  0
 22 24  2  0
 22 23  1  0
M  END
$$$$
