RLG.pdb
     RDKit          3D

 24 23  0  0  1  0  0  0  0  0999 V2000
   22.5097  -20.1344   -6.4405 N   0  0  0  0  0  0  0  0  0  0  0  0
   22.4593  -21.5312   -6.7906 C   0  0  0  0  0  0  0  0  0  0  0  0
   21.3126  -22.1060   -6.7233 N   0  0  0  0  0  0  0  0  0  0  0  0
   23.6472  -22.1648   -7.1768 N   0  0  0  0  0  0  0  0  0  0  0  0
   24.5918  -21.4239   -8.0249 C   0  0  0  0  0  0  0  0  0  0  0  0
   23.9113  -20.8746   -9.2287 C   0  0  0  0  0  0  0  0  0  0  0  0
   24.7730  -20.2155  -10.2460 C   0  0  0  0  0  0  0  0  0  0  0  0
   25.5283  -21.1681  -11.1055 C   0  0  2  0  0  0  0  0  0  0  0  0
   26.9624  -20.9959  -11.0687 N   0  0  0  0  0  0  0  0  0  0  0  0
   25.1106  -21.0928  -12.5346 C   0  0  0  0  0  0  0  0  0  0  0  0
   25.4017  -20.0837  -13.2193 O   0  0  0  0  0  0  0  0  0  0  0  0
   21.1363  -23.0862   -6.9840 C   0  0  0  0  0  0  0  0  0  0  0  0
   26.5141  -22.3141  -16.1423 C   0  0  2  0  0  0  0  0  0  0  0  0
   25.8623  -23.5122  -15.4117 C   0  0  0  0  0  0  0  0  0  0  0  0
   26.2098  -24.7116  -16.2150 C   0  0  0  0  0  0  0  0  0  0  0  0
   24.4209  -23.2166  -15.3426 C   0  0  2  0  0  0  0  0  0  0  0  0
   23.9418  -22.0579  -14.5710 N   0  0  0  0  0  0  0  0  0  0  0  0
   24.3829  -22.1338  -13.1686 C   0  0  0  0  0  0  0  0  0  0  0  0
   22.4896  -21.8343  -14.6357 O   0  0  0  0  0  0  0  0  0  0  0  0
   21.6364  -22.4855  -13.9788 N   0  0  0  0  0  0  0  0  0  0  0  0
   22.0334  -20.7866  -15.5032 C   0  0  0  0  0  0  0  0  0  0  0  0
   20.6843  -20.5162  -15.7993 C   0  0  0  0  0  0  0  0  0  0  0  0
   19.9577  -19.5428  -14.9714 O   0  0  0  0  0  0  0  0  0  0  0  0
   18.6421  -19.2040  -15.3930 O   0  0  0  0  0  0  0  0  0  0  0  0
  1  2  1  0
  2  4  1  0
  3  2  2  0
  4  5  1  0
  5  6  1  0
  7  8  1  0
  7  6  1  0
  8  9  1  6
  8 10  1  0
 10 11  2  0
 13 12  1  1
 13 15  1  0
 14 13  1  0
 16 15  1  6
 16 18  1  0
 17 10  1  0
 17 16  1  0
 18 19  2  0
 20 21  1  0
 20 18  1  0
 21 22  1  0
 22 24  2  0
 22 23  1  0
M  END
$$$$
