RLG.pdb
     RDKit          3D

 24 23  0  0  1  0  0  0  0  0999 V2000
   23.4454  -19.7981  -16.5449 N   0  0  0  0  0  0  0  0  0  0  0  0
   22.2647  -19.3842  -15.8304 C   0  0  0  0  0  0  0  0  0  0  0  0
   21.1519  -19.4317  -16.4701 N   0  0  0  0  0  0  0  0  0  0  0  0
   22.4031  -18.9622  -14.5020 N   0  0  0  0  0  0  0  0  0  0  0  0
   23.7324  -19.0363  -13.8792 C   0  0  0  0  0  0  0  0  0  0  0  0
   24.1932  -20.4468  -13.7700 C   0  0  0  0  0  0  0  0  0  0  0  0
   24.4434  -20.9683  -12.3999 C   0  0  0  0  0  0  0  0  0  0  0  0
   25.7542  -20.5554  -11.8272 C   0  0  2  0  0  0  0  0  0  0  0  0
   26.9017  -20.9914  -12.5894 N   0  0  0  0  0  0  0  0  0  0  0  0
   25.9397  -21.0439  -10.4309 C   0  0  0  0  0  0  0  0  0  0  0  0
   26.1536  -22.2605  -10.2168 O   0  0  0  0  0  0  0  0  0  0  0  0
   20.2320  -19.2301  -16.0543 C   0  0  0  0  0  0  0  0  0  0  0  0
   28.5959  -20.5344   -6.7909 C   0  0  2  0  0  0  0  0  0  0  0  0
   27.7205  -19.3034   -7.1263 C   0  0  0  0  0  0  0  0  0  0  0  0
   28.1520  -18.2348   -6.1900 C   0  0  0  0  0  0  0  0  0  0  0  0
   26.3223  -19.7362   -6.9609 C   0  0  2  0  0  0  0  0  0  0  0  0
   25.7179  -20.6645   -7.9307 N   0  0  0  0  0  0  0  0  0  0  0  0
   25.8837  -20.1756   -9.3093 C   0  0  0  0  0  0  0  0  0  0  0  0
   24.3069  -20.9898   -7.6730 O   0  0  0  0  0  0  0  0  0  0  0  0
   23.3312  -20.2961   -8.0609 N   0  0  0  0  0  0  0  0  0  0  0  0
   24.0432  -22.1938   -6.9387 C   0  0  0  0  0  0  0  0  0  0  0  0
   22.7610  -22.6797   -6.6219 C   0  0  0  0  0  0  0  0  0  0  0  0
   21.9433  -21.9419   -5.6483 O   0  0  0  0  0  0  0  0  0  0  0  0
   20.6784  -22.5049   -5.3219 O   0  0  0  0  0  0  0  0  0  0  0  0
  1  2  1  0
  2  4  1  0
  3  2  2  0
  4  5  1  0
  5  6  1  0
  7  8  1  0
  7  6  1  0
  8  9  1  6
  8 10  1  0
 10 11  2  0
 13 12  1  6
 13 15  1  0
 14 13  1  0
 16 15  1  6
 16 18  1  0
 17 10  1  0
 17 16  1  0
 18 19  2  0
 20 21  1  0
 20 18  1  0
 21 22  1  0
 22 24  2  0
 22 23  1  0
M  END
$$$$
