RLG.pdb
     RDKit          3D

 24 23  0  0  1  0  0  0  0  0999 V2000
   28.0105  -17.4412  -18.2901 N   0  0  0  0  0  0  0  0  0  0  0  0
   27.4262  -16.1313  -18.1532 C   0  0  0  0  0  0  0  0  0  0  0  0
   27.6418  -15.2965  -19.1052 N   0  0  0  0  0  0  0  0  0  0  0  0
   26.6706  -15.8551  -17.0067 N   0  0  0  0  0  0  0  0  0  0  0  0
   26.3069  -16.9715  -16.1225 C   0  0  0  0  0  0  0  0  0  0  0  0
   24.8862  -17.3675  -16.3190 C   0  0  0  0  0  0  0  0  0  0  0  0
   24.5988  -18.8247  -16.3962 C   0  0  0  0  0  0  0  0  0  0  0  0
   25.4277  -19.6525  -15.4773 C   0  0  2  0  0  0  0  0  0  0  0  0
   26.3255  -20.5668  -16.1450 N   0  0  0  0  0  0  0  0  0  0  0  0
   24.5964  -20.4571  -14.5370 C   0  0  0  0  0  0  0  0  0  0  0  0
   24.0427  -21.5092  -14.9345 O   0  0  0  0  0  0  0  0  0  0  0  0
   27.3382  -14.3129  -19.0973 C   0  0  0  0  0  0  0  0  0  0  0  0
   25.9275  -22.3090  -10.8746 C   0  0  2  0  0  0  0  0  0  0  0  0
   25.5369  -20.8384  -10.5943 C   0  0  0  0  0  0  0  0  0  0  0  0
   25.9201  -20.5815   -9.1829 C   0  0  0  0  0  0  0  0  0  0  0  0
   24.0927  -20.7378  -10.8658 C   0  0  2  0  0  0  0  0  0  0  0  0
   23.5902  -20.8708  -12.2433 N   0  0  0  0  0  0  0  0  0  0  0  0
   24.3992  -20.0776  -13.1833 C   0  0  0  0  0  0  0  0  0  0  0  0
   22.1632  -20.5564  -12.4101 O   0  0  0  0  0  0  0  0  0  0  0  0
   21.7010  -19.3971  -12.5714 N   0  0  0  0  0  0  0  0  0  0  0  0
   21.2504  -21.6632  -12.3997 C   0  0  0  0  0  0  0  0  0  0  0  0
   19.8480  -21.5511  -12.4389 C   0  0  0  0  0  0  0  0  0  0  0  0
   19.1873  -21.3651  -13.7387 O   0  0  0  0  0  0  0  0  0  0  0  0
   18.0279  -20.5410  -13.7520 O   0  0  0  0  0  0  0  0  0  0  0  0
  1  2  1  0
  2  4  1  0
  3  2  2  0
  4  5  1  0
  5  6  1  0
  7  8  1  0
  7  6  1  0
  8  9  1  6
  8 10  1  0
 10 11  2  0
 13 12  1  6
 13 15  1  0
 14 13  1  0
 16 15  1  6
 16 18  1  0
 17 10  1  0
 17 16  1  0
 18 19  2  0
 20 21  1  0
 20 18  1  0
 21 22  1  0
 22 24  2  0
 22 23  1  0
M  END
$$$$
