RLG.pdb
     RDKit          3D

 24 23  0  0  1  0  0  0  0  0999 V2000
   23.6817  -19.5720  -18.5404 N   0  0  0  0  0  0  0  0  0  0  0  0
   23.4025  -18.4703  -17.6548 C   0  0  0  0  0  0  0  0  0  0  0  0
   22.1819  -18.3164  -17.2857 N   0  0  0  0  0  0  0  0  0  0  0  0
   24.4650  -17.6484  -17.2579 N   0  0  0  0  0  0  0  0  0  0  0  0
   25.8320  -18.0472  -17.6221 C   0  0  0  0  0  0  0  0  0  0  0  0
   26.3286  -19.1290  -16.7293 C   0  0  0  0  0  0  0  0  0  0  0  0
   26.9723  -18.7077  -15.4565 C   0  0  0  0  0  0  0  0  0  0  0  0
   27.5572  -19.8321  -14.6752 C   0  0  2  0  0  0  0  0  0  0  0  0
   28.3195  -20.7728  -15.4637 N   0  0  0  0  0  0  0  0  0  0  0  0
   26.5187  -20.6102  -13.9412 C   0  0  0  0  0  0  0  0  0  0  0  0
   26.2749  -21.7948  -14.2710 O   0  0  0  0  0  0  0  0  0  0  0  0
   21.8835  -17.7421  -16.4852 C   0  0  0  0  0  0  0  0  0  0  0  0
   25.8513  -19.9798   -8.3892 C   0  0  1  0  0  0  0  0  0  0  0  0
   25.7734  -20.9854   -9.5625 C   0  0  0  0  0  0  0  0  0  0  0  0
   27.1789  -21.2439   -9.9657 C   0  0  0  0  0  0  0  0  0  0  0  0
   24.9459  -20.3444  -10.5989 C   0  0  2  0  0  0  0  0  0  0  0  0
   24.9396  -20.8768  -11.9715 N   0  0  0  0  0  0  0  0  0  0  0  0
   25.7780  -20.0587  -12.8631 C   0  0  0  0  0  0  0  0  0  0  0  0
   23.6016  -21.0563  -12.5550 O   0  0  0  0  0  0  0  0  0  0  0  0
   22.6761  -21.7266  -12.0280 N   0  0  0  0  0  0  0  0  0  0  0  0
   23.3473  -20.4020  -13.8063 C   0  0  0  0  0  0  0  0  0  0  0  0
   22.1584  -20.5200  -14.5500 C   0  0  0  0  0  0  0  0  0  0  0  0
   21.0025  -19.6927  -14.1759 O   0  0  0  0  0  0  0  0  0  0  0  0
   19.9199  -19.6560  -15.0980 O   0  0  0  0  0  0  0  0  0  0  0  0
  1  2  1  0
  2  4  1  0
  3  2  2  0
  4  5  1  0
  5  6  1  0
  7  8  1  0
  7  6  1  0
  8  9  1  6
  8 10  1  0
 10 11  2  0
 13 12  1  1
 13 15  1  0
 14 13  1  0
 16 15  1  1
 16 18  1  0
 17 10  1  0
 17 16  1  0
 18 19  2  0
 20 21  1  0
 20 18  1  0
 21 22  1  0
 22 24  2  0
 22 23  1  0
M  END
$$$$
