RLG.pdb
     RDKit          3D

 24 23  0  0  1  0  0  0  0  0999 V2000
   27.9426  -20.5724  -18.8414 N   0  0  0  0  0  0  0  0  0  0  0  0
   27.0499  -21.6392  -18.4659 C   0  0  0  0  0  0  0  0  0  0  0  0
   26.7726  -22.5097  -19.3688 N   0  0  0  0  0  0  0  0  0  0  0  0
   26.5480  -21.6593  -17.1584 N   0  0  0  0  0  0  0  0  0  0  0  0
   26.7741  -20.4849  -16.3040 C   0  0  0  0  0  0  0  0  0  0  0  0
   27.8889  -20.7260  -15.3486 C   0  0  0  0  0  0  0  0  0  0  0  0
   27.5315  -21.3274  -14.0361 C   0  0  0  0  0  0  0  0  0  0  0  0
   26.6474  -20.4693  -13.2002 C   0  0  2  0  0  0  0  0  0  0  0  0
   27.0235  -19.0745  -13.1723 N   0  0  0  0  0  0  0  0  0  0  0  0
   26.5792  -20.9370  -11.7862 C   0  0  0  0  0  0  0  0  0  0  0  0
   26.6247  -22.1633  -11.5298 O   0  0  0  0  0  0  0  0  0  0  0  0
   26.0968  -23.2771  -19.2500 C   0  0  0  0  0  0  0  0  0  0  0  0
   28.1493  -19.4736   -6.4989 C   0  0  1  0  0  0  0  0  0  0  0  0
   27.6711  -20.4376   -7.6106 C   0  0  0  0  0  0  0  0  0  0  0  0
   28.8546  -20.6744   -8.4754 C   0  0  0  0  0  0  0  0  0  0  0  0
   26.5456  -19.7650   -8.2818 C   0  0  2  0  0  0  0  0  0  0  0  0
   25.8594  -20.4209   -9.4071 N   0  0  0  0  0  0  0  0  0  0  0  0
   26.4626  -20.0376  -10.6941 C   0  0  0  0  0  0  0  0  0  0  0  0
   24.4040  -20.2120   -9.4456 O   0  0  0  0  0  0  0  0  0  0  0  0
   23.7284  -19.7152   -8.5075 N   0  0  0  0  0  0  0  0  0  0  0  0
   23.7263  -20.5943  -10.6510 C   0  0  0  0  0  0  0  0  0  0  0  0
   22.3528  -20.4098  -10.8959 C   0  0  0  0  0  0  0  0  0  0  0  0
   21.8143  -20.7617  -12.2176 O   0  0  0  0  0  0  0  0  0  0  0  0
   20.4373  -20.4824  -12.4397 O   0  0  0  0  0  0  0  0  0  0  0  0
  1  2  1  0
  2  4  1  0
  3  2  2  0
  4  5  1  0
  5  6  1  0
  7  8  1  0
  7  6  1  0
  8  9  1  1
  8 10  1  0
 10 11  2  0
 13 12  1  1
 13 15  1  0
 14 13  1  0
 16 15  1  1
 16 18  1  0
 17 10  1  0
 17 16  1  0
 18 19  2  0
 20 21  1  0
 20 18  1  0
 21 22  1  0
 22 24  2  0
 22 23  1  0
M  END
$$$$
