RLG.pdb
     RDKit          3D

 24 23  0  0  1  0  0  0  0  0999 V2000
   22.0411  -20.0187  -15.0392 N   0  0  0  0  0  0  0  0  0  0  0  0
   21.0993  -19.9620  -13.9504 C   0  0  0  0  0  0  0  0  0  0  0  0
   19.8837  -20.2804  -14.2163 N   0  0  0  0  0  0  0  0  0  0  0  0
   21.5624  -19.5688  -12.6883 N   0  0  0  0  0  0  0  0  0  0  0  0
   22.9793  -19.7869  -12.3637 C   0  0  0  0  0  0  0  0  0  0  0  0
   23.1521  -20.9936  -11.5104 C   0  0  0  0  0  0  0  0  0  0  0  0
   24.5410  -21.3359  -11.1033 C   0  0  0  0  0  0  0  0  0  0  0  0
   25.4357  -20.1546  -10.9586 C   0  0  2  0  0  0  0  0  0  0  0  0
   26.1499  -19.7967  -12.1626 N   0  0  0  0  0  0  0  0  0  0  0  0
   26.4501  -20.3428   -9.8824 C   0  0  0  0  0  0  0  0  0  0  0  0
   27.4750  -21.0305  -10.1019 O   0  0  0  0  0  0  0  0  0  0  0  0
   19.1253  -20.3153  -13.5211 C   0  0  0  0  0  0  0  0  0  0  0  0
   28.7076  -18.1374   -4.7718 C   0  0  1  0  0  0  0  0  0  0  0  0
   28.4086  -19.5070   -5.4265 C   0  0  0  0  0  0  0  0  0  0  0  0
   29.7260  -20.1721   -5.5895 C   0  0  0  0  0  0  0  0  0  0  0  0
   27.7085  -19.2148   -6.6891 C   0  0  2  0  0  0  0  0  0  0  0  0
   26.9987  -20.2882   -7.4045 N   0  0  0  0  0  0  0  0  0  0  0  0
   26.3048  -19.7664   -8.5933 C   0  0  0  0  0  0  0  0  0  0  0  0
   26.0687  -21.0691   -6.5749 O   0  0  0  0  0  0  0  0  0  0  0  0
   24.8960  -20.7138   -6.2883 N   0  0  0  0  0  0  0  0  0  0  0  0
   26.5444  -22.3282   -6.0782 C   0  0  0  0  0  0  0  0  0  0  0  0
   25.8291  -23.1737   -5.2097 C   0  0  0  0  0  0  0  0  0  0  0  0
   25.5427  -22.7099   -3.8446 O   0  0  0  0  0  0  0  0  0  0  0  0
   24.9292  -23.6477   -2.9685 O   0  0  0  0  0  0  0  0  0  0  0  0
  1  2  1  0
  2  4  1  0
  3  2  2  0
  4  5  1  0
  5  6  1  0
  7  8  1  0
  7  6  1  0
  8  9  1  6
  8 10  1  0
 10 11  2  0
 13 12  1  1
 13 15  1  0
 14 13  1  0
 16 15  1  6
 16 18  1  0
 17 10  1  0
 17 16  1  0
 18 19  2  0
 20 21  1  0
 20 18  1  0
 21 22  1  0
 22 24  2  0
 22 23  1  0
M  END
$$$$
