RLG.pdb
     RDKit          3D

 24 23  0  0  1  0  0  0  0  0999 V2000
   15.5939  -12.8652  -18.2929 N   0  0  0  0  0  0  0  0  0  0  0  0
   15.8166  -13.1343  -16.8951 C   0  0  0  0  0  0  0  0  0  0  0  0
   14.7747  -13.2820  -16.1586 N   0  0  0  0  0  0  0  0  0  0  0  0
   17.1367  -13.2167  -16.4342 N   0  0  0  0  0  0  0  0  0  0  0  0
   18.2279  -12.9914  -17.3928 C   0  0  0  0  0  0  0  0  0  0  0  0
   19.5547  -13.1655  -16.7424 C   0  0  0  0  0  0  0  0  0  0  0  0
   20.7546  -12.9440  -17.5927 C   0  0  0  0  0  0  0  0  0  0  0  0
   22.0416  -13.2612  -16.9145 C   0  0  2  0  0  0  0  0  0  0  0  0
   21.9925  -14.4220  -16.0555 N   0  0  0  0  0  0  0  0  0  0  0  0
   22.5419  -12.1233  -16.0915 C   0  0  0  0  0  0  0  0  0  0  0  0
   22.1086  -11.9550  -14.9272 O   0  0  0  0  0  0  0  0  0  0  0  0
   14.7979  -13.5280  -15.1593 C   0  0  0  0  0  0  0  0  0  0  0  0
   26.5485  -10.9897  -14.4791 C   0  0  2  0  0  0  0  0  0  0  0  0
   26.3607  -10.7053  -15.9883 C   0  0  0  0  0  0  0  0  0  0  0  0
   27.6962  -10.2939  -16.4902 C   0  0  0  0  0  0  0  0  0  0  0  0
   25.3222   -9.6651  -16.0844 C   0  0  2  0  0  0  0  0  0  0  0  0
   23.9131  -10.0036  -15.8249 N   0  0  0  0  0  0  0  0  0  0  0  0
   23.5069  -11.2022  -16.5769 C   0  0  0  0  0  0  0  0  0  0  0  0
   22.9632   -8.9067  -16.0650 O   0  0  0  0  0  0  0  0  0  0  0  0
   22.4243   -8.6581  -17.1747 N   0  0  0  0  0  0  0  0  0  0  0  0
   22.6285   -8.0815  -14.9402 C   0  0  0  0  0  0  0  0  0  0  0  0
   21.6217   -7.0981  -14.9338 C   0  0  0  0  0  0  0  0  0  0  0  0
   21.7874   -5.9077  -15.7801 O   0  0  0  0  0  0  0  0  0  0  0  0
   20.8101   -4.8839  -15.6381 O   0  0  0  0  0  0  0  0  0  0  0  0
  1  2  1  0
  2  4  1  0
  3  2  2  0
  4  5  1  0
  5  6  1  0
  7  8  1  0
  7  6  1  0
  8  9  1  1
  8 10  1  0
 10 11  2  0
 13 12  1  6
 13 15  1  0
 14 13  1  0
 16 15  1  1
 16 18  1  0
 17 10  1  0
 17 16  1  0
 18 19  2  0
 20 21  1  0
 20 18  1  0
 21 22  1  0
 22 24  2  0
 22 23  1  0
M  END
$$$$
