QRY.pdb
     RDKit          3D

 33 33  0  0  1  0  0  0  0  0999 V2000
   24.4881  -18.5148  -17.7969 N   0  0  0  0  0  0  0  0  0  0  0  0
   25.2442  -19.2716  -18.7107 C   0  0  0  0  0  0  0  0  0  0  0  0
   24.6670  -19.9992  -19.5605 O   0  0  0  0  0  0  0  0  0  0  0  0
   26.7392  -19.2533  -18.7216 C   0  0  0  0  0  0  0  0  0  0  0  0
   27.2970  -20.5284  -19.2539 C   0  0  0  0  0  0  0  0  0  0  0  0
   27.5310  -21.5310  -18.2153 C   0  0  2  0  0  0  0  0  0  0  0  0
   28.0210  -22.7970  -18.7431 N   0  0  0  0  0  0  0  0  0  0  0  0
   26.6597  -21.6414  -17.0611 C   0  0  0  0  0  0  0  0  0  0  0  0
   25.6413  -22.4416  -17.1646 O   0  0  0  0  0  0  0  0  0  0  0  0
   23.5142  -20.0035  -10.6051 N   0  0  0  0  0  0  0  0  0  0  0  0
   24.1329  -20.7693   -9.5826 C   0  0  0  0  0  0  0  0  0  0  0  0
   23.5006  -21.0471   -8.4958 N   0  0  0  0  0  0  0  0  0  0  0  0
   25.4583  -21.2460   -9.7377 N   0  0  0  0  0  0  0  0  0  0  0  0
   26.2997  -20.9984  -10.8874 C   0  0  0  0  0  0  0  0  0  0  0  0
   25.5915  -21.2415  -12.1813 C   0  0  0  0  0  0  0  0  0  0  0  0
   26.4225  -21.0283  -13.3869 C   0  0  0  0  0  0  0  0  0  0  0  0
   25.8115  -21.2947  -14.7116 C   0  0  2  0  0  0  0  0  0  0  0  0
   26.7365  -20.9971  -15.8092 N   0  0  0  0  0  0  0  0  0  0  0  0
   24.5612  -20.5144  -14.8585 C   0  0  0  0  0  0  0  0  0  0  0  0
   24.6488  -19.2732  -14.9783 O   0  0  0  0  0  0  0  0  0  0  0  0
   23.9474  -21.6790   -7.7998 O   0  0  0  0  0  0  0  0  0  0  0  0
   19.1342  -25.8104  -16.2728 C   0  0  0  0  0  0  0  0  0  0  0  0
   19.6853  -24.5382  -16.2975 C   0  0  0  0  0  0  0  0  0  0  0  0
   20.9344  -24.3225  -16.8343 C   0  0  0  0  0  0  0  0  0  0  0  0
   21.5002  -23.0664  -16.8684 C   0  0  0  0  0  0  0  0  0  0  0  0
   20.8315  -21.9485  -16.3581 C   0  0  0  0  0  0  0  0  0  0  0  0
   21.4347  -20.6012  -16.3839 C   0  0  1  0  0  0  0  0  0  0  0  0
   22.1112  -20.2433  -15.0911 N   0  0  0  0  0  0  0  0  0  0  0  0
   23.2783  -21.1008  -14.8706 C   0  0  0  0  0  0  0  0  0  0  0  0
   21.2013  -20.4128  -13.9554 O   0  0  0  0  0  0  0  0  0  0  0  0
   21.4690  -21.3325  -12.9630 C   0  0  0  0  0  0  0  0  0  0  0  0
   19.5777  -22.1954  -15.8250 C   0  0  0  0  0  0  0  0  0  0  0  0
   19.0141  -23.4454  -15.7909 O   0  0  0  0  0  0  0  0  0  0  0  0
  2  3  2  0
  2  1  1  0
  4  2  1  0
  5  6  1  0
  5  4  1  0
  6  8  1  0
  6  7  1  6
  8 18  1  0
  8  9  2  0
 10 11  1  0
 11 12  2  0
 13 11  1  0
 14 13  1  0
 15 14  1  0
 16 15  1  0
 17 19  1  0
 17 16  1  1
 18 17  1  0
 19 20  2  0
 21 22  1  0
 22 23  2  0
 22 32  1  0
 23 24  1  0
 24 25  2  0
 25 26  1  0
 27 26  1  6
 27 28  1  0
 28 19  1  0
 29 27  1  0
 30 29  1  0
 31 25  1  0
 32 31  2  0
 33 29  2  0
M  END
$$$$
