QRY.pdb
     RDKit          3D

 33 33  0  0  1  0  0  0  0  0999 V2000
   23.0285  -16.1571  -20.8114 N   0  0  0  0  0  0  0  0  0  0  0  0
   24.2348  -16.2701  -21.5266 C   0  0  0  0  0  0  0  0  0  0  0  0
   24.2888  -15.9240  -22.7357 O   0  0  0  0  0  0  0  0  0  0  0  0
   25.4886  -16.7954  -20.9039 C   0  0  0  0  0  0  0  0  0  0  0  0
   25.3050  -17.0644  -19.4499 C   0  0  0  0  0  0  0  0  0  0  0  0
   25.8023  -18.3776  -19.0412 C   0  0  2  0  0  0  0  0  0  0  0  0
   26.8402  -18.8953  -19.9223 N   0  0  0  0  0  0  0  0  0  0  0  0
   24.9174  -19.3791  -18.4778 C   0  0  0  0  0  0  0  0  0  0  0  0
   23.6469  -19.2444  -18.7140 O   0  0  0  0  0  0  0  0  0  0  0  0
   28.0874  -26.8867  -15.9364 N   0  0  0  0  0  0  0  0  0  0  0  0
   28.7646  -25.6403  -15.9889 C   0  0  0  0  0  0  0  0  0  0  0  0
   30.0437  -25.5812  -15.8540 N   0  0  0  0  0  0  0  0  0  0  0  0
   28.0471  -24.4356  -16.1933 N   0  0  0  0  0  0  0  0  0  0  0  0
   26.6410  -24.3527  -16.5202 C   0  0  0  0  0  0  0  0  0  0  0  0
   26.1725  -22.9434  -16.6919 C   0  0  0  0  0  0  0  0  0  0  0  0
   24.7381  -22.8086  -17.0287 C   0  0  0  0  0  0  0  0  0  0  0  0
   24.1924  -21.4437  -17.2241 C   0  0  2  0  0  0  0  0  0  0  0  0
   25.2201  -20.5058  -17.6858 N   0  0  0  0  0  0  0  0  0  0  0  0
   23.5741  -20.9611  -15.9677 C   0  0  0  0  0  0  0  0  0  0  0  0
   24.2934  -20.3429  -15.1534 O   0  0  0  0  0  0  0  0  0  0  0  0
   30.5158  -24.6561  -15.9215 O   0  0  0  0  0  0  0  0  0  0  0  0
   18.1481  -16.5230  -17.6972 C   0  0  0  0  0  0  0  0  0  0  0  0
   19.0383  -17.1716  -16.8548 C   0  0  0  0  0  0  0  0  0  0  0  0
   20.3558  -17.3383  -17.2167 C   0  0  0  0  0  0  0  0  0  0  0  0
   21.2565  -17.9799  -16.3945 C   0  0  0  0  0  0  0  0  0  0  0  0
   20.8745  -18.4938  -15.1506 C   0  0  0  0  0  0  0  0  0  0  0  0
   21.8319  -19.1894  -14.2679 C   0  0  1  0  0  0  0  0  0  0  0  0
   21.7181  -20.6851  -14.3524 N   0  0  0  0  0  0  0  0  0  0  0  0
   22.2160  -21.1632  -15.6445 C   0  0  0  0  0  0  0  0  0  0  0  0
   20.3249  -21.1164  -14.2140 O   0  0  0  0  0  0  0  0  0  0  0  0
   19.6202  -20.8779  -13.0526 C   0  0  0  0  0  0  0  0  0  0  0  0
   19.5441  -18.3114  -14.8130 C   0  0  0  0  0  0  0  0  0  0  0  0
   18.6473  -17.6727  -15.6311 O   0  0  0  0  0  0  0  0  0  0  0  0
  2  3  2  0
  2  1  1  0
  4  2  1  0
  5  6  1  0
  5  4  1  0
  6  8  1  0
  6  7  1  6
  8 18  1  0
  8  9  2  0
 10 11  1  0
 11 12  2  0
 13 11  1  0
 14 13  1  0
 15 14  1  0
 16 15  1  0
 17 19  1  0
 17 16  1  1
 18 17  1  0
 19 20  2  0
 21 22  1  0
 22 23  2  0
 22 32  1  0
 23 24  1  0
 24 25  2  0
 25 26  1  0
 27 26  1  1
 27 28  1  0
 28 19  1  0
 29 27  1  0
 30 29  1  0
 31 25  1  0
 32 31  2  0
 33 29  2  0
M  END
$$$$
