QRY.pdb
     RDKit          3D

 33 33  0  0  1  0  0  0  0  0999 V2000
   26.5742  -13.5633  -14.8875 N   0  0  0  0  0  0  0  0  0  0  0  0
   25.4597  -13.6770  -15.7387 C   0  0  0  0  0  0  0  0  0  0  0  0
   24.3071  -13.4044  -15.3126 O   0  0  0  0  0  0  0  0  0  0  0  0
   25.5813  -14.1179  -17.1623 C   0  0  0  0  0  0  0  0  0  0  0  0
   25.0950  -15.5145  -17.3447 C   0  0  0  0  0  0  0  0  0  0  0  0
   26.1441  -16.5168  -17.1615 C   0  0  2  0  0  0  0  0  0  0  0  0
   27.0043  -16.6635  -18.3277 N   0  0  0  0  0  0  0  0  0  0  0  0
   25.9009  -17.7385  -16.4186 C   0  0  0  0  0  0  0  0  0  0  0  0
   25.3659  -18.7281  -17.0686 O   0  0  0  0  0  0  0  0  0  0  0  0
   29.1452  -21.1854   -9.1849 N   0  0  0  0  0  0  0  0  0  0  0  0
   29.3292  -21.6389  -10.5173 C   0  0  0  0  0  0  0  0  0  0  0  0
   30.4196  -22.2281  -10.8662 N   0  0  0  0  0  0  0  0  0  0  0  0
   28.3157  -21.4547  -11.4903 N   0  0  0  0  0  0  0  0  0  0  0  0
   26.9659  -21.0182  -11.2099 C   0  0  0  0  0  0  0  0  0  0  0  0
   26.1589  -20.8110  -12.4512 C   0  0  0  0  0  0  0  0  0  0  0  0
   26.4761  -19.5695  -13.1911 C   0  0  0  0  0  0  0  0  0  0  0  0
   25.7224  -19.2877  -14.4367 C   0  0  2  0  0  0  0  0  0  0  0  0
   26.1521  -18.0338  -15.0629 N   0  0  0  0  0  0  0  0  0  0  0  0
   24.2690  -19.2564  -14.1529 C   0  0  0  0  0  0  0  0  0  0  0  0
   23.7727  -18.1925  -13.7232 O   0  0  0  0  0  0  0  0  0  0  0  0
   30.5448  -22.5097  -11.8604 O   0  0  0  0  0  0  0  0  0  0  0  0
   17.0778  -16.2438  -12.8223 C   0  0  0  0  0  0  0  0  0  0  0  0
   18.1427  -16.9386  -13.3756 C   0  0  0  0  0  0  0  0  0  0  0  0
   19.3398  -17.0434  -12.7043 C   0  0  0  0  0  0  0  0  0  0  0  0
   20.4102  -17.7291  -13.2364 C   0  0  0  0  0  0  0  0  0  0  0  0
   20.3316  -18.3522  -14.4865 C   0  0  0  0  0  0  0  0  0  0  0  0
   21.4767  -19.0817  -15.0665 C   0  0  2  0  0  0  0  0  0  0  0  0
   21.9738  -20.1845  -14.1757 N   0  0  0  0  0  0  0  0  0  0  0  0
   23.4179  -20.3650  -14.3432 C   0  0  0  0  0  0  0  0  0  0  0  0
   21.3170  -21.4550  -14.4929 O   0  0  0  0  0  0  0  0  0  0  0  0
   20.0555  -21.7406  -14.0139 C   0  0  0  0  0  0  0  0  0  0  0  0
   19.1161  -18.2305  -15.1384 C   0  0  0  0  0  0  0  0  0  0  0  0
   18.0504  -17.5483  -14.6090 O   0  0  0  0  0  0  0  0  0  0  0  0
  2  3  2  0
  2  1  1  0
  4  2  1  0
  5  6  1  0
  5  4  1  0
  6  8  1  0
  6  7  1  6
  8 18  1  0
  8  9  2  0
 10 11  1  0
 11 12  2  0
 13 11  1  0
 14 13  1  0
 15 14  1  0
 16 15  1  0
 17 19  1  0
 17 16  1  1
 18 17  1  0
 19 20  2  0
 21 22  1  0
 22 23  2  0
 22 32  1  0
 23 24  1  0
 24 25  2  0
 25 26  1  0
 27 26  1  1
 27 28  1  0
 28 19  1  0
 29 27  1  0
 30 29  1  0
 31 25  1  0
 32 31  2  0
 33 29  2  0
M  END
$$$$
