QRY.pdb
     RDKit          3D

 33 33  0  0  1  0  0  0  0  0999 V2000
   30.0009  -16.3999  -18.2576 N   0  0  0  0  0  0  0  0  0  0  0  0
   29.2100  -15.3728  -18.8044 C   0  0  0  0  0  0  0  0  0  0  0  0
   29.7323  -14.2724  -19.1220 O   0  0  0  0  0  0  0  0  0  0  0  0
   27.7405  -15.5289  -19.0320 C   0  0  0  0  0  0  0  0  0  0  0  0
   27.2566  -16.8635  -18.5796 C   0  0  0  0  0  0  0  0  0  0  0  0
   27.1787  -17.8437  -19.6622 C   0  0  2  0  0  0  0  0  0  0  0  0
   26.4150  -17.3699  -20.8084 N   0  0  0  0  0  0  0  0  0  0  0  0
   27.0622  -19.2635  -19.3894 C   0  0  0  0  0  0  0  0  0  0  0  0
   25.9148  -19.8201  -19.6377 O   0  0  0  0  0  0  0  0  0  0  0  0
   32.6859  -25.5898  -17.0033 N   0  0  0  0  0  0  0  0  0  0  0  0
   31.9341  -24.8435  -16.0585 C   0  0  0  0  0  0  0  0  0  0  0  0
   32.4042  -24.6079  -14.8832 N   0  0  0  0  0  0  0  0  0  0  0  0
   30.6517  -24.3401  -16.3901 N   0  0  0  0  0  0  0  0  0  0  0  0
   29.9903  -24.5280  -17.6623 C   0  0  0  0  0  0  0  0  0  0  0  0
   28.7242  -23.7408  -17.7740 C   0  0  0  0  0  0  0  0  0  0  0  0
   28.8965  -22.3707  -18.3052 C   0  0  0  0  0  0  0  0  0  0  0  0
   27.6833  -21.5410  -18.5025 C   0  0  2  0  0  0  0  0  0  0  0  0
   28.0186  -20.1639  -18.8769 N   0  0  0  0  0  0  0  0  0  0  0  0
   26.8525  -21.5595  -17.2765 C   0  0  0  0  0  0  0  0  0  0  0  0
   27.2783  -20.9627  -16.2639 O   0  0  0  0  0  0  0  0  0  0  0  0
   31.8044  -24.1161  -14.1893 O   0  0  0  0  0  0  0  0  0  0  0  0
   20.7227  -19.9640  -11.4876 C   0  0  0  0  0  0  0  0  0  0  0  0
   21.6437  -20.1347  -12.5100 C   0  0  0  0  0  0  0  0  0  0  0  0
   22.9954  -20.0718  -12.2576 C   0  0  0  0  0  0  0  0  0  0  0  0
   23.9272  -20.2386  -13.2591 C   0  0  0  0  0  0  0  0  0  0  0  0
   23.5435  -20.4799  -14.5827 C   0  0  0  0  0  0  0  0  0  0  0  0
   24.5358  -20.6515  -15.6623 C   0  0  1  0  0  0  0  0  0  0  0  0
   24.8244  -22.0952  -15.9613 N   0  0  0  0  0  0  0  0  0  0  0  0
   25.6064  -22.2153  -17.1943 C   0  0  0  0  0  0  0  0  0  0  0  0
   23.5843  -22.8560  -16.1335 O   0  0  0  0  0  0  0  0  0  0  0  0
   22.8733  -23.3105  -15.0424 C   0  0  0  0  0  0  0  0  0  0  0  0
   22.1784  -20.5382  -14.8068 C   0  0  0  0  0  0  0  0  0  0  0  0
   21.2507  -20.3724  -13.8102 O   0  0  0  0  0  0  0  0  0  0  0  0
  2  3  2  0
  2  1  1  0
  4  2  1  0
  5  6  1  0
  5  4  1  0
  6  8  1  0
  6  7  1  6
  8 18  1  0
  8  9  2  0
 10 11  1  0
 11 12  2  0
 13 11  1  0
 14 13  1  0
 15 14  1  0
 16 15  1  0
 17 19  1  0
 17 16  1  1
 18 17  1  0
 19 20  2  0
 21 22  1  0
 22 23  2  0
 22 32  1  0
 23 24  1  0
 24 25  2  0
 25 26  1  0
 27 26  1  1
 27 28  1  0
 28 19  1  0
 29 27  1  0
 30 29  1  0
 31 25  1  0
 32 31  2  0
 33 29  2  0
M  END
$$$$
