QRY.pdb
     RDKit          3D

 33 33  0  0  1  0  0  0  0  0999 V2000
   25.1152  -26.9152  -17.8413 N   0  0  0  0  0  0  0  0  0  0  0  0
   26.3104  -27.5547  -18.2181 C   0  0  0  0  0  0  0  0  0  0  0  0
   26.3276  -28.3321  -19.2080 O   0  0  0  0  0  0  0  0  0  0  0  0
   27.5947  -27.3507  -17.4803 C   0  0  0  0  0  0  0  0  0  0  0  0
   27.4604  -26.3027  -16.4297 C   0  0  0  0  0  0  0  0  0  0  0  0
   28.1233  -25.0476  -16.7819 C   0  0  2  0  0  0  0  0  0  0  0  0
   29.5738  -25.1159  -16.6680 N   0  0  0  0  0  0  0  0  0  0  0  0
   27.5392  -23.7636  -16.4445 C   0  0  0  0  0  0  0  0  0  0  0  0
   27.9540  -23.1950  -15.3524 O   0  0  0  0  0  0  0  0  0  0  0  0
   26.1235  -16.7453  -20.9794 N   0  0  0  0  0  0  0  0  0  0  0  0
   27.1421  -17.5365  -20.3867 C   0  0  0  0  0  0  0  0  0  0  0  0
   28.3280  -17.5637  -20.8873 N   0  0  0  0  0  0  0  0  0  0  0  0
   26.8754  -18.3109  -19.2303 N   0  0  0  0  0  0  0  0  0  0  0  0
   25.5985  -18.3811  -18.5553 C   0  0  0  0  0  0  0  0  0  0  0  0
   25.6101  -19.3303  -17.4003 C   0  0  0  0  0  0  0  0  0  0  0  0
   26.0761  -20.6952  -17.7303 C   0  0  0  0  0  0  0  0  0  0  0  0
   26.0925  -21.7079  -16.6472 C   0  0  2  0  0  0  0  0  0  0  0  0
   26.5600  -23.0121  -17.1262 N   0  0  0  0  0  0  0  0  0  0  0  0
   24.7445  -21.8272  -16.0452 C   0  0  0  0  0  0  0  0  0  0  0  0
   23.9024  -22.5520  -16.6183 O   0  0  0  0  0  0  0  0  0  0  0  0
   29.0396  -18.1947  -20.4646 O   0  0  0  0  0  0  0  0  0  0  0  0
   17.5676  -21.0969  -10.9224 C   0  0  0  0  0  0  0  0  0  0  0  0
   18.8546  -21.0004  -11.4294 C   0  0  0  0  0  0  0  0  0  0  0  0
   19.7020  -22.0850  -11.4101 C   0  0  0  0  0  0  0  0  0  0  0  0
   20.9845  -22.0102  -11.9086 C   0  0  0  0  0  0  0  0  0  0  0  0
   21.4879  -20.8265  -12.4588 C   0  0  0  0  0  0  0  0  0  0  0  0
   22.8635  -20.7365  -12.9874 C   0  0  1  0  0  0  0  0  0  0  0  0
   23.0034  -21.3548  -14.3495 N   0  0  0  0  0  0  0  0  0  0  0  0
   24.3638  -21.1655  -14.8591 C   0  0  0  0  0  0  0  0  0  0  0  0
   22.0720  -20.7465  -15.3027 O   0  0  0  0  0  0  0  0  0  0  0  0
   22.2946  -19.4806  -15.8031 C   0  0  0  0  0  0  0  0  0  0  0  0
   20.6137  -19.7527  -12.4651 C   0  0  0  0  0  0  0  0  0  0  0  0
   19.3371  -19.8268  -11.9692 O   0  0  0  0  0  0  0  0  0  0  0  0
  2  3  2  0
  2  1  1  0
  4  2  1  0
  5  6  1  0
  5  4  1  0
  6  8  1  0
  6  7  1  1
  8 18  1  0
  8  9  2  0
 10 11  1  0
 11 12  2  0
 13 11  1  0
 14 13  1  0
 15 14  1  0
 16 15  1  0
 17 19  1  0
 17 16  1  6
 18 17  1  0
 19 20  2  0
 21 22  1  0
 22 23  2  0
 22 32  1  0
 23 24  1  0
 24 25  2  0
 25 26  1  0
 27 26  1  1
 27 28  1  0
 28 19  1  0
 29 27  1  0
 30 29  1  0
 31 25  1  0
 32 31  2  0
 33 29  2  0
M  END
$$$$
