QRY.pdb
     RDKit          3D

 33 33  0  0  1  0  0  0  0  0999 V2000
   26.8674  -24.3798  -16.2139 N   0  0  0  0  0  0  0  0  0  0  0  0
   28.2742  -24.4011  -16.2141 C   0  0  0  0  0  0  0  0  0  0  0  0
   28.8910  -25.4804  -16.4123 O   0  0  0  0  0  0  0  0  0  0  0  0
   29.0937  -23.1718  -15.9840 C   0  0  0  0  0  0  0  0  0  0  0  0
   28.2344  -21.9876  -15.7023 C   0  0  0  0  0  0  0  0  0  0  0  0
   27.5961  -21.4429  -16.9000 C   0  0  2  0  0  0  0  0  0  0  0  0
   28.5504  -21.0507  -17.9281 N   0  0  0  0  0  0  0  0  0  0  0  0
   26.4093  -20.6135  -16.8133 C   0  0  0  0  0  0  0  0  0  0  0  0
   26.5672  -19.4012  -16.3735 O   0  0  0  0  0  0  0  0  0  0  0  0
   19.4375  -18.2635  -19.0152 N   0  0  0  0  0  0  0  0  0  0  0  0
   19.6057  -17.0845  -18.2427 C   0  0  0  0  0  0  0  0  0  0  0  0
   18.6011  -16.3245  -17.9763 N   0  0  0  0  0  0  0  0  0  0  0  0
   20.8824  -16.7209  -17.7468 N   0  0  0  0  0  0  0  0  0  0  0  0
   22.1091  -17.4414  -18.0060 C   0  0  0  0  0  0  0  0  0  0  0  0
   21.9298  -18.9242  -17.9409 C   0  0  0  0  0  0  0  0  0  0  0  0
   23.1801  -19.7020  -18.0859 C   0  0  0  0  0  0  0  0  0  0  0  0
   23.9646  -19.9965  -16.8624 C   0  0  2  0  0  0  0  0  0  0  0  0
   25.0705  -20.9202  -17.1322 N   0  0  0  0  0  0  0  0  0  0  0  0
   23.0760  -20.5415  -15.8103 C   0  0  0  0  0  0  0  0  0  0  0  0
   23.1768  -21.7532  -15.5197 O   0  0  0  0  0  0  0  0  0  0  0  0
   18.7574  -15.4578  -17.4218 O   0  0  0  0  0  0  0  0  0  0  0  0
   19.5402  -22.9194   -8.4134 C   0  0  0  0  0  0  0  0  0  0  0  0
   20.2109  -22.3820   -9.5016 C   0  0  0  0  0  0  0  0  0  0  0  0
   20.6827  -21.0893   -9.4694 C   0  0  0  0  0  0  0  0  0  0  0  0
   21.3515  -20.5362  -10.5399 C   0  0  0  0  0  0  0  0  0  0  0  0
   21.5832  -21.2630  -11.7126 C   0  0  0  0  0  0  0  0  0  0  0  0
   22.2918  -20.6746  -12.8665 C   0  0  1  0  0  0  0  0  0  0  0  0
   21.3756  -20.3739  -14.0185 N   0  0  0  0  0  0  0  0  0  0  0  0
   22.1235  -19.7631  -15.1202 C   0  0  0  0  0  0  0  0  0  0  0  0
   20.3143  -19.4460  -13.6198 O   0  0  0  0  0  0  0  0  0  0  0  0
   19.0600  -19.9070  -13.2784 C   0  0  0  0  0  0  0  0  0  0  0  0
   21.0979  -22.5598  -11.7164 C   0  0  0  0  0  0  0  0  0  0  0  0
   20.4323  -23.1107  -10.6512 O   0  0  0  0  0  0  0  0  0  0  0  0
  2  3  2  0
  2  1  1  0
  4  2  1  0
  5  6  1  0
  5  4  1  0
  6  8  1  0
  6  7  1  1
  8 18  1  0
  8  9  2  0
 10 11  1  0
 11 12  2  0
 13 11  1  0
 14 13  1  0
 15 14  1  0
 16 15  1  0
 17 19  1  0
 17 16  1  6
 18 17  1  0
 19 20  2  0
 21 22  1  0
 22 23  2  0
 22 32  1  0
 23 24  1  0
 24 25  2  0
 25 26  1  0
 27 26  1  6
 27 28  1  0
 28 19  1  0
 29 27  1  0
 30 29  1  0
 31 25  1  0
 32 31  2  0
 33 29  2  0
M  END
$$$$
