QRY.pdb
     RDKit          3D

 33 33  0  0  1  0  0  0  0  0999 V2000
   25.9327  -21.8369  -12.1555 N   0  0  0  0  0  0  0  0  0  0  0  0
   25.7792  -22.1280  -13.5234 C   0  0  0  0  0  0  0  0  0  0  0  0
   25.7687  -23.3230  -13.9191 O   0  0  0  0  0  0  0  0  0  0  0  0
   25.6243  -21.0589  -14.5571 C   0  0  0  0  0  0  0  0  0  0  0  0
   25.7095  -19.6993  -13.9534 C   0  0  0  0  0  0  0  0  0  0  0  0
   24.6120  -18.8214  -14.3577 C   0  0  2  0  0  0  0  0  0  0  0  0
   23.4045  -19.5481  -14.7255 N   0  0  0  0  0  0  0  0  0  0  0  0
   24.8542  -17.6077  -15.1139 C   0  0  0  0  0  0  0  0  0  0  0  0
   25.8365  -17.6279  -15.9641 O   0  0  0  0  0  0  0  0  0  0  0  0
   20.1734  -14.1901  -19.0288 N   0  0  0  0  0  0  0  0  0  0  0  0
   20.8729  -13.9288  -20.2360 C   0  0  0  0  0  0  0  0  0  0  0  0
   20.4222  -13.0712  -21.0842 N   0  0  0  0  0  0  0  0  0  0  0  0
   22.0828  -14.6045  -20.5315 N   0  0  0  0  0  0  0  0  0  0  0  0
   22.7340  -15.5585  -19.6615 C   0  0  0  0  0  0  0  0  0  0  0  0
   23.1209  -14.9654  -18.3449 C   0  0  0  0  0  0  0  0  0  0  0  0
   23.8413  -15.8898  -17.4416 C   0  0  0  0  0  0  0  0  0  0  0  0
   24.3046  -15.3675  -16.1334 C   0  0  2  0  0  0  0  0  0  0  0  0
   24.1807  -16.3696  -15.0706 N   0  0  0  0  0  0  0  0  0  0  0  0
   23.5518  -14.1411  -15.7827 C   0  0  0  0  0  0  0  0  0  0  0  0
   22.3571  -14.2593  -15.4341 O   0  0  0  0  0  0  0  0  0  0  0  0
   20.9708  -12.8797  -21.9477 O   0  0  0  0  0  0  0  0  0  0  0  0
   21.3070   -5.9832  -13.2550 C   0  0  0  0  0  0  0  0  0  0  0  0
   22.0166   -7.1041  -13.6586 C   0  0  0  0  0  0  0  0  0  0  0  0
   22.5437   -7.1843  -14.9276 C   0  0  0  0  0  0  0  0  0  0  0  0
   23.2518   -8.2891  -15.3485 C   0  0  0  0  0  0  0  0  0  0  0  0
   23.4689   -9.3840  -14.5052 C   0  0  0  0  0  0  0  0  0  0  0  0
   24.2196  -10.5743  -14.9518 C   0  0  1  0  0  0  0  0  0  0  0  0
   23.3221  -11.7173  -15.3328 N   0  0  0  0  0  0  0  0  0  0  0  0
   24.1146  -12.8483  -15.8216 C   0  0  0  0  0  0  0  0  0  0  0  0
   22.3889  -11.3245  -16.3917 O   0  0  0  0  0  0  0  0  0  0  0  0
   21.1119  -10.8991  -16.0902 C   0  0  0  0  0  0  0  0  0  0  0  0
   22.9277   -9.2754  -13.2354 C   0  0  0  0  0  0  0  0  0  0  0  0
   22.2231   -8.1760  -12.8159 O   0  0  0  0  0  0  0  0  0  0  0  0
  2  3  2  0
  2  1  1  0
  4  2  1  0
  5  6  1  0
  5  4  1  0
  6  8  1  0
  6  7  1  6
  8 18  1  0
  8  9  2  0
 10 11  1  0
 11 12  2  0
 13 11  1  0
 14 13  1  0
 15 14  1  0
 16 15  1  0
 17 19  1  0
 17 16  1  6
 18 17  1  0
 19 20  2  0
 21 22  1  0
 22 23  2  0
 22 32  1  0
 23 24  1  0
 24 25  2  0
 25 26  1  0
 27 26  1  1
 27 28  1  0
 28 19  1  0
 29 27  1  0
 30 29  1  0
 31 25  1  0
 32 31  2  0
 33 29  2  0
M  END
$$$$
