QRY.pdb
     RDKit          3D

 33 33  0  0  1  0  0  0  0  0999 V2000
   15.0508  -25.1502   -0.3558 N   0  0  0  0  0  0  0  0  0  0  0  0
   13.6707  -24.9076   -0.4815 C   0  0  0  0  0  0  0  0  0  0  0  0
   12.9549  -25.6704   -1.1817 O   0  0  0  0  0  0  0  0  0  0  0  0
   12.9953  -23.7571    0.1937 C   0  0  0  0  0  0  0  0  0  0  0  0
   13.9394  -23.0068    1.0689 C   0  0  0  0  0  0  0  0  0  0  0  0
   14.5054  -21.8236    0.4221 C   0  0  2  0  0  0  0  0  0  0  0  0
   14.7088  -21.9971   -1.0097 N   0  0  0  0  0  0  0  0  0  0  0  0
   15.4945  -20.9982    1.0886 C   0  0  0  0  0  0  0  0  0  0  0  0
   16.7435  -21.2862    0.8765 O   0  0  0  0  0  0  0  0  0  0  0  0
   16.4177  -12.6646    4.4895 N   0  0  0  0  0  0  0  0  0  0  0  0
   17.6485  -13.3496    4.6643 C   0  0  0  0  0  0  0  0  0  0  0  0
   18.6808  -12.7374    5.1307 N   0  0  0  0  0  0  0  0  0  0  0  0
   17.7659  -14.7220    4.3316 N   0  0  0  0  0  0  0  0  0  0  0  0
   16.6796  -15.5613    3.8772 C   0  0  0  0  0  0  0  0  0  0  0  0
   17.1229  -16.9527    3.5573 C   0  0  0  0  0  0  0  0  0  0  0  0
   16.0703  -17.8156    2.9770 C   0  0  0  0  0  0  0  0  0  0  0  0
   16.4411  -19.1939    2.5745 C   0  0  2  0  0  0  0  0  0  0  0  0
   15.3156  -19.9049    1.9610 N   0  0  0  0  0  0  0  0  0  0  0  0
   16.9538  -19.9425    3.7452 C   0  0  0  0  0  0  0  0  0  0  0  0
   16.3635  -20.9919    4.0815 O   0  0  0  0  0  0  0  0  0  0  0  0
   19.5808  -13.2542    5.2094 O   0  0  0  0  0  0  0  0  0  0  0  0
   20.6343  -25.3597    9.0916 C   0  0  0  0  0  0  0  0  0  0  0  0
   20.2107  -24.4909    8.0974 C   0  0  0  0  0  0  0  0  0  0  0  0
   19.5698  -23.3152    8.4161 C   0  0  0  0  0  0  0  0  0  0  0  0
   19.1408  -22.4382    7.4435 C   0  0  0  0  0  0  0  0  0  0  0  0
   19.3361  -22.7013    6.0834 C   0  0  0  0  0  0  0  0  0  0  0  0
   18.8722  -21.7704    5.0356 C   0  0  2  0  0  0  0  0  0  0  0  0
   18.5614  -20.4016    5.5713 N   0  0  0  0  0  0  0  0  0  0  0  0
   18.0734  -19.5317    4.4984 C   0  0  0  0  0  0  0  0  0  0  0  0
   19.7536  -19.7803    6.1537 O   0  0  0  0  0  0  0  0  0  0  0  0
   20.3210  -20.2780    7.3081 C   0  0  0  0  0  0  0  0  0  0  0  0
   19.9833  -23.8903    5.7927 C   0  0  0  0  0  0  0  0  0  0  0  0
   20.4105  -24.7634    6.7605 O   0  0  0  0  0  0  0  0  0  0  0  0
  2  3  2  0
  2  1  1  0
  4  2  1  0
  5  6  1  0
  5  4  1  0
  6  8  1  0
  6  7  1  6
  8 18  1  0
  8  9  2  0
 10 11  1  0
 11 12  2  0
 13 11  1  0
 14 13  1  0
 15 14  1  0
 16 15  1  0
 17 19  1  0
 17 16  1  1
 18 17  1  0
 19 20  2  0
 21 22  1  0
 22 23  2  0
 22 32  1  0
 23 24  1  0
 24 25  2  0
 25 26  1  0
 27 26  1  1
 27 28  1  0
 28 19  1  0
 29 27  1  0
 30 29  1  0
 31 25  1  0
 32 31  2  0
 33 29  2  0
M  END
$$$$
