QRY.pdb
     RDKit          3D

 33 33  0  0  1  0  0  0  0  0999 V2000
   17.8458  -14.2909  -16.5517 N   0  0  0  0  0  0  0  0  0  0  0  0
   17.3151  -12.9978  -16.7124 C   0  0  0  0  0  0  0  0  0  0  0  0
   16.3481  -12.6176  -16.0019 O   0  0  0  0  0  0  0  0  0  0  0  0
   17.8578  -12.0281  -17.7128 C   0  0  0  0  0  0  0  0  0  0  0  0
   17.9806  -10.6598  -17.1359 C   0  0  0  0  0  0  0  0  0  0  0  0
   19.1413   -9.9261  -17.6389 C   0  0  2  0  0  0  0  0  0  0  0  0
   19.6422  -10.4465  -18.9038 N   0  0  0  0  0  0  0  0  0  0  0  0
   20.1563   -9.4095  -16.7408 C   0  0  0  0  0  0  0  0  0  0  0  0
   19.7832   -9.1252  -15.5292 O   0  0  0  0  0  0  0  0  0  0  0  0
   28.0249  -12.5204  -16.3640 N   0  0  0  0  0  0  0  0  0  0  0  0
   26.8296  -13.2068  -16.0252 C   0  0  0  0  0  0  0  0  0  0  0  0
   26.8427  -14.4729  -15.7910 N   0  0  0  0  0  0  0  0  0  0  0  0
   25.5976  -12.5125  -15.9354 N   0  0  0  0  0  0  0  0  0  0  0  0
   25.4413  -11.0805  -16.0618 C   0  0  0  0  0  0  0  0  0  0  0  0
   24.0193  -10.6422  -15.9172 C   0  0  0  0  0  0  0  0  0  0  0  0
   23.8015   -9.1902  -16.1002 C   0  0  0  0  0  0  0  0  0  0  0  0
   22.4254   -8.6642  -15.9310 C   0  0  2  0  0  0  0  0  0  0  0  0
   21.5222   -9.1515  -16.9778 N   0  0  0  0  0  0  0  0  0  0  0  0
   22.4482   -7.1834  -15.9112 C   0  0  0  0  0  0  0  0  0  0  0  0
   22.8355   -6.5837  -16.9374 O   0  0  0  0  0  0  0  0  0  0  0  0
   25.9375  -14.9749  -15.6818 O   0  0  0  0  0  0  0  0  0  0  0  0
   19.6452   -4.8674  -20.8448 C   0  0  0  0  0  0  0  0  0  0  0  0
   19.9166   -4.7534  -19.4897 C   0  0  0  0  0  0  0  0  0  0  0  0
   19.4194   -5.6713  -18.5925 C   0  0  0  0  0  0  0  0  0  0  0  0
   19.6772   -5.5761  -17.2421 C   0  0  0  0  0  0  0  0  0  0  0  0
   20.4575   -4.5403  -16.7174 C   0  0  0  0  0  0  0  0  0  0  0  0
   20.7312   -4.4273  -15.2710 C   0  0  2  0  0  0  0  0  0  0  0  0
   22.0860   -4.9556  -14.8936 N   0  0  0  0  0  0  0  0  0  0  0  0
   22.0551   -6.4169  -14.7943 C   0  0  0  0  0  0  0  0  0  0  0  0
   22.5187   -4.4210  -13.6000 O   0  0  0  0  0  0  0  0  0  0  0  0
   22.6525   -3.0625  -13.4026 C   0  0  0  0  0  0  0  0  0  0  0  0
   20.9441   -3.6325  -17.6427 C   0  0  0  0  0  0  0  0  0  0  0  0
   20.6879   -3.7269  -18.9868 O   0  0  0  0  0  0  0  0  0  0  0  0
  2  3  2  0
  2  1  1  0
  4  2  1  0
  5  6  1  0
  5  4  1  0
  6  8  1  0
  6  7  1  6
  8 18  1  0
  8  9  2  0
 10 11  1  0
 11 12  2  0
 13 11  1  0
 14 13  1  0
 15 14  1  0
 16 15  1  0
 17 19  1  0
 17 16  1  6
 18 17  1  0
 19 20  2  0
 21 22  1  0
 22 23  2  0
 22 32  1  0
 23 24  1  0
 24 25  2  0
 25 26  1  0
 27 26  1  6
 27 28  1  0
 28 19  1  0
 29 27  1  0
 30 29  1  0
 31 25  1  0
 32 31  2  0
 33 29  2  0
M  END
$$$$
