QRY.pdb
     RDKit          3D

 33 33  0  0  1  0  0  0  0  0999 V2000
   21.7748  -25.1609  -18.3693 N   0  0  0  0  0  0  0  0  0  0  0  0
   21.9190  -26.5397  -18.6094 C   0  0  0  0  0  0  0  0  0  0  0  0
   21.5650  -27.0305  -19.7132 O   0  0  0  0  0  0  0  0  0  0  0  0
   22.4870  -27.4747  -17.5903 C   0  0  0  0  0  0  0  0  0  0  0  0
   22.8839  -26.7534  -16.3484 C   0  0  0  0  0  0  0  0  0  0  0  0
   24.3005  -26.3912  -16.3221 C   0  0  2  0  0  0  0  0  0  0  0  0
   25.1495  -27.4438  -15.7810 N   0  0  0  0  0  0  0  0  0  0  0  0
   24.7295  -25.0388  -16.0210 C   0  0  0  0  0  0  0  0  0  0  0  0
   25.2347  -24.8282  -14.8427 O   0  0  0  0  0  0  0  0  0  0  0  0
   28.9652  -25.5782  -16.9246 N   0  0  0  0  0  0  0  0  0  0  0  0
   30.1312  -24.8191  -16.6434 C   0  0  0  0  0  0  0  0  0  0  0  0
   31.2355  -25.4026  -16.3301 N   0  0  0  0  0  0  0  0  0  0  0  0
   30.1047  -23.4037  -16.7039 N   0  0  0  0  0  0  0  0  0  0  0  0
   28.9822  -22.6137  -17.1588 C   0  0  0  0  0  0  0  0  0  0  0  0
   27.7020  -22.9928  -16.4863 C   0  0  0  0  0  0  0  0  0  0  0  0
   26.5099  -22.2683  -16.9795 C   0  0  0  0  0  0  0  0  0  0  0  0
   25.1975  -22.5849  -16.3659 C   0  0  2  0  0  0  0  0  0  0  0  0
   24.6800  -23.8788  -16.8211 N   0  0  0  0  0  0  0  0  0  0  0  0
   24.2278  -21.5043  -16.6590 C   0  0  0  0  0  0  0  0  0  0  0  0
   23.6312  -21.5263  -17.7573 O   0  0  0  0  0  0  0  0  0  0  0  0
   32.0831  -24.8220  -16.1638 O   0  0  0  0  0  0  0  0  0  0  0  0
   18.8370  -23.4383  -13.0008 C   0  0  0  0  0  0  0  0  0  0  0  0
   19.6222  -22.3935  -13.4640 C   0  0  0  0  0  0  0  0  0  0  0  0
   20.8592  -22.1450  -12.9138 C   0  0  0  0  0  0  0  0  0  0  0  0
   21.6551  -21.1119  -13.3593 C   0  0  0  0  0  0  0  0  0  0  0  0
   21.2433  -20.2647  -14.3936 C   0  0  0  0  0  0  0  0  0  0  0  0
   22.0870  -19.1510  -14.8707 C   0  0  2  0  0  0  0  0  0  0  0  0
   22.8778  -19.5063  -16.0977 N   0  0  0  0  0  0  0  0  0  0  0  0
   23.9438  -20.4534  -15.7620 C   0  0  0  0  0  0  0  0  0  0  0  0
   23.4959  -18.3169  -16.6892 O   0  0  0  0  0  0  0  0  0  0  0  0
   22.7234  -17.3102  -17.2296 C   0  0  0  0  0  0  0  0  0  0  0  0
   19.9955  -20.5384  -14.9279 C   0  0  0  0  0  0  0  0  0  0  0  0
   19.2032  -21.5665  -14.4848 O   0  0  0  0  0  0  0  0  0  0  0  0
  2  3  2  0
  2  1  1  0
  4  2  1  0
  5  6  1  0
  5  4  1  0
  6  8  1  0
  6  7  1  1
  8 18  1  0
  8  9  2  0
 10 11  1  0
 11 12  2  0
 13 11  1  0
 14 13  1  0
 15 14  1  0
 16 15  1  0
 17 19  1  0
 17 16  1  6
 18 17  1  0
 19 20  2  0
 21 22  1  0
 22 23  2  0
 22 32  1  0
 23 24  1  0
 24 25  2  0
 25 26  1  0
 27 26  1  6
 27 28  1  0
 28 19  1  0
 29 27  1  0
 30 29  1  0
 31 25  1  0
 32 31  2  0
 33 29  2  0
M  END
$$$$
