QRY.pdb
     RDKit          3D

 33 33  0  0  1  0  0  0  0  0999 V2000
   23.1864  -14.5601  -15.8291 N   0  0  0  0  0  0  0  0  0  0  0  0
   22.3440  -14.5910  -16.9556 C   0  0  0  0  0  0  0  0  0  0  0  0
   21.9602  -13.5173  -17.4888 O   0  0  0  0  0  0  0  0  0  0  0  0
   21.8698  -15.8710  -17.5659 C   0  0  0  0  0  0  0  0  0  0  0  0
   22.3674  -17.0541  -16.8091 C   0  0  0  0  0  0  0  0  0  0  0  0
   23.6425  -17.5635  -17.3124 C   0  0  2  0  0  0  0  0  0  0  0  0
   23.8298  -17.3274  -18.7374 N   0  0  0  0  0  0  0  0  0  0  0  0
   24.2122  -18.8005  -16.8135 C   0  0  0  0  0  0  0  0  0  0  0  0
   23.4765  -19.8676  -16.9029 O   0  0  0  0  0  0  0  0  0  0  0  0
   31.1431  -24.3956  -15.2263 N   0  0  0  0  0  0  0  0  0  0  0  0
   30.3546  -24.1407  -16.3787 C   0  0  0  0  0  0  0  0  0  0  0  0
   30.4530  -24.8901  -17.4212 N   0  0  0  0  0  0  0  0  0  0  0  0
   29.4412  -23.0577  -16.4049 N   0  0  0  0  0  0  0  0  0  0  0  0
   29.1946  -22.1536  -15.3037 C   0  0  0  0  0  0  0  0  0  0  0  0
   27.7387  -21.8873  -15.0931 C   0  0  0  0  0  0  0  0  0  0  0  0
   27.2447  -20.6404  -15.7179 C   0  0  0  0  0  0  0  0  0  0  0  0
   25.8068  -20.3086  -15.5715 C   0  0  2  0  0  0  0  0  0  0  0  0
   25.4703  -19.0393  -16.2231 N   0  0  0  0  0  0  0  0  0  0  0  0
   25.4396  -20.2707  -14.1371 C   0  0  0  0  0  0  0  0  0  0  0  0
   25.7197  -19.2439  -13.4814 O   0  0  0  0  0  0  0  0  0  0  0  0
   29.8538  -24.6861  -18.2473 O   0  0  0  0  0  0  0  0  0  0  0  0
   30.3900  -21.9253   -9.6661 C   0  0  0  0  0  0  0  0  0  0  0  0
   29.1451  -21.4843  -10.0886 C   0  0  0  0  0  0  0  0  0  0  0  0
   28.9573  -21.0344  -11.3758 C   0  0  0  0  0  0  0  0  0  0  0  0
   27.7285  -20.5919  -11.8156 C   0  0  0  0  0  0  0  0  0  0  0  0
   26.6114  -20.5784  -10.9736 C   0  0  0  0  0  0  0  0  0  0  0  0
   25.2938  -20.0982  -11.4354 C   0  0  2  0  0  0  0  0  0  0  0  0
   24.4636  -21.1867  -12.0542 N   0  0  0  0  0  0  0  0  0  0  0  0
   24.7901  -21.3333  -13.4748 C   0  0  0  0  0  0  0  0  0  0  0  0
   23.0339  -20.8859  -11.9450 O   0  0  0  0  0  0  0  0  0  0  0  0
   22.4352  -20.7228  -10.7131 C   0  0  0  0  0  0  0  0  0  0  0  0
   26.8298  -21.0365   -9.6854 C   0  0  0  0  0  0  0  0  0  0  0  0
   28.0525  -21.4771   -9.2473 O   0  0  0  0  0  0  0  0  0  0  0  0
  2  3  2  0
  2  1  1  0
  4  2  1  0
  5  6  1  0
  5  4  1  0
  6  8  1  0
  6  7  1  6
  8 18  1  0
  8  9  2  0
 10 11  1  0
 11 12  2  0
 13 11  1  0
 14 13  1  0
 15 14  1  0
 16 15  1  0
 17 19  1  0
 17 16  1  1
 18 17  1  0
 19 20  2  0
 21 22  1  0
 22 23  2  0
 22 32  1  0
 23 24  1  0
 24 25  2  0
 25 26  1  0
 27 26  1  1
 27 28  1  0
 28 19  1  0
 29 27  1  0
 30 29  1  0
 31 25  1  0
 32 31  2  0
 33 29  2  0
M  END
$$$$
