QRY.pdb
     RDKit          3D

 33 33  0  0  1  0  0  0  0  0999 V2000
   17.4514  -25.6847  -16.0330 N   0  0  0  0  0  0  0  0  0  0  0  0
   16.5302  -26.5119  -15.3647 C   0  0  0  0  0  0  0  0  0  0  0  0
   16.0253  -27.5028  -15.9543 O   0  0  0  0  0  0  0  0  0  0  0  0
   16.1106  -26.2643  -13.9511 C   0  0  0  0  0  0  0  0  0  0  0  0
   16.7210  -25.0171  -13.4107 C   0  0  0  0  0  0  0  0  0  0  0  0
   17.9479  -25.2596  -12.6526 C   0  0  2  0  0  0  0  0  0  0  0  0
   17.7195  -25.9927  -11.4150 N   0  0  0  0  0  0  0  0  0  0  0  0
   19.0092  -24.2726  -12.5964 C   0  0  0  0  0  0  0  0  0  0  0  0
   18.8902  -23.3273  -11.7130 O   0  0  0  0  0  0  0  0  0  0  0  0
   26.8845  -23.9180  -16.1958 N   0  0  0  0  0  0  0  0  0  0  0  0
   25.5193  -24.0096  -16.5733 C   0  0  0  0  0  0  0  0  0  0  0  0
   25.1814  -24.5529  -17.6907 N   0  0  0  0  0  0  0  0  0  0  0  0
   24.4998  -23.5070  -15.7272 N   0  0  0  0  0  0  0  0  0  0  0  0
   24.7169  -22.6351  -14.5942 C   0  0  0  0  0  0  0  0  0  0  0  0
   23.4454  -22.2687  -13.8984 C   0  0  0  0  0  0  0  0  0  0  0  0
   22.4233  -23.3385  -13.8811 C   0  0  0  0  0  0  0  0  0  0  0  0
   21.1242  -23.0518  -13.2260 C   0  0  2  0  0  0  0  0  0  0  0  0
   20.1816  -24.1649  -13.3724 N   0  0  0  0  0  0  0  0  0  0  0  0
   20.5451  -21.8038  -13.7745 C   0  0  0  0  0  0  0  0  0  0  0  0
   19.8788  -21.8745  -14.8299 O   0  0  0  0  0  0  0  0  0  0  0  0
   24.1726  -24.6064  -17.9408 O   0  0  0  0  0  0  0  0  0  0  0  0
   17.7592  -13.5492  -15.1745 C   0  0  0  0  0  0  0  0  0  0  0  0
   18.3091  -14.6878  -14.6053 C   0  0  0  0  0  0  0  0  0  0  0  0
   19.6732  -14.8244  -14.4817 C   0  0  0  0  0  0  0  0  0  0  0  0
   20.2399  -15.9477  -13.9193 C   0  0  0  0  0  0  0  0  0  0  0  0
   19.4549  -17.0048  -13.4466 C   0  0  0  0  0  0  0  0  0  0  0  0
   20.0552  -18.2147  -12.8504 C   0  0  2  0  0  0  0  0  0  0  0  0
   20.1236  -19.3644  -13.8150 N   0  0  0  0  0  0  0  0  0  0  0  0
   20.7071  -20.5414  -13.1666 C   0  0  0  0  0  0  0  0  0  0  0  0
   20.9500  -19.0290  -14.9772 O   0  0  0  0  0  0  0  0  0  0  0  0
   22.3195  -19.1900  -14.9442 C   0  0  0  0  0  0  0  0  0  0  0  0
   18.0870  -16.8398  -13.5838 C   0  0  0  0  0  0  0  0  0  0  0  0
   17.5226  -15.7219  -14.1433 O   0  0  0  0  0  0  0  0  0  0  0  0
  2  3  2  0
  2  1  1  0
  4  2  1  0
  5  6  1  0
  5  4  1  0
  6  8  1  0
  6  7  1  1
  8 18  1  0
  8  9  2  0
 10 11  1  0
 11 12  2  0
 13 11  1  0
 14 13  1  0
 15 14  1  0
 16 15  1  0
 17 19  1  0
 17 16  1  6
 18 17  1  0
 19 20  2  0
 21 22  1  0
 22 23  2  0
 22 32  1  0
 23 24  1  0
 24 25  2  0
 25 26  1  0
 27 26  1  1
 27 28  1  0
 28 19  1  0
 29 27  1  0
 30 29  1  0
 31 25  1  0
 32 31  2  0
 33 29  2  0
M  END
$$$$
