QRY.pdb
     RDKit          3D

 33 33  0  0  1  0  0  0  0  0999 V2000
   17.2790  -14.9331  -17.6167 N   0  0  0  0  0  0  0  0  0  0  0  0
   16.8982  -13.9095  -16.7298 C   0  0  0  0  0  0  0  0  0  0  0  0
   17.7736  -13.2503  -16.1103 O   0  0  0  0  0  0  0  0  0  0  0  0
   15.4665  -13.5576  -16.4805 C   0  0  0  0  0  0  0  0  0  0  0  0
   15.2407  -12.0880  -16.5768 C   0  0  0  0  0  0  0  0  0  0  0  0
   14.9292  -11.4689  -15.2890 C   0  0  2  0  0  0  0  0  0  0  0  0
   13.6667  -11.9269  -14.7251 N   0  0  0  0  0  0  0  0  0  0  0  0
   15.2574  -10.0825  -15.0176 C   0  0  0  0  0  0  0  0  0  0  0  0
   14.5929   -9.1792  -15.6738 O   0  0  0  0  0  0  0  0  0  0  0  0
   15.1341   -7.9994   -8.6145 N   0  0  0  0  0  0  0  0  0  0  0  0
   15.1474   -6.5801   -8.6226 C   0  0  0  0  0  0  0  0  0  0  0  0
   15.5334   -5.9206   -7.5862 N   0  0  0  0  0  0  0  0  0  0  0  0
   14.7385   -5.8596   -9.7722 N   0  0  0  0  0  0  0  0  0  0  0  0
   14.3647   -6.4558  -11.0355 C   0  0  0  0  0  0  0  0  0  0  0  0
   15.5212   -7.0961  -11.7338 C   0  0  0  0  0  0  0  0  0  0  0  0
   15.2329   -7.5495  -13.1124 C   0  0  0  0  0  0  0  0  0  0  0  0
   16.3531   -8.0963  -13.9157 C   0  0  2  0  0  0  0  0  0  0  0  0
   16.2140   -9.5389  -14.1356 N   0  0  0  0  0  0  0  0  0  0  0  0
   17.6443   -7.7925  -13.2565 C   0  0  0  0  0  0  0  0  0  0  0  0
   17.8726   -8.3031  -12.1386 O   0  0  0  0  0  0  0  0  0  0  0  0
   15.6196   -4.8854   -7.6505 O   0  0  0  0  0  0  0  0  0  0  0  0
   25.6928  -10.2401  -14.7805 C   0  0  0  0  0  0  0  0  0  0  0  0
   24.3614   -9.8661  -14.6801 C   0  0  0  0  0  0  0  0  0  0  0  0
   23.5974  -10.2644  -13.6065 C   0  0  0  0  0  0  0  0  0  0  0  0
   22.2726   -9.9039  -13.4877 C   0  0  0  0  0  0  0  0  0  0  0  0
   21.6395   -9.1149  -14.4540 C   0  0  0  0  0  0  0  0  0  0  0  0
   20.2185   -8.7314  -14.3375 C   0  0  1  0  0  0  0  0  0  0  0  0
   20.0332   -7.3633  -13.7450 N   0  0  0  0  0  0  0  0  0  0  0  0
   18.6279   -6.9574  -13.8263 C   0  0  0  0  0  0  0  0  0  0  0  0
   20.8363   -6.3669  -14.4580 O   0  0  0  0  0  0  0  0  0  0  0  0
   22.1614   -6.1608  -14.1354 C   0  0  0  0  0  0  0  0  0  0  0  0
   22.4320   -8.7290  -15.5218 C   0  0  0  0  0  0  0  0  0  0  0  0
   23.7506   -9.0875  -15.6404 O   0  0  0  0  0  0  0  0  0  0  0  0
  2  3  2  0
  2  1  1  0
  4  2  1  0
  5  6  1  0
  5  4  1  0
  6  8  1  0
  6  7  1  6
  8 18  1  0
  8  9  2  0
 10 11  1  0
 11 12  2  0
 13 11  1  0
 14 13  1  0
 15 14  1  0
 16 15  1  0
 17 19  1  0
 17 16  1  1
 18 17  1  0
 19 20  2  0
 21 22  1  0
 22 23  2  0
 22 32  1  0
 23 24  1  0
 24 25  2  0
 25 26  1  0
 27 26  1  1
 27 28  1  0
 28 19  1  0
 29 27  1  0
 30 29  1  0
 31 25  1  0
 32 31  2  0
 33 29  2  0
M  END
$$$$
