RST.pdb
     RDKit          3D

 25 24  0  0  1  0  0  0  0  0999 V2000
   30.1740  -21.6456   -9.0948 N   0  0  0  0  0  0  0  0  0  0  0  0
   31.0509  -22.2394  -10.0575 C   0  0  0  0  0  0  0  0  0  0  0  0
   31.8925  -23.0904   -9.6306 N   0  0  0  0  0  0  0  0  0  0  0  0
   30.9912  -21.9017  -11.4171 N   0  0  0  0  0  0  0  0  0  0  0  0
   30.0704  -20.8469  -11.8823 C   0  0  0  0  0  0  0  0  0  0  0  0
   28.7057  -21.4350  -11.8864 C   0  0  0  0  0  0  0  0  0  0  0  0
   27.6138  -20.6195  -12.4725 C   0  0  0  0  0  0  0  0  0  0  0  0
   27.5108  -20.6518  -13.9666 C   0  0  2  0  0  0  0  0  0  0  0  0
   28.6860  -20.0984  -14.6265 N   0  0  0  0  0  0  0  0  0  0  0  0
   26.2927  -19.9040  -14.4310 C   0  0  0  0  0  0  0  0  0  0  0  0
   26.2999  -18.6495  -14.4424 O   0  0  0  0  0  0  0  0  0  0  0  0
   32.6058  -23.5903  -10.1867 O   0  0  0  0  0  0  0  0  0  0  0  0
   22.6550  -19.3927  -17.2817 C   0  0  0  0  0  0  0  0  0  0  0  0
   23.6553  -20.1734  -16.7577 C   0  0  2  0  0  0  0  0  0  0  0  0
   23.9917  -19.7895  -15.3066 N   0  0  0  0  0  0  0  0  0  0  0  0
   25.1241  -20.5762  -14.8613 C   0  0  0  0  0  0  0  0  0  0  0  0
   22.7784  -20.1040  -14.5105 O   0  0  0  0  0  0  0  0  0  0  0  0
   22.6663  -21.2703  -14.0577 C   0  0  0  0  0  0  0  0  0  0  0  0
   20.8407  -17.7973  -11.6021 C   0  0  2  0  0  0  0  0  0  0  0  0
   19.9843  -18.4008  -12.6642 O   0  0  0  0  0  0  0  0  0  0  0  0
   19.7544  -17.3580  -13.5870 C   0  0  2  0  0  0  0  0  0  0  0  0
   20.5888  -19.5191  -13.4139 N   0  0  0  0  0  0  0  0  0  0  0  0
   21.7366  -19.2169  -14.2120 C   0  0  0  0  0  0  0  0  0  0  0  0
   19.5773  -20.2048  -14.2436 O   0  0  0  0  0  0  0  0  0  0  0  0
   19.6497  -20.3243  -15.6248 O   0  0  0  0  0  0  0  0  0  0  0  0
  2  1  1  0
  3  2  2  0
  4  2  1  0
  5  4  1  0
  6  5  1  0
  6  7  1  0
  7  8  1  0
  8 10  1  0
  8  9  1  6
 10 15  1  0
 11 10  2  0
 13 12  1  0
 14 13  1  6
 15 14  1  0
 16 17  2  0
 16 14  1  0
 19 18  1  1
 19 21  1  0
 20 19  1  0
 21 22  1  1
 22 16  1  0
 23 21  1  0
 23 24  1  0
 25 23  2  0
M  END
$$$$
