RST.pdb
     RDKit          3D

 25 24  0  0  1  0  0  0  0  0999 V2000
   25.7215  -20.8442   -7.7351 N   0  0  0  0  0  0  0  0  0  0  0  0
   24.3745  -20.9844   -8.1984 C   0  0  0  0  0  0  0  0  0  0  0  0
   23.5051  -21.3628   -7.3526 N   0  0  0  0  0  0  0  0  0  0  0  0
   24.0203  -20.7180   -9.5286 N   0  0  0  0  0  0  0  0  0  0  0  0
   25.0534  -20.3436  -10.5134 C   0  0  0  0  0  0  0  0  0  0  0  0
   24.7083  -21.0313  -11.7847 C   0  0  0  0  0  0  0  0  0  0  0  0
   25.6744  -20.9179  -12.9050 C   0  0  0  0  0  0  0  0  0  0  0  0
   25.2116  -21.4697  -14.2185 C   0  0  2  0  0  0  0  0  0  0  0  0
   25.3170  -22.9210  -14.2907 N   0  0  0  0  0  0  0  0  0  0  0  0
   25.9922  -20.8665  -15.3522 C   0  0  0  0  0  0  0  0  0  0  0  0
   26.8325  -21.5644  -15.9695 O   0  0  0  0  0  0  0  0  0  0  0  0
   22.4919  -21.4836   -7.5161 O   0  0  0  0  0  0  0  0  0  0  0  0
   25.2631  -19.6097  -19.3657 C   0  0  0  0  0  0  0  0  0  0  0  0
   25.0938  -19.9275  -18.0408 C   0  0  1  0  0  0  0  0  0  0  0  0
   26.0696  -19.1620  -17.1308 N   0  0  0  0  0  0  0  0  0  0  0  0
   25.8084  -19.5214  -15.7517 C   0  0  0  0  0  0  0  0  0  0  0  0
   25.8004  -17.7209  -17.3661 O   0  0  0  0  0  0  0  0  0  0  0  0
   24.7285  -17.2481  -16.9129 C   0  0  0  0  0  0  0  0  0  0  0  0
   28.0590  -14.5199  -16.6281 C   0  0  2  0  0  0  0  0  0  0  0  0
   27.4978  -14.5076  -18.0103 O   0  0  0  0  0  0  0  0  0  0  0  0
   28.5626  -14.9149  -18.8424 C   0  0  2  0  0  0  0  0  0  0  0  0
   26.3768  -15.4362  -18.2533 N   0  0  0  0  0  0  0  0  0  0  0  0
   26.6348  -16.8283  -18.0506 C   0  0  0  0  0  0  0  0  0  0  0  0
   25.8051  -15.2310  -19.5996 O   0  0  0  0  0  0  0  0  0  0  0  0
   25.3375  -14.0125  -20.0729 O   0  0  0  0  0  0  0  0  0  0  0  0
  2  1  1  0
  3  2  2  0
  4  2  1  0
  5  4  1  0
  6  5  1  0
  6  7  1  0
  7  8  1  0
  8 10  1  0
  8  9  1  1
 10 15  1  0
 11 10  2  0
 13 12  1  0
 14 13  1  6
 15 14  1  0
 16 17  2  0
 16 14  1  0
 19 18  1  6
 19 21  1  0
 20 19  1  0
 21 22  1  6
 22 16  1  0
 23 21  1  0
 23 24  1  0
 25 23  2  0
M  END
$$$$
