RST.pdb
     RDKit          3D

 25 24  0  0  1  0  0  0  0  0999 V2000
   16.7508  -17.8264  -15.1944 N   0  0  0  0  0  0  0  0  0  0  0  0
   15.5618  -17.3908  -15.8615 C   0  0  0  0  0  0  0  0  0  0  0  0
   14.5598  -18.1716  -15.8331 N   0  0  0  0  0  0  0  0  0  0  0  0
   15.4967  -16.1555  -16.5217 N   0  0  0  0  0  0  0  0  0  0  0  0
   16.6796  -15.2752  -16.5721 C   0  0  0  0  0  0  0  0  0  0  0  0
   16.3193  -14.1152  -17.4284 C   0  0  0  0  0  0  0  0  0  0  0  0
   17.3449  -13.0590  -17.6121 C   0  0  0  0  0  0  0  0  0  0  0  0
   16.9903  -11.9725  -18.5804 C   0  0  2  0  0  0  0  0  0  0  0  0
   17.1800  -12.3690  -19.9695 N   0  0  0  0  0  0  0  0  0  0  0  0
   17.8006  -10.7359  -18.3106 C   0  0  0  0  0  0  0  0  0  0  0  0
   18.8682  -10.5422  -18.9406 O   0  0  0  0  0  0  0  0  0  0  0  0
   13.6134  -17.9801  -16.2013 O   0  0  0  0  0  0  0  0  0  0  0  0
   18.0520   -6.2713  -16.5356 C   0  0  0  0  0  0  0  0  0  0  0  0
   17.3442   -7.4407  -16.6634 C   0  0  2  0  0  0  0  0  0  0  0  0
   18.2260   -8.6028  -17.1516 N   0  0  0  0  0  0  0  0  0  0  0  0
   17.3943   -9.7710  -17.3585 C   0  0  0  0  0  0  0  0  0  0  0  0
   19.2199   -8.8402  -16.0743 O   0  0  0  0  0  0  0  0  0  0  0  0
   18.8511   -9.5159  -15.0818 C   0  0  0  0  0  0  0  0  0  0  0  0
   23.6969   -9.7066  -14.3923 C   0  0  2  0  0  0  0  0  0  0  0  0
   22.7971   -9.2258  -15.4808 O   0  0  0  0  0  0  0  0  0  0  0  0
   22.5045  -10.3731  -16.2489 C   0  0  1  0  0  0  0  0  0  0  0  0
   21.5082   -8.6576  -15.0402 N   0  0  0  0  0  0  0  0  0  0  0  0
   20.5424   -8.3797  -16.0579 C   0  0  0  0  0  0  0  0  0  0  0  0
   21.7190   -7.4498  -14.2167 O   0  0  0  0  0  0  0  0  0  0  0  0
   21.7506   -6.1562  -14.7198 O   0  0  0  0  0  0  0  0  0  0  0  0
  2  1  1  0
  3  2  2  0
  4  2  1  0
  5  4  1  0
  6  5  1  0
  6  7  1  0
  7  8  1  0
  8 10  1  0
  8  9  1  6
 10 15  1  0
 11 10  2  0
 13 12  1  0
 14 13  1  6
 15 14  1  0
 16 17  2  0
 16 14  1  0
 19 18  1  6
 19 21  1  0
 20 19  1  0
 21 22  1  6
 22 16  1  0
 23 21  1  0
 23 24  1  0
 25 23  2  0
M  END
$$$$
