RST.pdb
     RDKit          3D

 25 24  0  0  1  0  0  0  0  0999 V2000
   18.7472  -23.4374  -13.2051 N   0  0  0  0  0  0  0  0  0  0  0  0
   18.5257  -23.4651  -11.7913 C   0  0  0  0  0  0  0  0  0  0  0  0
   17.7854  -24.3923  -11.3367 N   0  0  0  0  0  0  0  0  0  0  0  0
   19.0976  -22.5124  -10.9361 N   0  0  0  0  0  0  0  0  0  0  0  0
   19.9708  -21.4540  -11.4786 C   0  0  0  0  0  0  0  0  0  0  0  0
   21.1551  -22.1307  -12.0685 C   0  0  0  0  0  0  0  0  0  0  0  0
   22.2364  -21.2677  -12.6046 C   0  0  0  0  0  0  0  0  0  0  0  0
   23.6130  -21.5591  -12.0910 C   0  0  2  0  0  0  0  0  0  0  0  0
   23.7517  -21.2968  -10.6645 N   0  0  0  0  0  0  0  0  0  0  0  0
   24.6394  -20.7540  -12.8374 C   0  0  0  0  0  0  0  0  0  0  0  0
   25.0936  -19.7007  -12.3290 O   0  0  0  0  0  0  0  0  0  0  0  0
   17.5644  -24.5798  -10.3447 O   0  0  0  0  0  0  0  0  0  0  0  0
   27.3145  -22.3592  -15.4042 C   0  0  0  0  0  0  0  0  0  0  0  0
   27.4559  -21.1470  -14.7753 C   0  0  1  0  0  0  0  0  0  0  0  0
   26.1408  -20.3493  -14.7495 N   0  0  0  0  0  0  0  0  0  0  0  0
   25.1165  -21.1497  -14.1095 C   0  0  0  0  0  0  0  0  0  0  0  0
   25.7987  -20.0822  -16.1695 O   0  0  0  0  0  0  0  0  0  0  0  0
   25.3839  -21.0468  -16.8589 C   0  0  0  0  0  0  0  0  0  0  0  0
   23.2094  -17.6868  -17.9129 C   0  0  2  0  0  0  0  0  0  0  0  0
   24.5941  -17.4848  -18.4302 O   0  0  0  0  0  0  0  0  0  0  0  0
   25.0848  -16.3586  -17.7352 C   0  0  2  0  0  0  0  0  0  0  0  0
   25.5368  -18.5929  -18.1826 N   0  0  0  0  0  0  0  0  0  0  0  0
   25.8939  -18.8461  -16.8210 C   0  0  0  0  0  0  0  0  0  0  0  0
   26.7615  -18.4336  -18.9927 O   0  0  0  0  0  0  0  0  0  0  0  0
   28.0263  -18.2162  -18.4632 O   0  0  0  0  0  0  0  0  0  0  0  0
  2  1  1  0
  3  2  2  0
  4  2  1  0
  5  4  1  0
  6  5  1  0
  6  7  1  0
  7  8  1  0
  8 10  1  0
  8  9  1  1
 10 15  1  0
 11 10  2  0
 13 12  1  0
 14 13  1  1
 15 14  1  0
 16 17  2  0
 16 14  1  0
 19 18  1  6
 19 21  1  0
 20 19  1  0
 21 22  1  6
 22 16  1  0
 23 21  1  0
 23 24  1  0
 25 23  2  0
M  END
$$$$
