RST.pdb
     RDKit          3D

 25 24  0  0  1  0  0  0  0  0999 V2000
   27.2146  -21.3683  -10.5354 N   0  0  0  0  0  0  0  0  0  0  0  0
   26.3038  -21.0492   -9.4784 C   0  0  0  0  0  0  0  0  0  0  0  0
   26.7860  -20.9424   -8.3077 N   0  0  0  0  0  0  0  0  0  0  0  0
   24.9347  -20.8612   -9.7158 N   0  0  0  0  0  0  0  0  0  0  0  0
   24.4584  -20.4718  -11.0569 C   0  0  0  0  0  0  0  0  0  0  0  0
   24.5612  -21.6777  -11.9193 C   0  0  0  0  0  0  0  0  0  0  0  0
   23.9760  -21.5943  -13.2801 C   0  0  0  0  0  0  0  0  0  0  0  0
   24.7033  -20.7095  -14.2455 C   0  0  2  0  0  0  0  0  0  0  0  0
   25.9652  -20.2107  -13.7149 N   0  0  0  0  0  0  0  0  0  0  0  0
   23.8458  -19.5415  -14.6445 C   0  0  0  0  0  0  0  0  0  0  0  0
   23.8410  -18.5037  -13.9394 O   0  0  0  0  0  0  0  0  0  0  0  0
   26.2824  -20.6514   -7.4535 O   0  0  0  0  0  0  0  0  0  0  0  0
   21.5950  -19.4273  -18.2295 C   0  0  0  0  0  0  0  0  0  0  0  0
   22.1529  -18.3002  -17.6788 C   0  0  1  0  0  0  0  0  0  0  0  0
   22.2637  -18.3960  -16.1475 N   0  0  0  0  0  0  0  0  0  0  0  0
   23.0342  -19.5737  -15.8034 C   0  0  0  0  0  0  0  0  0  0  0  0
   20.8708  -18.5047  -15.6445 O   0  0  0  0  0  0  0  0  0  0  0  0
   20.4395  -19.6523  -15.3710 C   0  0  0  0  0  0  0  0  0  0  0  0
   18.3858  -15.2331  -13.9589 C   0  0  2  0  0  0  0  0  0  0  0  0
   18.3619  -16.7057  -13.7208 O   0  0  0  0  0  0  0  0  0  0  0  0
   17.0350  -16.9937  -13.3356 C   0  0  1  0  0  0  0  0  0  0  0  0
   18.6663  -17.5478  -14.8939 N   0  0  0  0  0  0  0  0  0  0  0  0
   19.9827  -17.4408  -15.4426 C   0  0  0  0  0  0  0  0  0  0  0  0
   17.6677  -17.3429  -15.9628 O   0  0  0  0  0  0  0  0  0  0  0  0
   16.3364  -17.7260  -15.8727 O   0  0  0  0  0  0  0  0  0  0  0  0
  2  1  1  0
  3  2  2  0
  4  2  1  0
  5  4  1  0
  6  5  1  0
  6  7  1  0
  7  8  1  0
  8 10  1  0
  8  9  1  1
 10 15  1  0
 11 10  2  0
 13 12  1  0
 14 13  1  6
 15 14  1  0
 16 17  2  0
 16 14  1  0
 19 18  1  1
 19 21  1  0
 20 19  1  0
 21 22  1  1
 22 16  1  0
 23 21  1  0
 23 24  1  0
 25 23  2  0
M  END
$$$$
