RST.pdb
     RDKit          3D

 25 24  0  0  1  0  0  0  0  0999 V2000
   22.2129  -15.0854  -21.1116 N   0  0  0  0  0  0  0  0  0  0  0  0
   23.2613  -14.6872  -22.0009 C   0  0  0  0  0  0  0  0  0  0  0  0
   23.7516  -15.5812  -22.7591 N   0  0  0  0  0  0  0  0  0  0  0  0
   23.7340  -13.3678  -22.0403 N   0  0  0  0  0  0  0  0  0  0  0  0
   23.3945  -12.4229  -20.9591 C   0  0  0  0  0  0  0  0  0  0  0  0
   22.7699  -11.2372  -21.6013 C   0  0  0  0  0  0  0  0  0  0  0  0
   22.2612  -10.1673  -20.7082 C   0  0  0  0  0  0  0  0  0  0  0  0
   23.2422   -9.6366  -19.7082 C   0  0  2  0  0  0  0  0  0  0  0  0
   24.2569  -10.6144  -19.3378 N   0  0  0  0  0  0  0  0  0  0  0  0
   22.5351   -9.1723  -18.4660 C   0  0  0  0  0  0  0  0  0  0  0  0
   21.4896   -8.4859  -18.5652 O   0  0  0  0  0  0  0  0  0  0  0  0
   24.5559  -15.4785  -23.3999 O   0  0  0  0  0  0  0  0  0  0  0  0
   22.0448   -9.3165  -13.6519 C   0  0  0  0  0  0  0  0  0  0  0  0
   22.6520   -9.7932  -14.7871 C   0  0  1  0  0  0  0  0  0  0  0  0
   22.3329   -8.9323  -16.0214 N   0  0  0  0  0  0  0  0  0  0  0  0
   23.0151   -9.4878  -17.1727 C   0  0  0  0  0  0  0  0  0  0  0  0
   22.8363   -7.5707  -15.7094 O   0  0  0  0  0  0  0  0  0  0  0  0
   24.0756   -7.3788  -15.7801 C   0  0  0  0  0  0  0  0  0  0  0  0
   20.6748   -3.7579  -15.9535 C   0  0  2  0  0  0  0  0  0  0  0  0
   22.1342   -4.0677  -15.9437 O   0  0  0  0  0  0  0  0  0  0  0  0
   22.7567   -2.8883  -15.4819 C   0  0  1  0  0  0  0  0  0  0  0  0
   22.5496   -5.1599  -15.0423 N   0  0  0  0  0  0  0  0  0  0  0  0
   22.0551   -6.4683  -15.3410 C   0  0  0  0  0  0  0  0  0  0  0  0
   22.2459   -4.8265  -13.6359 O   0  0  0  0  0  0  0  0  0  0  0  0
   22.6919   -3.6813  -12.9901 O   0  0  0  0  0  0  0  0  0  0  0  0
  2  1  1  0
  3  2  2  0
  4  2  1  0
  5  4  1  0
  6  5  1  0
  6  7  1  0
  7  8  1  0
  8 10  1  0
  8  9  1  1
 10 15  1  0
 11 10  2  0
 13 12  1  0
 14 13  1  6
 15 14  1  0
 16 17  2  0
 16 14  1  0
 19 18  1  6
 19 21  1  0
 20 19  1  0
 21 22  1  6
 22 16  1  0
 23 21  1  0
 23 24  1  0
 25 23  2  0
M  END
$$$$
