RST.pdb
     RDKit          3D

 25 24  0  0  1  0  0  0  0  0999 V2000
   28.3008  -13.0138  -16.6800 N   0  0  0  0  0  0  0  0  0  0  0  0
   27.5361  -14.2035  -16.4602 C   0  0  0  0  0  0  0  0  0  0  0  0
   28.0396  -15.3002  -16.8577 N   0  0  0  0  0  0  0  0  0  0  0  0
   26.2822  -14.1693  -15.8335 N   0  0  0  0  0  0  0  0  0  0  0  0
   25.6226  -12.8785  -15.5581 C   0  0  0  0  0  0  0  0  0  0  0  0
   24.8457  -12.5219  -16.7737 C   0  0  0  0  0  0  0  0  0  0  0  0
   24.0177  -11.2921  -16.7170 C   0  0  0  0  0  0  0  0  0  0  0  0
   22.5360  -11.5093  -16.6809 C   0  0  2  0  0  0  0  0  0  0  0  0
   22.0558  -12.3182  -17.7935 N   0  0  0  0  0  0  0  0  0  0  0  0
   21.8068  -10.1952  -16.6822 C   0  0  0  0  0  0  0  0  0  0  0  0
   21.7059   -9.5410  -17.7480 O   0  0  0  0  0  0  0  0  0  0  0  0
   27.5636  -16.2155  -16.9188 O   0  0  0  0  0  0  0  0  0  0  0  0
   19.2385   -9.1501  -13.6641 C   0  0  0  0  0  0  0  0  0  0  0  0
   19.1294   -8.5813  -14.9088 C   0  0  1  0  0  0  0  0  0  0  0  0
   20.4970   -8.4142  -15.5928 N   0  0  0  0  0  0  0  0  0  0  0  0
   21.2229   -9.6652  -15.5072 C   0  0  0  0  0  0  0  0  0  0  0  0
   21.1976   -7.3393  -14.8453 O   0  0  0  0  0  0  0  0  0  0  0  0
   21.8536   -7.6720  -13.8271 C   0  0  0  0  0  0  0  0  0  0  0  0
   24.1827   -5.0794  -15.3907 C   0  0  2  0  0  0  0  0  0  0  0  0
   22.9732   -4.2509  -15.1146 O   0  0  0  0  0  0  0  0  0  0  0  0
   22.4999   -3.8576  -16.3848 C   0  0  2  0  0  0  0  0  0  0  0  0
   21.8638   -4.9465  -14.4338 N   0  0  0  0  0  0  0  0  0  0  0  0
   21.1982   -5.9768  -15.1693 C   0  0  0  0  0  0  0  0  0  0  0  0
   20.8684   -3.9802  -13.9267 O   0  0  0  0  0  0  0  0  0  0  0  0
   21.1384   -3.0072  -12.9740 O   0  0  0  0  0  0  0  0  0  0  0  0
  2  1  1  0
  3  2  2  0
  4  2  1  0
  5  4  1  0
  6  5  1  0
  6  7  1  0
  7  8  1  0
  8 10  1  0
  8  9  1  6
 10 15  1  0
 11 10  2  0
 13 12  1  0
 14 13  1  6
 15 14  1  0
 16 17  2  0
 16 14  1  0
 19 18  1  1
 19 21  1  0
 20 19  1  0
 21 22  1  1
 22 16  1  0
 23 21  1  0
 23 24  1  0
 25 23  2  0
M  END
$$$$
