RST.pdb
     RDKit          3D

 25 24  0  0  1  0  0  0  0  0999 V2000
   15.0070  -24.0708   -3.4106 N   0  0  0  0  0  0  0  0  0  0  0  0
   13.8742  -24.6215   -4.0903 C   0  0  0  0  0  0  0  0  0  0  0  0
   12.8923  -24.9951   -3.3756 N   0  0  0  0  0  0  0  0  0  0  0  0
   13.8410  -24.7478   -5.4863 N   0  0  0  0  0  0  0  0  0  0  0  0
   15.0428  -25.1836   -6.2231 C   0  0  0  0  0  0  0  0  0  0  0  0
   16.0988  -24.1701   -5.9662 C   0  0  0  0  0  0  0  0  0  0  0  0
   16.9634  -23.7822   -7.1076 C   0  0  0  0  0  0  0  0  0  0  0  0
   17.9454  -24.8195   -7.5588 C   0  0  2  0  0  0  0  0  0  0  0  0
   18.9768  -25.0913   -6.5663 N   0  0  0  0  0  0  0  0  0  0  0  0
   18.6029  -24.4041   -8.8449 C   0  0  0  0  0  0  0  0  0  0  0  0
   19.7587  -23.9162   -8.8232 O   0  0  0  0  0  0  0  0  0  0  0  0
   11.9973  -25.3902   -3.7086 O   0  0  0  0  0  0  0  0  0  0  0  0
   18.6359  -24.6388  -13.6841 C   0  0  0  0  0  0  0  0  0  0  0  0
   17.9513  -24.8317  -12.5098 C   0  0  2  0  0  0  0  0  0  0  0  0
   18.6893  -24.2298  -11.3018 N   0  0  0  0  0  0  0  0  0  0  0  0
   17.9540  -24.5470  -10.0943 C   0  0  0  0  0  0  0  0  0  0  0  0
   18.7239  -22.7638  -11.5349 O   0  0  0  0  0  0  0  0  0  0  0  0
   17.6927  -22.1054  -11.2506 C   0  0  0  0  0  0  0  0  0  0  0  0
   21.0748  -19.7733  -10.3277 C   0  0  2  0  0  0  0  0  0  0  0  0
   20.9583  -19.8568  -11.8128 O   0  0  0  0  0  0  0  0  0  0  0  0
   22.1295  -20.5211  -12.2360 C   0  0  2  0  0  0  0  0  0  0  0  0
   19.8107  -20.6330  -12.3211 N   0  0  0  0  0  0  0  0  0  0  0  0
   19.8063  -22.0365  -12.0457 C   0  0  0  0  0  0  0  0  0  0  0  0
   19.6269  -20.4137  -13.7702 O   0  0  0  0  0  0  0  0  0  0  0  0
   19.4866  -19.1649  -14.3602 O   0  0  0  0  0  0  0  0  0  0  0  0
  2  1  1  0
  3  2  2  0
  4  2  1  0
  5  4  1  0
  6  5  1  0
  6  7  1  0
  7  8  1  0
  8 10  1  0
  8  9  1  1
 10 15  1  0
 11 10  2  0
 13 12  1  0
 14 13  1  1
 15 14  1  0
 16 17  2  0
 16 14  1  0
 19 18  1  6
 19 21  1  0
 20 19  1  0
 21 22  1  6
 22 16  1  0
 23 21  1  0
 23 24  1  0
 25 23  2  0
M  END
$$$$
