RST.pdb
     RDKit          3D

 25 24  0  0  1  0  0  0  0  0999 V2000
   20.1045  -23.8771   -7.2560 N   0  0  0  0  0  0  0  0  0  0  0  0
   19.7868  -23.5912   -8.6220 C   0  0  0  0  0  0  0  0  0  0  0  0
   19.5354  -24.5797   -9.3797 N   0  0  0  0  0  0  0  0  0  0  0  0
   19.7528  -22.2780   -9.1123 N   0  0  0  0  0  0  0  0  0  0  0  0
   20.9727  -21.4481   -9.1031 C   0  0  0  0  0  0  0  0  0  0  0  0
   21.4434  -21.3556  -10.5096 C   0  0  0  0  0  0  0  0  0  0  0  0
   22.6455  -20.5269  -10.7730 C   0  0  0  0  0  0  0  0  0  0  0  0
   23.9501  -21.1206  -10.3378 C   0  0  2  0  0  0  0  0  0  0  0  0
   24.2169  -20.9214   -8.9194 N   0  0  0  0  0  0  0  0  0  0  0  0
   25.0872  -20.5445  -11.1340 C   0  0  0  0  0  0  0  0  0  0  0  0
   25.7138  -19.5506  -10.6940 O   0  0  0  0  0  0  0  0  0  0  0  0
   19.2554  -24.5440  -10.3738 O   0  0  0  0  0  0  0  0  0  0  0  0
   26.7969  -22.3724  -14.5255 C   0  0  0  0  0  0  0  0  0  0  0  0
   27.4518  -21.4413  -13.7581 C   0  0  1  0  0  0  0  0  0  0  0  0
   26.4887  -20.4036  -13.1564 N   0  0  0  0  0  0  0  0  0  0  0  0
   25.4794  -21.0928  -12.3782 C   0  0  0  0  0  0  0  0  0  0  0  0
   25.8800  -19.6955  -14.3109 O   0  0  0  0  0  0  0  0  0  0  0  0
   24.7438  -20.0728  -14.6909 C   0  0  0  0  0  0  0  0  0  0  0  0
   25.5999  -15.6834  -15.0510 C   0  0  2  0  0  0  0  0  0  0  0  0
   26.0929  -16.4903  -16.2050 O   0  0  0  0  0  0  0  0  0  0  0  0
   27.4917  -16.3024  -16.2133 C   0  0  2  0  0  0  0  0  0  0  0  0
   25.8501  -17.9435  -16.1189 N   0  0  0  0  0  0  0  0  0  0  0  0
   26.4556  -18.6364  -15.0240 C   0  0  0  0  0  0  0  0  0  0  0  0
   26.2081  -18.6133  -17.3856 O   0  0  0  0  0  0  0  0  0  0  0  0
   25.6807  -18.2757  -18.6247 O   0  0  0  0  0  0  0  0  0  0  0  0
  2  1  1  0
  3  2  2  0
  4  2  1  0
  5  4  1  0
  6  5  1  0
  6  7  1  0
  7  8  1  0
  8 10  1  0
  8  9  1  1
 10 15  1  0
 11 10  2  0
 13 12  1  0
 14 13  1  1
 15 14  1  0
 16 17  2  0
 16 14  1  0
 19 18  1  6
 19 21  1  0
 20 19  1  0
 21 22  1  6
 22 16  1  0
 23 21  1  0
 23 24  1  0
 25 23  2  0
M  END
$$$$
