RST.pdb
     RDKit          3D

 25 24  0  0  1  0  0  0  0  0999 V2000
   19.0936  -24.6518   -6.5959 N   0  0  0  0  0  0  0  0  0  0  0  0
   18.2943  -24.6964   -7.7823 C   0  0  0  0  0  0  0  0  0  0  0  0
   17.2843  -25.4674   -7.7744 N   0  0  0  0  0  0  0  0  0  0  0  0
   18.6057  -23.9252   -8.9112 N   0  0  0  0  0  0  0  0  0  0  0  0
   19.6962  -22.9328   -8.8570 C   0  0  0  0  0  0  0  0  0  0  0  0
   19.6818  -22.2033  -10.1516 C   0  0  0  0  0  0  0  0  0  0  0  0
   20.7025  -21.1449  -10.3488 C   0  0  0  0  0  0  0  0  0  0  0  0
   22.1286  -21.5948  -10.2597 C   0  0  2  0  0  0  0  0  0  0  0  0
   22.7069  -21.3829   -8.9393 N   0  0  0  0  0  0  0  0  0  0  0  0
   22.9732  -20.8873  -11.2819 C   0  0  0  0  0  0  0  0  0  0  0  0
   23.3563  -19.7122  -11.0664 O   0  0  0  0  0  0  0  0  0  0  0  0
   16.6400  -25.6538   -8.5605 O   0  0  0  0  0  0  0  0  0  0  0  0
   24.7803  -22.8071  -14.5603 C   0  0  0  0  0  0  0  0  0  0  0  0
   25.2702  -21.6603  -13.9861 C   0  0  1  0  0  0  0  0  0  0  0  0
   24.1487  -20.7575  -13.4442 N   0  0  0  0  0  0  0  0  0  0  0  0
   23.3556  -21.5103  -12.4936 C   0  0  0  0  0  0  0  0  0  0  0  0
   23.3363  -20.3650  -14.6234 O   0  0  0  0  0  0  0  0  0  0  0  0
   22.2524  -20.9715  -14.8105 C   0  0  0  0  0  0  0  0  0  0  0  0
   21.8768  -17.2863  -18.1982 C   0  0  2  0  0  0  0  0  0  0  0  0
   22.6907  -17.6036  -16.9888 O   0  0  0  0  0  0  0  0  0  0  0  0
   21.9548  -17.0811  -15.9037 C   0  0  1  0  0  0  0  0  0  0  0  0
   22.9020  -19.0392  -16.7193 N   0  0  0  0  0  0  0  0  0  0  0  0
   23.6645  -19.3734  -15.5564 C   0  0  0  0  0  0  0  0  0  0  0  0
   23.4771  -19.7174  -17.8986 O   0  0  0  0  0  0  0  0  0  0  0  0
   22.7469  -20.0922  -19.0183 O   0  0  0  0  0  0  0  0  0  0  0  0
  2  1  1  0
  3  2  2  0
  4  2  1  0
  5  4  1  0
  6  5  1  0
  6  7  1  0
  7  8  1  0
  8 10  1  0
  8  9  1  1
 10 15  1  0
 11 10  2  0
 13 12  1  0
 14 13  1  1
 15 14  1  0
 16 17  2  0
 16 14  1  0
 19 18  1  6
 19 21  1  0
 20 19  1  0
 21 22  1  6
 22 16  1  0
 23 21  1  0
 23 24  1  0
 25 23  2  0
M  END
$$$$
