RST.pdb
     RDKit          3D

 25 24  0  0  1  0  0  0  0  0999 V2000
   24.5539  -20.6475  -10.0165 N   0  0  0  0  0  0  0  0  0  0  0  0
   25.9746  -20.8171   -9.9779 C   0  0  0  0  0  0  0  0  0  0  0  0
   26.5002  -21.0648   -8.8479 N   0  0  0  0  0  0  0  0  0  0  0  0
   26.7614  -20.7154  -11.1340 N   0  0  0  0  0  0  0  0  0  0  0  0
   26.2187  -20.0805  -12.3503 C   0  0  0  0  0  0  0  0  0  0  0  0
   25.4652  -21.1290  -13.0859 C   0  0  0  0  0  0  0  0  0  0  0  0
   24.8406  -20.7418  -14.3747 C   0  0  0  0  0  0  0  0  0  0  0  0
   23.9339  -19.5505  -14.3237 C   0  0  2  0  0  0  0  0  0  0  0  0
   22.5490  -19.8802  -14.6341 N   0  0  0  0  0  0  0  0  0  0  0  0
   24.4057  -18.4834  -15.2710 C   0  0  0  0  0  0  0  0  0  0  0  0
   23.9968  -18.4796  -16.4571 O   0  0  0  0  0  0  0  0  0  0  0  0
   27.5084  -21.1521   -8.6383 O   0  0  0  0  0  0  0  0  0  0  0  0
   26.7414  -14.2610  -15.8463 C   0  0  0  0  0  0  0  0  0  0  0  0
   26.2416  -15.2301  -15.0120 C   0  0  1  0  0  0  0  0  0  0  0  0
   25.6152  -16.3997  -15.7904 N   0  0  0  0  0  0  0  0  0  0  0  0
   25.3065  -17.4705  -14.8644 C   0  0  0  0  0  0  0  0  0  0  0  0
   26.6392  -16.8271  -16.7771 O   0  0  0  0  0  0  0  0  0  0  0  0
   27.6462  -17.4388  -16.3418 C   0  0  0  0  0  0  0  0  0  0  0  0
   26.8055  -19.2990  -19.8090 C   0  0  2  0  0  0  0  0  0  0  0  0
   27.1479  -17.9006  -20.2004 O   0  0  0  0  0  0  0  0  0  0  0  0
   25.9498  -17.3594  -20.7138 C   0  0  2  0  0  0  0  0  0  0  0  0
   27.5873  -17.0188  -19.1016 N   0  0  0  0  0  0  0  0  0  0  0  0
   26.5901  -16.6127  -18.1602 C   0  0  0  0  0  0  0  0  0  0  0  0
   28.2830  -15.8272  -19.6286 O   0  0  0  0  0  0  0  0  0  0  0  0
   27.8373  -14.5233  -19.4599 O   0  0  0  0  0  0  0  0  0  0  0  0
  2  1  1  0
  3  2  2  0
  4  2  1  0
  5  4  1  0
  6  5  1  0
  6  7  1  0
  7  8  1  0
  8 10  1  0
  8  9  1  6
 10 15  1  0
 11 10  2  0
 13 12  1  0
 14 13  1  1
 15 14  1  0
 16 17  2  0
 16 14  1  0
 19 18  1  6
 19 21  1  0
 20 19  1  0
 21 22  1  6
 22 16  1  0
 23 21  1  0
 23 24  1  0
 25 23  2  0
M  END
$$$$
