RST.pdb
     RDKit          3D

 25 24  0  0  1  0  0  0  0  0999 V2000
   16.2768  -14.9438  -20.4400 N   0  0  0  0  0  0  0  0  0  0  0  0
   16.5745  -13.7932  -21.2376 C   0  0  0  0  0  0  0  0  0  0  0  0
   15.8380  -13.5818  -22.2512 N   0  0  0  0  0  0  0  0  0  0  0  0
   17.6333  -12.9300  -20.9212 N   0  0  0  0  0  0  0  0  0  0  0  0
   18.5421  -13.2457  -19.8026 C   0  0  0  0  0  0  0  0  0  0  0  0
   19.5353  -12.1427  -19.7279 C   0  0  0  0  0  0  0  0  0  0  0  0
   20.6399  -12.2854  -18.7478 C   0  0  0  0  0  0  0  0  0  0  0  0
   21.5411  -11.0969  -18.6092 C   0  0  2  0  0  0  0  0  0  0  0  0
   22.9338  -11.4656  -18.3917 N   0  0  0  0  0  0  0  0  0  0  0  0
   21.0873  -10.2156  -17.4796 C   0  0  0  0  0  0  0  0  0  0  0  0
   19.9183   -9.7601  -17.4771 O   0  0  0  0  0  0  0  0  0  0  0  0
   15.9020  -12.7881  -22.9099 O   0  0  0  0  0  0  0  0  0  0  0  0
   23.2417   -9.8318  -13.9661 C   0  0  0  0  0  0  0  0  0  0  0  0
   21.8963   -9.5602  -13.9949 C   0  0  1  0  0  0  0  0  0  0  0  0
   21.4437   -9.0115  -15.3589 N   0  0  0  0  0  0  0  0  0  0  0  0
   21.9451   -9.8787  -16.4057 C   0  0  0  0  0  0  0  0  0  0  0  0
   22.0312   -7.6520  -15.4661 O   0  0  0  0  0  0  0  0  0  0  0  0
   23.1683   -7.5498  -15.9898 C   0  0  0  0  0  0  0  0  0  0  0  0
   21.0780   -4.6108  -17.4560 C   0  0  2  0  0  0  0  0  0  0  0  0
   21.2518   -4.2005  -16.0321 O   0  0  0  0  0  0  0  0  0  0  0  0
   19.9421   -4.1089  -15.5141 C   0  0  2  0  0  0  0  0  0  0  0  0
   21.9911   -5.1510  -15.1788 N   0  0  0  0  0  0  0  0  0  0  0  0
   21.4338   -6.4605  -15.0363 C   0  0  0  0  0  0  0  0  0  0  0  0
   22.2431   -4.5736  -13.8429 O   0  0  0  0  0  0  0  0  0  0  0  0
   22.9703   -3.4127  -13.6176 O   0  0  0  0  0  0  0  0  0  0  0  0
  2  1  1  0
  3  2  2  0
  4  2  1  0
  5  4  1  0
  6  5  1  0
  6  7  1  0
  7  8  1  0
  8 10  1  0
  8  9  1  1
 10 15  1  0
 11 10  2  0
 13 12  1  0
 14 13  1  1
 15 14  1  0
 16 17  2  0
 16 14  1  0
 19 18  1  6
 19 21  1  0
 20 19  1  0
 21 22  1  1
 22 16  1  0
 23 21  1  0
 23 24  1  0
 25 23  2  0
M  END
$$$$
