RST.pdb
     RDKit          3D

 25 24  0  0  1  0  0  0  0  0999 V2000
   26.8120  -16.1958  -18.1912 N   0  0  0  0  0  0  0  0  0  0  0  0
   28.2171  -16.4215  -18.0382 C   0  0  0  0  0  0  0  0  0  0  0  0
   28.9799  -15.4077  -18.1075 N   0  0  0  0  0  0  0  0  0  0  0  0
   28.7388  -17.7047  -17.8210 N   0  0  0  0  0  0  0  0  0  0  0  0
   27.9768  -18.6952  -17.0366 C   0  0  0  0  0  0  0  0  0  0  0  0
   27.3804  -17.9688  -15.8854 C   0  0  0  0  0  0  0  0  0  0  0  0
   26.5497  -18.7546  -14.9401 C   0  0  0  0  0  0  0  0  0  0  0  0
   26.9560  -20.1844  -14.7542 C   0  0  2  0  0  0  0  0  0  0  0  0
   27.0634  -20.9100  -16.0130 N   0  0  0  0  0  0  0  0  0  0  0  0
   25.9836  -20.9004  -13.8595 C   0  0  0  0  0  0  0  0  0  0  0  0
   25.1753  -21.7239  -14.3521 O   0  0  0  0  0  0  0  0  0  0  0  0
   30.0133  -15.4077  -18.1084 O   0  0  0  0  0  0  0  0  0  0  0  0
   25.4194  -19.7396   -9.8893 C   0  0  0  0  0  0  0  0  0  0  0  0
   25.1664  -21.0547  -10.1918 C   0  0  1  0  0  0  0  0  0  0  0  0
   24.8746  -21.2605  -11.6881 N   0  0  0  0  0  0  0  0  0  0  0  0
   25.9493  -20.6741  -12.4630 C   0  0  0  0  0  0  0  0  0  0  0  0
   23.5882  -20.5673  -11.9512 O   0  0  0  0  0  0  0  0  0  0  0  0
   23.5953  -19.3112  -11.9570 C   0  0  0  0  0  0  0  0  0  0  0  0
   21.8542  -19.3704  -14.6075 C   0  0  2  0  0  0  0  0  0  0  0  0
   20.8473  -20.2209  -13.9084 O   0  0  0  0  0  0  0  0  0  0  0  0
   20.8688  -21.4541  -14.5945 C   0  0  2  0  0  0  0  0  0  0  0  0
   21.1292  -20.5085  -12.4886 N   0  0  0  0  0  0  0  0  0  0  0  0
   22.3553  -21.1846  -12.1968 C   0  0  0  0  0  0  0  0  0  0  0  0
   20.0044  -21.2349  -11.8650 O   0  0  0  0  0  0  0  0  0  0  0  0
   18.6982  -20.7664  -11.8236 O   0  0  0  0  0  0  0  0  0  0  0  0
  2  1  1  0
  3  2  2  0
  4  2  1  0
  5  4  1  0
  6  5  1  0
  6  7  1  0
  7  8  1  0
  8 10  1  0
  8  9  1  6
 10 15  1  0
 11 10  2  0
 13 12  1  0
 14 13  1  1
 15 14  1  0
 16 17  2  0
 16 14  1  0
 19 18  1  6
 19 21  1  0
 20 19  1  0
 21 22  1  1
 22 16  1  0
 23 21  1  0
 23 24  1  0
 25 23  2  0
M  END
$$$$
