NNK.pdb
     RDKit          3D

 26 25  0  0  1  0  0  0  0  0999 V2000
   17.2440  -13.0797  -16.6879 N   0  0  0  0  0  0  0  0  0  0  0  0
   17.5560  -12.9175  -15.3137 C   0  0  0  0  0  0  0  0  0  0  0  0
   17.5686  -13.9275  -14.5450 O   0  0  0  0  0  0  0  0  0  0  0  0
   17.8647  -11.5770  -14.7925 C   0  0  0  0  0  0  0  0  0  0  0  0
   17.7726  -10.5216  -15.8703 C   0  0  2  0  0  0  0  0  0  0  0  0
   18.8753  -10.8294  -16.7872 N   0  0  0  0  0  0  0  0  0  0  0  0
   18.0683   -9.1982  -15.2052 C   0  0  0  0  0  0  0  0  0  0  0  0
   17.3327   -8.7014  -14.3278 O   0  0  0  0  0  0  0  0  0  0  0  0
   21.5239   -8.0028  -12.7838 N   0  0  0  0  0  0  0  0  0  0  0  0
   21.7356   -7.9595  -14.1808 C   0  0  0  0  0  0  0  0  0  0  0  0
   22.4753   -8.8044  -14.7075 O   0  0  0  0  0  0  0  0  0  0  0  0
   21.0802   -6.9230  -14.9825 C   0  0  0  0  0  0  0  0  0  0  0  0
   19.5943   -7.1734  -15.0098 C   0  0  2  0  0  0  0  0  0  0  0  0
   19.2450   -8.4564  -15.5816 N   0  0  0  0  0  0  0  0  0  0  0  0
   18.8822   -6.0695  -15.7293 C   0  0  0  0  0  0  0  0  0  0  0  0
   19.0313   -5.9428  -16.9581 O   0  0  0  0  0  0  0  0  0  0  0  0
   18.0528   -5.1899  -14.9974 N   0  0  0  0  0  0  0  0  0  0  0  0
   17.3254   -4.1289  -15.7047 C   0  0  1  0  0  0  0  0  0  0  0  0
   15.8506   -4.2987  -15.4687 C   0  0  0  0  0  0  0  0  0  0  0  0
   15.0740   -3.2145  -16.1489 C   0  0  0  0  0  0  0  0  0  0  0  0
   13.5876   -3.3536  -15.8980 C   0  0  0  0  0  0  0  0  0  0  0  0
   12.9247   -2.2716  -16.7459 C   0  0  0  0  0  0  0  0  0  0  0  0
   11.4934   -2.3537  -16.7183 N   0  0  0  0  0  0  0  0  0  0  0  0
   17.7696   -2.8226  -15.1631 C   0  0  0  0  0  0  0  0  0  0  0  0
   18.2253   -2.7772  -13.8250 O   0  0  0  0  0  0  0  0  0  0  0  0
   17.7765   -1.7435  -15.7941 O   0  0  0  0  0  0  0  0  0  0  0  0
  2  1  1  0
  2  3  2  0
  4  2  1  0
  5  4  1  0
  5  6  1  6
  7  5  1  0
  8  7  2  0
  9 10  1  0
 10 12  1  0
 11 10  2  0
 13 12  1  6
 13 14  1  0
 14  7  1  0
 15 13  1  0
 15 16  2  0
 17 18  1  0
 17 15  1  0
 18 19  1  1
 19 20  1  0
 21 20  1  0
 22 23  1  0
 22 21  1  0
 24 18  1  0
 25 24  1  0
 26 24  2  0
M  END
$$$$
