NNK.pdb
     RDKit          3D

 26 25  0  0  1  0  0  0  0  0999 V2000
   21.0682  -16.7579  -19.0100 N   0  0  0  0  0  0  0  0  0  0  0  0
   21.5102  -16.9319  -17.6733 C   0  0  0  0  0  0  0  0  0  0  0  0
   21.4689  -18.0823  -17.1386 O   0  0  0  0  0  0  0  0  0  0  0  0
   22.0152  -15.7742  -16.9192 C   0  0  0  0  0  0  0  0  0  0  0  0
   21.9038  -14.4945  -17.7155 C   0  0  2  0  0  0  0  0  0  0  0  0
   22.8922  -14.6380  -18.7898 N   0  0  0  0  0  0  0  0  0  0  0  0
   22.3569  -13.3783  -16.8046 C   0  0  0  0  0  0  0  0  0  0  0  0
   21.7504  -13.0688  -15.7586 O   0  0  0  0  0  0  0  0  0  0  0  0
   26.7539  -12.3765  -15.0077 N   0  0  0  0  0  0  0  0  0  0  0  0
   26.2765  -12.2209  -16.3291 C   0  0  0  0  0  0  0  0  0  0  0  0
   26.6011  -13.0510  -17.1917 O   0  0  0  0  0  0  0  0  0  0  0  0
   25.4085  -11.0875  -16.6587 C   0  0  0  0  0  0  0  0  0  0  0  0
   23.9729  -11.4591  -16.3896 C   0  0  2  0  0  0  0  0  0  0  0  0
   23.5382  -12.6218  -17.1343 N   0  0  0  0  0  0  0  0  0  0  0  0
   23.0644  -10.2986  -16.6558 C   0  0  0  0  0  0  0  0  0  0  0  0
   22.9357   -9.8752  -17.8187 O   0  0  0  0  0  0  0  0  0  0  0  0
   22.3692   -9.7041  -15.5785 N   0  0  0  0  0  0  0  0  0  0  0  0
   21.5090   -8.5412  -15.8297 C   0  0  1  0  0  0  0  0  0  0  0  0
   20.0702   -8.9756  -15.8023 C   0  0  0  0  0  0  0  0  0  0  0  0
   19.1621   -7.8320  -16.1325 C   0  0  0  0  0  0  0  0  0  0  0  0
   17.7100   -8.2593  -16.1419 C   0  0  0  0  0  0  0  0  0  0  0  0
   16.9139   -7.0025  -16.4816 C   0  0  0  0  0  0  0  0  0  0  0  0
   15.5131   -7.2663  -16.6376 N   0  0  0  0  0  0  0  0  0  0  0  0
   21.7498   -7.5469  -14.7570 C   0  0  0  0  0  0  0  0  0  0  0  0
   21.5002   -6.1847  -15.0439 O   0  0  0  0  0  0  0  0  0  0  0  0
   22.1598   -7.8109  -13.6060 O   0  0  0  0  0  0  0  0  0  0  0  0
  2  1  1  0
  2  3  2  0
  4  2  1  0
  5  4  1  0
  5  6  1  6
  7  5  1  0
  8  7  2  0
  9 10  1  0
 10 12  1  0
 11 10  2  0
 13 12  1  6
 13 14  1  0
 14  7  1  0
 15 13  1  0
 15 16  2  0
 17 18  1  0
 17 15  1  0
 18 19  1  1
 19 20  1  0
 21 20  1  0
 22 23  1  0
 22 21  1  0
 24 18  1  0
 25 24  1  0
 26 24  2  0
M  END
$$$$
