NNK.pdb
     RDKit          3D

 26 25  0  0  1  0  0  0  0  0999 V2000
   12.2189  -13.2174   -9.4689 N   0  0  0  0  0  0  0  0  0  0  0  0
   12.1028  -12.7438  -10.8010 C   0  0  0  0  0  0  0  0  0  0  0  0
   11.3248  -13.3300  -11.6147 O   0  0  0  0  0  0  0  0  0  0  0  0
   12.8860  -11.5735  -11.2262 C   0  0  0  0  0  0  0  0  0  0  0  0
   13.8544  -11.1276  -10.1550 C   0  0  2  0  0  0  0  0  0  0  0  0
   13.0156  -10.8699   -8.9796 N   0  0  0  0  0  0  0  0  0  0  0  0
   14.4343   -9.8120  -10.6175 C   0  0  0  0  0  0  0  0  0  0  0  0
   14.3377   -9.4049  -11.7934 O   0  0  0  0  0  0  0  0  0  0  0  0
   15.9178   -4.4635   -9.5974 N   0  0  0  0  0  0  0  0  0  0  0  0
   16.7067   -5.6044   -9.3245 C   0  0  0  0  0  0  0  0  0  0  0  0
   17.9358   -5.5416   -9.4790 O   0  0  0  0  0  0  0  0  0  0  0  0
   16.0642   -6.8381   -8.8641 C   0  0  0  0  0  0  0  0  0  0  0  0
   15.7642   -7.7206  -10.0485 C   0  0  2  0  0  0  0  0  0  0  0  0
   15.1343   -8.9706   -9.6802 N   0  0  0  0  0  0  0  0  0  0  0  0
   17.0043   -7.9763  -10.8486 C   0  0  0  0  0  0  0  0  0  0  0  0
   17.7368   -8.9377  -10.5532 O   0  0  0  0  0  0  0  0  0  0  0  0
   17.3205   -7.1183  -11.9262 N   0  0  0  0  0  0  0  0  0  0  0  0
   18.3971   -7.4907  -12.8522 C   0  0  1  0  0  0  0  0  0  0  0  0
   17.9230   -8.6096  -13.7370 C   0  0  0  0  0  0  0  0  0  0  0  0
   18.9340   -8.9141  -14.7985 C   0  0  0  0  0  0  0  0  0  0  0  0
   18.4152   -9.9405  -15.7828 C   0  0  0  0  0  0  0  0  0  0  0  0
   19.5092  -10.0892  -16.8364 C   0  0  0  0  0  0  0  0  0  0  0  0
   19.1193  -10.9516  -17.9136 N   0  0  0  0  0  0  0  0  0  0  0  0
   18.7261   -6.3059  -13.6801 C   0  0  0  0  0  0  0  0  0  0  0  0
   17.7271   -5.3210  -13.8594 O   0  0  0  0  0  0  0  0  0  0  0  0
   19.8239   -6.0989  -14.2409 O   0  0  0  0  0  0  0  0  0  0  0  0
  2  1  1  0
  2  3  2  0
  4  2  1  0
  5  4  1  0
  5  6  1  1
  7  5  1  0
  8  7  2  0
  9 10  1  0
 10 12  1  0
 11 10  2  0
 13 12  1  1
 13 14  1  0
 14  7  1  0
 15 13  1  0
 15 16  2  0
 17 18  1  0
 17 15  1  0
 18 19  1  6
 19 20  1  0
 21 20  1  0
 22 23  1  0
 22 21  1  0
 24 18  1  0
 25 24  1  0
 26 24  2  0
M  END
$$$$
