NNK.pdb
     RDKit          3D

 26 25  0  0  1  0  0  0  0  0999 V2000
   19.6280  -10.5718  -19.2470 N   0  0  0  0  0  0  0  0  0  0  0  0
   20.5771  -10.5951  -18.1931 C   0  0  0  0  0  0  0  0  0  0  0  0
   21.1896   -9.5312  -17.8704 O   0  0  0  0  0  0  0  0  0  0  0  0
   20.8410  -11.8552  -17.4814 C   0  0  0  0  0  0  0  0  0  0  0  0
   19.9377  -12.9687  -17.9593 C   0  0  2  0  0  0  0  0  0  0  0  0
   18.6137  -12.6269  -17.4285 N   0  0  0  0  0  0  0  0  0  0  0  0
   20.4083  -14.2302  -17.2750 C   0  0  0  0  0  0  0  0  0  0  0  0
   21.4981  -14.7782  -17.5391 O   0  0  0  0  0  0  0  0  0  0  0  0
   20.7669  -18.2690  -14.3080 N   0  0  0  0  0  0  0  0  0  0  0  0
   19.9279  -17.4010  -13.5723 C   0  0  0  0  0  0  0  0  0  0  0  0
   19.6349  -17.6900  -12.4023 O   0  0  0  0  0  0  0  0  0  0  0  0
   19.4202  -16.1780  -14.1994 C   0  0  0  0  0  0  0  0  0  0  0  0
   19.9186  -16.0972  -15.6194 C   0  0  2  0  0  0  0  0  0  0  0  0
   19.5821  -14.8484  -16.2692 N   0  0  0  0  0  0  0  0  0  0  0  0
   19.4188  -17.2567  -16.4251 C   0  0  0  0  0  0  0  0  0  0  0  0
   18.2578  -17.2372  -16.8721 O   0  0  0  0  0  0  0  0  0  0  0  0
   20.2770  -18.3541  -16.6626 N   0  0  0  0  0  0  0  0  0  0  0  0
   19.7990  -19.4806  -17.4737 C   0  0  1  0  0  0  0  0  0  0  0  0
   20.9724  -20.3233  -17.8894 C   0  0  0  0  0  0  0  0  0  0  0  0
   20.5503  -21.3825  -18.8596 C   0  0  0  0  0  0  0  0  0  0  0  0
   21.7403  -22.1404  -19.4084 C   0  0  0  0  0  0  0  0  0  0  0  0
   21.1713  -23.1017  -20.4481 C   0  0  0  0  0  0  0  0  0  0  0  0
   22.1957  -23.8161  -21.1527 N   0  0  0  0  0  0  0  0  0  0  0  0
   18.8740  -20.2889  -16.6441 C   0  0  0  0  0  0  0  0  0  0  0  0
   17.5713  -20.5279  -17.1402 O   0  0  0  0  0  0  0  0  0  0  0  0
   19.1486  -20.7841  -15.5297 O   0  0  0  0  0  0  0  0  0  0  0  0
  2  1  1  0
  2  3  2  0
  4  2  1  0
  5  4  1  0
  5  6  1  1
  7  5  1  0
  8  7  2  0
  9 10  1  0
 10 12  1  0
 11 10  2  0
 13 12  1  1
 13 14  1  0
 14  7  1  0
 15 13  1  0
 15 16  2  0
 17 18  1  0
 17 15  1  0
 18 19  1  1
 19 20  1  0
 21 20  1  0
 22 23  1  0
 22 21  1  0
 24 18  1  0
 25 24  1  0
 26 24  2  0
M  END
$$$$
