NNK.pdb
     RDKit          3D

 26 25  0  0  1  0  0  0  0  0999 V2000
   24.2020  -13.9162  -18.1252 N   0  0  0  0  0  0  0  0  0  0  0  0
   22.8259  -13.7210  -17.8420 C   0  0  0  0  0  0  0  0  0  0  0  0
   22.0591  -14.7239  -17.7107 O   0  0  0  0  0  0  0  0  0  0  0  0
   22.3004  -12.3543  -17.7008 C   0  0  0  0  0  0  0  0  0  0  0  0
   23.3770  -11.3150  -17.9135 C   0  0  2  0  0  0  0  0  0  0  0  0
   24.1964  -11.3749  -16.6984 N   0  0  0  0  0  0  0  0  0  0  0  0
   22.6823   -9.9744  -17.9476 C   0  0  0  0  0  0  0  0  0  0  0  0
   21.9184   -9.6304  -18.8727 O   0  0  0  0  0  0  0  0  0  0  0  0
   20.1127   -8.6684  -15.4860 N   0  0  0  0  0  0  0  0  0  0  0  0
   20.9356   -7.7706  -14.7681 C   0  0  0  0  0  0  0  0  0  0  0  0
   20.6347   -7.4742  -13.6019 O   0  0  0  0  0  0  0  0  0  0  0  0
   22.1267   -7.2070  -15.4086 C   0  0  0  0  0  0  0  0  0  0  0  0
   22.2424   -7.7415  -16.8130 C   0  0  2  0  0  0  0  0  0  0  0  0
   22.8932   -9.0328  -16.8774 N   0  0  0  0  0  0  0  0  0  0  0  0
   22.9429   -6.7586  -17.6999 C   0  0  0  0  0  0  0  0  0  0  0  0
   24.1728   -6.6043  -17.5923 O   0  0  0  0  0  0  0  0  0  0  0  0
   22.1919   -6.0227  -18.6442 N   0  0  0  0  0  0  0  0  0  0  0  0
   22.8836   -5.1050  -19.5579 C   0  0  1  0  0  0  0  0  0  0  0  0
   22.0582   -4.9309  -20.8020 C   0  0  0  0  0  0  0  0  0  0  0  0
   22.7552   -4.0407  -21.7835 C   0  0  0  0  0  0  0  0  0  0  0  0
   21.9203   -3.8225  -23.0272 C   0  0  0  0  0  0  0  0  0  0  0  0
   22.7982   -3.0089  -23.9739 C   0  0  0  0  0  0  0  0  0  0  0  0
   22.1303   -2.6890  -25.2019 N   0  0  0  0  0  0  0  0  0  0  0  0
   23.0362   -3.7986  -18.8742 C   0  0  0  0  0  0  0  0  0  0  0  0
   24.1681   -3.0111  -19.1888 O   0  0  0  0  0  0  0  0  0  0  0  0
   22.2414   -3.3263  -18.0329 O   0  0  0  0  0  0  0  0  0  0  0  0
  2  1  1  0
  2  3  2  0
  4  2  1  0
  5  4  1  0
  5  6  1  1
  7  5  1  0
  8  7  2  0
  9 10  1  0
 10 12  1  0
 11 10  2  0
 13 12  1  1
 13 14  1  0
 14  7  1  0
 15 13  1  0
 15 16  2  0
 17 18  1  0
 17 15  1  0
 18 19  1  6
 19 20  1  0
 21 20  1  0
 22 23  1  0
 22 21  1  0
 24 18  1  0
 25 24  1  0
 26 24  2  0
M  END
$$$$
