NNK.pdb
     RDKit          3D

 26 25  0  0  1  0  0  0  0  0999 V2000
   29.0891  -21.4077  -16.2822 N   0  0  0  0  0  0  0  0  0  0  0  0
   28.2770  -22.5614  -16.4298 C   0  0  0  0  0  0  0  0  0  0  0  0
   28.8054  -23.7150  -16.3952 O   0  0  0  0  0  0  0  0  0  0  0  0
   26.8263  -22.4087  -16.6198 C   0  0  0  0  0  0  0  0  0  0  0  0
   26.4029  -20.9590  -16.5619 C   0  0  2  0  0  0  0  0  0  0  0  0
   27.1369  -20.4028  -15.4202 N   0  0  0  0  0  0  0  0  0  0  0  0
   24.9309  -20.9523  -16.2239 C   0  0  0  0  0  0  0  0  0  0  0  0
   24.0633  -21.4588  -16.9645 O   0  0  0  0  0  0  0  0  0  0  0  0
   20.5587  -21.5614  -13.5805 N   0  0  0  0  0  0  0  0  0  0  0  0
   21.4216  -20.6796  -12.8904 C   0  0  0  0  0  0  0  0  0  0  0  0
   20.9462  -19.9028  -12.0484 O   0  0  0  0  0  0  0  0  0  0  0  0
   22.8583  -20.6969  -13.1777 C   0  0  0  0  0  0  0  0  0  0  0  0
   23.0902  -20.2741  -14.6056 C   0  0  2  0  0  0  0  0  0  0  0  0
   24.4817  -20.3410  -14.9988 N   0  0  0  0  0  0  0  0  0  0  0  0
   22.5440  -18.9009  -14.8490 C   0  0  0  0  0  0  0  0  0  0  0  0
   22.9945  -17.9386  -14.2016 O   0  0  0  0  0  0  0  0  0  0  0  0
   21.5242  -18.7235  -15.8112 N   0  0  0  0  0  0  0  0  0  0  0  0
   21.0134  -17.3735  -16.0797 C   0  0  1  0  0  0  0  0  0  0  0  0
   21.1652  -17.0698  -17.5440 C   0  0  0  0  0  0  0  0  0  0  0  0
   20.6360  -15.7061  -17.8628 C   0  0  0  0  0  0  0  0  0  0  0  0
   20.8328  -15.3604  -19.3234 C   0  0  0  0  0  0  0  0  0  0  0  0
   20.3950  -13.9052  -19.4638 C   0  0  0  0  0  0  0  0  0  0  0  0
   20.6237  -13.3887  -20.7819 N   0  0  0  0  0  0  0  0  0  0  0  0
   19.5784  -17.3394  -15.7097 C   0  0  0  0  0  0  0  0  0  0  0  0
   19.0273  -16.1048  -15.2946 O   0  0  0  0  0  0  0  0  0  0  0  0
   18.8029  -18.3195  -15.7329 O   0  0  0  0  0  0  0  0  0  0  0  0
  2  1  1  0
  2  3  2  0
  4  2  1  0
  5  4  1  0
  5  6  1  1
  7  5  1  0
  8  7  2  0
  9 10  1  0
 10 12  1  0
 11 10  2  0
 13 12  1  1
 13 14  1  0
 14  7  1  0
 15 13  1  0
 15 16  2  0
 17 18  1  0
 17 15  1  0
 18 19  1  6
 19 20  1  0
 21 20  1  0
 22 23  1  0
 22 21  1  0
 24 18  1  0
 25 24  1  0
 26 24  2  0
M  END
$$$$
