NNK.pdb
     RDKit          3D

 26 25  0  0  1  0  0  0  0  0999 V2000
   17.6652  -14.7037  -16.2769 N   0  0  0  0  0  0  0  0  0  0  0  0
   17.2379  -14.2181  -15.0145 C   0  0  0  0  0  0  0  0  0  0  0  0
   16.8804  -15.0349  -14.1111 O   0  0  0  0  0  0  0  0  0  0  0  0
   17.2154  -12.7688  -14.7638 C   0  0  0  0  0  0  0  0  0  0  0  0
   17.5904  -11.9806  -15.9976 C   0  0  2  0  0  0  0  0  0  0  0  0
   19.0542  -11.8971  -15.9547 N   0  0  0  0  0  0  0  0  0  0  0  0
   17.0335  -10.5897  -15.8073 C   0  0  0  0  0  0  0  0  0  0  0  0
   15.8958  -10.3731  -15.3420 O   0  0  0  0  0  0  0  0  0  0  0  0
   15.6488   -5.9553  -14.4726 N   0  0  0  0  0  0  0  0  0  0  0  0
   16.9586   -6.4050  -14.1888 C   0  0  0  0  0  0  0  0  0  0  0  0
   17.7975   -5.5963  -13.7637 O   0  0  0  0  0  0  0  0  0  0  0  0
   17.3041   -7.8133  -14.3988 C   0  0  0  0  0  0  0  0  0  0  0  0
   17.4454   -8.0812  -15.8751 C   0  0  2  0  0  0  0  0  0  0  0  0
   17.8299   -9.4450  -16.1705 N   0  0  0  0  0  0  0  0  0  0  0  0
   18.4089   -7.1198  -16.5001 C   0  0  0  0  0  0  0  0  0  0  0  0
   19.5941   -7.1069  -16.1217 O   0  0  0  0  0  0  0  0  0  0  0  0
   17.9526   -6.2425  -17.5098 N   0  0  0  0  0  0  0  0  0  0  0  0
   18.9234   -5.4231  -18.2456 C   0  0  1  0  0  0  0  0  0  0  0  0
   18.2716   -4.8794  -19.4862 C   0  0  0  0  0  0  0  0  0  0  0  0
   18.0243   -5.9712  -20.4802 C   0  0  0  0  0  0  0  0  0  0  0  0
   17.2781   -5.4600  -21.6941 C   0  0  0  0  0  0  0  0  0  0  0  0
   17.1493   -6.6573  -22.6316 C   0  0  0  0  0  0  0  0  0  0  0  0
   16.3809   -6.3552  -23.8040 N   0  0  0  0  0  0  0  0  0  0  0  0
   19.3412   -4.3023  -17.3701 C   0  0  0  0  0  0  0  0  0  0  0  0
   18.8584   -4.2804  -16.0410 O   0  0  0  0  0  0  0  0  0  0  0  0
   20.0928   -3.3626  -17.7087 O   0  0  0  0  0  0  0  0  0  0  0  0
  2  1  1  0
  2  3  2  0
  4  2  1  0
  5  4  1  0
  5  6  1  1
  7  5  1  0
  8  7  2  0
  9 10  1  0
 10 12  1  0
 11 10  2  0
 13 12  1  1
 13 14  1  0
 14  7  1  0
 15 13  1  0
 15 16  2  0
 17 18  1  0
 17 15  1  0
 18 19  1  6
 19 20  1  0
 21 20  1  0
 22 23  1  0
 22 21  1  0
 24 18  1  0
 25 24  1  0
 26 24  2  0
M  END
$$$$
