NNK.pdb
     RDKit          3D

 26 25  0  0  1  0  0  0  0  0999 V2000
   16.1924  -11.3820  -17.5141 N   0  0  0  0  0  0  0  0  0  0  0  0
   16.1824  -12.0405  -16.2577 C   0  0  0  0  0  0  0  0  0  0  0  0
   15.3803  -13.0031  -16.0550 O   0  0  0  0  0  0  0  0  0  0  0  0
   17.1058  -11.6011  -15.2003 C   0  0  0  0  0  0  0  0  0  0  0  0
   17.8872  -10.3748  -15.6124 C   0  0  2  0  0  0  0  0  0  0  0  0
   18.8452  -10.8626  -16.6103 N   0  0  0  0  0  0  0  0  0  0  0  0
   18.6616   -9.9271  -14.3954 C   0  0  0  0  0  0  0  0  0  0  0  0
   19.8172  -10.3256  -14.1433 O   0  0  0  0  0  0  0  0  0  0  0  0
   21.0632   -5.5385  -12.0432 N   0  0  0  0  0  0  0  0  0  0  0  0
   20.7585   -6.9155  -11.9457 C   0  0  0  0  0  0  0  0  0  0  0  0
   21.1156   -7.5446  -10.9382 O   0  0  0  0  0  0  0  0  0  0  0  0
   20.0278   -7.5759  -13.0305 C   0  0  0  0  0  0  0  0  0  0  0  0
   18.8177   -8.2761  -12.4676 C   0  0  2  0  0  0  0  0  0  0  0  0
   18.0634   -8.9996  -13.4690 N   0  0  0  0  0  0  0  0  0  0  0  0
   17.9321   -7.3086  -11.7445 C   0  0  0  0  0  0  0  0  0  0  0  0
   17.4976   -6.3091  -12.3447 O   0  0  0  0  0  0  0  0  0  0  0  0
   17.6063   -7.5492  -10.3905 N   0  0  0  0  0  0  0  0  0  0  0  0
   16.5362   -6.7691   -9.7568 C   0  0  1  0  0  0  0  0  0  0  0  0
   15.7022   -7.6794   -8.8993 C   0  0  0  0  0  0  0  0  0  0  0  0
   14.3210   -7.1290   -8.7246 C   0  0  0  0  0  0  0  0  0  0  0  0
   13.4677   -8.0316   -7.8593 C   0  0  0  0  0  0  0  0  0  0  0  0
   12.0885   -7.3795   -7.8203 C   0  0  0  0  0  0  0  0  0  0  0  0
   11.1595   -8.1103   -7.0084 N   0  0  0  0  0  0  0  0  0  0  0  0
   17.1627   -5.7245   -8.9122 C   0  0  0  0  0  0  0  0  0  0  0  0
   16.4697   -4.5037   -8.7400 O   0  0  0  0  0  0  0  0  0  0  0  0
   18.2646   -5.8299   -8.3313 O   0  0  0  0  0  0  0  0  0  0  0  0
  2  1  1  0
  2  3  2  0
  4  2  1  0
  5  4  1  0
  5  6  1  6
  7  5  1  0
  8  7  2  0
  9 10  1  0
 10 12  1  0
 11 10  2  0
 13 12  1  6
 13 14  1  0
 14  7  1  0
 15 13  1  0
 15 16  2  0
 17 18  1  0
 17 15  1  0
 18 19  1  1
 19 20  1  0
 21 20  1  0
 22 23  1  0
 22 21  1  0
 24 18  1  0
 25 24  1  0
 26 24  2  0
M  END
$$$$
