NNK.pdb
     RDKit          3D

 26 25  0  0  1  0  0  0  0  0999 V2000
   26.4254  -22.1937  -15.1839 N   0  0  0  0  0  0  0  0  0  0  0  0
   26.0060  -20.8448  -15.0550 C   0  0  0  0  0  0  0  0  0  0  0  0
   26.7473  -19.9085  -15.4850 O   0  0  0  0  0  0  0  0  0  0  0  0
   24.7114  -20.5441  -14.4243 C   0  0  0  0  0  0  0  0  0  0  0  0
   24.0291  -21.7951  -13.9208 C   0  0  2  0  0  0  0  0  0  0  0  0
   23.5101  -22.4469  -15.1280 N   0  0  0  0  0  0  0  0  0  0  0  0
   22.8537  -21.3407  -13.0884 C   0  0  0  0  0  0  0  0  0  0  0  0
   22.9832  -20.6897  -12.0314 O   0  0  0  0  0  0  0  0  0  0  0  0
   20.2561  -18.6728  -14.8791 N   0  0  0  0  0  0  0  0  0  0  0  0
   19.7635  -19.1471  -13.6419 C   0  0  0  0  0  0  0  0  0  0  0  0
   19.7157  -18.3742  -12.6730 O   0  0  0  0  0  0  0  0  0  0  0  0
   19.3177  -20.5377  -13.5231 C   0  0  0  0  0  0  0  0  0  0  0  0
   20.3349  -21.3261  -12.7387 C   0  0  2  0  0  0  0  0  0  0  0  0
   21.5133  -21.6592  -13.5106 N   0  0  0  0  0  0  0  0  0  0  0  0
   19.7195  -22.5648  -12.1641 C   0  0  0  0  0  0  0  0  0  0  0  0
   19.6526  -23.5948  -12.8589 O   0  0  0  0  0  0  0  0  0  0  0  0
   19.2245  -22.5403  -10.8407 N   0  0  0  0  0  0  0  0  0  0  0  0
   18.5686  -23.7346  -10.2941 C   0  0  1  0  0  0  0  0  0  0  0  0
   18.5765  -23.6595   -8.7928 C   0  0  0  0  0  0  0  0  0  0  0  0
   17.9057  -24.8576   -8.1960 C   0  0  0  0  0  0  0  0  0  0  0  0
   17.8103  -24.7488   -6.6892 C   0  0  0  0  0  0  0  0  0  0  0  0
   17.1458  -26.0418   -6.2251 C   0  0  0  0  0  0  0  0  0  0  0  0
   17.0460  -26.1249   -4.7970 N   0  0  0  0  0  0  0  0  0  0  0  0
   17.1699  -23.7601  -10.7844 C   0  0  0  0  0  0  0  0  0  0  0  0
   16.5942  -25.0154  -11.0892 O   0  0  0  0  0  0  0  0  0  0  0  0
   16.4456  -22.7556  -10.9542 O   0  0  0  0  0  0  0  0  0  0  0  0
  2  1  1  0
  2  3  2  0
  4  2  1  0
  5  4  1  0
  5  6  1  6
  7  5  1  0
  8  7  2  0
  9 10  1  0
 10 12  1  0
 11 10  2  0
 13 12  1  6
 13 14  1  0
 14  7  1  0
 15 13  1  0
 15 16  2  0
 17 18  1  0
 17 15  1  0
 18 19  1  1
 19 20  1  0
 21 20  1  0
 22 23  1  0
 22 21  1  0
 24 18  1  0
 25 24  1  0
 26 24  2  0
M  END
$$$$
