NNK.pdb
     RDKit          3D

 26 25  0  0  1  0  0  0  0  0999 V2000
   14.5177  -11.2926  -16.8760 N   0  0  0  0  0  0  0  0  0  0  0  0
   14.0372  -11.4133  -15.5468 C   0  0  0  0  0  0  0  0  0  0  0  0
   12.8242  -11.7240  -15.3390 O   0  0  0  0  0  0  0  0  0  0  0  0
   14.9529  -11.1785  -14.4197 C   0  0  0  0  0  0  0  0  0  0  0  0
   16.3397  -10.8072  -14.8920 C   0  0  2  0  0  0  0  0  0  0  0  0
   16.9580  -12.0828  -15.2688 N   0  0  0  0  0  0  0  0  0  0  0  0
   17.0746  -10.2646  -13.6893 C   0  0  0  0  0  0  0  0  0  0  0  0
   17.4041  -10.9765  -12.7185 O   0  0  0  0  0  0  0  0  0  0  0  0
   19.5767   -7.1822  -10.5502 N   0  0  0  0  0  0  0  0  0  0  0  0
   20.1820   -7.1221  -11.8262 C   0  0  0  0  0  0  0  0  0  0  0  0
   21.2984   -6.5944  -11.9424 O   0  0  0  0  0  0  0  0  0  0  0  0
   19.4856   -7.6825  -12.9872 C   0  0  0  0  0  0  0  0  0  0  0  0
   18.1716   -8.2750  -12.5470 C   0  0  2  0  0  0  0  0  0  0  0  0
   17.4230   -8.8674  -13.6350 N   0  0  0  0  0  0  0  0  0  0  0  0
   17.3392   -7.2531  -11.8357 C   0  0  0  0  0  0  0  0  0  0  0  0
   16.9715   -6.2315  -12.4434 O   0  0  0  0  0  0  0  0  0  0  0  0
   16.9867   -7.4683  -10.4842 N   0  0  0  0  0  0  0  0  0  0  0  0
   16.1456   -6.4834   -9.7929 C   0  0  1  0  0  0  0  0  0  0  0  0
   15.3258   -7.1824   -8.7446 C   0  0  0  0  0  0  0  0  0  0  0  0
   14.0563   -7.7177   -9.3306 C   0  0  0  0  0  0  0  0  0  0  0  0
   13.2357   -8.4590   -8.2969 C   0  0  0  0  0  0  0  0  0  0  0  0
   12.0236   -9.0033   -9.0476 C   0  0  0  0  0  0  0  0  0  0  0  0
   11.1735   -9.8001   -8.2118 N   0  0  0  0  0  0  0  0  0  0  0  0
   17.0339   -5.4870   -9.1484 C   0  0  0  0  0  0  0  0  0  0  0  0
   16.4510   -4.2969   -8.6542 O   0  0  0  0  0  0  0  0  0  0  0  0
   18.2693   -5.6085   -9.0018 O   0  0  0  0  0  0  0  0  0  0  0  0
  2  1  1  0
  2  3  2  0
  4  2  1  0
  5  4  1  0
  5  6  1  1
  7  5  1  0
  8  7  2  0
  9 10  1  0
 10 12  1  0
 11 10  2  0
 13 12  1  6
 13 14  1  0
 14  7  1  0
 15 13  1  0
 15 16  2  0
 17 18  1  0
 17 15  1  0
 18 19  1  1
 19 20  1  0
 21 20  1  0
 22 23  1  0
 22 21  1  0
 24 18  1  0
 25 24  1  0
 26 24  2  0
M  END
$$$$
