NNK.pdb
     RDKit          3D

 26 25  0  0  1  0  0  0  0  0999 V2000
   19.1340  -10.4014  -16.7456 N   0  0  0  0  0  0  0  0  0  0  0  0
   18.5318  -11.0721  -15.6503 C   0  0  0  0  0  0  0  0  0  0  0  0
   18.2097  -12.2951  -15.7578 O   0  0  0  0  0  0  0  0  0  0  0  0
   18.2881  -10.3419  -14.3968 C   0  0  0  0  0  0  0  0  0  0  0  0
   18.6584   -8.8815  -14.5177 C   0  0  2  0  0  0  0  0  0  0  0  0
   20.0533   -8.8134  -14.0693 N   0  0  0  0  0  0  0  0  0  0  0  0
   17.8055   -8.1357  -13.5190 C   0  0  0  0  0  0  0  0  0  0  0  0
   16.5596   -8.1008  -13.5843 O   0  0  0  0  0  0  0  0  0  0  0  0
   17.9521   -4.3379   -8.9421 N   0  0  0  0  0  0  0  0  0  0  0  0
   17.5201   -5.6392   -9.2865 C   0  0  0  0  0  0  0  0  0  0  0  0
   16.4403   -6.0562   -8.8410 O   0  0  0  0  0  0  0  0  0  0  0  0
   18.3497   -6.4717  -10.1613 C   0  0  0  0  0  0  0  0  0  0  0  0
   17.7093   -6.5635  -11.5226 C   0  0  2  0  0  0  0  0  0  0  0  0
   18.4325   -7.4253  -12.4334 N   0  0  0  0  0  0  0  0  0  0  0  0
   17.5337   -5.2016  -12.1205 C   0  0  0  0  0  0  0  0  0  0  0  0
   18.5127   -4.6230  -12.6253 O   0  0  0  0  0  0  0  0  0  0  0  0
   16.2563   -4.5973  -12.0995 N   0  0  0  0  0  0  0  0  0  0  0  0
   16.0854   -3.2529  -12.6640 C   0  0  1  0  0  0  0  0  0  0  0  0
   14.7746   -3.1875  -13.3969 C   0  0  0  0  0  0  0  0  0  0  0  0
   14.5480   -1.8198  -13.9620 C   0  0  0  0  0  0  0  0  0  0  0  0
   13.2735   -1.7585  -14.7765 C   0  0  0  0  0  0  0  0  0  0  0  0
   13.1856   -0.3259  -15.2949 C   0  0  0  0  0  0  0  0  0  0  0  0
   12.0046   -0.0968  -16.0754 N   0  0  0  0  0  0  0  0  0  0  0  0
   16.0809   -2.2787  -11.5468 C   0  0  0  0  0  0  0  0  0  0  0  0
   16.6820   -1.0167  -11.7617 O   0  0  0  0  0  0  0  0  0  0  0  0
   15.5857   -2.4781  -10.4165 O   0  0  0  0  0  0  0  0  0  0  0  0
  2  1  1  0
  2  3  2  0
  4  2  1  0
  5  4  1  0
  5  6  1  1
  7  5  1  0
  8  7  2  0
  9 10  1  0
 10 12  1  0
 11 10  2  0
 13 12  1  1
 13 14  1  0
 14  7  1  0
 15 13  1  0
 15 16  2  0
 17 18  1  0
 17 15  1  0
 18 19  1  1
 19 20  1  0
 21 20  1  0
 22 23  1  0
 22 21  1  0
 24 18  1  0
 25 24  1  0
 26 24  2  0
M  END
$$$$
