NNK.pdb
     RDKit          3D

 26 25  0  0  1  0  0  0  0  0999 V2000
   16.3756  -12.2428  -16.4471 N   0  0  0  0  0  0  0  0  0  0  0  0
   17.5216  -12.5539  -15.6712 C   0  0  0  0  0  0  0  0  0  0  0  0
   18.1547  -13.6333  -15.8835 O   0  0  0  0  0  0  0  0  0  0  0  0
   17.9671  -11.6185  -14.6268 C   0  0  0  0  0  0  0  0  0  0  0  0
   17.1001  -10.3817  -14.5751 C   0  0  2  0  0  0  0  0  0  0  0  0
   17.5896   -9.5386  -15.6710 N   0  0  0  0  0  0  0  0  0  0  0  0
   17.4144   -9.6882  -13.2707 C   0  0  0  0  0  0  0  0  0  0  0  0
   17.1406  -10.1821  -12.1576 O   0  0  0  0  0  0  0  0  0  0  0  0
   20.7708   -8.8771  -12.5961 N   0  0  0  0  0  0  0  0  0  0  0  0
   20.8098   -7.4668  -12.5071 C   0  0  0  0  0  0  0  0  0  0  0  0
   21.8996   -6.8836  -12.6098 O   0  0  0  0  0  0  0  0  0  0  0  0
   19.5680   -6.7181  -12.2971 C   0  0  0  0  0  0  0  0  0  0  0  0
   18.4300   -7.6826  -12.0822 C   0  0  2  0  0  0  0  0  0  0  0  0
   18.0585   -8.3993  -13.2837 N   0  0  0  0  0  0  0  0  0  0  0  0
   17.2402   -6.9807  -11.5037 C   0  0  0  0  0  0  0  0  0  0  0  0
   16.4843   -6.3365  -12.2533 O   0  0  0  0  0  0  0  0  0  0  0  0
   16.9980   -7.0626  -10.1137 N   0  0  0  0  0  0  0  0  0  0  0  0
   15.9084   -6.2748   -9.5241 C   0  0  1  0  0  0  0  0  0  0  0  0
   15.0716   -7.1657   -8.6493 C   0  0  0  0  0  0  0  0  0  0  0  0
   14.1799   -8.0389   -9.4763 C   0  0  0  0  0  0  0  0  0  0  0  0
   13.3766   -8.9891   -8.6141 C   0  0  0  0  0  0  0  0  0  0  0  0
   12.5327   -9.8108   -9.5844 C   0  0  0  0  0  0  0  0  0  0  0  0
   11.7033  -10.7691   -8.9136 N   0  0  0  0  0  0  0  0  0  0  0  0
   16.5086   -5.1942   -8.7059 C   0  0  0  0  0  0  0  0  0  0  0  0
   15.6581   -4.1697   -8.2292 O   0  0  0  0  0  0  0  0  0  0  0  0
   17.7167   -5.1085   -8.3966 O   0  0  0  0  0  0  0  0  0  0  0  0
  2  1  1  0
  2  3  2  0
  4  2  1  0
  5  4  1  0
  5  6  1  6
  7  5  1  0
  8  7  2  0
  9 10  1  0
 10 12  1  0
 11 10  2  0
 13 12  1  6
 13 14  1  0
 14  7  1  0
 15 13  1  0
 15 16  2  0
 17 18  1  0
 17 15  1  0
 18 19  1  1
 19 20  1  0
 21 20  1  0
 22 23  1  0
 22 21  1  0
 24 18  1  0
 25 24  1  0
 26 24  2  0
M  END
$$$$
