NNK.pdb
     RDKit          3D

 26 25  0  0  1  0  0  0  0  0999 V2000
   18.3640  -22.5490  -13.9082 N   0  0  0  0  0  0  0  0  0  0  0  0
   18.4116  -21.9904  -12.6051 C   0  0  0  0  0  0  0  0  0  0  0  0
   17.5162  -22.2887  -11.7564 O   0  0  0  0  0  0  0  0  0  0  0  0
   19.5027  -21.0702  -12.2490 C   0  0  0  0  0  0  0  0  0  0  0  0
   20.4822  -20.8952  -13.3867 C   0  0  2  0  0  0  0  0  0  0  0  0
   20.7469  -22.2573  -13.8620 N   0  0  0  0  0  0  0  0  0  0  0  0
   21.7547  -20.3519  -12.7812 C   0  0  0  0  0  0  0  0  0  0  0  0
   21.8135  -19.2448  -12.2079 O   0  0  0  0  0  0  0  0  0  0  0  0
   26.7850  -19.9496  -11.8546 N   0  0  0  0  0  0  0  0  0  0  0  0
   26.1995  -20.9143  -11.0032 C   0  0  0  0  0  0  0  0  0  0  0  0
   26.8445  -21.3345  -10.0306 O   0  0  0  0  0  0  0  0  0  0  0  0
   24.8453  -21.4005  -11.2800 C   0  0  0  0  0  0  0  0  0  0  0  0
   24.2587  -20.6250  -12.4315 C   0  0  2  0  0  0  0  0  0  0  0  0
   22.9681  -21.1257  -12.8544 N   0  0  0  0  0  0  0  0  0  0  0  0
   25.2098  -20.5893  -13.5879 C   0  0  0  0  0  0  0  0  0  0  0  0
   25.4263  -21.6294  -14.2355 O   0  0  0  0  0  0  0  0  0  0  0  0
   25.8455  -19.3722  -13.9223 N   0  0  0  0  0  0  0  0  0  0  0  0
   26.6842  -19.3037  -15.1253 C   0  0  1  0  0  0  0  0  0  0  0  0
   27.8055  -20.2973  -15.0034 C   0  0  0  0  0  0  0  0  0  0  0  0
   27.9142  -21.1324  -16.2412 C   0  0  0  0  0  0  0  0  0  0  0  0
   28.9791  -22.1991  -16.1010 C   0  0  0  0  0  0  0  0  0  0  0  0
   28.9653  -22.9692  -17.4185 C   0  0  0  0  0  0  0  0  0  0  0  0
   29.9533  -24.0079  -17.4566 N   0  0  0  0  0  0  0  0  0  0  0  0
   25.8421  -19.6439  -16.2968 C   0  0  0  0  0  0  0  0  0  0  0  0
   24.6166  -18.9565  -16.4576 O   0  0  0  0  0  0  0  0  0  0  0  0
   26.1244  -20.4966  -17.1662 O   0  0  0  0  0  0  0  0  0  0  0  0
  2  1  1  0
  2  3  2  0
  4  2  1  0
  5  4  1  0
  5  6  1  1
  7  5  1  0
  8  7  2  0
  9 10  1  0
 10 12  1  0
 11 10  2  0
 13 12  1  1
 13 14  1  0
 14  7  1  0
 15 13  1  0
 15 16  2  0
 17 18  1  0
 17 15  1  0
 18 19  1  1
 19 20  1  0
 21 20  1  0
 22 23  1  0
 22 21  1  0
 24 18  1  0
 25 24  1  0
 26 24  2  0
M  END
$$$$
