NNK.pdb
     RDKit          3D

 26 25  0  0  1  0  0  0  0  0999 V2000
   15.2729  -11.4923  -17.3400 N   0  0  0  0  0  0  0  0  0  0  0  0
   14.4383  -11.1733  -16.2382 C   0  0  0  0  0  0  0  0  0  0  0  0
   13.2055  -10.9371  -16.4266 O   0  0  0  0  0  0  0  0  0  0  0  0
   15.0113  -11.1215  -14.8844 C   0  0  0  0  0  0  0  0  0  0  0  0
   16.5140  -11.2823  -14.9052 C   0  0  2  0  0  0  0  0  0  0  0  0
   16.7369  -12.7179  -14.7034 N   0  0  0  0  0  0  0  0  0  0  0  0
   17.0435  -10.5488  -13.6958 C   0  0  0  0  0  0  0  0  0  0  0  0
   16.9827  -11.0155  -12.5398 O   0  0  0  0  0  0  0  0  0  0  0  0
   20.9517   -7.9452  -11.1888 N   0  0  0  0  0  0  0  0  0  0  0  0
   20.2100   -7.1707  -12.1098 C   0  0  0  0  0  0  0  0  0  0  0  0
   20.1164   -5.9464  -11.9340 O   0  0  0  0  0  0  0  0  0  0  0  0
   19.5669   -7.8220  -13.2539 C   0  0  0  0  0  0  0  0  0  0  0  0
   18.3359   -8.5560  -12.7874 C   0  0  2  0  0  0  0  0  0  0  0  0
   17.6507   -9.2518  -13.8558 N   0  0  0  0  0  0  0  0  0  0  0  0
   17.3970   -7.6255  -12.0833 C   0  0  0  0  0  0  0  0  0  0  0  0
   16.6725   -6.8653  -12.7506 O   0  0  0  0  0  0  0  0  0  0  0  0
   17.3517   -7.6278  -10.6708 N   0  0  0  0  0  0  0  0  0  0  0  0
   16.4605   -6.6902   -9.9765 C   0  0  1  0  0  0  0  0  0  0  0  0
   15.7261   -7.4209   -8.8874 C   0  0  0  0  0  0  0  0  0  0  0  0
   14.3294   -7.7497   -9.3147 C   0  0  0  0  0  0  0  0  0  0  0  0
   13.5420   -8.3946   -8.1942 C   0  0  0  0  0  0  0  0  0  0  0  0
   12.1532   -8.6608   -8.7681 C   0  0  0  0  0  0  0  0  0  0  0  0
   12.1456   -9.7481   -9.7030 N   0  0  0  0  0  0  0  0  0  0  0  0
   17.2910   -5.6153   -9.3831 C   0  0  0  0  0  0  0  0  0  0  0  0
   16.6315   -4.4907   -8.8348 O   0  0  0  0  0  0  0  0  0  0  0  0
   18.5396   -5.6161   -9.3245 O   0  0  0  0  0  0  0  0  0  0  0  0
  2  1  1  0
  2  3  2  0
  4  2  1  0
  5  4  1  0
  5  6  1  1
  7  5  1  0
  8  7  2  0
  9 10  1  0
 10 12  1  0
 11 10  2  0
 13 12  1  6
 13 14  1  0
 14  7  1  0
 15 13  1  0
 15 16  2  0
 17 18  1  0
 17 15  1  0
 18 19  1  1
 19 20  1  0
 21 20  1  0
 22 23  1  0
 22 21  1  0
 24 18  1  0
 25 24  1  0
 26 24  2  0
M  END
$$$$
