NNK.pdb
     RDKit          3D

 26 25  0  0  1  0  0  0  0  0999 V2000
   21.0886  -12.8466  -18.4135 N   0  0  0  0  0  0  0  0  0  0  0  0
   19.8225  -12.7340  -17.7839 C   0  0  0  0  0  0  0  0  0  0  0  0
   19.0131  -13.7113  -17.8128 O   0  0  0  0  0  0  0  0  0  0  0  0
   19.4604  -11.4829  -17.1000 C   0  0  0  0  0  0  0  0  0  0  0  0
   20.5796  -10.4689  -17.1566 C   0  0  2  0  0  0  0  0  0  0  0  0
   21.6024  -10.9930  -16.2451 N   0  0  0  0  0  0  0  0  0  0  0  0
   20.0338   -9.1901  -16.5668 C   0  0  0  0  0  0  0  0  0  0  0  0
   19.1318   -8.5227  -17.1134 O   0  0  0  0  0  0  0  0  0  0  0  0
   18.1697   -8.6867  -13.3408 N   0  0  0  0  0  0  0  0  0  0  0  0
   19.2328   -8.1775  -12.5605 C   0  0  0  0  0  0  0  0  0  0  0  0
   19.2258   -8.3617  -11.3340 O   0  0  0  0  0  0  0  0  0  0  0  0
   20.3228   -7.4441  -13.2091 C   0  0  0  0  0  0  0  0  0  0  0  0
   20.1219   -7.4626  -14.7027 C   0  0  2  0  0  0  0  0  0  0  0  0
   20.5599   -8.6968  -15.3193 N   0  0  0  0  0  0  0  0  0  0  0  0
   20.7968   -6.2897  -15.3446 C   0  0  0  0  0  0  0  0  0  0  0  0
   22.0383   -6.2646  -15.4232 O   0  0  0  0  0  0  0  0  0  0  0  0
   20.0092   -5.2305  -15.8495 N   0  0  0  0  0  0  0  0  0  0  0  0
   20.6648   -4.0992  -16.5170 C   0  0  1  0  0  0  0  0  0  0  0  0
   19.6607   -3.3824  -17.3757 C   0  0  0  0  0  0  0  0  0  0  0  0
   20.2764   -2.1832  -18.0271 C   0  0  0  0  0  0  0  0  0  0  0  0
   19.2769   -1.4451  -18.8918 C   0  0  0  0  0  0  0  0  0  0  0  0
   20.0557   -0.3013  -19.5351 C   0  0  0  0  0  0  0  0  0  0  0  0
   19.2120    0.5821  -20.2862 N   0  0  0  0  0  0  0  0  0  0  0  0
   21.1756   -3.1787  -15.4734 C   0  0  0  0  0  0  0  0  0  0  0  0
   22.4417   -2.5815  -15.6745 O   0  0  0  0  0  0  0  0  0  0  0  0
   20.5769   -2.8805  -14.4173 O   0  0  0  0  0  0  0  0  0  0  0  0
  2  1  1  0
  2  3  2  0
  4  2  1  0
  5  4  1  0
  5  6  1  1
  7  5  1  0
  8  7  2  0
  9 10  1  0
 10 12  1  0
 11 10  2  0
 13 12  1  1
 13 14  1  0
 14  7  1  0
 15 13  1  0
 15 16  2  0
 17 18  1  0
 17 15  1  0
 18 19  1  6
 19 20  1  0
 21 20  1  0
 22 23  1  0
 22 21  1  0
 24 18  1  0
 25 24  1  0
 26 24  2  0
M  END
$$$$
