NNK.pdb
     RDKit          3D

 26 25  0  0  1  0  0  0  0  0999 V2000
   18.6526  -13.4276  -18.2279 N   0  0  0  0  0  0  0  0  0  0  0  0
   18.0919  -13.3412  -16.9278 C   0  0  0  0  0  0  0  0  0  0  0  0
   17.5140  -14.3509  -16.4203 O   0  0  0  0  0  0  0  0  0  0  0  0
   18.1880  -12.0792  -16.1781 C   0  0  0  0  0  0  0  0  0  0  0  0
   18.8528  -10.9929  -16.9919 C   0  0  2  0  0  0  0  0  0  0  0  0
   20.2749  -11.3523  -17.0002 N   0  0  0  0  0  0  0  0  0  0  0  0
   18.6957   -9.7103  -16.2101 C   0  0  0  0  0  0  0  0  0  0  0  0
   17.5892   -9.1668  -16.0152 O   0  0  0  0  0  0  0  0  0  0  0  0
   18.7100   -8.4768  -12.6017 N   0  0  0  0  0  0  0  0  0  0  0  0
   20.0802   -8.1318  -12.5577 C   0  0  0  0  0  0  0  0  0  0  0  0
   20.6799   -8.1718  -11.4727 O   0  0  0  0  0  0  0  0  0  0  0  0
   20.7688   -7.7352  -13.7886 C   0  0  0  0  0  0  0  0  0  0  0  0
   19.8068   -7.8034  -14.9468 C   0  0  2  0  0  0  0  0  0  0  0  0
   19.8581   -9.0653  -15.6541 N   0  0  0  0  0  0  0  0  0  0  0  0
   20.0323   -6.6646  -15.8931 C   0  0  0  0  0  0  0  0  0  0  0  0
   21.0882   -6.6131  -16.5493 O   0  0  0  0  0  0  0  0  0  0  0  0
   19.0397   -5.6670  -16.0228 N   0  0  0  0  0  0  0  0  0  0  0  0
   19.2015   -4.6163  -17.0352 C   0  0  1  0  0  0  0  0  0  0  0  0
   17.8935   -3.8978  -17.2153 C   0  0  0  0  0  0  0  0  0  0  0  0
   17.9625   -2.9472  -18.3699 C   0  0  0  0  0  0  0  0  0  0  0  0
   16.6584   -2.2012  -18.5551 C   0  0  0  0  0  0  0  0  0  0  0  0
   16.8694   -1.2996  -19.7682 C   0  0  0  0  0  0  0  0  0  0  0  0
   15.6643   -0.6375  -20.1753 N   0  0  0  0  0  0  0  0  0  0  0  0
   20.2309   -3.6643  -16.5542 C   0  0  0  0  0  0  0  0  0  0  0  0
   21.2470   -3.2712  -17.4559 O   0  0  0  0  0  0  0  0  0  0  0  0
   20.2797   -3.1725  -15.4060 O   0  0  0  0  0  0  0  0  0  0  0  0
  2  1  1  0
  2  3  2  0
  4  2  1  0
  5  4  1  0
  5  6  1  1
  7  5  1  0
  8  7  2  0
  9 10  1  0
 10 12  1  0
 11 10  2  0
 13 12  1  1
 13 14  1  0
 14  7  1  0
 15 13  1  0
 15 16  2  0
 17 18  1  0
 17 15  1  0
 18 19  1  1
 19 20  1  0
 21 20  1  0
 22 23  1  0
 22 21  1  0
 24 18  1  0
 25 24  1  0
 26 24  2  0
M  END
$$$$
