GIV.pdb
     RDKit          3D

 20 19  0  0  1  0  0  0  0  0999 V2000
   31.3704  -22.6513  -11.0439 N   0  0  0  0  0  0  0  0  0  0  0  0
   30.7264  -21.3582  -10.9784 C   0  0  0  0  0  0  0  0  0  0  0  0
   29.3578  -21.5102  -10.5082 C   0  0  0  0  0  0  0  0  0  0  0  0
   28.8220  -22.6441  -10.4966 O   0  0  0  0  0  0  0  0  0  0  0  0
   27.6502  -19.1594   -6.1020 C   0  0  0  0  0  0  0  0  0  0  0  0
   27.8090  -20.2278   -7.1585 C   0  0  0  0  0  0  0  0  0  0  0  0
   26.8562  -19.9873   -8.2740 C   0  0  2  0  0  0  0  0  0  0  0  0
   25.4236  -20.2996   -7.8903 C   0  0  0  0  0  0  0  0  0  0  0  0
   27.1979  -20.5605   -9.5989 C   0  0  2  0  0  0  0  0  0  0  0  0
   28.5500  -20.4104  -10.0397 N   0  0  0  0  0  0  0  0  0  0  0  0
   26.2184  -20.1484  -10.6654 C   0  0  0  0  0  0  0  0  0  0  0  0
   26.1287  -18.9544  -11.0438 O   0  0  0  0  0  0  0  0  0  0  0  0
   24.5269  -22.9951  -13.2947 C   0  0  0  0  0  0  0  0  0  0  0  0
   24.7557  -21.5343  -13.6288 C   0  0  2  0  0  0  0  0  0  0  0  0
   26.1893  -21.3871  -14.0808 C   0  0  0  0  0  0  0  0  0  0  0  0
   24.4684  -20.7334  -12.3816 C   0  0  2  0  0  0  0  0  0  0  0  0
   25.3515  -21.0992  -11.2898 N   0  0  0  0  0  0  0  0  0  0  0  0
   23.0786  -20.8751  -11.9222 C   0  0  0  0  0  0  0  0  0  0  0  0
   22.7143  -21.6229  -10.8093 O   0  0  0  0  0  0  0  0  0  0  0  0
   22.1477  -20.3071  -12.5403 O   0  0  0  0  0  0  0  0  0  0  0  0
  2  1  1  0
  3  2  1  0
  4  3  2  0
  5  6  1  0
  7  8  1  1
  7  6  1  0
  9  7  1  0
  9 10  1  6
 10  3  1  0
 11 17  1  0
 11  9  1  0
 12 11  2  0
 14 15  1  1
 14 13  1  0
 16 17  1  1
 16 14  1  0
 18 19  1  0
 18 16  1  0
 20 18  2  0
M  END
$$$$
