GIV.pdb
     RDKit          3D

 20 19  0  0  1  0  0  0  0  0999 V2000
   31.4450  -22.0566  -10.9916 N   0  0  0  0  0  0  0  0  0  0  0  0
   30.6132  -20.8812  -11.1247 C   0  0  0  0  0  0  0  0  0  0  0  0
   29.2214  -21.2297  -10.8822 C   0  0  0  0  0  0  0  0  0  0  0  0
   28.8812  -22.4347  -10.8101 O   0  0  0  0  0  0  0  0  0  0  0  0
   26.9371  -19.3380   -6.7753 C   0  0  0  0  0  0  0  0  0  0  0  0
   27.2212  -20.3578   -7.8532 C   0  0  0  0  0  0  0  0  0  0  0  0
   26.3517  -20.1084   -9.0330 C   0  0  2  0  0  0  0  0  0  0  0  0
   24.9120  -20.5141   -8.7882 C   0  0  0  0  0  0  0  0  0  0  0  0
   26.8331  -20.5925  -10.3499 C   0  0  2  0  0  0  0  0  0  0  0  0
   28.1735  -20.2525  -10.7140 N   0  0  0  0  0  0  0  0  0  0  0  0
   25.8623  -20.2823  -11.4581 C   0  0  0  0  0  0  0  0  0  0  0  0
   25.7021  -19.1094  -11.8769 O   0  0  0  0  0  0  0  0  0  0  0  0
   23.5620  -21.7857  -15.4732 C   0  0  0  0  0  0  0  0  0  0  0  0
   24.4866  -22.1121  -14.3171 C   0  0  2  0  0  0  0  0  0  0  0  0
   24.1302  -23.4938  -13.8222 C   0  0  0  0  0  0  0  0  0  0  0  0
   24.2773  -21.0577  -13.2572 C   0  0  2  0  0  0  0  0  0  0  0  0
   25.0843  -21.3100  -12.0779 N   0  0  0  0  0  0  0  0  0  0  0  0
   22.8715  -20.9403  -12.8414 C   0  0  0  0  0  0  0  0  0  0  0  0
   21.9568  -20.1030  -13.4679 O   0  0  0  0  0  0  0  0  0  0  0  0
   22.4395  -21.6141  -11.8767 O   0  0  0  0  0  0  0  0  0  0  0  0
  2  1  1  0
  3  2  1  0
  4  3  2  0
  5  6  1  0
  7  8  1  1
  7  6  1  0
  9  7  1  0
  9 10  1  6
 10  3  1  0
 11 17  1  0
 11  9  1  0
 12 11  2  0
 14 15  1  1
 14 13  1  0
 16 17  1  1
 16 14  1  0
 18 19  1  0
 18 16  1  0
 20 18  2  0
M  END
$$$$
