GIV.pdb
     RDKit          3D

 20 19  0  0  1  0  0  0  0  0999 V2000
   28.7761  -22.0763  -16.1508 N   0  0  0  0  0  0  0  0  0  0  0  0
   28.2933  -20.9164  -15.4348 C   0  0  0  0  0  0  0  0  0  0  0  0
   27.2048  -21.2997  -14.5484 C   0  0  0  0  0  0  0  0  0  0  0  0
   26.5052  -22.3059  -14.8147 O   0  0  0  0  0  0  0  0  0  0  0  0
   25.3185  -21.0226   -8.6803 C   0  0  0  0  0  0  0  0  0  0  0  0
   24.9456  -21.3018  -10.1175 C   0  0  0  0  0  0  0  0  0  0  0  0
   25.9985  -20.7800  -11.0281 C   0  0  2  0  0  0  0  0  0  0  0  0
   26.4053  -19.3596  -10.6901 C   0  0  0  0  0  0  0  0  0  0  0  0
   25.7843  -20.9483  -12.4863 C   0  0  2  0  0  0  0  0  0  0  0  0
   26.8653  -20.5780  -13.3462 N   0  0  0  0  0  0  0  0  0  0  0  0
   24.4823  -20.3453  -12.9420 C   0  0  0  0  0  0  0  0  0  0  0  0
   24.3565  -19.1060  -13.1010 O   0  0  0  0  0  0  0  0  0  0  0  0
   20.6479  -20.5694  -15.7603 C   0  0  0  0  0  0  0  0  0  0  0  0
   21.9046  -21.2072  -15.2019 C   0  0  2  0  0  0  0  0  0  0  0  0
   21.6763  -22.6992  -15.1496 C   0  0  0  0  0  0  0  0  0  0  0  0
   22.1405  -20.6203  -13.8311 C   0  0  2  0  0  0  0  0  0  0  0  0
   23.3373  -21.1588  -13.2120 N   0  0  0  0  0  0  0  0  0  0  0  0
   21.0082  -20.8357  -12.9176 C   0  0  0  0  0  0  0  0  0  0  0  0
   19.9182  -19.9779  -12.8363 O   0  0  0  0  0  0  0  0  0  0  0  0
   20.9897  -21.8329  -12.1583 O   0  0  0  0  0  0  0  0  0  0  0  0
  2  1  1  0
  3  2  1  0
  4  3  2  0
  5  6  1  0
  7  8  1  6
  7  6  1  0
  9  7  1  0
  9 10  1  6
 10  3  1  0
 11 17  1  0
 11  9  1  0
 12 11  2  0
 14 15  1  1
 14 13  1  0
 16 17  1  1
 16 14  1  0
 18 19  1  0
 18 16  1  0
 20 18  2  0
M  END
$$$$
