GIV.pdb
     RDKit          3D

 20 19  0  0  1  0  0  0  0  0999 V2000
   12.7400  -11.2814   -9.0248 N   0  0  0  0  0  0  0  0  0  0  0  0
   14.1352  -10.9012   -9.0327 C   0  0  0  0  0  0  0  0  0  0  0  0
   14.2891   -9.5967   -9.6586 C   0  0  0  0  0  0  0  0  0  0  0  0
   13.4230   -9.1836  -10.4661 O   0  0  0  0  0  0  0  0  0  0  0  0
   14.5121   -4.9433   -7.2836 C   0  0  0  0  0  0  0  0  0  0  0  0
   14.3436   -6.1442   -8.1848 C   0  0  0  0  0  0  0  0  0  0  0  0
   15.5033   -6.2553   -9.1083 C   0  0  2  0  0  0  0  0  0  0  0  0
   15.7680   -4.9685   -9.8641 C   0  0  0  0  0  0  0  0  0  0  0  0
   15.5460   -7.4312  -10.0117 C   0  0  2  0  0  0  0  0  0  0  0  0
   15.4055   -8.7187   -9.4053 N   0  0  0  0  0  0  0  0  0  0  0  0
   16.7242   -7.3852  -10.9478 C   0  0  0  0  0  0  0  0  0  0  0  0
   17.8959   -7.5627  -10.5325 O   0  0  0  0  0  0  0  0  0  0  0  0
   17.1594   -9.3183  -14.1544 C   0  0  0  0  0  0  0  0  0  0  0  0
   17.3914   -7.8691  -14.5336 C   0  0  2  0  0  0  0  0  0  0  0  0
   18.5531   -7.8285  -15.4980 C   0  0  0  0  0  0  0  0  0  0  0  0
   17.6819   -7.1085  -13.2622 C   0  0  2  0  0  0  0  0  0  0  0  0
   16.5566   -7.1378  -12.3465 N   0  0  0  0  0  0  0  0  0  0  0  0
   18.0430   -5.7044  -13.5093 C   0  0  0  0  0  0  0  0  0  0  0  0
   19.3555   -5.2532  -13.5748 O   0  0  0  0  0  0  0  0  0  0  0  0
   17.1488   -4.8416  -13.6741 O   0  0  0  0  0  0  0  0  0  0  0  0
  2  1  1  0
  3  2  1  0
  4  3  2  0
  5  6  1  0
  7  8  1  6
  7  6  1  0
  9  7  1  0
  9 10  1  1
 10  3  1  0
 11 17  1  0
 11  9  1  0
 12 11  2  0
 14 15  1  6
 14 13  1  0
 16 17  1  1
 16 14  1  0
 18 19  1  0
 18 16  1  0
 20 18  2  0
M  END
$$$$
