GIV.pdb
     RDKit          3D

 20 19  0  0  1  0  0  0  0  0999 V2000
   27.2765  -18.8136  -18.8653 N   0  0  0  0  0  0  0  0  0  0  0  0
   27.1280  -19.8342  -17.8516 C   0  0  0  0  0  0  0  0  0  0  0  0
   26.1475  -19.4111  -16.8632 C   0  0  0  0  0  0  0  0  0  0  0  0
   26.3013  -18.3261  -16.2532 O   0  0  0  0  0  0  0  0  0  0  0  0
   21.0361  -18.4738  -17.6453 C   0  0  0  0  0  0  0  0  0  0  0  0
   22.4838  -18.5547  -17.2206 C   0  0  0  0  0  0  0  0  0  0  0  0
   22.6284  -19.4963  -16.0793 C   0  0  2  0  0  0  0  0  0  0  0  0
   21.6695  -19.1866  -14.9472 C   0  0  0  0  0  0  0  0  0  0  0  0
   23.9996  -19.7485  -15.5724 C   0  0  2  0  0  0  0  0  0  0  0  0
   24.9734  -20.1792  -16.5269 N   0  0  0  0  0  0  0  0  0  0  0  0
   23.9997  -20.6236  -14.3473 C   0  0  0  0  0  0  0  0  0  0  0  0
   23.6758  -21.8352  -14.4099 O   0  0  0  0  0  0  0  0  0  0  0  0
   26.5947  -20.6145  -11.3382 C   0  0  0  0  0  0  0  0  0  0  0  0
   25.1941  -20.4557  -10.7807 C   0  0  2  0  0  0  0  0  0  0  0  0
   25.0957  -21.3110   -9.5397 C   0  0  0  0  0  0  0  0  0  0  0  0
   24.2265  -20.8966  -11.8524 C   0  0  2  0  0  0  0  0  0  0  0  0
   24.3683  -20.1107  -13.0641 N   0  0  0  0  0  0  0  0  0  0  0  0
   22.8239  -20.8276  -11.4158 C   0  0  0  0  0  0  0  0  0  0  0  0
   22.1130  -21.9277  -10.9522 O   0  0  0  0  0  0  0  0  0  0  0  0
   22.2045  -19.7383  -11.4490 O   0  0  0  0  0  0  0  0  0  0  0  0
  2  1  1  0
  3  2  1  0
  4  3  2  0
  5  6  1  0
  7  8  1  1
  7  6  1  0
  9  7  1  0
  9 10  1  6
 10  3  1  0
 11 17  1  0
 11  9  1  0
 12 11  2  0
 14 15  1  1
 14 13  1  0
 16 17  1  6
 16 14  1  0
 18 19  1  0
 18 16  1  0
 20 18  2  0
M  END
$$$$
