GIV.pdb
     RDKit          3D

 20 19  0  0  1  0  0  0  0  0999 V2000
   28.2985  -19.9564  -16.0398 N   0  0  0  0  0  0  0  0  0  0  0  0
   28.0728  -20.9538  -15.0173 C   0  0  0  0  0  0  0  0  0  0  0  0
   27.3791  -20.3555  -13.8868 C   0  0  0  0  0  0  0  0  0  0  0  0
   27.3237  -19.1076  -13.7754 O   0  0  0  0  0  0  0  0  0  0  0  0
   22.5705  -20.1695  -13.9949 C   0  0  0  0  0  0  0  0  0  0  0  0
   24.0584  -20.1052  -13.7411 C   0  0  0  0  0  0  0  0  0  0  0  0
   24.3608  -20.5685  -12.3612 C   0  0  2  0  0  0  0  0  0  0  0  0
   23.4752  -19.9108  -11.3218 C   0  0  0  0  0  0  0  0  0  0  0  0
   25.7825  -20.5689  -11.9377 C   0  0  2  0  0  0  0  0  0  0  0  0
   26.7303  -21.1247  -12.8529 N   0  0  0  0  0  0  0  0  0  0  0  0
   25.9611  -21.1242  -10.5498 C   0  0  0  0  0  0  0  0  0  0  0  0
   25.8322  -22.3512  -10.3154 O   0  0  0  0  0  0  0  0  0  0  0  0
   26.7486  -18.5530   -7.1950 C   0  0  0  0  0  0  0  0  0  0  0  0
   27.3724  -19.9324   -7.2726 C   0  0  2  0  0  0  0  0  0  0  0  0
   28.7358  -19.7833   -7.9050 C   0  0  0  0  0  0  0  0  0  0  0  0
   26.4543  -20.7995   -8.1000 C   0  0  2  0  0  0  0  0  0  0  0  0
   26.2844  -20.2776   -9.4433 N   0  0  0  0  0  0  0  0  0  0  0  0
   25.1246  -20.9611   -7.4930 C   0  0  0  0  0  0  0  0  0  0  0  0
   24.8618  -21.8437   -6.4526 O   0  0  0  0  0  0  0  0  0  0  0  0
   24.1539  -20.2855   -7.9085 O   0  0  0  0  0  0  0  0  0  0  0  0
  2  1  1  0
  3  2  1  0
  4  3  2  0
  5  6  1  0
  7  8  1  1
  7  6  1  0
  9  7  1  0
  9 10  1  6
 10  3  1  0
 11 17  1  0
 11  9  1  0
 12 11  2  0
 14 15  1  6
 14 13  1  0
 16 17  1  6
 16 14  1  0
 18 19  1  0
 18 16  1  0
 20 18  2  0
M  END
$$$$
