GIV.pdb
     RDKit          3D

 20 19  0  0  1  0  0  0  0  0999 V2000
   18.5101  -13.6695  -17.2988 N   0  0  0  0  0  0  0  0  0  0  0  0
   19.7774  -13.1245  -17.7325 C   0  0  0  0  0  0  0  0  0  0  0  0
   20.2531  -12.1473  -16.7649 C   0  0  0  0  0  0  0  0  0  0  0  0
   19.6688  -12.0225  -15.6622 O   0  0  0  0  0  0  0  0  0  0  0  0
   25.2854  -11.6044  -15.0066 C   0  0  0  0  0  0  0  0  0  0  0  0
   23.8112  -11.7150  -15.3181 C   0  0  0  0  0  0  0  0  0  0  0  0
   23.2555  -10.3737  -15.6379 C   0  0  2  0  0  0  0  0  0  0  0  0
   23.5674   -9.3469  -14.5676 C   0  0  0  0  0  0  0  0  0  0  0  0
   21.8332  -10.3058  -16.0539 C   0  0  2  0  0  0  0  0  0  0  0  0
   21.3868  -11.2852  -16.9953 N   0  0  0  0  0  0  0  0  0  0  0  0
   21.4284   -8.9156  -16.4666 C   0  0  0  0  0  0  0  0  0  0  0  0
   21.9731   -8.3383  -17.4396 O   0  0  0  0  0  0  0  0  0  0  0  0
   17.7629   -7.2586  -15.2473 C   0  0  0  0  0  0  0  0  0  0  0  0
   18.5103   -6.8229  -16.4921 C   0  0  2  0  0  0  0  0  0  0  0  0
   18.1377   -7.7729  -17.6056 C   0  0  0  0  0  0  0  0  0  0  0  0
   19.9857   -6.8702  -16.1752 C   0  0  2  0  0  0  0  0  0  0  0  0
   20.4080   -8.1973  -15.7676 N   0  0  0  0  0  0  0  0  0  0  0  0
   20.3726   -5.9167  -15.1245 C   0  0  0  0  0  0  0  0  0  0  0  0
   20.7559   -6.3026  -13.8460 O   0  0  0  0  0  0  0  0  0  0  0  0
   20.3687   -4.6848  -15.3565 O   0  0  0  0  0  0  0  0  0  0  0  0
  2  1  1  0
  3  2  1  0
  4  3  2  0
  5  6  1  0
  7  8  1  1
  7  6  1  0
  9  7  1  0
  9 10  1  6
 10  3  1  0
 11 17  1  0
 11  9  1  0
 12 11  2  0
 14 15  1  6
 14 13  1  0
 16 17  1  1
 16 14  1  0
 18 19  1  0
 18 16  1  0
 20 18  2  0
M  END
$$$$
