GIV.pdb
     RDKit          3D

 20 19  0  0  1  0  0  0  0  0999 V2000
   29.0092  -20.5811  -14.6157 N   0  0  0  0  0  0  0  0  0  0  0  0
   28.2223  -19.7160  -13.7650 C   0  0  0  0  0  0  0  0  0  0  0  0
   27.1671  -20.4828  -13.1201 C   0  0  0  0  0  0  0  0  0  0  0  0
   26.7785  -21.5623  -13.6266 O   0  0  0  0  0  0  0  0  0  0  0  0
   26.4294  -19.9576   -7.8346 C   0  0  0  0  0  0  0  0  0  0  0  0
   26.4542  -20.8891   -9.0239 C   0  0  0  0  0  0  0  0  0  0  0  0
   25.2412  -20.6830   -9.8583 C   0  0  2  0  0  0  0  0  0  0  0  0
   24.0642  -21.5123   -9.3847 C   0  0  0  0  0  0  0  0  0  0  0  0
   25.4033  -20.7662  -11.3304 C   0  0  2  0  0  0  0  0  0  0  0  0
   26.5171  -20.0726  -11.8991 N   0  0  0  0  0  0  0  0  0  0  0  0
   24.1245  -20.4539  -12.0609 C   0  0  0  0  0  0  0  0  0  0  0  0
   23.7039  -19.2755  -12.1673 O   0  0  0  0  0  0  0  0  0  0  0  0
   20.9909  -21.6600  -15.5842 C   0  0  0  0  0  0  0  0  0  0  0  0
   22.2031  -22.0506  -14.7622 C   0  0  2  0  0  0  0  0  0  0  0  0
   22.0784  -23.5191  -14.4319 C   0  0  0  0  0  0  0  0  0  0  0  0
   22.2079  -21.1882  -13.5230 C   0  0  2  0  0  0  0  0  0  0  0  0
   23.3378  -21.4858  -12.6625 N   0  0  0  0  0  0  0  0  0  0  0  0
   20.9747  -21.3211  -12.7328 C   0  0  0  0  0  0  0  0  0  0  0  0
   20.8452  -22.1941  -11.6598 O   0  0  0  0  0  0  0  0  0  0  0  0
   19.9680  -20.6281  -13.0113 O   0  0  0  0  0  0  0  0  0  0  0  0
  2  1  1  0
  3  2  1  0
  4  3  2  0
  5  6  1  0
  7  8  1  1
  7  6  1  0
  9  7  1  0
  9 10  1  6
 10  3  1  0
 11 17  1  0
 11  9  1  0
 12 11  2  0
 14 15  1  1
 14 13  1  0
 16 17  1  1
 16 14  1  0
 18 19  1  0
 18 16  1  0
 20 18  2  0
M  END
$$$$
