GIV.pdb
     RDKit          3D

 20 19  0  0  1  0  0  0  0  0999 V2000
   14.5485  -13.2809  -15.1882 N   0  0  0  0  0  0  0  0  0  0  0  0
   14.8266  -11.9776  -14.6268 C   0  0  0  0  0  0  0  0  0  0  0  0
   15.8504  -11.3076  -15.4144 C   0  0  0  0  0  0  0  0  0  0  0  0
   15.8798  -11.4563  -16.6593 O   0  0  0  0  0  0  0  0  0  0  0  0
   15.5958   -6.3820  -16.5937 C   0  0  0  0  0  0  0  0  0  0  0  0
   16.3269   -7.3019  -15.6440 C   0  0  0  0  0  0  0  0  0  0  0  0
   16.8163   -8.5021  -16.3722 C   0  0  2  0  0  0  0  0  0  0  0  0
   15.7256   -9.1726  -17.1835 C   0  0  0  0  0  0  0  0  0  0  0  0
   17.6033   -9.4948  -15.6003 C   0  0  2  0  0  0  0  0  0  0  0  0
   16.8658  -10.4573  -14.8422 N   0  0  0  0  0  0  0  0  0  0  0  0
   18.6806   -8.8455  -14.7730 C   0  0  0  0  0  0  0  0  0  0  0  0
   18.4608   -8.4648  -13.5967 O   0  0  0  0  0  0  0  0  0  0  0  0
   22.6585   -8.8990  -16.1646 C   0  0  0  0  0  0  0  0  0  0  0  0
   22.3536   -8.9244  -14.6799 C   0  0  2  0  0  0  0  0  0  0  0  0
   22.2085  -10.3699  -14.2670 C   0  0  0  0  0  0  0  0  0  0  0  0
   21.0806   -8.1418  -14.4648 C   0  0  2  0  0  0  0  0  0  0  0  0
   19.9965   -8.6362  -15.2929 N   0  0  0  0  0  0  0  0  0  0  0  0
   21.2458   -6.7039  -14.7259 C   0  0  0  0  0  0  0  0  0  0  0  0
   20.6178   -6.0404  -15.7727 O   0  0  0  0  0  0  0  0  0  0  0  0
   21.9828   -6.0083  -13.9882 O   0  0  0  0  0  0  0  0  0  0  0  0
  2  1  1  0
  3  2  1  0
  4  3  2  0
  5  6  1  0
  7  8  1  1
  7  6  1  0
  9  7  1  0
  9 10  1  1
 10  3  1  0
 11 17  1  0
 11  9  1  0
 12 11  2  0
 14 15  1  6
 14 13  1  0
 16 17  1  6
 16 14  1  0
 18 19  1  0
 18 16  1  0
 20 18  2  0
M  END
$$$$
