GIV.pdb
     RDKit          3D

 20 19  0  0  1  0  0  0  0  0999 V2000
   29.0551  -21.8094  -15.3705 N   0  0  0  0  0  0  0  0  0  0  0  0
   28.2816  -20.6784  -14.9081 C   0  0  0  0  0  0  0  0  0  0  0  0
   27.1072  -21.1440  -14.1860 C   0  0  0  0  0  0  0  0  0  0  0  0
   26.5878  -22.2470  -14.4802 O   0  0  0  0  0  0  0  0  0  0  0  0
   26.4989  -20.6308   -8.7902 C   0  0  0  0  0  0  0  0  0  0  0  0
   26.5366  -21.1421  -10.2114 C   0  0  0  0  0  0  0  0  0  0  0  0
   25.3221  -20.6986  -10.9452 C   0  0  2  0  0  0  0  0  0  0  0  0
   24.0451  -21.2365  -10.3310 C   0  0  0  0  0  0  0  0  0  0  0  0
   25.3204  -20.8562  -12.4202 C   0  0  2  0  0  0  0  0  0  0  0  0
   26.4801  -20.3995  -13.1212 N   0  0  0  0  0  0  0  0  0  0  0  0
   24.0539  -20.3346  -13.0453 C   0  0  0  0  0  0  0  0  0  0  0  0
   23.7619  -19.1139  -13.0086 O   0  0  0  0  0  0  0  0  0  0  0  0
   22.9170  -21.0045  -16.5451 C   0  0  0  0  0  0  0  0  0  0  0  0
   21.7055  -21.3334  -15.6955 C   0  0  2  0  0  0  0  0  0  0  0  0
   20.4910  -20.7652  -16.3908 C   0  0  0  0  0  0  0  0  0  0  0  0
   21.9231  -20.7141  -14.3360 C   0  0  2  0  0  0  0  0  0  0  0  0
   23.1333  -21.2077  -13.7054 N   0  0  0  0  0  0  0  0  0  0  0  0
   20.7957  -20.9426  -13.4197 C   0  0  0  0  0  0  0  0  0  0  0  0
   19.7788  -20.0184  -13.2142 O   0  0  0  0  0  0  0  0  0  0  0  0
   20.7135  -22.0137  -12.7737 O   0  0  0  0  0  0  0  0  0  0  0  0
  2  1  1  0
  3  2  1  0
  4  3  2  0
  5  6  1  0
  7  8  1  1
  7  6  1  0
  9  7  1  0
  9 10  1  6
 10  3  1  0
 11 17  1  0
 11  9  1  0
 12 11  2  0
 14 15  1  6
 14 13  1  0
 16 17  1  1
 16 14  1  0
 18 19  1  0
 18 16  1  0
 20 18  2  0
M  END
$$$$
