GIV.pdb
     RDKit          3D

 20 19  0  0  1  0  0  0  0  0999 V2000
   19.9189  -15.4887  -18.0005 N   0  0  0  0  0  0  0  0  0  0  0  0
   19.9483  -14.0730  -18.2940 C   0  0  0  0  0  0  0  0  0  0  0  0
   20.6802  -13.3669  -17.2533 C   0  0  0  0  0  0  0  0  0  0  0  0
   20.2700  -13.3978  -16.0685 O   0  0  0  0  0  0  0  0  0  0  0  0
   26.0100  -12.2224  -14.8233 C   0  0  0  0  0  0  0  0  0  0  0  0
   24.6238  -11.6509  -15.0095 C   0  0  0  0  0  0  0  0  0  0  0  0
   23.9571  -12.2983  -16.1698 C   0  0  2  0  0  0  0  0  0  0  0  0
   24.8277  -12.3024  -17.4105 C   0  0  0  0  0  0  0  0  0  0  0  0
   22.5707  -11.8743  -16.4840 C   0  0  2  0  0  0  0  0  0  0  0  0
   21.8834  -12.6099  -17.4996 N   0  0  0  0  0  0  0  0  0  0  0  0
   22.4688  -10.3894  -16.7104 C   0  0  0  0  0  0  0  0  0  0  0  0
   23.0211   -9.8392  -17.6948 O   0  0  0  0  0  0  0  0  0  0  0  0
   19.0897   -8.4845  -15.8331 C   0  0  0  0  0  0  0  0  0  0  0  0
   20.1502   -7.9419  -16.7705 C   0  0  2  0  0  0  0  0  0  0  0  0
   20.0399   -8.6982  -18.0732 C   0  0  0  0  0  0  0  0  0  0  0  0
   21.4904   -8.1469  -16.1065 C   0  0  2  0  0  0  0  0  0  0  0  0
   21.7396   -9.5463  -15.8142 N   0  0  0  0  0  0  0  0  0  0  0  0
   21.6307   -7.3800  -14.8595 C   0  0  0  0  0  0  0  0  0  0  0  0
   21.7451   -5.9958  -14.8227 O   0  0  0  0  0  0  0  0  0  0  0  0
   21.6523   -7.9700  -13.7538 O   0  0  0  0  0  0  0  0  0  0  0  0
  2  1  1  0
  3  2  1  0
  4  3  2  0
  5  6  1  0
  7  8  1  6
  7  6  1  0
  9  7  1  0
  9 10  1  6
 10  3  1  0
 11 17  1  0
 11  9  1  0
 12 11  2  0
 14 15  1  6
 14 13  1  0
 16 17  1  1
 16 14  1  0
 18 19  1  0
 18 16  1  0
 20 18  2  0
M  END
$$$$
