GIV.pdb
     RDKit          3D

 20 19  0  0  1  0  0  0  0  0999 V2000
   27.3650  -21.2957  -18.2380 N   0  0  0  0  0  0  0  0  0  0  0  0
   26.9566  -20.3223  -17.2497 C   0  0  0  0  0  0  0  0  0  0  0  0
   27.0679  -20.8942  -15.9163 C   0  0  0  0  0  0  0  0  0  0  0  0
   26.5254  -21.9955  -15.6601 O   0  0  0  0  0  0  0  0  0  0  0  0
   30.8526  -21.5388  -11.1919 C   0  0  0  0  0  0  0  0  0  0  0  0
   29.4185  -21.6219  -11.6598 C   0  0  0  0  0  0  0  0  0  0  0  0
   29.2478  -20.8513  -12.9196 C   0  0  2  0  0  0  0  0  0  0  0  0
   29.8367  -19.4576  -12.8310 C   0  0  0  0  0  0  0  0  0  0  0  0
   27.8949  -20.8286  -13.5277 C   0  0  2  0  0  0  0  0  0  0  0  0
   27.7824  -20.2603  -14.8351 N   0  0  0  0  0  0  0  0  0  0  0  0
   26.8600  -20.2680  -12.5889 C   0  0  0  0  0  0  0  0  0  0  0  0
   26.6866  -19.0299  -12.4718 O   0  0  0  0  0  0  0  0  0  0  0  0
   23.3678  -20.4746  -12.7662 C   0  0  0  0  0  0  0  0  0  0  0  0
   23.6154  -21.0575  -11.3890 C   0  0  2  0  0  0  0  0  0  0  0  0
   22.5209  -20.5570  -10.4765 C   0  0  0  0  0  0  0  0  0  0  0  0
   24.9822  -20.5986  -10.9412 C   0  0  2  0  0  0  0  0  0  0  0  0
   26.0335  -21.1222  -11.7934 N   0  0  0  0  0  0  0  0  0  0  0  0
   25.2811  -20.9740   -9.5511 C   0  0  0  0  0  0  0  0  0  0  0  0
   25.1846  -20.0902   -8.4833 O   0  0  0  0  0  0  0  0  0  0  0  0
   25.6445  -22.1417   -9.2761 O   0  0  0  0  0  0  0  0  0  0  0  0
  2  1  1  0
  3  2  1  0
  4  3  2  0
  5  6  1  0
  7  8  1  1
  7  6  1  0
  9  7  1  0
  9 10  1  6
 10  3  1  0
 11 17  1  0
 11  9  1  0
 12 11  2  0
 14 15  1  1
 14 13  1  0
 16 17  1  6
 16 14  1  0
 18 19  1  0
 18 16  1  0
 20 18  2  0
M  END
$$$$
