GIV.pdb
     RDKit          3D

 20 19  0  0  1  0  0  0  0  0999 V2000
   11.4020  -12.8811  -10.6728 N   0  0  0  0  0  0  0  0  0  0  0  0
   11.6469  -11.6713  -11.4262 C   0  0  0  0  0  0  0  0  0  0  0  0
   13.0312  -11.2554  -11.2583 C   0  0  0  0  0  0  0  0  0  0  0  0
   13.6952  -11.6703  -10.2786 O   0  0  0  0  0  0  0  0  0  0  0  0
   17.0563  -12.1805  -14.4055 C   0  0  0  0  0  0  0  0  0  0  0  0
   16.0094  -11.8774  -13.3591 C   0  0  0  0  0  0  0  0  0  0  0  0
   16.0544  -10.4367  -12.9952 C   0  0  2  0  0  0  0  0  0  0  0  0
   17.4560   -9.9668  -12.6607 C   0  0  0  0  0  0  0  0  0  0  0  0
   15.0699   -9.9542  -11.9960 C   0  0  2  0  0  0  0  0  0  0  0  0
   13.7130  -10.3704  -12.1712 N   0  0  0  0  0  0  0  0  0  0  0  0
   15.1693   -8.4686  -11.7729 C   0  0  0  0  0  0  0  0  0  0  0  0
   14.7046   -7.6505  -12.6045 O   0  0  0  0  0  0  0  0  0  0  0  0
   16.4742   -6.9550   -8.0204 C   0  0  0  0  0  0  0  0  0  0  0  0
   15.4604   -6.2228   -8.8771 C   0  0  2  0  0  0  0  0  0  0  0  0
   14.0897   -6.7345   -8.5023 C   0  0  0  0  0  0  0  0  0  0  0  0
   15.7973   -6.5069  -10.3211 C   0  0  2  0  0  0  0  0  0  0  0  0
   15.7964   -7.9298  -10.6058 N   0  0  0  0  0  0  0  0  0  0  0  0
   17.1004   -5.9543  -10.7205 C   0  0  0  0  0  0  0  0  0  0  0  0
   17.2917   -4.6223  -11.0665 O   0  0  0  0  0  0  0  0  0  0  0  0
   18.1132   -6.6916  -10.7629 O   0  0  0  0  0  0  0  0  0  0  0  0
  2  1  1  0
  3  2  1  0
  4  3  2  0
  5  6  1  0
  7  8  1  1
  7  6  1  0
  9  7  1  0
  9 10  1  6
 10  3  1  0
 11 17  1  0
 11  9  1  0
 12 11  2  0
 14 15  1  1
 14 13  1  0
 16 17  1  1
 16 14  1  0
 18 19  1  0
 18 16  1  0
 20 18  2  0
M  END
$$$$
