FFV.pdb
     RDKit          3D

 30 31  0  0  1  0  0  0  0  0999 V2000
   27.9903  -22.9916  -16.9523 N   0  0  0  0  0  0  0  0  0  0  0  0
   27.9080  -21.6353  -16.4442 C   0  0  1  0  0  0  0  0  0  0  0  0
   26.8767  -20.8868  -17.2966 C   0  0  0  0  0  0  0  0  0  0  0  0
   27.4008  -20.5489  -18.6209 C   0  0  0  0  0  0  0  0  0  0  0  0
   28.1522  -19.4174  -18.7961 C   0  0  0  0  0  0  0  0  0  0  0  0
   28.6324  -19.1172  -20.0349 C   0  0  0  0  0  0  0  0  0  0  0  0
   28.3868  -19.9159  -21.1212 C   0  0  0  0  0  0  0  0  0  0  0  0
   27.6342  -21.0540  -20.9592 C   0  0  0  0  0  0  0  0  0  0  0  0
   27.1519  -21.3510  -19.7024 C   0  0  0  0  0  0  0  0  0  0  0  0
   27.3025  -21.6998  -15.0676 C   0  0  0  0  0  0  0  0  0  0  0  0
   26.3236  -22.4640  -14.8169 O   0  0  0  0  0  0  0  0  0  0  0  0
   27.7887  -20.9192  -13.9913 N   0  0  0  0  0  0  0  0  0  0  0  0
   27.1825  -20.9504  -12.7019 C   0  0  1  0  0  0  0  0  0  0  0  0
   28.0192  -20.3330  -11.6158 C   0  0  0  0  0  0  0  0  0  0  0  0
   27.3526  -20.2107  -10.3214 C   0  0  0  0  0  0  0  0  0  0  0  0
   26.5508  -19.1246  -10.0246 C   0  0  0  0  0  0  0  0  0  0  0  0
   25.9148  -18.9963   -8.8035 C   0  0  0  0  0  0  0  0  0  0  0  0
   26.0523  -19.9518   -7.8202 C   0  0  0  0  0  0  0  0  0  0  0  0
   26.8489  -21.0408   -8.1018 C   0  0  0  0  0  0  0  0  0  0  0  0
   27.4910  -21.1685   -9.3369 C   0  0  0  0  0  0  0  0  0  0  0  0
   25.8159  -20.3563  -12.7091 C   0  0  0  0  0  0  0  0  0  0  0  0
   25.6813  -19.1467  -13.0233 O   0  0  0  0  0  0  0  0  0  0  0  0
   22.3356  -22.4126  -13.5506 C   0  0  0  0  0  0  0  0  0  0  0  0
   22.5136  -20.9136  -13.5551 C   0  0  2  0  0  0  0  0  0  0  0  0
   23.0723  -20.3829  -14.8360 C   0  0  0  0  0  0  0  0  0  0  0  0
   23.3234  -20.5278  -12.3382 C   0  0  2  0  0  0  0  0  0  0  0  0
   24.6577  -21.0918  -12.3778 N   0  0  0  0  0  0  0  0  0  0  0  0
   22.6094  -20.9683  -11.1136 C   0  0  0  0  0  0  0  0  0  0  0  0
   21.4227  -20.3419  -10.7737 O   0  0  0  0  0  0  0  0  0  0  0  0
   23.0155  -21.8739  -10.3675 O   0  0  0  0  0  0  0  0  0  0  0  0
  2  1  1  6
  3  4  1  0
  3  2  1  0
  4  9  2  0
  5  6  2  0
  5  4  1  0
  6  7  1  0
  7  8  2  0
  9  8  1  0
 10  2  1  0
 10 11  2  0
 12 10  1  0
 13 12  1  0
 13 21  1  0
 13 14  1  1
 15 14  1  0
 15 16  2  0
 17 16  1  0
 18 17  2  0
 19 20  2  0
 19 18  1  0
 20 15  1  0
 21 22  2  0
 21 27  1  0
 24 23  1  6
 24 25  1  0
 24 26  1  0
 26 28  1  0
 26 27  1  6
 28 30  2  0
 28 29  1  0
M  END
$$$$
