FFV.pdb
     RDKit          3D

 30 31  0  0  1  0  0  0  0  0999 V2000
   26.3902  -20.5939  -18.1755 N   0  0  0  0  0  0  0  0  0  0  0  0
   26.4662  -19.4890  -17.2386 C   0  0  1  0  0  0  0  0  0  0  0  0
   25.1532  -18.7046  -17.3451 C   0  0  0  0  0  0  0  0  0  0  0  0
   25.0352  -18.0036  -18.6247 C   0  0  0  0  0  0  0  0  0  0  0  0
   25.7789  -16.8790  -18.8651 C   0  0  0  0  0  0  0  0  0  0  0  0
   25.6572  -16.2383  -20.0610 C   0  0  0  0  0  0  0  0  0  0  0  0
   24.8085  -16.6847  -21.0400 C   0  0  0  0  0  0  0  0  0  0  0  0
   24.0566  -17.8120  -20.8117 C   0  0  0  0  0  0  0  0  0  0  0  0
   24.1854  -18.4547  -19.5991 C   0  0  0  0  0  0  0  0  0  0  0  0
   26.4624  -20.0680  -15.8491 C   0  0  0  0  0  0  0  0  0  0  0  0
   25.7759  -21.0952  -15.5685 O   0  0  0  0  0  0  0  0  0  0  0  0
   27.2169  -19.5025  -14.7932 N   0  0  0  0  0  0  0  0  0  0  0  0
   27.1327  -19.9935  -13.4579 C   0  0  1  0  0  0  0  0  0  0  0  0
   28.2516  -19.5350  -12.5642 C   0  0  0  0  0  0  0  0  0  0  0  0
   28.0953  -19.8868  -11.1547 C   0  0  0  0  0  0  0  0  0  0  0  0
   28.6278  -21.0543  -10.6410 C   0  0  0  0  0  0  0  0  0  0  0  0
   28.4867  -21.3993   -9.3094 C   0  0  0  0  0  0  0  0  0  0  0  0
   27.8042  -20.5894   -8.4279 C   0  0  0  0  0  0  0  0  0  0  0  0
   27.2676  -19.4216   -8.9259 C   0  0  0  0  0  0  0  0  0  0  0  0
   27.4114  -19.0747  -10.2724 C   0  0  0  0  0  0  0  0  0  0  0  0
   25.8121  -19.6991  -12.8334 C   0  0  0  0  0  0  0  0  0  0  0  0
   25.3498  -18.5329  -12.9118 O   0  0  0  0  0  0  0  0  0  0  0  0
   22.6971  -22.4062  -12.4005 C   0  0  0  0  0  0  0  0  0  0  0  0
   22.6142  -20.9011  -12.3207 C   0  0  2  0  0  0  0  0  0  0  0  0
   22.4951  -20.2384  -13.6553 C   0  0  0  0  0  0  0  0  0  0  0  0
   23.7842  -20.4037  -11.5026 C   0  0  2  0  0  0  0  0  0  0  0  0
   25.0505  -20.6737  -12.1535 N   0  0  0  0  0  0  0  0  0  0  0  0
   23.7463  -21.0329  -10.1588 C   0  0  0  0  0  0  0  0  0  0  0  0
   22.6747  -20.7598   -9.3262 O   0  0  0  0  0  0  0  0  0  0  0  0
   24.6262  -21.7975   -9.7310 O   0  0  0  0  0  0  0  0  0  0  0  0
  2  1  1  6
  3  4  1  0
  3  2  1  0
  4  9  2  0
  5  6  2  0
  5  4  1  0
  6  7  1  0
  7  8  2  0
  9  8  1  0
 10  2  1  0
 10 11  2  0
 12 10  1  0
 13 12  1  0
 13 21  1  0
 13 14  1  1
 15 14  1  0
 15 16  2  0
 17 16  1  0
 18 17  2  0
 19 20  2  0
 19 18  1  0
 20 15  1  0
 21 22  2  0
 21 27  1  0
 24 23  1  6
 24 25  1  0
 24 26  1  0
 26 28  1  0
 26 27  1  6
 28 30  2  0
 28 29  1  0
M  END
$$$$
