FFV.pdb
     RDKit          3D

 30 31  0  0  1  0  0  0  0  0999 V2000
   39.1551   -3.2563   -6.6362 N   0  0  0  0  0  0  0  0  0  0  0  0
   39.9518   -3.9821   -7.6073 C   0  0  1  0  0  0  0  0  0  0  0  0
   41.4261   -3.6976   -7.2973 C   0  0  0  0  0  0  0  0  0  0  0  0
   41.8167   -2.3414   -7.6859 C   0  0  0  0  0  0  0  0  0  0  0  0
   41.7709   -1.9615   -9.0009 C   0  0  0  0  0  0  0  0  0  0  0  0
   42.1378   -0.6959   -9.3458 C   0  0  0  0  0  0  0  0  0  0  0  0
   42.5548    0.2179   -8.4135 C   0  0  0  0  0  0  0  0  0  0  0  0
   42.6054   -0.1503   -7.0907 C   0  0  0  0  0  0  0  0  0  0  0  0
   42.2325   -1.4328   -6.7496 C   0  0  0  0  0  0  0  0  0  0  0  0
   39.7735   -5.4521   -7.3364 C   0  0  0  0  0  0  0  0  0  0  0  0
   39.5009   -5.8764   -6.1742 O   0  0  0  0  0  0  0  0  0  0  0  0
   39.8992   -6.4282   -8.3539 N   0  0  0  0  0  0  0  0  0  0  0  0
   39.6839   -7.8142   -8.1012 C   0  0  1  0  0  0  0  0  0  0  0  0
   38.3140   -8.3017   -8.4838 C   0  0  0  0  0  0  0  0  0  0  0  0
   38.0627   -9.7128   -8.1999 C   0  0  0  0  0  0  0  0  0  0  0  0
   38.1456  -10.6723   -9.1914 C   0  0  0  0  0  0  0  0  0  0  0  0
   37.9097  -12.0107   -8.9363 C   0  0  0  0  0  0  0  0  0  0  0  0
   37.5789  -12.4519   -7.6735 C   0  0  0  0  0  0  0  0  0  0  0  0
   37.4924  -11.5063   -6.6744 C   0  0  0  0  0  0  0  0  0  0  0  0
   37.7313  -10.1538   -6.9344 C   0  0  0  0  0  0  0  0  0  0  0  0
   40.7344   -8.6685   -8.7236 C   0  0  0  0  0  0  0  0  0  0  0  0
   40.9798   -8.5332   -9.9489 O   0  0  0  0  0  0  0  0  0  0  0  0
   42.7610  -12.1232   -6.8327 C   0  0  0  0  0  0  0  0  0  0  0  0
   43.4687  -10.9481   -7.4627 C   0  0  2  0  0  0  0  0  0  0  0  0
   43.9237   -9.9247   -6.4727 C   0  0  0  0  0  0  0  0  0  0  0  0
   42.5796  -10.3842   -8.5476 C   0  0  2  0  0  0  0  0  0  0  0  0
   41.4719   -9.6286   -7.9981 N   0  0  0  0  0  0  0  0  0  0  0  0
   42.0805  -11.4931   -9.3989 C   0  0  0  0  0  0  0  0  0  0  0  0
   42.9212  -12.0219  -10.3631 O   0  0  0  0  0  0  0  0  0  0  0  0
   40.9430  -11.9808   -9.2980 O   0  0  0  0  0  0  0  0  0  0  0  0
  2  1  1  1
  3  4  1  0
  3  2  1  0
  4  9  2  0
  5  6  2  0
  5  4  1  0
  6  7  1  0
  7  8  2  0
  9  8  1  0
 10  2  1  0
 10 11  2  0
 12 10  1  0
 13 12  1  0
 13 21  1  0
 13 14  1  6
 15 14  1  0
 15 16  2  0
 17 16  1  0
 18 17  2  0
 19 20  2  0
 19 18  1  0
 20 15  1  0
 21 22  2  0
 21 27  1  0
 24 23  1  1
 24 25  1  0
 24 26  1  0
 26 28  1  0
 26 27  1  1
 28 30  2  0
 28 29  1  0
M  END
$$$$
