FFV.pdb
     RDKit          3D

 30 31  0  0  1  0  0  0  0  0999 V2000
   26.4628  -20.7530  -18.8129 N   0  0  0  0  0  0  0  0  0  0  0  0
   25.8958  -19.6832  -18.0137 C   0  0  1  0  0  0  0  0  0  0  0  0
   24.6022  -19.2316  -18.7016 C   0  0  0  0  0  0  0  0  0  0  0  0
   24.8662  -18.3723  -19.8568 C   0  0  0  0  0  0  0  0  0  0  0  0
   25.0036  -17.0197  -19.6921 C   0  0  0  0  0  0  0  0  0  0  0  0
   25.2489  -16.2340  -20.7774 C   0  0  0  0  0  0  0  0  0  0  0  0
   25.3638  -16.7557  -22.0394 C   0  0  0  0  0  0  0  0  0  0  0  0
   25.2281  -18.1113  -22.2187 C   0  0  0  0  0  0  0  0  0  0  0  0
   24.9799  -18.8996  -21.1154 C   0  0  0  0  0  0  0  0  0  0  0  0
   25.4532  -20.2779  -16.7036 C   0  0  0  0  0  0  0  0  0  0  0  0
   24.9804  -21.4517  -16.6426 O   0  0  0  0  0  0  0  0  0  0  0  0
   25.5404  -19.5658  -15.4833 N   0  0  0  0  0  0  0  0  0  0  0  0
   25.1680  -20.1521  -14.2388 C   0  0  1  0  0  0  0  0  0  0  0  0
   25.9108  -19.5997  -13.0539 C   0  0  0  0  0  0  0  0  0  0  0  0
   25.5663  -20.2122  -11.7729 C   0  0  0  0  0  0  0  0  0  0  0  0
   26.2776  -21.2877  -11.2750 C   0  0  0  0  0  0  0  0  0  0  0  0
   25.9618  -21.8770  -10.0646 C   0  0  0  0  0  0  0  0  0  0  0  0
   24.9164  -21.4157   -9.2944 C   0  0  0  0  0  0  0  0  0  0  0  0
   24.1979  -20.3436   -9.7781 C   0  0  0  0  0  0  0  0  0  0  0  0
   24.5188  -19.7494  -11.0020 C   0  0  0  0  0  0  0  0  0  0  0  0
   23.6972  -20.0916  -14.0070 C   0  0  0  0  0  0  0  0  0  0  0  0
   23.1211  -18.9753  -14.0508 O   0  0  0  0  0  0  0  0  0  0  0  0
   19.2774  -22.0755  -14.1192 C   0  0  0  0  0  0  0  0  0  0  0  0
   20.7619  -22.2515  -14.3282 C   0  0  2  0  0  0  0  0  0  0  0  0
   21.2403  -23.6436  -14.0682 C   0  0  0  0  0  0  0  0  0  0  0  0
   21.4839  -21.2034  -13.5122 C   0  0  2  0  0  0  0  0  0  0  0  0
   22.9149  -21.2353  -13.7388 N   0  0  0  0  0  0  0  0  0  0  0  0
   21.1813  -21.4071  -12.0733 C   0  0  0  0  0  0  0  0  0  0  0  0
   20.3695  -20.4903  -11.4279 O   0  0  0  0  0  0  0  0  0  0  0  0
   21.6161  -22.3597  -11.4060 O   0  0  0  0  0  0  0  0  0  0  0  0
  2  1  1  6
  3  4  1  0
  3  2  1  0
  4  9  2  0
  5  6  2  0
  5  4  1  0
  6  7  1  0
  7  8  2  0
  9  8  1  0
 10  2  1  0
 10 11  2  0
 12 10  1  0
 13 12  1  0
 13 21  1  0
 13 14  1  1
 15 14  1  0
 15 16  2  0
 17 16  1  0
 18 17  2  0
 19 20  2  0
 19 18  1  0
 20 15  1  0
 21 22  2  0
 21 27  1  0
 24 23  1  1
 24 25  1  0
 24 26  1  0
 26 28  1  0
 26 27  1  1
 28 30  2  0
 28 29  1  0
M  END
$$$$
