FFV.pdb
     RDKit          3D

 30 31  0  0  1  0  0  0  0  0999 V2000
   18.9086   -7.0828  -21.4394 N   0  0  0  0  0  0  0  0  0  0  0  0
   20.2435   -6.6001  -21.1404 C   0  0  1  0  0  0  0  0  0  0  0  0
   20.1467   -5.0856  -20.9229 C   0  0  0  0  0  0  0  0  0  0  0  0
   19.9412   -4.3629  -22.1791 C   0  0  0  0  0  0  0  0  0  0  0  0
   20.9804   -4.1951  -23.0552 C   0  0  0  0  0  0  0  0  0  0  0  0
   20.7726   -3.5199  -24.2198 C   0  0  0  0  0  0  0  0  0  0  0  0
   19.5483   -2.9984  -24.5473 C   0  0  0  0  0  0  0  0  0  0  0  0
   18.4971   -3.1596  -23.6771 C   0  0  0  0  0  0  0  0  0  0  0  0
   18.7155   -3.8440  -22.5006 C   0  0  0  0  0  0  0  0  0  0  0  0
   20.6423   -7.1613  -19.8017 C   0  0  0  0  0  0  0  0  0  0  0  0
   19.7746   -7.6029  -18.9909 O   0  0  0  0  0  0  0  0  0  0  0  0
   21.9925   -7.2250  -19.3815 N   0  0  0  0  0  0  0  0  0  0  0  0
   22.3635   -7.7524  -18.1105 C   0  0  1  0  0  0  0  0  0  0  0  0
   23.4659   -8.7733  -18.1681 C   0  0  0  0  0  0  0  0  0  0  0  0
   23.9047   -9.2775  -16.8689 C   0  0  0  0  0  0  0  0  0  0  0  0
   23.1841  -10.2425  -16.1906 C   0  0  0  0  0  0  0  0  0  0  0  0
   23.5880  -10.7278  -14.9604 C   0  0  0  0  0  0  0  0  0  0  0  0
   24.7350  -10.2683  -14.3504 C   0  0  0  0  0  0  0  0  0  0  0  0
   25.4640   -9.3058  -15.0150 C   0  0  0  0  0  0  0  0  0  0  0  0
   25.0540   -8.8166  -16.2586 C   0  0  0  0  0  0  0  0  0  0  0  0
   22.6974   -6.6787  -17.1325 C   0  0  0  0  0  0  0  0  0  0  0  0
   23.6794   -5.9294  -17.3653 O   0  0  0  0  0  0  0  0  0  0  0  0
   19.9462   -4.8459  -14.5075 C   0  0  0  0  0  0  0  0  0  0  0  0
   21.2714   -4.3104  -14.9928 C   0  0  2  0  0  0  0  0  0  0  0  0
   21.1861   -3.6122  -16.3118 C   0  0  0  0  0  0  0  0  0  0  0  0
   22.2763   -5.4398  -14.9721 C   0  0  2  0  0  0  0  0  0  0  0  0
   21.9589   -6.4615  -15.9495 N   0  0  0  0  0  0  0  0  0  0  0  0
   22.3300   -6.0240  -13.6087 C   0  0  0  0  0  0  0  0  0  0  0  0
   23.0163   -5.3416  -12.6190 O   0  0  0  0  0  0  0  0  0  0  0  0
   21.7914   -7.0988  -13.2979 O   0  0  0  0  0  0  0  0  0  0  0  0
  2  1  1  1
  3  4  1  0
  3  2  1  0
  4  9  2  0
  5  6  2  0
  5  4  1  0
  6  7  1  0
  7  8  2  0
  9  8  1  0
 10  2  1  0
 10 11  2  0
 12 10  1  0
 13 12  1  0
 13 21  1  0
 13 14  1  6
 15 14  1  0
 15 16  2  0
 17 16  1  0
 18 17  2  0
 19 20  2  0
 19 18  1  0
 20 15  1  0
 21 22  2  0
 21 27  1  0
 24 23  1  6
 24 25  1  0
 24 26  1  0
 26 28  1  0
 26 27  1  6
 28 30  2  0
 28 29  1  0
M  END
$$$$
