FFV.pdb
     RDKit          3D

 30 31  0  0  1  0  0  0  0  0999 V2000
   28.1265  -21.1736  -17.6846 N   0  0  0  0  0  0  0  0  0  0  0  0
   27.9734  -20.1151  -16.7045 C   0  0  1  0  0  0  0  0  0  0  0  0
   27.1530  -18.9976  -17.3591 C   0  0  0  0  0  0  0  0  0  0  0  0
   28.0021  -18.0285  -18.0539 C   0  0  0  0  0  0  0  0  0  0  0  0
   28.5566  -16.9815  -17.3671 C   0  0  0  0  0  0  0  0  0  0  0  0
   29.3442  -16.0884  -18.0285 C   0  0  0  0  0  0  0  0  0  0  0  0
   29.6027  -16.2032  -19.3694 C   0  0  0  0  0  0  0  0  0  0  0  0
   29.0525  -17.2491  -20.0704 C   0  0  0  0  0  0  0  0  0  0  0  0
   28.2566  -18.1487  -19.3940 C   0  0  0  0  0  0  0  0  0  0  0  0
   27.1005  -20.6417  -15.5969 C   0  0  0  0  0  0  0  0  0  0  0  0
   26.3000  -21.6037  -15.7940 O   0  0  0  0  0  0  0  0  0  0  0  0
   27.1266  -20.0966  -14.2908 N   0  0  0  0  0  0  0  0  0  0  0  0
   26.2662  -20.5699  -13.2578 C   0  0  1  0  0  0  0  0  0  0  0  0
   26.6871  -20.1607  -11.8736 C   0  0  0  0  0  0  0  0  0  0  0  0
   25.7654  -20.5532  -10.8101 C   0  0  0  0  0  0  0  0  0  0  0  0
   24.6465  -19.7981  -10.5123 C   0  0  0  0  0  0  0  0  0  0  0  0
   23.7666  -20.1579   -9.5082 C   0  0  0  0  0  0  0  0  0  0  0  0
   23.9663  -21.2933   -8.7535 C   0  0  0  0  0  0  0  0  0  0  0  0
   25.0780  -22.0565   -9.0389 C   0  0  0  0  0  0  0  0  0  0  0  0
   25.9663  -21.6910  -10.0545 C   0  0  0  0  0  0  0  0  0  0  0  0
   24.8425  -20.2026  -13.5002 C   0  0  0  0  0  0  0  0  0  0  0  0
   24.5317  -18.9863  -13.5642 O   0  0  0  0  0  0  0  0  0  0  0  0
   20.4588  -21.3883  -15.2541 C   0  0  0  0  0  0  0  0  0  0  0  0
   21.9674  -21.3374  -15.2606 C   0  0  2  0  0  0  0  0  0  0  0  0
   22.6064  -22.6269  -15.6647 C   0  0  0  0  0  0  0  0  0  0  0  0
   22.4313  -20.8305  -13.9139 C   0  0  2  0  0  0  0  0  0  0  0  0
   23.8196  -21.1614  -13.6625 N   0  0  0  0  0  0  0  0  0  0  0  0
   21.5621  -21.3949  -12.8511 C   0  0  0  0  0  0  0  0  0  0  0  0
   21.9613  -22.5561  -12.2120 O   0  0  0  0  0  0  0  0  0  0  0  0
   20.4875  -20.8839  -12.4963 O   0  0  0  0  0  0  0  0  0  0  0  0
  2  1  1  6
  3  4  1  0
  3  2  1  0
  4  9  2  0
  5  6  2  0
  5  4  1  0
  6  7  1  0
  7  8  2  0
  9  8  1  0
 10  2  1  0
 10 11  2  0
 12 10  1  0
 13 12  1  0
 13 21  1  0
 13 14  1  1
 15 14  1  0
 15 16  2  0
 17 16  1  0
 18 17  2  0
 19 20  2  0
 19 18  1  0
 20 15  1  0
 21 22  2  0
 21 27  1  0
 24 23  1  1
 24 25  1  0
 24 26  1  0
 26 28  1  0
 26 27  1  1
 28 30  2  0
 28 29  1  0
M  END
$$$$
