FFV.pdb
     RDKit          3D

 30 31  0  0  1  0  0  0  0  0999 V2000
   31.5163  -33.2931  -20.6955 N   0  0  0  0  0  0  0  0  0  0  0  0
   30.1917  -32.7026  -20.7313 C   0  0  1  0  0  0  0  0  0  0  0  0
   29.2914  -33.6417  -21.5426 C   0  0  0  0  0  0  0  0  0  0  0  0
   29.4642  -33.4575  -22.9844 C   0  0  0  0  0  0  0  0  0  0  0  0
   30.1721  -34.3736  -23.7160 C   0  0  0  0  0  0  0  0  0  0  0  0
   30.3238  -34.1874  -25.0567 C   0  0  0  0  0  0  0  0  0  0  0  0
   29.7873  -33.1051  -25.7040 C   0  0  0  0  0  0  0  0  0  0  0  0
   29.0747  -32.1784  -24.9818 C   0  0  0  0  0  0  0  0  0  0  0  0
   28.9257  -32.3739  -23.6254 C   0  0  0  0  0  0  0  0  0  0  0  0
   29.6365  -32.7426  -19.3327 C   0  0  0  0  0  0  0  0  0  0  0  0
   29.9059  -33.6995  -18.5473 O   0  0  0  0  0  0  0  0  0  0  0  0
   28.7932  -31.7249  -18.8256 N   0  0  0  0  0  0  0  0  0  0  0  0
   28.2733  -31.7666  -17.4993 C   0  0  1  0  0  0  0  0  0  0  0  0
   28.9199  -30.7902  -16.5562 C   0  0  0  0  0  0  0  0  0  0  0  0
   30.3707  -30.9180  -16.4393 C   0  0  0  0  0  0  0  0  0  0  0  0
   30.9457  -31.8899  -15.6421 C   0  0  0  0  0  0  0  0  0  0  0  0
   32.3170  -32.0213  -15.5222 C   0  0  0  0  0  0  0  0  0  0  0  0
   33.1786  -31.1837  -16.1965 C   0  0  0  0  0  0  0  0  0  0  0  0
   32.6197  -30.2095  -16.9954 C   0  0  0  0  0  0  0  0  0  0  0  0
   31.2332  -30.0783  -17.1152 C   0  0  0  0  0  0  0  0  0  0  0  0
   26.7911  -31.6148  -17.4719 C   0  0  0  0  0  0  0  0  0  0  0  0
   26.2516  -30.7826  -18.2440 O   0  0  0  0  0  0  0  0  0  0  0  0
   22.2966  -33.1633  -16.8112 C   0  0  0  0  0  0  0  0  0  0  0  0
   23.7712  -33.3899  -17.0412 C   0  0  2  0  0  0  0  0  0  0  0  0
   24.2679  -34.6891  -16.4936 C   0  0  0  0  0  0  0  0  0  0  0  0
   24.5237  -32.1877  -16.5178 C   0  0  2  0  0  0  0  0  0  0  0  0
   25.9586  -32.3659  -16.6147 N   0  0  0  0  0  0  0  0  0  0  0  0
   24.1257  -31.9340  -15.1104 C   0  0  0  0  0  0  0  0  0  0  0  0
   23.0025  -31.1629  -14.8653 O   0  0  0  0  0  0  0  0  0  0  0  0
   24.7448  -32.3758  -14.1290 O   0  0  0  0  0  0  0  0  0  0  0  0
  2  1  1  1
  3  4  1  0
  3  2  1  0
  4  9  2  0
  5  6  2  0
  5  4  1  0
  6  7  1  0
  7  8  2  0
  9  8  1  0
 10  2  1  0
 10 11  2  0
 12 10  1  0
 13 12  1  0
 13 21  1  0
 13 14  1  1
 15 14  1  0
 15 16  2  0
 17 16  1  0
 18 17  2  0
 19 20  2  0
 19 18  1  0
 20 15  1  0
 21 22  2  0
 21 27  1  0
 24 23  1  1
 24 25  1  0
 24 26  1  0
 26 28  1  0
 26 27  1  1
 28 30  2  0
 28 29  1  0
M  END
$$$$
