FFV.pdb
     RDKit          3D

 30 31  0  0  1  0  0  0  0  0999 V2000
   29.1303  -21.6053  -16.5305 N   0  0  0  0  0  0  0  0  0  0  0  0
   28.5115  -20.4268  -15.9536 C   0  0  1  0  0  0  0  0  0  0  0  0
   27.6396  -19.7868  -17.0403 C   0  0  0  0  0  0  0  0  0  0  0  0
   28.2822  -18.6167  -17.6408 C   0  0  0  0  0  0  0  0  0  0  0  0
   28.1154  -17.3771  -17.0830 C   0  0  0  0  0  0  0  0  0  0  0  0
   28.7201  -16.2985  -17.6542 C   0  0  0  0  0  0  0  0  0  0  0  0
   29.4963  -16.4127  -18.7778 C   0  0  0  0  0  0  0  0  0  0  0  0
   29.6719  -17.6507  -19.3476 C   0  0  0  0  0  0  0  0  0  0  0  0
   29.0567  -18.7374  -18.7636 C   0  0  0  0  0  0  0  0  0  0  0  0
   27.5422  -20.8903  -14.8993 C   0  0  0  0  0  0  0  0  0  0  0  0
   26.9673  -22.0160  -14.9864 O   0  0  0  0  0  0  0  0  0  0  0  0
   27.2244  -20.1026  -13.7669 N   0  0  0  0  0  0  0  0  0  0  0  0
   26.3161  -20.5526  -12.7650 C   0  0  1  0  0  0  0  0  0  0  0  0
   26.5829  -19.9880  -11.3972 C   0  0  0  0  0  0  0  0  0  0  0  0
   25.6210  -20.3838  -10.3710 C   0  0  0  0  0  0  0  0  0  0  0  0
   25.9328  -21.3400   -9.4228 C   0  0  0  0  0  0  0  0  0  0  0  0
   25.0317  -21.7240   -8.4468 C   0  0  0  0  0  0  0  0  0  0  0  0
   23.7733  -21.1671   -8.3745 C   0  0  0  0  0  0  0  0  0  0  0  0
   23.4481  -20.2121   -9.3136 C   0  0  0  0  0  0  0  0  0  0  0  0
   24.3605  -19.8253  -10.2994 C   0  0  0  0  0  0  0  0  0  0  0  0
   24.8950  -20.3289  -13.1538 C   0  0  0  0  0  0  0  0  0  0  0  0
   24.5049  -19.1556  -13.3799 O   0  0  0  0  0  0  0  0  0  0  0  0
   22.2533  -23.5544  -14.2509 C   0  0  0  0  0  0  0  0  0  0  0  0
   22.1953  -22.1495  -14.7998 C   0  0  2  0  0  0  0  0  0  0  0  0
   22.9866  -21.9659  -16.0547 C   0  0  0  0  0  0  0  0  0  0  0  0
   22.5842  -21.1921  -13.6962 C   0  0  2  0  0  0  0  0  0  0  0  0
   23.9600  -21.3784  -13.2810 N   0  0  0  0  0  0  0  0  0  0  0  0
   21.6651  -21.3713  -12.5445 C   0  0  0  0  0  0  0  0  0  0  0  0
   20.3845  -20.8526  -12.6282 O   0  0  0  0  0  0  0  0  0  0  0  0
   21.9778  -21.9644  -11.4994 O   0  0  0  0  0  0  0  0  0  0  0  0
  2  1  1  6
  3  4  1  0
  3  2  1  0
  4  9  2  0
  5  6  2  0
  5  4  1  0
  6  7  1  0
  7  8  2  0
  9  8  1  0
 10  2  1  0
 10 11  2  0
 12 10  1  0
 13 12  1  0
 13 21  1  0
 13 14  1  1
 15 14  1  0
 15 16  2  0
 17 16  1  0
 18 17  2  0
 19 20  2  0
 19 18  1  0
 20 15  1  0
 21 22  2  0
 21 27  1  0
 24 23  1  1
 24 25  1  0
 24 26  1  0
 26 28  1  0
 26 27  1  1
 28 30  2  0
 28 29  1  0
M  END
$$$$
