FFV.pdb
     RDKit          3D

 30 31  0  0  1  0  0  0  0  0999 V2000
   23.3987   -5.9215  -20.3910 N   0  0  0  0  0  0  0  0  0  0  0  0
   22.0178   -5.8665  -19.9498 C   0  0  1  0  0  0  0  0  0  0  0  0
   21.2164   -6.8373  -20.8249 C   0  0  0  0  0  0  0  0  0  0  0  0
   20.8860   -6.2570  -22.1274 C   0  0  0  0  0  0  0  0  0  0  0  0
   21.5243   -6.6932  -23.2578 C   0  0  0  0  0  0  0  0  0  0  0  0
   21.2052   -6.1427  -24.4622 C   0  0  0  0  0  0  0  0  0  0  0  0
   20.2591   -5.1586  -24.5820 C   0  0  0  0  0  0  0  0  0  0  0  0
   19.6111   -4.7117  -23.4557 C   0  0  0  0  0  0  0  0  0  0  0  0
   19.9396   -5.2738  -22.2406 C   0  0  0  0  0  0  0  0  0  0  0  0
   21.9581   -6.4512  -18.5640 C   0  0  0  0  0  0  0  0  0  0  0  0
   22.6610   -7.4559  -18.2452 O   0  0  0  0  0  0  0  0  0  0  0  0
   21.1230   -5.9162  -17.5539 N   0  0  0  0  0  0  0  0  0  0  0  0
   21.1696   -6.3852  -16.2089 C   0  0  1  0  0  0  0  0  0  0  0  0
   21.7682   -5.4053  -15.2381 C   0  0  0  0  0  0  0  0  0  0  0  0
   23.0273   -4.8033  -15.6707 C   0  0  0  0  0  0  0  0  0  0  0  0
   23.0950   -3.4793  -16.0619 C   0  0  0  0  0  0  0  0  0  0  0  0
   24.2799   -2.8976  -16.4740 C   0  0  0  0  0  0  0  0  0  0  0  0
   25.4550   -3.6161  -16.5136 C   0  0  0  0  0  0  0  0  0  0  0  0
   25.4029   -4.9378  -16.1263 C   0  0  0  0  0  0  0  0  0  0  0  0
   24.2041   -5.5240  -15.7101 C   0  0  0  0  0  0  0  0  0  0  0  0
   19.8368   -6.8474  -15.7286 C   0  0  0  0  0  0  0  0  0  0  0  0
   18.8572   -6.0639  -15.8090 O   0  0  0  0  0  0  0  0  0  0  0  0
   18.5431  -10.4805  -16.2419 C   0  0  0  0  0  0  0  0  0  0  0  0
   18.1969  -10.0959  -14.8239 C   0  0  2  0  0  0  0  0  0  0  0  0
   16.8677  -10.6105  -14.3735 C   0  0  0  0  0  0  0  0  0  0  0  0
   18.3401   -8.5969  -14.6900 C   0  0  2  0  0  0  0  0  0  0  0  0
   19.6204   -8.1314  -15.1841 N   0  0  0  0  0  0  0  0  0  0  0  0
   18.1611   -8.2119  -13.2676 C   0  0  0  0  0  0  0  0  0  0  0  0
   16.8759   -8.0836  -12.7697 O   0  0  0  0  0  0  0  0  0  0  0  0
   19.1035   -7.9955  -12.4886 O   0  0  0  0  0  0  0  0  0  0  0  0
  2  1  1  6
  3  4  1  0
  3  2  1  0
  4  9  2  0
  5  6  2  0
  5  4  1  0
  6  7  1  0
  7  8  2  0
  9  8  1  0
 10  2  1  0
 10 11  2  0
 12 10  1  0
 13 12  1  0
 13 21  1  0
 13 14  1  1
 15 14  1  0
 15 16  2  0
 17 16  1  0
 18 17  2  0
 19 20  2  0
 19 18  1  0
 20 15  1  0
 21 22  2  0
 21 27  1  0
 24 23  1  6
 24 25  1  0
 24 26  1  0
 26 28  1  0
 26 27  1  1
 28 30  2  0
 28 29  1  0
M  END
$$$$
