FFV.pdb
     RDKit          3D

 30 31  0  0  1  0  0  0  0  0999 V2000
   33.2365  -28.6736  -17.9269 N   0  0  0  0  0  0  0  0  0  0  0  0
   32.2928  -29.4837  -18.6737 C   0  0  1  0  0  0  0  0  0  0  0  0
   32.9062  -30.8804  -18.8268 C   0  0  0  0  0  0  0  0  0  0  0  0
   33.8781  -30.9361  -19.9200 C   0  0  0  0  0  0  0  0  0  0  0  0
   35.2178  -31.0151  -19.6472 C   0  0  0  0  0  0  0  0  0  0  0  0
   36.1091  -31.0660  -20.6760 C   0  0  0  0  0  0  0  0  0  0  0  0
   35.7071  -31.0406  -21.9858 C   0  0  0  0  0  0  0  0  0  0  0  0
   34.3658  -30.9615  -22.2734 C   0  0  0  0  0  0  0  0  0  0  0  0
   33.4701  -30.9104  -21.2269 C   0  0  0  0  0  0  0  0  0  0  0  0
   31.0783  -29.6844  -17.8073 C   0  0  0  0  0  0  0  0  0  0  0  0
   31.1032  -29.4132  -16.5700 O   0  0  0  0  0  0  0  0  0  0  0  0
   29.8570  -30.1813  -18.3225 N   0  0  0  0  0  0  0  0  0  0  0  0
   28.6633  -30.2051  -17.5442 C   0  0  1  0  0  0  0  0  0  0  0  0
   27.6474  -29.1727  -17.9476 C   0  0  0  0  0  0  0  0  0  0  0  0
   28.1339  -27.7950  -17.9365 C   0  0  0  0  0  0  0  0  0  0  0  0
   28.0352  -27.0060  -16.8058 C   0  0  0  0  0  0  0  0  0  0  0  0
   28.4910  -25.7007  -16.7820 C   0  0  0  0  0  0  0  0  0  0  0  0
   29.0683  -25.1232  -17.8919 C   0  0  0  0  0  0  0  0  0  0  0  0
   29.1735  -25.8979  -19.0270 C   0  0  0  0  0  0  0  0  0  0  0  0
   28.7121  -27.2172  -19.0490 C   0  0  0  0  0  0  0  0  0  0  0  0
   28.0439  -31.5599  -17.5070 C   0  0  0  0  0  0  0  0  0  0  0  0
   27.9811  -32.2282  -18.5697 O   0  0  0  0  0  0  0  0  0  0  0  0
   25.3349  -33.7609  -14.4305 C   0  0  0  0  0  0  0  0  0  0  0  0
   26.7796  -33.9307  -14.8337 C   0  0  2  0  0  0  0  0  0  0  0  0
   27.7429  -33.2924  -13.8855 C   0  0  0  0  0  0  0  0  0  0  0  0
   26.9335  -33.4555  -16.2606 C   0  0  2  0  0  0  0  0  0  0  0  0
   27.5209  -32.1324  -16.3277 N   0  0  0  0  0  0  0  0  0  0  0  0
   25.6078  -33.4697  -16.9283 C   0  0  0  0  0  0  0  0  0  0  0  0
   25.1260  -34.6685  -17.4252 O   0  0  0  0  0  0  0  0  0  0  0  0
   24.8969  -32.4616  -17.0700 O   0  0  0  0  0  0  0  0  0  0  0  0
  2  1  1  1
  3  4  1  0
  3  2  1  0
  4  9  2  0
  5  6  2  0
  5  4  1  0
  6  7  1  0
  7  8  2  0
  9  8  1  0
 10  2  1  0
 10 11  2  0
 12 10  1  0
 13 12  1  0
 13 21  1  0
 13 14  1  6
 15 14  1  0
 15 16  2  0
 17 16  1  0
 18 17  2  0
 19 20  2  0
 19 18  1  0
 20 15  1  0
 21 22  2  0
 21 27  1  0
 24 23  1  1
 24 25  1  0
 24 26  1  0
 26 28  1  0
 26 27  1  1
 28 30  2  0
 28 29  1  0
M  END
$$$$
