FFV.pdb
     RDKit          3D

 30 31  0  0  1  0  0  0  0  0999 V2000
   25.3351  -18.1271  -16.3415 N   0  0  0  0  0  0  0  0  0  0  0  0
   26.2032  -18.5817  -15.2718 C   0  0  1  0  0  0  0  0  0  0  0  0
   27.2109  -17.4612  -14.9900 C   0  0  0  0  0  0  0  0  0  0  0  0
   28.2437  -17.3792  -16.0241 C   0  0  0  0  0  0  0  0  0  0  0  0
   28.2284  -16.3549  -16.9331 C   0  0  0  0  0  0  0  0  0  0  0  0
   29.1966  -16.2932  -17.8892 C   0  0  0  0  0  0  0  0  0  0  0  0
   30.1940  -17.2293  -17.9729 C   0  0  0  0  0  0  0  0  0  0  0  0
   30.2210  -18.2621  -17.0671 C   0  0  0  0  0  0  0  0  0  0  0  0
   29.2377  -18.3177  -16.1026 C   0  0  0  0  0  0  0  0  0  0  0  0
   25.3717  -18.6815  -14.0209 C   0  0  0  0  0  0  0  0  0  0  0  0
   24.5708  -17.7572  -13.6902 O   0  0  0  0  0  0  0  0  0  0  0  0
   25.4392  -19.8006  -13.1566 N   0  0  0  0  0  0  0  0  0  0  0  0
   24.5613  -19.9490  -12.0437 C   0  0  1  0  0  0  0  0  0  0  0  0
   23.2179  -20.5259  -12.3950 C   0  0  0  0  0  0  0  0  0  0  0  0
   22.2812  -20.6256  -11.2781 C   0  0  0  0  0  0  0  0  0  0  0  0
   22.1576  -21.7904  -10.5442 C   0  0  0  0  0  0  0  0  0  0  0  0
   21.2747  -21.8982   -9.4855 C   0  0  0  0  0  0  0  0  0  0  0  0
   20.4724  -20.8422   -9.1113 C   0  0  0  0  0  0  0  0  0  0  0  0
   20.5847  -19.6740   -9.8340 C   0  0  0  0  0  0  0  0  0  0  0  0
   21.4778  -19.5671  -10.9040 C   0  0  0  0  0  0  0  0  0  0  0  0
   25.1869  -20.7218  -10.9338 C   0  0  0  0  0  0  0  0  0  0  0  0
   25.5671  -21.8997  -11.1530 O   0  0  0  0  0  0  0  0  0  0  0  0
   26.5570  -18.9006   -7.3371 C   0  0  0  0  0  0  0  0  0  0  0  0
   27.0661  -20.2203   -7.8641 C   0  0  2  0  0  0  0  0  0  0  0  0
   28.2698  -20.0885   -8.7406 C   0  0  0  0  0  0  0  0  0  0  0  0
   25.9149  -20.9435   -8.5254 C   0  0  2  0  0  0  0  0  0  0  0  0
   25.3743  -20.1910   -9.6395 N   0  0  0  0  0  0  0  0  0  0  0  0
   24.8586  -21.2100   -7.5172 C   0  0  0  0  0  0  0  0  0  0  0  0
   23.6119  -20.6343   -7.6917 O   0  0  0  0  0  0  0  0  0  0  0  0
   25.0263  -21.9252   -6.5161 O   0  0  0  0  0  0  0  0  0  0  0  0
  2  1  1  6
  3  4  1  0
  3  2  1  0
  4  9  2  0
  5  6  2  0
  5  4  1  0
  6  7  1  0
  7  8  2  0
  9  8  1  0
 10  2  1  0
 10 11  2  0
 12 10  1  0
 13 12  1  0
 13 21  1  0
 13 14  1  6
 15 14  1  0
 15 16  2  0
 17 16  1  0
 18 17  2  0
 19 20  2  0
 19 18  1  0
 20 15  1  0
 21 22  2  0
 21 27  1  0
 24 23  1  6
 24 25  1  0
 24 26  1  0
 26 28  1  0
 26 27  1  6
 28 30  2  0
 28 29  1  0
M  END
$$$$
