FFV.pdb
     RDKit          3D

 30 31  0  0  1  0  0  0  0  0999 V2000
   27.8356  -23.3159  -16.4213 N   0  0  0  0  0  0  0  0  0  0  0  0
   27.2289  -22.0003  -16.3473 C   0  0  1  0  0  0  0  0  0  0  0  0
   26.2403  -21.8837  -17.5134 C   0  0  0  0  0  0  0  0  0  0  0  0
   26.7029  -20.9405  -18.5328 C   0  0  0  0  0  0  0  0  0  0  0  0
   26.3621  -19.6166  -18.4516 C   0  0  0  0  0  0  0  0  0  0  0  0
   26.8006  -18.7520  -19.4084 C   0  0  0  0  0  0  0  0  0  0  0  0
   27.5780  -19.1656  -20.4584 C   0  0  0  0  0  0  0  0  0  0  0  0
   27.9272  -20.4913  -20.5518 C   0  0  0  0  0  0  0  0  0  0  0  0
   27.4795  -21.3600  -19.5797 C   0  0  0  0  0  0  0  0  0  0  0  0
   26.3756  -21.9604  -15.1079 C   0  0  0  0  0  0  0  0  0  0  0  0
   25.8252  -23.0085  -14.6566 O   0  0  0  0  0  0  0  0  0  0  0  0
   26.1450  -20.7635  -14.3880 N   0  0  0  0  0  0  0  0  0  0  0  0
   25.4618  -20.7546  -13.1373 C   0  0  1  0  0  0  0  0  0  0  0  0
   26.1246  -19.9127  -12.0824 C   0  0  0  0  0  0  0  0  0  0  0  0
   27.4265  -20.4018  -11.6345 C   0  0  0  0  0  0  0  0  0  0  0  0
   27.5865  -20.9897  -10.3938 C   0  0  0  0  0  0  0  0  0  0  0  0
   28.8129  -21.4562   -9.9576 C   0  0  0  0  0  0  0  0  0  0  0  0
   29.9391  -21.3555  -10.7452 C   0  0  0  0  0  0  0  0  0  0  0  0
   29.7949  -20.7713  -11.9852 C   0  0  0  0  0  0  0  0  0  0  0  0
   28.5542  -20.3004  -12.4243 C   0  0  0  0  0  0  0  0  0  0  0  0
   24.0281  -20.3750  -13.2830 C   0  0  0  0  0  0  0  0  0  0  0  0
   23.7442  -19.2324  -13.7233 O   0  0  0  0  0  0  0  0  0  0  0  0
   19.5539  -21.6923  -14.4463 C   0  0  0  0  0  0  0  0  0  0  0  0
   21.0014  -22.0315  -14.1855 C   0  0  2  0  0  0  0  0  0  0  0  0
   21.2087  -23.4301  -13.7005 C   0  0  0  0  0  0  0  0  0  0  0  0
   21.5763  -20.9815  -13.2621 C   0  0  2  0  0  0  0  0  0  0  0  0
   22.9667  -21.2429  -12.9481 N   0  0  0  0  0  0  0  0  0  0  0  0
   20.7654  -20.9231  -12.0202 C   0  0  0  0  0  0  0  0  0  0  0  0
   21.3205  -21.3886  -10.8406 O   0  0  0  0  0  0  0  0  0  0  0  0
   19.6074  -20.4775  -11.9738 O   0  0  0  0  0  0  0  0  0  0  0  0
  2  1  1  6
  3  4  1  0
  3  2  1  0
  4  9  2  0
  5  6  2  0
  5  4  1  0
  6  7  1  0
  7  8  2  0
  9  8  1  0
 10  2  1  0
 10 11  2  0
 12 10  1  0
 13 12  1  0
 13 21  1  0
 13 14  1  1
 15 14  1  0
 15 16  2  0
 17 16  1  0
 18 17  2  0
 19 20  2  0
 19 18  1  0
 20 15  1  0
 21 22  2  0
 21 27  1  0
 24 23  1  1
 24 25  1  0
 24 26  1  0
 26 28  1  0
 26 27  1  1
 28 30  2  0
 28 29  1  0
M  END
$$$$
