WPK.pdb
     RDKit          3D

 31 33  0  0  1  0  0  0  0  0999 V2000
   14.6876  -18.9690    5.1524 N   0  0  0  0  0  0  0  0  0  0  0  0
   16.0816  -19.2166    5.4207 C   0  0  1  0  0  0  0  0  0  0  0  0
   16.8880  -18.5718    4.3243 C   0  0  0  0  0  0  0  0  0  0  0  0
   16.8739  -19.3205    3.0738 C   0  0  0  0  0  0  0  0  0  0  0  0
   16.0245  -20.3544    2.7613 C   0  0  0  0  0  0  0  0  0  0  0  0
   16.3263  -20.7765    1.5212 N   0  0  0  0  0  0  0  0  0  0  0  0
   17.3344  -20.0713    0.9991 C   0  0  0  0  0  0  0  0  0  0  0  0
   17.9870  -20.1256   -0.2144 C   0  0  0  0  0  0  0  0  0  0  0  0
   19.0162  -19.2574   -0.4945 C   0  0  0  0  0  0  0  0  0  0  0  0
   19.3817  -18.3327    0.4615 C   0  0  0  0  0  0  0  0  0  0  0  0
   18.7282  -18.2855    1.6639 C   0  0  0  0  0  0  0  0  0  0  0  0
   17.6892  -19.1414    1.9819 C   0  0  0  0  0  0  0  0  0  0  0  0
   16.5271  -18.8158    6.7681 C   0  0  0  0  0  0  0  0  0  0  0  0
   15.8712  -17.8995    7.3505 O   0  0  0  0  0  0  0  0  0  0  0  0
   17.6307  -19.3681    7.4729 N   0  0  0  0  0  0  0  0  0  0  0  0
   18.3759  -20.5586    7.1365 C   0  0  0  0  0  0  0  0  0  0  0  0
   19.2763  -20.8512    8.3322 C   0  0  0  0  0  0  0  0  0  0  0  0
   18.6275  -20.0238    9.4533 C   0  0  0  0  0  0  0  0  0  0  0  0
   18.2008  -18.8083    8.6666 C   0  0  1  0  0  0  0  0  0  0  0  0
   19.4008  -17.9837    8.4122 C   0  0  0  0  0  0  0  0  0  0  0  0
   20.1204  -18.3479    7.4297 O   0  0  0  0  0  0  0  0  0  0  0  0
   19.7791  -16.8667    9.1609 N   0  0  0  0  0  0  0  0  0  0  0  0
   21.0161  -16.0584    8.8036 C   0  0  1  0  0  0  0  0  0  0  0  0
   20.5628  -14.6693    8.8101 C   0  0  0  0  0  0  0  0  0  0  0  0
   21.3940  -13.5488    8.3431 C   0  0  0  0  0  0  0  0  0  0  0  0
   20.7580  -12.2231    8.4604 C   0  0  0  0  0  0  0  0  0  0  0  0
   21.7014  -11.0938    8.0314 C   0  0  0  0  0  0  0  0  0  0  0  0
   20.9997   -9.8455    8.3303 N   0  0  0  0  0  0  0  0  0  0  0  0
   22.1332  -16.5663    9.5254 C   0  0  0  0  0  0  0  0  0  0  0  0
   23.4741  -16.4776    9.2144 O   0  0  0  0  0  0  0  0  0  0  0  0
   21.9036  -17.2121   10.6178 O   0  0  0  0  0  0  0  0  0  0  0  0
  2  1  1  6
  2 13  1  0
  2  3  1  0
  3  4  1  0
  4  5  2  0
  5  6  1  0
  7  8  2  0
  7  6  1  0
  9  8  1  0
 10  9  2  0
 11 10  1  0
 11 12  2  0
 12  4  1  0
 12  7  1  0
 13 14  2  0
 13 15  1  0
 15 19  1  0
 15 16  1  0
 16 17  1  0
 18 17  1  0
 19 18  1  0
 19 20  1  6
 21 20  2  0
 22 20  1  0
 23 29  1  0
 23 22  1  0
 23 24  1  1
 25 24  1  0
 26 25  1  0
 27 26  1  0
 27 28  1  0
 29 30  1  0
 31 29  2  0
M  END
$$$$
