WPK.pdb
     RDKit          3D

 31 33  0  0  1  0  0  0  0  0999 V2000
   23.7863  -20.3432  -11.6129 N   0  0  0  0  0  0  0  0  0  0  0  0
   25.1992  -20.3840  -11.8932 C   0  0  1  0  0  0  0  0  0  0  0  0
   25.8251  -21.4058  -10.9809 C   0  0  0  0  0  0  0  0  0  0  0  0
   26.0162  -20.9290   -9.6168 C   0  0  0  0  0  0  0  0  0  0  0  0
   25.0220  -20.5509   -8.7470 C   0  0  0  0  0  0  0  0  0  0  0  0
   25.6024  -20.1782   -7.5931 N   0  0  0  0  0  0  0  0  0  0  0  0
   26.9323  -20.2919   -7.6586 C   0  0  0  0  0  0  0  0  0  0  0  0
   27.9408  -20.0375   -6.7532 C   0  0  0  0  0  0  0  0  0  0  0  0
   29.2564  -20.2488   -7.0940 C   0  0  0  0  0  0  0  0  0  0  0  0
   29.5461  -20.7196   -8.3577 C   0  0  0  0  0  0  0  0  0  0  0  0
   28.5385  -20.9697   -9.2506 C   0  0  0  0  0  0  0  0  0  0  0  0
   27.2044  -20.7696   -8.9447 C   0  0  0  0  0  0  0  0  0  0  0  0
   25.5365  -20.6028  -13.3120 C   0  0  0  0  0  0  0  0  0  0  0  0
   24.6142  -21.0286  -14.0715 O   0  0  0  0  0  0  0  0  0  0  0  0
   26.8088  -20.3779  -13.9040 N   0  0  0  0  0  0  0  0  0  0  0  0
   28.0548  -20.1107  -13.2242 C   0  0  0  0  0  0  0  0  0  0  0  0
   29.0499  -19.6966  -14.3031 C   0  0  0  0  0  0  0  0  0  0  0  0
   28.1354  -19.3347  -15.4843 C   0  0  0  0  0  0  0  0  0  0  0  0
   27.0655  -20.3863  -15.3173 C   0  0  1  0  0  0  0  0  0  0  0  0
   27.6068  -21.6715  -15.8071 C   0  0  0  0  0  0  0  0  0  0  0  0
   28.4486  -22.2408  -15.0434 O   0  0  0  0  0  0  0  0  0  0  0  0
   27.2613  -22.2774  -17.0175 N   0  0  0  0  0  0  0  0  0  0  0  0
   27.4568  -23.7688  -17.2383 C   0  0  1  0  0  0  0  0  0  0  0  0
   26.1055  -24.3245  -17.2163 C   0  0  0  0  0  0  0  0  0  0  0  0
   25.8269  -25.7673  -17.2864 C   0  0  0  0  0  0  0  0  0  0  0  0
   24.3949  -26.1181  -17.2431 C   0  0  0  0  0  0  0  0  0  0  0  0
   24.1722  -27.5685  -16.8004 C   0  0  0  0  0  0  0  0  0  0  0  0
   23.8352  -27.5098  -15.3781 N   0  0  0  0  0  0  0  0  0  0  0  0
   28.4155  -23.9685  -18.2716 C   0  0  0  0  0  0  0  0  0  0  0  0
   29.1357  -25.1059  -18.5723 O   0  0  0  0  0  0  0  0  0  0  0  0
   28.6840  -22.9736  -19.0470 O   0  0  0  0  0  0  0  0  0  0  0  0
  2  1  1  6
  2 13  1  0
  2  3  1  0
  3  4  1  0
  4  5  2  0
  5  6  1  0
  7  8  2  0
  7  6  1  0
  9  8  1  0
 10  9  2  0
 11 10  1  0
 11 12  2  0
 12  4  1  0
 12  7  1  0
 13 14  2  0
 13 15  1  0
 15 19  1  0
 15 16  1  0
 16 17  1  0
 18 17  1  0
 19 18  1  0
 19 20  1  1
 21 20  2  0
 22 20  1  0
 23 29  1  0
 23 22  1  0
 23 24  1  6
 25 24  1  0
 26 25  1  0
 27 26  1  0
 27 28  1  0
 29 30  1  0
 31 29  2  0
M  END
$$$$
