WPK.pdb
     RDKit          3D

 31 33  0  0  1  0  0  0  0  0999 V2000
   26.2805  -20.8310  -17.4700 N   0  0  0  0  0  0  0  0  0  0  0  0
   26.8534  -20.0653  -16.3921 C   0  0  1  0  0  0  0  0  0  0  0  0
   26.1779  -18.7194  -16.3672 C   0  0  0  0  0  0  0  0  0  0  0  0
   26.1809  -18.0425  -17.6582 C   0  0  0  0  0  0  0  0  0  0  0  0
   25.0727  -17.7265  -18.4066 C   0  0  0  0  0  0  0  0  0  0  0  0
   25.4918  -17.1087  -19.5246 N   0  0  0  0  0  0  0  0  0  0  0  0
   26.8236  -17.0012  -19.5509 C   0  0  0  0  0  0  0  0  0  0  0  0
   27.7026  -16.4583  -20.4641 C   0  0  0  0  0  0  0  0  0  0  0  0
   29.0579  -16.4851  -20.2317 C   0  0  0  0  0  0  0  0  0  0  0  0
   29.5193  -17.0651  -19.0683 C   0  0  0  0  0  0  0  0  0  0  0  0
   28.6394  -17.6018  -18.1668 C   0  0  0  0  0  0  0  0  0  0  0  0
   27.2706  -17.5938  -18.3653 C   0  0  0  0  0  0  0  0  0  0  0  0
   26.8299  -20.7399  -15.0810 C   0  0  0  0  0  0  0  0  0  0  0  0
   26.0052  -21.6917  -14.9297 O   0  0  0  0  0  0  0  0  0  0  0  0
   27.6530  -20.4152  -13.9687 N   0  0  0  0  0  0  0  0  0  0  0  0
   28.6359  -19.3603  -13.8866 C   0  0  0  0  0  0  0  0  0  0  0  0
   29.4090  -19.5964  -12.5934 C   0  0  0  0  0  0  0  0  0  0  0  0
   29.0740  -21.0595  -12.2625 C   0  0  0  0  0  0  0  0  0  0  0  0
   27.6325  -21.1040  -12.7084 C   0  0  1  0  0  0  0  0  0  0  0  0
   26.8150  -20.4240  -11.6819 C   0  0  0  0  0  0  0  0  0  0  0  0
   26.7979  -19.1544  -11.7444 O   0  0  0  0  0  0  0  0  0  0  0  0
   26.0853  -21.0700  -10.6811 N   0  0  0  0  0  0  0  0  0  0  0  0
   24.6881  -20.6081  -10.2991 C   0  0  1  0  0  0  0  0  0  0  0  0
   23.8218  -21.1551  -11.3409 C   0  0  0  0  0  0  0  0  0  0  0  0
   22.3691  -20.9267  -11.3821 C   0  0  0  0  0  0  0  0  0  0  0  0
   21.6903  -21.5066  -12.5563 C   0  0  0  0  0  0  0  0  0  0  0  0
   20.1893  -21.1967  -12.5629 C   0  0  0  0  0  0  0  0  0  0  0  0
   19.6740  -21.7203  -13.8279 N   0  0  0  0  0  0  0  0  0  0  0  0
   24.5043  -20.7788   -8.8977 C   0  0  0  0  0  0  0  0  0  0  0  0
   23.7410  -20.0260   -8.0296 O   0  0  0  0  0  0  0  0  0  0  0  0
   25.1261  -21.7502   -8.3207 O   0  0  0  0  0  0  0  0  0  0  0  0
  2  1  1  6
  2 13  1  0
  2  3  1  0
  3  4  1  0
  4  5  2  0
  5  6  1  0
  7  8  2  0
  7  6  1  0
  9  8  1  0
 10  9  2  0
 11 10  1  0
 11 12  2  0
 12  4  1  0
 12  7  1  0
 13 14  2  0
 13 15  1  0
 15 19  1  0
 15 16  1  0
 16 17  1  0
 18 17  1  0
 19 18  1  0
 19 20  1  1
 21 20  2  0
 22 20  1  0
 23 29  1  0
 23 22  1  0
 23 24  1  6
 25 24  1  0
 26 25  1  0
 27 26  1  0
 27 28  1  0
 29 30  1  0
 31 29  2  0
M  END
$$$$
