WPK.pdb
     RDKit          3D

 31 33  0  0  1  0  0  0  0  0999 V2000
   23.6628  -20.2579  -11.7384 N   0  0  0  0  0  0  0  0  0  0  0  0
   25.0864  -20.2595  -11.9621 C   0  0  1  0  0  0  0  0  0  0  0  0
   25.7017  -21.2754  -11.0362 C   0  0  0  0  0  0  0  0  0  0  0  0
   25.9706  -20.7582   -9.7002 C   0  0  0  0  0  0  0  0  0  0  0  0
   25.0332  -20.2853   -8.8138 C   0  0  0  0  0  0  0  0  0  0  0  0
   25.6764  -19.9042   -7.6966 N   0  0  0  0  0  0  0  0  0  0  0  0
   26.9938  -20.1026   -7.8021 C   0  0  0  0  0  0  0  0  0  0  0  0
   28.0479  -19.8757   -6.9425 C   0  0  0  0  0  0  0  0  0  0  0  0
   29.3351  -20.1813   -7.3184 C   0  0  0  0  0  0  0  0  0  0  0  0
   29.5499  -20.7185   -8.5706 C   0  0  0  0  0  0  0  0  0  0  0  0
   28.4973  -20.9406   -9.4179 C   0  0  0  0  0  0  0  0  0  0  0  0
   27.1898  -20.6464   -9.0758 C   0  0  0  0  0  0  0  0  0  0  0  0
   25.4857  -20.4532  -13.3684 C   0  0  0  0  0  0  0  0  0  0  0  0
   24.5982  -20.8669  -14.1747 O   0  0  0  0  0  0  0  0  0  0  0  0
   26.7821  -20.2166  -13.9004 N   0  0  0  0  0  0  0  0  0  0  0  0
   27.9880  -19.9167  -13.1645 C   0  0  0  0  0  0  0  0  0  0  0  0
   29.0289  -19.5038  -14.1998 C   0  0  0  0  0  0  0  0  0  0  0  0
   28.1688  -19.1775  -15.4312 C   0  0  0  0  0  0  0  0  0  0  0  0
   27.1091  -20.2443  -15.2989 C   0  0  1  0  0  0  0  0  0  0  0  0
   27.6950  -21.5281  -15.7385 C   0  0  0  0  0  0  0  0  0  0  0  0
   28.2464  -22.2219  -14.8272 O   0  0  0  0  0  0  0  0  0  0  0  0
   27.6804  -22.0084  -17.0502 N   0  0  0  0  0  0  0  0  0  0  0  0
   26.9553  -23.2946  -17.4123 C   0  0  1  0  0  0  0  0  0  0  0  0
   25.7326  -23.2657  -16.6128 C   0  0  0  0  0  0  0  0  0  0  0  0
   24.6939  -24.3044  -16.6921 C   0  0  0  0  0  0  0  0  0  0  0  0
   25.0165  -25.5503  -15.9714 C   0  0  0  0  0  0  0  0  0  0  0  0
   23.9470  -26.6281  -16.1810 C   0  0  0  0  0  0  0  0  0  0  0  0
   24.4767  -27.8473  -15.5702 N   0  0  0  0  0  0  0  0  0  0  0  0
   27.0166  -23.4869  -18.8216 C   0  0  0  0  0  0  0  0  0  0  0  0
   26.6556  -22.6152  -19.8279 O   0  0  0  0  0  0  0  0  0  0  0  0
   27.4527  -24.6192  -19.2584 O   0  0  0  0  0  0  0  0  0  0  0  0
  2  1  1  6
  2 13  1  0
  2  3  1  0
  3  4  1  0
  4  5  2  0
  5  6  1  0
  7  8  2  0
  7  6  1  0
  9  8  1  0
 10  9  2  0
 11 10  1  0
 11 12  2  0
 12  4  1  0
 12  7  1  0
 13 14  2  0
 13 15  1  0
 15 19  1  0
 15 16  1  0
 16 17  1  0
 18 17  1  0
 19 18  1  0
 19 20  1  1
 21 20  2  0
 22 20  1  0
 23 29  1  0
 23 22  1  0
 23 24  1  6
 25 24  1  0
 26 25  1  0
 27 26  1  0
 27 28  1  0
 29 30  1  0
 31 29  2  0
M  END
$$$$
