WPK.pdb
     RDKit          3D

 31 33  0  0  1  0  0  0  0  0999 V2000
   25.7627  -19.7846  -12.0303 N   0  0  0  0  0  0  0  0  0  0  0  0
   25.0916  -20.9944  -11.6269 C   0  0  1  0  0  0  0  0  0  0  0  0
   25.3011  -21.1710  -10.1460 C   0  0  0  0  0  0  0  0  0  0  0  0
   26.7048  -21.2541   -9.7623 C   0  0  0  0  0  0  0  0  0  0  0  0
   27.7109  -21.8296  -10.5005 C   0  0  0  0  0  0  0  0  0  0  0  0
   28.8562  -21.7015   -9.8083 N   0  0  0  0  0  0  0  0  0  0  0  0
   28.6554  -21.0690   -8.6483 C   0  0  0  0  0  0  0  0  0  0  0  0
   29.4988  -20.7085   -7.6187 C   0  0  0  0  0  0  0  0  0  0  0  0
   29.0123  -20.0481   -6.5147 C   0  0  0  0  0  0  0  0  0  0  0  0
   27.6658  -19.7542   -6.4584 C   0  0  0  0  0  0  0  0  0  0  0  0
   26.8353  -20.1158   -7.4853 C   0  0  0  0  0  0  0  0  0  0  0  0
   27.2872  -20.7805   -8.6110 C   0  0  0  0  0  0  0  0  0  0  0  0
   23.6707  -21.0659  -12.0149 C   0  0  0  0  0  0  0  0  0  0  0  0
   22.8678  -20.2727  -11.4361 O   0  0  0  0  0  0  0  0  0  0  0  0
   23.1210  -21.9489  -12.9833 N   0  0  0  0  0  0  0  0  0  0  0  0
   23.8338  -22.8987  -13.8053 C   0  0  0  0  0  0  0  0  0  0  0  0
   22.8332  -23.4046  -14.8391 C   0  0  0  0  0  0  0  0  0  0  0  0
   21.7243  -22.3417  -14.7836 C   0  0  0  0  0  0  0  0  0  0  0  0
   21.7239  -22.0426  -13.3040 C   0  0  1  0  0  0  0  0  0  0  0  0
   21.0372  -23.1540  -12.6129 C   0  0  0  0  0  0  0  0  0  0  0  0
   21.6005  -24.2900  -12.7032 O   0  0  0  0  0  0  0  0  0  0  0  0
   19.8468  -23.0357  -11.8914 N   0  0  0  0  0  0  0  0  0  0  0  0
   19.2575  -24.2188  -11.1403 C   0  0  1  0  0  0  0  0  0  0  0  0
   18.7087  -23.6410   -9.9155 C   0  0  0  0  0  0  0  0  0  0  0  0
   18.0586  -24.4432   -8.8676 C   0  0  0  0  0  0  0  0  0  0  0  0
   17.5199  -23.6588   -7.7406 C   0  0  0  0  0  0  0  0  0  0  0  0
   16.8069  -24.5451   -6.7132 C   0  0  0  0  0  0  0  0  0  0  0  0
   16.3937  -23.6546   -5.6287 N   0  0  0  0  0  0  0  0  0  0  0  0
   18.5462  -25.0473  -12.0538 C   0  0  0  0  0  0  0  0  0  0  0  0
   18.3453  -26.4112  -12.0049 O   0  0  0  0  0  0  0  0  0  0  0  0
   18.0112  -24.4886  -13.0856 O   0  0  0  0  0  0  0  0  0  0  0  0
  2  1  1  1
  2 13  1  0
  2  3  1  0
  3  4  1  0
  4  5  2  0
  5  6  1  0
  7  8  2  0
  7  6  1  0
  9  8  1  0
 10  9  2  0
 11 10  1  0
 11 12  2  0
 12  4  1  0
 12  7  1  0
 13 14  2  0
 13 15  1  0
 15 19  1  0
 15 16  1  0
 16 17  1  0
 18 17  1  0
 19 18  1  0
 19 20  1  1
 21 20  2  0
 22 20  1  0
 23 29  1  0
 23 22  1  0
 23 24  1  1
 25 24  1  0
 26 25  1  0
 27 26  1  0
 27 28  1  0
 29 30  1  0
 31 29  2  0
M  END
$$$$
