WPK.pdb
     RDKit          3D

 31 33  0  0  1  0  0  0  0  0999 V2000
   27.4721  -20.4964  -16.6559 N   0  0  0  0  0  0  0  0  0  0  0  0
   27.1800  -19.9924  -15.3379 C   0  0  1  0  0  0  0  0  0  0  0  0
   26.5518  -18.6320  -15.4887 C   0  0  0  0  0  0  0  0  0  0  0  0
   27.2561  -17.7661  -16.4261 C   0  0  0  0  0  0  0  0  0  0  0  0
   26.6735  -16.8907  -17.3106 C   0  0  0  0  0  0  0  0  0  0  0  0
   27.6562  -16.2783  -17.9936 N   0  0  0  0  0  0  0  0  0  0  0  0
   28.8603  -16.7069  -17.6029 C   0  0  0  0  0  0  0  0  0  0  0  0
   30.1426  -16.3861  -17.9956 C   0  0  0  0  0  0  0  0  0  0  0  0
   31.2268  -16.9966  -17.4097 C   0  0  0  0  0  0  0  0  0  0  0  0
   31.0059  -17.9348  -16.4230 C   0  0  0  0  0  0  0  0  0  0  0  0
   29.7292  -18.2474  -16.0391 C   0  0  0  0  0  0  0  0  0  0  0  0
   28.6144  -17.6551  -16.6045 C   0  0  0  0  0  0  0  0  0  0  0  0
   26.3783  -20.9013  -14.4978 C   0  0  0  0  0  0  0  0  0  0  0  0
   25.9564  -21.9706  -15.0340 O   0  0  0  0  0  0  0  0  0  0  0  0
   26.0357  -20.6826  -13.1359 N   0  0  0  0  0  0  0  0  0  0  0  0
   26.4597  -19.5899  -12.2921 C   0  0  0  0  0  0  0  0  0  0  0  0
   26.0311  -19.9536  -10.8744 C   0  0  0  0  0  0  0  0  0  0  0  0
   25.7792  -21.4665  -10.9760 C   0  0  0  0  0  0  0  0  0  0  0  0
   25.1820  -21.5389  -12.3604 C   0  0  1  0  0  0  0  0  0  0  0  0
   23.7861  -21.0595  -12.2821 C   0  0  0  0  0  0  0  0  0  0  0  0
   23.6300  -19.8018  -12.3795 O   0  0  0  0  0  0  0  0  0  0  0  0
   22.6662  -21.8773  -12.1129 N   0  0  0  0  0  0  0  0  0  0  0  0
   21.3079  -21.4816  -12.6694 C   0  0  1  0  0  0  0  0  0  0  0  0
   20.7624  -22.7187  -13.2235 C   0  0  0  0  0  0  0  0  0  0  0  0
   19.4392  -22.8007  -13.8613 C   0  0  0  0  0  0  0  0  0  0  0  0
   19.1255  -24.1136  -14.4560 C   0  0  0  0  0  0  0  0  0  0  0  0
   17.7016  -24.1624  -15.0211 C   0  0  0  0  0  0  0  0  0  0  0  0
   17.5579  -25.4794  -15.6414 N   0  0  0  0  0  0  0  0  0  0  0  0
   20.6479  -20.6325  -11.7365 C   0  0  0  0  0  0  0  0  0  0  0  0
   19.6075  -19.7537  -11.9557 O   0  0  0  0  0  0  0  0  0  0  0  0
   21.0539  -20.6487  -10.5126 O   0  0  0  0  0  0  0  0  0  0  0  0
  2  1  1  6
  2 13  1  0
  2  3  1  0
  3  4  1  0
  4  5  2  0
  5  6  1  0
  7  8  2  0
  7  6  1  0
  9  8  1  0
 10  9  2  0
 11 10  1  0
 11 12  2  0
 12  4  1  0
 12  7  1  0
 13 14  2  0
 13 15  1  0
 15 19  1  0
 15 16  1  0
 16 17  1  0
 18 17  1  0
 19 18  1  0
 19 20  1  1
 21 20  2  0
 22 20  1  0
 23 29  1  0
 23 22  1  0
 23 24  1  1
 25 24  1  0
 26 25  1  0
 27 26  1  0
 27 28  1  0
 29 30  1  0
 31 29  2  0
M  END
$$$$
