WPK.pdb
     RDKit          3D

 31 33  0  0  1  0  0  0  0  0999 V2000
   16.5203  -12.6839  -14.1267 N   0  0  0  0  0  0  0  0  0  0  0  0
   16.1255  -11.3881  -14.6183 C   0  0  1  0  0  0  0  0  0  0  0  0
   14.6271  -11.2853  -14.5075 C   0  0  0  0  0  0  0  0  0  0  0  0
   13.9138  -12.0933  -15.4888 C   0  0  0  0  0  0  0  0  0  0  0  0
   14.3645  -13.2622  -16.0532 C   0  0  0  0  0  0  0  0  0  0  0  0
   13.4205  -13.7011  -16.9039 N   0  0  0  0  0  0  0  0  0  0  0  0
   12.3677  -12.8783  -16.9287 C   0  0  0  0  0  0  0  0  0  0  0  0
   11.1779  -12.8989  -17.6254 C   0  0  0  0  0  0  0  0  0  0  0  0
   10.2495  -11.8988  -17.4538 C   0  0  0  0  0  0  0  0  0  0  0  0
   10.5322  -10.8765  -16.5720 C   0  0  0  0  0  0  0  0  0  0  0  0
   11.7161  -10.8638  -15.8841 C   0  0  0  0  0  0  0  0  0  0  0  0
   12.6738  -11.8512  -16.0300 C   0  0  0  0  0  0  0  0  0  0  0  0
   16.8238  -10.2537  -13.9858 C   0  0  0  0  0  0  0  0  0  0  0  0
   17.1715  -10.3861  -12.7731 O   0  0  0  0  0  0  0  0  0  0  0  0
   17.1415   -9.0213  -14.6182 N   0  0  0  0  0  0  0  0  0  0  0  0
   16.9078   -8.6601  -15.9969 C   0  0  0  0  0  0  0  0  0  0  0  0
   17.6518   -7.3488  -16.2270 C   0  0  0  0  0  0  0  0  0  0  0  0
   18.6301   -7.3037  -15.0423 C   0  0  0  0  0  0  0  0  0  0  0  0
   17.7606   -7.9026  -13.9635 C   0  0  1  0  0  0  0  0  0  0  0  0
   16.7959   -6.8709  -13.5282 C   0  0  0  0  0  0  0  0  0  0  0  0
   15.8020   -6.6868  -14.2990 O   0  0  0  0  0  0  0  0  0  0  0  0
   16.9069   -6.1115  -12.3609 N   0  0  0  0  0  0  0  0  0  0  0  0
   15.8394   -5.1017  -11.9711 C   0  0  1  0  0  0  0  0  0  0  0  0
   15.6451   -5.3064  -10.5373 C   0  0  0  0  0  0  0  0  0  0  0  0
   14.7481   -4.4752   -9.7196 C   0  0  0  0  0  0  0  0  0  0  0  0
   14.6923   -4.8521   -8.2946 C   0  0  0  0  0  0  0  0  0  0  0  0
   13.6513   -4.0324   -7.5242 C   0  0  0  0  0  0  0  0  0  0  0  0
   13.7355   -4.4771   -6.1331 N   0  0  0  0  0  0  0  0  0  0  0  0
   16.1222   -3.8547  -12.5968 C   0  0  0  0  0  0  0  0  0  0  0  0
   15.2503   -2.8387  -12.9291 O   0  0  0  0  0  0  0  0  0  0  0  0
   17.3448   -3.6060  -12.9231 O   0  0  0  0  0  0  0  0  0  0  0  0
  2  1  1  1
  2 13  1  0
  2  3  1  0
  3  4  1  0
  4  5  2  0
  5  6  1  0
  7  8  2  0
  7  6  1  0
  9  8  1  0
 10  9  2  0
 11 10  1  0
 11 12  2  0
 12  4  1  0
 12  7  1  0
 13 14  2  0
 13 15  1  0
 15 19  1  0
 15 16  1  0
 16 17  1  0
 18 17  1  0
 19 18  1  0
 19 20  1  6
 21 20  2  0
 22 20  1  0
 23 29  1  0
 23 22  1  0
 23 24  1  1
 25 24  1  0
 26 25  1  0
 27 26  1  0
 27 28  1  0
 29 30  1  0
 31 29  2  0
M  END
$$$$
