WPK.pdb
     RDKit          3D

 31 33  0  0  1  0  0  0  0  0999 V2000
   22.1695  -21.5122  -13.9190 N   0  0  0  0  0  0  0  0  0  0  0  0
   21.7782  -20.8785  -12.6853 C   0  0  1  0  0  0  0  0  0  0  0  0
   20.5271  -20.0822  -12.9478 C   0  0  0  0  0  0  0  0  0  0  0  0
   20.5432  -19.3760  -14.2228 C   0  0  0  0  0  0  0  0  0  0  0  0
   21.4616  -18.4304  -14.6105 C   0  0  0  0  0  0  0  0  0  0  0  0
   21.1356  -18.0213  -15.8490 N   0  0  0  0  0  0  0  0  0  0  0  0
   20.0460  -18.6513  -16.2983 C   0  0  0  0  0  0  0  0  0  0  0  0
   19.3408  -18.5770  -17.4809 C   0  0  0  0  0  0  0  0  0  0  0  0
   18.2281  -19.3599  -17.6820 C   0  0  0  0  0  0  0  0  0  0  0  0
   17.8326  -20.2197  -16.6785 C   0  0  0  0  0  0  0  0  0  0  0  0
   18.5388  -20.2872  -15.5073 C   0  0  0  0  0  0  0  0  0  0  0  0
   19.6621  -19.5162  -15.2683 C   0  0  0  0  0  0  0  0  0  0  0  0
   21.6399  -21.7980  -11.5408 C   0  0  0  0  0  0  0  0  0  0  0  0
   21.5413  -23.0365  -11.7966 O   0  0  0  0  0  0  0  0  0  0  0  0
   21.6068  -21.4163  -10.1722 N   0  0  0  0  0  0  0  0  0  0  0  0
   21.5871  -20.0743   -9.6389 C   0  0  0  0  0  0  0  0  0  0  0  0
   21.8103  -20.2084   -8.1362 C   0  0  0  0  0  0  0  0  0  0  0  0
   22.3881  -21.6268   -8.0063 C   0  0  0  0  0  0  0  0  0  0  0  0
   21.5818  -22.3347   -9.0681 C   0  0  1  0  0  0  0  0  0  0  0  0
   20.2248  -22.5694   -8.5314 C   0  0  0  0  0  0  0  0  0  0  0  0
   19.4070  -21.6051   -8.6624 O   0  0  0  0  0  0  0  0  0  0  0  0
   19.8013  -23.7466   -7.9099 N   0  0  0  0  0  0  0  0  0  0  0  0
   18.3333  -23.9921   -7.6000 C   0  0  1  0  0  0  0  0  0  0  0  0
   17.9669  -25.1344   -8.4343 C   0  0  0  0  0  0  0  0  0  0  0  0
   16.6155  -25.7152   -8.4559 C   0  0  0  0  0  0  0  0  0  0  0  0
   15.8226  -25.3790   -9.6534 C   0  0  0  0  0  0  0  0  0  0  0  0
   14.4460  -26.0527   -9.6383 C   0  0  0  0  0  0  0  0  0  0  0  0
   13.7311  -25.5377  -10.8060 N   0  0  0  0  0  0  0  0  0  0  0  0
   18.1280  -23.8959   -6.1945 C   0  0  0  0  0  0  0  0  0  0  0  0
   16.9702  -23.5880   -5.5108 O   0  0  0  0  0  0  0  0  0  0  0  0
   19.1377  -24.1074   -5.4206 O   0  0  0  0  0  0  0  0  0  0  0  0
  2  1  1  6
  2 13  1  0
  2  3  1  0
  3  4  1  0
  4  5  2  0
  5  6  1  0
  7  8  2  0
  7  6  1  0
  9  8  1  0
 10  9  2  0
 11 10  1  0
 11 12  2  0
 12  4  1  0
 12  7  1  0
 13 14  2  0
 13 15  1  0
 15 19  1  0
 15 16  1  0
 16 17  1  0
 18 17  1  0
 19 18  1  0
 19 20  1  1
 21 20  2  0
 22 20  1  0
 23 29  1  0
 23 22  1  0
 23 24  1  1
 25 24  1  0
 26 25  1  0
 27 26  1  0
 27 28  1  0
 29 30  1  0
 31 29  2  0
M  END
$$$$
