WPK.pdb
     RDKit          3D

 31 33  0  0  1  0  0  0  0  0999 V2000
   24.4375  -19.4196   -9.2836 N   0  0  0  0  0  0  0  0  0  0  0  0
   25.7517  -19.7200   -9.7929 C   0  0  1  0  0  0  0  0  0  0  0  0
   26.2169  -21.0015   -9.1528 C   0  0  0  0  0  0  0  0  0  0  0  0
   26.2822  -20.9355   -7.6982 C   0  0  0  0  0  0  0  0  0  0  0  0
   25.2920  -21.3213   -6.8272 C   0  0  0  0  0  0  0  0  0  0  0  0
   25.7357  -21.1074   -5.5763 N   0  0  0  0  0  0  0  0  0  0  0  0
   26.9715  -20.5987   -5.5789 C   0  0  0  0  0  0  0  0  0  0  0  0
   27.8316  -20.2199   -4.5698 C   0  0  0  0  0  0  0  0  0  0  0  0
   29.0765  -19.7151   -4.8647 C   0  0  0  0  0  0  0  0  0  0  0  0
   29.4467  -19.5957   -6.1881 C   0  0  0  0  0  0  0  0  0  0  0  0
   28.5864  -19.9744   -7.1839 C   0  0  0  0  0  0  0  0  0  0  0  0
   27.3272  -20.4860   -6.9269 C   0  0  0  0  0  0  0  0  0  0  0  0
   25.8470  -19.7495  -11.2641 C   0  0  0  0  0  0  0  0  0  0  0  0
   24.7622  -19.7008  -11.9197 O   0  0  0  0  0  0  0  0  0  0  0  0
   27.0519  -19.8283  -12.0137 N   0  0  0  0  0  0  0  0  0  0  0  0
   28.3859  -20.0453  -11.5045 C   0  0  0  0  0  0  0  0  0  0  0  0
   29.3349  -19.7922  -12.6712 C   0  0  0  0  0  0  0  0  0  0  0  0
   28.4554  -19.0066  -13.6570 C   0  0  0  0  0  0  0  0  0  0  0  0
   27.1350  -19.7058  -13.4425 C   0  0  1  0  0  0  0  0  0  0  0  0
   27.1880  -21.0076  -14.1403 C   0  0  0  0  0  0  0  0  0  0  0  0
   27.8169  -21.9314  -13.5344 O   0  0  0  0  0  0  0  0  0  0  0  0
   26.6091  -21.2749  -15.3832 N   0  0  0  0  0  0  0  0  0  0  0  0
   26.2414  -22.6914  -15.7951 C   0  0  1  0  0  0  0  0  0  0  0  0
   24.8285  -22.6138  -16.1598 C   0  0  0  0  0  0  0  0  0  0  0  0
   23.9957  -23.8000  -16.4120 C   0  0  0  0  0  0  0  0  0  0  0  0
   22.5896  -23.5026  -16.7439 C   0  0  0  0  0  0  0  0  0  0  0  0
   21.7597  -24.7787  -16.9228 C   0  0  0  0  0  0  0  0  0  0  0  0
   20.4048  -24.3367  -17.2527 N   0  0  0  0  0  0  0  0  0  0  0  0
   27.2774  -23.2263  -16.6121 C   0  0  0  0  0  0  0  0  0  0  0  0
   27.5515  -24.5464  -16.9036 O   0  0  0  0  0  0  0  0  0  0  0  0
   28.0989  -22.3997  -17.1644 O   0  0  0  0  0  0  0  0  0  0  0  0
  2  1  1  6
  2 13  1  0
  2  3  1  0
  3  4  1  0
  4  5  2  0
  5  6  1  0
  7  8  2  0
  7  6  1  0
  9  8  1  0
 10  9  2  0
 11 10  1  0
 11 12  2  0
 12  4  1  0
 12  7  1  0
 13 14  2  0
 13 15  1  0
 15 19  1  0
 15 16  1  0
 16 17  1  0
 18 17  1  0
 19 18  1  0
 19 20  1  6
 21 20  2  0
 22 20  1  0
 23 29  1  0
 23 22  1  0
 23 24  1  6
 25 24  1  0
 26 25  1  0
 27 26  1  0
 27 28  1  0
 29 30  1  0
 31 29  2  0
M  END
$$$$
