WPK.pdb
     RDKit          3D

 31 33  0  0  1  0  0  0  0  0999 V2000
   28.2878  -23.5063  -17.4125 N   0  0  0  0  0  0  0  0  0  0  0  0
   27.4576  -22.3336  -17.3027 C   0  0  1  0  0  0  0  0  0  0  0  0
   26.3730  -22.4324  -18.3429 C   0  0  0  0  0  0  0  0  0  0  0  0
   26.6933  -21.7412  -19.5857 C   0  0  0  0  0  0  0  0  0  0  0  0
   27.4100  -22.2606  -20.6367 C   0  0  0  0  0  0  0  0  0  0  0  0
   27.4862  -21.3168  -21.5911 N   0  0  0  0  0  0  0  0  0  0  0  0
   26.8543  -20.1988  -21.2212 C   0  0  0  0  0  0  0  0  0  0  0  0
   26.6590  -18.9831  -21.8419 C   0  0  0  0  0  0  0  0  0  0  0  0
   25.9516  -17.9837  -21.2155 C   0  0  0  0  0  0  0  0  0  0  0  0
   25.4422  -18.2218  -19.9559 C   0  0  0  0  0  0  0  0  0  0  0  0
   25.6408  -19.4320  -19.3469 C   0  0  0  0  0  0  0  0  0  0  0  0
   26.3463  -20.4607  -19.9445 C   0  0  0  0  0  0  0  0  0  0  0  0
   26.9291  -22.0811  -15.9494 C   0  0  0  0  0  0  0  0  0  0  0  0
   26.7046  -23.0897  -15.2136 O   0  0  0  0  0  0  0  0  0  0  0  0
   26.6482  -20.8024  -15.3962 N   0  0  0  0  0  0  0  0  0  0  0  0
   26.8251  -19.5171  -16.0306 C   0  0  0  0  0  0  0  0  0  0  0  0
   26.6239  -18.4708  -14.9395 C   0  0  0  0  0  0  0  0  0  0  0  0
   26.7842  -19.2926  -13.6505 C   0  0  0  0  0  0  0  0  0  0  0  0
   26.1222  -20.5799  -14.0782 C   0  0  1  0  0  0  0  0  0  0  0  0
   24.6592  -20.3705  -14.0586 C   0  0  0  0  0  0  0  0  0  0  0  0
   24.1579  -19.8899  -15.1233 O   0  0  0  0  0  0  0  0  0  0  0  0
   23.8228  -20.6585  -12.9774 N   0  0  0  0  0  0  0  0  0  0  0  0
   22.3216  -20.8150  -13.1600 C   0  0  1  0  0  0  0  0  0  0  0  0
   21.8970  -21.6373  -12.0292 C   0  0  0  0  0  0  0  0  0  0  0  0
   20.5461  -22.2078  -11.9108 C   0  0  0  0  0  0  0  0  0  0  0  0
   20.3637  -23.1193  -10.7656 C   0  0  0  0  0  0  0  0  0  0  0  0
   18.9585  -23.7306  -10.7365 C   0  0  0  0  0  0  0  0  0  0  0  0
   18.9372  -24.6407   -9.5914 N   0  0  0  0  0  0  0  0  0  0  0  0
   21.7599  -19.5588  -13.5251 C   0  0  0  0  0  0  0  0  0  0  0  0
   20.7637  -19.2928  -14.4414 O   0  0  0  0  0  0  0  0  0  0  0  0
   22.2242  -18.5003  -12.9533 O   0  0  0  0  0  0  0  0  0  0  0  0
  2  1  1  1
  2 13  1  0
  2  3  1  0
  3  4  1  0
  4  5  2  0
  5  6  1  0
  7  8  2  0
  7  6  1  0
  9  8  1  0
 10  9  2  0
 11 10  1  0
 11 12  2  0
 12  4  1  0
 12  7  1  0
 13 14  2  0
 13 15  1  0
 15 19  1  0
 15 16  1  0
 16 17  1  0
 18 17  1  0
 19 18  1  0
 19 20  1  6
 21 20  2  0
 22 20  1  0
 23 29  1  0
 23 22  1  0
 23 24  1  1
 25 24  1  0
 26 25  1  0
 27 26  1  0
 27 28  1  0
 29 30  1  0
 31 29  2  0
M  END
$$$$
