WPK.pdb
     RDKit          3D

 31 33  0  0  1  0  0  0  0  0999 V2000
   27.4252  -20.1215  -17.1223 N   0  0  0  0  0  0  0  0  0  0  0  0
   27.8826  -19.6669  -15.8336 C   0  0  1  0  0  0  0  0  0  0  0  0
   27.3413  -18.2794  -15.6107 C   0  0  0  0  0  0  0  0  0  0  0  0
   27.7564  -17.3219  -16.6283 C   0  0  0  0  0  0  0  0  0  0  0  0
   26.9225  -16.6241  -17.4684 C   0  0  0  0  0  0  0  0  0  0  0  0
   27.6857  -15.8457  -18.2551 N   0  0  0  0  0  0  0  0  0  0  0  0
   28.9838  -15.9955  -17.9751 C   0  0  0  0  0  0  0  0  0  0  0  0
   30.1270  -15.4274  -18.4965 C   0  0  0  0  0  0  0  0  0  0  0  0
   31.3652  -15.7725  -18.0072 C   0  0  0  0  0  0  0  0  0  0  0  0
   31.4402  -16.6969  -16.9862 C   0  0  0  0  0  0  0  0  0  0  0  0
   30.2999  -17.2561  -16.4742 C   0  0  0  0  0  0  0  0  0  0  0  0
   29.0377  -16.9345  -16.9398 C   0  0  0  0  0  0  0  0  0  0  0  0
   27.5815  -20.5831  -14.7180 C   0  0  0  0  0  0  0  0  0  0  0  0
   26.6815  -21.4567  -14.9078 O   0  0  0  0  0  0  0  0  0  0  0  0
   28.2131  -20.5722  -13.4449 N   0  0  0  0  0  0  0  0  0  0  0  0
   29.3083  -19.7324  -13.0193 C   0  0  0  0  0  0  0  0  0  0  0  0
   29.7727  -20.2843  -11.6755 C   0  0  0  0  0  0  0  0  0  0  0  0
   29.1649  -21.6960  -11.6626 C   0  0  0  0  0  0  0  0  0  0  0  0
   27.8467  -21.4185  -12.3436 C   0  0  1  0  0  0  0  0  0  0  0  0
   26.9573  -20.7564  -11.3663 C   0  0  0  0  0  0  0  0  0  0  0  0
   27.1450  -19.5092  -11.2084 O   0  0  0  0  0  0  0  0  0  0  0  0
   25.9575  -21.3969  -10.6304 N   0  0  0  0  0  0  0  0  0  0  0  0
   24.7233  -20.6469  -10.1553 C   0  0  1  0  0  0  0  0  0  0  0  0
   23.6950  -20.9671  -11.1428 C   0  0  0  0  0  0  0  0  0  0  0  0
   22.3270  -20.4294  -11.0841 C   0  0  0  0  0  0  0  0  0  0  0  0
   21.4295  -20.9192  -12.1473 C   0  0  0  0  0  0  0  0  0  0  0  0
   20.0084  -20.3644  -11.9998 C   0  0  0  0  0  0  0  0  0  0  0  0
   19.2612  -20.8534  -13.1585 N   0  0  0  0  0  0  0  0  0  0  0  0
   24.5928  -20.8032   -8.7462 C   0  0  0  0  0  0  0  0  0  0  0  0
   25.3349  -21.5936   -7.8934 O   0  0  0  0  0  0  0  0  0  0  0  0
   23.6603  -20.1423   -8.1489 O   0  0  0  0  0  0  0  0  0  0  0  0
  2  1  1  6
  2 13  1  0
  2  3  1  0
  3  4  1  0
  4  5  2  0
  5  6  1  0
  7  8  2  0
  7  6  1  0
  9  8  1  0
 10  9  2  0
 11 10  1  0
 11 12  2  0
 12  4  1  0
 12  7  1  0
 13 14  2  0
 13 15  1  0
 15 19  1  0
 15 16  1  0
 16 17  1  0
 18 17  1  0
 19 18  1  0
 19 20  1  1
 21 20  2  0
 22 20  1  0
 23 29  1  0
 23 22  1  0
 23 24  1  6
 25 24  1  0
 26 25  1  0
 27 26  1  0
 27 28  1  0
 29 30  1  0
 31 29  2  0
M  END
$$$$
