WPK.pdb
     RDKit          3D

 31 33  0  0  1  0  0  0  0  0999 V2000
   27.0223  -20.1998  -17.0058 N   0  0  0  0  0  0  0  0  0  0  0  0
   27.4847  -19.7145  -15.7301 C   0  0  1  0  0  0  0  0  0  0  0  0
   26.9147  -18.3361  -15.5223 C   0  0  0  0  0  0  0  0  0  0  0  0
   27.2142  -17.4122  -16.6091 C   0  0  0  0  0  0  0  0  0  0  0  0
   26.3011  -16.6442  -17.2907 C   0  0  0  0  0  0  0  0  0  0  0  0
   26.9692  -15.9285  -18.2120 N   0  0  0  0  0  0  0  0  0  0  0  0
   28.2798  -16.1865  -18.1719 C   0  0  0  0  0  0  0  0  0  0  0  0
   29.3513  -15.7129  -18.8992 C   0  0  0  0  0  0  0  0  0  0  0  0
   30.6254  -16.1614  -18.6402 C   0  0  0  0  0  0  0  0  0  0  0  0
   30.8094  -17.0930  -17.6397 C   0  0  0  0  0  0  0  0  0  0  0  0
   29.7397  -17.5579  -16.9222 C   0  0  0  0  0  0  0  0  0  0  0  0
   28.4445  -17.1309  -17.1533 C   0  0  0  0  0  0  0  0  0  0  0  0
   27.2179  -20.6194  -14.5967 C   0  0  0  0  0  0  0  0  0  0  0  0
   26.3834  -21.5563  -14.7827 O   0  0  0  0  0  0  0  0  0  0  0  0
   27.8158  -20.5326  -13.3103 N   0  0  0  0  0  0  0  0  0  0  0  0
   28.8011  -19.5743  -12.8668 C   0  0  0  0  0  0  0  0  0  0  0  0
   29.2936  -20.0650  -11.5094 C   0  0  0  0  0  0  0  0  0  0  0  0
   28.8463  -21.5355  -11.4998 C   0  0  0  0  0  0  0  0  0  0  0  0
   27.5210  -21.4093  -12.2113 C   0  0  1  0  0  0  0  0  0  0  0  0
   26.5419  -20.8458  -11.2582 C   0  0  0  0  0  0  0  0  0  0  0  0
   26.6658  -19.6051  -11.0113 O   0  0  0  0  0  0  0  0  0  0  0  0
   25.5237  -21.5699  -10.6333 N   0  0  0  0  0  0  0  0  0  0  0  0
   24.1892  -20.9250  -10.2948 C   0  0  1  0  0  0  0  0  0  0  0  0
   23.2046  -21.6996  -11.0470 C   0  0  0  0  0  0  0  0  0  0  0  0
   21.7589  -21.4330  -10.9933 C   0  0  0  0  0  0  0  0  0  0  0  0
   20.9231  -22.4468  -11.6638 C   0  0  0  0  0  0  0  0  0  0  0  0
   19.4268  -22.1702  -11.4799 C   0  0  0  0  0  0  0  0  0  0  0  0
   18.7292  -23.1537  -12.3082 N   0  0  0  0  0  0  0  0  0  0  0  0
   24.1380  -20.6583   -8.8973 C   0  0  0  0  0  0  0  0  0  0  0  0
   23.3825  -19.7202   -8.2251 O   0  0  0  0  0  0  0  0  0  0  0  0
   24.8923  -21.3589   -8.1206 O   0  0  0  0  0  0  0  0  0  0  0  0
  2  1  1  6
  2 13  1  0
  2  3  1  0
  3  4  1  0
  4  5  2  0
  5  6  1  0
  7  8  2  0
  7  6  1  0
  9  8  1  0
 10  9  2  0
 11 10  1  0
 11 12  2  0
 12  4  1  0
 12  7  1  0
 13 14  2  0
 13 15  1  0
 15 19  1  0
 15 16  1  0
 16 17  1  0
 18 17  1  0
 19 18  1  0
 19 20  1  1
 21 20  2  0
 22 20  1  0
 23 29  1  0
 23 22  1  0
 23 24  1  1
 25 24  1  0
 26 25  1  0
 27 26  1  0
 27 28  1  0
 29 30  1  0
 31 29  2  0
M  END
$$$$
