WPK.pdb
     RDKit          3D

 31 33  0  0  1  0  0  0  0  0999 V2000
   25.5027  -18.9615   -9.4081 N   0  0  0  0  0  0  0  0  0  0  0  0
   25.2068  -20.1330  -10.1934 C   0  0  1  0  0  0  0  0  0  0  0  0
   25.8156  -21.3235   -9.5004 C   0  0  0  0  0  0  0  0  0  0  0  0
   27.1990  -21.1148   -9.0917 C   0  0  0  0  0  0  0  0  0  0  0  0
   28.3137  -21.3779   -9.8509 C   0  0  0  0  0  0  0  0  0  0  0  0
   29.3957  -21.0503   -9.1234 N   0  0  0  0  0  0  0  0  0  0  0  0
   29.0496  -20.5833   -7.9200 C   0  0  0  0  0  0  0  0  0  0  0  0
   29.7829  -20.1288   -6.8443 C   0  0  0  0  0  0  0  0  0  0  0  0
   29.1527  -19.6956   -5.7012 C   0  0  0  0  0  0  0  0  0  0  0  0
   27.7745  -19.7249   -5.6527 C   0  0  0  0  0  0  0  0  0  0  0  0
   27.0541  -20.1777   -6.7256 C   0  0  0  0  0  0  0  0  0  0  0  0
   27.6517  -20.6211   -7.8915 C   0  0  0  0  0  0  0  0  0  0  0  0
   23.7766  -20.3206  -10.4997 C   0  0  0  0  0  0  0  0  0  0  0  0
   22.9733  -20.3784   -9.5197 O   0  0  0  0  0  0  0  0  0  0  0  0
   23.2183  -20.4431  -11.8008 N   0  0  0  0  0  0  0  0  0  0  0  0
   23.9188  -20.7392  -13.0286 C   0  0  0  0  0  0  0  0  0  0  0  0
   22.9194  -20.5076  -14.1572 C   0  0  0  0  0  0  0  0  0  0  0  0
   21.8351  -19.6558  -13.4780 C   0  0  0  0  0  0  0  0  0  0  0  0
   21.8235  -20.2920  -12.1091 C   0  0  1  0  0  0  0  0  0  0  0  0
   21.1025  -21.5784  -12.2087 C   0  0  0  0  0  0  0  0  0  0  0  0
   21.7121  -22.5040  -12.8311 O   0  0  0  0  0  0  0  0  0  0  0  0
   19.8347  -21.8296  -11.6786 N   0  0  0  0  0  0  0  0  0  0  0  0
   19.2115  -23.2148  -11.7441 C   0  0  1  0  0  0  0  0  0  0  0  0
   18.5047  -23.3610  -10.4736 C   0  0  0  0  0  0  0  0  0  0  0  0
   19.1451  -23.8662   -9.2493 C   0  0  0  0  0  0  0  0  0  0  0  0
   18.2858  -23.8367   -8.0508 C   0  0  0  0  0  0  0  0  0  0  0  0
   19.0173  -24.3532   -6.8069 C   0  0  0  0  0  0  0  0  0  0  0  0
   18.1145  -24.1179   -5.6802 N   0  0  0  0  0  0  0  0  0  0  0  0
   18.6421  -23.4126  -13.0338 C   0  0  0  0  0  0  0  0  0  0  0  0
   18.5404  -24.5796  -13.7623 O   0  0  0  0  0  0  0  0  0  0  0  0
   18.1540  -22.3859  -13.6427 O   0  0  0  0  0  0  0  0  0  0  0  0
  2  1  1  1
  2 13  1  0
  2  3  1  0
  3  4  1  0
  4  5  2  0
  5  6  1  0
  7  8  2  0
  7  6  1  0
  9  8  1  0
 10  9  2  0
 11 10  1  0
 11 12  2  0
 12  4  1  0
 12  7  1  0
 13 14  2  0
 13 15  1  0
 15 19  1  0
 15 16  1  0
 16 17  1  0
 18 17  1  0
 19 18  1  0
 19 20  1  6
 21 20  2  0
 22 20  1  0
 23 29  1  0
 23 22  1  0
 23 24  1  1
 25 24  1  0
 26 25  1  0
 27 26  1  0
 27 28  1  0
 29 30  1  0
 31 29  2  0
M  END
$$$$
