WPK.pdb
     RDKit          3D

 31 33  0  0  1  0  0  0  0  0999 V2000
   24.1050  -20.3383  -10.9255 N   0  0  0  0  0  0  0  0  0  0  0  0
   25.4569  -20.1216  -11.3747 C   0  0  1  0  0  0  0  0  0  0  0  0
   26.3740  -20.9339  -10.4989 C   0  0  0  0  0  0  0  0  0  0  0  0
   26.4374  -20.4580   -9.1226 C   0  0  0  0  0  0  0  0  0  0  0  0
   25.4583  -19.7514   -8.4667 C   0  0  0  0  0  0  0  0  0  0  0  0
   25.8936  -19.5027   -7.2194 N   0  0  0  0  0  0  0  0  0  0  0  0
   27.1133  -20.0110   -7.0194 C   0  0  0  0  0  0  0  0  0  0  0  0
   27.9597  -20.0169   -5.9308 C   0  0  0  0  0  0  0  0  0  0  0  0
   29.1888  -20.6297   -6.0038 C   0  0  0  0  0  0  0  0  0  0  0  0
   29.5570  -21.2374   -7.1861 C   0  0  0  0  0  0  0  0  0  0  0  0
   28.7103  -21.2270   -8.2622 C   0  0  0  0  0  0  0  0  0  0  0  0
   27.4672  -20.6213   -8.2272 C   0  0  0  0  0  0  0  0  0  0  0  0
   25.6725  -20.3700  -12.8122 C   0  0  0  0  0  0  0  0  0  0  0  0
   24.7016  -20.8493  -13.4730 O   0  0  0  0  0  0  0  0  0  0  0  0
   26.8769  -20.1190  -13.5237 N   0  0  0  0  0  0  0  0  0  0  0  0
   28.1684  -19.7894  -12.9678 C   0  0  0  0  0  0  0  0  0  0  0  0
   29.0460  -19.3730  -14.1435 C   0  0  0  0  0  0  0  0  0  0  0  0
   28.0158  -19.0774  -15.2452 C   0  0  0  0  0  0  0  0  0  0  0  0
   27.0049  -20.1599  -14.9538 C   0  0  1  0  0  0  0  0  0  0  0  0
   27.5467  -21.4394  -15.4575 C   0  0  0  0  0  0  0  0  0  0  0  0
   28.4967  -21.9403  -14.7775 O   0  0  0  0  0  0  0  0  0  0  0  0
   27.0935  -22.1085  -16.5970 N   0  0  0  0  0  0  0  0  0  0  0  0
   27.5000  -23.5452  -16.8834 C   0  0  1  0  0  0  0  0  0  0  0  0
   26.3596  -24.3453  -16.4426 C   0  0  0  0  0  0  0  0  0  0  0  0
   26.3324  -25.8146  -16.5107 C   0  0  0  0  0  0  0  0  0  0  0  0
   25.0735  -26.4268  -16.0457 C   0  0  0  0  0  0  0  0  0  0  0  0
   25.1110  -27.9563  -16.1369 C   0  0  0  0  0  0  0  0  0  0  0  0
   23.8762  -28.4289  -15.5108 N   0  0  0  0  0  0  0  0  0  0  0  0
   28.1096  -23.6130  -18.1682 C   0  0  0  0  0  0  0  0  0  0  0  0
   28.7829  -24.6676  -18.7490 O   0  0  0  0  0  0  0  0  0  0  0  0
   28.0573  -22.5651  -18.9179 O   0  0  0  0  0  0  0  0  0  0  0  0
  2  1  1  1
  2 13  1  0
  2  3  1  0
  3  4  1  0
  4  5  2  0
  5  6  1  0
  7  8  2  0
  7  6  1  0
  9  8  1  0
 10  9  2  0
 11 10  1  0
 11 12  2  0
 12  4  1  0
 12  7  1  0
 13 14  2  0
 13 15  1  0
 15 19  1  0
 15 16  1  0
 16 17  1  0
 18 17  1  0
 19 18  1  0
 19 20  1  1
 21 20  2  0
 22 20  1  0
 23 29  1  0
 23 22  1  0
 23 24  1  6
 25 24  1  0
 26 25  1  0
 27 26  1  0
 27 28  1  0
 29 30  1  0
 31 29  2  0
M  END
$$$$
