LFI.pdb
     RDKit          3D

 28 28  0  0  1  0  0  0  0  0999 V2000
   26.5174  -22.4729  -16.3199 C   0  0  0  0  0  0  0  0  0  0  0  0
   27.0926  -21.3176  -15.5016 C   0  0  1  0  0  0  0  0  0  0  0  0
   26.6301  -20.0503  -16.1455 C   0  0  0  0  0  0  0  0  0  0  0  0
   26.6191  -21.4781  -14.0770 C   0  0  0  0  0  0  0  0  0  0  0  0
   27.1701  -20.4227  -13.1567 C   0  0  2  0  0  0  0  0  0  0  0  0
   28.5132  -20.0321  -13.5350 N   0  0  0  0  0  0  0  0  0  0  0  0
   27.1375  -20.9751  -11.7768 C   0  0  0  0  0  0  0  0  0  0  0  0
   26.3964  -21.9555  -11.5126 O   0  0  0  0  0  0  0  0  0  0  0  0
   27.9239  -20.4371  -10.7072 N   0  0  0  0  0  0  0  0  0  0  0  0
   27.7103  -20.8290   -9.3273 C   0  0  1  0  0  0  0  0  0  0  0  0
   28.8446  -20.3046   -8.4727 C   0  0  0  0  0  0  0  0  0  0  0  0
   28.4318  -20.2202   -7.0493 C   0  0  0  0  0  0  0  0  0  0  0  0
   28.0527  -19.0346   -6.4896 C   0  0  0  0  0  0  0  0  0  0  0  0
   27.6766  -18.9918   -5.1718 C   0  0  0  0  0  0  0  0  0  0  0  0
   27.6643  -20.1092   -4.3759 C   0  0  0  0  0  0  0  0  0  0  0  0
   28.0462  -21.3114   -4.9338 C   0  0  0  0  0  0  0  0  0  0  0  0
   28.4245  -21.3522   -6.2607 C   0  0  0  0  0  0  0  0  0  0  0  0
   26.4001  -20.3273   -8.8903 C   0  0  0  0  0  0  0  0  0  0  0  0
   26.0689  -19.1030   -9.0577 O   0  0  0  0  0  0  0  0  0  0  0  0
   21.2932  -19.5670  -10.5300 C   0  0  0  0  0  0  0  0  0  0  0  0
   21.9385  -19.9142   -9.2141 C   0  0  0  0  0  0  0  0  0  0  0  0
   23.3295  -20.4158   -9.3379 C   0  0  2  0  0  0  0  0  0  0  0  0
   23.4358  -21.6134  -10.2686 C   0  0  0  0  0  0  0  0  0  0  0  0
   24.0344  -20.7406   -8.0648 C   0  0  2  0  0  0  0  0  0  0  0  0
   25.4133  -21.1356   -8.2612 N   0  0  0  0  0  0  0  0  0  0  0  0
   23.3075  -21.6228   -7.1510 C   0  0  0  0  0  0  0  0  0  0  0  0
   22.1546  -21.3040   -6.4874 O   0  0  0  0  0  0  0  0  0  0  0  0
   23.7796  -22.7907   -6.9475 O   0  0  0  0  0  0  0  0  0  0  0  0
  2  4  1  0
  2  1  1  6
  3  2  1  0
  5  4  1  0
  5  6  1  6
  7  8  2  0
  7  5  1  0
  9  7  1  0
 10  9  1  0
 10 11  1  1
 11 12  1  0
 12 13  2  0
 12 17  1  0
 13 14  1  0
 14 15  2  0
 16 15  1  0
 17 16  2  0
 18 10  1  0
 19 18  2  0
 20 21  1  0
 21 22  1  0
 22 23  1  6
 24 22  1  0
 24 25  1  6
 25 18  1  0
 26 24  1  0
 27 26  1  0
 28 26  2  0
M  END
$$$$
