LFI.pdb
     RDKit          3D

 28 28  0  0  1  0  0  0  0  0999 V2000
   28.8322  -23.0881  -16.1133 C   0  0  0  0  0  0  0  0  0  0  0  0
   28.5005  -21.7353  -15.4851 C   0  0  1  0  0  0  0  0  0  0  0  0
   27.6257  -21.0045  -16.4523 C   0  0  0  0  0  0  0  0  0  0  0  0
   27.8414  -21.9929  -14.1515 C   0  0  0  0  0  0  0  0  0  0  0  0
   27.5980  -20.7316  -13.3676 C   0  0  2  0  0  0  0  0  0  0  0  0
   28.6482  -19.7570  -13.5839 N   0  0  0  0  0  0  0  0  0  0  0  0
   27.5013  -21.1112  -11.9334 C   0  0  0  0  0  0  0  0  0  0  0  0
   26.7968  -22.0948  -11.5925 O   0  0  0  0  0  0  0  0  0  0  0  0
   28.1841  -20.3989  -10.8949 N   0  0  0  0  0  0  0  0  0  0  0  0
   27.8831  -20.6145   -9.4927 C   0  0  1  0  0  0  0  0  0  0  0  0
   28.9358  -19.9374   -8.6410 C   0  0  0  0  0  0  0  0  0  0  0  0
   28.6024  -20.0615   -7.1998 C   0  0  0  0  0  0  0  0  0  0  0  0
   28.9943  -21.1474   -6.4719 C   0  0  0  0  0  0  0  0  0  0  0  0
   28.6700  -21.2304   -5.1423 C   0  0  0  0  0  0  0  0  0  0  0  0
   27.9556  -20.2516   -4.4990 C   0  0  0  0  0  0  0  0  0  0  0  0
   27.5557  -19.1508   -5.2276 C   0  0  0  0  0  0  0  0  0  0  0  0
   27.8832  -19.0694   -6.5661 C   0  0  0  0  0  0  0  0  0  0  0  0
   26.5299  -20.1128   -9.2166 C   0  0  0  0  0  0  0  0  0  0  0  0
   26.1453  -18.9707   -9.6461 O   0  0  0  0  0  0  0  0  0  0  0  0
   21.4778  -20.0191  -11.1712 C   0  0  0  0  0  0  0  0  0  0  0  0
   22.0869  -20.0071   -9.7938 C   0  0  0  0  0  0  0  0  0  0  0  0
   23.5052  -20.4419   -9.7574 C   0  0  2  0  0  0  0  0  0  0  0  0
   23.7222  -21.7788  -10.4482 C   0  0  0  0  0  0  0  0  0  0  0  0
   24.1506  -20.4920   -8.4143 C   0  0  2  0  0  0  0  0  0  0  0  0
   25.5567  -20.8321   -8.4694 N   0  0  0  0  0  0  0  0  0  0  0  0
   23.4172  -21.2394   -7.3919 C   0  0  0  0  0  0  0  0  0  0  0  0
   23.9621  -22.1508   -6.5296 O   0  0  0  0  0  0  0  0  0  0  0  0
   22.1624  -21.0326   -7.2866 O   0  0  0  0  0  0  0  0  0  0  0  0
  2  4  1  0
  2  1  1  6
  3  2  1  0
  5  4  1  0
  5  6  1  1
  7  8  2  0
  7  5  1  0
  9  7  1  0
 10  9  1  0
 10 11  1  1
 11 12  1  0
 12 13  2  0
 12 17  1  0
 13 14  1  0
 14 15  2  0
 16 15  1  0
 17 16  2  0
 18 10  1  0
 19 18  2  0
 20 21  1  0
 21 22  1  0
 22 23  1  1
 24 22  1  0
 24 25  1  6
 25 18  1  0
 26 24  1  0
 27 26  1  0
 28 26  2  0
M  END
$$$$
