LFI.pdb
     RDKit          3D

 28 28  0  0  1  0  0  0  0  0999 V2000
   25.5303  -15.3726  -19.3326 C   0  0  0  0  0  0  0  0  0  0  0  0
   26.6430  -16.4023  -19.1410 C   0  0  1  0  0  0  0  0  0  0  0  0
   27.8423  -15.6649  -18.6388 C   0  0  0  0  0  0  0  0  0  0  0  0
   26.1390  -17.4564  -18.1848 C   0  0  0  0  0  0  0  0  0  0  0  0
   27.1995  -18.4539  -17.8043 C   0  0  2  0  0  0  0  0  0  0  0  0
   27.5546  -19.3080  -18.9195 N   0  0  0  0  0  0  0  0  0  0  0  0
   26.6738  -19.2479  -16.6626 C   0  0  0  0  0  0  0  0  0  0  0  0
   25.8836  -20.2022  -16.8752 O   0  0  0  0  0  0  0  0  0  0  0  0
   27.0279  -18.9772  -15.3012 N   0  0  0  0  0  0  0  0  0  0  0  0
   26.4681  -19.7354  -14.1990 C   0  0  1  0  0  0  0  0  0  0  0  0
   27.2739  -19.4717  -12.9447 C   0  0  0  0  0  0  0  0  0  0  0  0
   26.6374  -20.1159  -11.7685 C   0  0  0  0  0  0  0  0  0  0  0  0
   25.9542  -19.3834  -10.8415 C   0  0  0  0  0  0  0  0  0  0  0  0
   25.3778  -20.0102   -9.7670 C   0  0  0  0  0  0  0  0  0  0  0  0
   25.4588  -21.3667   -9.5788 C   0  0  0  0  0  0  0  0  0  0  0  0
   26.1475  -22.1143  -10.5110 C   0  0  0  0  0  0  0  0  0  0  0  0
   26.7272  -21.4813  -11.5921 C   0  0  0  0  0  0  0  0  0  0  0  0
   25.0532  -19.3706  -14.0440 C   0  0  0  0  0  0  0  0  0  0  0  0
   24.6928  -18.1495  -13.9177 O   0  0  0  0  0  0  0  0  0  0  0  0
   19.6889  -19.1808  -16.2146 C   0  0  0  0  0  0  0  0  0  0  0  0
   20.4034  -19.4039  -14.9076 C   0  0  0  0  0  0  0  0  0  0  0  0
   21.8358  -19.7615  -15.0564 C   0  0  2  0  0  0  0  0  0  0  0  0
   22.0445  -20.9642  -15.9628 C   0  0  0  0  0  0  0  0  0  0  0  0
   22.6005  -19.9800  -13.7951 C   0  0  2  0  0  0  0  0  0  0  0  0
   23.9904  -20.3156  -14.0218 N   0  0  0  0  0  0  0  0  0  0  0  0
   21.9526  -20.8458  -12.8091 C   0  0  0  0  0  0  0  0  0  0  0  0
   20.9890  -20.4558  -11.9200 O   0  0  0  0  0  0  0  0  0  0  0  0
   22.3089  -22.0704  -12.7648 O   0  0  0  0  0  0  0  0  0  0  0  0
  2  4  1  0
  2  1  1  1
  3  2  1  0
  5  4  1  0
  5  6  1  6
  7  8  2  0
  7  5  1  0
  9  7  1  0
 10  9  1  0
 10 11  1  1
 11 12  1  0
 12 13  2  0
 12 17  1  0
 13 14  1  0
 14 15  2  0
 16 15  1  0
 17 16  2  0
 18 10  1  0
 19 18  2  0
 20 21  1  0
 21 22  1  0
 22 23  1  6
 24 22  1  0
 24 25  1  6
 25 18  1  0
 26 24  1  0
 27 26  1  0
 28 26  2  0
M  END
$$$$
