LFI.pdb
     RDKit          3D

 28 28  0  0  1  0  0  0  0  0999 V2000
   28.7059  -18.3704   -5.0656 C   0  0  0  0  0  0  0  0  0  0  0  0
   28.3331  -19.7234   -5.6702 C   0  0  1  0  0  0  0  0  0  0  0  0
   27.8261  -20.5786   -4.5539 C   0  0  0  0  0  0  0  0  0  0  0  0
   27.3120  -19.4803   -6.7554 C   0  0  0  0  0  0  0  0  0  0  0  0
   26.8346  -20.7522   -7.4027 C   0  0  2  0  0  0  0  0  0  0  0  0
   27.9207  -21.6902   -7.6030 N   0  0  0  0  0  0  0  0  0  0  0  0
   26.1967  -20.3818   -8.6935 C   0  0  0  0  0  0  0  0  0  0  0  0
   25.9796  -19.1727   -8.9600 O   0  0  0  0  0  0  0  0  0  0  0  0
   25.8070  -21.3521   -9.6727 N   0  0  0  0  0  0  0  0  0  0  0  0
   25.4023  -20.9690  -11.0116 C   0  0  1  0  0  0  0  0  0  0  0  0
   26.2274  -21.7325  -12.0257 C   0  0  0  0  0  0  0  0  0  0  0  0
   27.5537  -21.0921  -12.2103 C   0  0  0  0  0  0  0  0  0  0  0  0
   28.6857  -21.6383  -11.6784 C   0  0  0  0  0  0  0  0  0  0  0  0
   29.8951  -21.0211  -11.8682 C   0  0  0  0  0  0  0  0  0  0  0  0
   30.0203  -19.8567  -12.5828 C   0  0  0  0  0  0  0  0  0  0  0  0
   28.8811  -19.2980  -13.1237 C   0  0  0  0  0  0  0  0  0  0  0  0
   27.6645  -19.9210  -12.9313 C   0  0  0  0  0  0  0  0  0  0  0  0
   23.9615  -21.2167  -11.1596 C   0  0  0  0  0  0  0  0  0  0  0  0
   23.4060  -22.2391  -10.6276 O   0  0  0  0  0  0  0  0  0  0  0  0
   18.4750  -19.2030  -10.4725 C   0  0  0  0  0  0  0  0  0  0  0  0
   19.3240  -20.0393  -11.3935 C   0  0  0  0  0  0  0  0  0  0  0  0
   20.7808  -19.7871  -11.2664 C   0  0  2  0  0  0  0  0  0  0  0  0
   21.1412  -18.3280  -11.4960 C   0  0  0  0  0  0  0  0  0  0  0  0
   21.6773  -20.6345  -12.1039 C   0  0  2  0  0  0  0  0  0  0  0  0
   23.0831  -20.3661  -11.8859 N   0  0  0  0  0  0  0  0  0  0  0  0
   21.3202  -20.7181  -13.5207 C   0  0  0  0  0  0  0  0  0  0  0  0
   20.1472  -21.2174  -14.0167 O   0  0  0  0  0  0  0  0  0  0  0  0
   22.1669  -20.2930  -14.3756 O   0  0  0  0  0  0  0  0  0  0  0  0
  2  4  1  0
  2  1  1  1
  3  2  1  0
  5  4  1  0
  5  6  1  6
  7  8  2  0
  7  5  1  0
  9  7  1  0
 10  9  1  0
 10 11  1  6
 11 12  1  0
 12 13  2  0
 12 17  1  0
 13 14  1  0
 14 15  2  0
 16 15  1  0
 17 16  2  0
 18 10  1  0
 19 18  2  0
 20 21  1  0
 21 22  1  0
 22 23  1  6
 24 22  1  0
 24 25  1  6
 25 18  1  0
 26 24  1  0
 27 26  1  0
 28 26  2  0
M  END
$$$$
