LFI.pdb
     RDKit          3D

 28 28  0  0  1  0  0  0  0  0999 V2000
   30.6670  -19.2855  -20.6636 C   0  0  0  0  0  0  0  0  0  0  0  0
   29.4865  -20.0685  -20.0905 C   0  0  1  0  0  0  0  0  0  0  0  0
   29.0697  -21.0584  -21.1302 C   0  0  0  0  0  0  0  0  0  0  0  0
   29.9367  -20.7051  -18.7977 C   0  0  0  0  0  0  0  0  0  0  0  0
   28.8491  -21.5030  -18.1306 C   0  0  2  0  0  0  0  0  0  0  0  0
   28.0063  -22.1730  -19.1004 N   0  0  0  0  0  0  0  0  0  0  0  0
   28.0616  -20.5643  -17.2887 C   0  0  0  0  0  0  0  0  0  0  0  0
   28.6151  -19.9690  -16.3298 O   0  0  0  0  0  0  0  0  0  0  0  0
   26.6732  -20.2957  -17.5172 N   0  0  0  0  0  0  0  0  0  0  0  0
   25.9091  -19.4216  -16.6481 C   0  0  1  0  0  0  0  0  0  0  0  0
   24.9261  -18.6212  -17.4758 C   0  0  0  0  0  0  0  0  0  0  0  0
   24.1332  -17.7112  -16.6117 C   0  0  0  0  0  0  0  0  0  0  0  0
   22.7913  -17.8887  -16.4372 C   0  0  0  0  0  0  0  0  0  0  0  0
   22.0888  -17.0300  -15.6316 C   0  0  0  0  0  0  0  0  0  0  0  0
   22.6863  -15.9805  -14.9807 C   0  0  0  0  0  0  0  0  0  0  0  0
   24.0422  -15.7941  -15.1518 C   0  0  0  0  0  0  0  0  0  0  0  0
   24.7476  -16.6597  -15.9634 C   0  0  0  0  0  0  0  0  0  0  0  0
   25.2451  -20.2372  -15.6219 C   0  0  0  0  0  0  0  0  0  0  0  0
   24.6340  -21.3190  -15.9270 O   0  0  0  0  0  0  0  0  0  0  0  0
   27.2029  -21.9272  -10.7997 C   0  0  0  0  0  0  0  0  0  0  0  0
   26.4229  -21.7839  -12.0802 C   0  0  0  0  0  0  0  0  0  0  0  0
   25.2633  -20.8633  -11.9806 C   0  0  2  0  0  0  0  0  0  0  0  0
   24.2975  -21.2610  -10.8757 C   0  0  0  0  0  0  0  0  0  0  0  0
   24.4851  -20.6374  -13.2321 C   0  0  2  0  0  0  0  0  0  0  0  0
   25.2243  -19.9055  -14.2390 N   0  0  0  0  0  0  0  0  0  0  0  0
   23.1218  -20.1396  -13.0435 C   0  0  0  0  0  0  0  0  0  0  0  0
   22.7023  -18.8601  -13.2847 O   0  0  0  0  0  0  0  0  0  0  0  0
   22.2410  -20.9590  -12.6179 O   0  0  0  0  0  0  0  0  0  0  0  0
  2  4  1  0
  2  1  1  6
  3  2  1  0
  5  4  1  0
  5  6  1  6
  7  8  2  0
  7  5  1  0
  9  7  1  0
 10  9  1  0
 10 11  1  6
 11 12  1  0
 12 13  2  0
 12 17  1  0
 13 14  1  0
 14 15  2  0
 16 15  1  0
 17 16  2  0
 18 10  1  0
 19 18  2  0
 20 21  1  0
 21 22  1  0
 22 23  1  1
 24 22  1  0
 24 25  1  6
 25 18  1  0
 26 24  1  0
 27 26  1  0
 28 26  2  0
M  END
$$$$
