LFI.pdb
     RDKit          3D

 28 28  0  0  1  0  0  0  0  0999 V2000
   26.5634  -19.7257  -19.5335 C   0  0  0  0  0  0  0  0  0  0  0  0
   27.3435  -20.7641  -18.7285 C   0  0  1  0  0  0  0  0  0  0  0  0
   28.6811  -20.1700  -18.4245 C   0  0  0  0  0  0  0  0  0  0  0  0
   26.5370  -21.0964  -17.4962 C   0  0  0  0  0  0  0  0  0  0  0  0
   27.2347  -22.0726  -16.5881 C   0  0  2  0  0  0  0  0  0  0  0  0
   27.2382  -23.4108  -17.1437 N   0  0  0  0  0  0  0  0  0  0  0  0
   26.5374  -22.0352  -15.2756 C   0  0  0  0  0  0  0  0  0  0  0  0
   25.4698  -22.6794  -15.1156 O   0  0  0  0  0  0  0  0  0  0  0  0
   27.0286  -21.2867  -14.1573 N   0  0  0  0  0  0  0  0  0  0  0  0
   26.3317  -21.2634  -12.8857 C   0  0  1  0  0  0  0  0  0  0  0  0
   27.2369  -20.6735  -11.8252 C   0  0  0  0  0  0  0  0  0  0  0  0
   26.5181  -20.5514  -10.5322 C   0  0  0  0  0  0  0  0  0  0  0  0
   26.1635  -21.6543   -9.8106 C   0  0  0  0  0  0  0  0  0  0  0  0
   25.5006  -21.5060   -8.6197 C   0  0  0  0  0  0  0  0  0  0  0  0
   25.1717  -20.2749   -8.1116 C   0  0  0  0  0  0  0  0  0  0  0  0
   25.5263  -19.1552   -8.8347 C   0  0  0  0  0  0  0  0  0  0  0  0
   26.1936  -19.3067  -10.0335 C   0  0  0  0  0  0  0  0  0  0  0  0
   25.0837  -20.5041  -13.0439 C   0  0  0  0  0  0  0  0  0  0  0  0
   25.0905  -19.2976  -13.4696 O   0  0  0  0  0  0  0  0  0  0  0  0
   20.2060  -19.5207  -15.8079 C   0  0  0  0  0  0  0  0  0  0  0  0
   20.7015  -19.5400  -14.3857 C   0  0  0  0  0  0  0  0  0  0  0  0
   21.9236  -20.3571  -14.1835 C   0  0  2  0  0  0  0  0  0  0  0  0
   21.7077  -21.8223  -14.5274 C   0  0  0  0  0  0  0  0  0  0  0  0
   22.5629  -20.2748  -12.8391 C   0  0  2  0  0  0  0  0  0  0  0  0
   23.7955  -21.0285  -12.7466 N   0  0  0  0  0  0  0  0  0  0  0  0
   21.6674  -20.4942  -11.7026 C   0  0  0  0  0  0  0  0  0  0  0  0
   21.8364  -21.4395  -10.7284 O   0  0  0  0  0  0  0  0  0  0  0  0
   20.6378  -19.7471  -11.6012 O   0  0  0  0  0  0  0  0  0  0  0  0
  2  4  1  0
  2  1  1  6
  3  2  1  0
  5  4  1  0
  5  6  1  6
  7  8  2  0
  7  5  1  0
  9  7  1  0
 10  9  1  0
 10 11  1  1
 11 12  1  0
 12 13  2  0
 12 17  1  0
 13 14  1  0
 14 15  2  0
 16 15  1  0
 17 16  2  0
 18 10  1  0
 19 18  2  0
 20 21  1  0
 21 22  1  0
 22 23  1  1
 24 22  1  0
 24 25  1  6
 25 18  1  0
 26 24  1  0
 27 26  1  0
 28 26  2  0
M  END
$$$$
