LFI.pdb
     RDKit          3D

 28 28  0  0  1  0  0  0  0  0999 V2000
   21.9145  -10.8956  -23.0933 C   0  0  0  0  0  0  0  0  0  0  0  0
   23.3485  -10.7775  -22.5787 C   0  0  1  0  0  0  0  0  0  0  0  0
   23.8442   -9.4216  -22.9664 C   0  0  0  0  0  0  0  0  0  0  0  0
   23.3256  -11.0074  -21.0867 C   0  0  0  0  0  0  0  0  0  0  0  0
   24.6403  -10.6897  -20.4272 C   0  0  2  0  0  0  0  0  0  0  0  0
   25.5886  -11.7752  -20.5753 N   0  0  0  0  0  0  0  0  0  0  0  0
   24.3623  -10.4081  -18.9941 C   0  0  0  0  0  0  0  0  0  0  0  0
   24.1608  -11.3590  -18.1971 O   0  0  0  0  0  0  0  0  0  0  0  0
   24.3105   -9.0796  -18.4606 N   0  0  0  0  0  0  0  0  0  0  0  0
   24.0907   -8.8292  -17.0491 C   0  0  1  0  0  0  0  0  0  0  0  0
   25.2874   -8.1022  -16.4735 C   0  0  0  0  0  0  0  0  0  0  0  0
   26.4562   -9.0123  -16.3771 C   0  0  0  0  0  0  0  0  0  0  0  0
   26.5252   -9.9791  -15.4163 C   0  0  0  0  0  0  0  0  0  0  0  0
   27.6191  -10.8035  -15.3556 C   0  0  0  0  0  0  0  0  0  0  0  0
   28.6671  -10.6975  -16.2346 C   0  0  0  0  0  0  0  0  0  0  0  0
   28.6052   -9.7229  -17.2086 C   0  0  0  0  0  0  0  0  0  0  0  0
   27.5031   -8.8940  -17.2678 C   0  0  0  0  0  0  0  0  0  0  0  0
   22.8432   -8.0688  -16.8920 C   0  0  0  0  0  0  0  0  0  0  0  0
   22.5776   -7.0674  -17.6426 O   0  0  0  0  0  0  0  0  0  0  0  0
   16.9160   -8.6900  -16.2268 C   0  0  0  0  0  0  0  0  0  0  0  0
   18.0929   -7.7889  -15.9589 C   0  0  0  0  0  0  0  0  0  0  0  0
   19.3994   -8.4921  -15.9410 C   0  0  2  0  0  0  0  0  0  0  0  0
   19.4423   -9.6150  -14.9169 C   0  0  0  0  0  0  0  0  0  0  0  0
   20.6099   -7.6402  -15.7617 C   0  0  2  0  0  0  0  0  0  0  0  0
   21.8499   -8.3707  -15.9199 N   0  0  0  0  0  0  0  0  0  0  0  0
   20.5993   -6.7728  -14.5830 C   0  0  0  0  0  0  0  0  0  0  0  0
   19.8284   -5.6537  -14.4266 O   0  0  0  0  0  0  0  0  0  0  0  0
   21.3707   -7.0754  -13.6126 O   0  0  0  0  0  0  0  0  0  0  0  0
  2  4  1  0
  2  1  1  1
  3  2  1  0
  5  4  1  0
  5  6  1  1
  7  8  2  0
  7  5  1  0
  9  7  1  0
 10  9  1  0
 10 11  1  6
 11 12  1  0
 12 13  2  0
 12 17  1  0
 13 14  1  0
 14 15  2  0
 16 15  1  0
 17 16  2  0
 18 10  1  0
 19 18  2  0
 20 21  1  0
 21 22  1  0
 22 23  1  1
 24 22  1  0
 24 25  1  1
 25 18  1  0
 26 24  1  0
 27 26  1  0
 28 26  2  0
M  END
$$$$
