LFI.pdb
     RDKit          3D

 28 28  0  0  1  0  0  0  0  0999 V2000
   22.8073  -22.7058  -14.9417 C   0  0  0  0  0  0  0  0  0  0  0  0
   22.9230  -21.3781  -14.1941 C   0  0  1  0  0  0  0  0  0  0  0  0
   21.5388  -20.8318  -14.0519 C   0  0  0  0  0  0  0  0  0  0  0  0
   23.6036  -21.6477  -12.8737 C   0  0  0  0  0  0  0  0  0  0  0  0
   23.8091  -20.4000  -12.0578 C   0  0  2  0  0  0  0  0  0  0  0  0
   24.4421  -19.3525  -12.8335 N   0  0  0  0  0  0  0  0  0  0  0  0
   24.6341  -20.7712  -10.8780 C   0  0  0  0  0  0  0  0  0  0  0  0
   24.4108  -21.8501  -10.2728 O   0  0  0  0  0  0  0  0  0  0  0  0
   25.6946  -19.9455  -10.3825 N   0  0  0  0  0  0  0  0  0  0  0  0
   26.4307  -20.2842   -9.1796 C   0  0  1  0  0  0  0  0  0  0  0  0
   27.6153  -19.3527   -9.0342 C   0  0  0  0  0  0  0  0  0  0  0  0
   28.2830  -19.5555   -7.7240 C   0  0  0  0  0  0  0  0  0  0  0  0
   28.1469  -18.6514   -6.7108 C   0  0  0  0  0  0  0  0  0  0  0  0
   28.7769  -18.8696   -5.5128 C   0  0  0  0  0  0  0  0  0  0  0  0
   29.5526  -19.9775   -5.2830 C   0  0  0  0  0  0  0  0  0  0  0  0
   29.6953  -20.8962   -6.3018 C   0  0  0  0  0  0  0  0  0  0  0  0
   29.0603  -20.6746   -7.5072 C   0  0  0  0  0  0  0  0  0  0  0  0
   25.5175  -20.2143   -8.0306 C   0  0  0  0  0  0  0  0  0  0  0  0
   24.5453  -19.3831   -8.0053 O   0  0  0  0  0  0  0  0  0  0  0  0
   21.2869  -22.3682   -4.8890 C   0  0  0  0  0  0  0  0  0  0  0  0
   22.5747  -21.6142   -4.6849 C   0  0  0  0  0  0  0  0  0  0  0  0
   23.5173  -21.7097   -5.8269 C   0  0  2  0  0  0  0  0  0  0  0  0
   23.8608  -23.1482   -6.1796 C   0  0  0  0  0  0  0  0  0  0  0  0
   24.7856  -20.9348   -5.7081 C   0  0  2  0  0  0  0  0  0  0  0  0
   25.6307  -21.0410   -6.8788 N   0  0  0  0  0  0  0  0  0  0  0  0
   25.5163  -21.1135   -4.4527 C   0  0  0  0  0  0  0  0  0  0  0  0
   26.8068  -21.5528   -4.3396 O   0  0  0  0  0  0  0  0  0  0  0  0
   24.9084  -20.8402   -3.3644 O   0  0  0  0  0  0  0  0  0  0  0  0
  2  4  1  0
  2  1  1  6
  3  2  1  0
  5  4  1  0
  5  6  1  6
  7  8  2  0
  7  5  1  0
  9  7  1  0
 10  9  1  0
 10 11  1  1
 11 12  1  0
 12 13  2  0
 12 17  1  0
 13 14  1  0
 14 15  2  0
 16 15  1  0
 17 16  2  0
 18 10  1  0
 19 18  2  0
 20 21  1  0
 21 22  1  0
 22 23  1  1
 24 22  1  0
 24 25  1  6
 25 18  1  0
 26 24  1  0
 27 26  1  0
 28 26  2  0
M  END
$$$$
