LFI.pdb
     RDKit          3D

 28 28  0  0  1  0  0  0  0  0999 V2000
   27.4674  -17.6697  -16.8555 C   0  0  0  0  0  0  0  0  0  0  0  0
   28.2536  -18.3543  -15.7383 C   0  0  1  0  0  0  0  0  0  0  0  0
   28.7246  -17.2806  -14.8109 C   0  0  0  0  0  0  0  0  0  0  0  0
   27.3419  -19.3621  -15.0806 C   0  0  0  0  0  0  0  0  0  0  0  0
   27.9617  -20.0072  -13.8707 C   0  0  2  0  0  0  0  0  0  0  0  0
   28.9877  -20.9613  -14.2403 N   0  0  0  0  0  0  0  0  0  0  0  0
   26.8673  -20.6612  -13.1058 C   0  0  0  0  0  0  0  0  0  0  0  0
   26.4440  -21.7904  -13.4605 O   0  0  0  0  0  0  0  0  0  0  0  0
   26.2551  -20.0588  -11.9593 N   0  0  0  0  0  0  0  0  0  0  0  0
   25.1473  -20.6860  -11.2645 C   0  0  1  0  0  0  0  0  0  0  0  0
   25.0323  -20.1053   -9.8710 C   0  0  0  0  0  0  0  0  0  0  0  0
   26.2922  -20.3095   -9.1132 C   0  0  0  0  0  0  0  0  0  0  0  0
   26.6811  -19.4402   -8.1357 C   0  0  0  0  0  0  0  0  0  0  0  0
   27.8507  -19.6586   -7.4545 C   0  0  0  0  0  0  0  0  0  0  0  0
   28.6628  -20.7328   -7.7168 C   0  0  0  0  0  0  0  0  0  0  0  0
   28.2770  -21.6162   -8.7033 C   0  0  0  0  0  0  0  0  0  0  0  0
   27.0992  -21.3943   -9.3880 C   0  0  0  0  0  0  0  0  0  0  0  0
   23.9236  -20.4945  -12.0550 C   0  0  0  0  0  0  0  0  0  0  0  0
   23.7092  -19.4064  -12.6929 O   0  0  0  0  0  0  0  0  0  0  0  0
   20.7626  -22.8507  -16.4361 C   0  0  0  0  0  0  0  0  0  0  0  0
   20.5961  -22.1013  -15.1403 C   0  0  0  0  0  0  0  0  0  0  0  0
   21.7916  -22.1416  -14.2621 C   0  0  2  0  0  0  0  0  0  0  0  0
   22.1987  -23.5604  -13.8977 C   0  0  0  0  0  0  0  0  0  0  0  0
   21.7253  -21.3314  -13.0121 C   0  0  2  0  0  0  0  0  0  0  0  0
   22.8995  -21.4739  -12.1772 N   0  0  0  0  0  0  0  0  0  0  0  0
   20.4715  -21.4312  -12.2640 C   0  0  0  0  0  0  0  0  0  0  0  0
   19.2268  -21.1517  -12.7577 O   0  0  0  0  0  0  0  0  0  0  0  0
   20.5315  -21.8095  -11.0467 O   0  0  0  0  0  0  0  0  0  0  0  0
  2  4  1  0
  2  1  1  6
  3  2  1  0
  5  4  1  0
  5  6  1  6
  7  8  2  0
  7  5  1  0
  9  7  1  0
 10  9  1  0
 10 11  1  1
 11 12  1  0
 12 13  2  0
 12 17  1  0
 13 14  1  0
 14 15  2  0
 16 15  1  0
 17 16  2  0
 18 10  1  0
 19 18  2  0
 20 21  1  0
 21 22  1  0
 22 23  1  1
 24 22  1  0
 24 25  1  1
 25 18  1  0
 26 24  1  0
 27 26  1  0
 28 26  2  0
M  END
$$$$
