LFI.pdb
     RDKit          3D

 28 28  0  0  1  0  0  0  0  0999 V2000
   28.1782  -23.1241  -19.5668 C   0  0  0  0  0  0  0  0  0  0  0  0
   27.8737  -21.7814  -18.9039 C   0  0  1  0  0  0  0  0  0  0  0  0
   26.7726  -21.1438  -19.6885 C   0  0  0  0  0  0  0  0  0  0  0  0
   27.5113  -22.0479  -17.4627 C   0  0  0  0  0  0  0  0  0  0  0  0
   27.0740  -20.8072  -16.7321 C   0  0  2  0  0  0  0  0  0  0  0  0
   27.9830  -19.7027  -16.9630 N   0  0  0  0  0  0  0  0  0  0  0  0
   26.9941  -21.1471  -15.2870 C   0  0  0  0  0  0  0  0  0  0  0  0
   26.4652  -22.2292  -14.9270 O   0  0  0  0  0  0  0  0  0  0  0  0
   27.4994  -20.2871  -14.2588 N   0  0  0  0  0  0  0  0  0  0  0  0
   27.3337  -20.5964  -12.8517 C   0  0  1  0  0  0  0  0  0  0  0  0
   28.3930  -19.8723  -12.0480 C   0  0  0  0  0  0  0  0  0  0  0  0
   28.1383  -20.0200  -10.5931 C   0  0  0  0  0  0  0  0  0  0  0  0
   28.8421  -20.9115   -9.8365 C   0  0  0  0  0  0  0  0  0  0  0  0
   28.5820  -21.0224   -8.4949 C   0  0  0  0  0  0  0  0  0  0  0  0
   27.6276  -20.2625   -7.8675 C   0  0  0  0  0  0  0  0  0  0  0  0
   26.9117  -19.3591   -8.6250 C   0  0  0  0  0  0  0  0  0  0  0  0
   27.1751  -19.2491   -9.9755 C   0  0  0  0  0  0  0  0  0  0  0  0
   25.9708  -20.2289  -12.4436 C   0  0  0  0  0  0  0  0  0  0  0  0
   25.5013  -19.0614  -12.6740 O   0  0  0  0  0  0  0  0  0  0  0  0
   20.4177  -21.1827  -13.4515 C   0  0  0  0  0  0  0  0  0  0  0  0
   21.3299  -20.7918  -12.3185 C   0  0  0  0  0  0  0  0  0  0  0  0
   22.7380  -21.2229  -12.5014 C   0  0  2  0  0  0  0  0  0  0  0  0
   22.8661  -22.7251  -12.6979 C   0  0  0  0  0  0  0  0  0  0  0  0
   23.7048  -20.7982  -11.4487 C   0  0  2  0  0  0  0  0  0  0  0  0
   25.0793  -21.1136  -11.7761 N   0  0  0  0  0  0  0  0  0  0  0  0
   23.3417  -21.1613  -10.0782 C   0  0  0  0  0  0  0  0  0  0  0  0
   24.0899  -21.9382   -9.2370 O   0  0  0  0  0  0  0  0  0  0  0  0
   22.2353  -20.7225   -9.6180 O   0  0  0  0  0  0  0  0  0  0  0  0
  2  4  1  0
  2  1  1  6
  3  2  1  0
  5  4  1  0
  5  6  1  1
  7  8  2  0
  7  5  1  0
  9  7  1  0
 10  9  1  0
 10 11  1  1
 11 12  1  0
 12 13  2  0
 12 17  1  0
 13 14  1  0
 14 15  2  0
 16 15  1  0
 17 16  2  0
 18 10  1  0
 19 18  2  0
 20 21  1  0
 21 22  1  0
 22 23  1  1
 24 22  1  0
 24 25  1  6
 25 18  1  0
 26 24  1  0
 27 26  1  0
 28 26  2  0
M  END
$$$$
