LFI.pdb
     RDKit          3D

 28 28  0  0  1  0  0  0  0  0999 V2000
   28.8477  -20.3048  -12.7442 C   0  0  0  0  0  0  0  0  0  0  0  0
   28.4523  -20.2000  -14.2165 C   0  0  1  0  0  0  0  0  0  0  0  0
   28.5630  -21.5719  -14.7999 C   0  0  0  0  0  0  0  0  0  0  0  0
   27.0567  -19.6277  -14.2818 C   0  0  0  0  0  0  0  0  0  0  0  0
   26.5403  -19.5085  -15.6902 C   0  0  2  0  0  0  0  0  0  0  0  0
   27.2511  -18.4892  -16.4355 N   0  0  0  0  0  0  0  0  0  0  0  0
   25.0880  -19.2015  -15.6068 C   0  0  0  0  0  0  0  0  0  0  0  0
   24.7081  -18.0893  -15.1609 O   0  0  0  0  0  0  0  0  0  0  0  0
   24.0748  -20.1275  -16.0169 N   0  0  0  0  0  0  0  0  0  0  0  0
   22.6644  -19.7950  -15.9579 C   0  0  1  0  0  0  0  0  0  0  0  0
   22.0131  -20.1230  -17.2847 C   0  0  0  0  0  0  0  0  0  0  0  0
   22.2060  -19.0129  -18.2512 C   0  0  0  0  0  0  0  0  0  0  0  0
   21.3502  -17.9506  -18.2916 C   0  0  0  0  0  0  0  0  0  0  0  0
   21.5577  -16.9417  -19.1965 C   0  0  0  0  0  0  0  0  0  0  0  0
   22.6074  -16.9529  -20.0798 C   0  0  0  0  0  0  0  0  0  0  0  0
   23.4769  -18.0230  -20.0455 C   0  0  0  0  0  0  0  0  0  0  0  0
   23.2661  -19.0377  -19.1337 C   0  0  0  0  0  0  0  0  0  0  0  0
   22.0530  -20.5229  -14.8375 C   0  0  0  0  0  0  0  0  0  0  0  0
   22.2666  -21.7721  -14.6624 O   0  0  0  0  0  0  0  0  0  0  0  0
   21.1443  -20.2121   -8.9280 C   0  0  0  0  0  0  0  0  0  0  0  0
   20.5563  -20.7313  -10.2138 C   0  0  0  0  0  0  0  0  0  0  0  0
   21.0752  -20.0576  -11.4299 C   0  0  2  0  0  0  0  0  0  0  0  0
   20.8132  -18.5600  -11.4225 C   0  0  0  0  0  0  0  0  0  0  0  0
   20.6253  -20.6113  -12.7392 C   0  0  2  0  0  0  0  0  0  0  0  0
   21.1950  -19.9201  -13.8767 N   0  0  0  0  0  0  0  0  0  0  0  0
   19.1848  -20.8366  -12.8649 C   0  0  0  0  0  0  0  0  0  0  0  0
   18.4743  -21.8143  -12.2243 O   0  0  0  0  0  0  0  0  0  0  0  0
   18.5247  -20.0622  -13.6350 O   0  0  0  0  0  0  0  0  0  0  0  0
  2  4  1  0
  2  1  1  1
  3  2  1  0
  5  4  1  0
  5  6  1  1
  7  8  2  0
  7  5  1  0
  9  7  1  0
 10  9  1  0
 10 11  1  6
 11 12  1  0
 12 13  2  0
 12 17  1  0
 13 14  1  0
 14 15  2  0
 16 15  1  0
 17 16  2  0
 18 10  1  0
 19 18  2  0
 20 21  1  0
 21 22  1  0
 22 23  1  1
 24 22  1  0
 24 25  1  6
 25 18  1  0
 26 24  1  0
 27 26  1  0
 28 26  2  0
M  END
$$$$
