LFI.pdb
     RDKit          3D

 28 28  0  0  1  0  0  0  0  0999 V2000
   30.5819  -23.6001  -18.9177 C   0  0  0  0  0  0  0  0  0  0  0  0
   29.6514  -22.3945  -18.7924 C   0  0  1  0  0  0  0  0  0  0  0  0
   29.0549  -22.1577  -20.1424 C   0  0  0  0  0  0  0  0  0  0  0  0
   28.6281  -22.7079  -17.7274 C   0  0  0  0  0  0  0  0  0  0  0  0
   27.6485  -21.5862  -17.5115 C   0  0  2  0  0  0  0  0  0  0  0  0
   28.2928  -20.2909  -17.5929 N   0  0  0  0  0  0  0  0  0  0  0  0
   27.0211  -21.7940  -16.1798 C   0  0  0  0  0  0  0  0  0  0  0  0
   26.5138  -22.9081  -15.8940 O   0  0  0  0  0  0  0  0  0  0  0  0
   26.9624  -20.7682  -15.1816 N   0  0  0  0  0  0  0  0  0  0  0  0
   26.2995  -20.9757  -13.9084 C   0  0  1  0  0  0  0  0  0  0  0  0
   26.9744  -20.1348  -12.8456 C   0  0  0  0  0  0  0  0  0  0  0  0
   26.3238  -20.3371  -11.5268 C   0  0  0  0  0  0  0  0  0  0  0  0
   26.6561  -21.3910  -10.7258 C   0  0  0  0  0  0  0  0  0  0  0  0
   26.0360  -21.5481   -9.5132 C   0  0  0  0  0  0  0  0  0  0  0  0
   25.0782  -20.6764   -9.0606 C   0  0  0  0  0  0  0  0  0  0  0  0
   24.7365  -19.6087   -9.8640 C   0  0  0  0  0  0  0  0  0  0  0  0
   25.3619  -19.4523  -11.0846 C   0  0  0  0  0  0  0  0  0  0  0  0
   24.8741  -20.6521  -14.0587 C   0  0  0  0  0  0  0  0  0  0  0  0
   24.4952  -19.5099  -14.4931 O   0  0  0  0  0  0  0  0  0  0  0  0
   19.2606  -23.2694  -14.6426 C   0  0  0  0  0  0  0  0  0  0  0  0
   20.0819  -22.0852  -14.2047 C   0  0  0  0  0  0  0  0  0  0  0  0
   21.5306  -22.3744  -14.0643 C   0  0  2  0  0  0  0  0  0  0  0  0
   21.8098  -23.4677  -13.0454 C   0  0  0  0  0  0  0  0  0  0  0  0
   22.4143  -21.2112  -13.7659 C   0  0  2  0  0  0  0  0  0  0  0  0
   23.8207  -21.5543  -13.7439 N   0  0  0  0  0  0  0  0  0  0  0  0
   22.0052  -20.3863  -12.6284 C   0  0  0  0  0  0  0  0  0  0  0  0
   22.7097  -20.2290  -11.4664 O   0  0  0  0  0  0  0  0  0  0  0  0
   20.8992  -19.7559  -12.7157 O   0  0  0  0  0  0  0  0  0  0  0  0
  2  4  1  0
  2  1  1  6
  3  2  1  0
  5  4  1  0
  5  6  1  1
  7  8  2  0
  7  5  1  0
  9  7  1  0
 10  9  1  0
 10 11  1  1
 11 12  1  0
 12 13  2  0
 12 17  1  0
 13 14  1  0
 14 15  2  0
 16 15  1  0
 17 16  2  0
 18 10  1  0
 19 18  2  0
 20 21  1  0
 21 22  1  0
 22 23  1  1
 24 22  1  0
 24 25  1  1
 25 18  1  0
 26 24  1  0
 27 26  1  0
 28 26  2  0
M  END
$$$$
