LFI.pdb
     RDKit          3D

 28 28  0  0  1  0  0  0  0  0999 V2000
   25.6410  -19.4509  -20.5895 C   0  0  0  0  0  0  0  0  0  0  0  0
   24.7443  -18.2792  -20.1919 C   0  0  1  0  0  0  0  0  0  0  0  0
   23.3898  -18.5488  -20.7639 C   0  0  0  0  0  0  0  0  0  0  0  0
   24.7538  -18.1790  -18.6854 C   0  0  0  0  0  0  0  0  0  0  0  0
   23.8002  -17.1382  -18.1640 C   0  0  2  0  0  0  0  0  0  0  0  0
   24.3485  -15.8024  -18.2852 N   0  0  0  0  0  0  0  0  0  0  0  0
   23.5071  -17.4745  -16.7458 C   0  0  0  0  0  0  0  0  0  0  0  0
   24.3055  -17.1218  -15.8412 O   0  0  0  0  0  0  0  0  0  0  0  0
   22.3359  -18.1960  -16.3458 N   0  0  0  0  0  0  0  0  0  0  0  0
   22.0303  -18.4468  -14.9505 C   0  0  1  0  0  0  0  0  0  0  0  0
   20.5285  -18.4826  -14.7617 C   0  0  0  0  0  0  0  0  0  0  0  0
   20.1855  -18.7842  -13.3493 C   0  0  0  0  0  0  0  0  0  0  0  0
   20.1691  -17.8051  -12.3986 C   0  0  0  0  0  0  0  0  0  0  0  0
   19.8474  -18.1179  -11.1030 C   0  0  0  0  0  0  0  0  0  0  0  0
   19.5353  -19.3955  -10.7126 C   0  0  0  0  0  0  0  0  0  0  0  0
   19.5496  -20.3908  -11.6674 C   0  0  0  0  0  0  0  0  0  0  0  0
   19.8738  -20.0738  -12.9711 C   0  0  0  0  0  0  0  0  0  0  0  0
   22.6772  -19.7013  -14.5423 C   0  0  0  0  0  0  0  0  0  0  0  0
   22.6690  -20.7301  -15.3029 O   0  0  0  0  0  0  0  0  0  0  0  0
   26.9739  -21.8013  -10.5167 C   0  0  0  0  0  0  0  0  0  0  0  0
   25.8166  -22.0943  -11.4350 C   0  0  0  0  0  0  0  0  0  0  0  0
   25.0948  -20.8845  -11.9011 C   0  0  2  0  0  0  0  0  0  0  0  0
   24.5495  -20.0528  -10.7510 C   0  0  0  0  0  0  0  0  0  0  0  0
   23.9996  -21.1035  -12.8888 C   0  0  2  0  0  0  0  0  0  0  0  0
   23.3504  -19.8772  -13.3019 N   0  0  0  0  0  0  0  0  0  0  0  0
   23.0552  -22.1702  -12.5541 C   0  0  0  0  0  0  0  0  0  0  0  0
   21.7327  -21.9950  -12.2516 O   0  0  0  0  0  0  0  0  0  0  0  0
   23.4906  -23.3697  -12.5392 O   0  0  0  0  0  0  0  0  0  0  0  0
  2  4  1  0
  2  1  1  1
  3  2  1  0
  5  4  1  0
  5  6  1  1
  7  8  2  0
  7  5  1  0
  9  7  1  0
 10  9  1  0
 10 11  1  6
 11 12  1  0
 12 13  2  0
 12 17  1  0
 13 14  1  0
 14 15  2  0
 16 15  1  0
 17 16  2  0
 18 10  1  0
 19 18  2  0
 20 21  1  0
 21 22  1  0
 22 23  1  1
 24 22  1  0
 24 25  1  1
 25 18  1  0
 26 24  1  0
 27 26  1  0
 28 26  2  0
M  END
$$$$
