LFI.pdb
     RDKit          3D

 28 28  0  0  1  0  0  0  0  0999 V2000
   26.7838  -18.9327  -18.8700 C   0  0  0  0  0  0  0  0  0  0  0  0
   27.6400  -19.9985  -18.1874 C   0  0  1  0  0  0  0  0  0  0  0  0
   28.9560  -19.3660  -17.8671 C   0  0  0  0  0  0  0  0  0  0  0  0
   26.8916  -20.4837  -16.9692 C   0  0  0  0  0  0  0  0  0  0  0  0
   27.7088  -21.4149  -16.1151 C   0  0  2  0  0  0  0  0  0  0  0  0
   27.9535  -22.6769  -16.7836 N   0  0  0  0  0  0  0  0  0  0  0  0
   26.9690  -21.6138  -14.8410 C   0  0  0  0  0  0  0  0  0  0  0  0
   26.0090  -22.4241  -14.7947 O   0  0  0  0  0  0  0  0  0  0  0  0
   27.2994  -20.9149  -13.6349 N   0  0  0  0  0  0  0  0  0  0  0  0
   26.5127  -21.0606  -12.4253 C   0  0  1  0  0  0  0  0  0  0  0  0
   27.2584  -20.4432  -11.2613 C   0  0  0  0  0  0  0  0  0  0  0  0
   26.4313  -20.4833  -10.0294 C   0  0  0  0  0  0  0  0  0  0  0  0
   25.2165  -21.1050  -10.0102 C   0  0  0  0  0  0  0  0  0  0  0  0
   24.4781  -21.1240   -8.8552 C   0  0  0  0  0  0  0  0  0  0  0  0
   24.9146  -20.5347   -7.6957 C   0  0  0  0  0  0  0  0  0  0  0  0
   26.1413  -19.9042   -7.7066 C   0  0  0  0  0  0  0  0  0  0  0  0
   26.8830  -19.8862   -8.8706 C   0  0  0  0  0  0  0  0  0  0  0  0
   25.1966  -20.4432  -12.6395 C   0  0  0  0  0  0  0  0  0  0  0  0
   25.0881  -19.2206  -13.0006 O   0  0  0  0  0  0  0  0  0  0  0  0
   22.2542  -20.8084  -16.5052 C   0  0  0  0  0  0  0  0  0  0  0  0
   22.8851  -20.4517  -15.1848 C   0  0  0  0  0  0  0  0  0  0  0  0
   22.0719  -20.8353  -14.0043 C   0  0  2  0  0  0  0  0  0  0  0  0
   20.6650  -20.2614  -14.0551 C   0  0  0  0  0  0  0  0  0  0  0  0
   22.6589  -20.5343  -12.6672 C   0  0  2  0  0  0  0  0  0  0  0  0
   23.9632  -21.1307  -12.4695 N   0  0  0  0  0  0  0  0  0  0  0  0
   21.7598  -20.7258  -11.5284 C   0  0  0  0  0  0  0  0  0  0  0  0
   20.9663  -19.7609  -10.9712 O   0  0  0  0  0  0  0  0  0  0  0  0
   21.7031  -21.8867  -11.0016 O   0  0  0  0  0  0  0  0  0  0  0  0
  2  4  1  0
  2  1  1  1
  3  2  1  0
  5  4  1  0
  5  6  1  6
  7  8  2  0
  7  5  1  0
  9  7  1  0
 10  9  1  0
 10 11  1  1
 11 12  1  0
 12 13  2  0
 12 17  1  0
 13 14  1  0
 14 15  2  0
 16 15  1  0
 17 16  2  0
 18 10  1  0
 19 18  2  0
 20 21  1  0
 21 22  1  0
 22 23  1  6
 24 22  1  0
 24 25  1  1
 25 18  1  0
 26 24  1  0
 27 26  1  0
 28 26  2  0
M  END
$$$$
