LFI.pdb
     RDKit          3D

 28 28  0  0  1  0  0  0  0  0999 V2000
   20.9777  -22.0695  -16.4801 C   0  0  0  0  0  0  0  0  0  0  0  0
   20.6990  -22.0439  -14.9779 C   0  0  1  0  0  0  0  0  0  0  0  0
   20.6868  -23.4633  -14.5090 C   0  0  0  0  0  0  0  0  0  0  0  0
   21.7670  -21.2015  -14.3228 C   0  0  0  0  0  0  0  0  0  0  0  0
   21.6880  -21.2242  -12.8202 C   0  0  2  0  0  0  0  0  0  0  0  0
   20.5766  -20.4333  -12.3315 N   0  0  0  0  0  0  0  0  0  0  0  0
   22.9835  -20.7140  -12.2991 C   0  0  0  0  0  0  0  0  0  0  0  0
   23.2714  -19.4965  -12.4214 O   0  0  0  0  0  0  0  0  0  0  0  0
   23.9440  -21.5557  -11.6500 N   0  0  0  0  0  0  0  0  0  0  0  0
   25.2148  -21.0429  -11.1753 C   0  0  1  0  0  0  0  0  0  0  0  0
   25.6989  -21.8889  -10.0168 C   0  0  0  0  0  0  0  0  0  0  0  0
   26.8335  -21.2281   -9.3243 C   0  0  0  0  0  0  0  0  0  0  0  0
   26.6249  -20.2574   -8.3878 C   0  0  0  0  0  0  0  0  0  0  0  0
   27.6954  -19.6677   -7.7666 C   0  0  0  0  0  0  0  0  0  0  0  0
   28.9916  -20.0167   -8.0499 C   0  0  0  0  0  0  0  0  0  0  0  0
   29.2111  -20.9968   -8.9952 C   0  0  0  0  0  0  0  0  0  0  0  0
   28.1319  -21.5892   -9.6195 C   0  0  0  0  0  0  0  0  0  0  0  0
   26.1665  -21.0267  -12.2946 C   0  0  0  0  0  0  0  0  0  0  0  0
   26.7554  -22.0950  -12.6803 O   0  0  0  0  0  0  0  0  0  0  0  0
   26.5648  -20.4295  -17.9516 C   0  0  0  0  0  0  0  0  0  0  0  0
   27.3739  -20.1024  -16.7241 C   0  0  0  0  0  0  0  0  0  0  0  0
   26.5817  -20.0716  -15.4697 C   0  0  2  0  0  0  0  0  0  0  0  0
   25.4350  -19.0750  -15.5297 C   0  0  0  0  0  0  0  0  0  0  0  0
   27.3432  -19.8428  -14.2084 C   0  0  2  0  0  0  0  0  0  0  0  0
   26.5067  -19.8558  -13.0268 N   0  0  0  0  0  0  0  0  0  0  0  0
   28.2830  -18.7213  -14.2361 C   0  0  0  0  0  0  0  0  0  0  0  0
   28.2784  -17.6590  -13.3743 O   0  0  0  0  0  0  0  0  0  0  0  0
   29.1875  -18.7229  -15.1362 O   0  0  0  0  0  0  0  0  0  0  0  0
  2  4  1  0
  2  1  1  6
  3  2  1  0
  5  4  1  0
  5  6  1  6
  7  8  2  0
  7  5  1  0
  9  7  1  0
 10  9  1  0
 10 11  1  1
 11 12  1  0
 12 13  2  0
 12 17  1  0
 13 14  1  0
 14 15  2  0
 16 15  1  0
 17 16  2  0
 18 10  1  0
 19 18  2  0
 20 21  1  0
 21 22  1  0
 22 23  1  6
 24 22  1  0
 24 25  1  1
 25 18  1  0
 26 24  1  0
 27 26  1  0
 28 26  2  0
M  END
$$$$
