GND.pdb
     RDKit          3D

 21 20  0  0  1  0  0  0  0  0999 V2000
   26.6498  -24.1402  -16.2475 N   0  0  0  0  0  0  0  0  0  0  0  0
   26.4325  -22.8339  -15.7027 C   0  0  0  0  0  0  0  0  0  0  0  0
   25.2474  -22.8093  -14.7575 C   0  0  0  0  0  0  0  0  0  0  0  0
   24.5908  -23.8703  -14.7348 O   0  0  0  0  0  0  0  0  0  0  0  0
   25.5686  -22.5939  -11.0430 N   0  0  0  0  0  0  0  0  0  0  0  0
   25.2328  -21.1734  -10.9605 C   0  0  0  0  0  0  0  0  0  0  0  0
   25.7903  -20.6001  -10.0177 O   0  0  0  0  0  0  0  0  0  0  0  0
   24.3284  -20.6800  -11.9664 C   0  0  0  0  0  0  0  0  0  0  0  0
   23.8723  -21.5706  -13.0819 C   0  0  2  0  0  0  0  0  0  0  0  0
   25.0140  -21.6446  -14.0301 N   0  0  0  0  0  0  0  0  0  0  0  0
   22.6833  -21.1211  -13.8233 C   0  0  0  0  0  0  0  0  0  0  0  0
   22.7881  -20.0531  -14.5377 O   0  0  0  0  0  0  0  0  0  0  0  0
   21.4387  -21.7769  -13.8165 N   0  0  0  0  0  0  0  0  0  0  0  0
   20.2995  -21.2720  -14.5811 C   0  0  1  0  0  0  0  0  0  0  0  0
   19.8843  -22.2522  -15.6485 C   0  0  0  0  0  0  0  0  0  0  0  0
   18.8276  -21.7064  -16.5200 C   0  0  0  0  0  0  0  0  0  0  0  0
   18.9800  -21.7662  -17.7621 O   0  0  0  0  0  0  0  0  0  0  0  0
   19.2124  -20.8241  -13.7025 C   0  0  0  0  0  0  0  0  0  0  0  0
   18.7593  -21.5784  -12.8234 O   0  0  0  0  0  0  0  0  0  0  0  0
   17.6684  -21.1278  -16.0308 O   0  0  0  0  0  0  0  0  0  0  0  0
   18.6799  -19.5586  -13.8417 O   0  0  0  0  0  0  0  0  0  0  0  0
  2  1  1  0
  3  2  1  0
  3 10  1  0
  4  3  2  0
  5  6  1  0
  6  7  2  0
  6  8  1  0
  9  8  1  1
 10  9  1  0
 11  9  1  0
 12 11  2  0
 13 11  1  0
 14 13  1  0
 14 15  1  6
 16 15  1  0
 16 17  2  0
 18 14  1  0
 18 21  1  0
 19 18  2  0
 20 16  1  0
M  END
$$$$
