GND.pdb
     RDKit          3D

 21 20  0  0  1  0  0  0  0  0999 V2000
   18.2505  -12.0486  -17.3139 N   0  0  0  0  0  0  0  0  0  0  0  0
   18.5185  -10.6496  -17.4595 C   0  0  0  0  0  0  0  0  0  0  0  0
   19.4356  -10.1365  -16.3668 C   0  0  0  0  0  0  0  0  0  0  0  0
   19.7667  -11.0016  -15.5307 O   0  0  0  0  0  0  0  0  0  0  0  0
   21.9733   -9.7110  -13.2785 N   0  0  0  0  0  0  0  0  0  0  0  0
   22.6407   -9.8053  -14.5758 C   0  0  0  0  0  0  0  0  0  0  0  0
   23.6333  -10.5420  -14.5550 O   0  0  0  0  0  0  0  0  0  0  0  0
   22.0498   -9.0439  -15.6455 C   0  0  0  0  0  0  0  0  0  0  0  0
   20.7896   -8.2654  -15.4190 C   0  0  2  0  0  0  0  0  0  0  0  0
   19.8077   -8.7946  -16.4008 N   0  0  0  0  0  0  0  0  0  0  0  0
   20.8879   -6.8086  -15.6021 C   0  0  0  0  0  0  0  0  0  0  0  0
   21.1563   -6.3675  -16.7834 O   0  0  0  0  0  0  0  0  0  0  0  0
   20.7025   -5.8578  -14.5818 N   0  0  0  0  0  0  0  0  0  0  0  0
   20.7823   -4.4220  -14.8452 C   0  0  1  0  0  0  0  0  0  0  0  0
   19.4917   -3.7310  -14.4852 C   0  0  0  0  0  0  0  0  0  0  0  0
   19.5432   -2.2838  -14.7619 C   0  0  0  0  0  0  0  0  0  0  0  0
   20.1520   -1.8864  -15.7822 O   0  0  0  0  0  0  0  0  0  0  0  0
   21.9843   -3.8273  -14.2487 C   0  0  0  0  0  0  0  0  0  0  0  0
   22.5775   -4.4009  -13.3181 O   0  0  0  0  0  0  0  0  0  0  0  0
   18.9485   -1.3366  -13.9451 O   0  0  0  0  0  0  0  0  0  0  0  0
   22.4710   -2.6229  -14.7146 O   0  0  0  0  0  0  0  0  0  0  0  0
  2  1  1  0
  3  2  1  0
  3 10  1  0
  4  3  2  0
  5  6  1  0
  6  7  2  0
  6  8  1  0
  9  8  1  6
 10  9  1  0
 11  9  1  0
 12 11  2  0
 13 11  1  0
 14 13  1  0
 14 15  1  1
 16 15  1  0
 16 17  2  0
 18 14  1  0
 18 21  1  0
 19 18  2  0
 20 16  1  0
M  END
$$$$
