GND.pdb
     RDKit          3D

 21 20  0  0  1  0  0  0  0  0999 V2000
   24.6504  -14.3471  -19.2756 N   0  0  0  0  0  0  0  0  0  0  0  0
   24.5030  -14.7095  -17.8983 C   0  0  0  0  0  0  0  0  0  0  0  0
   24.1720  -16.1802  -17.7365 C   0  0  0  0  0  0  0  0  0  0  0  0
   23.3847  -16.6235  -18.5971 O   0  0  0  0  0  0  0  0  0  0  0  0
   25.7119  -20.5090  -17.6233 N   0  0  0  0  0  0  0  0  0  0  0  0
   26.3114  -19.9809  -16.3989 C   0  0  0  0  0  0  0  0  0  0  0  0
   27.3598  -20.5576  -16.0878 O   0  0  0  0  0  0  0  0  0  0  0  0
   25.6029  -18.8991  -15.7658 C   0  0  0  0  0  0  0  0  0  0  0  0
   24.4011  -18.2900  -16.4217 C   0  0  2  0  0  0  0  0  0  0  0  0
   24.7591  -16.8710  -16.6790 N   0  0  0  0  0  0  0  0  0  0  0  0
   23.1542  -18.3186  -15.6408 C   0  0  0  0  0  0  0  0  0  0  0  0
   23.1243  -17.6630  -14.5311 O   0  0  0  0  0  0  0  0  0  0  0  0
   21.9858  -19.0041  -16.0203 N   0  0  0  0  0  0  0  0  0  0  0  0
   20.7466  -18.8947  -15.2525 C   0  0  1  0  0  0  0  0  0  0  0  0
   19.7911  -17.9239  -15.8985 C   0  0  0  0  0  0  0  0  0  0  0  0
   18.5068  -17.8494  -15.1780 C   0  0  0  0  0  0  0  0  0  0  0  0
   18.4868  -18.1112  -13.9530 O   0  0  0  0  0  0  0  0  0  0  0  0
   20.1745  -20.2134  -14.9555 C   0  0  0  0  0  0  0  0  0  0  0  0
   20.2045  -21.1209  -15.8055 O   0  0  0  0  0  0  0  0  0  0  0  0
   17.3150  -17.5024  -15.7919 O   0  0  0  0  0  0  0  0  0  0  0  0
   19.5962  -20.4620  -13.7274 O   0  0  0  0  0  0  0  0  0  0  0  0
  2  1  1  0
  3  2  1  0
  3 10  1  0
  4  3  2  0
  5  6  1  0
  6  7  2  0
  6  8  1  0
  9  8  1  1
 10  9  1  0
 11  9  1  0
 12 11  2  0
 13 11  1  0
 14 13  1  0
 14 15  1  6
 16 15  1  0
 16 17  2  0
 18 14  1  0
 18 21  1  0
 19 18  2  0
 20 16  1  0
M  END
$$$$
