GND.pdb
     RDKit          3D

 21 20  0  0  1  0  0  0  0  0999 V2000
   14.5188   -9.4802  -13.5858 N   0  0  0  0  0  0  0  0  0  0  0  0
   15.6793   -9.5922  -12.7547 C   0  0  0  0  0  0  0  0  0  0  0  0
   16.2734   -8.2350  -12.4330 C   0  0  0  0  0  0  0  0  0  0  0  0
   16.0008   -7.3481  -13.2675 O   0  0  0  0  0  0  0  0  0  0  0  0
   15.4399   -5.5907   -9.8306 N   0  0  0  0  0  0  0  0  0  0  0  0
   16.4520   -6.0741   -8.8928 C   0  0  0  0  0  0  0  0  0  0  0  0
   16.1375   -5.8968   -7.7104 O   0  0  0  0  0  0  0  0  0  0  0  0
   17.6253   -6.6659   -9.4813 C   0  0  0  0  0  0  0  0  0  0  0  0
   17.7290   -6.8336  -10.9667 C   0  0  2  0  0  0  0  0  0  0  0  0
   17.0396   -8.1131  -11.2762 N   0  0  0  0  0  0  0  0  0  0  0  0
   19.0925   -6.8978  -11.5166 C   0  0  0  0  0  0  0  0  0  0  0  0
   19.7466   -7.9998  -11.3758 O   0  0  0  0  0  0  0  0  0  0  0  0
   19.7345   -5.8449  -12.1935 N   0  0  0  0  0  0  0  0  0  0  0  0
   20.9758   -6.0528  -12.9373 C   0  0  1  0  0  0  0  0  0  0  0  0
   20.8425   -7.1991  -13.9073 C   0  0  0  0  0  0  0  0  0  0  0  0
   22.0661   -7.3925  -14.7068 C   0  0  0  0  0  0  0  0  0  0  0  0
   22.0822   -6.9866  -15.8919 O   0  0  0  0  0  0  0  0  0  0  0  0
   21.4698   -4.8032  -13.5280 C   0  0  0  0  0  0  0  0  0  0  0  0
   22.6882   -4.6267  -13.7051 O   0  0  0  0  0  0  0  0  0  0  0  0
   23.2048   -8.0040  -14.2097 O   0  0  0  0  0  0  0  0  0  0  0  0
   20.5865   -3.8083  -13.8946 O   0  0  0  0  0  0  0  0  0  0  0  0
  2  1  1  0
  3  2  1  0
  3 10  1  0
  4  3  2  0
  5  6  1  0
  6  7  2  0
  6  8  1  0
  9  8  1  1
 10  9  1  0
 11  9  1  0
 12 11  2  0
 13 11  1  0
 14 13  1  0
 14 15  1  6
 16 15  1  0
 16 17  2  0
 18 14  1  0
 18 21  1  0
 19 18  2  0
 20 16  1  0
M  END
$$$$
