GND.pdb
     RDKit          3D

 21 20  0  0  1  0  0  0  0  0999 V2000
   11.5170  -11.2390   -9.3435 N   0  0  0  0  0  0  0  0  0  0  0  0
   12.9217  -11.0030   -9.1973 C   0  0  0  0  0  0  0  0  0  0  0  0
   13.2706   -9.5422   -9.4047 C   0  0  0  0  0  0  0  0  0  0  0  0
   12.3310   -8.8514   -9.8487 O   0  0  0  0  0  0  0  0  0  0  0  0
   15.2950   -4.7662   -7.8193 N   0  0  0  0  0  0  0  0  0  0  0  0
   16.1406   -5.9572   -7.8820 C   0  0  0  0  0  0  0  0  0  0  0  0
   17.3478   -5.6944   -7.8365 O   0  0  0  0  0  0  0  0  0  0  0  0
   15.4496   -7.2163   -7.9839 C   0  0  0  0  0  0  0  0  0  0  0  0
   14.9690   -7.7147   -9.3128 C   0  0  2  0  0  0  0  0  0  0  0  0
   14.5622   -9.1264   -9.0898 N   0  0  0  0  0  0  0  0  0  0  0  0
   15.9507   -7.6835  -10.4086 C   0  0  0  0  0  0  0  0  0  0  0  0
   16.9150   -8.5385  -10.3768 O   0  0  0  0  0  0  0  0  0  0  0  0
   15.9104   -6.7920  -11.4962 N   0  0  0  0  0  0  0  0  0  0  0  0
   16.9007   -6.8445  -12.5703 C   0  0  1  0  0  0  0  0  0  0  0  0
   16.6251   -7.9924  -13.5078 C   0  0  0  0  0  0  0  0  0  0  0  0
   17.5279   -7.9837  -14.6735 C   0  0  0  0  0  0  0  0  0  0  0  0
   17.1375   -7.4433  -15.7343 O   0  0  0  0  0  0  0  0  0  0  0  0
   17.0591   -5.5408  -13.2260 C   0  0  0  0  0  0  0  0  0  0  0  0
   16.1547   -4.6892  -13.1651 O   0  0  0  0  0  0  0  0  0  0  0  0
   18.7931   -8.5464  -14.6537 O   0  0  0  0  0  0  0  0  0  0  0  0
   18.2155   -5.2446  -13.9183 O   0  0  0  0  0  0  0  0  0  0  0  0
  2  1  1  0
  3  2  1  0
  3 10  1  0
  4  3  2  0
  5  6  1  0
  6  7  2  0
  6  8  1  0
  9  8  1  1
 10  9  1  0
 11  9  1  0
 12 11  2  0
 13 11  1  0
 14 13  1  0
 14 15  1  6
 16 15  1  0
 16 17  2  0
 18 14  1  0
 18 21  1  0
 19 18  2  0
 20 16  1  0
M  END
$$$$
