GND.pdb
     RDKit          3D

 21 20  0  0  1  0  0  0  0  0999 V2000
   15.3879   -5.8624   -7.4346 N   0  0  0  0  0  0  0  0  0  0  0  0
   15.2616   -6.0203   -8.8521 C   0  0  0  0  0  0  0  0  0  0  0  0
   16.3317   -6.9361   -9.4130 C   0  0  0  0  0  0  0  0  0  0  0  0
   17.3749   -6.9802   -8.7296 O   0  0  0  0  0  0  0  0  0  0  0  0
   16.2584  -10.7514   -9.7525 N   0  0  0  0  0  0  0  0  0  0  0  0
   15.9101  -10.7307  -11.1722 C   0  0  0  0  0  0  0  0  0  0  0  0
   15.2757  -11.7305  -11.5277 O   0  0  0  0  0  0  0  0  0  0  0  0
   16.3503   -9.5769  -11.9126 C   0  0  0  0  0  0  0  0  0  0  0  0
   17.0953   -8.4721  -11.2270 C   0  0  2  0  0  0  0  0  0  0  0  0
   16.0563   -7.6170  -10.5966 N   0  0  0  0  0  0  0  0  0  0  0  0
   17.9318   -7.6234  -12.0904 C   0  0  0  0  0  0  0  0  0  0  0  0
   17.3362   -6.7943  -12.8777 O   0  0  0  0  0  0  0  0  0  0  0  0
   19.3383   -7.6442  -12.1148 N   0  0  0  0  0  0  0  0  0  0  0  0
   20.1042   -6.7875  -13.0185 C   0  0  1  0  0  0  0  0  0  0  0  0
   21.0009   -5.8509  -12.2495 C   0  0  0  0  0  0  0  0  0  0  0  0
   21.8593   -5.0499  -13.1414 C   0  0  0  0  0  0  0  0  0  0  0  0
   21.3293   -4.1669  -13.8549 O   0  0  0  0  0  0  0  0  0  0  0  0
   20.7813   -7.5675  -14.0614 C   0  0  0  0  0  0  0  0  0  0  0  0
   21.2642   -7.0031  -15.0589 O   0  0  0  0  0  0  0  0  0  0  0  0
   23.2300   -5.2261  -13.2299 O   0  0  0  0  0  0  0  0  0  0  0  0
   20.8904   -8.9384  -13.9465 O   0  0  0  0  0  0  0  0  0  0  0  0
  2  1  1  0
  3  2  1  0
  3 10  1  0
  4  3  2  0
  5  6  1  0
  6  7  2  0
  6  8  1  0
  9  8  1  6
 10  9  1  0
 11  9  1  0
 12 11  2  0
 13 11  1  0
 14 13  1  0
 14 15  1  1
 16 15  1  0
 16 17  2  0
 18 14  1  0
 18 21  1  0
 19 18  2  0
 20 16  1  0
M  END
$$$$
