GND.pdb
     RDKit          3D

 21 20  0  0  1  0  0  0  0  0999 V2000
   16.0638  -10.5140  -14.1865 N   0  0  0  0  0  0  0  0  0  0  0  0
   16.8762   -9.9440  -15.2186 C   0  0  0  0  0  0  0  0  0  0  0  0
   18.1299   -9.3026  -14.6571 C   0  0  0  0  0  0  0  0  0  0  0  0
   18.0564   -9.0141  -13.4453 O   0  0  0  0  0  0  0  0  0  0  0  0
   23.1701   -7.7743  -14.5238 N   0  0  0  0  0  0  0  0  0  0  0  0
   22.9448   -9.0286  -15.2402 C   0  0  0  0  0  0  0  0  0  0  0  0
   23.9913   -9.6412  -15.4809 O   0  0  0  0  0  0  0  0  0  0  0  0
   21.5730   -9.3435  -15.5439 C   0  0  0  0  0  0  0  0  0  0  0  0
   20.4616   -8.4868  -15.0180 C   0  0  2  0  0  0  0  0  0  0  0  0
   19.2062   -9.1043  -15.5188 N   0  0  0  0  0  0  0  0  0  0  0  0
   20.4811   -7.0754  -15.4338 C   0  0  0  0  0  0  0  0  0  0  0  0
   20.2879   -6.8130  -16.6812 O   0  0  0  0  0  0  0  0  0  0  0  0
   20.6878   -5.9868  -14.5670 N   0  0  0  0  0  0  0  0  0  0  0  0
   20.7277   -4.6102  -15.0575 C   0  0  1  0  0  0  0  0  0  0  0  0
   19.4808   -3.8580  -14.6677 C   0  0  0  0  0  0  0  0  0  0  0  0
   19.5185   -2.4541  -15.1163 C   0  0  0  0  0  0  0  0  0  0  0  0
   19.8317   -2.2091  -16.3044 O   0  0  0  0  0  0  0  0  0  0  0  0
   21.9847   -3.9428  -14.6984 C   0  0  0  0  0  0  0  0  0  0  0  0
   22.7434   -4.4405  -13.8478 O   0  0  0  0  0  0  0  0  0  0  0  0
   19.2231   -1.3868  -14.2848 O   0  0  0  0  0  0  0  0  0  0  0  0
   22.3399   -2.7536  -15.3018 O   0  0  0  0  0  0  0  0  0  0  0  0
  2  1  1  0
  3  2  1  0
  3 10  1  0
  4  3  2  0
  5  6  1  0
  6  7  2  0
  6  8  1  0
  9  8  1  6
 10  9  1  0
 11  9  1  0
 12 11  2  0
 13 11  1  0
 14 13  1  0
 14 15  1  1
 16 15  1  0
 16 17  2  0
 18 14  1  0
 18 21  1  0
 19 18  2  0
 20 16  1  0
M  END
$$$$
