GND.pdb
     RDKit          3D

 21 20  0  0  1  0  0  0  0  0999 V2000
   17.0681  -11.4603  -16.1547 N   0  0  0  0  0  0  0  0  0  0  0  0
   17.3025  -10.0686  -15.9131 C   0  0  0  0  0  0  0  0  0  0  0  0
   17.8309   -9.8225  -14.5135 C   0  0  0  0  0  0  0  0  0  0  0  0
   17.6320  -10.7649  -13.7201 O   0  0  0  0  0  0  0  0  0  0  0  0
   21.7242   -5.8955  -12.1047 N   0  0  0  0  0  0  0  0  0  0  0  0
   21.1568   -7.2410  -12.0334 C   0  0  0  0  0  0  0  0  0  0  0  0
   21.4824   -7.8478  -11.0067 O   0  0  0  0  0  0  0  0  0  0  0  0
   20.3287   -7.6357  -13.1433 C   0  0  0  0  0  0  0  0  0  0  0  0
   19.0192   -8.3251  -12.9079 C   0  0  2  0  0  0  0  0  0  0  0  0
   18.4661   -8.6096  -14.2574 N   0  0  0  0  0  0  0  0  0  0  0  0
   18.0154   -7.5641  -12.1472 C   0  0  0  0  0  0  0  0  0  0  0  0
   17.4541   -6.5598  -12.7290 O   0  0  0  0  0  0  0  0  0  0  0  0
   17.6158   -7.8568  -10.8304 N   0  0  0  0  0  0  0  0  0  0  0  0
   16.6015   -7.0619  -10.1402 C   0  0  1  0  0  0  0  0  0  0  0  0
   15.7799   -7.9183   -9.2106 C   0  0  0  0  0  0  0  0  0  0  0  0
   14.7669   -8.7071   -9.9355 C   0  0  0  0  0  0  0  0  0  0  0  0
   14.5005   -8.4023  -11.1211 O   0  0  0  0  0  0  0  0  0  0  0  0
   17.1805   -5.8640   -9.5203 C   0  0  0  0  0  0  0  0  0  0  0  0
   16.4451   -4.9666   -9.0722 O   0  0  0  0  0  0  0  0  0  0  0  0
   14.0916   -9.7744   -9.3675 O   0  0  0  0  0  0  0  0  0  0  0  0
   18.5497   -5.7197   -9.4271 O   0  0  0  0  0  0  0  0  0  0  0  0
  2  1  1  0
  3  2  1  0
  3 10  1  0
  4  3  2  0
  5  6  1  0
  6  7  2  0
  6  8  1  0
  9  8  1  6
 10  9  1  0
 11  9  1  0
 12 11  2  0
 13 11  1  0
 14 13  1  0
 14 15  1  1
 16 15  1  0
 16 17  2  0
 18 14  1  0
 18 21  1  0
 19 18  2  0
 20 16  1  0
M  END
$$$$
