GND.pdb
     RDKit          3D

 21 20  0  0  1  0  0  0  0  0999 V2000
   28.0534  -22.2095  -15.7412 N   0  0  0  0  0  0  0  0  0  0  0  0
   27.2284  -21.1330  -15.2822 C   0  0  0  0  0  0  0  0  0  0  0  0
   26.1192  -21.6234  -14.3725 C   0  0  0  0  0  0  0  0  0  0  0  0
   25.8541  -22.8362  -14.4995 O   0  0  0  0  0  0  0  0  0  0  0  0
   26.1724  -22.1993  -10.6982 N   0  0  0  0  0  0  0  0  0  0  0  0
   25.5334  -20.9285  -10.3602 C   0  0  0  0  0  0  0  0  0  0  0  0
   25.8923  -20.4850   -9.2634 O   0  0  0  0  0  0  0  0  0  0  0  0
   24.6105  -20.4081  -11.3352 C   0  0  0  0  0  0  0  0  0  0  0  0
   24.3972  -21.1199  -12.6365 C   0  0  2  0  0  0  0  0  0  0  0  0
   25.5238  -20.7043  -13.5117 N   0  0  0  0  0  0  0  0  0  0  0  0
   23.1357  -20.8262  -13.3349 C   0  0  0  0  0  0  0  0  0  0  0  0
   22.9794  -19.6429  -13.8223 O   0  0  0  0  0  0  0  0  0  0  0  0
   22.0873  -21.7463  -13.5178 N   0  0  0  0  0  0  0  0  0  0  0  0
   20.8401  -21.3689  -14.1806 C   0  0  1  0  0  0  0  0  0  0  0  0
   20.2452  -22.5371  -14.9248 C   0  0  0  0  0  0  0  0  0  0  0  0
   18.9527  -22.1965  -15.5470 C   0  0  0  0  0  0  0  0  0  0  0  0
   18.8012  -21.0523  -16.0344 O   0  0  0  0  0  0  0  0  0  0  0  0
   19.9183  -20.6948  -13.2584 C   0  0  0  0  0  0  0  0  0  0  0  0
   19.7572  -21.1223  -12.1017 O   0  0  0  0  0  0  0  0  0  0  0  0
   17.8918  -23.0837  -15.6199 O   0  0  0  0  0  0  0  0  0  0  0  0
   19.2191  -19.5767  -13.6650 O   0  0  0  0  0  0  0  0  0  0  0  0
  2  1  1  0
  3  2  1  0
  3 10  1  0
  4  3  2  0
  5  6  1  0
  6  7  2  0
  6  8  1  0
  9  8  1  1
 10  9  1  0
 11  9  1  0
 12 11  2  0
 13 11  1  0
 14 13  1  0
 14 15  1  1
 16 15  1  0
 16 17  2  0
 18 14  1  0
 18 21  1  0
 19 18  2  0
 20 16  1  0
M  END
$$$$
