GND.pdb
     RDKit          3D

 21 20  0  0  1  0  0  0  0  0999 V2000
   27.5264  -18.8214  -18.6953 N   0  0  0  0  0  0  0  0  0  0  0  0
   26.7786  -17.6070  -18.5675 C   0  0  0  0  0  0  0  0  0  0  0  0
   27.2797  -16.5360  -19.5165 C   0  0  0  0  0  0  0  0  0  0  0  0
   28.2262  -16.9007  -20.2432 O   0  0  0  0  0  0  0  0  0  0  0  0
   24.0614  -15.3171  -22.4244 N   0  0  0  0  0  0  0  0  0  0  0  0
   25.4311  -14.8068  -22.3955 C   0  0  0  0  0  0  0  0  0  0  0  0
   26.1017  -15.1702  -23.3685 O   0  0  0  0  0  0  0  0  0  0  0  0
   25.7728  -13.9819  -21.2659 C   0  0  0  0  0  0  0  0  0  0  0  0
   27.0206  -14.2475  -20.4799 C   0  0  2  0  0  0  0  0  0  0  0  0
   26.6559  -15.2909  -19.4867 N   0  0  0  0  0  0  0  0  0  0  0  0
   27.5862  -13.0976  -19.7565 C   0  0  0  0  0  0  0  0  0  0  0  0
   26.8825  -12.5771  -18.8100 O   0  0  0  0  0  0  0  0  0  0  0  0
   28.8455  -12.5270  -20.0170 N   0  0  0  0  0  0  0  0  0  0  0  0
   29.3725  -11.4268  -19.2113 C   0  0  1  0  0  0  0  0  0  0  0  0
   30.7240  -11.7712  -18.6393 C   0  0  0  0  0  0  0  0  0  0  0  0
   31.3166  -10.6409  -17.9009 C   0  0  0  0  0  0  0  0  0  0  0  0
   30.6003  -10.0085  -17.0905 O   0  0  0  0  0  0  0  0  0  0  0  0
   29.3191  -10.1508  -19.9349 C   0  0  0  0  0  0  0  0  0  0  0  0
   29.4737  -10.1173  -21.1685 O   0  0  0  0  0  0  0  0  0  0  0  0
   32.6331  -10.2416  -18.0595 O   0  0  0  0  0  0  0  0  0  0  0  0
   29.0959   -8.9717  -19.2534 O   0  0  0  0  0  0  0  0  0  0  0  0
  2  1  1  0
  3  2  1  0
  3 10  1  0
  4  3  2  0
  5  6  1  0
  6  7  2  0
  6  8  1  0
  9  8  1  1
 10  9  1  0
 11  9  1  0
 12 11  2  0
 13 11  1  0
 14 13  1  0
 14 15  1  6
 16 15  1  0
 16 17  2  0
 18 14  1  0
 18 21  1  0
 19 18  2  0
 20 16  1  0
M  END
$$$$
