GND.pdb
     RDKit          3D

 21 20  0  0  1  0  0  0  0  0999 V2000
   13.3766  -10.1707  -12.8959 N   0  0  0  0  0  0  0  0  0  0  0  0
   14.5775   -9.4583  -13.2130 C   0  0  0  0  0  0  0  0  0  0  0  0
   14.7693   -8.2522  -12.3146 C   0  0  0  0  0  0  0  0  0  0  0  0
   13.7833   -7.9892  -11.5965 O   0  0  0  0  0  0  0  0  0  0  0  0
   17.2234   -4.3729   -9.7905 N   0  0  0  0  0  0  0  0  0  0  0  0
   17.4583   -5.7720   -9.4371 C   0  0  0  0  0  0  0  0  0  0  0  0
   17.9933   -5.9066   -8.3308 O   0  0  0  0  0  0  0  0  0  0  0  0
   17.0389   -6.7469  -10.4102 C   0  0  0  0  0  0  0  0  0  0  0  0
   16.1961   -6.3396  -11.5804 C   0  0  2  0  0  0  0  0  0  0  0  0
   15.9864   -7.5775  -12.3753 N   0  0  0  0  0  0  0  0  0  0  0  0
   16.7704   -5.3133  -12.4648 C   0  0  0  0  0  0  0  0  0  0  0  0
   17.8435   -5.6111  -13.1144 O   0  0  0  0  0  0  0  0  0  0  0  0
   16.2292   -4.0297  -12.6609 N   0  0  0  0  0  0  0  0  0  0  0  0
   16.8542   -3.0609  -13.5598 C   0  0  1  0  0  0  0  0  0  0  0  0
   15.8918   -2.6135  -14.6305 C   0  0  0  0  0  0  0  0  0  0  0  0
   16.4941   -1.6165  -15.5343 C   0  0  0  0  0  0  0  0  0  0  0  0
   17.6882   -1.2829  -15.3539 O   0  0  0  0  0  0  0  0  0  0  0  0
   17.4980   -1.9699  -12.8183 C   0  0  0  0  0  0  0  0  0  0  0  0
   17.0425   -1.5958  -11.7231 O   0  0  0  0  0  0  0  0  0  0  0  0
   15.8015   -1.0271  -16.5786 O   0  0  0  0  0  0  0  0  0  0  0  0
   18.6182   -1.3461  -13.3286 O   0  0  0  0  0  0  0  0  0  0  0  0
  2  1  1  0
  3  2  1  0
  3 10  1  0
  4  3  2  0
  5  6  1  0
  6  7  2  0
  6  8  1  0
  9  8  1  1
 10  9  1  0
 11  9  1  0
 12 11  2  0
 13 11  1  0
 14 13  1  0
 14 15  1  6
 16 15  1  0
 16 17  2  0
 18 14  1  0
 18 21  1  0
 19 18  2  0
 20 16  1  0
M  END
$$$$
