GND.pdb
     RDKit          3D

 21 20  0  0  1  0  0  0  0  0999 V2000
   16.3458  -14.6727  -16.2332 N   0  0  0  0  0  0  0  0  0  0  0  0
   17.1937  -14.0866  -17.2270 C   0  0  0  0  0  0  0  0  0  0  0  0
   18.0688  -12.9936  -16.6454 C   0  0  0  0  0  0  0  0  0  0  0  0
   18.1691  -13.0280  -15.4021 O   0  0  0  0  0  0  0  0  0  0  0  0
   22.4672  -12.7633  -18.3778 N   0  0  0  0  0  0  0  0  0  0  0  0
   21.9567  -11.7448  -17.4617 C   0  0  0  0  0  0  0  0  0  0  0  0
   22.6404  -11.6307  -16.4380 O   0  0  0  0  0  0  0  0  0  0  0  0
   20.7678  -11.0530  -17.8874 C   0  0  0  0  0  0  0  0  0  0  0  0
   19.5525  -11.0195  -17.0113 C   0  0  2  0  0  0  0  0  0  0  0  0
   18.6565  -12.0877  -17.5252 N   0  0  0  0  0  0  0  0  0  0  0  0
   18.8019   -9.7539  -16.9950 C   0  0  0  0  0  0  0  0  0  0  0  0
   18.1755   -9.4121  -18.0687 O   0  0  0  0  0  0  0  0  0  0  0  0
   18.7104   -8.8900  -15.8884 N   0  0  0  0  0  0  0  0  0  0  0  0
   17.9699   -7.6313  -15.9549 C   0  0  1  0  0  0  0  0  0  0  0  0
   17.0829   -7.4583  -14.7483 C   0  0  0  0  0  0  0  0  0  0  0  0
   15.8377   -8.2397  -14.8604 C   0  0  0  0  0  0  0  0  0  0  0  0
   15.5964   -8.8386  -15.9341 O   0  0  0  0  0  0  0  0  0  0  0  0
   18.8561   -6.4948  -16.2333 C   0  0  0  0  0  0  0  0  0  0  0  0
   20.0916   -6.6354  -16.2042 O   0  0  0  0  0  0  0  0  0  0  0  0
   14.9164   -8.3452  -13.8319 O   0  0  0  0  0  0  0  0  0  0  0  0
   18.3278   -5.2553  -16.5314 O   0  0  0  0  0  0  0  0  0  0  0  0
  2  1  1  0
  3  2  1  0
  3 10  1  0
  4  3  2  0
  5  6  1  0
  6  7  2  0
  6  8  1  0
  9  8  1  6
 10  9  1  0
 11  9  1  0
 12 11  2  0
 13 11  1  0
 14 13  1  0
 14 15  1  1
 16 15  1  0
 16 17  2  0
 18 14  1  0
 18 21  1  0
 19 18  2  0
 20 16  1  0
M  END
$$$$
