GND.pdb
     RDKit          3D

 21 20  0  0  1  0  0  0  0  0999 V2000
   18.2175  -12.0843  -16.2274 N   0  0  0  0  0  0  0  0  0  0  0  0
   18.5630  -10.7870  -16.7252 C   0  0  0  0  0  0  0  0  0  0  0  0
   19.6800  -10.1547  -15.9184 C   0  0  0  0  0  0  0  0  0  0  0  0
   19.5432  -10.2662  -14.6831 O   0  0  0  0  0  0  0  0  0  0  0  0
   23.4791  -10.9901  -14.9788 N   0  0  0  0  0  0  0  0  0  0  0  0
   23.9221  -10.2737  -16.1738 C   0  0  0  0  0  0  0  0  0  0  0  0
   24.9838  -10.7108  -16.6322 O   0  0  0  0  0  0  0  0  0  0  0  0
   23.0717   -9.1993  -16.6162 C   0  0  0  0  0  0  0  0  0  0  0  0
   21.8170   -8.8650  -15.8680 C   0  0  2  0  0  0  0  0  0  0  0  0
   20.7162   -9.5320  -16.6105 N   0  0  0  0  0  0  0  0  0  0  0  0
   21.4958   -7.4337  -15.7511 C   0  0  0  0  0  0  0  0  0  0  0  0
   21.2961   -6.7713  -16.8389 O   0  0  0  0  0  0  0  0  0  0  0  0
   21.3824   -6.7340  -14.5360 N   0  0  0  0  0  0  0  0  0  0  0  0
   21.1266   -5.2951  -14.4984 C   0  0  1  0  0  0  0  0  0  0  0  0
   19.7217   -5.0049  -14.0348 C   0  0  0  0  0  0  0  0  0  0  0  0
   19.0764   -3.9572  -14.8470 C   0  0  0  0  0  0  0  0  0  0  0  0
   18.3511   -4.3013  -15.8088 O   0  0  0  0  0  0  0  0  0  0  0  0
   22.1757   -4.5768  -13.7650 C   0  0  0  0  0  0  0  0  0  0  0  0
   22.5007   -3.4228  -14.0962 O   0  0  0  0  0  0  0  0  0  0  0  0
   19.2333   -2.6040  -14.5979 O   0  0  0  0  0  0  0  0  0  0  0  0
   22.8142   -5.1744  -12.6975 O   0  0  0  0  0  0  0  0  0  0  0  0
  2  1  1  0
  3  2  1  0
  3 10  1  0
  4  3  2  0
  5  6  1  0
  6  7  2  0
  6  8  1  0
  9  8  1  6
 10  9  1  0
 11  9  1  0
 12 11  2  0
 13 11  1  0
 14 13  1  0
 14 15  1  1
 16 15  1  0
 16 17  2  0
 18 14  1  0
 18 21  1  0
 19 18  2  0
 20 16  1  0
M  END
$$$$
