GND.pdb
     RDKit          3D

 21 20  0  0  1  0  0  0  0  0999 V2000
   23.1003  -13.8607  -18.2092 N   0  0  0  0  0  0  0  0  0  0  0  0
   23.6407  -12.6539  -18.7586 C   0  0  0  0  0  0  0  0  0  0  0  0
   24.3288  -11.8138  -17.7006 C   0  0  0  0  0  0  0  0  0  0  0  0
   25.1940  -12.4284  -17.0443 O   0  0  0  0  0  0  0  0  0  0  0  0
   26.7487  -10.2720  -14.8281 N   0  0  0  0  0  0  0  0  0  0  0  0
   27.1553   -9.9064  -16.1840 C   0  0  0  0  0  0  0  0  0  0  0  0
   28.3806   -9.9387  -16.3451 O   0  0  0  0  0  0  0  0  0  0  0  0
   26.0898   -9.5753  -17.0940 C   0  0  0  0  0  0  0  0  0  0  0  0
   24.6645   -9.5829  -16.6314 C   0  0  2  0  0  0  0  0  0  0  0  0
   23.9422  -10.4821  -17.5683 N   0  0  0  0  0  0  0  0  0  0  0  0
   23.9811   -8.2798  -16.6211 C   0  0  0  0  0  0  0  0  0  0  0  0
   23.8670   -7.6515  -17.7411 O   0  0  0  0  0  0  0  0  0  0  0  0
   23.4341   -7.6701  -15.4773 N   0  0  0  0  0  0  0  0  0  0  0  0
   22.6980   -6.4094  -15.5556 C   0  0  1  0  0  0  0  0  0  0  0  0
   21.5271   -6.4040  -14.6061 C   0  0  0  0  0  0  0  0  0  0  0  0
   20.7705   -5.1401  -14.6679 C   0  0  0  0  0  0  0  0  0  0  0  0
   19.8727   -5.0168  -15.5330 O   0  0  0  0  0  0  0  0  0  0  0  0
   23.5916   -5.2513  -15.4349 C   0  0  0  0  0  0  0  0  0  0  0  0
   23.1696   -4.1023  -15.6551 O   0  0  0  0  0  0  0  0  0  0  0  0
   21.0044   -4.0766  -13.8123 O   0  0  0  0  0  0  0  0  0  0  0  0
   24.9125   -5.4244  -15.0745 O   0  0  0  0  0  0  0  0  0  0  0  0
  2  1  1  0
  3  2  1  0
  3 10  1  0
  4  3  2  0
  5  6  1  0
  6  7  2  0
  6  8  1  0
  9  8  1  6
 10  9  1  0
 11  9  1  0
 12 11  2  0
 13 11  1  0
 14 13  1  0
 14 15  1  1
 16 15  1  0
 16 17  2  0
 18 14  1  0
 18 21  1  0
 19 18  2  0
 20 16  1  0
M  END
$$$$
