HAY.pdb
     RDKit          3D

 28 29  0  0  1  0  0  0  0  0999 V2000
   17.9698  -12.5936  -16.4089 N   0  0  0  0  0  0  0  0  0  0  0  0
   18.9383  -11.7775  -17.0825 C   0  0  1  0  0  0  0  0  0  0  0  0
   18.1661  -10.8519  -18.0219 C   0  0  0  0  0  0  0  0  0  0  0  0
   17.5796  -11.6916  -19.0990 C   0  0  0  0  0  0  0  0  0  0  0  0
   16.2464  -12.1079  -19.1845 C   0  0  0  0  0  0  0  0  0  0  0  0
   16.1032  -12.8484  -20.2952 N   0  0  0  0  0  0  0  0  0  0  0  0
   17.2784  -12.9141  -20.9049 C   0  0  0  0  0  0  0  0  0  0  0  0
   18.1855  -12.2129  -20.1850 N   0  0  0  0  0  0  0  0  0  0  0  0
   19.7049  -10.9155  -16.1489 C   0  0  0  0  0  0  0  0  0  0  0  0
   19.1060  -10.2810  -15.2432 O   0  0  0  0  0  0  0  0  0  0  0  0
   23.3674  -10.1720  -15.4341 C   0  0  0  0  0  0  0  0  0  0  0  0
   21.8808   -9.9113  -15.3507 C   0  0  2  0  0  0  0  0  0  0  0  0
   21.1167  -10.7591  -16.2187 N   0  0  0  0  0  0  0  0  0  0  0  0
   21.5529   -8.4776  -15.5821 C   0  0  0  0  0  0  0  0  0  0  0  0
   21.1832   -8.0636  -16.7264 O   0  0  0  0  0  0  0  0  0  0  0  0
   19.3809   -0.1728  -15.5317 O   0  0  0  0  0  0  0  0  0  0  0  0
   19.5555   -1.5309  -15.3941 C   0  0  0  0  0  0  0  0  0  0  0  0
   20.1425   -2.0138  -14.2570 C   0  0  0  0  0  0  0  0  0  0  0  0
   20.3199   -3.3795  -14.1149 C   0  0  0  0  0  0  0  0  0  0  0  0
   19.9123   -4.2383  -15.1015 C   0  0  0  0  0  0  0  0  0  0  0  0
   20.1028   -5.6847  -14.9456 C   0  0  0  0  0  0  0  0  0  0  0  0
   21.5299   -6.0958  -14.7508 C   0  0  2  0  0  0  0  0  0  0  0  0
   21.6382   -7.5266  -14.5491 N   0  0  0  0  0  0  0  0  0  0  0  0
   22.2006   -5.3369  -13.6654 C   0  0  0  0  0  0  0  0  0  0  0  0
   22.0506   -5.7069  -12.4739 O   0  0  0  0  0  0  0  0  0  0  0  0
   19.3280   -3.7300  -16.2288 C   0  0  0  0  0  0  0  0  0  0  0  0
   19.1396   -2.3804  -16.3964 C   0  0  0  0  0  0  0  0  0  0  0  0
   22.9924   -4.2293  -13.8992 O   0  0  0  0  0  0  0  0  0  0  0  0
  2  1  1  1
  2  9  1  0
  3  2  1  0
  4  3  1  0
  5  4  2  0
  6  5  1  0
  6  7  1  0
  7  8  2  0
  8  4  1  0
  9 10  2  0
 12 11  1  6
 13  9  1  0
 13 12  1  0
 14 15  2  0
 14 12  1  0
 16 17  1  0
 17 27  2  0
 17 18  1  0
 18 19  2  0
 19 20  1  0
 20 21  1  0
 22 21  1  1
 22 23  1  0
 23 14  1  0
 24 22  1  0
 24 28  1  0
 25 24  2  0
 26 20  2  0
 27 26  1  0
M  END
$$$$
