HAY.pdb
     RDKit          3D

 28 29  0  0  1  0  0  0  0  0999 V2000
   18.8579  -11.9104  -17.7855 N   0  0  0  0  0  0  0  0  0  0  0  0
   19.1772  -11.8664  -16.3878 C   0  0  1  0  0  0  0  0  0  0  0  0
   19.8634  -13.1881  -16.0448 C   0  0  0  0  0  0  0  0  0  0  0  0
   18.8375  -14.2608  -16.1217 C   0  0  0  0  0  0  0  0  0  0  0  0
   17.4577  -14.0936  -15.9591 C   0  0  0  0  0  0  0  0  0  0  0  0
   16.8655  -15.2904  -16.0989 N   0  0  0  0  0  0  0  0  0  0  0  0
   17.8057  -16.1932  -16.3400 C   0  0  0  0  0  0  0  0  0  0  0  0
   19.0112  -15.5773  -16.3561 N   0  0  0  0  0  0  0  0  0  0  0  0
   20.1295  -10.7778  -16.0550 C   0  0  0  0  0  0  0  0  0  0  0  0
   20.5312  -10.6335  -14.8720 O   0  0  0  0  0  0  0  0  0  0  0  0
   22.0821   -8.1117  -17.9448 C   0  0  0  0  0  0  0  0  0  0  0  0
   21.4703   -8.7413  -16.7142 C   0  0  2  0  0  0  0  0  0  0  0  0
   20.6296   -9.8617  -17.0208 N   0  0  0  0  0  0  0  0  0  0  0  0
   20.7454   -7.7437  -15.8800 C   0  0  0  0  0  0  0  0  0  0  0  0
   19.5200   -7.4761  -16.0904 O   0  0  0  0  0  0  0  0  0  0  0  0
   18.4667   -2.9101   -8.9660 O   0  0  0  0  0  0  0  0  0  0  0  0
   19.1266   -3.7402   -9.8431 C   0  0  0  0  0  0  0  0  0  0  0  0
   19.6780   -3.2073  -10.9756 C   0  0  0  0  0  0  0  0  0  0  0  0
   20.3427   -4.0391  -11.8604 C   0  0  0  0  0  0  0  0  0  0  0  0
   20.4475   -5.3811  -11.6055 C   0  0  0  0  0  0  0  0  0  0  0  0
   21.1531   -6.2581  -12.5466 C   0  0  0  0  0  0  0  0  0  0  0  0
   20.7276   -6.0920  -13.9732 C   0  0  2  0  0  0  0  0  0  0  0  0
   21.3835   -7.0593  -14.8297 N   0  0  0  0  0  0  0  0  0  0  0  0
   20.9156   -4.7051  -14.4683 C   0  0  0  0  0  0  0  0  0  0  0  0
   22.0552   -4.3384  -14.8504 O   0  0  0  0  0  0  0  0  0  0  0  0
   19.8873   -5.8892  -10.4659 C   0  0  0  0  0  0  0  0  0  0  0  0
   19.2225   -5.0878   -9.5709 C   0  0  0  0  0  0  0  0  0  0  0  0
   19.8892   -3.7827  -14.5320 O   0  0  0  0  0  0  0  0  0  0  0  0
  2  1  1  6
  2  9  1  0
  3  2  1  0
  4  3  1  0
  5  4  2  0
  6  5  1  0
  6  7  1  0
  7  8  2  0
  8  4  1  0
  9 10  2  0
 12 11  1  6
 13  9  1  0
 13 12  1  0
 14 15  2  0
 14 12  1  0
 16 17  1  0
 17 27  2  0
 17 18  1  0
 18 19  2  0
 19 20  1  0
 20 21  1  0
 22 21  1  1
 22 23  1  0
 23 14  1  0
 24 22  1  0
 24 28  1  0
 25 24  2  0
 26 20  2  0
 27 26  1  0
M  END
$$$$
