HAY.pdb
     RDKit          3D

 28 29  0  0  1  0  0  0  0  0999 V2000
   17.7655  -10.2878  -17.1328 N   0  0  0  0  0  0  0  0  0  0  0  0
   18.7277  -10.2904  -16.0690 C   0  0  1  0  0  0  0  0  0  0  0  0
   19.4836  -11.6159  -16.1540 C   0  0  0  0  0  0  0  0  0  0  0  0
   18.4959  -12.7101  -15.9633 C   0  0  0  0  0  0  0  0  0  0  0  0
   17.5020  -12.7597  -14.9796 C   0  0  0  0  0  0  0  0  0  0  0  0
   16.8119  -13.9015  -15.1304 N   0  0  0  0  0  0  0  0  0  0  0  0
   17.3253  -14.5644  -16.1571 C   0  0  0  0  0  0  0  0  0  0  0  0
   18.3520  -13.8480  -16.6724 N   0  0  0  0  0  0  0  0  0  0  0  0
   19.7296   -9.2040  -16.2044 C   0  0  0  0  0  0  0  0  0  0  0  0
   20.6877   -9.1274  -15.3935 O   0  0  0  0  0  0  0  0  0  0  0  0
   20.6669   -6.6177  -18.7995 C   0  0  0  0  0  0  0  0  0  0  0  0
   20.6303   -7.1639  -17.3905 C   0  0  2  0  0  0  0  0  0  0  0  0
   19.6699   -8.2158  -17.2253 N   0  0  0  0  0  0  0  0  0  0  0  0
   20.4220   -6.0890  -16.3816 C   0  0  0  0  0  0  0  0  0  0  0  0
   19.2526   -5.7097  -16.0561 O   0  0  0  0  0  0  0  0  0  0  0  0
   18.4031   -8.4579  -10.9189 O   0  0  0  0  0  0  0  0  0  0  0  0
   19.2416   -7.5565  -11.5339 C   0  0  0  0  0  0  0  0  0  0  0  0
   20.3696   -8.0156  -12.1564 C   0  0  0  0  0  0  0  0  0  0  0  0
   21.2155   -7.1118  -12.7763 C   0  0  0  0  0  0  0  0  0  0  0  0
   20.9270   -5.7726  -12.7670 C   0  0  0  0  0  0  0  0  0  0  0  0
   21.8270   -4.8192  -13.4255 C   0  0  0  0  0  0  0  0  0  0  0  0
   21.3675   -4.3821  -14.7825 C   0  0  2  0  0  0  0  0  0  0  0  0
   21.5055   -5.4518  -15.7501 N   0  0  0  0  0  0  0  0  0  0  0  0
   22.0376   -3.1390  -15.2403 C   0  0  0  0  0  0  0  0  0  0  0  0
   22.7406   -3.1678  -16.2815 O   0  0  0  0  0  0  0  0  0  0  0  0
   19.7927   -5.3391  -12.1375 C   0  0  0  0  0  0  0  0  0  0  0  0
   18.9359   -6.2128  -11.5148 C   0  0  0  0  0  0  0  0  0  0  0  0
   21.9278   -1.9347  -14.5725 O   0  0  0  0  0  0  0  0  0  0  0  0
  2  1  1  6
  2  9  1  0
  3  2  1  0
  4  3  1  0
  5  4  2  0
  6  5  1  0
  6  7  1  0
  7  8  2  0
  8  4  1  0
  9 10  2  0
 12 11  1  6
 13  9  1  0
 13 12  1  0
 14 15  2  0
 14 12  1  0
 16 17  1  0
 17 27  2  0
 17 18  1  0
 18 19  2  0
 19 20  1  0
 20 21  1  0
 22 21  1  1
 22 23  1  0
 23 14  1  0
 24 22  1  0
 24 28  1  0
 25 24  2  0
 26 20  2  0
 27 26  1  0
M  END
$$$$
