HAY.pdb
     RDKit          3D

 28 29  0  0  1  0  0  0  0  0999 V2000
   20.8338  -29.2628  -19.5203 N   0  0  0  0  0  0  0  0  0  0  0  0
   20.7814  -27.8429  -19.3233 C   0  0  1  0  0  0  0  0  0  0  0  0
   19.3870  -27.3844  -19.7487 C   0  0  0  0  0  0  0  0  0  0  0  0
   19.3428  -27.3976  -21.2343 C   0  0  0  0  0  0  0  0  0  0  0  0
   19.7919  -26.3776  -22.0803 C   0  0  0  0  0  0  0  0  0  0  0  0
   19.5839  -26.7576  -23.3511 N   0  0  0  0  0  0  0  0  0  0  0  0
   19.0287  -27.9612  -23.3390 C   0  0  0  0  0  0  0  0  0  0  0  0
   18.8770  -28.3612  -22.0546 N   0  0  0  0  0  0  0  0  0  0  0  0
   20.9551  -27.4583  -17.9004 C   0  0  0  0  0  0  0  0  0  0  0  0
   20.5149  -28.2046  -16.9890 O   0  0  0  0  0  0  0  0  0  0  0  0
   22.7310  -24.6821  -15.9878 C   0  0  0  0  0  0  0  0  0  0  0  0
   21.8207  -25.8806  -16.1280 C   0  0  2  0  0  0  0  0  0  0  0  0
   21.6082  -26.2624  -17.4938 N   0  0  0  0  0  0  0  0  0  0  0  0
   20.5247  -25.6813  -15.4227 C   0  0  0  0  0  0  0  0  0  0  0  0
   19.5904  -24.9944  -15.9447 O   0  0  0  0  0  0  0  0  0  0  0  0
   21.8615  -29.8434   -9.1516 O   0  0  0  0  0  0  0  0  0  0  0  0
   21.0441  -29.2252  -10.0701 C   0  0  0  0  0  0  0  0  0  0  0  0
   20.1361  -28.2995   -9.6350 C   0  0  0  0  0  0  0  0  0  0  0  0
   19.3121  -27.6754  -10.5559 C   0  0  0  0  0  0  0  0  0  0  0  0
   19.4043  -27.9808  -11.8883 C   0  0  0  0  0  0  0  0  0  0  0  0
   18.5286  -27.3163  -12.8600 C   0  0  0  0  0  0  0  0  0  0  0  0
   19.0718  -26.0246  -13.3891 C   0  0  2  0  0  0  0  0  0  0  0  0
   20.2820  -26.2422  -14.1557 N   0  0  0  0  0  0  0  0  0  0  0  0
   19.2725  -25.0097  -12.3244 C   0  0  0  0  0  0  0  0  0  0  0  0
   18.2694  -24.4830  -11.7808 O   0  0  0  0  0  0  0  0  0  0  0  0
   20.3206  -28.9101  -12.2976 C   0  0  0  0  0  0  0  0  0  0  0  0
   21.1504  -29.5445  -11.4065 C   0  0  0  0  0  0  0  0  0  0  0  0
   20.5219  -24.6078  -11.8932 O   0  0  0  0  0  0  0  0  0  0  0  0
  2  1  1  1
  2  9  1  0
  3  2  1  0
  4  3  1  0
  5  4  2  0
  6  5  1  0
  6  7  1  0
  7  8  2  0
  8  4  1  0
  9 10  2  0
 12 11  1  6
 13  9  1  0
 13 12  1  0
 14 15  2  0
 14 12  1  0
 16 17  1  0
 17 27  2  0
 17 18  1  0
 18 19  2  0
 19 20  1  0
 20 21  1  0
 22 21  1  1
 22 23  1  0
 23 14  1  0
 24 22  1  0
 24 28  1  0
 25 24  2  0
 26 20  2  0
 27 26  1  0
M  END
$$$$
