HAY.pdb
     RDKit          3D

 28 29  0  0  1  0  0  0  0  0999 V2000
   19.9590  -14.3183  -17.2280 N   0  0  0  0  0  0  0  0  0  0  0  0
   19.0790  -13.2056  -17.0159 C   0  0  1  0  0  0  0  0  0  0  0  0
   18.4218  -13.4100  -15.6514 C   0  0  0  0  0  0  0  0  0  0  0  0
   17.4259  -14.5045  -15.7912 C   0  0  0  0  0  0  0  0  0  0  0  0
   16.9638  -15.0483  -16.9949 C   0  0  0  0  0  0  0  0  0  0  0  0
   16.0743  -16.0131  -16.7112 N   0  0  0  0  0  0  0  0  0  0  0  0
   15.9594  -16.0974  -15.3933 C   0  0  0  0  0  0  0  0  0  0  0  0
   16.7783  -15.1830  -14.8224 N   0  0  0  0  0  0  0  0  0  0  0  0
   19.8009  -11.9099  -16.9659 C   0  0  0  0  0  0  0  0  0  0  0  0
   20.8800  -11.8154  -16.3269 O   0  0  0  0  0  0  0  0  0  0  0  0
   19.6188   -8.5842  -18.7640 C   0  0  0  0  0  0  0  0  0  0  0  0
   20.0258   -9.4796  -17.6161 C   0  0  2  0  0  0  0  0  0  0  0  0
   19.3326  -10.7348  -17.6156 N   0  0  0  0  0  0  0  0  0  0  0  0
   19.8899   -8.7953  -16.3008 C   0  0  0  0  0  0  0  0  0  0  0  0
   18.8561   -8.9577  -15.5783 O   0  0  0  0  0  0  0  0  0  0  0  0
   25.7218   -4.0226  -16.9376 O   0  0  0  0  0  0  0  0  0  0  0  0
   24.8529   -4.7854  -16.1912 C   0  0  0  0  0  0  0  0  0  0  0  0
   24.8489   -6.1430  -16.3576 C   0  0  0  0  0  0  0  0  0  0  0  0
   23.9763   -6.9138  -15.6086 C   0  0  0  0  0  0  0  0  0  0  0  0
   23.1259   -6.3244  -14.7106 C   0  0  0  0  0  0  0  0  0  0  0  0
   22.2031   -7.1461  -13.9194 C   0  0  0  0  0  0  0  0  0  0  0  0
   20.8372   -7.2810  -14.5192 C   0  0  2  0  0  0  0  0  0  0  0  0
   20.8953   -7.9449  -15.8059 N   0  0  0  0  0  0  0  0  0  0  0  0
   20.1189   -5.9845  -14.6033 C   0  0  0  0  0  0  0  0  0  0  0  0
   19.8753   -5.4893  -15.7322 O   0  0  0  0  0  0  0  0  0  0  0  0
   23.1495   -4.9649  -14.5630 C   0  0  0  0  0  0  0  0  0  0  0  0
   24.0043   -4.1759  -15.2925 C   0  0  0  0  0  0  0  0  0  0  0  0
   19.6981   -5.2834  -13.4899 O   0  0  0  0  0  0  0  0  0  0  0  0
  2  1  1  1
  2  9  1  0
  3  2  1  0
  4  3  1  0
  5  4  2  0
  6  5  1  0
  6  7  1  0
  7  8  2  0
  8  4  1  0
  9 10  2  0
 12 11  1  6
 13  9  1  0
 13 12  1  0
 14 15  2  0
 14 12  1  0
 16 17  1  0
 17 27  2  0
 17 18  1  0
 18 19  2  0
 19 20  1  0
 20 21  1  0
 22 21  1  6
 22 23  1  0
 23 14  1  0
 24 22  1  0
 24 28  1  0
 25 24  2  0
 26 20  2  0
 27 26  1  0
M  END
$$$$
