HAY.pdb
     RDKit          3D

 28 29  0  0  1  0  0  0  0  0999 V2000
   18.5983  -13.4224  -19.4509 N   0  0  0  0  0  0  0  0  0  0  0  0
   18.4909  -12.8704  -18.1313 C   0  0  1  0  0  0  0  0  0  0  0  0
   19.9150  -12.6624  -17.6172 C   0  0  0  0  0  0  0  0  0  0  0  0
   20.5436  -14.0022  -17.4793 C   0  0  0  0  0  0  0  0  0  0  0  0
   20.5203  -14.8088  -16.3361 C   0  0  0  0  0  0  0  0  0  0  0  0
   21.1948  -15.9392  -16.6001 N   0  0  0  0  0  0  0  0  0  0  0  0
   21.6365  -15.8773  -17.8484 C   0  0  0  0  0  0  0  0  0  0  0  0
   21.2456  -14.7015  -18.3939 N   0  0  0  0  0  0  0  0  0  0  0  0
   17.8223  -11.5455  -18.1207 C   0  0  0  0  0  0  0  0  0  0  0  0
   17.9786  -10.7544  -19.0857 O   0  0  0  0  0  0  0  0  0  0  0  0
   15.1733   -9.8125  -16.0286 C   0  0  0  0  0  0  0  0  0  0  0  0
   16.3026   -9.8464  -17.0328 C   0  0  2  0  0  0  0  0  0  0  0  0
   16.9916  -11.1038  -17.0543 N   0  0  0  0  0  0  0  0  0  0  0  0
   17.2559   -8.7196  -16.8373 C   0  0  0  0  0  0  0  0  0  0  0  0
   16.8665   -7.5104  -16.8971 O   0  0  0  0  0  0  0  0  0  0  0  0
   22.6918   -2.7213  -14.3862 O   0  0  0  0  0  0  0  0  0  0  0  0
   21.8532   -3.7960  -14.5756 C   0  0  0  0  0  0  0  0  0  0  0  0
   20.8414   -3.6964  -15.4905 C   0  0  0  0  0  0  0  0  0  0  0  0
   19.9957   -4.7753  -15.6839 C   0  0  0  0  0  0  0  0  0  0  0  0
   20.1694   -5.9301  -14.9674 C   0  0  0  0  0  0  0  0  0  0  0  0
   19.2702   -7.0704  -15.1764 C   0  0  0  0  0  0  0  0  0  0  0  0
   19.5959   -7.8920  -16.3859 C   0  0  2  0  0  0  0  0  0  0  0  0
   18.6202   -8.9456  -16.5796 N   0  0  0  0  0  0  0  0  0  0  0  0
   20.9809   -8.4258  -16.3586 C   0  0  0  0  0  0  0  0  0  0  0  0
   21.2121   -9.5034  -15.7550 O   0  0  0  0  0  0  0  0  0  0  0  0
   21.1887   -6.0041  -14.0586 C   0  0  0  0  0  0  0  0  0  0  0  0
   22.0424   -4.9499  -13.8462 C   0  0  0  0  0  0  0  0  0  0  0  0
   22.0445   -7.7913  -16.9706 O   0  0  0  0  0  0  0  0  0  0  0  0
  2  1  1  6
  2  9  1  0
  3  2  1  0
  4  3  1  0
  5  4  2  0
  6  5  1  0
  6  7  1  0
  7  8  2  0
  8  4  1  0
  9 10  2  0
 12 11  1  1
 13  9  1  0
 13 12  1  0
 14 15  2  0
 14 12  1  0
 16 17  1  0
 17 27  2  0
 17 18  1  0
 18 19  2  0
 19 20  1  0
 20 21  1  0
 22 21  1  1
 22 23  1  0
 23 14  1  0
 24 22  1  0
 24 28  1  0
 25 24  2  0
 26 20  2  0
 27 26  1  0
M  END
$$$$
