HAY.pdb
     RDKit          3D

 28 29  0  0  1  0  0  0  0  0999 V2000
   22.2282  -11.8086  -20.0427 N   0  0  0  0  0  0  0  0  0  0  0  0
   23.3611  -11.0080  -19.6778 C   0  0  1  0  0  0  0  0  0  0  0  0
   23.3563   -9.7842  -20.5930 C   0  0  0  0  0  0  0  0  0  0  0  0
   23.7214  -10.2426  -21.9590 C   0  0  0  0  0  0  0  0  0  0  0  0
   22.8281  -10.5327  -22.9962 C   0  0  0  0  0  0  0  0  0  0  0  0
   23.5355  -10.9144  -24.0716 N   0  0  0  0  0  0  0  0  0  0  0  0
   24.8226  -10.8766  -23.7567 C   0  0  0  0  0  0  0  0  0  0  0  0
   24.9479  -10.4686  -22.4719 N   0  0  0  0  0  0  0  0  0  0  0  0
   23.2822  -10.5122  -18.2811 C   0  0  0  0  0  0  0  0  0  0  0  0
   22.1804  -10.1291  -17.8112 O   0  0  0  0  0  0  0  0  0  0  0  0
   25.6380  -10.2129  -15.3044 C   0  0  0  0  0  0  0  0  0  0  0  0
   24.3747   -9.9215  -16.0818 C   0  0  2  0  0  0  0  0  0  0  0  0
   24.4097  -10.4421  -17.4174 N   0  0  0  0  0  0  0  0  0  0  0  0
   24.0446   -8.4697  -16.0843 C   0  0  0  0  0  0  0  0  0  0  0  0
   24.4786   -7.6978  -16.9971 O   0  0  0  0  0  0  0  0  0  0  0  0
   20.3817   -0.8098  -16.4133 O   0  0  0  0  0  0  0  0  0  0  0  0
   20.8309   -2.1105  -16.3930 C   0  0  0  0  0  0  0  0  0  0  0  0
   19.9180   -3.1287  -16.3672 C   0  0  0  0  0  0  0  0  0  0  0  0
   20.3660   -4.4385  -16.3467 C   0  0  0  0  0  0  0  0  0  0  0  0
   21.7083   -4.7127  -16.3521 C   0  0  0  0  0  0  0  0  0  0  0  0
   22.1775   -6.1027  -16.3304 C   0  0  0  0  0  0  0  0  0  0  0  0
   22.8521   -6.5001  -15.0534 C   0  0  2  0  0  0  0  0  0  0  0  0
   23.2427   -7.8952  -15.0815 N   0  0  0  0  0  0  0  0  0  0  0  0
   22.0373   -6.1832  -13.8535 C   0  0  0  0  0  0  0  0  0  0  0  0
   21.1380   -6.9833  -13.4927 O   0  0  0  0  0  0  0  0  0  0  0  0
   22.6006   -3.6765  -16.3781 C   0  0  0  0  0  0  0  0  0  0  0  0
   22.1847   -2.3682  -16.3988 C   0  0  0  0  0  0  0  0  0  0  0  0
   22.2180   -5.0384  -13.1016 O   0  0  0  0  0  0  0  0  0  0  0  0
  2  1  1  6
  2  9  1  0
  3  2  1  0
  4  3  1  0
  5  4  2  0
  6  5  1  0
  6  7  1  0
  7  8  2  0
  8  4  1  0
  9 10  2  0
 12 11  1  6
 13  9  1  0
 13 12  1  0
 14 15  2  0
 14 12  1  0
 16 17  1  0
 17 27  2  0
 17 18  1  0
 18 19  2  0
 19 20  1  0
 20 21  1  0
 22 21  1  6
 22 23  1  0
 23 14  1  0
 24 22  1  0
 24 28  1  0
 25 24  2  0
 26 20  2  0
 27 26  1  0
M  END
$$$$
