HAY.pdb
     RDKit          3D

 28 29  0  0  1  0  0  0  0  0999 V2000
   20.1436  -12.3403  -18.3257 N   0  0  0  0  0  0  0  0  0  0  0  0
   21.3994  -11.7096  -18.0382 C   0  0  1  0  0  0  0  0  0  0  0  0
   21.7782  -10.8871  -19.2693 C   0  0  0  0  0  0  0  0  0  0  0  0
   22.0713  -11.8384  -20.3730 C   0  0  0  0  0  0  0  0  0  0  0  0
   21.3675  -11.9436  -21.5779 C   0  0  0  0  0  0  0  0  0  0  0  0
   21.9307  -12.9140  -22.3153 N   0  0  0  0  0  0  0  0  0  0  0  0
   22.9484  -13.4176  -21.6313 C   0  0  0  0  0  0  0  0  0  0  0  0
   23.0435  -12.7699  -20.4463 N   0  0  0  0  0  0  0  0  0  0  0  0
   21.3162  -10.7710  -16.8916 C   0  0  0  0  0  0  0  0  0  0  0  0
   20.4056   -9.9044  -16.8530 O   0  0  0  0  0  0  0  0  0  0  0  0
   22.9936  -10.3541  -13.5111 C   0  0  0  0  0  0  0  0  0  0  0  0
   22.2050   -9.8693  -14.7060 C   0  0  2  0  0  0  0  0  0  0  0  0
   22.2303  -10.7930  -15.8025 N   0  0  0  0  0  0  0  0  0  0  0  0
   22.6336   -8.5120  -15.1427 C   0  0  0  0  0  0  0  0  0  0  0  0
   23.4748   -8.3587  -16.0841 O   0  0  0  0  0  0  0  0  0  0  0  0
   16.9028   -4.7347  -17.5804 O   0  0  0  0  0  0  0  0  0  0  0  0
   18.2227   -4.9767  -17.2754 C   0  0  0  0  0  0  0  0  0  0  0  0
   18.7920   -6.1548  -17.6738 C   0  0  0  0  0  0  0  0  0  0  0  0
   20.1196   -6.4018  -17.3688 C   0  0  0  0  0  0  0  0  0  0  0  0
   20.8558   -5.4774  -16.6758 C   0  0  0  0  0  0  0  0  0  0  0  0
   22.2624   -5.7444  -16.3552 C   0  0  0  0  0  0  0  0  0  0  0  0
   22.5197   -6.0033  -14.9025 C   0  0  2  0  0  0  0  0  0  0  0  0
   22.1277   -7.3488  -14.5345 N   0  0  0  0  0  0  0  0  0  0  0  0
   21.8903   -4.9885  -14.0205 C   0  0  0  0  0  0  0  0  0  0  0  0
   21.0053   -5.3482  -13.2041 O   0  0  0  0  0  0  0  0  0  0  0  0
   20.2631   -4.3071  -16.2887 C   0  0  0  0  0  0  0  0  0  0  0  0
   18.9485   -4.0357  -16.5775 C   0  0  0  0  0  0  0  0  0  0  0  0
   22.2309   -3.6500  -14.0502 O   0  0  0  0  0  0  0  0  0  0  0  0
  2  1  1  6
  2  9  1  0
  3  2  1  0
  4  3  1  0
  5  4  2  0
  6  5  1  0
  6  7  1  0
  7  8  2  0
  8  4  1  0
  9 10  2  0
 12 11  1  1
 13  9  1  0
 13 12  1  0
 14 15  2  0
 14 12  1  0
 16 17  1  0
 17 27  2  0
 17 18  1  0
 18 19  2  0
 19 20  1  0
 20 21  1  0
 22 21  1  6
 22 23  1  0
 23 14  1  0
 24 22  1  0
 24 28  1  0
 25 24  2  0
 26 20  2  0
 27 26  1  0
M  END
$$$$
