HAY.pdb
     RDKit          3D

 28 29  0  0  1  0  0  0  0  0999 V2000
   25.1729  -31.3687   -7.7303 N   0  0  0  0  0  0  0  0  0  0  0  0
   25.0395  -32.7089   -7.2368 C   0  0  1  0  0  0  0  0  0  0  0  0
   26.3304  -33.4459   -7.5918 C   0  0  0  0  0  0  0  0  0  0  0  0
   26.3134  -33.7034   -9.0555 C   0  0  0  0  0  0  0  0  0  0  0  0
   27.0309  -32.9935  -10.0247 C   0  0  0  0  0  0  0  0  0  0  0  0
   26.7554  -33.5211  -11.2282 N   0  0  0  0  0  0  0  0  0  0  0  0
   25.9037  -34.5225  -11.0575 C   0  0  0  0  0  0  0  0  0  0  0  0
   25.6273  -34.6428   -9.7377 N   0  0  0  0  0  0  0  0  0  0  0  0
   24.8960  -32.7608   -5.7605 C   0  0  0  0  0  0  0  0  0  0  0  0
   25.5235  -31.9444   -5.0386 O   0  0  0  0  0  0  0  0  0  0  0  0
   22.5093  -34.2507   -3.2774 C   0  0  0  0  0  0  0  0  0  0  0  0
   23.8825  -33.7582   -3.6730 C   0  0  2  0  0  0  0  0  0  0  0  0
   24.0677  -33.7051   -5.0939 N   0  0  0  0  0  0  0  0  0  0  0  0
   24.9655  -34.5470   -3.0236 C   0  0  0  0  0  0  0  0  0  0  0  0
   25.3038  -35.6899   -3.4674 O   0  0  0  0  0  0  0  0  0  0  0  0
   30.9041  -35.3944   -5.9294 O   0  0  0  0  0  0  0  0  0  0  0  0
   30.1900  -35.0675   -4.7992 C   0  0  0  0  0  0  0  0  0  0  0  0
   30.3750  -35.8022   -3.6604 C   0  0  0  0  0  0  0  0  0  0  0  0
   29.6585  -35.4764   -2.5215 C   0  0  0  0  0  0  0  0  0  0  0  0
   28.7740  -34.4303   -2.5338 C   0  0  0  0  0  0  0  0  0  0  0  0
   28.0174  -34.0895   -1.3239 C   0  0  0  0  0  0  0  0  0  0  0  0
   26.7000  -34.7931   -1.2084 C   0  0  2  0  0  0  0  0  0  0  0  0
   25.6557  -34.0625   -1.8977 N   0  0  0  0  0  0  0  0  0  0  0  0
   26.3283  -35.0833    0.1993 C   0  0  0  0  0  0  0  0  0  0  0  0
   25.2689  -34.5962    0.6678 O   0  0  0  0  0  0  0  0  0  0  0  0
   28.6074  -33.7114   -3.6854 C   0  0  0  0  0  0  0  0  0  0  0  0
   29.3045  -34.0120   -4.8294 C   0  0  0  0  0  0  0  0  0  0  0  0
   27.0965  -35.8722    1.0335 O   0  0  0  0  0  0  0  0  0  0  0  0
  2  1  1  1
  2  9  1  0
  3  2  1  0
  4  3  1  0
  5  4  2  0
  6  5  1  0
  6  7  1  0
  7  8  2  0
  8  4  1  0
  9 10  2  0
 12 11  1  6
 13  9  1  0
 13 12  1  0
 14 15  2  0
 14 12  1  0
 16 17  1  0
 17 27  2  0
 17 18  1  0
 18 19  2  0
 19 20  1  0
 20 21  1  0
 22 21  1  1
 22 23  1  0
 23 14  1  0
 24 22  1  0
 24 28  1  0
 25 24  2  0
 26 20  2  0
 27 26  1  0
M  END
$$$$
