HAY.pdb
     RDKit          3D

 28 29  0  0  1  0  0  0  0  0999 V2000
   23.2358  -16.9664  -20.0505 N   0  0  0  0  0  0  0  0  0  0  0  0
   23.7839  -17.0295  -18.7264 C   0  0  1  0  0  0  0  0  0  0  0  0
   23.3681  -15.7455  -18.0095 C   0  0  0  0  0  0  0  0  0  0  0  0
   24.0866  -14.6164  -18.6561 C   0  0  0  0  0  0  0  0  0  0  0  0
   25.4699  -14.5210  -18.8447 C   0  0  0  0  0  0  0  0  0  0  0  0
   25.7350  -13.3587  -19.4623 N   0  0  0  0  0  0  0  0  0  0  0  0
   24.5881  -12.7264  -19.6674 C   0  0  0  0  0  0  0  0  0  0  0  0
   23.5770  -13.4834  -19.1802 N   0  0  0  0  0  0  0  0  0  0  0  0
   23.2437  -18.1663  -17.9399 C   0  0  0  0  0  0  0  0  0  0  0  0
   22.0013  -18.3469  -17.8675 O   0  0  0  0  0  0  0  0  0  0  0  0
   24.5925  -21.2470  -16.1936 C   0  0  0  0  0  0  0  0  0  0  0  0
   23.5772  -20.1483  -16.4102 C   0  0  2  0  0  0  0  0  0  0  0  0
   24.0701  -19.0903  -17.2431 N   0  0  0  0  0  0  0  0  0  0  0  0
   23.0525  -19.6133  -15.1237 C   0  0  0  0  0  0  0  0  0  0  0  0
   23.7507  -18.8329  -14.4020 O   0  0  0  0  0  0  0  0  0  0  0  0
   17.2205  -15.3969  -16.4447 O   0  0  0  0  0  0  0  0  0  0  0  0
   18.2166  -16.0101  -15.7198 C   0  0  0  0  0  0  0  0  0  0  0  0
   17.9972  -16.2995  -14.4011 C   0  0  0  0  0  0  0  0  0  0  0  0
   18.9969  -16.9164  -13.6685 C   0  0  0  0  0  0  0  0  0  0  0  0
   20.1928  -17.2339  -14.2568 C   0  0  0  0  0  0  0  0  0  0  0  0
   21.2487  -17.8877  -13.4756 C   0  0  0  0  0  0  0  0  0  0  0  0
   21.1649  -19.3832  -13.4659 C   0  0  2  0  0  0  0  0  0  0  0  0
   21.7687  -19.9477  -14.6560 N   0  0  0  0  0  0  0  0  0  0  0  0
   19.7789  -19.8769  -13.2676 C   0  0  0  0  0  0  0  0  0  0  0  0
   19.1776  -19.6065  -12.1978 O   0  0  0  0  0  0  0  0  0  0  0  0
   20.3871  -16.9339  -15.5769 C   0  0  0  0  0  0  0  0  0  0  0  0
   19.4135  -16.3225  -16.3275 C   0  0  0  0  0  0  0  0  0  0  0  0
   19.1054  -20.6290  -14.2105 O   0  0  0  0  0  0  0  0  0  0  0  0
  2  1  1  6
  2  9  1  0
  3  2  1  0
  4  3  1  0
  5  4  2  0
  6  5  1  0
  6  7  1  0
  7  8  2  0
  8  4  1  0
  9 10  2  0
 12 11  1  1
 13  9  1  0
 13 12  1  0
 14 15  2  0
 14 12  1  0
 16 17  1  0
 17 27  2  0
 17 18  1  0
 18 19  2  0
 19 20  1  0
 20 21  1  0
 22 21  1  6
 22 23  1  0
 23 14  1  0
 24 22  1  0
 24 28  1  0
 25 24  2  0
 26 20  2  0
 27 26  1  0
M  END
$$$$
