HAY.pdb
     RDKit          3D

 28 29  0  0  1  0  0  0  0  0999 V2000
   30.1313  -36.0589    2.4128 N   0  0  0  0  0  0  0  0  0  0  0  0
   30.7763  -34.8941    2.9464 C   0  0  1  0  0  0  0  0  0  0  0  0
   30.8432  -33.8648    1.8187 C   0  0  0  0  0  0  0  0  0  0  0  0
   29.4639  -33.6790    1.2968 C   0  0  0  0  0  0  0  0  0  0  0  0
   28.7781  -34.5585    0.4516 C   0  0  0  0  0  0  0  0  0  0  0  0
   27.5625  -34.0461    0.2018 N   0  0  0  0  0  0  0  0  0  0  0  0
   27.4570  -32.8934    0.8479 C   0  0  0  0  0  0  0  0  0  0  0  0
   28.6096  -32.6596    1.5185 N   0  0  0  0  0  0  0  0  0  0  0  0
   30.0104  -34.2779    4.0584 C   0  0  0  0  0  0  0  0  0  0  0  0
   28.7736  -34.4818    4.1588 O   0  0  0  0  0  0  0  0  0  0  0  0
   30.8116  -32.1246    7.1037 C   0  0  0  0  0  0  0  0  0  0  0  0
   29.9040  -32.8749    6.1560 C   0  0  2  0  0  0  0  0  0  0  0  0
   30.6082  -33.4471    5.0456 N   0  0  0  0  0  0  0  0  0  0  0  0
   28.7676  -32.0335    5.6898 C   0  0  0  0  0  0  0  0  0  0  0  0
   28.7830  -31.4836    4.5432 O   0  0  0  0  0  0  0  0  0  0  0  0
   20.6492  -29.8562    3.8675 O   0  0  0  0  0  0  0  0  0  0  0  0
   21.9310  -30.2940    4.1112 C   0  0  0  0  0  0  0  0  0  0  0  0
   22.9830  -29.5970    3.5837 C   0  0  0  0  0  0  0  0  0  0  0  0
   24.2739  -30.0342    3.8266 C   0  0  0  0  0  0  0  0  0  0  0  0
   24.4962  -31.1523    4.5866 C   0  0  0  0  0  0  0  0  0  0  0  0
   25.8664  -31.6111    4.8408 C   0  0  0  0  0  0  0  0  0  0  0  0
   26.4818  -31.0403    6.0814 C   0  0  2  0  0  0  0  0  0  0  0  0
   27.6354  -31.8134    6.4952 N   0  0  0  0  0  0  0  0  0  0  0  0
   25.5022  -30.8838    7.1858 C   0  0  0  0  0  0  0  0  0  0  0  0
   24.5657  -30.0550    7.0634 O   0  0  0  0  0  0  0  0  0  0  0  0
   23.4270  -31.8314    5.1025 C   0  0  0  0  0  0  0  0  0  0  0  0
   22.1363  -31.4206    4.8778 C   0  0  0  0  0  0  0  0  0  0  0  0
   25.5665  -31.6118    8.3581 O   0  0  0  0  0  0  0  0  0  0  0  0
  2  1  1  6
  2  9  1  0
  3  2  1  0
  4  3  1  0
  5  4  2  0
  6  5  1  0
  6  7  1  0
  7  8  2  0
  8  4  1  0
  9 10  2  0
 12 11  1  6
 13  9  1  0
 13 12  1  0
 14 15  2  0
 14 12  1  0
 16 17  1  0
 17 27  2  0
 17 18  1  0
 18 19  2  0
 19 20  1  0
 20 21  1  0
 22 21  1  6
 22 23  1  0
 23 14  1  0
 24 22  1  0
 24 28  1  0
 25 24  2  0
 26 20  2  0
 27 26  1  0
M  END
$$$$
