HAY.pdb
     RDKit          3D

 28 29  0  0  1  0  0  0  0  0999 V2000
   19.0917  -10.2768  -19.2232 N   0  0  0  0  0  0  0  0  0  0  0  0
   20.4905  -10.2615  -18.9058 C   0  0  1  0  0  0  0  0  0  0  0  0
   21.1827   -9.4227  -19.9795 C   0  0  0  0  0  0  0  0  0  0  0  0
   21.1070  -10.1771  -21.2579 C   0  0  0  0  0  0  0  0  0  0  0  0
   22.0665  -11.0723  -21.7436 C   0  0  0  0  0  0  0  0  0  0  0  0
   21.6419  -11.5505  -22.9242 N   0  0  0  0  0  0  0  0  0  0  0  0
   20.4680  -10.9989  -23.1977 C   0  0  0  0  0  0  0  0  0  0  0  0
   20.1321  -10.1603  -22.1894 N   0  0  0  0  0  0  0  0  0  0  0  0
   20.7707   -9.6186  -17.5978 C   0  0  0  0  0  0  0  0  0  0  0  0
   20.1376   -8.5874  -17.2554 O   0  0  0  0  0  0  0  0  0  0  0  0
   22.9334  -10.3716  -14.5525 C   0  0  0  0  0  0  0  0  0  0  0  0
   22.0305   -9.5156  -15.4110 C   0  0  2  0  0  0  0  0  0  0  0  0
   21.7400  -10.1125  -16.6820 N   0  0  0  0  0  0  0  0  0  0  0  0
   22.5658   -8.1367  -15.5798 C   0  0  0  0  0  0  0  0  0  0  0  0
   23.3151   -7.8375  -16.5629 O   0  0  0  0  0  0  0  0  0  0  0  0
   16.9287   -3.4180  -16.1845 O   0  0  0  0  0  0  0  0  0  0  0  0
   18.2366   -3.8457  -16.1700 C   0  0  0  0  0  0  0  0  0  0  0  0
   18.5341   -5.0913  -16.6503 C   0  0  0  0  0  0  0  0  0  0  0  0
   19.8488   -5.5251  -16.6373 C   0  0  0  0  0  0  0  0  0  0  0  0
   20.8413   -4.7167  -16.1492 C   0  0  0  0  0  0  0  0  0  0  0  0
   22.2328   -5.1815  -16.1379 C   0  0  0  0  0  0  0  0  0  0  0  0
   22.6820   -5.7339  -14.8200 C   0  0  2  0  0  0  0  0  0  0  0  0
   22.2661   -7.1129  -14.6628 N   0  0  0  0  0  0  0  0  0  0  0  0
   22.2505   -4.8970  -13.6722 C   0  0  0  0  0  0  0  0  0  0  0  0
   21.4835   -5.3893  -12.8071 O   0  0  0  0  0  0  0  0  0  0  0  0
   20.5175   -3.4755  -15.6747 C   0  0  0  0  0  0  0  0  0  0  0  0
   19.2224   -3.0194  -15.6753 C   0  0  0  0  0  0  0  0  0  0  0  0
   22.6533   -3.5866  -13.5023 O   0  0  0  0  0  0  0  0  0  0  0  0
  2  1  1  6
  2  9  1  0
  3  2  1  0
  4  3  1  0
  5  4  2  0
  6  5  1  0
  6  7  1  0
  7  8  2  0
  8  4  1  0
  9 10  2  0
 12 11  1  6
 13  9  1  0
 13 12  1  0
 14 15  2  0
 14 12  1  0
 16 17  1  0
 17 27  2  0
 17 18  1  0
 18 19  2  0
 19 20  1  0
 20 21  1  0
 22 21  1  6
 22 23  1  0
 23 14  1  0
 24 22  1  0
 24 28  1  0
 25 24  2  0
 26 20  2  0
 27 26  1  0
M  END
$$$$
