HAY.pdb
     RDKit          3D

 28 29  0  0  1  0  0  0  0  0999 V2000
   26.1412  -22.1932  -18.4384 N   0  0  0  0  0  0  0  0  0  0  0  0
   25.4761  -21.2654  -17.5698 C   0  0  1  0  0  0  0  0  0  0  0  0
   24.0893  -21.8391  -17.2817 C   0  0  0  0  0  0  0  0  0  0  0  0
   23.2497  -21.6135  -18.4872 C   0  0  0  0  0  0  0  0  0  0  0  0
   23.5735  -20.7939  -19.5742 C   0  0  0  0  0  0  0  0  0  0  0  0
   22.5676  -20.8489  -20.4619 N   0  0  0  0  0  0  0  0  0  0  0  0
   21.6352  -21.6603  -19.9830 C   0  0  0  0  0  0  0  0  0  0  0  0
   22.0400  -22.1321  -18.7804 N   0  0  0  0  0  0  0  0  0  0  0  0
   26.1670  -21.1105  -16.2655 C   0  0  0  0  0  0  0  0  0  0  0  0
   26.5765  -22.1255  -15.6462 O   0  0  0  0  0  0  0  0  0  0  0  0
   27.3374  -18.2308  -14.0635 C   0  0  0  0  0  0  0  0  0  0  0  0
   26.9810  -19.6702  -14.3569 C   0  0  2  0  0  0  0  0  0  0  0  0
   26.4006  -19.8470  -15.6561 N   0  0  0  0  0  0  0  0  0  0  0  0
   26.1102  -20.2548  -13.3002 C   0  0  0  0  0  0  0  0  0  0  0  0
   24.8444  -20.2657  -13.4223 O   0  0  0  0  0  0  0  0  0  0  0  0
   28.4944  -18.3543   -6.0226 O   0  0  0  0  0  0  0  0  0  0  0  0
   28.0499  -19.2267   -6.9897 C   0  0  0  0  0  0  0  0  0  0  0  0
   28.9650  -19.9513   -7.7026 C   0  0  0  0  0  0  0  0  0  0  0  0
   28.5218  -20.8299   -8.6763 C   0  0  0  0  0  0  0  0  0  0  0  0
   27.1819  -20.9728   -8.9238 C   0  0  0  0  0  0  0  0  0  0  0  0
   26.7177  -21.9054   -9.9569 C   0  0  0  0  0  0  0  0  0  0  0  0
   25.8554  -21.2747  -11.0069 C   0  0  2  0  0  0  0  0  0  0  0  0
   26.6497  -20.8166  -12.1288 N   0  0  0  0  0  0  0  0  0  0  0  0
   24.9952  -20.1924  -10.4661 C   0  0  0  0  0  0  0  0  0  0  0  0
   25.4195  -19.0096  -10.4719 O   0  0  0  0  0  0  0  0  0  0  0  0
   26.2872  -20.2366   -8.1969 C   0  0  0  0  0  0  0  0  0  0  0  0
   26.6985  -19.3579   -7.2254 C   0  0  0  0  0  0  0  0  0  0  0  0
   23.7345  -20.4200   -9.9491 O   0  0  0  0  0  0  0  0  0  0  0  0
  2  1  1  6
  2  9  1  0
  3  2  1  0
  4  3  1  0
  5  4  2  0
  6  5  1  0
  6  7  1  0
  7  8  2  0
  8  4  1  0
  9 10  2  0
 12 11  1  1
 13  9  1  0
 13 12  1  0
 14 15  2  0
 14 12  1  0
 16 17  1  0
 17 27  2  0
 17 18  1  0
 18 19  2  0
 19 20  1  0
 20 21  1  0
 22 21  1  1
 22 23  1  0
 23 14  1  0
 24 22  1  0
 24 28  1  0
 25 24  2  0
 26 20  2  0
 27 26  1  0
M  END
$$$$
