HAY.pdb
     RDKit          3D

 28 29  0  0  1  0  0  0  0  0999 V2000
   19.2044  -19.0090  -16.3135 N   0  0  0  0  0  0  0  0  0  0  0  0
   19.8568  -19.5331  -15.1484 C   0  0  1  0  0  0  0  0  0  0  0  0
   18.9171  -19.2974  -13.9665 C   0  0  0  0  0  0  0  0  0  0  0  0
   18.7653  -17.8285  -13.7984 C   0  0  0  0  0  0  0  0  0  0  0  0
   19.8044  -16.9090  -13.6167 C   0  0  0  0  0  0  0  0  0  0  0  0
   19.2708  -15.6821  -13.5037 N   0  0  0  0  0  0  0  0  0  0  0  0
   17.9536  -15.7912  -13.6057 C   0  0  0  0  0  0  0  0  0  0  0  0
   17.6342  -17.0945  -13.7855 N   0  0  0  0  0  0  0  0  0  0  0  0
   20.0928  -20.9956  -15.2371 C   0  0  0  0  0  0  0  0  0  0  0  0
   19.1834  -21.7549  -15.6589 O   0  0  0  0  0  0  0  0  0  0  0  0
   23.0162  -23.3822  -14.8120 C   0  0  0  0  0  0  0  0  0  0  0  0
   21.5483  -23.0235  -14.8511 C   0  0  2  0  0  0  0  0  0  0  0  0
   21.3206  -21.6079  -14.8630 N   0  0  0  0  0  0  0  0  0  0  0  0
   20.7859  -23.6765  -13.7515 C   0  0  0  0  0  0  0  0  0  0  0  0
   20.7253  -24.9432  -13.6549 O   0  0  0  0  0  0  0  0  0  0  0  0
   16.6667  -24.7655   -6.0746 O   0  0  0  0  0  0  0  0  0  0  0  0
   17.3705  -24.2651   -7.1461 C   0  0  0  0  0  0  0  0  0  0  0  0
   16.7911  -23.3087   -7.9338 C   0  0  0  0  0  0  0  0  0  0  0  0
   17.4960  -22.8028   -9.0126 C   0  0  0  0  0  0  0  0  0  0  0  0
   18.7596  -23.2542   -9.2889 C   0  0  0  0  0  0  0  0  0  0  0  0
   19.5021  -22.7145  -10.4335 C   0  0  0  0  0  0  0  0  0  0  0  0
   19.3316  -23.4996  -11.6977 C   0  0  2  0  0  0  0  0  0  0  0  0
   20.1045  -22.9225  -12.7790 N   0  0  0  0  0  0  0  0  0  0  0  0
   17.9064  -23.6737  -12.0750 C   0  0  0  0  0  0  0  0  0  0  0  0
   17.3491  -22.8028  -12.7892 O   0  0  0  0  0  0  0  0  0  0  0  0
   19.3165  -24.2110   -8.4858 C   0  0  0  0  0  0  0  0  0  0  0  0
   18.6406  -24.7305   -7.4094 C   0  0  0  0  0  0  0  0  0  0  0  0
   17.1492  -24.7583  -11.6765 O   0  0  0  0  0  0  0  0  0  0  0  0
  2  1  1  6
  2  9  1  0
  3  2  1  0
  4  3  1  0
  5  4  2  0
  6  5  1  0
  6  7  1  0
  7  8  2  0
  8  4  1  0
  9 10  2  0
 12 11  1  1
 13  9  1  0
 13 12  1  0
 14 15  2  0
 14 12  1  0
 16 17  1  0
 17 27  2  0
 17 18  1  0
 18 19  2  0
 19 20  1  0
 20 21  1  0
 22 21  1  1
 22 23  1  0
 23 14  1  0
 24 22  1  0
 24 28  1  0
 25 24  2  0
 26 20  2  0
 27 26  1  0
M  END
$$$$
