HAY.pdb
     RDKit          3D

 28 29  0  0  1  0  0  0  0  0999 V2000
   23.8832  -14.7841  -23.6352 N   0  0  0  0  0  0  0  0  0  0  0  0
   24.1629  -14.6395  -22.2358 C   0  0  1  0  0  0  0  0  0  0  0  0
   23.3311  -13.4598  -21.7339 C   0  0  0  0  0  0  0  0  0  0  0  0
   23.9151  -12.2203  -22.3099 C   0  0  0  0  0  0  0  0  0  0  0  0
   24.9890  -11.4942  -21.7830 C   0  0  0  0  0  0  0  0  0  0  0  0
   25.2225  -10.4412  -22.5826 N   0  0  0  0  0  0  0  0  0  0  0  0
   24.3494  -10.4749  -23.5794 C   0  0  0  0  0  0  0  0  0  0  0  0
   23.5477  -11.5546  -23.4236 N   0  0  0  0  0  0  0  0  0  0  0  0
   23.7569  -15.8299  -21.4478 C   0  0  0  0  0  0  0  0  0  0  0  0
   22.5556  -16.2020  -21.4445 O   0  0  0  0  0  0  0  0  0  0  0  0
   25.4915  -18.5435  -19.4237 C   0  0  0  0  0  0  0  0  0  0  0  0
   24.3014  -17.7251  -19.8695 C   0  0  2  0  0  0  0  0  0  0  0  0
   24.6706  -16.5971  -20.6740 N   0  0  0  0  0  0  0  0  0  0  0  0
   23.4524  -17.3053  -18.7207 C   0  0  0  0  0  0  0  0  0  0  0  0
   23.7281  -16.2638  -18.0448 O   0  0  0  0  0  0  0  0  0  0  0  0
   17.0050  -16.9179  -21.9835 O   0  0  0  0  0  0  0  0  0  0  0  0
   17.9099  -16.7678  -20.9577 C   0  0  0  0  0  0  0  0  0  0  0  0
   19.1145  -16.1735  -21.2156 C   0  0  0  0  0  0  0  0  0  0  0  0
   20.0276  -16.0206  -20.1862 C   0  0  0  0  0  0  0  0  0  0  0  0
   19.7290  -16.4594  -18.9231 C   0  0  0  0  0  0  0  0  0  0  0  0
   20.7003  -16.2948  -17.8360 C   0  0  0  0  0  0  0  0  0  0  0  0
   21.3316  -17.5750  -17.3814 C   0  0  2  0  0  0  0  0  0  0  0  0
   22.3157  -18.0402  -18.3378 N   0  0  0  0  0  0  0  0  0  0  0  0
   20.3312  -18.6264  -17.0689 C   0  0  0  0  0  0  0  0  0  0  0  0
   20.3811  -19.7230  -17.6806 O   0  0  0  0  0  0  0  0  0  0  0  0
   18.5175  -17.0504  -18.6915 C   0  0  0  0  0  0  0  0  0  0  0  0
   17.5930  -17.2150  -19.6932 C   0  0  0  0  0  0  0  0  0  0  0  0
   19.3339  -18.4608  -16.1275 O   0  0  0  0  0  0  0  0  0  0  0  0
  2  1  1  6
  2  9  1  0
  3  2  1  0
  4  3  1  0
  5  4  2  0
  6  5  1  0
  6  7  1  0
  7  8  2  0
  8  4  1  0
  9 10  2  0
 12 11  1  1
 13  9  1  0
 13 12  1  0
 14 15  2  0
 14 12  1  0
 16 17  1  0
 17 27  2  0
 17 18  1  0
 18 19  2  0
 19 20  1  0
 20 21  1  0
 22 21  1  6
 22 23  1  0
 23 14  1  0
 24 22  1  0
 24 28  1  0
 25 24  2  0
 26 20  2  0
 27 26  1  0
M  END
$$$$
