HAY.pdb
     RDKit          3D

 28 29  0  0  1  0  0  0  0  0999 V2000
   28.8634  -12.6411  -21.2922 N   0  0  0  0  0  0  0  0  0  0  0  0
   28.2024  -11.5536  -21.9539 C   0  0  1  0  0  0  0  0  0  0  0  0
   26.7086  -11.8760  -21.9593 C   0  0  0  0  0  0  0  0  0  0  0  0
   26.5075  -13.0617  -22.8327 C   0  0  0  0  0  0  0  0  0  0  0  0
   26.8957  -13.1726  -24.1725 C   0  0  0  0  0  0  0  0  0  0  0  0
   26.5432  -14.3894  -24.6174 N   0  0  0  0  0  0  0  0  0  0  0  0
   25.9560  -15.0409  -23.6235 C   0  0  0  0  0  0  0  0  0  0  0  0
   25.9286  -14.2417  -22.5311 N   0  0  0  0  0  0  0  0  0  0  0  0
   28.3708  -10.2644  -21.2383 C   0  0  0  0  0  0  0  0  0  0  0  0
   28.2624  -10.2214  -19.9861 O   0  0  0  0  0  0  0  0  0  0  0  0
   29.5354   -6.7594  -22.1331 C   0  0  0  0  0  0  0  0  0  0  0  0
   28.8988   -7.7944  -21.2338 C   0  0  2  0  0  0  0  0  0  0  0  0
   28.6556   -9.0395  -21.9021 N   0  0  0  0  0  0  0  0  0  0  0  0
   27.6575   -7.2843  -20.5891 C   0  0  0  0  0  0  0  0  0  0  0  0
   26.5157   -7.7507  -20.8990 O   0  0  0  0  0  0  0  0  0  0  0  0
   21.4024   -5.2015  -15.2124 O   0  0  0  0  0  0  0  0  0  0  0  0
   22.5494   -5.5841  -15.8697 C   0  0  0  0  0  0  0  0  0  0  0  0
   22.4428   -6.2682  -17.0492 C   0  0  0  0  0  0  0  0  0  0  0  0
   23.5944   -6.6547  -17.7134 C   0  0  0  0  0  0  0  0  0  0  0  0
   24.8272   -6.3559  -17.1959 C   0  0  0  0  0  0  0  0  0  0  0  0
   26.0443   -6.7680  -17.9040 C   0  0  0  0  0  0  0  0  0  0  0  0
   26.5315   -5.7729  -18.9121 C   0  0  2  0  0  0  0  0  0  0  0  0
   27.6969   -6.2700  -19.6153 N   0  0  0  0  0  0  0  0  0  0  0  0
   26.7779   -4.4337  -18.3208 C   0  0  0  0  0  0  0  0  0  0  0  0
   27.9071   -4.1757  -17.8335 O   0  0  0  0  0  0  0  0  0  0  0  0
   24.9065   -5.6709  -16.0148 C   0  0  0  0  0  0  0  0  0  0  0  0
   23.7813   -5.2751  -15.3347 C   0  0  0  0  0  0  0  0  0  0  0  0
   25.8176   -3.4416  -18.2773 O   0  0  0  0  0  0  0  0  0  0  0  0
  2  1  1  1
  2  9  1  0
  3  2  1  0
  4  3  1  0
  5  4  2  0
  6  5  1  0
  6  7  1  0
  7  8  2  0
  8  4  1  0
  9 10  2  0
 12 11  1  6
 13  9  1  0
 13 12  1  0
 14 15  2  0
 14 12  1  0
 16 17  1  0
 17 27  2  0
 17 18  1  0
 18 19  2  0
 19 20  1  0
 20 21  1  0
 22 21  1  1
 22 23  1  0
 23 14  1  0
 24 22  1  0
 24 28  1  0
 25 24  2  0
 26 20  2  0
 27 26  1  0
M  END
$$$$
