WCK.pdb
     RDKit          3D

 30 31  0  0  1  0  0  0  0  0999 V2000
   21.1293   -8.8211  -14.8939 N   0  0  0  0  0  0  0  0  0  0  0  0
   19.7514   -8.4425  -14.8430 C   0  0  1  0  0  0  0  0  0  0  0  0
   18.8781   -9.4131  -14.1212 C   0  0  0  0  0  0  0  0  0  0  0  0
   18.5608  -10.6086  -14.9285 C   0  0  0  0  0  0  0  0  0  0  0  0
   19.3176  -11.7552  -14.9728 C   0  0  0  0  0  0  0  0  0  0  0  0
   18.7206  -12.6281  -15.8138 N   0  0  0  0  0  0  0  0  0  0  0  0
   17.5969  -12.0701  -16.3122 C   0  0  0  0  0  0  0  0  0  0  0  0
   16.6597  -12.5577  -17.1975 C   0  0  0  0  0  0  0  0  0  0  0  0
   15.5862  -11.7749  -17.5503 C   0  0  0  0  0  0  0  0  0  0  0  0
   15.4507  -10.5130  -17.0217 C   0  0  0  0  0  0  0  0  0  0  0  0
   16.4068  -10.0498  -16.1353 C   0  0  0  0  0  0  0  0  0  0  0  0
   17.4900  -10.8100  -15.7647 C   0  0  0  0  0  0  0  0  0  0  0  0
   19.5880   -7.1071  -14.1644 C   0  0  0  0  0  0  0  0  0  0  0  0
   20.2723   -6.7816  -13.1749 O   0  0  0  0  0  0  0  0  0  0  0  0
   18.6420   -6.1549  -14.6245 N   0  0  0  0  0  0  0  0  0  0  0  0
   18.3897   -4.8809  -14.0524 C   0  0  1  0  0  0  0  0  0  0  0  0
   18.6103   -3.7185  -14.9707 C   0  0  0  0  0  0  0  0  0  0  0  0
   18.2247   -2.1369  -14.2012 S   0  0  0  0  0  0  0  0  0  0  0  0
   17.0379   -4.8284  -13.4708 C   0  0  0  0  0  0  0  0  0  0  0  0
   16.0641   -5.2073  -14.1694 O   0  0  0  0  0  0  0  0  0  0  0  0
   16.7616   -4.3670  -12.1422 N   0  0  0  0  0  0  0  0  0  0  0  0
   15.4020   -4.2169  -11.6548 C   0  0  1  0  0  0  0  0  0  0  0  0
   15.4797   -4.1360  -10.1577 C   0  0  0  0  0  0  0  0  0  0  0  0
   14.1670   -3.9467   -9.4803 C   0  0  0  0  0  0  0  0  0  0  0  0
   14.2438   -3.6852   -8.0200 C   0  0  0  0  0  0  0  0  0  0  0  0
   12.8920   -3.3705   -7.4067 C   0  0  0  0  0  0  0  0  0  0  0  0
   13.0048   -3.1235   -5.9818 N   0  0  0  0  0  0  0  0  0  0  0  0
   14.7696   -3.0400  -12.2775 C   0  0  0  0  0  0  0  0  0  0  0  0
   15.4617   -1.8517  -12.4776 O   0  0  0  0  0  0  0  0  0  0  0  0
   13.5723   -3.1193  -12.6348 O   0  0  0  0  0  0  0  0  0  0  0  0
  2  1  1  1
  2  3  1  0
  2 13  1  0
  3  4  1  0
  4 12  1  0
  4  5  2  0
  5  6  1  0
  7  6  1  0
  7  8  2  0
  9  8  1  0
 10  9  2  0
 11 12  2  0
 11 10  1  0
 12  7  1  0
 13 14  2  0
 15 13  1  0
 15 16  1  0
 16 17  1  6
 18 17  1  0
 19 21  1  0
 19 16  1  0
 20 19  2  0
 22 21  1  0
 23 24  1  0
 22 23  1  1
 24 25  1  0
 26 25  1  0
 27 26  1  0
 28 22  1  0
 28 29  1  0
 30 28  2  0
M  END
$$$$
