WCK.pdb
     RDKit          3D

 30 31  0  0  1  0  0  0  0  0999 V2000
   22.9637  -20.1305  -14.6860 N   0  0  0  0  0  0  0  0  0  0  0  0
   22.1925  -19.7086  -13.5581 C   0  0  1  0  0  0  0  0  0  0  0  0
   20.7389  -19.5330  -13.8441 C   0  0  0  0  0  0  0  0  0  0  0  0
   20.4610  -18.3631  -14.7019 C   0  0  0  0  0  0  0  0  0  0  0  0
   20.9138  -18.2029  -15.9899 C   0  0  0  0  0  0  0  0  0  0  0  0
   20.4634  -17.0174  -16.4561 N   0  0  0  0  0  0  0  0  0  0  0  0
   19.7310  -16.4104  -15.4981 C   0  0  0  0  0  0  0  0  0  0  0  0
   19.0702  -15.2008  -15.4939 C   0  0  0  0  0  0  0  0  0  0  0  0
   18.3836  -14.8055  -14.3705 C   0  0  0  0  0  0  0  0  0  0  0  0
   18.3579  -15.6140  -13.2588 C   0  0  0  0  0  0  0  0  0  0  0  0
   19.0303  -16.8228  -13.2917 C   0  0  0  0  0  0  0  0  0  0  0  0
   19.7246  -17.2436  -14.4004 C   0  0  0  0  0  0  0  0  0  0  0  0
   22.3073  -20.7007  -12.4300 C   0  0  0  0  0  0  0  0  0  0  0  0
   22.4570  -21.9207  -12.6367 O   0  0  0  0  0  0  0  0  0  0  0  0
   22.2495  -20.2879  -11.0737 N   0  0  0  0  0  0  0  0  0  0  0  0
   22.4530  -21.1135   -9.9374 C   0  0  1  0  0  0  0  0  0  0  0  0
   23.4629  -20.6035   -8.9559 C   0  0  0  0  0  0  0  0  0  0  0  0
   23.5943  -21.6374   -7.4876 S   0  0  0  0  0  0  0  0  0  0  0  0
   21.1754  -21.3959   -9.2619 C   0  0  0  0  0  0  0  0  0  0  0  0
   20.5122  -20.4349   -8.7966 O   0  0  0  0  0  0  0  0  0  0  0  0
   20.6359  -22.7140   -9.1011 N   0  0  0  0  0  0  0  0  0  0  0  0
   19.4641  -22.9630   -8.2802 C   0  0  1  0  0  0  0  0  0  0  0  0
   18.8415  -24.2345   -8.7797 C   0  0  0  0  0  0  0  0  0  0  0  0
   17.6374  -24.6725   -8.0207 C   0  0  0  0  0  0  0  0  0  0  0  0
   17.0472  -25.9613   -8.4648 C   0  0  0  0  0  0  0  0  0  0  0  0
   15.8635  -26.3895   -7.6176 C   0  0  0  0  0  0  0  0  0  0  0  0
   15.2650  -27.6088   -8.1266 N   0  0  0  0  0  0  0  0  0  0  0  0
   19.8457  -23.0117   -6.8573 C   0  0  0  0  0  0  0  0  0  0  0  0
   18.9489  -22.6974   -5.8433 O   0  0  0  0  0  0  0  0  0  0  0  0
   21.0145  -23.3469   -6.5593 O   0  0  0  0  0  0  0  0  0  0  0  0
  2  1  1  6
  2  3  1  0
  2 13  1  0
  3  4  1  0
  4 12  1  0
  4  5  2  0
  5  6  1  0
  7  6  1  0
  7  8  2  0
  9  8  1  0
 10  9  2  0
 11 12  2  0
 11 10  1  0
 12  7  1  0
 13 14  2  0
 15 13  1  0
 15 16  1  0
 16 17  1  1
 18 17  1  0
 19 21  1  0
 19 16  1  0
 20 19  2  0
 22 21  1  0
 23 24  1  0
 22 23  1  6
 24 25  1  0
 26 25  1  0
 27 26  1  0
 28 22  1  0
 28 29  1  0
 30 28  2  0
M  END
$$$$
