WCK.pdb
     RDKit          3D

 30 31  0  0  1  0  0  0  0  0999 V2000
   23.6258  -20.0161  -15.0233 N   0  0  0  0  0  0  0  0  0  0  0  0
   22.2512  -20.0223  -14.6292 C   0  0  1  0  0  0  0  0  0  0  0  0
   21.3194  -20.5396  -15.6731 C   0  0  0  0  0  0  0  0  0  0  0  0
   21.2668  -19.6782  -16.8718 C   0  0  0  0  0  0  0  0  0  0  0  0
   22.1203  -19.7664  -17.9458 C   0  0  0  0  0  0  0  0  0  0  0  0
   21.7708  -18.8224  -18.8471 N   0  0  0  0  0  0  0  0  0  0  0  0
   20.7119  -18.1283  -18.3784 C   0  0  0  0  0  0  0  0  0  0  0  0
   20.0024  -17.0806  -18.9250 C   0  0  0  0  0  0  0  0  0  0  0  0
   18.9455  -16.5406  -18.2316 C   0  0  0  0  0  0  0  0  0  0  0  0
   18.6002  -17.0446  -16.9999 C   0  0  0  0  0  0  0  0  0  0  0  0
   19.3302  -18.0966  -16.4760 C   0  0  0  0  0  0  0  0  0  0  0  0
   20.3914  -18.6561  -17.1464 C   0  0  0  0  0  0  0  0  0  0  0  0
   22.0516  -20.8662  -13.3971 C   0  0  0  0  0  0  0  0  0  0  0  0
   22.4798  -22.0342  -13.3207 O   0  0  0  0  0  0  0  0  0  0  0  0
   21.3629  -20.3658  -12.2619 N   0  0  0  0  0  0  0  0  0  0  0  0
   21.2123  -21.0265  -11.0149 C   0  0  1  0  0  0  0  0  0  0  0  0
   21.2247  -20.1286   -9.8162 C   0  0  0  0  0  0  0  0  0  0  0  0
   20.1291  -18.7106   -9.9940 S   0  0  0  0  0  0  0  0  0  0  0  0
   20.0058  -21.8705  -11.0138 C   0  0  0  0  0  0  0  0  0  0  0  0
   19.0274  -21.5274  -11.7243 O   0  0  0  0  0  0  0  0  0  0  0  0
   19.8775  -23.0726  -10.2438 N   0  0  0  0  0  0  0  0  0  0  0  0
   18.6639  -23.8695  -10.2713 C   0  0  1  0  0  0  0  0  0  0  0  0
   18.9922  -25.1897   -9.6364 C   0  0  0  0  0  0  0  0  0  0  0  0
   17.8854  -26.1855   -9.6738 C   0  0  0  0  0  0  0  0  0  0  0  0
   18.1845  -27.4847   -9.0187 C   0  0  0  0  0  0  0  0  0  0  0  0
   17.0625  -28.4943   -9.1741 C   0  0  0  0  0  0  0  0  0  0  0  0
   17.4209  -29.7737   -8.5921 N   0  0  0  0  0  0  0  0  0  0  0  0
   17.5699  -23.1465   -9.5981 C   0  0  0  0  0  0  0  0  0  0  0  0
   16.2827  -23.1067  -10.1203 O   0  0  0  0  0  0  0  0  0  0  0  0
   17.8138  -22.5519   -8.5237 O   0  0  0  0  0  0  0  0  0  0  0  0
  2  1  1  6
  2  3  1  0
  2 13  1  0
  3  4  1  0
  4 12  1  0
  4  5  2  0
  5  6  1  0
  7  6  1  0
  7  8  2  0
  9  8  1  0
 10  9  2  0
 11 12  2  0
 11 10  1  0
 12  7  1  0
 13 14  2  0
 15 13  1  0
 15 16  1  0
 16 17  1  1
 18 17  1  0
 19 21  1  0
 19 16  1  0
 20 19  2  0
 22 21  1  0
 23 24  1  0
 22 23  1  1
 24 25  1  0
 26 25  1  0
 27 26  1  0
 28 22  1  0
 28 29  1  0
 30 28  2  0
M  END
$$$$
