WCK.pdb
     RDKit          3D

 30 31  0  0  1  0  0  0  0  0999 V2000
   27.7090  -20.7002  -12.8371 N   0  0  0  0  0  0  0  0  0  0  0  0
   26.6627  -21.2847  -12.0571 C   0  0  1  0  0  0  0  0  0  0  0  0
   26.4585  -20.6383  -10.7281 C   0  0  0  0  0  0  0  0  0  0  0  0
   27.6437  -20.7411   -9.8528 C   0  0  0  0  0  0  0  0  0  0  0  0
   28.9281  -20.9696  -10.2861 C   0  0  0  0  0  0  0  0  0  0  0  0
   29.7428  -21.0002   -9.2087 N   0  0  0  0  0  0  0  0  0  0  0  0
   29.0128  -20.7967   -8.0914 C   0  0  0  0  0  0  0  0  0  0  0  0
   29.3840  -20.7400   -6.7652 C   0  0  0  0  0  0  0  0  0  0  0  0
   28.4298  -20.5158   -5.8014 C   0  0  0  0  0  0  0  0  0  0  0  0
   27.1133  -20.3495   -6.1611 C   0  0  0  0  0  0  0  0  0  0  0  0
   26.7698  -20.4114   -7.5000 C   0  0  0  0  0  0  0  0  0  0  0  0
   27.7021  -20.6341   -8.4847 C   0  0  0  0  0  0  0  0  0  0  0  0
   25.3481  -21.2192  -12.7903 C   0  0  0  0  0  0  0  0  0  0  0  0
   24.9349  -20.1652  -13.3115 O   0  0  0  0  0  0  0  0  0  0  0  0
   24.5168  -22.3617  -12.9210 N   0  0  0  0  0  0  0  0  0  0  0  0
   23.4788  -22.5380  -13.8727 C   0  0  1  0  0  0  0  0  0  0  0  0
   23.2898  -23.9446  -14.3512 C   0  0  0  0  0  0  0  0  0  0  0  0
   24.8270  -24.7120  -14.8900 S   0  0  0  0  0  0  0  0  0  0  0  0
   22.2087  -21.9909  -13.3671 C   0  0  0  0  0  0  0  0  0  0  0  0
   21.8818  -22.2235  -12.1760 O   0  0  0  0  0  0  0  0  0  0  0  0
   21.3127  -21.2005  -14.1589 N   0  0  0  0  0  0  0  0  0  0  0  0
   20.1070  -20.6201  -13.5948 C   0  0  1  0  0  0  0  0  0  0  0  0
   19.6279  -19.5779  -14.5634 C   0  0  0  0  0  0  0  0  0  0  0  0
   20.5338  -18.4046  -14.7065 C   0  0  0  0  0  0  0  0  0  0  0  0
   20.1150  -17.4058  -15.7232 C   0  0  0  0  0  0  0  0  0  0  0  0
   21.1174  -16.2788  -15.8888 C   0  0  0  0  0  0  0  0  0  0  0  0
   20.6549  -15.3002  -16.8545 N   0  0  0  0  0  0  0  0  0  0  0  0
   19.1155  -21.6774  -13.3269 C   0  0  0  0  0  0  0  0  0  0  0  0
   19.2237  -22.9463  -13.8830 O   0  0  0  0  0  0  0  0  0  0  0  0
   18.1485  -21.4184  -12.5750 O   0  0  0  0  0  0  0  0  0  0  0  0
  2  1  1  6
  2  3  1  0
  2 13  1  0
  3  4  1  0
  4 12  1  0
  4  5  2  0
  5  6  1  0
  7  6  1  0
  7  8  2  0
  9  8  1  0
 10  9  2  0
 11 12  2  0
 11 10  1  0
 12  7  1  0
 13 14  2  0
 15 13  1  0
 15 16  1  0
 16 17  1  1
 18 17  1  0
 19 21  1  0
 19 16  1  0
 20 19  2  0
 22 21  1  0
 23 24  1  0
 22 23  1  6
 24 25  1  0
 26 25  1  0
 27 26  1  0
 28 22  1  0
 28 29  1  0
 30 28  2  0
M  END
$$$$
