WCK.pdb
     RDKit          3D

 30 31  0  0  1  0  0  0  0  0999 V2000
   28.2468  -21.3315  -10.0490 N   0  0  0  0  0  0  0  0  0  0  0  0
   26.8561  -21.1965   -9.7448 C   0  0  1  0  0  0  0  0  0  0  0  0
   26.5434  -20.0862   -8.7987 C   0  0  0  0  0  0  0  0  0  0  0  0
   27.6439  -19.8130   -7.8521 C   0  0  0  0  0  0  0  0  0  0  0  0
   28.8968  -19.3703   -8.2041 C   0  0  0  0  0  0  0  0  0  0  0  0
   29.6325  -19.2332   -7.0792 N   0  0  0  0  0  0  0  0  0  0  0  0
   28.8824  -19.5775   -6.0107 C   0  0  0  0  0  0  0  0  0  0  0  0
   29.1812  -19.6038   -4.6654 C   0  0  0  0  0  0  0  0  0  0  0  0
   28.2223  -20.0008   -3.7640 C   0  0  0  0  0  0  0  0  0  0  0  0
   26.9731  -20.3691   -4.2046 C   0  0  0  0  0  0  0  0  0  0  0  0
   26.7015  -20.3329   -5.5608 C   0  0  0  0  0  0  0  0  0  0  0  0
   27.6403  -19.9404   -6.4846 C   0  0  0  0  0  0  0  0  0  0  0  0
   26.0556  -20.9522  -10.9976 C   0  0  0  0  0  0  0  0  0  0  0  0
   26.1635  -19.8987  -11.6548 O   0  0  0  0  0  0  0  0  0  0  0  0
   25.1373  -21.9164  -11.4880 N   0  0  0  0  0  0  0  0  0  0  0  0
   24.4502  -21.8638  -12.7287 C   0  0  1  0  0  0  0  0  0  0  0  0
   24.5175  -23.1181  -13.5443 C   0  0  0  0  0  0  0  0  0  0  0  0
   23.6379  -22.9818  -15.1096 S   0  0  0  0  0  0  0  0  0  0  0  0
   23.0503  -21.4512  -12.5328 C   0  0  0  0  0  0  0  0  0  0  0  0
   22.3540  -22.0602  -11.6819 O   0  0  0  0  0  0  0  0  0  0  0  0
   22.4264  -20.3859  -13.2610 N   0  0  0  0  0  0  0  0  0  0  0  0
   21.0129  -20.0877  -13.1138 C   0  0  1  0  0  0  0  0  0  0  0  0
   20.6924  -18.9924  -14.0892 C   0  0  0  0  0  0  0  0  0  0  0  0
   19.2686  -18.5555  -14.0817 C   0  0  0  0  0  0  0  0  0  0  0  0
   18.9935  -17.3184  -13.3066 C   0  0  0  0  0  0  0  0  0  0  0  0
   18.1818  -16.3024  -14.0884 C   0  0  0  0  0  0  0  0  0  0  0  0
   17.7932  -15.1828  -13.2521 N   0  0  0  0  0  0  0  0  0  0  0  0
   20.2152  -21.3106  -13.3164 C   0  0  0  0  0  0  0  0  0  0  0  0
   20.5081  -22.2223  -14.3234 O   0  0  0  0  0  0  0  0  0  0  0  0
   19.2456  -21.5291  -12.5551 O   0  0  0  0  0  0  0  0  0  0  0  0
  2  1  1  6
  2  3  1  0
  2 13  1  0
  3  4  1  0
  4 12  1  0
  4  5  2  0
  5  6  1  0
  7  6  1  0
  7  8  2  0
  9  8  1  0
 10  9  2  0
 11 12  2  0
 11 10  1  0
 12  7  1  0
 13 14  2  0
 15 13  1  0
 15 16  1  0
 16 17  1  1
 18 17  1  0
 19 21  1  0
 19 16  1  0
 20 19  2  0
 22 21  1  0
 23 24  1  0
 22 23  1  6
 24 25  1  0
 26 25  1  0
 27 26  1  0
 28 22  1  0
 28 29  1  0
 30 28  2  0
M  END
$$$$
