WCK.pdb
     RDKit          3D

 30 31  0  0  1  0  0  0  0  0999 V2000
   25.0763  -18.7768   -8.9883 N   0  0  0  0  0  0  0  0  0  0  0  0
   26.0262  -19.7904   -9.3277 C   0  0  1  0  0  0  0  0  0  0  0  0
   25.9316  -21.0207   -8.4891 C   0  0  0  0  0  0  0  0  0  0  0  0
   26.1352  -20.7510   -7.0512 C   0  0  0  0  0  0  0  0  0  0  0  0
   25.1444  -20.7583   -6.0983 C   0  0  0  0  0  0  0  0  0  0  0  0
   25.7013  -20.4695   -4.9016 N   0  0  0  0  0  0  0  0  0  0  0  0
   27.0278  -20.2764   -5.0618 C   0  0  0  0  0  0  0  0  0  0  0  0
   28.0137  -19.9636   -4.1506 C   0  0  0  0  0  0  0  0  0  0  0  0
   29.3124  -19.8190   -4.5775 C   0  0  0  0  0  0  0  0  0  0  0  0
   29.6233  -19.9860   -5.9063 C   0  0  0  0  0  0  0  0  0  0  0  0
   28.6132  -20.2996   -6.7982 C   0  0  0  0  0  0  0  0  0  0  0  0
   27.3065  -20.4502   -6.4001 C   0  0  0  0  0  0  0  0  0  0  0  0
   25.8633  -20.2173  -10.7635 C   0  0  0  0  0  0  0  0  0  0  0  0
   24.7410  -20.3648  -11.2849 O   0  0  0  0  0  0  0  0  0  0  0  0
   26.9875  -20.4718  -11.5911 N   0  0  0  0  0  0  0  0  0  0  0  0
   27.0279  -20.3640  -13.0056 C   0  0  1  0  0  0  0  0  0  0  0  0
   28.4023  -20.3267  -13.5995 C   0  0  0  0  0  0  0  0  0  0  0  0
   28.3844  -20.1634  -15.3927 S   0  0  0  0  0  0  0  0  0  0  0  0
   26.2243  -21.4264  -13.6332 C   0  0  0  0  0  0  0  0  0  0  0  0
   26.2535  -22.5803  -13.1356 O   0  0  0  0  0  0  0  0  0  0  0  0
   25.4017  -21.2229  -14.7891 N   0  0  0  0  0  0  0  0  0  0  0  0
   24.1905  -21.9936  -15.0080 C   0  0  1  0  0  0  0  0  0  0  0  0
   23.4124  -21.9605  -13.7245 C   0  0  0  0  0  0  0  0  0  0  0  0
   22.0919  -21.2784  -13.8201 C   0  0  0  0  0  0  0  0  0  0  0  0
   20.9279  -22.0969  -13.3936 C   0  0  0  0  0  0  0  0  0  0  0  0
   19.6192  -21.3308  -13.4456 C   0  0  0  0  0  0  0  0  0  0  0  0
   18.5276  -22.1154  -12.9006 N   0  0  0  0  0  0  0  0  0  0  0  0
   23.4496  -21.4527  -16.1617 C   0  0  0  0  0  0  0  0  0  0  0  0
   23.4654  -20.0997  -16.4783 O   0  0  0  0  0  0  0  0  0  0  0  0
   22.7874  -22.2409  -16.8742 O   0  0  0  0  0  0  0  0  0  0  0  0
  2  1  1  1
  2  3  1  0
  2 13  1  0
  3  4  1  0
  4 12  1  0
  4  5  2  0
  5  6  1  0
  7  6  1  0
  7  8  2  0
  9  8  1  0
 10  9  2  0
 11 12  2  0
 11 10  1  0
 12  7  1  0
 13 14  2  0
 15 13  1  0
 15 16  1  0
 16 17  1  6
 18 17  1  0
 19 21  1  0
 19 16  1  0
 20 19  2  0
 22 21  1  0
 23 24  1  0
 22 23  1  1
 24 25  1  0
 26 25  1  0
 27 26  1  0
 28 22  1  0
 28 29  1  0
 30 28  2  0
M  END
$$$$
