WCK.pdb
     RDKit          3D

 30 31  0  0  1  0  0  0  0  0999 V2000
   24.9637  -20.4763   -8.2986 N   0  0  0  0  0  0  0  0  0  0  0  0
   26.1036  -20.2918   -9.1420 C   0  0  1  0  0  0  0  0  0  0  0  0
   27.3678  -20.8626   -8.5929 C   0  0  0  0  0  0  0  0  0  0  0  0
   27.8499  -20.1420   -7.3971 C   0  0  0  0  0  0  0  0  0  0  0  0
   27.3263  -18.9636   -6.9207 C   0  0  0  0  0  0  0  0  0  0  0  0
   28.0179  -18.6050   -5.8167 N   0  0  0  0  0  0  0  0  0  0  0  0
   28.9749  -19.5251   -5.5712 C   0  0  0  0  0  0  0  0  0  0  0  0
   29.9222  -19.6018   -4.5730 C   0  0  0  0  0  0  0  0  0  0  0  0
   30.7970  -20.6619   -4.5464 C   0  0  0  0  0  0  0  0  0  0  0  0
   30.7251  -21.6386   -5.5114 C   0  0  0  0  0  0  0  0  0  0  0  0
   29.7640  -21.5355   -6.5012 C   0  0  0  0  0  0  0  0  0  0  0  0
   28.8766  -20.4874   -6.5528 C   0  0  0  0  0  0  0  0  0  0  0  0
   25.8791  -20.9242  -10.4910 C   0  0  0  0  0  0  0  0  0  0  0  0
   26.2694  -22.0787  -10.7518 O   0  0  0  0  0  0  0  0  0  0  0  0
   25.2093  -20.2292  -11.5311 N   0  0  0  0  0  0  0  0  0  0  0  0
   24.5020  -20.8176  -12.6117 C   0  0  1  0  0  0  0  0  0  0  0  0
   23.0382  -21.0258  -12.3728 C   0  0  0  0  0  0  0  0  0  0  0  0
   22.6769  -21.5978  -10.7041 S   0  0  0  0  0  0  0  0  0  0  0  0
   24.7180  -20.0559  -13.8533 C   0  0  0  0  0  0  0  0  0  0  0  0
   24.6508  -18.8015  -13.8124 O   0  0  0  0  0  0  0  0  0  0  0  0
   25.0036  -20.6642  -15.1193 N   0  0  0  0  0  0  0  0  0  0  0  0
   25.1912  -19.8709  -16.3210 C   0  0  1  0  0  0  0  0  0  0  0  0
   25.8778  -20.7515  -17.3245 C   0  0  0  0  0  0  0  0  0  0  0  0
   26.2175  -20.0771  -18.6082 C   0  0  0  0  0  0  0  0  0  0  0  0
   26.8745  -20.9434  -19.6203 C   0  0  0  0  0  0  0  0  0  0  0  0
   27.3373  -20.1732  -20.8429 C   0  0  0  0  0  0  0  0  0  0  0  0
   28.1316  -21.0094  -21.7227 N   0  0  0  0  0  0  0  0  0  0  0  0
   23.8952  -19.3449  -16.7861 C   0  0  0  0  0  0  0  0  0  0  0  0
   22.7079  -20.0429  -16.6007 O   0  0  0  0  0  0  0  0  0  0  0  0
   23.8694  -18.2353  -17.3653 O   0  0  0  0  0  0  0  0  0  0  0  0
  2  1  1  1
  2  3  1  0
  2 13  1  0
  3  4  1  0
  4 12  1  0
  4  5  2  0
  5  6  1  0
  7  6  1  0
  7  8  2  0
  9  8  1  0
 10  9  2  0
 11 12  2  0
 11 10  1  0
 12  7  1  0
 13 14  2  0
 15 13  1  0
 15 16  1  0
 16 17  1  1
 18 17  1  0
 19 21  1  0
 19 16  1  0
 20 19  2  0
 22 21  1  0
 23 24  1  0
 22 23  1  6
 24 25  1  0
 26 25  1  0
 27 26  1  0
 28 22  1  0
 28 29  1  0
 30 28  2  0
M  END
$$$$
