WCK.pdb
     RDKit          3D

 30 31  0  0  1  0  0  0  0  0999 V2000
   25.5034  -19.9010  -17.1986 N   0  0  0  0  0  0  0  0  0  0  0  0
   25.2963  -19.2442  -15.9455 C   0  0  1  0  0  0  0  0  0  0  0  0
   23.8716  -18.9032  -15.6634 C   0  0  0  0  0  0  0  0  0  0  0  0
   23.3242  -17.9050  -16.6045 C   0  0  0  0  0  0  0  0  0  0  0  0
   22.5065  -18.1912  -17.6718 C   0  0  0  0  0  0  0  0  0  0  0  0
   22.2077  -17.0343  -18.3025 N   0  0  0  0  0  0  0  0  0  0  0  0
   22.8142  -16.0096  -17.6662 C   0  0  0  0  0  0  0  0  0  0  0  0
   22.8138  -14.6558  -17.9251 C   0  0  0  0  0  0  0  0  0  0  0  0
   23.5257  -13.8080  -17.1102 C   0  0  0  0  0  0  0  0  0  0  0  0
   24.2332  -14.3103  -16.0437 C   0  0  0  0  0  0  0  0  0  0  0  0
   24.2153  -15.6735  -15.8079 C   0  0  0  0  0  0  0  0  0  0  0  0
   23.5128  -16.5446  -16.6056 C   0  0  0  0  0  0  0  0  0  0  0  0
   25.7828  -20.1008  -14.8054 C   0  0  0  0  0  0  0  0  0  0  0  0
   25.1692  -21.1217  -14.4385 O   0  0  0  0  0  0  0  0  0  0  0  0
   26.9685  -19.7814  -14.0943 N   0  0  0  0  0  0  0  0  0  0  0  0
   27.4546  -20.4425  -12.9364 C   0  0  1  0  0  0  0  0  0  0  0  0
   28.9096  -20.2320  -12.6501 C   0  0  0  0  0  0  0  0  0  0  0  0
   29.7493  -19.3040  -13.9447 S   0  0  0  0  0  0  0  0  0  0  0  0
   26.6424  -20.0961  -11.7580 C   0  0  0  0  0  0  0  0  0  0  0  0
   26.1851  -18.9294  -11.6607 O   0  0  0  0  0  0  0  0  0  0  0  0
   26.3380  -21.0182  -10.7037 N   0  0  0  0  0  0  0  0  0  0  0  0
   25.5679  -20.6176   -9.5396 C   0  0  1  0  0  0  0  0  0  0  0  0
   24.3568  -21.5034   -9.4896 C   0  0  0  0  0  0  0  0  0  0  0  0
   23.4490  -21.2442   -8.3377 C   0  0  0  0  0  0  0  0  0  0  0  0
   22.1923  -22.0362   -8.3355 C   0  0  0  0  0  0  0  0  0  0  0  0
   21.3228  -21.7570   -7.1238 C   0  0  0  0  0  0  0  0  0  0  0  0
   20.0692  -22.4831   -7.1965 N   0  0  0  0  0  0  0  0  0  0  0  0
   26.4057  -20.6942   -8.3293 C   0  0  0  0  0  0  0  0  0  0  0  0
   27.4131  -21.6413   -8.1898 O   0  0  0  0  0  0  0  0  0  0  0  0
   26.1987  -19.8789   -7.4020 O   0  0  0  0  0  0  0  0  0  0  0  0
  2  1  1  6
  2  3  1  0
  2 13  1  0
  3  4  1  0
  4 12  1  0
  4  5  2  0
  5  6  1  0
  7  6  1  0
  7  8  2  0
  9  8  1  0
 10  9  2  0
 11 12  2  0
 11 10  1  0
 12  7  1  0
 13 14  2  0
 15 13  1  0
 15 16  1  0
 16 17  1  1
 18 17  1  0
 19 21  1  0
 19 16  1  0
 20 19  2  0
 22 21  1  0
 23 24  1  0
 22 23  1  1
 24 25  1  0
 26 25  1  0
 27 26  1  0
 28 22  1  0
 28 29  1  0
 30 28  2  0
M  END
$$$$
