WCK.pdb
     RDKit          3D

 30 31  0  0  1  0  0  0  0  0999 V2000
   27.4323  -20.2263  -17.1065 N   0  0  0  0  0  0  0  0  0  0  0  0
   27.4429  -19.5434  -15.8502 C   0  0  1  0  0  0  0  0  0  0  0  0
   26.8532  -18.1738  -15.8951 C   0  0  0  0  0  0  0  0  0  0  0  0
   27.5307  -17.2899  -16.8654 C   0  0  0  0  0  0  0  0  0  0  0  0
   26.8944  -16.5125  -17.8036 C   0  0  0  0  0  0  0  0  0  0  0  0
   27.8318  -15.8430  -18.5097 N   0  0  0  0  0  0  0  0  0  0  0  0
   29.0572  -16.1713  -18.0478 C   0  0  0  0  0  0  0  0  0  0  0  0
   30.3127  -15.7572  -18.4380 C   0  0  0  0  0  0  0  0  0  0  0  0
   31.4219  -16.2511  -17.7934 C   0  0  0  0  0  0  0  0  0  0  0  0
   31.2769  -17.1528  -16.7657 C   0  0  0  0  0  0  0  0  0  0  0  0
   30.0044  -17.5504  -16.3956 C   0  0  0  0  0  0  0  0  0  0  0  0
   28.8779  -17.0736  -17.0218 C   0  0  0  0  0  0  0  0  0  0  0  0
   26.6791  -20.3227  -14.8111 C   0  0  0  0  0  0  0  0  0  0  0  0
   25.8178  -21.1683  -15.1215 O   0  0  0  0  0  0  0  0  0  0  0  0
   26.9077  -20.1272  -13.4244 N   0  0  0  0  0  0  0  0  0  0  0  0
   26.1912  -20.7386  -12.3629 C   0  0  1  0  0  0  0  0  0  0  0  0
   26.7095  -20.4353  -10.9908 C   0  0  0  0  0  0  0  0  0  0  0  0
   25.4921  -20.7432   -9.7002 S   0  0  0  0  0  0  0  0  0  0  0  0
   24.7556  -20.4232  -12.4525 C   0  0  0  0  0  0  0  0  0  0  0  0
   24.4078  -19.2233  -12.5903 O   0  0  0  0  0  0  0  0  0  0  0  0
   23.7194  -21.4116  -12.3918 N   0  0  0  0  0  0  0  0  0  0  0  0
   22.3190  -21.0580  -12.5418 C   0  0  1  0  0  0  0  0  0  0  0  0
   21.6856  -22.1257  -13.3860 C   0  0  0  0  0  0  0  0  0  0  0  0
   20.2169  -21.9710  -13.5783 C   0  0  0  0  0  0  0  0  0  0  0  0
   19.5565  -23.0840  -14.3075 C   0  0  0  0  0  0  0  0  0  0  0  0
   18.0517  -22.9141  -14.4028 C   0  0  0  0  0  0  0  0  0  0  0  0
   17.4260  -24.0825  -14.9921 N   0  0  0  0  0  0  0  0  0  0  0  0
   21.6925  -20.9040  -11.2165 C   0  0  0  0  0  0  0  0  0  0  0  0
   20.5746  -20.1024  -11.0192 O   0  0  0  0  0  0  0  0  0  0  0  0
   22.1869  -21.5163  -10.2429 O   0  0  0  0  0  0  0  0  0  0  0  0
  2  1  1  6
  2  3  1  0
  2 13  1  0
  3  4  1  0
  4 12  1  0
  4  5  2  0
  5  6  1  0
  7  6  1  0
  7  8  2  0
  9  8  1  0
 10  9  2  0
 11 12  2  0
 11 10  1  0
 12  7  1  0
 13 14  2  0
 15 13  1  0
 15 16  1  0
 16 17  1  1
 18 17  1  0
 19 21  1  0
 19 16  1  0
 20 19  2  0
 22 21  1  0
 23 24  1  0
 22 23  1  6
 24 25  1  0
 26 25  1  0
 27 26  1  0
 28 22  1  0
 28 29  1  0
 30 28  2  0
M  END
$$$$
