WCK.pdb
     RDKit          3D

 30 31  0  0  1  0  0  0  0  0999 V2000
   28.4935  -19.9482  -15.6612 N   0  0  0  0  0  0  0  0  0  0  0  0
   27.4656  -19.4413  -14.8061 C   0  0  1  0  0  0  0  0  0  0  0  0
   26.4022  -18.6747  -15.5184 C   0  0  0  0  0  0  0  0  0  0  0  0
   26.9233  -17.4757  -16.2060 C   0  0  0  0  0  0  0  0  0  0  0  0
   27.1520  -17.3776  -17.5578 C   0  0  0  0  0  0  0  0  0  0  0  0
   27.6261  -16.1401  -17.8215 N   0  0  0  0  0  0  0  0  0  0  0  0
   27.7080  -15.4390  -16.6707 C   0  0  0  0  0  0  0  0  0  0  0  0
   28.1271  -14.1493  -16.4241 C   0  0  0  0  0  0  0  0  0  0  0  0
   28.1132  -13.6645  -15.1378 C   0  0  0  0  0  0  0  0  0  0  0  0
   27.6832  -14.4638  -14.1051 C   0  0  0  0  0  0  0  0  0  0  0  0
   27.2681  -15.7542  -14.3823 C   0  0  0  0  0  0  0  0  0  0  0  0
   27.2713  -16.2654  -15.6580 C   0  0  0  0  0  0  0  0  0  0  0  0
   26.7848  -20.5626  -14.0649 C   0  0  0  0  0  0  0  0  0  0  0  0
   26.5683  -21.6691  -14.5961 O   0  0  0  0  0  0  0  0  0  0  0  0
   26.3570  -20.4079  -12.7209 N   0  0  0  0  0  0  0  0  0  0  0  0
   25.5531  -21.3189  -11.9874 C   0  0  1  0  0  0  0  0  0  0  0  0
   25.6638  -21.2051  -10.4981 C   0  0  0  0  0  0  0  0  0  0  0  0
   26.0152  -19.5264   -9.9498 S   0  0  0  0  0  0  0  0  0  0  0  0
   24.1448  -21.2276  -12.4077 C   0  0  0  0  0  0  0  0  0  0  0  0
   23.6883  -20.1086  -12.7529 O   0  0  0  0  0  0  0  0  0  0  0  0
   23.2532  -22.3491  -12.4480 N   0  0  0  0  0  0  0  0  0  0  0  0
   21.8977  -22.2273  -12.9546 C   0  0  1  0  0  0  0  0  0  0  0  0
   21.3382  -23.6174  -13.0473 C   0  0  0  0  0  0  0  0  0  0  0  0
   20.7739  -23.9685  -14.3801 C   0  0  0  0  0  0  0  0  0  0  0  0
   21.3884  -25.1536  -15.0319 C   0  0  0  0  0  0  0  0  0  0  0  0
   20.8592  -25.3949  -16.4333 C   0  0  0  0  0  0  0  0  0  0  0  0
   21.4367  -26.5913  -17.0156 N   0  0  0  0  0  0  0  0  0  0  0  0
   21.1127  -21.3317  -12.0860 C   0  0  0  0  0  0  0  0  0  0  0  0
   19.9965  -20.6471  -12.5513 O   0  0  0  0  0  0  0  0  0  0  0  0
   21.4673  -21.1873  -10.8940 O   0  0  0  0  0  0  0  0  0  0  0  0
  2  1  1  6
  2  3  1  0
  2 13  1  0
  3  4  1  0
  4 12  1  0
  4  5  2  0
  5  6  1  0
  7  6  1  0
  7  8  2  0
  9  8  1  0
 10  9  2  0
 11 12  2  0
 11 10  1  0
 12  7  1  0
 13 14  2  0
 15 13  1  0
 15 16  1  0
 16 17  1  1
 18 17  1  0
 19 21  1  0
 19 16  1  0
 20 19  2  0
 22 21  1  0
 23 24  1  0
 22 23  1  1
 24 25  1  0
 26 25  1  0
 27 26  1  0
 28 22  1  0
 28 29  1  0
 30 28  2  0
M  END
$$$$
