WCK.pdb
     RDKit          3D

 30 31  0  0  1  0  0  0  0  0999 V2000
   28.8350  -20.6461   -9.4064 N   0  0  0  0  0  0  0  0  0  0  0  0
   27.4114  -20.7240   -9.2966 C   0  0  1  0  0  0  0  0  0  0  0  0
   26.7949  -19.5953   -8.5406 C   0  0  0  0  0  0  0  0  0  0  0  0
   27.5648  -19.2246   -7.3357 C   0  0  0  0  0  0  0  0  0  0  0  0
   28.3277  -18.0886   -7.2046 C   0  0  0  0  0  0  0  0  0  0  0  0
   28.8816  -18.0867   -5.9722 N   0  0  0  0  0  0  0  0  0  0  0  0
   28.4931  -19.1952   -5.3067 C   0  0  0  0  0  0  0  0  0  0  0  0
   28.7888  -19.6382   -4.0353 C   0  0  0  0  0  0  0  0  0  0  0  0
   28.2551  -20.8231   -3.5874 C   0  0  0  0  0  0  0  0  0  0  0  0
   27.4315  -21.5603   -4.4049 C   0  0  0  0  0  0  0  0  0  0  0  0
   27.1521  -21.0911   -5.6762 C   0  0  0  0  0  0  0  0  0  0  0  0
   27.6713  -19.9104   -6.1506 C   0  0  0  0  0  0  0  0  0  0  0  0
   26.7701  -20.7491  -10.6598 C   0  0  0  0  0  0  0  0  0  0  0  0
   27.2348  -20.1039  -11.6196 O   0  0  0  0  0  0  0  0  0  0  0  0
   25.6015  -21.5129  -10.9132 N   0  0  0  0  0  0  0  0  0  0  0  0
   24.9664  -21.6801  -12.1713 C   0  0  1  0  0  0  0  0  0  0  0  0
   24.6059  -23.0921  -12.5168 C   0  0  0  0  0  0  0  0  0  0  0  0
   23.7820  -23.2327  -14.1117 S   0  0  0  0  0  0  0  0  0  0  0  0
   23.7865  -20.8058  -12.2806 C   0  0  0  0  0  0  0  0  0  0  0  0
   23.0352  -20.6766  -11.2813 O   0  0  0  0  0  0  0  0  0  0  0  0
   23.4389  -20.0851  -13.4698 N   0  0  0  0  0  0  0  0  0  0  0  0
   22.2354  -19.2760  -13.5462 C   0  0  1  0  0  0  0  0  0  0  0  0
   22.2705  -18.5624  -14.8666 C   0  0  0  0  0  0  0  0  0  0  0  0
   23.1803  -17.3840  -14.9080 C   0  0  0  0  0  0  0  0  0  0  0  0
   23.2349  -16.6760  -16.2127 C   0  0  0  0  0  0  0  0  0  0  0  0
   24.2817  -15.5779  -16.2430 C   0  0  0  0  0  0  0  0  0  0  0  0
   24.3386  -14.9403  -17.5446 N   0  0  0  0  0  0  0  0  0  0  0  0
   21.0441  -20.1249  -13.3655 C   0  0  0  0  0  0  0  0  0  0  0  0
   19.9470  -19.7056  -12.6227 O   0  0  0  0  0  0  0  0  0  0  0  0
   21.0258  -21.2571  -13.8995 O   0  0  0  0  0  0  0  0  0  0  0  0
  2  1  1  6
  2  3  1  0
  2 13  1  0
  3  4  1  0
  4 12  1  0
  4  5  2  0
  5  6  1  0
  7  6  1  0
  7  8  2  0
  9  8  1  0
 10  9  2  0
 11 12  2  0
 11 10  1  0
 12  7  1  0
 13 14  2  0
 15 13  1  0
 15 16  1  0
 16 17  1  1
 18 17  1  0
 19 21  1  0
 19 16  1  0
 20 19  2  0
 22 21  1  0
 23 24  1  0
 22 23  1  6
 24 25  1  0
 26 25  1  0
 27 26  1  0
 28 22  1  0
 28 29  1  0
 30 28  2  0
M  END
$$$$
