WCK.pdb
     RDKit          3D

 30 31  0  0  1  0  0  0  0  0999 V2000
   24.0256  -19.3272  -14.7146 N   0  0  0  0  0  0  0  0  0  0  0  0
   22.7229  -19.9159  -14.7495 C   0  0  1  0  0  0  0  0  0  0  0  0
   22.5391  -20.9272  -15.8308 C   0  0  0  0  0  0  0  0  0  0  0  0
   22.7250  -20.3610  -17.1824 C   0  0  0  0  0  0  0  0  0  0  0  0
   23.8998  -20.3890  -17.8956 C   0  0  0  0  0  0  0  0  0  0  0  0
   23.6926  -19.7789  -19.0831 N   0  0  0  0  0  0  0  0  0  0  0  0
   22.4114  -19.3585  -19.1512 C   0  0  0  0  0  0  0  0  0  0  0  0
   21.7287  -18.6926  -20.1464 C   0  0  0  0  0  0  0  0  0  0  0  0
   20.4038  -18.3739  -19.9655 C   0  0  0  0  0  0  0  0  0  0  0  0
   19.7658  -18.7185  -18.7974 C   0  0  0  0  0  0  0  0  0  0  0  0
   20.4762  -19.3865  -17.8158 C   0  0  0  0  0  0  0  0  0  0  0  0
   21.8010  -19.7179  -17.9691 C   0  0  0  0  0  0  0  0  0  0  0  0
   22.4091  -20.5989  -13.4437 C   0  0  0  0  0  0  0  0  0  0  0  0
   23.2605  -21.2696  -12.8285 O   0  0  0  0  0  0  0  0  0  0  0  0
   21.1223  -20.5085  -12.8526 N   0  0  0  0  0  0  0  0  0  0  0  0
   20.7299  -21.0704  -11.6099 C   0  0  1  0  0  0  0  0  0  0  0  0
   20.1137  -20.1055  -10.6442 C   0  0  0  0  0  0  0  0  0  0  0  0
   18.5262  -19.4701  -11.2085 S   0  0  0  0  0  0  0  0  0  0  0  0
   19.8441  -22.2283  -11.8171 C   0  0  0  0  0  0  0  0  0  0  0  0
   18.9007  -22.1278  -12.6416 O   0  0  0  0  0  0  0  0  0  0  0  0
   19.9936  -23.4765  -11.1287 N   0  0  0  0  0  0  0  0  0  0  0  0
   19.0473  -24.5634  -11.3072 C   0  0  1  0  0  0  0  0  0  0  0  0
   19.7058  -25.8077  -10.7856 C   0  0  0  0  0  0  0  0  0  0  0  0
   18.8892  -27.0450  -10.9280 C   0  0  0  0  0  0  0  0  0  0  0  0
   19.5173  -28.2795  -10.3914 C   0  0  0  0  0  0  0  0  0  0  0  0
   20.6282  -28.8084  -11.2794 C   0  0  0  0  0  0  0  0  0  0  0  0
   21.1678  -30.0521  -10.7637 N   0  0  0  0  0  0  0  0  0  0  0  0
   17.7761  -24.2416  -10.6340 C   0  0  0  0  0  0  0  0  0  0  0  0
   16.5500  -24.6598  -11.1370 O   0  0  0  0  0  0  0  0  0  0  0  0
   17.8082  -23.5706   -9.5775 O   0  0  0  0  0  0  0  0  0  0  0  0
  2  1  1  1
  2  3  1  0
  2 13  1  0
  3  4  1  0
  4 12  1  0
  4  5  2  0
  5  6  1  0
  7  6  1  0
  7  8  2  0
  9  8  1  0
 10  9  2  0
 11 12  2  0
 11 10  1  0
 12  7  1  0
 13 14  2  0
 15 13  1  0
 15 16  1  0
 16 17  1  1
 18 17  1  0
 19 21  1  0
 19 16  1  0
 20 19  2  0
 22 21  1  0
 23 24  1  0
 22 23  1  1
 24 25  1  0
 26 25  1  0
 27 26  1  0
 28 22  1  0
 28 29  1  0
 30 28  2  0
M  END
$$$$
