KNT.pdb
     RDKit          3D

 25 24  0  0  1  0  0  0  0  0999 V2000
   26.3303  -22.3580  -11.0680 N   0  0  0  0  0  0  0  0  0  0  0  0
   25.7645  -21.0560  -11.2575 C   0  0  1  0  0  0  0  0  0  0  0  0
   26.1141  -20.1633  -10.1350 C   0  0  0  0  0  0  0  0  0  0  0  0
   25.3340  -20.3248   -8.8799 C   0  0  0  0  0  0  0  0  0  0  0  0
   23.9912  -20.9478   -9.0398 C   0  0  0  0  0  0  0  0  0  0  0  0
   23.2012  -20.8917   -7.7364 C   0  0  0  0  0  0  0  0  0  0  0  0
   21.8840  -21.4534   -7.9341 N   0  0  0  0  0  0  0  0  0  0  0  0
   25.8244  -20.5401  -12.6235 C   0  0  0  0  0  0  0  0  0  0  0  0
   25.4091  -19.3834  -12.8640 O   0  0  0  0  0  0  0  0  0  0  0  0
   27.1555  -20.2604  -17.7324 N   0  0  0  0  0  0  0  0  0  0  0  0
   28.0679  -21.1161  -17.0558 C   0  0  0  0  0  0  0  0  0  0  0  0
   29.0985  -21.4498  -17.6524 O   0  0  0  0  0  0  0  0  0  0  0  0
   27.7622  -21.5600  -15.7091 C   0  0  0  0  0  0  0  0  0  0  0  0
   26.5751  -21.0056  -15.0286 C   0  0  2  0  0  0  0  0  0  0  0  0
   26.3479  -21.3094  -13.6708 N   0  0  0  0  0  0  0  0  0  0  0  0
   25.3133  -21.1818  -15.8621 C   0  0  0  0  0  0  0  0  0  0  0  0
   24.9465  -22.2996  -16.2336 O   0  0  0  0  0  0  0  0  0  0  0  0
   21.8804  -19.9245  -14.8845 C   0  0  0  0  0  0  0  0  0  0  0  0
   22.2404  -19.2579  -16.1984 C   0  0  1  0  0  0  0  0  0  0  0  0
   22.5771  -17.9369  -15.9746 O   0  0  0  0  0  0  0  0  0  0  0  0
   23.3234  -20.0497  -16.8871 C   0  0  2  0  0  0  0  0  0  0  0  0
   24.5856  -20.0252  -16.1838 N   0  0  0  0  0  0  0  0  0  0  0  0
   23.4156  -19.7878  -18.3422 C   0  0  0  0  0  0  0  0  0  0  0  0
   24.4607  -19.3888  -18.8860 O   0  0  0  0  0  0  0  0  0  0  0  0
   22.3176  -19.9835  -19.1553 O   0  0  0  0  0  0  0  0  0  0  0  0
  2  8  1  0
  2  1  1  6
  3  2  1  0
  4  3  1  0
  5  4  1  0
  5  6  1  0
  6  7  1  0
  8  9  2  0
 10 11  1  0
 11 12  2  0
 13 11  1  0
 14 13  1  6
 15 14  1  0
 15  8  1  0
 16 17  2  0
 16 14  1  0
 19 18  1  1
 19 21  1  0
 20 19  1  0
 21 22  1  1
 21 23  1  0
 22 16  1  0
 23 25  1  0
 24 23  2  0
M  END
$$$$
