KNT.pdb
     RDKit          3D

 25 24  0  0  1  0  0  0  0  0999 V2000
   21.0548  -11.9612  -15.4418 N   0  0  0  0  0  0  0  0  0  0  0  0
   20.3602  -10.7996  -15.9104 C   0  0  1  0  0  0  0  0  0  0  0  0
   18.9030  -10.9509  -15.7298 C   0  0  0  0  0  0  0  0  0  0  0  0
   18.2911  -12.2104  -16.2292 C   0  0  0  0  0  0  0  0  0  0  0  0
   16.8155  -12.3132  -16.0591 C   0  0  0  0  0  0  0  0  0  0  0  0
   16.2801  -13.6010  -16.6765 C   0  0  0  0  0  0  0  0  0  0  0  0
   16.2799  -14.6573  -15.6897 N   0  0  0  0  0  0  0  0  0  0  0  0
   20.9893   -9.5208  -15.5867 C   0  0  0  0  0  0  0  0  0  0  0  0
   21.1782   -9.2132  -14.3875 O   0  0  0  0  0  0  0  0  0  0  0  0
   23.9363   -8.8601  -15.1072 N   0  0  0  0  0  0  0  0  0  0  0  0
   24.3775   -7.9343  -16.0924 C   0  0  0  0  0  0  0  0  0  0  0  0
   25.5953   -7.8221  -16.2763 O   0  0  0  0  0  0  0  0  0  0  0  0
   23.3975   -7.1661  -16.8365 C   0  0  0  0  0  0  0  0  0  0  0  0
   21.9657   -7.3458  -16.5250 C   0  0  2  0  0  0  0  0  0  0  0  0
   21.3967   -8.6339  -16.5916 N   0  0  0  0  0  0  0  0  0  0  0  0
   21.1002   -6.3125  -17.2328 C   0  0  0  0  0  0  0  0  0  0  0  0
   20.9392   -6.3467  -18.4555 O   0  0  0  0  0  0  0  0  0  0  0  0
   17.5867   -5.6904  -16.9498 C   0  0  0  0  0  0  0  0  0  0  0  0
   18.2087   -4.3921  -16.4724 C   0  0  1  0  0  0  0  0  0  0  0  0
   18.0970   -4.2988  -15.0986 O   0  0  0  0  0  0  0  0  0  0  0  0
   19.6286   -4.2979  -16.9715 C   0  0  2  0  0  0  0  0  0  0  0  0
   20.4919   -5.3272  -16.4389 N   0  0  0  0  0  0  0  0  0  0  0  0
   20.1867   -2.9269  -16.9175 C   0  0  0  0  0  0  0  0  0  0  0  0
   21.2416   -2.6564  -16.3165 O   0  0  0  0  0  0  0  0  0  0  0  0
   19.5358   -1.8854  -17.5474 O   0  0  0  0  0  0  0  0  0  0  0  0
  2  8  1  0
  2  1  1  1
  3  2  1  0
  4  3  1  0
  5  4  1  0
  5  6  1  0
  6  7  1  0
  8  9  2  0
 10 11  1  0
 11 12  2  0
 13 11  1  0
 14 13  1  6
 15 14  1  0
 15  8  1  0
 16 17  2  0
 16 14  1  0
 19 18  1  1
 19 21  1  0
 20 19  1  0
 21 22  1  1
 21 23  1  0
 22 16  1  0
 23 25  1  0
 24 23  2  0
M  END
$$$$
