KNT.pdb
     RDKit          3D

 25 24  0  0  1  0  0  0  0  0999 V2000
   21.3077  -21.0700  -14.7370 N   0  0  0  0  0  0  0  0  0  0  0  0
   20.8653  -19.8618  -15.3661 C   0  0  1  0  0  0  0  0  0  0  0  0
   19.5002  -19.5109  -14.9273 C   0  0  0  0  0  0  0  0  0  0  0  0
   18.4203  -20.4800  -15.2511 C   0  0  0  0  0  0  0  0  0  0  0  0
   17.7349  -21.0863  -14.0766 C   0  0  0  0  0  0  0  0  0  0  0  0
   17.3314  -22.5293  -14.3610 C   0  0  0  0  0  0  0  0  0  0  0  0
   16.5832  -23.0608  -13.2442 N   0  0  0  0  0  0  0  0  0  0  0  0
   21.8717  -18.8077  -15.4750 C   0  0  0  0  0  0  0  0  0  0  0  0
   21.5059  -17.6207  -15.6347 O   0  0  0  0  0  0  0  0  0  0  0  0
   26.4789  -16.3451  -15.0927 N   0  0  0  0  0  0  0  0  0  0  0  0
   26.5877  -17.5889  -14.4118 C   0  0  0  0  0  0  0  0  0  0  0  0
   27.6033  -17.7910  -13.7357 O   0  0  0  0  0  0  0  0  0  0  0  0
   25.5187  -18.5620  -14.5321 C   0  0  0  0  0  0  0  0  0  0  0  0
   24.3731  -18.2566  -15.4117 C   0  0  2  0  0  0  0  0  0  0  0  0
   23.2403  -19.0956  -15.3934 N   0  0  0  0  0  0  0  0  0  0  0  0
   24.8202  -17.9480  -16.8339 C   0  0  0  0  0  0  0  0  0  0  0  0
   25.6292  -18.6732  -17.4185 O   0  0  0  0  0  0  0  0  0  0  0  0
   22.2710  -16.7530  -19.6351 C   0  0  0  0  0  0  0  0  0  0  0  0
   23.4157  -15.7653  -19.5147 C   0  0  1  0  0  0  0  0  0  0  0  0
   22.9725  -14.6102  -18.8999 O   0  0  0  0  0  0  0  0  0  0  0  0
   24.5761  -16.4196  -18.8079 C   0  0  2  0  0  0  0  0  0  0  0  0
   24.2719  -16.8123  -17.4509 N   0  0  0  0  0  0  0  0  0  0  0  0
   25.8572  -15.6949  -18.9746 C   0  0  0  0  0  0  0  0  0  0  0  0
   26.5066  -15.2522  -18.0105 O   0  0  0  0  0  0  0  0  0  0  0  0
   26.3789  -15.4849  -20.2351 O   0  0  0  0  0  0  0  0  0  0  0  0
  2  8  1  0
  2  1  1  1
  3  2  1  0
  4  3  1  0
  5  4  1  0
  5  6  1  0
  6  7  1  0
  8  9  2  0
 10 11  1  0
 11 12  2  0
 13 11  1  0
 14 13  1  1
 15 14  1  0
 15  8  1  0
 16 17  2  0
 16 14  1  0
 19 18  1  1
 19 21  1  0
 20 19  1  0
 21 22  1  1
 21 23  1  0
 22 16  1  0
 23 25  1  0
 24 23  2  0
M  END
$$$$
