KNT.pdb
     RDKit          3D

 25 24  0  0  1  0  0  0  0  0999 V2000
   26.6903  -21.4512  -14.5296 N   0  0  0  0  0  0  0  0  0  0  0  0
   27.1853  -20.2034  -14.0302 C   0  0  1  0  0  0  0  0  0  0  0  0
   27.3910  -19.2419  -15.1312 C   0  0  0  0  0  0  0  0  0  0  0  0
   27.9710  -19.7770  -16.3911 C   0  0  0  0  0  0  0  0  0  0  0  0
   27.3312  -21.0168  -16.9111 C   0  0  0  0  0  0  0  0  0  0  0  0
   27.9944  -21.4755  -18.2056 C   0  0  0  0  0  0  0  0  0  0  0  0
   27.4616  -22.7588  -18.6042 N   0  0  0  0  0  0  0  0  0  0  0  0
   26.5754  -19.7411  -12.7851 C   0  0  0  0  0  0  0  0  0  0  0  0
   26.6827  -18.5376  -12.4563 O   0  0  0  0  0  0  0  0  0  0  0  0
   22.6007  -21.9844   -8.4634 N   0  0  0  0  0  0  0  0  0  0  0  0
   23.3136  -20.9776   -9.1710 C   0  0  0  0  0  0  0  0  0  0  0  0
   23.1600  -19.8029   -8.8163 O   0  0  0  0  0  0  0  0  0  0  0  0
   24.1834  -21.3589  -10.2674 C   0  0  0  0  0  0  0  0  0  0  0  0
   25.2231  -20.4110  -10.7146 C   0  0  2  0  0  0  0  0  0  0  0  0
   25.8621  -20.6151  -11.9545 N   0  0  0  0  0  0  0  0  0  0  0  0
   26.2257  -20.1103   -9.6090 C   0  0  0  0  0  0  0  0  0  0  0  0
   26.7731  -19.0076   -9.5284 O   0  0  0  0  0  0  0  0  0  0  0  0
   29.3143  -20.3040   -8.9805 C   0  0  0  0  0  0  0  0  0  0  0  0
   28.8367  -21.2776   -7.9201 C   0  0  1  0  0  0  0  0  0  0  0  0
   29.6904  -21.2406   -6.8345 O   0  0  0  0  0  0  0  0  0  0  0  0
   27.4004  -20.9800   -7.5704 C   0  0  2  0  0  0  0  0  0  0  0  0
   26.4957  -21.1338   -8.6867 N   0  0  0  0  0  0  0  0  0  0  0  0
   27.2254  -19.7306   -6.7940 C   0  0  0  0  0  0  0  0  0  0  0  0
   26.3702  -18.8756   -7.0849 O   0  0  0  0  0  0  0  0  0  0  0  0
   28.0262  -19.4736   -5.6996 O   0  0  0  0  0  0  0  0  0  0  0  0
  2  8  1  0
  2  1  1  6
  3  2  1  0
  4  3  1  0
  5  4  1  0
  5  6  1  0
  6  7  1  0
  8  9  2  0
 10 11  1  0
 11 12  2  0
 13 11  1  0
 14 13  1  1
 15 14  1  0
 15  8  1  0
 16 17  2  0
 16 14  1  0
 19 18  1  6
 19 21  1  0
 20 19  1  0
 21 22  1  6
 21 23  1  0
 22 16  1  0
 23 25  1  0
 24 23  2  0
M  END
$$$$
