KNT.pdb
     RDKit          3D

 25 24  0  0  1  0  0  0  0  0999 V2000
   16.4012  -19.2037    2.2359 N   0  0  0  0  0  0  0  0  0  0  0  0
   16.6922  -18.9179    3.6088 C   0  0  1  0  0  0  0  0  0  0  0  0
   17.0747  -20.1472    4.3312 C   0  0  0  0  0  0  0  0  0  0  0  0
   16.1110  -21.2783    4.2898 C   0  0  0  0  0  0  0  0  0  0  0  0
   16.5225  -22.4941    5.0444 C   0  0  0  0  0  0  0  0  0  0  0  0
   15.5601  -23.6497    4.7908 C   0  0  0  0  0  0  0  0  0  0  0  0
   15.9158  -24.7783    5.6211 N   0  0  0  0  0  0  0  0  0  0  0  0
   17.4455  -17.6883    3.8464 C   0  0  0  0  0  0  0  0  0  0  0  0
   17.8669  -17.0257    2.8709 O   0  0  0  0  0  0  0  0  0  0  0  0
   19.4458  -13.4870    6.1998 N   0  0  0  0  0  0  0  0  0  0  0  0
   18.1479  -13.4834    5.6186 C   0  0  0  0  0  0  0  0  0  0  0  0
   17.6055  -12.3894    5.4220 O   0  0  0  0  0  0  0  0  0  0  0  0
   17.5156  -14.7445    5.2813 C   0  0  0  0  0  0  0  0  0  0  0  0
   18.2112  -16.0025    5.6174 C   0  0  2  0  0  0  0  0  0  0  0  0
   17.6979  -17.2276    5.1451 N   0  0  0  0  0  0  0  0  0  0  0  0
   18.5638  -16.0744    7.0967 C   0  0  0  0  0  0  0  0  0  0  0  0
   17.6837  -16.1455    7.9583 O   0  0  0  0  0  0  0  0  0  0  0  0
   21.6427  -18.3111    8.1590 C   0  0  0  0  0  0  0  0  0  0  0  0
   21.7462  -16.9599    8.8400 C   0  0  1  0  0  0  0  0  0  0  0  0
   22.7768  -16.2317    8.2775 O   0  0  0  0  0  0  0  0  0  0  0  0
   20.4110  -16.2613    8.7835 C   0  0  2  0  0  0  0  0  0  0  0  0
   19.9258  -16.0620    7.4369 N   0  0  0  0  0  0  0  0  0  0  0  0
   20.3277  -15.0691    9.6587 C   0  0  0  0  0  0  0  0  0  0  0  0
   20.0100  -13.9451    9.2309 O   0  0  0  0  0  0  0  0  0  0  0  0
   20.6076  -15.1742   11.0062 O   0  0  0  0  0  0  0  0  0  0  0  0
  2  8  1  0
  2  1  1  6
  3  2  1  0
  4  3  1  0
  5  4  1  0
  5  6  1  0
  6  7  1  0
  8  9  2  0
 10 11  1  0
 11 12  2  0
 13 11  1  0
 14 13  1  1
 15 14  1  0
 15  8  1  0
 16 17  2  0
 16 14  1  0
 19 18  1  6
 19 21  1  0
 20 19  1  0
 21 22  1  6
 21 23  1  0
 22 16  1  0
 23 25  1  0
 24 23  2  0
M  END
$$$$
