KNT.pdb
     RDKit          3D

 25 24  0  0  1  0  0  0  0  0999 V2000
   25.6070  -21.2376  -11.7491 N   0  0  0  0  0  0  0  0  0  0  0  0
   25.0078  -21.2217  -13.0499 C   0  0  1  0  0  0  0  0  0  0  0  0
   25.7144  -22.1402  -13.9644 C   0  0  0  0  0  0  0  0  0  0  0  0
   26.9583  -21.6310  -14.5995 C   0  0  0  0  0  0  0  0  0  0  0  0
   26.7717  -20.9477  -15.9091 C   0  0  0  0  0  0  0  0  0  0  0  0
   28.1033  -20.4557  -16.4664 C   0  0  0  0  0  0  0  0  0  0  0  0
   27.8837  -19.7250  -17.6942 N   0  0  0  0  0  0  0  0  0  0  0  0
   23.5469  -21.1845  -13.0659 C   0  0  0  0  0  0  0  0  0  0  0  0
   22.9139  -22.0904  -13.6548 O   0  0  0  0  0  0  0  0  0  0  0  0
   21.8654  -20.2051   -8.7507 N   0  0  0  0  0  0  0  0  0  0  0  0
   21.0554  -20.5433   -9.8696 C   0  0  0  0  0  0  0  0  0  0  0  0
   20.5040  -21.6503   -9.8706 O   0  0  0  0  0  0  0  0  0  0  0  0
   20.9063  -19.5915  -10.9538 C   0  0  0  0  0  0  0  0  0  0  0  0
   21.4531  -19.9332  -12.2819 C   0  0  2  0  0  0  0  0  0  0  0  0
   22.8370  -20.1604  -12.4258 N   0  0  0  0  0  0  0  0  0  0  0  0
   20.9204  -19.0072  -13.3667 C   0  0  0  0  0  0  0  0  0  0  0  0
   20.5785  -17.8510  -13.1055 O   0  0  0  0  0  0  0  0  0  0  0  0
   22.6448  -18.2748  -16.6605 C   0  0  0  0  0  0  0  0  0  0  0  0
   21.2824  -18.8462  -17.0032 C   0  0  1  0  0  0  0  0  0  0  0  0
   21.4243  -20.1323  -17.4875 O   0  0  0  0  0  0  0  0  0  0  0  0
   20.3763  -18.7491  -15.8017 C   0  0  2  0  0  0  0  0  0  0  0  0
   20.8403  -19.5202  -14.6711 N   0  0  0  0  0  0  0  0  0  0  0  0
   18.9410  -18.9200  -16.1258 C   0  0  0  0  0  0  0  0  0  0  0  0
   18.2135  -19.7372  -15.5341 O   0  0  0  0  0  0  0  0  0  0  0  0
   18.3562  -18.1590  -17.1178 O   0  0  0  0  0  0  0  0  0  0  0  0
  2  8  1  0
  2  1  1  1
  3  2  1  0
  4  3  1  0
  5  4  1  0
  5  6  1  0
  6  7  1  0
  8  9  2  0
 10 11  1  0
 11 12  2  0
 13 11  1  0
 14 13  1  1
 15 14  1  0
 15  8  1  0
 16 17  2  0
 16 14  1  0
 19 18  1  1
 19 21  1  0
 20 19  1  0
 21 22  1  1
 21 23  1  0
 22 16  1  0
 23 25  1  0
 24 23  2  0
M  END
$$$$
