KNT.pdb
     RDKit          3D

 25 24  0  0  1  0  0  0  0  0999 V2000
   43.2945  -10.4188   -7.5042 N   0  0  0  0  0  0  0  0  0  0  0  0
   42.6934  -10.5069   -8.8012 C   0  0  1  0  0  0  0  0  0  0  0  0
   43.1024  -11.7491   -9.4860 C   0  0  0  0  0  0  0  0  0  0  0  0
   44.5460  -12.1004   -9.4352 C   0  0  0  0  0  0  0  0  0  0  0  0
   44.9399  -13.2938  -10.2338 C   0  0  0  0  0  0  0  0  0  0  0  0
   46.4321  -13.5778  -10.0969 C   0  0  0  0  0  0  0  0  0  0  0  0
   46.8094  -14.6632  -10.9739 N   0  0  0  0  0  0  0  0  0  0  0  0
   41.2980  -10.0789   -8.8750 C   0  0  0  0  0  0  0  0  0  0  0  0
   40.7157  -10.0647   -9.9836 O   0  0  0  0  0  0  0  0  0  0  0  0
   38.5543  -12.0897   -7.4015 N   0  0  0  0  0  0  0  0  0  0  0  0
   38.2400  -11.2541   -6.2945 C   0  0  0  0  0  0  0  0  0  0  0  0
   37.7542  -11.7853   -5.2888 O   0  0  0  0  0  0  0  0  0  0  0  0
   38.4972   -9.8293   -6.3827 C   0  0  0  0  0  0  0  0  0  0  0  0
   39.2478   -9.3115   -7.5437 C   0  0  2  0  0  0  0  0  0  0  0  0
   40.5924   -9.6933   -7.7279 N   0  0  0  0  0  0  0  0  0  0  0  0
   39.0627   -7.8097   -7.7110 C   0  0  0  0  0  0  0  0  0  0  0  0
   37.9396   -7.3179   -7.8482 O   0  0  0  0  0  0  0  0  0  0  0  0
   42.5738   -5.3074   -7.1809 C   0  0  0  0  0  0  0  0  0  0  0  0
   41.1560   -4.9019   -6.8265 C   0  0  1  0  0  0  0  0  0  0  0  0
   41.0548   -3.5242   -6.8108 O   0  0  0  0  0  0  0  0  0  0  0  0
   40.1880   -5.5686   -7.7713 C   0  0  2  0  0  0  0  0  0  0  0  0
   40.2176   -7.0115   -7.6971 N   0  0  0  0  0  0  0  0  0  0  0  0
   40.2226   -5.0144   -9.1446 C   0  0  0  0  0  0  0  0  0  0  0  0
   40.4555   -5.7166  -10.1445 O   0  0  0  0  0  0  0  0  0  0  0  0
   39.9920   -3.6704   -9.3586 O   0  0  0  0  0  0  0  0  0  0  0  0
  2  8  1  0
  2  1  1  1
  3  2  1  0
  4  3  1  0
  5  4  1  0
  5  6  1  0
  6  7  1  0
  8  9  2  0
 10 11  1  0
 11 12  2  0
 13 11  1  0
 14 13  1  1
 15 14  1  0
 15  8  1  0
 16 17  2  0
 16 14  1  0
 19 18  1  6
 19 21  1  0
 20 19  1  0
 21 22  1  6
 21 23  1  0
 22 16  1  0
 23 25  1  0
 24 23  2  0
M  END
$$$$
