KNT.pdb
     RDKit          3D

 25 24  0  0  1  0  0  0  0  0999 V2000
   27.0953  -22.3592  -16.6306 N   0  0  0  0  0  0  0  0  0  0  0  0
   27.7841  -21.1489  -16.2956 C   0  0  1  0  0  0  0  0  0  0  0  0
   29.1056  -21.0983  -16.9515 C   0  0  0  0  0  0  0  0  0  0  0  0
   29.8847  -22.3637  -16.9917 C   0  0  0  0  0  0  0  0  0  0  0  0
   29.5341  -23.2932  -18.1008 C   0  0  0  0  0  0  0  0  0  0  0  0
   30.7387  -23.5559  -18.9985 C   0  0  0  0  0  0  0  0  0  0  0  0
   31.1960  -24.9161  -18.8237 N   0  0  0  0  0  0  0  0  0  0  0  0
   26.9563  -19.9448  -16.2669 C   0  0  0  0  0  0  0  0  0  0  0  0
   27.5050  -18.8193  -16.2873 O   0  0  0  0  0  0  0  0  0  0  0  0
   22.5698  -16.9822  -16.5017 N   0  0  0  0  0  0  0  0  0  0  0  0
   23.6587  -16.9471  -17.4157 C   0  0  0  0  0  0  0  0  0  0  0  0
   23.7040  -16.0134  -18.2255 O   0  0  0  0  0  0  0  0  0  0  0  0
   24.6635  -17.9920  -17.3660 C   0  0  0  0  0  0  0  0  0  0  0  0
   24.5654  -19.0253  -16.3161 C   0  0  2  0  0  0  0  0  0  0  0  0
   25.5581  -20.0224  -16.2280 N   0  0  0  0  0  0  0  0  0  0  0  0
   23.1654  -19.6184  -16.2372 C   0  0  0  0  0  0  0  0  0  0  0  0
   22.7611  -20.4122  -17.0906 O   0  0  0  0  0  0  0  0  0  0  0  0
   21.5133  -19.9524  -12.4616 C   0  0  0  0  0  0  0  0  0  0  0  0
   21.0440  -20.7135  -13.6866 C   0  0  1  0  0  0  0  0  0  0  0  0
   19.8091  -21.2812  -13.4385 O   0  0  0  0  0  0  0  0  0  0  0  0
   21.0596  -19.8001  -14.8864 C   0  0  2  0  0  0  0  0  0  0  0  0
   22.3600  -19.2299  -15.1549 N   0  0  0  0  0  0  0  0  0  0  0  0
   19.9380  -18.8327  -14.9101 C   0  0  0  0  0  0  0  0  0  0  0  0
   20.1156  -17.6021  -14.9456 O   0  0  0  0  0  0  0  0  0  0  0  0
   18.6325  -19.2805  -14.8926 O   0  0  0  0  0  0  0  0  0  0  0  0
  2  8  1  0
  2  1  1  6
  3  2  1  0
  4  3  1  0
  5  4  1  0
  5  6  1  0
  6  7  1  0
  8  9  2  0
 10 11  1  0
 11 12  2  0
 13 11  1  0
 14 13  1  6
 15 14  1  0
 15  8  1  0
 16 17  2  0
 16 14  1  0
 19 18  1  1
 19 21  1  0
 20 19  1  0
 21 22  1  1
 21 23  1  0
 22 16  1  0
 23 25  1  0
 24 23  2  0
M  END
$$$$
