VGW.pdb
     RDKit          3D

 26 27  0  0  1  0  0  0  0  0999 V2000
   27.8404  -22.8003  -19.8182 C   0  0  0  0  0  0  0  0  0  0  0  0
   27.1461  -22.1512  -18.6177 C   0  0  1  0  0  0  0  0  0  0  0  0
   27.0302  -23.1449  -17.4813 C   0  0  0  0  0  0  0  0  0  0  0  0
   28.0265  -21.0166  -18.1485 C   0  0  2  0  0  0  0  0  0  0  0  0
   29.4097  -21.4862  -18.1329 N   0  0  0  0  0  0  0  0  0  0  0  0
   27.6355  -20.5258  -16.8156 C   0  0  0  0  0  0  0  0  0  0  0  0
   26.5041  -20.0058  -16.6596 O   0  0  0  0  0  0  0  0  0  0  0  0
   28.5788  -20.6684  -15.7494 N   0  0  0  0  0  0  0  0  0  0  0  0
   28.2604  -20.2079  -14.4246 C   0  0  0  0  0  0  0  0  0  0  0  0
   27.2633  -21.0032  -13.7087 C   0  0  0  0  0  0  0  0  0  0  0  0
   26.9141  -22.1333  -14.1964 O   0  0  0  0  0  0  0  0  0  0  0  0
   26.6153  -20.6556  -12.4992 N   0  0  0  0  0  0  0  0  0  0  0  0
   25.7542  -21.5821  -11.7773 C   0  0  1  0  0  0  0  0  0  0  0  0
   26.4104  -22.0506  -10.4945 C   0  0  0  0  0  0  0  0  0  0  0  0
   26.5190  -20.9098   -9.5550 C   0  0  0  0  0  0  0  0  0  0  0  0
   25.6090  -19.8622   -9.4282 C   0  0  0  0  0  0  0  0  0  0  0  0
   26.0326  -19.0162   -8.4829 N   0  0  0  0  0  0  0  0  0  0  0  0
   27.1933  -19.4721   -7.9816 C   0  0  0  0  0  0  0  0  0  0  0  0
   28.0462  -18.9995   -7.0056 C   0  0  0  0  0  0  0  0  0  0  0  0
   29.2107  -19.6462   -6.6456 C   0  0  0  0  0  0  0  0  0  0  0  0
   29.5274  -20.8266   -7.3040 C   0  0  0  0  0  0  0  0  0  0  0  0
   28.6862  -21.3157   -8.2842 C   0  0  0  0  0  0  0  0  0  0  0  0
   27.5247  -20.6633   -8.6375 C   0  0  0  0  0  0  0  0  0  0  0  0
   24.4712  -20.8939  -11.5121 C   0  0  0  0  0  0  0  0  0  0  0  0
   23.3304  -21.6303  -11.2245 O   0  0  0  0  0  0  0  0  0  0  0  0
   24.3601  -19.6416  -11.5348 O   0  0  0  0  0  0  0  0  0  0  0  0
  2  3  1  1
  2  1  1  0
  4  6  1  0
  4  2  1  0
  4  5  1  1
  6  8  1  0
  6  7  2  0
  8  9  1  0
 10 11  2  0
 10  9  1  0
 12 10  1  0
 13 14  1  1
 13 12  1  0
 14 15  1  0
 15 16  2  0
 16 17  1  0
 18 17  1  0
 19 18  2  0
 20 19  1  0
 21 22  1  0
 21 20  2  0
 22 23  2  0
 23 15  1  0
 23 18  1  0
 24 13  1  0
 25 24  1  0
 26 24  2  0
M  END
$$$$
