VGW.pdb
     RDKit          3D

 26 27  0  0  1  0  0  0  0  0999 V2000
   23.4274  -18.6480  -16.7646 C   0  0  0  0  0  0  0  0  0  0  0  0
   24.1291  -18.8650  -15.4209 C   0  0  1  0  0  0  0  0  0  0  0  0
   23.1819  -19.5181  -14.4367 C   0  0  0  0  0  0  0  0  0  0  0  0
   25.2741  -19.8210  -15.6608 C   0  0  2  0  0  0  0  0  0  0  0  0
   24.7336  -21.0459  -16.2453 N   0  0  0  0  0  0  0  0  0  0  0  0
   26.0119  -20.1247  -14.4224 C   0  0  0  0  0  0  0  0  0  0  0  0
   26.6211  -19.2025  -13.8280 O   0  0  0  0  0  0  0  0  0  0  0  0
   25.9971  -21.4756  -13.9516 N   0  0  0  0  0  0  0  0  0  0  0  0
   26.6372  -21.8254  -12.7122 C   0  0  0  0  0  0  0  0  0  0  0  0
   25.8326  -21.6097  -11.5099 C   0  0  0  0  0  0  0  0  0  0  0  0
   24.5595  -21.5570  -11.6247 O   0  0  0  0  0  0  0  0  0  0  0  0
   26.3146  -21.4443  -10.1893 N   0  0  0  0  0  0  0  0  0  0  0  0
   25.4360  -21.4523   -9.0279 C   0  0  1  0  0  0  0  0  0  0  0  0
   26.2156  -21.7140   -7.7553 C   0  0  0  0  0  0  0  0  0  0  0  0
   27.0328  -20.5222   -7.4277 C   0  0  0  0  0  0  0  0  0  0  0  0
   27.4394  -19.5351   -8.3233 C   0  0  0  0  0  0  0  0  0  0  0  0
   28.1627  -18.6158   -7.6749 N   0  0  0  0  0  0  0  0  0  0  0  0
   28.2463  -18.9646   -6.3795 C   0  0  0  0  0  0  0  0  0  0  0  0
   28.8605  -18.3863   -5.2878 C   0  0  0  0  0  0  0  0  0  0  0  0
   28.8150  -18.9323   -4.0215 C   0  0  0  0  0  0  0  0  0  0  0  0
   28.1153  -20.1191   -3.8514 C   0  0  0  0  0  0  0  0  0  0  0  0
   27.4939  -20.7134   -4.9322 C   0  0  0  0  0  0  0  0  0  0  0  0
   27.5443  -20.1611   -6.1940 C   0  0  0  0  0  0  0  0  0  0  0  0
   24.7382  -20.1481   -8.9797 C   0  0  0  0  0  0  0  0  0  0  0  0
   23.5716  -20.0073   -8.2410 O   0  0  0  0  0  0  0  0  0  0  0  0
   25.1610  -19.1338   -9.5910 O   0  0  0  0  0  0  0  0  0  0  0  0
  2  3  1  1
  2  1  1  0
  4  6  1  0
  4  2  1  0
  4  5  1  1
  6  8  1  0
  6  7  2  0
  8  9  1  0
 10 11  2  0
 10  9  1  0
 12 10  1  0
 13 14  1  1
 13 12  1  0
 14 15  1  0
 15 16  2  0
 16 17  1  0
 18 17  1  0
 19 18  2  0
 20 19  1  0
 21 22  1  0
 21 20  2  0
 22 23  2  0
 23 15  1  0
 23 18  1  0
 24 13  1  0
 25 24  1  0
 26 24  2  0
M  END
$$$$
