VGW.pdb
     RDKit          3D

 26 27  0  0  1  0  0  0  0  0999 V2000
   25.8517  -23.9642  -16.2912 C   0  0  0  0  0  0  0  0  0  0  0  0
   27.2684  -24.1057  -16.8550 C   0  0  1  0  0  0  0  0  0  0  0  0
   27.2231  -24.7444  -18.2270 C   0  0  0  0  0  0  0  0  0  0  0  0
   27.8300  -22.7122  -17.0148 C   0  0  2  0  0  0  0  0  0  0  0  0
   29.1772  -22.8219  -17.5687 N   0  0  0  0  0  0  0  0  0  0  0  0
   27.8573  -21.9756  -15.7393 C   0  0  0  0  0  0  0  0  0  0  0  0
   28.7908  -22.1865  -14.9276 O   0  0  0  0  0  0  0  0  0  0  0  0
   26.8028  -21.0425  -15.4854 N   0  0  0  0  0  0  0  0  0  0  0  0
   26.7822  -20.2751  -14.2693 C   0  0  0  0  0  0  0  0  0  0  0  0
   25.9640  -20.8317  -13.1922 C   0  0  0  0  0  0  0  0  0  0  0  0
   25.2023  -21.8264  -13.4513 O   0  0  0  0  0  0  0  0  0  0  0  0
   25.9130  -20.3814  -11.8511 N   0  0  0  0  0  0  0  0  0  0  0  0
   25.0779  -21.0183  -10.8421 C   0  0  1  0  0  0  0  0  0  0  0  0
   25.3962  -20.4909   -9.4578 C   0  0  0  0  0  0  0  0  0  0  0  0
   26.8216  -20.7532   -9.1497 C   0  0  0  0  0  0  0  0  0  0  0  0
   27.6779  -21.5820   -9.8720 C   0  0  0  0  0  0  0  0  0  0  0  0
   28.8877  -21.5778   -9.3019 N   0  0  0  0  0  0  0  0  0  0  0  0
   28.8573  -20.7725   -8.2263 C   0  0  0  0  0  0  0  0  0  0  0  0
   29.8087  -20.4121   -7.2943 C   0  0  0  0  0  0  0  0  0  0  0  0
   29.5496  -19.5503   -6.2484 C   0  0  0  0  0  0  0  0  0  0  0  0
   28.2678  -19.0284   -6.1400 C   0  0  0  0  0  0  0  0  0  0  0  0
   27.3016  -19.3774   -7.0632 C   0  0  0  0  0  0  0  0  0  0  0  0
   27.5691  -20.2391   -8.1052 C   0  0  0  0  0  0  0  0  0  0  0  0
   23.6642  -20.7741  -11.2054 C   0  0  0  0  0  0  0  0  0  0  0  0
   22.6530  -21.5195  -10.6152 O   0  0  0  0  0  0  0  0  0  0  0  0
   23.3242  -19.9015  -12.0445 O   0  0  0  0  0  0  0  0  0  0  0  0
  2  3  1  6
  2  1  1  0
  4  6  1  0
  4  2  1  0
  4  5  1  1
  6  8  1  0
  6  7  2  0
  8  9  1  0
 10 11  2  0
 10  9  1  0
 12 10  1  0
 13 14  1  1
 13 12  1  0
 14 15  1  0
 15 16  2  0
 16 17  1  0
 18 17  1  0
 19 18  2  0
 20 19  1  0
 21 22  1  0
 21 20  2  0
 22 23  2  0
 23 15  1  0
 23 18  1  0
 24 13  1  0
 25 24  1  0
 26 24  2  0
M  END
$$$$
