VGW.pdb
     RDKit          3D

 26 27  0  0  1  0  0  0  0  0999 V2000
   25.0272  -15.6287  -15.7858 C   0  0  0  0  0  0  0  0  0  0  0  0
   26.3213  -16.2553  -15.2589 C   0  0  1  0  0  0  0  0  0  0  0  0
   26.4290  -16.0511  -13.7626 C   0  0  0  0  0  0  0  0  0  0  0  0
   26.2381  -17.7419  -15.5154 C   0  0  2  0  0  0  0  0  0  0  0  0
   25.0323  -18.2518  -14.8671 N   0  0  0  0  0  0  0  0  0  0  0  0
   27.4279  -18.4572  -15.0227 C   0  0  0  0  0  0  0  0  0  0  0  0
   28.5485  -18.2085  -15.5299 O   0  0  0  0  0  0  0  0  0  0  0  0
   27.2444  -19.4141  -13.9750 N   0  0  0  0  0  0  0  0  0  0  0  0
   28.3746  -20.0844  -13.3903 C   0  0  0  0  0  0  0  0  0  0  0  0
   28.0776  -20.9014  -12.2141 C   0  0  0  0  0  0  0  0  0  0  0  0
   28.5579  -22.0856  -12.1521 O   0  0  0  0  0  0  0  0  0  0  0  0
   27.2918  -20.5230  -11.0992 N   0  0  0  0  0  0  0  0  0  0  0  0
   26.4617  -21.4702  -10.3680 C   0  0  1  0  0  0  0  0  0  0  0  0
   27.0736  -21.8082   -9.0237 C   0  0  0  0  0  0  0  0  0  0  0  0
   27.2214  -20.5676   -8.2270 C   0  0  0  0  0  0  0  0  0  0  0  0
   26.7450  -19.3060   -8.5779 C   0  0  0  0  0  0  0  0  0  0  0  0
   27.0630  -18.4277   -7.6207 N   0  0  0  0  0  0  0  0  0  0  0  0
   27.7342  -19.0696   -6.6491 C   0  0  0  0  0  0  0  0  0  0  0  0
   28.2858  -18.6538   -5.4548 C   0  0  0  0  0  0  0  0  0  0  0  0
   28.9456  -19.5058   -4.5931 C   0  0  0  0  0  0  0  0  0  0  0  0
   29.0525  -20.8413   -4.9565 C   0  0  0  0  0  0  0  0  0  0  0  0
   28.5069  -21.2767   -6.1483 C   0  0  0  0  0  0  0  0  0  0  0  0
   27.8492  -20.4187   -7.0033 C   0  0  0  0  0  0  0  0  0  0  0  0
   25.1167  -20.8712  -10.2182 C   0  0  0  0  0  0  0  0  0  0  0  0
   24.8561  -19.6052  -10.7239 O   0  0  0  0  0  0  0  0  0  0  0  0
   24.1729  -21.4681   -9.6402 O   0  0  0  0  0  0  0  0  0  0  0  0
  2  3  1  1
  2  1  1  0
  4  6  1  0
  4  2  1  0
  4  5  1  1
  6  8  1  0
  6  7  2  0
  8  9  1  0
 10 11  2  0
 10  9  1  0
 12 10  1  0
 13 14  1  1
 13 12  1  0
 14 15  1  0
 15 16  2  0
 16 17  1  0
 18 17  1  0
 19 18  2  0
 20 19  1  0
 21 22  1  0
 21 20  2  0
 22 23  2  0
 23 15  1  0
 23 18  1  0
 24 13  1  0
 25 24  1  0
 26 24  2  0
M  END
$$$$
