VGW.pdb
     RDKit          3D

 26 27  0  0  1  0  0  0  0  0999 V2000
   25.4040  -14.6297  -16.3178 C   0  0  0  0  0  0  0  0  0  0  0  0
   26.0992  -15.9756  -16.5416 C   0  0  1  0  0  0  0  0  0  0  0  0
   27.5955  -15.7772  -16.6598 C   0  0  0  0  0  0  0  0  0  0  0  0
   25.8430  -16.8231  -15.3173 C   0  0  2  0  0  0  0  0  0  0  0  0
   26.4010  -16.1326  -14.1572 N   0  0  0  0  0  0  0  0  0  0  0  0
   26.4263  -18.1700  -15.4432 C   0  0  0  0  0  0  0  0  0  0  0  0
   25.8745  -19.0111  -16.1935 O   0  0  0  0  0  0  0  0  0  0  0  0
   27.6102  -18.4568  -14.6928 N   0  0  0  0  0  0  0  0  0  0  0  0
   28.2176  -19.7589  -14.7541 C   0  0  0  0  0  0  0  0  0  0  0  0
   27.6294  -20.7658  -13.8712 C   0  0  0  0  0  0  0  0  0  0  0  0
   27.9988  -21.9842  -13.9978 O   0  0  0  0  0  0  0  0  0  0  0  0
   26.6643  -20.5425  -12.8601 N   0  0  0  0  0  0  0  0  0  0  0  0
   26.0936  -21.6241  -12.0692 C   0  0  1  0  0  0  0  0  0  0  0  0
   26.9654  -21.9438  -10.8719 C   0  0  0  0  0  0  0  0  0  0  0  0
   26.8046  -20.8815   -9.8514 C   0  0  0  0  0  0  0  0  0  0  0  0
   25.7754  -19.9435   -9.7990 C   0  0  0  0  0  0  0  0  0  0  0  0
   25.9558  -19.1428   -8.7431 N   0  0  0  0  0  0  0  0  0  0  0  0
   27.0715  -19.5225   -8.0967 C   0  0  0  0  0  0  0  0  0  0  0  0
   27.7104  -19.0521   -6.9680 C   0  0  0  0  0  0  0  0  0  0  0  0
   28.8721  -19.6085   -6.4733 C   0  0  0  0  0  0  0  0  0  0  0  0
   29.4129  -20.6918   -7.1523 C   0  0  0  0  0  0  0  0  0  0  0  0
   28.7880  -21.1771   -8.2843 C   0  0  0  0  0  0  0  0  0  0  0  0
   27.6276  -20.6151   -8.7717 C   0  0  0  0  0  0  0  0  0  0  0  0
   24.7329  -21.2135  -11.6570 C   0  0  0  0  0  0  0  0  0  0  0  0
   24.2961  -19.9159  -11.8850 O   0  0  0  0  0  0  0  0  0  0  0  0
   23.9311  -22.0028  -11.0955 O   0  0  0  0  0  0  0  0  0  0  0  0
  2  3  1  1
  2  1  1  0
  4  6  1  0
  4  2  1  0
  4  5  1  1
  6  8  1  0
  6  7  2  0
  8  9  1  0
 10 11  2  0
 10  9  1  0
 12 10  1  0
 13 14  1  1
 13 12  1  0
 14 15  1  0
 15 16  2  0
 16 17  1  0
 18 17  1  0
 19 18  2  0
 20 19  1  0
 21 22  1  0
 21 20  2  0
 22 23  2  0
 23 15  1  0
 23 18  1  0
 24 13  1  0
 25 24  1  0
 26 24  2  0
M  END
$$$$
