VGW.pdb
     RDKit          3D

 26 27  0  0  1  0  0  0  0  0999 V2000
   28.5656  -16.1659  -16.3672 C   0  0  0  0  0  0  0  0  0  0  0  0
   28.2379  -17.6142  -16.7408 C   0  0  1  0  0  0  0  0  0  0  0  0
   28.5937  -18.5416  -15.5981 C   0  0  0  0  0  0  0  0  0  0  0  0
   26.7442  -17.6971  -16.9522 C   0  0  2  0  0  0  0  0  0  0  0  0
   26.0828  -17.2118  -15.7435 N   0  0  0  0  0  0  0  0  0  0  0  0
   26.3033  -19.0677  -17.2641 C   0  0  0  0  0  0  0  0  0  0  0  0
   26.6530  -19.5941  -18.3483 O   0  0  0  0  0  0  0  0  0  0  0  0
   25.4865  -19.7408  -16.3015 N   0  0  0  0  0  0  0  0  0  0  0  0
   24.9696  -21.0553  -16.5720 C   0  0  0  0  0  0  0  0  0  0  0  0
   24.3705  -21.7398  -15.4267 C   0  0  0  0  0  0  0  0  0  0  0  0
   23.7290  -22.8281  -15.6288 O   0  0  0  0  0  0  0  0  0  0  0  0
   24.4170  -21.3233  -14.0746 N   0  0  0  0  0  0  0  0  0  0  0  0
   23.5837  -21.9223  -13.0412 C   0  0  1  0  0  0  0  0  0  0  0  0
   24.4303  -22.5757  -11.9678 C   0  0  0  0  0  0  0  0  0  0  0  0
   25.3548  -21.5701  -11.3935 C   0  0  0  0  0  0  0  0  0  0  0  0
   25.0460  -20.6470  -10.3964 C   0  0  0  0  0  0  0  0  0  0  0  0
   26.1237  -19.9009  -10.1308 N   0  0  0  0  0  0  0  0  0  0  0  0
   27.1342  -20.3022  -10.9210 C   0  0  0  0  0  0  0  0  0  0  0  0
   28.4419  -19.8849  -11.0599 C   0  0  0  0  0  0  0  0  0  0  0  0
   29.3227  -20.4543  -11.9564 C   0  0  0  0  0  0  0  0  0  0  0  0
   28.8590  -21.4947  -12.7498 C   0  0  0  0  0  0  0  0  0  0  0  0
   27.5530  -21.9266  -12.6255 C   0  0  0  0  0  0  0  0  0  0  0  0
   26.6797  -21.3521  -11.7271 C   0  0  0  0  0  0  0  0  0  0  0  0
   22.7224  -20.8571  -12.4812 C   0  0  0  0  0  0  0  0  0  0  0  0
   21.6030  -21.1874  -11.7299 O   0  0  0  0  0  0  0  0  0  0  0  0
   22.9604  -19.6350  -12.6566 O   0  0  0  0  0  0  0  0  0  0  0  0
  2  3  1  1
  2  1  1  0
  4  6  1  0
  4  2  1  0
  4  5  1  1
  6  8  1  0
  6  7  2  0
  8  9  1  0
 10 11  2  0
 10  9  1  0
 12 10  1  0
 13 14  1  1
 13 12  1  0
 14 15  1  0
 15 16  2  0
 16 17  1  0
 18 17  1  0
 19 18  2  0
 20 19  1  0
 21 22  1  0
 21 20  2  0
 22 23  2  0
 23 15  1  0
 23 18  1  0
 24 13  1  0
 25 24  1  0
 26 24  2  0
M  END
$$$$
