VGW.pdb
     RDKit          3D

 26 27  0  0  1  0  0  0  0  0999 V2000
   26.8207  -21.8388  -18.5278 C   0  0  0  0  0  0  0  0  0  0  0  0
   26.5751  -21.3841  -17.0863 C   0  0  1  0  0  0  0  0  0  0  0  0
   26.4435  -22.5859  -16.1749 C   0  0  0  0  0  0  0  0  0  0  0  0
   27.7928  -20.6050  -16.6470 C   0  0  2  0  0  0  0  0  0  0  0  0
   28.9617  -21.4720  -16.7739 N   0  0  0  0  0  0  0  0  0  0  0  0
   27.6667  -20.1117  -15.2646 C   0  0  0  0  0  0  0  0  0  0  0  0
   26.7695  -19.2788  -14.9887 O   0  0  0  0  0  0  0  0  0  0  0  0
   28.5866  -20.6141  -14.2908 N   0  0  0  0  0  0  0  0  0  0  0  0
   28.5038  -20.1898  -12.9191 C   0  0  0  0  0  0  0  0  0  0  0  0
   27.4742  -20.8535  -12.1200 C   0  0  0  0  0  0  0  0  0  0  0  0
   26.8488  -21.8474  -12.6278 O   0  0  0  0  0  0  0  0  0  0  0  0
   27.0733  -20.5114  -10.8062 N   0  0  0  0  0  0  0  0  0  0  0  0
   26.2002  -21.3603  -10.0075 C   0  0  1  0  0  0  0  0  0  0  0  0
   26.8707  -21.7667   -8.7110 C   0  0  0  0  0  0  0  0  0  0  0  0
   27.1293  -20.5581   -7.8935 C   0  0  0  0  0  0  0  0  0  0  0  0
   26.6472  -19.2761   -8.1499 C   0  0  0  0  0  0  0  0  0  0  0  0
   27.0838  -18.4385   -7.2030 N   0  0  0  0  0  0  0  0  0  0  0  0
   27.8387  -19.1270   -6.3297 C   0  0  0  0  0  0  0  0  0  0  0  0
   28.5220  -18.7643   -5.1873 C   0  0  0  0  0  0  0  0  0  0  0  0
   29.2493  -19.6587   -4.4290 C   0  0  0  0  0  0  0  0  0  0  0  0
   29.2872  -20.9822   -4.8460 C   0  0  0  0  0  0  0  0  0  0  0  0
   28.6097  -21.3647   -5.9872 C   0  0  0  0  0  0  0  0  0  0  0  0
   27.8854  -20.4646   -6.7388 C   0  0  0  0  0  0  0  0  0  0  0  0
   24.9462  -20.6142   -9.7607 C   0  0  0  0  0  0  0  0  0  0  0  0
   23.8057  -21.2849   -9.3414 O   0  0  0  0  0  0  0  0  0  0  0  0
   24.8602  -19.3693   -9.9159 O   0  0  0  0  0  0  0  0  0  0  0  0
  2  3  1  1
  2  1  1  0
  4  6  1  0
  4  2  1  0
  4  5  1  1
  6  8  1  0
  6  7  2  0
  8  9  1  0
 10 11  2  0
 10  9  1  0
 12 10  1  0
 13 14  1  1
 13 12  1  0
 14 15  1  0
 15 16  2  0
 16 17  1  0
 18 17  1  0
 19 18  2  0
 20 19  1  0
 21 22  1  0
 21 20  2  0
 22 23  2  0
 23 15  1  0
 23 18  1  0
 24 13  1  0
 25 24  1  0
 26 24  2  0
M  END
$$$$
