VGW.pdb
     RDKit          3D

 26 27  0  0  1  0  0  0  0  0999 V2000
   25.3518  -16.4035  -16.2836 C   0  0  0  0  0  0  0  0  0  0  0  0
   26.2563  -17.5814  -15.9105 C   0  0  1  0  0  0  0  0  0  0  0  0
   27.6943  -17.1207  -15.7989 C   0  0  0  0  0  0  0  0  0  0  0  0
   25.8222  -18.0677  -14.5475 C   0  0  2  0  0  0  0  0  0  0  0  0
   25.9791  -16.9689  -13.5976 N   0  0  0  0  0  0  0  0  0  0  0  0
   26.5935  -19.2426  -14.1061 C   0  0  0  0  0  0  0  0  0  0  0  0
   26.4005  -20.3497  -14.6646 O   0  0  0  0  0  0  0  0  0  0  0  0
   27.5382  -19.0607  -13.0472 N   0  0  0  0  0  0  0  0  0  0  0  0
   28.3526  -20.1573  -12.5971 C   0  0  0  0  0  0  0  0  0  0  0  0
   27.7464  -21.0074  -11.5729 C   0  0  0  0  0  0  0  0  0  0  0  0
   28.1837  -22.2010  -11.4282 O   0  0  0  0  0  0  0  0  0  0  0  0
   26.6946  -20.6526  -10.6944 N   0  0  0  0  0  0  0  0  0  0  0  0
   26.2877  -21.4956   -9.5787 C   0  0  1  0  0  0  0  0  0  0  0  0
   27.3934  -21.6100   -8.5492 C   0  0  0  0  0  0  0  0  0  0  0  0
   27.3967  -20.3977   -7.6971 C   0  0  0  0  0  0  0  0  0  0  0  0
   26.7897  -19.1806   -8.0003 C   0  0  0  0  0  0  0  0  0  0  0  0
   26.9999  -18.3169   -7.0010 N   0  0  0  0  0  0  0  0  0  0  0  0
   27.7263  -18.9253   -6.0477 C   0  0  0  0  0  0  0  0  0  0  0  0
   28.2164  -18.5063   -4.8280 C   0  0  0  0  0  0  0  0  0  0  0  0
   28.9556  -19.3197   -3.9939 C   0  0  0  0  0  0  0  0  0  0  0  0
   29.2111  -20.6182   -4.4133 C   0  0  0  0  0  0  0  0  0  0  0  0
   28.7290  -21.0561   -5.6312 C   0  0  0  0  0  0  0  0  0  0  0  0
   27.9913  -20.2368   -6.4584 C   0  0  0  0  0  0  0  0  0  0  0  0
   25.0595  -20.9115   -8.9951 C   0  0  0  0  0  0  0  0  0  0  0  0
   24.5478  -19.7213   -9.4930 O   0  0  0  0  0  0  0  0  0  0  0  0
   24.4397  -21.4543   -8.0452 O   0  0  0  0  0  0  0  0  0  0  0  0
  2  3  1  1
  2  1  1  0
  4  6  1  0
  4  2  1  0
  4  5  1  1
  6  8  1  0
  6  7  2  0
  8  9  1  0
 10 11  2  0
 10  9  1  0
 12 10  1  0
 13 14  1  1
 13 12  1  0
 14 15  1  0
 15 16  2  0
 16 17  1  0
 18 17  1  0
 19 18  2  0
 20 19  1  0
 21 22  1  0
 21 20  2  0
 22 23  2  0
 23 15  1  0
 23 18  1  0
 24 13  1  0
 25 24  1  0
 26 24  2  0
M  END
$$$$
