VGW.pdb
     RDKit          3D

 26 27  0  0  1  0  0  0  0  0999 V2000
   26.8301  -20.6057  -18.7785 C   0  0  0  0  0  0  0  0  0  0  0  0
   27.4881  -20.5689  -17.3963 C   0  0  1  0  0  0  0  0  0  0  0  0
   27.8453  -19.1450  -17.0257 C   0  0  0  0  0  0  0  0  0  0  0  0
   26.4660  -21.0611  -16.3984 C   0  0  2  0  0  0  0  0  0  0  0  0
   25.2503  -20.2670  -16.5582 N   0  0  0  0  0  0  0  0  0  0  0  0
   26.9577  -20.9748  -15.0124 C   0  0  0  0  0  0  0  0  0  0  0  0
   27.7636  -21.8396  -14.5912 O   0  0  0  0  0  0  0  0  0  0  0  0
   26.4852  -19.8935  -14.2034 N   0  0  0  0  0  0  0  0  0  0  0  0
   27.0180  -19.6794  -12.8848 C   0  0  0  0  0  0  0  0  0  0  0  0
   26.3331  -20.3960  -11.8094 C   0  0  0  0  0  0  0  0  0  0  0  0
   25.1767  -20.8917  -12.0414 O   0  0  0  0  0  0  0  0  0  0  0  0
   26.8157  -20.6104  -10.4960 N   0  0  0  0  0  0  0  0  0  0  0  0
   26.0739  -21.3765   -9.5041 C   0  0  1  0  0  0  0  0  0  0  0  0
   26.9336  -21.6798   -8.2939 C   0  0  0  0  0  0  0  0  0  0  0  0
   27.3123  -20.4095   -7.6314 C   0  0  0  0  0  0  0  0  0  0  0  0
   26.9810  -19.1275   -8.0656 C   0  0  0  0  0  0  0  0  0  0  0  0
   27.4929  -18.2252   -7.2216 N   0  0  0  0  0  0  0  0  0  0  0  0
   28.1515  -18.8709   -6.2439 C   0  0  0  0  0  0  0  0  0  0  0  0
   28.8523  -18.4376   -5.1372 C   0  0  0  0  0  0  0  0  0  0  0  0
   29.4624  -19.2982   -4.2479 C   0  0  0  0  0  0  0  0  0  0  0  0
   29.3589  -20.6613   -4.4894 C   0  0  0  0  0  0  0  0  0  0  0  0
   28.6617  -21.1145   -5.5921 C   0  0  0  0  0  0  0  0  0  0  0  0
   28.0551  -20.2477   -6.4755 C   0  0  0  0  0  0  0  0  0  0  0  0
   24.8721  -20.5955   -9.1356 C   0  0  0  0  0  0  0  0  0  0  0  0
   23.8359  -21.1975   -8.4354 O   0  0  0  0  0  0  0  0  0  0  0  0
   24.7394  -19.3810   -9.4332 O   0  0  0  0  0  0  0  0  0  0  0  0
  2  3  1  1
  2  1  1  0
  4  6  1  0
  4  2  1  0
  4  5  1  1
  6  8  1  0
  6  7  2  0
  8  9  1  0
 10 11  2  0
 10  9  1  0
 12 10  1  0
 13 14  1  1
 13 12  1  0
 14 15  1  0
 15 16  2  0
 16 17  1  0
 18 17  1  0
 19 18  2  0
 20 19  1  0
 21 22  1  0
 21 20  2  0
 22 23  2  0
 23 15  1  0
 23 18  1  0
 24 13  1  0
 25 24  1  0
 26 24  2  0
M  END
$$$$
