VGW.pdb
     RDKit          3D

 26 27  0  0  1  0  0  0  0  0999 V2000
   22.5721  -17.9027  -17.4856 C   0  0  0  0  0  0  0  0  0  0  0  0
   23.8296  -18.4671  -16.8185 C   0  0  1  0  0  0  0  0  0  0  0  0
   24.7397  -17.3389  -16.3809 C   0  0  0  0  0  0  0  0  0  0  0  0
   23.3867  -19.2079  -15.5784 C   0  0  2  0  0  0  0  0  0  0  0  0
   22.5231  -18.3233  -14.8001 N   0  0  0  0  0  0  0  0  0  0  0  0
   24.5287  -19.6582  -14.7638 C   0  0  0  0  0  0  0  0  0  0  0  0
   25.1971  -20.6520  -15.1386 O   0  0  0  0  0  0  0  0  0  0  0  0
   24.8235  -18.9296  -13.5684 N   0  0  0  0  0  0  0  0  0  0  0  0
   25.9625  -19.2770  -12.7620 C   0  0  0  0  0  0  0  0  0  0  0  0
   25.6954  -20.2173  -11.6740 C   0  0  0  0  0  0  0  0  0  0  0  0
   24.8043  -21.1190  -11.8469 O   0  0  0  0  0  0  0  0  0  0  0  0
   26.3274  -20.2458  -10.4078 N   0  0  0  0  0  0  0  0  0  0  0  0
   26.0787  -21.2974   -9.4315 C   0  0  1  0  0  0  0  0  0  0  0  0
   27.2944  -21.5296   -8.5575 C   0  0  0  0  0  0  0  0  0  0  0  0
   27.5129  -20.3431   -7.6971 C   0  0  0  0  0  0  0  0  0  0  0  0
   27.0194  -19.0605   -7.9280 C   0  0  0  0  0  0  0  0  0  0  0  0
   27.4176  -18.2463   -6.9445 N   0  0  0  0  0  0  0  0  0  0  0  0
   28.1582  -18.9507   -6.0717 C   0  0  0  0  0  0  0  0  0  0  0  0
   28.8045  -18.6138   -4.9003 C   0  0  0  0  0  0  0  0  0  0  0  0
   29.5237  -19.5208   -4.1494 C   0  0  0  0  0  0  0  0  0  0  0  0
   29.5923  -20.8303   -4.6048 C   0  0  0  0  0  0  0  0  0  0  0  0
   28.9520  -21.1871   -5.7754 C   0  0  0  0  0  0  0  0  0  0  0  0
   28.2356  -20.2745   -6.5194 C   0  0  0  0  0  0  0  0  0  0  0  0
   24.9001  -20.9004   -8.6294 C   0  0  0  0  0  0  0  0  0  0  0  0
   24.3167  -21.8034   -7.7515 O   0  0  0  0  0  0  0  0  0  0  0  0
   24.3870  -19.7549   -8.7056 O   0  0  0  0  0  0  0  0  0  0  0  0
  2  3  1  1
  2  1  1  0
  4  6  1  0
  4  2  1  0
  4  5  1  1
  6  8  1  0
  6  7  2  0
  8  9  1  0
 10 11  2  0
 10  9  1  0
 12 10  1  0
 13 14  1  1
 13 12  1  0
 14 15  1  0
 15 16  2  0
 16 17  1  0
 18 17  1  0
 19 18  2  0
 20 19  1  0
 21 22  1  0
 21 20  2  0
 22 23  2  0
 23 15  1  0
 23 18  1  0
 24 13  1  0
 25 24  1  0
 26 24  2  0
M  END
$$$$
