VGW.pdb
     RDKit          3D

 26 27  0  0  1  0  0  0  0  0999 V2000
   29.1063  -17.7470  -19.5299 C   0  0  0  0  0  0  0  0  0  0  0  0
   28.1317  -18.3273  -18.5013 C   0  0  1  0  0  0  0  0  0  0  0  0
   28.8446  -19.3217  -17.6094 C   0  0  0  0  0  0  0  0  0  0  0  0
   27.6620  -17.1843  -17.6321 C   0  0  2  0  0  0  0  0  0  0  0  0
   28.8258  -16.3841  -17.2590 N   0  0  0  0  0  0  0  0  0  0  0  0
   26.9560  -17.6565  -16.4284 C   0  0  0  0  0  0  0  0  0  0  0  0
   25.8991  -18.3209  -16.5567 O   0  0  0  0  0  0  0  0  0  0  0  0
   27.5184  -17.3297  -15.1542 N   0  0  0  0  0  0  0  0  0  0  0  0
   26.8531  -17.7178  -13.9396 C   0  0  0  0  0  0  0  0  0  0  0  0
   26.7181  -19.1596  -13.7337 C   0  0  0  0  0  0  0  0  0  0  0  0
   26.9989  -19.9469  -14.7022 O   0  0  0  0  0  0  0  0  0  0  0  0
   26.2961  -19.8077  -12.5481 N   0  0  0  0  0  0  0  0  0  0  0  0
   26.3521  -21.2536  -12.3832 C   0  0  1  0  0  0  0  0  0  0  0  0
   27.2017  -21.6342  -11.1877 C   0  0  0  0  0  0  0  0  0  0  0  0
   26.7105  -20.9150   -9.9889 C   0  0  0  0  0  0  0  0  0  0  0  0
   25.4049  -20.4791   -9.7716 C   0  0  0  0  0  0  0  0  0  0  0  0
   25.3309  -19.8689   -8.5838 N   0  0  0  0  0  0  0  0  0  0  0  0
   26.5462  -19.8882   -8.0101 C   0  0  0  0  0  0  0  0  0  0  0  0
   27.0264  -19.4099   -6.8083 C   0  0  0  0  0  0  0  0  0  0  0  0
   28.3423  -19.5445   -6.4161 C   0  0  0  0  0  0  0  0  0  0  0  0
   29.2137  -20.1936   -7.2801 C   0  0  0  0  0  0  0  0  0  0  0  0
   28.7519  -20.6793   -8.4877 C   0  0  0  0  0  0  0  0  0  0  0  0
   27.4355  -20.5405   -8.8717 C   0  0  0  0  0  0  0  0  0  0  0  0
   24.9639  -21.7469  -12.2430 C   0  0  0  0  0  0  0  0  0  0  0  0
   23.9157  -20.8492  -12.0947 O   0  0  0  0  0  0  0  0  0  0  0  0
   24.6789  -22.9715  -12.2519 O   0  0  0  0  0  0  0  0  0  0  0  0
  2  3  1  1
  2  1  1  0
  4  6  1  0
  4  2  1  0
  4  5  1  1
  6  8  1  0
  6  7  2  0
  8  9  1  0
 10 11  2  0
 10  9  1  0
 12 10  1  0
 13 14  1  1
 13 12  1  0
 14 15  1  0
 15 16  2  0
 16 17  1  0
 18 17  1  0
 19 18  2  0
 20 19  1  0
 21 22  1  0
 21 20  2  0
 22 23  2  0
 23 15  1  0
 23 18  1  0
 24 13  1  0
 25 24  1  0
 26 24  2  0
M  END
$$$$
