VGW.pdb
     RDKit          3D

 26 27  0  0  1  0  0  0  0  0999 V2000
   26.8078  -17.2142  -18.4403 C   0  0  0  0  0  0  0  0  0  0  0  0
   27.5068  -17.8982  -17.2621 C   0  0  1  0  0  0  0  0  0  0  0  0
   28.2903  -16.8821  -16.4583 C   0  0  0  0  0  0  0  0  0  0  0  0
   26.4292  -18.4617  -16.3655 C   0  0  2  0  0  0  0  0  0  0  0  0
   25.4555  -17.4055  -16.0999 N   0  0  0  0  0  0  0  0  0  0  0  0
   26.9766  -18.9854  -15.1020 C   0  0  0  0  0  0  0  0  0  0  0  0
   27.6857  -20.0206  -15.1217 O   0  0  0  0  0  0  0  0  0  0  0  0
   26.6682  -18.2776  -13.8975 N   0  0  0  0  0  0  0  0  0  0  0  0
   27.2843  -18.6496  -12.6524 C   0  0  0  0  0  0  0  0  0  0  0  0
   26.5767  -19.6751  -11.8862 C   0  0  0  0  0  0  0  0  0  0  0  0
   25.5640  -20.2487  -12.4173 O   0  0  0  0  0  0  0  0  0  0  0  0
   26.8909  -20.1207  -10.5798 N   0  0  0  0  0  0  0  0  0  0  0  0
   26.1570  -21.1915   -9.9197 C   0  0  1  0  0  0  0  0  0  0  0  0
   26.8843  -21.6673   -8.6786 C   0  0  0  0  0  0  0  0  0  0  0  0
   27.0868  -20.5222   -7.7603 C   0  0  0  0  0  0  0  0  0  0  0  0
   26.5797  -19.2353   -7.9298 C   0  0  0  0  0  0  0  0  0  0  0  0
   26.9658  -18.4660   -6.9061 N   0  0  0  0  0  0  0  0  0  0  0  0
   27.7116  -19.2042   -6.0662 C   0  0  0  0  0  0  0  0  0  0  0  0
   28.3506  -18.9181   -4.8774 C   0  0  0  0  0  0  0  0  0  0  0  0
   29.0776  -19.8529   -4.1693 C   0  0  0  0  0  0  0  0  0  0  0  0
   29.1623  -21.1376   -4.6882 C   0  0  0  0  0  0  0  0  0  0  0  0
   28.5296  -21.4435   -5.8771 C   0  0  0  0  0  0  0  0  0  0  0  0
   27.8052  -20.5035   -6.5781 C   0  0  0  0  0  0  0  0  0  0  0  0
   24.8060  -20.6812   -9.5963 C   0  0  0  0  0  0  0  0  0  0  0  0
   23.8003  -21.5595   -9.2171 O   0  0  0  0  0  0  0  0  0  0  0  0
   24.5160  -19.4589   -9.6492 O   0  0  0  0  0  0  0  0  0  0  0  0
  2  3  1  1
  2  1  1  0
  4  6  1  0
  4  2  1  0
  4  5  1  1
  6  8  1  0
  6  7  2  0
  8  9  1  0
 10 11  2  0
 10  9  1  0
 12 10  1  0
 13 14  1  1
 13 12  1  0
 14 15  1  0
 15 16  2  0
 16 17  1  0
 18 17  1  0
 19 18  2  0
 20 19  1  0
 21 22  1  0
 21 20  2  0
 22 23  2  0
 23 15  1  0
 23 18  1  0
 24 13  1  0
 25 24  1  0
 26 24  2  0
M  END
$$$$
