VGW.pdb
     RDKit          3D

 26 27  0  0  1  0  0  0  0  0999 V2000
   26.5757  -16.4868  -18.3065 C   0  0  0  0  0  0  0  0  0  0  0  0
   27.3756  -16.8832  -17.0624 C   0  0  1  0  0  0  0  0  0  0  0  0
   27.3283  -15.7720  -16.0351 C   0  0  0  0  0  0  0  0  0  0  0  0
   26.7013  -18.0942  -16.4613 C   0  0  2  0  0  0  0  0  0  0  0  0
   25.3278  -17.7319  -16.1205 N   0  0  0  0  0  0  0  0  0  0  0  0
   27.4122  -18.5910  -15.2704 C   0  0  0  0  0  0  0  0  0  0  0  0
   28.4954  -19.2081  -15.4141 O   0  0  0  0  0  0  0  0  0  0  0  0
   26.8240  -18.3415  -13.9903 N   0  0  0  0  0  0  0  0  0  0  0  0
   27.4731  -18.7885  -12.7873 C   0  0  0  0  0  0  0  0  0  0  0  0
   26.7628  -19.8275  -12.0423 C   0  0  0  0  0  0  0  0  0  0  0  0
   25.8636  -20.5093  -12.6453 O   0  0  0  0  0  0  0  0  0  0  0  0
   26.9589  -20.1774  -10.6847 N   0  0  0  0  0  0  0  0  0  0  0  0
   26.2719  -21.2978  -10.0573 C   0  0  1  0  0  0  0  0  0  0  0  0
   27.0084  -21.7652   -8.8184 C   0  0  0  0  0  0  0  0  0  0  0  0
   27.2366  -20.6098   -7.9191 C   0  0  0  0  0  0  0  0  0  0  0  0
   26.7613  -19.3141   -8.1118 C   0  0  0  0  0  0  0  0  0  0  0  0
   27.1636  -18.5371   -7.1003 N   0  0  0  0  0  0  0  0  0  0  0  0
   27.8892  -19.2788   -6.2459 C   0  0  0  0  0  0  0  0  0  0  0  0
   28.5321  -18.9880   -5.0603 C   0  0  0  0  0  0  0  0  0  0  0  0
   29.2344  -19.9279   -4.3344 C   0  0  0  0  0  0  0  0  0  0  0  0
   29.2891  -21.2231   -4.8312 C   0  0  0  0  0  0  0  0  0  0  0  0
   28.6519  -21.5337   -6.0165 C   0  0  0  0  0  0  0  0  0  0  0  0
   27.9524  -20.5884   -6.7354 C   0  0  0  0  0  0  0  0  0  0  0  0
   24.8938  -20.8622   -9.7389 C   0  0  0  0  0  0  0  0  0  0  0  0
   23.9117  -21.8023   -9.4591 O   0  0  0  0  0  0  0  0  0  0  0  0
   24.5593  -19.6505   -9.7082 O   0  0  0  0  0  0  0  0  0  0  0  0
  2  3  1  1
  2  1  1  0
  4  6  1  0
  4  2  1  0
  4  5  1  1
  6  8  1  0
  6  7  2  0
  8  9  1  0
 10 11  2  0
 10  9  1  0
 12 10  1  0
 13 14  1  1
 13 12  1  0
 14 15  1  0
 15 16  2  0
 16 17  1  0
 18 17  1  0
 19 18  2  0
 20 19  1  0
 21 22  1  0
 21 20  2  0
 22 23  2  0
 23 15  1  0
 23 18  1  0
 24 13  1  0
 25 24  1  0
 26 24  2  0
M  END
$$$$
