VGW.pdb
     RDKit          3D

 26 27  0  0  1  0  0  0  0  0999 V2000
   22.9854  -25.5130  -15.8041 C   0  0  0  0  0  0  0  0  0  0  0  0
   22.6584  -24.1898  -15.1063 C   0  0  1  0  0  0  0  0  0  0  0  0
   21.7261  -24.4318  -13.9382 C   0  0  0  0  0  0  0  0  0  0  0  0
   23.9533  -23.6402  -14.5549 C   0  0  2  0  0  0  0  0  0  0  0  0
   24.4744  -24.5908  -13.5757 N   0  0  0  0  0  0  0  0  0  0  0  0
   23.7753  -22.3138  -13.9391 C   0  0  0  0  0  0  0  0  0  0  0  0
   23.6277  -21.3089  -14.6760 O   0  0  0  0  0  0  0  0  0  0  0  0
   23.7797  -22.2359  -12.5105 N   0  0  0  0  0  0  0  0  0  0  0  0
   23.7404  -20.9603  -11.8474 C   0  0  0  0  0  0  0  0  0  0  0  0
   25.0299  -20.4654  -11.3663 C   0  0  0  0  0  0  0  0  0  0  0  0
   25.1028  -19.2647  -10.9307 O   0  0  0  0  0  0  0  0  0  0  0  0
   26.2492  -21.1836  -11.3273 N   0  0  0  0  0  0  0  0  0  0  0  0
   27.5134  -20.5615  -10.9587 C   0  0  1  0  0  0  0  0  0  0  0  0
   28.0898  -21.1954   -9.7090 C   0  0  0  0  0  0  0  0  0  0  0  0
   27.4036  -20.6419   -8.5180 C   0  0  0  0  0  0  0  0  0  0  0  0
   26.0521  -20.3148   -8.4282 C   0  0  0  0  0  0  0  0  0  0  0  0
   25.7884  -19.8421   -7.2052 N   0  0  0  0  0  0  0  0  0  0  0  0
   26.9231  -19.8468   -6.4847 C   0  0  0  0  0  0  0  0  0  0  0  0
   27.2163  -19.4717   -5.1898 C   0  0  0  0  0  0  0  0  0  0  0  0
   28.4813  -19.5650   -4.6469 C   0  0  0  0  0  0  0  0  0  0  0  0
   29.4977  -20.0611   -5.4518 C   0  0  0  0  0  0  0  0  0  0  0  0
   29.2241  -20.4418   -6.7509 C   0  0  0  0  0  0  0  0  0  0  0  0
   27.9572  -20.3453   -7.2853 C   0  0  0  0  0  0  0  0  0  0  0  0
   28.4345  -20.6927  -12.1095 C   0  0  0  0  0  0  0  0  0  0  0  0
   29.7261  -20.1908  -12.0307 O   0  0  0  0  0  0  0  0  0  0  0  0
   28.0963  -21.2513  -13.1841 O   0  0  0  0  0  0  0  0  0  0  0  0
  2  3  1  1
  2  1  1  0
  4  6  1  0
  4  2  1  0
  4  5  1  1
  6  8  1  0
  6  7  2  0
  8  9  1  0
 10 11  2  0
 10  9  1  0
 12 10  1  0
 13 14  1  1
 13 12  1  0
 14 15  1  0
 15 16  2  0
 16 17  1  0
 18 17  1  0
 19 18  2  0
 20 19  1  0
 21 22  1  0
 21 20  2  0
 22 23  2  0
 23 15  1  0
 23 18  1  0
 24 13  1  0
 25 24  1  0
 26 24  2  0
M  END
$$$$
