VGW.pdb
     RDKit          3D

 26 27  0  0  1  0  0  0  0  0999 V2000
   27.5627  -17.2895  -18.6990 C   0  0  0  0  0  0  0  0  0  0  0  0
   28.3002  -17.7631  -17.4434 C   0  0  1  0  0  0  0  0  0  0  0  0
   28.5894  -16.5882  -16.5332 C   0  0  0  0  0  0  0  0  0  0  0  0
   27.3737  -18.7001  -16.7042 C   0  0  2  0  0  0  0  0  0  0  0  0
   26.0518  -18.0816  -16.6405 N   0  0  0  0  0  0  0  0  0  0  0  0
   27.8623  -19.0088  -15.3492 C   0  0  0  0  0  0  0  0  0  0  0  0
   28.8114  -19.8175  -15.2074 O   0  0  0  0  0  0  0  0  0  0  0  0
   27.2214  -18.3619  -14.2457 N   0  0  0  0  0  0  0  0  0  0  0  0
   27.6675  -18.5989  -12.8992 C   0  0  0  0  0  0  0  0  0  0  0  0
   26.9894  -19.6889  -12.1983 C   0  0  0  0  0  0  0  0  0  0  0  0
   26.2374  -20.4766  -12.8698 O   0  0  0  0  0  0  0  0  0  0  0  0
   27.0686  -19.9828  -10.8158 N   0  0  0  0  0  0  0  0  0  0  0  0
   26.4123  -21.1393  -10.2219 C   0  0  1  0  0  0  0  0  0  0  0  0
   27.1374  -21.5966   -8.9726 C   0  0  0  0  0  0  0  0  0  0  0  0
   27.2080  -20.4736   -8.0085 C   0  0  0  0  0  0  0  0  0  0  0  0
   26.5933  -19.2311   -8.1503 C   0  0  0  0  0  0  0  0  0  0  0  0
   26.8769  -18.4699   -7.0877 N   0  0  0  0  0  0  0  0  0  0  0  0
   27.6593  -19.1706   -6.2490 C   0  0  0  0  0  0  0  0  0  0  0  0
   28.2328  -18.8743   -5.0297 C   0  0  0  0  0  0  0  0  0  0  0  0
   29.0182  -19.7674   -4.3301 C   0  0  0  0  0  0  0  0  0  0  0  0
   29.2337  -21.0191   -4.8902 C   0  0  0  0  0  0  0  0  0  0  0  0
   28.6681  -21.3345   -6.1102 C   0  0  0  0  0  0  0  0  0  0  0  0
   27.8847  -20.4362   -6.8024 C   0  0  0  0  0  0  0  0  0  0  0  0
   25.0108  -20.7639   -9.9306 C   0  0  0  0  0  0  0  0  0  0  0  0
   24.0635  -21.7459   -9.6758 O   0  0  0  0  0  0  0  0  0  0  0  0
   24.6249  -19.5675   -9.9016 O   0  0  0  0  0  0  0  0  0  0  0  0
  2  3  1  1
  2  1  1  0
  4  6  1  0
  4  2  1  0
  4  5  1  1
  6  8  1  0
  6  7  2  0
  8  9  1  0
 10 11  2  0
 10  9  1  0
 12 10  1  0
 13 14  1  1
 13 12  1  0
 14 15  1  0
 15 16  2  0
 16 17  1  0
 18 17  1  0
 19 18  2  0
 20 19  1  0
 21 22  1  0
 21 20  2  0
 22 23  2  0
 23 15  1  0
 23 18  1  0
 24 13  1  0
 25 24  1  0
 26 24  2  0
M  END
$$$$
