VGW.pdb
     RDKit          3D

 26 27  0  0  1  0  0  0  0  0999 V2000
   23.4241  -19.1764  -17.1208 C   0  0  0  0  0  0  0  0  0  0  0  0
   23.7486  -20.0047  -15.8744 C   0  0  1  0  0  0  0  0  0  0  0  0
   24.6641  -19.2259  -14.9537 C   0  0  0  0  0  0  0  0  0  0  0  0
   22.4494  -20.2397  -15.1399 C   0  0  2  0  0  0  0  0  0  0  0  0
   21.7207  -18.9749  -15.0816 N   0  0  0  0  0  0  0  0  0  0  0  0
   22.6675  -20.7701  -13.7829 C   0  0  0  0  0  0  0  0  0  0  0  0
   23.0994  -21.9399  -13.6423 O   0  0  0  0  0  0  0  0  0  0  0  0
   22.3718  -19.9128  -12.6764 N   0  0  0  0  0  0  0  0  0  0  0  0
   22.5711  -20.3661  -11.3262 C   0  0  0  0  0  0  0  0  0  0  0  0
   23.9200  -20.1740  -10.7944 C   0  0  0  0  0  0  0  0  0  0  0  0
   24.7230  -19.4009  -11.4224 O   0  0  0  0  0  0  0  0  0  0  0  0
   24.4602  -20.7656   -9.6274 N   0  0  0  0  0  0  0  0  0  0  0  0
   25.7369  -20.3546   -9.0597 C   0  0  1  0  0  0  0  0  0  0  0  0
   25.5402  -19.3423   -7.9496 C   0  0  0  0  0  0  0  0  0  0  0  0
   26.8581  -18.9825   -7.3758 C   0  0  0  0  0  0  0  0  0  0  0  0
   27.7041  -17.9742   -7.8333 C   0  0  0  0  0  0  0  0  0  0  0  0
   28.8050  -17.9381   -7.0746 N   0  0  0  0  0  0  0  0  0  0  0  0
   28.7125  -18.8905   -6.1308 C   0  0  0  0  0  0  0  0  0  0  0  0
   29.5495  -19.2845   -5.1072 C   0  0  0  0  0  0  0  0  0  0  0  0
   29.2445  -20.3118   -4.2382 C   0  0  0  0  0  0  0  0  0  0  0  0
   28.0358  -20.9719   -4.4127 C   0  0  0  0  0  0  0  0  0  0  0  0
   27.1844  -20.5922   -5.4318 C   0  0  0  0  0  0  0  0  0  0  0  0
   27.4970  -19.5646   -6.2955 C   0  0  0  0  0  0  0  0  0  0  0  0
   26.4269  -21.5695   -8.5719 C   0  0  0  0  0  0  0  0  0  0  0  0
   27.7305  -21.8378   -8.9662 O   0  0  0  0  0  0  0  0  0  0  0  0
   25.8765  -22.3929   -7.7973 O   0  0  0  0  0  0  0  0  0  0  0  0
  2  3  1  1
  2  1  1  0
  4  6  1  0
  4  2  1  0
  4  5  1  1
  6  8  1  0
  6  7  2  0
  8  9  1  0
 10 11  2  0
 10  9  1  0
 12 10  1  0
 13 14  1  1
 13 12  1  0
 14 15  1  0
 15 16  2  0
 16 17  1  0
 18 17  1  0
 19 18  2  0
 20 19  1  0
 21 22  1  0
 21 20  2  0
 22 23  2  0
 23 15  1  0
 23 18  1  0
 24 13  1  0
 25 24  1  0
 26 24  2  0
M  END
$$$$
