VGW.pdb
     RDKit          3D

 26 27  0  0  1  0  0  0  0  0999 V2000
   26.1782  -16.0242  -15.6117 C   0  0  0  0  0  0  0  0  0  0  0  0
   27.1511  -16.9833  -14.9200 C   0  0  1  0  0  0  0  0  0  0  0  0
   27.0941  -16.7924  -13.4190 C   0  0  0  0  0  0  0  0  0  0  0  0
   26.6878  -18.3892  -15.2226 C   0  0  2  0  0  0  0  0  0  0  0  0
   25.2971  -18.5156  -14.7939 N   0  0  0  0  0  0  0  0  0  0  0  0
   27.5244  -19.4039  -14.5586 C   0  0  0  0  0  0  0  0  0  0  0  0
   28.7376  -19.4970  -14.8658 O   0  0  0  0  0  0  0  0  0  0  0  0
   26.9033  -20.2451  -13.5821 N   0  0  0  0  0  0  0  0  0  0  0  0
   27.6813  -21.1966  -12.8352 C   0  0  0  0  0  0  0  0  0  0  0  0
   27.3317  -21.3172  -11.4201 C   0  0  0  0  0  0  0  0  0  0  0  0
   27.9278  -22.2019  -10.7138 O   0  0  0  0  0  0  0  0  0  0  0  0
   26.3763  -20.5447  -10.7172 N   0  0  0  0  0  0  0  0  0  0  0  0
   25.7435  -21.0082   -9.4901 C   0  0  1  0  0  0  0  0  0  0  0  0
   26.0148  -20.0566   -8.3427 C   0  0  0  0  0  0  0  0  0  0  0  0
   27.4053  -20.2466   -7.8672 C   0  0  0  0  0  0  0  0  0  0  0  0
   28.4480  -20.8224   -8.5904 C   0  0  0  0  0  0  0  0  0  0  0  0
   29.5578  -20.8280   -7.8441 N   0  0  0  0  0  0  0  0  0  0  0  0
   29.2808  -20.2742   -6.6511 C   0  0  0  0  0  0  0  0  0  0  0  0
   30.0430  -20.0334   -5.5266 C   0  0  0  0  0  0  0  0  0  0  0  0
   29.5385  -19.4393   -4.3881 C   0  0  0  0  0  0  0  0  0  0  0  0
   28.1999  -19.0715   -4.3869 C   0  0  0  0  0  0  0  0  0  0  0  0
   27.4205  -19.3044   -5.5031 C   0  0  0  0  0  0  0  0  0  0  0  0
   27.9327  -19.8985   -6.6364 C   0  0  0  0  0  0  0  0  0  0  0  0
   24.2934  -21.1443   -9.7526 C   0  0  0  0  0  0  0  0  0  0  0  0
   23.7789  -20.8380  -11.0047 O   0  0  0  0  0  0  0  0  0  0  0  0
   23.4825  -21.5343   -8.8743 O   0  0  0  0  0  0  0  0  0  0  0  0
  2  3  1  1
  2  1  1  0
  4  6  1  0
  4  2  1  0
  4  5  1  1
  6  8  1  0
  6  7  2  0
  8  9  1  0
 10 11  2  0
 10  9  1  0
 12 10  1  0
 13 14  1  1
 13 12  1  0
 14 15  1  0
 15 16  2  0
 16 17  1  0
 18 17  1  0
 19 18  2  0
 20 19  1  0
 21 22  1  0
 21 20  2  0
 22 23  2  0
 23 15  1  0
 23 18  1  0
 24 13  1  0
 25 24  1  0
 26 24  2  0
M  END
$$$$
