NEC.pdb
     RDKit          3D

 24 23  0  0  1  0  0  0  0  0999 V2000
    7.6018  -13.0391   15.4482 N   0  0  0  0  0  0  0  0  0  0  0  0
    7.7544  -14.4547   15.2693 C   0  0  0  0  0  0  0  0  0  0  0  0
    7.5663  -14.8544   14.0900 O   0  0  0  0  0  0  0  0  0  0  0  0
    8.1014  -15.3309   16.3898 C   0  0  0  0  0  0  0  0  0  0  0  0
    8.0500  -14.6950   17.7365 C   0  0  2  0  0  0  0  0  0  0  0  0
    9.0161  -13.5782   17.7666 N   0  0  0  0  0  0  0  0  0  0  0  0
    8.4473  -15.6376   18.8201 C   0  0  0  0  0  0  0  0  0  0  0  0
    7.8357  -16.6958   19.0439 O   0  0  0  0  0  0  0  0  0  0  0  0
    9.5718  -15.3393   19.6509 N   0  0  0  0  0  0  0  0  0  0  0  0
   10.0390  -16.2483   20.7012 C   0  0  1  0  0  0  0  0  0  0  0  0
   11.4336  -16.7009   20.4221 C   0  0  0  0  0  0  0  0  0  0  0  0
   11.5250  -17.8294   19.4532 C   0  0  0  0  0  0  0  0  0  0  0  0
   12.8869  -18.2753   19.1230 C   0  0  0  0  0  0  0  0  0  0  0  0
   13.0977  -19.3447   18.5446 O   0  0  0  0  0  0  0  0  0  0  0  0
    9.9938  -15.5696   22.0192 C   0  0  0  0  0  0  0  0  0  0  0  0
   10.4757  -14.4515   22.1688 O   0  0  0  0  0  0  0  0  0  0  0  0
   13.9998  -17.4995   19.4543 O   0  0  0  0  0  0  0  0  0  0  0  0
    9.3852  -16.1955   23.1653 N   0  0  0  0  0  0  0  0  0  0  0  0
    9.2460  -15.5717   24.4378 C   0  0  1  0  0  0  0  0  0  0  0  0
    8.4076  -14.3251   24.4374 C   0  0  0  0  0  0  0  0  0  0  0  0
    6.6571  -14.6681   24.1085 S   0  0  0  0  0  0  0  0  0  0  0  0
    8.6907  -16.4789   25.4732 C   0  0  0  0  0  0  0  0  0  0  0  0
    8.2788  -17.6073   25.1134 O   0  0  0  0  0  0  0  0  0  0  0  0
    8.6095  -16.1331   26.8098 O   0  0  0  0  0  0  0  0  0  0  0  0
  1  2  1  0
  2  3  2  0
  4  5  1  0
  4  2  1  0
  5  6  1  6
  7  5  1  0
  8  7  2  0
  9  7  1  0
 10 11  1  6
 10  9  1  0
 11 12  1  0
 13 12  1  0
 13 17  1  0
 14 13  2  0
 15 18  1  0
 15 10  1  0
 16 15  2  0
 19 20  1  6
 19 18  1  0
 20 21  1  0
 22 19  1  0
 22 24  1  0
 23 22  2  0
M  END
$$$$
