NEC.pdb
     RDKit          3D

 24 23  0  0  1  0  0  0  0  0999 V2000
    8.3996  -14.7680   16.9865 N   0  0  0  0  0  0  0  0  0  0  0  0
    7.6211  -13.9325   17.8555 C   0  0  0  0  0  0  0  0  0  0  0  0
    7.2106  -12.8671   17.3244 O   0  0  0  0  0  0  0  0  0  0  0  0
    7.3470  -14.3205   19.2405 C   0  0  0  0  0  0  0  0  0  0  0  0
    8.4912  -14.1707   20.1833 C   0  0  2  0  0  0  0  0  0  0  0  0
    9.6301  -14.9585   19.6700 N   0  0  0  0  0  0  0  0  0  0  0  0
    8.1767  -14.7014   21.5398 C   0  0  0  0  0  0  0  0  0  0  0  0
    7.1813  -14.3354   22.1871 O   0  0  0  0  0  0  0  0  0  0  0  0
    9.0356  -15.6705   22.1455 N   0  0  0  0  0  0  0  0  0  0  0  0
    8.8332  -16.1582   23.5125 C   0  0  1  0  0  0  0  0  0  0  0  0
    9.7163  -17.3292   23.7887 C   0  0  0  0  0  0  0  0  0  0  0  0
    9.5599  -17.9006   25.1560 C   0  0  0  0  0  0  0  0  0  0  0  0
   10.4669  -19.0090   25.4896 C   0  0  0  0  0  0  0  0  0  0  0  0
   10.0420  -20.1280   25.7897 O   0  0  0  0  0  0  0  0  0  0  0  0
    9.1246  -15.0784   24.4867 C   0  0  0  0  0  0  0  0  0  0  0  0
   10.2614  -14.6357   24.6150 O   0  0  0  0  0  0  0  0  0  0  0  0
   11.8524  -18.8350   25.4791 O   0  0  0  0  0  0  0  0  0  0  0  0
    8.0885  -14.5134   25.3132 N   0  0  0  0  0  0  0  0  0  0  0  0
    8.3172  -13.5476   26.3342 C   0  0  1  0  0  0  0  0  0  0  0  0
    7.1085  -12.7425   26.7188 C   0  0  0  0  0  0  0  0  0  0  0  0
    6.1094  -12.2644   25.2824 S   0  0  0  0  0  0  0  0  0  0  0  0
    8.8719  -14.1365   27.5788 C   0  0  0  0  0  0  0  0  0  0  0  0
    9.2533  -13.3575   28.4844 O   0  0  0  0  0  0  0  0  0  0  0  0
    8.9846  -15.5002   27.7794 O   0  0  0  0  0  0  0  0  0  0  0  0
  1  2  1  0
  2  3  2  0
  4  5  1  0
  4  2  1  0
  5  6  1  6
  7  5  1  0
  8  7  2  0
  9  7  1  0
 10 11  1  1
 10  9  1  0
 11 12  1  0
 13 12  1  0
 13 17  1  0
 14 13  2  0
 15 18  1  0
 15 10  1  0
 16 15  2  0
 19 20  1  1
 19 18  1  0
 20 21  1  0
 22 19  1  0
 22 24  1  0
 23 22  2  0
M  END
$$$$
