NEC.pdb
     RDKit          3D

 24 23  0  0  1  0  0  0  0  0999 V2000
    8.2706  -17.7343   15.3536 N   0  0  0  0  0  0  0  0  0  0  0  0
    7.4166  -18.4031   16.2930 C   0  0  0  0  0  0  0  0  0  0  0  0
    6.6637  -19.2750   15.7842 O   0  0  0  0  0  0  0  0  0  0  0  0
    7.4463  -18.0722   17.7189 C   0  0  0  0  0  0  0  0  0  0  0  0
    8.3776  -16.9728   18.0994 C   0  0  2  0  0  0  0  0  0  0  0  0
    9.4568  -16.9012   17.0936 N   0  0  0  0  0  0  0  0  0  0  0  0
    9.0312  -17.2184   19.4158 C   0  0  0  0  0  0  0  0  0  0  0  0
    8.3838  -17.4170   20.4575 O   0  0  0  0  0  0  0  0  0  0  0  0
   10.4574  -17.2317   19.5149 N   0  0  0  0  0  0  0  0  0  0  0  0
   11.1581  -17.5853   20.7524 C   0  0  1  0  0  0  0  0  0  0  0  0
   12.5996  -17.8599   20.4797 C   0  0  0  0  0  0  0  0  0  0  0  0
   13.3566  -18.3660   21.6593 C   0  0  0  0  0  0  0  0  0  0  0  0
   14.7870  -18.6229   21.4345 C   0  0  0  0  0  0  0  0  0  0  0  0
   15.6368  -17.7412   21.5860 O   0  0  0  0  0  0  0  0  0  0  0  0
   11.0425  -16.4814   21.7362 C   0  0  0  0  0  0  0  0  0  0  0  0
   11.3604  -15.3350   21.4369 O   0  0  0  0  0  0  0  0  0  0  0  0
   15.2396  -19.8832   21.0383 O   0  0  0  0  0  0  0  0  0  0  0  0
   10.5552  -16.7142   23.0719 N   0  0  0  0  0  0  0  0  0  0  0  0
   10.3698  -15.6918   24.0455 C   0  0  1  0  0  0  0  0  0  0  0  0
    9.1076  -14.8931   23.8845 C   0  0  0  0  0  0  0  0  0  0  0  0
    7.6234  -15.9359   23.8881 S   0  0  0  0  0  0  0  0  0  0  0  0
   10.3961  -16.2032   25.4388 C   0  0  0  0  0  0  0  0  0  0  0  0
   10.3486  -17.4436   25.6160 O   0  0  0  0  0  0  0  0  0  0  0  0
   10.4704  -15.3730   26.5425 O   0  0  0  0  0  0  0  0  0  0  0  0
  1  2  1  0
  2  3  2  0
  4  5  1  0
  4  2  1  0
  5  6  1  6
  7  5  1  0
  8  7  2  0
  9  7  1  0
 10 11  1  6
 10  9  1  0
 11 12  1  0
 13 12  1  0
 13 17  1  0
 14 13  2  0
 15 18  1  0
 15 10  1  0
 16 15  2  0
 19 20  1  6
 19 18  1  0
 20 21  1  0
 22 19  1  0
 22 24  1  0
 23 22  2  0
M  END
$$$$
