NEC.pdb
     RDKit          3D

 24 23  0  0  1  0  0  0  0  0999 V2000
   13.9620  -18.9715   20.1710 N   0  0  0  0  0  0  0  0  0  0  0  0
   13.8311  -17.5789   20.4916 C   0  0  0  0  0  0  0  0  0  0  0  0
   14.8615  -16.8921   20.2628 O   0  0  0  0  0  0  0  0  0  0  0  0
   12.5855  -17.0371   21.0383 C   0  0  0  0  0  0  0  0  0  0  0  0
   11.4879  -18.0272   21.2270 C   0  0  2  0  0  0  0  0  0  0  0  0
   10.4843  -17.8256   20.1624 N   0  0  0  0  0  0  0  0  0  0  0  0
   10.7809  -17.8436   22.5259 C   0  0  0  0  0  0  0  0  0  0  0  0
    9.6568  -17.3206   22.6077 O   0  0  0  0  0  0  0  0  0  0  0  0
   11.3953  -18.2765   23.7421 N   0  0  0  0  0  0  0  0  0  0  0  0
   10.7474  -18.1294   25.0482 C   0  0  1  0  0  0  0  0  0  0  0  0
   11.3373  -19.0789   26.0371 C   0  0  0  0  0  0  0  0  0  0  0  0
   10.7540  -18.9742   27.4044 C   0  0  0  0  0  0  0  0  0  0  0  0
   11.3009  -19.9058   28.4022 C   0  0  0  0  0  0  0  0  0  0  0  0
   12.1712  -20.7310   28.1118 O   0  0  0  0  0  0  0  0  0  0  0  0
   10.9059  -16.7397   25.5417 C   0  0  0  0  0  0  0  0  0  0  0  0
   11.9465  -16.1185   25.3513 O   0  0  0  0  0  0  0  0  0  0  0  0
   10.8523  -19.8910   29.7246 O   0  0  0  0  0  0  0  0  0  0  0  0
    9.8492  -16.0725   26.2584 N   0  0  0  0  0  0  0  0  0  0  0  0
    9.9476  -14.7523   26.7829 C   0  0  1  0  0  0  0  0  0  0  0  0
    8.6981  -13.9290   26.6494 C   0  0  0  0  0  0  0  0  0  0  0  0
    8.8597  -12.2953   27.4209 S   0  0  0  0  0  0  0  0  0  0  0  0
   10.3478  -14.7220   28.2120 C   0  0  0  0  0  0  0  0  0  0  0  0
   10.3026  -15.7927   28.8631 O   0  0  0  0  0  0  0  0  0  0  0  0
   10.7656  -13.5688   28.8510 O   0  0  0  0  0  0  0  0  0  0  0  0
  1  2  1  0
  2  3  2  0
  4  5  1  0
  4  2  1  0
  5  6  1  6
  7  5  1  0
  8  7  2  0
  9  7  1  0
 10 11  1  1
 10  9  1  0
 11 12  1  0
 13 12  1  0
 13 17  1  0
 14 13  2  0
 15 18  1  0
 15 10  1  0
 16 15  2  0
 19 20  1  1
 19 18  1  0
 20 21  1  0
 22 19  1  0
 22 24  1  0
 23 22  2  0
M  END
$$$$
