NEC.pdb
     RDKit          3D

 24 23  0  0  1  0  0  0  0  0999 V2000
    6.9669  -17.0855   18.1409 N   0  0  0  0  0  0  0  0  0  0  0  0
    7.4912  -18.4149   18.2719 C   0  0  0  0  0  0  0  0  0  0  0  0
    7.0536  -19.2340   17.4214 O   0  0  0  0  0  0  0  0  0  0  0  0
    8.4547  -18.7535   19.3210 C   0  0  0  0  0  0  0  0  0  0  0  0
    8.7821  -17.6496   20.2670 C   0  0  2  0  0  0  0  0  0  0  0  0
    9.4097  -16.5495   19.5073 N   0  0  0  0  0  0  0  0  0  0  0  0
    9.7638  -18.0706   21.3060 C   0  0  0  0  0  0  0  0  0  0  0  0
    9.5581  -19.0266   22.0725 O   0  0  0  0  0  0  0  0  0  0  0  0
   10.9993  -17.3658   21.4501 N   0  0  0  0  0  0  0  0  0  0  0  0
   11.9960  -17.7215   22.4637 C   0  0  1  0  0  0  0  0  0  0  0  0
   13.3621  -17.3121   22.0235 C   0  0  0  0  0  0  0  0  0  0  0  0
   13.9455  -18.1805   20.9624 C   0  0  0  0  0  0  0  0  0  0  0  0
   15.2351  -17.7350   20.4137 C   0  0  0  0  0  0  0  0  0  0  0  0
   15.5173  -17.8773   19.2210 O   0  0  0  0  0  0  0  0  0  0  0  0
   11.6720  -17.0593   23.7508 C   0  0  0  0  0  0  0  0  0  0  0  0
   11.7904  -15.8454   23.8819 O   0  0  0  0  0  0  0  0  0  0  0  0
   16.1948  -17.1303   21.2282 O   0  0  0  0  0  0  0  0  0  0  0  0
   11.2089  -17.8138   24.8874 N   0  0  0  0  0  0  0  0  0  0  0  0
   10.9277  -17.2472   26.1631 C   0  0  1  0  0  0  0  0  0  0  0  0
    9.7895  -16.2668   26.1775 C   0  0  0  0  0  0  0  0  0  0  0  0
    8.2221  -17.0180   25.6588 S   0  0  0  0  0  0  0  0  0  0  0  0
   10.6470  -18.2675   27.2042 C   0  0  0  0  0  0  0  0  0  0  0  0
   10.4521  -19.4506   26.8374 O   0  0  0  0  0  0  0  0  0  0  0  0
   10.5920  -17.9687   28.5534 O   0  0  0  0  0  0  0  0  0  0  0  0
  1  2  1  0
  2  3  2  0
  4  5  1  0
  4  2  1  0
  5  6  1  6
  7  5  1  0
  8  7  2  0
  9  7  1  0
 10 11  1  6
 10  9  1  0
 11 12  1  0
 13 12  1  0
 13 17  1  0
 14 13  2  0
 15 18  1  0
 15 10  1  0
 16 15  2  0
 19 20  1  6
 19 18  1  0
 20 21  1  0
 22 19  1  0
 22 24  1  0
 23 22  2  0
M  END
$$$$
