NEC.pdb
     RDKit          3D

 24 23  0  0  1  0  0  0  0  0999 V2000
    8.9733  -13.3350   17.2237 N   0  0  0  0  0  0  0  0  0  0  0  0
    7.6702  -13.8230   17.5743 C   0  0  0  0  0  0  0  0  0  0  0  0
    6.9069  -14.0230   16.5929 O   0  0  0  0  0  0  0  0  0  0  0  0
    7.2949  -14.0574   18.9700 C   0  0  0  0  0  0  0  0  0  0  0  0
    8.3478  -13.7397   19.9756 C   0  0  2  0  0  0  0  0  0  0  0  0
    9.6291  -14.3088   19.5111 N   0  0  0  0  0  0  0  0  0  0  0  0
    8.0610  -14.3514   21.3039 C   0  0  0  0  0  0  0  0  0  0  0  0
    7.0131  -14.1256   21.9322 O   0  0  0  0  0  0  0  0  0  0  0  0
    9.0100  -15.2364   21.9037 N   0  0  0  0  0  0  0  0  0  0  0  0
    8.7801  -15.8764   23.2018 C   0  0  1  0  0  0  0  0  0  0  0  0
    9.6403  -17.0870   23.3504 C   0  0  0  0  0  0  0  0  0  0  0  0
    9.4609  -17.8063   24.6431 C   0  0  0  0  0  0  0  0  0  0  0  0
   10.3155  -18.9871   24.8377 C   0  0  0  0  0  0  0  0  0  0  0  0
   10.1821  -19.7318   25.8125 O   0  0  0  0  0  0  0  0  0  0  0  0
    9.0746  -14.9228   24.2989 C   0  0  0  0  0  0  0  0  0  0  0  0
   10.1665  -14.3691   24.3761 O   0  0  0  0  0  0  0  0  0  0  0  0
   11.3168  -19.3116   23.9199 O   0  0  0  0  0  0  0  0  0  0  0  0
    8.0941  -14.6138   25.3083 N   0  0  0  0  0  0  0  0  0  0  0  0
    8.3411  -13.7778   26.4343 C   0  0  1  0  0  0  0  0  0  0  0  0
    7.2146  -12.8476   26.7845 C   0  0  0  0  0  0  0  0  0  0  0  0
    6.6486  -11.8784   25.3596 S   0  0  0  0  0  0  0  0  0  0  0  0
    8.6843  -14.5399   27.6610 C   0  0  0  0  0  0  0  0  0  0  0  0
    8.5894  -15.7898   27.6284 O   0  0  0  0  0  0  0  0  0  0  0  0
    9.1018  -13.9320   28.8310 O   0  0  0  0  0  0  0  0  0  0  0  0
  1  2  1  0
  2  3  2  0
  4  5  1  0
  4  2  1  0
  5  6  1  6
  7  5  1  0
  8  7  2  0
  9  7  1  0
 10 11  1  1
 10  9  1  0
 11 12  1  0
 13 12  1  0
 13 17  1  0
 14 13  2  0
 15 18  1  0
 15 10  1  0
 16 15  2  0
 19 20  1  1
 19 18  1  0
 20 21  1  0
 22 19  1  0
 22 24  1  0
 23 22  2  0
M  END
$$$$
