NEC.pdb
     RDKit          3D

 24 23  0  0  1  0  0  0  0  0999 V2000
    8.0707  -12.5195   17.5549 N   0  0  0  0  0  0  0  0  0  0  0  0
    7.6430  -13.8767   17.7397 C   0  0  0  0  0  0  0  0  0  0  0  0
    7.4582  -14.5153   16.6702 O   0  0  0  0  0  0  0  0  0  0  0  0
    7.4481  -14.4382   19.0778 C   0  0  0  0  0  0  0  0  0  0  0  0
    8.4070  -13.9632   20.1148 C   0  0  2  0  0  0  0  0  0  0  0  0
    9.7655  -13.9643   19.5353 N   0  0  0  0  0  0  0  0  0  0  0  0
    8.4443  -14.8632   21.3020 C   0  0  0  0  0  0  0  0  0  0  0  0
    7.4342  -15.1213   21.9779 O   0  0  0  0  0  0  0  0  0  0  0  0
    9.6763  -15.4675   21.7030 N   0  0  0  0  0  0  0  0  0  0  0  0
    9.8097  -16.2378   22.9425 C   0  0  1  0  0  0  0  0  0  0  0  0
   10.8801  -17.2690   22.8075 C   0  0  0  0  0  0  0  0  0  0  0  0
   10.5529  -18.3647   21.8519 C   0  0  0  0  0  0  0  0  0  0  0  0
   11.6246  -19.3434   21.6155 C   0  0  0  0  0  0  0  0  0  0  0  0
   12.5066  -19.1502   20.7744 O   0  0  0  0  0  0  0  0  0  0  0  0
   10.1343  -15.3328   24.0718 C   0  0  0  0  0  0  0  0  0  0  0  0
   10.4779  -14.1726   23.8706 O   0  0  0  0  0  0  0  0  0  0  0  0
   11.6843  -20.5363   22.3392 O   0  0  0  0  0  0  0  0  0  0  0  0
   10.0583  -15.7814   25.4389 N   0  0  0  0  0  0  0  0  0  0  0  0
   10.0371  -14.9118   26.5662 C   0  0  1  0  0  0  0  0  0  0  0  0
    9.0179  -13.8107   26.4907 C   0  0  0  0  0  0  0  0  0  0  0  0
    9.1116  -12.6821   27.9076 S   0  0  0  0  0  0  0  0  0  0  0  0
    9.8227  -15.6270   27.8492 C   0  0  0  0  0  0  0  0  0  0  0  0
    9.0382  -16.6052   27.8586 O   0  0  0  0  0  0  0  0  0  0  0  0
   10.4484  -15.2611   29.0270 O   0  0  0  0  0  0  0  0  0  0  0  0
  1  2  1  0
  2  3  2  0
  4  5  1  0
  4  2  1  0
  5  6  1  6
  7  5  1  0
  8  7  2  0
  9  7  1  0
 10 11  1  6
 10  9  1  0
 11 12  1  0
 13 12  1  0
 13 17  1  0
 14 13  2  0
 15 18  1  0
 15 10  1  0
 16 15  2  0
 19 20  1  6
 19 18  1  0
 20 21  1  0
 22 19  1  0
 22 24  1  0
 23 22  2  0
M  END
$$$$
