NEC.pdb
     RDKit          3D

 24 23  0  0  1  0  0  0  0  0999 V2000
    7.4933  -12.0501   17.9935 N   0  0  0  0  0  0  0  0  0  0  0  0
    7.9744  -13.3196   18.4585 C   0  0  0  0  0  0  0  0  0  0  0  0
    8.6637  -13.9555   17.6181 O   0  0  0  0  0  0  0  0  0  0  0  0
    7.6686  -13.8025   19.8065 C   0  0  0  0  0  0  0  0  0  0  0  0
    8.5842  -14.8552   20.3300 C   0  0  2  0  0  0  0  0  0  0  0  0
    8.4509  -16.0581   19.4835 N   0  0  0  0  0  0  0  0  0  0  0  0
    8.2352  -15.2653   21.7194 C   0  0  0  0  0  0  0  0  0  0  0  0
    7.1508  -14.9728   22.2509 O   0  0  0  0  0  0  0  0  0  0  0  0
    9.1644  -16.0255   22.4956 N   0  0  0  0  0  0  0  0  0  0  0  0
    8.8943  -16.4249   23.8795 C   0  0  1  0  0  0  0  0  0  0  0  0
    9.7026  -17.6245   24.2472 C   0  0  0  0  0  0  0  0  0  0  0  0
    9.5234  -18.0702   25.6578 C   0  0  0  0  0  0  0  0  0  0  0  0
   10.3297  -19.2304   26.0655 C   0  0  0  0  0  0  0  0  0  0  0  0
   10.3122  -20.2886   25.4310 O   0  0  0  0  0  0  0  0  0  0  0  0
    9.2156  -15.3099   24.8032 C   0  0  0  0  0  0  0  0  0  0  0  0
   10.3458  -14.8352   24.8485 O   0  0  0  0  0  0  0  0  0  0  0  0
   11.1509  -19.1772   27.1937 O   0  0  0  0  0  0  0  0  0  0  0  0
    8.2172  -14.7469   25.6761 N   0  0  0  0  0  0  0  0  0  0  0  0
    8.4861  -13.7630   26.6696 C   0  0  1  0  0  0  0  0  0  0  0  0
    7.3219  -12.8745   27.0046 C   0  0  0  0  0  0  0  0  0  0  0  0
    6.3966  -12.3610   25.5314 S   0  0  0  0  0  0  0  0  0  0  0  0
    8.9825  -14.3421   27.9431 C   0  0  0  0  0  0  0  0  0  0  0  0
    8.9863  -15.5901   28.0651 O   0  0  0  0  0  0  0  0  0  0  0  0
    9.4379  -13.5668   28.9939 O   0  0  0  0  0  0  0  0  0  0  0  0
  1  2  1  0
  2  3  2  0
  4  5  1  0
  4  2  1  0
  5  6  1  6
  7  5  1  0
  8  7  2  0
  9  7  1  0
 10 11  1  1
 10  9  1  0
 11 12  1  0
 13 12  1  0
 13 17  1  0
 14 13  2  0
 15 18  1  0
 15 10  1  0
 16 15  2  0
 19 20  1  1
 19 18  1  0
 20 21  1  0
 22 19  1  0
 22 24  1  0
 23 22  2  0
M  END
$$$$
