NEC.pdb
     RDKit          3D

 24 23  0  0  1  0  0  0  0  0999 V2000
    8.5391  -13.2266   17.4318 N   0  0  0  0  0  0  0  0  0  0  0  0
    7.5284  -14.2165   17.6723 C   0  0  0  0  0  0  0  0  0  0  0  0
    7.0119  -14.6982   16.6297 O   0  0  0  0  0  0  0  0  0  0  0  0
    7.1551  -14.6087   19.0326 C   0  0  0  0  0  0  0  0  0  0  0  0
    7.7807  -13.8072   20.1221 C   0  0  2  0  0  0  0  0  0  0  0  0
    9.1705  -13.4910   19.7350 N   0  0  0  0  0  0  0  0  0  0  0  0
    7.8517  -14.5603   21.4060 C   0  0  0  0  0  0  0  0  0  0  0  0
    6.8387  -14.8865   22.0472 O   0  0  0  0  0  0  0  0  0  0  0  0
    9.1212  -14.9358   21.9456 N   0  0  0  0  0  0  0  0  0  0  0  0
    9.2549  -15.6820   23.1997 C   0  0  1  0  0  0  0  0  0  0  0  0
   10.4786  -16.5362   23.1748 C   0  0  0  0  0  0  0  0  0  0  0  0
   10.3015  -17.8327   22.4617 C   0  0  0  0  0  0  0  0  0  0  0  0
   11.5018  -18.6774   22.3707 C   0  0  0  0  0  0  0  0  0  0  0  0
   11.8987  -19.3470   23.3281 O   0  0  0  0  0  0  0  0  0  0  0  0
    9.3306  -14.7430   24.3453 C   0  0  0  0  0  0  0  0  0  0  0  0
   10.1381  -13.8196   24.3506 O   0  0  0  0  0  0  0  0  0  0  0  0
   12.2420  -18.7536   21.1889 O   0  0  0  0  0  0  0  0  0  0  0  0
    8.4629  -14.8806   25.4872 N   0  0  0  0  0  0  0  0  0  0  0  0
    8.5633  -14.0912   26.6681 C   0  0  1  0  0  0  0  0  0  0  0  0
    7.3657  -13.2293   26.9507 C   0  0  0  0  0  0  0  0  0  0  0  0
    6.9089  -12.1927   25.5340 S   0  0  0  0  0  0  0  0  0  0  0  0
    8.8267  -14.8973   27.8864 C   0  0  0  0  0  0  0  0  0  0  0  0
    8.8196  -16.1470   27.7834 O   0  0  0  0  0  0  0  0  0  0  0  0
    9.0779  -14.3303   29.1226 O   0  0  0  0  0  0  0  0  0  0  0  0
  1  2  1  0
  2  3  2  0
  4  5  1  0
  4  2  1  0
  5  6  1  6
  7  5  1  0
  8  7  2  0
  9  7  1  0
 10 11  1  6
 10  9  1  0
 11 12  1  0
 13 12  1  0
 13 17  1  0
 14 13  2  0
 15 18  1  0
 15 10  1  0
 16 15  2  0
 19 20  1  1
 19 18  1  0
 20 21  1  0
 22 19  1  0
 22 24  1  0
 23 22  2  0
M  END
$$$$
