NEC.pdb
     RDKit          3D

 24 23  0  0  1  0  0  0  0  0999 V2000
    8.5091  -12.5501   18.0140 N   0  0  0  0  0  0  0  0  0  0  0  0
    7.6035  -13.6287   18.2896 C   0  0  0  0  0  0  0  0  0  0  0  0
    6.6904  -13.7740   17.4348 O   0  0  0  0  0  0  0  0  0  0  0  0
    7.7604  -14.4700   19.4776 C   0  0  0  0  0  0  0  0  0  0  0  0
    8.8408  -14.0540   20.4158 C   0  0  2  0  0  0  0  0  0  0  0  0
   10.1393  -14.1796   19.7234 N   0  0  0  0  0  0  0  0  0  0  0  0
    8.9085  -14.9286   21.6204 C   0  0  0  0  0  0  0  0  0  0  0  0
    7.9871  -14.9954   22.4513 O   0  0  0  0  0  0  0  0  0  0  0  0
   10.0663  -15.7336   21.8557 N   0  0  0  0  0  0  0  0  0  0  0  0
   10.2489  -16.5116   23.0840 C   0  0  1  0  0  0  0  0  0  0  0  0
   11.3803  -17.4733   22.9334 C   0  0  0  0  0  0  0  0  0  0  0  0
   11.5740  -18.3736   24.1049 C   0  0  0  0  0  0  0  0  0  0  0  0
   12.6548  -19.3624   23.9752 C   0  0  0  0  0  0  0  0  0  0  0  0
   12.4419  -20.5074   23.5674 O   0  0  0  0  0  0  0  0  0  0  0  0
   10.5197  -15.6045   24.2258 C   0  0  0  0  0  0  0  0  0  0  0  0
   10.8920  -14.4507   24.0391 O   0  0  0  0  0  0  0  0  0  0  0  0
   13.9713  -19.0397   24.3111 O   0  0  0  0  0  0  0  0  0  0  0  0
   10.3559  -16.0433   25.5883 N   0  0  0  0  0  0  0  0  0  0  0  0
   10.2481  -15.1653   26.7041 C   0  0  1  0  0  0  0  0  0  0  0  0
    9.1302  -14.1660   26.6109 C   0  0  0  0  0  0  0  0  0  0  0  0
    9.0181  -13.1131   28.0837 S   0  0  0  0  0  0  0  0  0  0  0  0
   10.0962  -15.8812   27.9956 C   0  0  0  0  0  0  0  0  0  0  0  0
    9.5721  -17.0203   27.9839 O   0  0  0  0  0  0  0  0  0  0  0  0
   10.5062  -15.3468   29.2036 O   0  0  0  0  0  0  0  0  0  0  0  0
  1  2  1  0
  2  3  2  0
  4  5  1  0
  4  2  1  0
  5  6  1  6
  7  5  1  0
  8  7  2  0
  9  7  1  0
 10 11  1  6
 10  9  1  0
 11 12  1  0
 13 12  1  0
 13 17  1  0
 14 13  2  0
 15 18  1  0
 15 10  1  0
 16 15  2  0
 19 20  1  6
 19 18  1  0
 20 21  1  0
 22 19  1  0
 22 24  1  0
 23 22  2  0
M  END
$$$$
