NEC.pdb
     RDKit          3D

 24 23  0  0  1  0  0  0  0  0999 V2000
    8.5483  -12.5090   17.9237 N   0  0  0  0  0  0  0  0  0  0  0  0
    7.7461  -13.6563   18.2392 C   0  0  0  0  0  0  0  0  0  0  0  0
    7.3964  -14.3385   17.2401 O   0  0  0  0  0  0  0  0  0  0  0  0
    7.3843  -13.9757   19.6214 C   0  0  0  0  0  0  0  0  0  0  0  0
    8.4607  -14.6123   20.4319 C   0  0  2  0  0  0  0  0  0  0  0  0
    8.7429  -15.9495   19.8719 N   0  0  0  0  0  0  0  0  0  0  0  0
    8.0519  -14.8166   21.8502 C   0  0  0  0  0  0  0  0  0  0  0  0
    7.6016  -13.8983   22.5556 O   0  0  0  0  0  0  0  0  0  0  0  0
    8.1711  -16.1089   22.4499 N   0  0  0  0  0  0  0  0  0  0  0  0
    7.6937  -16.3959   23.8053 C   0  0  1  0  0  0  0  0  0  0  0  0
    7.5368  -17.8664   24.0066 C   0  0  0  0  0  0  0  0  0  0  0  0
    6.3899  -18.4633   23.2655 C   0  0  0  0  0  0  0  0  0  0  0  0
    6.2394  -19.9205   23.3935 C   0  0  0  0  0  0  0  0  0  0  0  0
    7.0393  -20.6017   24.0406 O   0  0  0  0  0  0  0  0  0  0  0  0
    8.6482  -15.8590   24.8056 C   0  0  0  0  0  0  0  0  0  0  0  0
    9.8564  -15.8727   24.5942 O   0  0  0  0  0  0  0  0  0  0  0  0
    5.1780  -20.5920   22.7830 O   0  0  0  0  0  0  0  0  0  0  0  0
    8.1931  -15.3046   26.0552 N   0  0  0  0  0  0  0  0  0  0  0  0
    9.0514  -14.7300   27.0353 C   0  0  1  0  0  0  0  0  0  0  0  0
    8.4766  -13.5430   27.7548 C   0  0  0  0  0  0  0  0  0  0  0  0
    9.6588  -12.7935   28.9083 S   0  0  0  0  0  0  0  0  0  0  0  0
    9.4911  -15.7031   28.0665 C   0  0  0  0  0  0  0  0  0  0  0  0
   10.4064  -15.3611   28.8523 O   0  0  0  0  0  0  0  0  0  0  0  0
    8.9363  -16.9634   28.1952 O   0  0  0  0  0  0  0  0  0  0  0  0
  1  2  1  0
  2  3  2  0
  4  5  1  0
  4  2  1  0
  5  6  1  6
  7  5  1  0
  8  7  2  0
  9  7  1  0
 10 11  1  6
 10  9  1  0
 11 12  1  0
 13 12  1  0
 13 17  1  0
 14 13  2  0
 15 18  1  0
 15 10  1  0
 16 15  2  0
 19 20  1  1
 19 18  1  0
 20 21  1  0
 22 19  1  0
 22 24  1  0
 23 22  2  0
M  END
$$$$
