NEC.pdb
     RDKit          3D

 24 23  0  0  1  0  0  0  0  0999 V2000
    9.2513  -13.5956   16.7473 N   0  0  0  0  0  0  0  0  0  0  0  0
    7.8935  -13.9688   17.0235 C   0  0  0  0  0  0  0  0  0  0  0  0
    7.2397  -14.3419   16.0139 O   0  0  0  0  0  0  0  0  0  0  0  0
    7.3481  -13.9079   18.3809 C   0  0  0  0  0  0  0  0  0  0  0  0
    8.3159  -13.5046   19.4398 C   0  0  2  0  0  0  0  0  0  0  0  0
    9.6654  -13.9510   19.0386 N   0  0  0  0  0  0  0  0  0  0  0  0
    8.0198  -14.1510   20.7494 C   0  0  0  0  0  0  0  0  0  0  0  0
    6.9582  -13.9587   21.3656 O   0  0  0  0  0  0  0  0  0  0  0  0
    8.9758  -15.0316   21.3447 N   0  0  0  0  0  0  0  0  0  0  0  0
    8.8074  -15.5834   22.6918 C   0  0  1  0  0  0  0  0  0  0  0  0
    9.9043  -16.5454   23.0063 C   0  0  0  0  0  0  0  0  0  0  0  0
    9.8066  -17.1583   24.3611 C   0  0  0  0  0  0  0  0  0  0  0  0
   10.8716  -18.1118   24.7061 C   0  0  0  0  0  0  0  0  0  0  0  0
   11.9853  -18.0606   24.1774 O   0  0  0  0  0  0  0  0  0  0  0  0
    8.8066  -14.4896   23.6935 C   0  0  0  0  0  0  0  0  0  0  0  0
    9.0257  -13.3297   23.3599 O   0  0  0  0  0  0  0  0  0  0  0  0
   10.6603  -19.1178   25.6514 O   0  0  0  0  0  0  0  0  0  0  0  0
    8.5496  -14.7485   25.0873 N   0  0  0  0  0  0  0  0  0  0  0  0
    8.1014  -13.7649   26.0144 C   0  0  1  0  0  0  0  0  0  0  0  0
    6.8945  -12.9880   25.5709 C   0  0  0  0  0  0  0  0  0  0  0  0
    6.3101  -11.8322   26.8408 S   0  0  0  0  0  0  0  0  0  0  0  0
    7.8002  -14.3240   27.3561 C   0  0  0  0  0  0  0  0  0  0  0  0
    7.3023  -15.4730   27.4213 O   0  0  0  0  0  0  0  0  0  0  0  0
    8.0446  -13.6342   28.5296 O   0  0  0  0  0  0  0  0  0  0  0  0
  1  2  1  0
  2  3  2  0
  4  5  1  0
  4  2  1  0
  5  6  1  6
  7  5  1  0
  8  7  2  0
  9  7  1  0
 10 11  1  1
 10  9  1  0
 11 12  1  0
 13 12  1  0
 13 17  1  0
 14 13  2  0
 15 18  1  0
 15 10  1  0
 16 15  2  0
 19 20  1  6
 19 18  1  0
 20 21  1  0
 22 19  1  0
 22 24  1  0
 23 22  2  0
M  END
$$$$
