NEC.pdb
     RDKit          3D

 24 23  0  0  1  0  0  0  0  0999 V2000
    8.1699  -12.5184   16.8822 N   0  0  0  0  0  0  0  0  0  0  0  0
    8.0925  -13.5859   17.8382 C   0  0  0  0  0  0  0  0  0  0  0  0
    6.9217  -13.9719   18.0950 O   0  0  0  0  0  0  0  0  0  0  0  0
    9.2981  -14.1543   18.4440 C   0  0  0  0  0  0  0  0  0  0  0  0
   10.3597  -14.5691   17.4841 C   0  0  2  0  0  0  0  0  0  0  0  0
    9.7836  -15.5469   16.5390 N   0  0  0  0  0  0  0  0  0  0  0  0
   11.5000  -15.2466   18.1633 C   0  0  0  0  0  0  0  0  0  0  0  0
   11.5817  -16.4825   18.2612 O   0  0  0  0  0  0  0  0  0  0  0  0
   12.5560  -14.4702   18.7341 N   0  0  0  0  0  0  0  0  0  0  0  0
   13.7813  -15.0748   19.2639 C   0  0  1  0  0  0  0  0  0  0  0  0
   14.9865  -14.4397   18.6544 C   0  0  0  0  0  0  0  0  0  0  0  0
   16.2782  -15.0403   19.0921 C   0  0  0  0  0  0  0  0  0  0  0  0
   17.4838  -14.4889   18.4558 C   0  0  0  0  0  0  0  0  0  0  0  0
   18.1858  -15.1652   17.6992 O   0  0  0  0  0  0  0  0  0  0  0  0
   13.8309  -14.9167   20.7378 C   0  0  0  0  0  0  0  0  0  0  0  0
   13.9265  -13.8058   21.2493 O   0  0  0  0  0  0  0  0  0  0  0  0
   17.8817  -13.1703   18.6860 O   0  0  0  0  0  0  0  0  0  0  0  0
   13.7690  -16.0560   21.6175 N   0  0  0  0  0  0  0  0  0  0  0  0
   12.9353  -16.1331   22.7693 C   0  0  1  0  0  0  0  0  0  0  0  0
   11.4714  -15.9303   22.4993 C   0  0  0  0  0  0  0  0  0  0  0  0
   10.4631  -16.0825   23.9994 S   0  0  0  0  0  0  0  0  0  0  0  0
   13.0768  -17.4142   23.5056 C   0  0  0  0  0  0  0  0  0  0  0  0
   13.1902  -17.3712   24.7537 O   0  0  0  0  0  0  0  0  0  0  0  0
   13.0888  -18.6455   22.8758 O   0  0  0  0  0  0  0  0  0  0  0  0
  1  2  1  0
  2  3  2  0
  4  5  1  0
  4  2  1  0
  5  6  1  6
  7  5  1  0
  8  7  2  0
  9  7  1  0
 10 11  1  6
 10  9  1  0
 11 12  1  0
 13 12  1  0
 13 17  1  0
 14 13  2  0
 15 18  1  0
 15 10  1  0
 16 15  2  0
 19 20  1  6
 19 18  1  0
 20 21  1  0
 22 19  1  0
 22 24  1  0
 23 22  2  0
M  END
$$$$
