LYY.pdb
     RDKit          3D

 33 34  0  0  1  0  0  0  0  0999 V2000
    7.3356  -13.5529   15.5217 C   0  0  0  0  0  0  0  0  0  0  0  0
    7.7026  -14.7816   16.3139 C   0  0  1  0  0  0  0  0  0  0  0  0
    8.5188  -15.7162   15.4498 C   0  0  0  0  0  0  0  0  0  0  0  0
    8.4671  -14.3558   17.5437 C   0  0  0  0  0  0  0  0  0  0  0  0
    8.8780  -15.5311   18.4087 C   0  0  2  0  0  0  0  0  0  0  0  0
    7.7749  -16.4611   18.4537 N   0  0  0  0  0  0  0  0  0  0  0  0
    9.1215  -15.0136   19.7738 C   0  0  0  0  0  0  0  0  0  0  0  0
   10.0002  -14.1445   20.0019 O   0  0  0  0  0  0  0  0  0  0  0  0
    6.6607  -13.2722   28.1502 O   0  0  0  0  0  0  0  0  0  0  0  0
    6.7815  -13.6336   26.8041 C   0  0  0  0  0  0  0  0  0  0  0  0
    6.5331  -14.9146   26.4180 C   0  0  0  0  0  0  0  0  0  0  0  0
    6.6555  -15.2543   25.0919 C   0  0  0  0  0  0  0  0  0  0  0  0
    7.0245  -14.3446   24.1188 C   0  0  0  0  0  0  0  0  0  0  0  0
    7.1292  -14.8100   22.7424 C   0  0  0  0  0  0  0  0  0  0  0  0
    8.5106  -15.0117   22.2229 C   0  0  2  0  0  0  0  0  0  0  0  0
    8.3624  -15.4961   20.8413 N   0  0  0  0  0  0  0  0  0  0  0  0
    9.2564  -16.0782   22.9290 C   0  0  0  0  0  0  0  0  0  0  0  0
    8.6727  -17.1795   23.1071 O   0  0  0  0  0  0  0  0  0  0  0  0
    7.2674  -13.0574   24.5514 C   0  0  0  0  0  0  0  0  0  0  0  0
    7.1579  -12.6768   25.8563 C   0  0  0  0  0  0  0  0  0  0  0  0
   11.1345  -15.4014   31.2422 O   0  0  0  0  0  0  0  0  0  0  0  0
   10.8933  -15.3185   29.8681 C   0  0  0  0  0  0  0  0  0  0  0  0
   11.0711  -14.1209   29.2016 C   0  0  0  0  0  0  0  0  0  0  0  0
   10.8318  -14.0450   27.8476 C   0  0  0  0  0  0  0  0  0  0  0  0
   10.4120  -15.1284   27.0951 C   0  0  0  0  0  0  0  0  0  0  0  0
   10.1570  -15.0278   25.6416 C   0  0  0  0  0  0  0  0  0  0  0  0
   10.9168  -16.0555   24.8285 C   0  0  2  0  0  0  0  0  0  0  0  0
   10.5761  -15.9462   23.4157 N   0  0  0  0  0  0  0  0  0  0  0  0
   10.6656  -17.4270   25.2828 C   0  0  0  0  0  0  0  0  0  0  0  0
   11.6207  -18.2151   25.8818 O   0  0  0  0  0  0  0  0  0  0  0  0
   10.2404  -16.3228   27.7905 C   0  0  0  0  0  0  0  0  0  0  0  0
   10.4774  -16.4118   29.1488 C   0  0  0  0  0  0  0  0  0  0  0  0
    9.5213  -17.9310   25.1255 O   0  0  0  0  0  0  0  0  0  0  0  0
  2  1  1  6
  2  3  1  0
  4  2  1  0
  5  6  1  1
  5  4  1  0
  7  5  1  0
  8  7  2  0
  9 10  1  0
 10 11  2  0
 10 20  1  0
 11 12  1  0
 12 13  2  0
 13 14  1  0
 15 14  1  1
 15 16  1  0
 16  7  1  0
 17 15  1  0
 17 28  1  0
 18 17  2  0
 19 13  1  0
 20 19  2  0
 22 21  1  0
 23 22  2  0
 24 23  1  0
 25 24  2  0
 25 31  1  0
 26 25  1  0
 27 26  1  1
 27 28  1  0
 27 29  1  0
 29 30  1  0
 31 32  2  0
 32 22  1  0
 33 29  2  0
M  END
$$$$
