LYY.pdb
     RDKit          3D

 33 34  0  0  1  0  0  0  0  0999 V2000
    7.0591  -11.4271   27.4337 C   0  0  0  0  0  0  0  0  0  0  0  0
    6.1133  -12.6000   27.3929 C   0  0  1  0  0  0  0  0  0  0  0  0
    4.9890  -12.3104   26.4242 C   0  0  0  0  0  0  0  0  0  0  0  0
    6.8859  -13.8329   26.9913 C   0  0  0  0  0  0  0  0  0  0  0  0
    6.0360  -14.8279   26.2259 C   0  0  2  0  0  0  0  0  0  0  0  0
    5.7661  -15.9483   27.0951 N   0  0  0  0  0  0  0  0  0  0  0  0
    6.8354  -15.3002   25.0734 C   0  0  0  0  0  0  0  0  0  0  0  0
    7.4594  -16.3905   25.1069 O   0  0  0  0  0  0  0  0  0  0  0  0
    9.2042  -15.1846   16.4936 O   0  0  0  0  0  0  0  0  0  0  0  0
    8.7291  -14.8634   17.7696 C   0  0  0  0  0  0  0  0  0  0  0  0
    7.9272  -15.7368   18.4374 C   0  0  0  0  0  0  0  0  0  0  0  0
    7.4688  -15.4073   19.6905 C   0  0  0  0  0  0  0  0  0  0  0  0
    7.7872  -14.2149   20.3127 C   0  0  0  0  0  0  0  0  0  0  0  0
    7.2444  -13.9623   21.6408 C   0  0  0  0  0  0  0  0  0  0  0  0
    7.6018  -14.9537   22.6934 C   0  0  2  0  0  0  0  0  0  0  0  0
    6.9049  -14.5230   23.9159 N   0  0  0  0  0  0  0  0  0  0  0  0
    9.0400  -14.9477   23.0453 C   0  0  0  0  0  0  0  0  0  0  0  0
    9.4979  -13.9221   23.6143 O   0  0  0  0  0  0  0  0  0  0  0  0
    8.6019  -13.3576   19.6023 C   0  0  0  0  0  0  0  0  0  0  0  0
    9.0793  -13.6440   18.3575 C   0  0  0  0  0  0  0  0  0  0  0  0
    9.9509  -15.0124   29.2496 O   0  0  0  0  0  0  0  0  0  0  0  0
   10.3944  -15.4665   28.0044 C   0  0  0  0  0  0  0  0  0  0  0  0
   11.2691  -14.7017   27.2562 C   0  0  0  0  0  0  0  0  0  0  0  0
   11.7026  -15.1539   26.0299 C   0  0  0  0  0  0  0  0  0  0  0  0
   11.3017  -16.3632   25.4886 C   0  0  0  0  0  0  0  0  0  0  0  0
   11.7755  -16.8320   24.1681 C   0  0  0  0  0  0  0  0  0  0  0  0
   11.3674  -15.9216   23.0284 C   0  0  2  0  0  0  0  0  0  0  0  0
    9.9329  -16.0118   22.7877 N   0  0  0  0  0  0  0  0  0  0  0  0
   12.0869  -16.2214   21.7862 C   0  0  0  0  0  0  0  0  0  0  0  0
   11.4614  -16.5714   20.6121 O   0  0  0  0  0  0  0  0  0  0  0  0
   10.4203  -17.1143   26.2623 C   0  0  0  0  0  0  0  0  0  0  0  0
    9.9784  -16.6716   27.4942 C   0  0  0  0  0  0  0  0  0  0  0  0
   13.3456  -16.1621   21.7706 O   0  0  0  0  0  0  0  0  0  0  0  0
  2  1  1  6
  2  3  1  0
  4  2  1  0
  5  6  1  1
  5  4  1  0
  7  5  1  0
  8  7  2  0
  9 10  1  0
 10 11  2  0
 10 20  1  0
 11 12  1  0
 12 13  2  0
 13 14  1  0
 15 14  1  6
 15 16  1  0
 16  7  1  0
 17 15  1  0
 17 28  1  0
 18 17  2  0
 19 13  1  0
 20 19  2  0
 22 21  1  0
 23 22  2  0
 24 23  1  0
 25 24  2  0
 25 31  1  0
 26 25  1  0
 27 26  1  1
 27 28  1  0
 27 29  1  0
 29 30  1  0
 31 32  2  0
 32 22  1  0
 33 29  2  0
M  END
$$$$
