LYY.pdb
     RDKit          3D

 33 34  0  0  1  0  0  0  0  0999 V2000
    8.3506  -12.7910   19.3623 C   0  0  0  0  0  0  0  0  0  0  0  0
    8.2952  -13.6997   20.5636 C   0  0  1  0  0  0  0  0  0  0  0  0
    7.4706  -13.0505   21.6521 C   0  0  0  0  0  0  0  0  0  0  0  0
    7.7099  -15.0258   20.1426 C   0  0  0  0  0  0  0  0  0  0  0  0
    7.7202  -16.0476   21.2625 C   0  0  2  0  0  0  0  0  0  0  0  0
    7.2917  -15.3890   22.4734 N   0  0  0  0  0  0  0  0  0  0  0  0
    9.1180  -16.5020   21.4357 C   0  0  0  0  0  0  0  0  0  0  0  0
    9.6498  -17.3156   20.6391 O   0  0  0  0  0  0  0  0  0  0  0  0
   14.2177  -14.4610   17.3981 O   0  0  0  0  0  0  0  0  0  0  0  0
   13.7064  -14.6786   18.6820 C   0  0  0  0  0  0  0  0  0  0  0  0
   12.8557  -13.7739   19.2385 C   0  0  0  0  0  0  0  0  0  0  0  0
   12.3613  -14.0019   20.5004 C   0  0  0  0  0  0  0  0  0  0  0  0
   12.6918  -15.1209   21.2413 C   0  0  0  0  0  0  0  0  0  0  0  0
   12.1152  -15.2637   22.5715 C   0  0  0  0  0  0  0  0  0  0  0  0
   11.2506  -16.4577   22.7853 C   0  0  2  0  0  0  0  0  0  0  0  0
    9.8730  -16.0215   22.5070 N   0  0  0  0  0  0  0  0  0  0  0  0
   11.2314  -16.9283   24.1890 C   0  0  0  0  0  0  0  0  0  0  0  0
   12.3156  -16.9026   24.8286 O   0  0  0  0  0  0  0  0  0  0  0  0
   13.5566  -16.0129   20.6415 C   0  0  0  0  0  0  0  0  0  0  0  0
   14.0706  -15.8267   19.3922 C   0  0  0  0  0  0  0  0  0  0  0  0
    5.4890  -12.7022   24.8683 O   0  0  0  0  0  0  0  0  0  0  0  0
    6.5789  -13.4559   25.3126 C   0  0  0  0  0  0  0  0  0  0  0  0
    7.8655  -13.0907   24.9643 C   0  0  0  0  0  0  0  0  0  0  0  0
    8.9356  -13.8372   25.4047 C   0  0  0  0  0  0  0  0  0  0  0  0
    8.7931  -14.9628   26.1977 C   0  0  0  0  0  0  0  0  0  0  0  0
    9.9541  -15.7545   26.6595 C   0  0  0  0  0  0  0  0  0  0  0  0
    9.8640  -17.2205   26.2890 C   0  0  2  0  0  0  0  0  0  0  0  0
   10.0823  -17.4032   24.8598 N   0  0  0  0  0  0  0  0  0  0  0  0
    8.5763  -17.8149   26.6624 C   0  0  0  0  0  0  0  0  0  0  0  0
    7.6984  -18.3571   25.7528 O   0  0  0  0  0  0  0  0  0  0  0  0
    7.4868  -15.3091   26.5342 C   0  0  0  0  0  0  0  0  0  0  0  0
    6.4049  -14.5682   26.0988 C   0  0  0  0  0  0  0  0  0  0  0  0
    8.2352  -17.8404   27.8752 O   0  0  0  0  0  0  0  0  0  0  0  0
  2  1  1  6
  2  3  1  0
  4  2  1  0
  5  6  1  1
  5  4  1  0
  7  5  1  0
  8  7  2  0
  9 10  1  0
 10 11  2  0
 10 20  1  0
 11 12  1  0
 12 13  2  0
 13 14  1  0
 15 14  1  1
 15 16  1  0
 16  7  1  0
 17 15  1  0
 17 28  1  0
 18 17  2  0
 19 13  1  0
 20 19  2  0
 22 21  1  0
 23 22  2  0
 24 23  1  0
 25 24  2  0
 25 31  1  0
 26 25  1  0
 27 26  1  6
 27 28  1  0
 27 29  1  0
 29 30  1  0
 31 32  2  0
 32 22  1  0
 33 29  2  0
M  END
$$$$
