LYY.pdb
     RDKit          3D

 33 34  0  0  1  0  0  0  0  0999 V2000
    8.0026  -19.3554   16.3036 C   0  0  0  0  0  0  0  0  0  0  0  0
    8.3933  -19.5117   17.7510 C   0  0  1  0  0  0  0  0  0  0  0  0
    9.1325  -20.8175   17.9378 C   0  0  0  0  0  0  0  0  0  0  0  0
    9.2439  -18.3319   18.1543 C   0  0  0  0  0  0  0  0  0  0  0  0
    9.6934  -18.4064   19.6002 C   0  0  2  0  0  0  0  0  0  0  0  0
    8.5460  -18.7427   20.4090 N   0  0  0  0  0  0  0  0  0  0  0  0
   10.1710  -17.0599   19.9864 C   0  0  0  0  0  0  0  0  0  0  0  0
   11.1104  -16.4932   19.3736 O   0  0  0  0  0  0  0  0  0  0  0  0
    7.0625  -12.8867   16.2908 O   0  0  0  0  0  0  0  0  0  0  0  0
    7.4759  -13.2186   17.5854 C   0  0  0  0  0  0  0  0  0  0  0  0
    8.7449  -12.9371   17.9881 C   0  0  0  0  0  0  0  0  0  0  0  0
    9.1362  -13.2687   19.2632 C   0  0  0  0  0  0  0  0  0  0  0  0
    8.2909  -13.8832   20.1679 C   0  0  0  0  0  0  0  0  0  0  0  0
    8.8077  -14.1959   21.4936 C   0  0  0  0  0  0  0  0  0  0  0  0
   10.0097  -15.0746   21.5370 C   0  0  2  0  0  0  0  0  0  0  0  0
    9.5703  -16.3943   21.0564 N   0  0  0  0  0  0  0  0  0  0  0  0
   10.5181  -15.3114   22.9072 C   0  0  0  0  0  0  0  0  0  0  0  0
   11.7559  -15.4946   23.0474 O   0  0  0  0  0  0  0  0  0  0  0  0
    7.0138  -14.1513   19.7206 C   0  0  0  0  0  0  0  0  0  0  0  0
    6.5834  -13.8396   18.4647 C   0  0  0  0  0  0  0  0  0  0  0  0
   11.0620  -15.9910   31.7885 O   0  0  0  0  0  0  0  0  0  0  0  0
   10.6142  -15.7923   30.4795 C   0  0  0  0  0  0  0  0  0  0  0  0
   10.6322  -14.5275   29.9226 C   0  0  0  0  0  0  0  0  0  0  0  0
   10.1895  -14.3375   28.6326 C   0  0  0  0  0  0  0  0  0  0  0  0
    9.7147  -15.3682   27.8398 C   0  0  0  0  0  0  0  0  0  0  0  0
    9.2405  -15.1452   26.4566 C   0  0  0  0  0  0  0  0  0  0  0  0
   10.2522  -15.5506   25.4047 C   0  0  2  0  0  0  0  0  0  0  0  0
    9.7119  -15.3456   24.0668 N   0  0  0  0  0  0  0  0  0  0  0  0
   10.6793  -16.9464   25.5461 C   0  0  0  0  0  0  0  0  0  0  0  0
   11.8433  -17.3241   26.1744 O   0  0  0  0  0  0  0  0  0  0  0  0
    9.7070  -16.6322   28.4247 C   0  0  0  0  0  0  0  0  0  0  0  0
   10.1486  -16.8357   29.7179 C   0  0  0  0  0  0  0  0  0  0  0  0
    9.9575  -17.8651   25.0739 O   0  0  0  0  0  0  0  0  0  0  0  0
  2  1  1  6
  2  3  1  0
  4  2  1  0
  5  6  1  1
  5  4  1  0
  7  5  1  0
  8  7  2  0
  9 10  1  0
 10 11  2  0
 10 20  1  0
 11 12  1  0
 12 13  2  0
 13 14  1  0
 15 14  1  1
 15 16  1  0
 16  7  1  0
 17 15  1  0
 17 28  1  0
 18 17  2  0
 19 13  1  0
 20 19  2  0
 22 21  1  0
 23 22  2  0
 24 23  1  0
 25 24  2  0
 25 31  1  0
 26 25  1  0
 27 26  1  1
 27 28  1  0
 27 29  1  0
 29 30  1  0
 31 32  2  0
 32 22  1  0
 33 29  2  0
M  END
$$$$
