LYY.pdb
     RDKit          3D

 33 34  0  0  1  0  0  0  0  0999 V2000
   57.6420  -23.0953    6.1361 C   0  0  0  0  0  0  0  0  0  0  0  0
   59.0119  -22.5481    5.8265 C   0  0  1  0  0  0  0  0  0  0  0  0
   59.7243  -23.4777    4.8701 C   0  0  0  0  0  0  0  0  0  0  0  0
   58.8614  -21.1639    5.2437 C   0  0  0  0  0  0  0  0  0  0  0  0
   59.8670  -20.1817    5.8113 C   0  0  2  0  0  0  0  0  0  0  0  0
   60.1870  -20.5956    7.1566 N   0  0  0  0  0  0  0  0  0  0  0  0
   59.2113  -18.8558    5.8634 C   0  0  0  0  0  0  0  0  0  0  0  0
   58.6258  -18.4506    6.8990 O   0  0  0  0  0  0  0  0  0  0  0  0
   64.8331  -15.3013    8.4022 O   0  0  0  0  0  0  0  0  0  0  0  0
   64.0179  -16.0285    7.5281 C   0  0  0  0  0  0  0  0  0  0  0  0
   64.3514  -16.1312    6.2128 C   0  0  0  0  0  0  0  0  0  0  0  0
   63.5409  -16.8494    5.3666 C   0  0  0  0  0  0  0  0  0  0  0  0
   62.3875  -17.4803    5.7935 C   0  0  0  0  0  0  0  0  0  0  0  0
   61.5972  -18.2124    4.8128 C   0  0  0  0  0  0  0  0  0  0  0  0
   60.4763  -17.4606    4.1827 C   0  0  2  0  0  0  0  0  0  0  0  0
   59.2379  -18.0272    4.7404 N   0  0  0  0  0  0  0  0  0  0  0  0
   60.3736  -17.6703    2.7206 C   0  0  0  0  0  0  0  0  0  0  0  0
   60.8115  -18.7547    2.2539 O   0  0  0  0  0  0  0  0  0  0  0  0
   62.0852  -17.3518    7.1334 C   0  0  0  0  0  0  0  0  0  0  0  0
   62.8606  -16.6493    8.0080 C   0  0  0  0  0  0  0  0  0  0  0  0
   58.1153  -19.5899   -4.8614 O   0  0  0  0  0  0  0  0  0  0  0  0
   58.2515  -18.7769   -3.7328 C   0  0  0  0  0  0  0  0  0  0  0  0
   57.7166  -17.5026   -3.7246 C   0  0  0  0  0  0  0  0  0  0  0  0
   57.8540  -16.7059   -2.6099 C   0  0  0  0  0  0  0  0  0  0  0  0
   58.5150  -17.1189   -1.4659 C   0  0  0  0  0  0  0  0  0  0  0  0
   58.6554  -16.2483   -0.2784 C   0  0  0  0  0  0  0  0  0  0  0  0
   58.6209  -17.0110    1.0299 C   0  0  2  0  0  0  0  0  0  0  0  0
   59.8189  -16.7396    1.8141 N   0  0  0  0  0  0  0  0  0  0  0  0
   58.4888  -18.4581    0.8319 C   0  0  0  0  0  0  0  0  0  0  0  0
   59.5613  -19.3008    0.6534 O   0  0  0  0  0  0  0  0  0  0  0  0
   59.0446  -18.4064   -1.5001 C   0  0  0  0  0  0  0  0  0  0  0  0
   58.9132  -19.2155   -2.6123 C   0  0  0  0  0  0  0  0  0  0  0  0
   57.3413  -18.9787    0.8203 O   0  0  0  0  0  0  0  0  0  0  0  0
  2  1  1  6
  2  3  1  0
  4  2  1  0
  5  6  1  1
  5  4  1  0
  7  5  1  0
  8  7  2  0
  9 10  1  0
 10 11  2  0
 10 20  1  0
 11 12  1  0
 12 13  2  0
 13 14  1  0
 15 14  1  1
 15 16  1  0
 16  7  1  0
 17 15  1  0
 17 28  1  0
 18 17  2  0
 19 13  1  0
 20 19  2  0
 22 21  1  0
 23 22  2  0
 24 23  1  0
 25 24  2  0
 25 31  1  0
 26 25  1  0
 27 26  1  6
 27 28  1  0
 27 29  1  0
 29 30  1  0
 31 32  2  0
 32 22  1  0
 33 29  2  0
M  END
$$$$
