LYY.pdb
     RDKit          3D

 33 34  0  0  1  0  0  0  0  0999 V2000
    7.7346  -13.5978   18.8020 C   0  0  0  0  0  0  0  0  0  0  0  0
    8.3851  -14.4210   17.7198 C   0  0  1  0  0  0  0  0  0  0  0  0
    8.4702  -13.6083   16.4475 C   0  0  0  0  0  0  0  0  0  0  0  0
    9.7518  -14.8523   18.1933 C   0  0  0  0  0  0  0  0  0  0  0  0
    9.6877  -15.9818   19.2025 C   0  0  2  0  0  0  0  0  0  0  0  0
    8.3929  -16.6099   19.0899 N   0  0  0  0  0  0  0  0  0  0  0  0
    9.8108  -15.3808   20.5494 C   0  0  0  0  0  0  0  0  0  0  0  0
   10.8843  -14.8587   20.9423 O   0  0  0  0  0  0  0  0  0  0  0  0
    6.0591  -11.4161   27.5342 O   0  0  0  0  0  0  0  0  0  0  0  0
    6.3690  -12.2909   26.4873 C   0  0  0  0  0  0  0  0  0  0  0  0
    6.8595  -11.8037   25.3153 C   0  0  0  0  0  0  0  0  0  0  0  0
    7.1597  -12.6757   24.2963 C   0  0  0  0  0  0  0  0  0  0  0  0
    6.9842  -14.0422   24.4066 C   0  0  0  0  0  0  0  0  0  0  0  0
    7.3298  -14.8775   23.2642 C   0  0  0  0  0  0  0  0  0  0  0  0
    8.6995  -14.6925   22.7087 C   0  0  2  0  0  0  0  0  0  0  0  0
    8.7137  -15.3891   21.4125 N   0  0  0  0  0  0  0  0  0  0  0  0
    9.7556  -15.3490   23.5124 C   0  0  0  0  0  0  0  0  0  0  0  0
   10.8858  -14.7958   23.5552 O   0  0  0  0  0  0  0  0  0  0  0  0
    6.4850  -14.4954   25.6102 C   0  0  0  0  0  0  0  0  0  0  0  0
    6.1740  -13.6663   26.6473 C   0  0  0  0  0  0  0  0  0  0  0  0
   11.8522  -16.3143   31.7612 O   0  0  0  0  0  0  0  0  0  0  0  0
   11.2999  -16.1897   30.4834 C   0  0  0  0  0  0  0  0  0  0  0  0
   11.5240  -15.0484   29.7369 C   0  0  0  0  0  0  0  0  0  0  0  0
   10.9771  -14.9309   28.4786 C   0  0  0  0  0  0  0  0  0  0  0  0
   10.1946  -15.9168   27.9026 C   0  0  0  0  0  0  0  0  0  0  0  0
    9.6128  -15.7723   26.5503 C   0  0  0  0  0  0  0  0  0  0  0  0
   10.1577  -16.7752   25.5544 C   0  0  2  0  0  0  0  0  0  0  0  0
    9.5832  -16.5513   24.2339 N   0  0  0  0  0  0  0  0  0  0  0  0
    9.9094  -18.1618   25.9621 C   0  0  0  0  0  0  0  0  0  0  0  0
    8.6655  -18.7486   25.9393 O   0  0  0  0  0  0  0  0  0  0  0  0
    9.9840  -17.0561   28.6754 C   0  0  0  0  0  0  0  0  0  0  0  0
   10.5274  -17.1859   29.9390 C   0  0  0  0  0  0  0  0  0  0  0  0
   10.8720  -18.8719   26.3587 O   0  0  0  0  0  0  0  0  0  0  0  0
  2  1  1  1
  2  3  1  0
  4  2  1  0
  5  6  1  1
  5  4  1  0
  7  5  1  0
  8  7  2  0
  9 10  1  0
 10 11  2  0
 10 20  1  0
 11 12  1  0
 12 13  2  0
 13 14  1  0
 15 14  1  1
 15 16  1  0
 16  7  1  0
 17 15  1  0
 17 28  1  0
 18 17  2  0
 19 13  1  0
 20 19  2  0
 22 21  1  0
 23 22  2  0
 24 23  1  0
 25 24  2  0
 25 31  1  0
 26 25  1  0
 27 26  1  1
 27 28  1  0
 27 29  1  0
 29 30  1  0
 31 32  2  0
 32 22  1  0
 33 29  2  0
M  END
$$$$
