LYY.pdb
     RDKit          3D

 33 34  0  0  1  0  0  0  0  0999 V2000
    5.7885  -11.4672   24.8732 C   0  0  0  0  0  0  0  0  0  0  0  0
    6.5952  -12.6487   25.3477 C   0  0  1  0  0  0  0  0  0  0  0  0
    6.6219  -12.6694   26.8594 C   0  0  0  0  0  0  0  0  0  0  0  0
    5.9840  -13.9101   24.7878 C   0  0  0  0  0  0  0  0  0  0  0  0
    6.7921  -15.1474   25.1260 C   0  0  2  0  0  0  0  0  0  0  0  0
    7.8533  -14.7575   26.0235 N   0  0  0  0  0  0  0  0  0  0  0  0
    7.3908  -15.6442   23.8669 C   0  0  0  0  0  0  0  0  0  0  0  0
    6.8241  -16.5229   23.1697 O   0  0  0  0  0  0  0  0  0  0  0  0
    5.9873  -13.7160   17.0039 O   0  0  0  0  0  0  0  0  0  0  0  0
    6.8566  -13.9148   18.0818 C   0  0  0  0  0  0  0  0  0  0  0  0
    7.4340  -12.8470   18.6968 C   0  0  0  0  0  0  0  0  0  0  0  0
    8.2854  -13.0582   19.7548 C   0  0  0  0  0  0  0  0  0  0  0  0
    8.5876  -14.3204   20.2299 C   0  0  0  0  0  0  0  0  0  0  0  0
    9.5064  -14.4334   21.3547 C   0  0  0  0  0  0  0  0  0  0  0  0
    9.3182  -15.6186   22.2371 C   0  0  2  0  0  0  0  0  0  0  0  0
    8.6146  -15.1309   23.4341 N   0  0  0  0  0  0  0  0  0  0  0  0
   10.5892  -16.1874   22.7402 C   0  0  0  0  0  0  0  0  0  0  0  0
   11.6611  -15.6420   22.3675 O   0  0  0  0  0  0  0  0  0  0  0  0
    7.9821  -15.3755   19.5792 C   0  0  0  0  0  0  0  0  0  0  0  0
    7.1312  -15.2119   18.5262 C   0  0  0  0  0  0  0  0  0  0  0  0
   11.4853  -15.6457   31.2518 O   0  0  0  0  0  0  0  0  0  0  0  0
   11.1804  -15.7575   29.8924 C   0  0  0  0  0  0  0  0  0  0  0  0
   10.8673  -16.9888   29.3487 C   0  0  0  0  0  0  0  0  0  0  0  0
   10.5680  -17.0931   28.0086 C   0  0  0  0  0  0  0  0  0  0  0  0
   10.5624  -16.0062   27.1514 C   0  0  0  0  0  0  0  0  0  0  0  0
   10.2409  -16.1373   25.7136 C   0  0  0  0  0  0  0  0  0  0  0  0
   11.0784  -17.1827   25.0063 C   0  0  2  0  0  0  0  0  0  0  0  0
   10.6826  -17.2979   23.6085 N   0  0  0  0  0  0  0  0  0  0  0  0
   10.9883  -18.4996   25.6455 C   0  0  0  0  0  0  0  0  0  0  0  0
    9.8553  -19.2791   25.6213 O   0  0  0  0  0  0  0  0  0  0  0  0
   10.8813  -14.7775   27.7242 C   0  0  0  0  0  0  0  0  0  0  0  0
   11.1832  -14.6598   29.0673 C   0  0  0  0  0  0  0  0  0  0  0  0
   11.9899  -18.9610   26.2555 O   0  0  0  0  0  0  0  0  0  0  0  0
  2  1  1  1
  2  3  1  0
  4  2  1  0
  5  6  1  1
  5  4  1  0
  7  5  1  0
  8  7  2  0
  9 10  1  0
 10 11  2  0
 10 20  1  0
 11 12  1  0
 12 13  2  0
 13 14  1  0
 15 14  1  6
 15 16  1  0
 16  7  1  0
 17 15  1  0
 17 28  1  0
 18 17  2  0
 19 13  1  0
 20 19  2  0
 22 21  1  0
 23 22  2  0
 24 23  1  0
 25 24  2  0
 25 31  1  0
 26 25  1  0
 27 26  1  1
 27 28  1  0
 27 29  1  0
 29 30  1  0
 31 32  2  0
 32 22  1  0
 33 29  2  0
M  END
$$$$
