LYY.pdb
     RDKit          3D

 33 34  0  0  1  0  0  0  0  0999 V2000
    8.1501  -12.3762   20.1651 C   0  0  0  0  0  0  0  0  0  0  0  0
    7.7993  -13.8418   20.1333 C   0  0  1  0  0  0  0  0  0  0  0  0
    8.9375  -14.6216   19.5146 C   0  0  0  0  0  0  0  0  0  0  0  0
    7.5137  -14.3033   21.5418 C   0  0  0  0  0  0  0  0  0  0  0  0
    7.1863  -15.7817   21.6140 C   0  0  2  0  0  0  0  0  0  0  0  0
    5.9155  -15.9913   20.9623 N   0  0  0  0  0  0  0  0  0  0  0  0
    7.0531  -16.1373   23.0445 C   0  0  0  0  0  0  0  0  0  0  0  0
    6.3164  -15.4789   23.8212 O   0  0  0  0  0  0  0  0  0  0  0  0
    8.3730  -21.7140   29.9307 O   0  0  0  0  0  0  0  0  0  0  0  0
    8.2126  -21.0754   28.6964 C   0  0  0  0  0  0  0  0  0  0  0  0
    9.2727  -20.9481   27.8527 C   0  0  0  0  0  0  0  0  0  0  0  0
    9.0993  -20.3188   26.6433 C   0  0  0  0  0  0  0  0  0  0  0  0
    7.8833  -19.8016   26.2379 C   0  0  0  0  0  0  0  0  0  0  0  0
    7.8091  -19.1494   24.9374 C   0  0  0  0  0  0  0  0  0  0  0  0
    7.6692  -17.6665   24.9559 C   0  0  2  0  0  0  0  0  0  0  0  0
    7.7587  -17.2287   23.5538 N   0  0  0  0  0  0  0  0  0  0  0  0
    8.7820  -16.9776   25.6482 C   0  0  0  0  0  0  0  0  0  0  0  0
    9.8587  -16.8241   25.0139 O   0  0  0  0  0  0  0  0  0  0  0  0
    6.8346  -19.9511   27.1217 C   0  0  0  0  0  0  0  0  0  0  0  0
    6.9617  -20.5683   28.3310 C   0  0  0  0  0  0  0  0  0  0  0  0
    5.8039  -11.4840   24.7740 O   0  0  0  0  0  0  0  0  0  0  0  0
    6.6397  -12.2114   25.6258 C   0  0  0  0  0  0  0  0  0  0  0  0
    7.9674  -12.4082   25.2963 C   0  0  0  0  0  0  0  0  0  0  0  0
    8.7864  -13.1259   26.1392 C   0  0  0  0  0  0  0  0  0  0  0  0
    8.3445  -13.6766   27.3299 C   0  0  0  0  0  0  0  0  0  0  0  0
    9.2379  -14.4473   28.2220 C   0  0  0  0  0  0  0  0  0  0  0  0
    9.7904  -15.7015   27.5769 C   0  0  2  0  0  0  0  0  0  0  0  0
    8.7194  -16.4809   26.9693 N   0  0  0  0  0  0  0  0  0  0  0  0
   10.5238  -16.5442   28.5271 C   0  0  0  0  0  0  0  0  0  0  0  0
   10.1596  -17.8343   28.8357 O   0  0  0  0  0  0  0  0  0  0  0  0
    7.0031  -13.4640   27.6382 C   0  0  0  0  0  0  0  0  0  0  0  0
    6.1714  -12.7456   26.8009 C   0  0  0  0  0  0  0  0  0  0  0  0
   11.5444  -16.0821   29.1040 O   0  0  0  0  0  0  0  0  0  0  0  0
  2  1  1  1
  2  3  1  0
  4  2  1  0
  5  6  1  6
  5  4  1  0
  7  5  1  0
  8  7  2  0
  9 10  1  0
 10 11  2  0
 10 20  1  0
 11 12  1  0
 12 13  2  0
 13 14  1  0
 15 14  1  6
 15 16  1  0
 16  7  1  0
 17 15  1  0
 17 28  1  0
 18 17  2  0
 19 13  1  0
 20 19  2  0
 22 21  1  0
 23 22  2  0
 24 23  1  0
 25 24  2  0
 25 31  1  0
 26 25  1  0
 27 26  1  1
 27 28  1  0
 27 29  1  0
 29 30  1  0
 31 32  2  0
 32 22  1  0
 33 29  2  0
M  END
$$$$
