LYY.pdb
     RDKit          3D

 33 34  0  0  1  0  0  0  0  0999 V2000
    8.6197  -12.5109   18.6618 C   0  0  0  0  0  0  0  0  0  0  0  0
    8.5447  -13.5694   19.7322 C   0  0  1  0  0  0  0  0  0  0  0  0
    7.4450  -13.2234   20.7105 C   0  0  0  0  0  0  0  0  0  0  0  0
    8.3011  -14.9068   19.0762 C   0  0  0  0  0  0  0  0  0  0  0  0
    8.4469  -16.0644   20.0442 C   0  0  2  0  0  0  0  0  0  0  0  0
    7.8339  -15.6828   21.2940 N   0  0  0  0  0  0  0  0  0  0  0  0
    9.8946  -16.2759   20.2680 C   0  0  0  0  0  0  0  0  0  0  0  0
   10.5558  -17.0915   19.5773 O   0  0  0  0  0  0  0  0  0  0  0  0
   16.2586  -14.5265   16.7131 O   0  0  0  0  0  0  0  0  0  0  0  0
   15.3444  -14.4672   17.7705 C   0  0  0  0  0  0  0  0  0  0  0  0
   14.0212  -14.2769   17.5167 C   0  0  0  0  0  0  0  0  0  0  0  0
   13.1352  -14.2214   18.5659 C   0  0  0  0  0  0  0  0  0  0  0  0
   13.5296  -14.3510   19.8842 C   0  0  0  0  0  0  0  0  0  0  0  0
   12.5096  -14.2725   20.9213 C   0  0  0  0  0  0  0  0  0  0  0  0
   12.0116  -15.5733   21.4494 C   0  0  2  0  0  0  0  0  0  0  0  0
   10.5513  -15.5572   21.2683 N   0  0  0  0  0  0  0  0  0  0  0  0
   12.2192  -15.7368   22.9062 C   0  0  0  0  0  0  0  0  0  0  0  0
   13.1723  -15.1063   23.4349 O   0  0  0  0  0  0  0  0  0  0  0  0
   14.8789  -14.5424   20.0986 C   0  0  0  0  0  0  0  0  0  0  0  0
   15.7925  -14.6040   19.0880 C   0  0  0  0  0  0  0  0  0  0  0  0
    5.7965  -12.5040   27.4504 O   0  0  0  0  0  0  0  0  0  0  0  0
    6.6940  -13.1358   26.5851 C   0  0  0  0  0  0  0  0  0  0  0  0
    7.8785  -13.6567   27.0705 C   0  0  0  0  0  0  0  0  0  0  0  0
    8.7592  -14.2780   26.2135 C   0  0  0  0  0  0  0  0  0  0  0  0
    8.5202  -14.4144   24.8568 C   0  0  0  0  0  0  0  0  0  0  0  0
    9.4792  -15.0825   23.9503 C   0  0  0  0  0  0  0  0  0  0  0  0
   10.4361  -16.0102   24.6702 C   0  0  2  0  0  0  0  0  0  0  0  0
   11.4228  -16.5498   23.7433 N   0  0  0  0  0  0  0  0  0  0  0  0
    9.7461  -17.1164   25.3415 C   0  0  0  0  0  0  0  0  0  0  0  0
    9.1121  -18.1353   24.6691 O   0  0  0  0  0  0  0  0  0  0  0  0
    7.3201  -13.8810   24.3934 C   0  0  0  0  0  0  0  0  0  0  0  0
    6.4282  -13.2556   25.2433 C   0  0  0  0  0  0  0  0  0  0  0  0
    9.7192  -17.1555   26.6008 O   0  0  0  0  0  0  0  0  0  0  0  0
  2  1  1  6
  2  3  1  0
  4  2  1  0
  5  6  1  1
  5  4  1  0
  7  5  1  0
  8  7  2  0
  9 10  1  0
 10 11  2  0
 10 20  1  0
 11 12  1  0
 12 13  2  0
 13 14  1  0
 15 14  1  1
 15 16  1  0
 16  7  1  0
 17 15  1  0
 17 28  1  0
 18 17  2  0
 19 13  1  0
 20 19  2  0
 22 21  1  0
 23 22  2  0
 24 23  1  0
 25 24  2  0
 25 31  1  0
 26 25  1  0
 27 26  1  6
 27 28  1  0
 27 29  1  0
 29 30  1  0
 31 32  2  0
 32 22  1  0
 33 29  2  0
M  END
$$$$
