LYY.pdb
     RDKit          3D

 33 34  0  0  1  0  0  0  0  0999 V2000
    6.9431  -12.8466   21.0272 C   0  0  0  0  0  0  0  0  0  0  0  0
    7.7002  -13.4715   19.8835 C   0  0  1  0  0  0  0  0  0  0  0  0
    8.0981  -12.3998   18.8939 C   0  0  0  0  0  0  0  0  0  0  0  0
    8.9072  -14.1904   20.4356 C   0  0  0  0  0  0  0  0  0  0  0  0
    9.7399  -14.8456   19.3513 C   0  0  2  0  0  0  0  0  0  0  0  0
    8.8907  -15.7601   18.6258 N   0  0  0  0  0  0  0  0  0  0  0  0
   10.8108  -15.6178   20.0201 C   0  0  0  0  0  0  0  0  0  0  0  0
   10.6484  -16.8192   20.3511 O   0  0  0  0  0  0  0  0  0  0  0  0
   15.9155  -15.8584   15.1522 O   0  0  0  0  0  0  0  0  0  0  0  0
   15.5430  -15.6702   16.4875 C   0  0  0  0  0  0  0  0  0  0  0  0
   15.0198  -14.4793   16.8871 C   0  0  0  0  0  0  0  0  0  0  0  0
   14.6582  -14.3098   18.2022 C   0  0  0  0  0  0  0  0  0  0  0  0
   14.8030  -15.3045   19.1509 C   0  0  0  0  0  0  0  0  0  0  0  0
   14.3921  -15.0191   20.5191 C   0  0  0  0  0  0  0  0  0  0  0  0
   13.1440  -15.6884   20.9807 C   0  0  2  0  0  0  0  0  0  0  0  0
   12.0352  -15.0062   20.2947 N   0  0  0  0  0  0  0  0  0  0  0  0
   12.8763  -15.5055   22.4254 C   0  0  0  0  0  0  0  0  0  0  0  0
   13.1591  -14.3895   22.9352 O   0  0  0  0  0  0  0  0  0  0  0  0
   15.3370  -16.4958   18.7052 C   0  0  0  0  0  0  0  0  0  0  0  0
   15.7091  -16.7074   17.4105 C   0  0  0  0  0  0  0  0  0  0  0  0
   10.0418  -15.1639   30.6782 O   0  0  0  0  0  0  0  0  0  0  0  0
   10.2309  -15.3347   29.3040 C   0  0  0  0  0  0  0  0  0  0  0  0
   10.5908  -14.2605   28.5124 C   0  0  0  0  0  0  0  0  0  0  0  0
   10.7755  -14.4346   27.1590 C   0  0  0  0  0  0  0  0  0  0  0  0
   10.6171  -15.6567   26.5283 C   0  0  0  0  0  0  0  0  0  0  0  0
   10.8170  -15.8247   25.0724 C   0  0  0  0  0  0  0  0  0  0  0  0
   12.1997  -16.3279   24.7126 C   0  0  2  0  0  0  0  0  0  0  0  0
   12.3259  -16.4949   23.2704 N   0  0  0  0  0  0  0  0  0  0  0  0
   12.5263  -17.5936   25.3774 C   0  0  0  0  0  0  0  0  0  0  0  0
   12.4268  -18.8209   24.7642 O   0  0  0  0  0  0  0  0  0  0  0  0
   10.2541  -16.7224   27.3482 C   0  0  0  0  0  0  0  0  0  0  0  0
   10.0661  -16.5605   28.7074 C   0  0  0  0  0  0  0  0  0  0  0  0
   12.9202  -17.5800   26.5744 O   0  0  0  0  0  0  0  0  0  0  0  0
  2  1  1  1
  2  3  1  0
  4  2  1  0
  5  6  1  1
  5  4  1  0
  7  5  1  0
  8  7  2  0
  9 10  1  0
 10 11  2  0
 10 20  1  0
 11 12  1  0
 12 13  2  0
 13 14  1  0
 15 14  1  6
 15 16  1  0
 16  7  1  0
 17 15  1  0
 17 28  1  0
 18 17  2  0
 19 13  1  0
 20 19  2  0
 22 21  1  0
 23 22  2  0
 24 23  1  0
 25 24  2  0
 25 31  1  0
 26 25  1  0
 27 26  1  6
 27 28  1  0
 27 29  1  0
 29 30  1  0
 31 32  2  0
 32 22  1  0
 33 29  2  0
M  END
$$$$
