LYY.pdb
     RDKit          3D

 33 34  0  0  1  0  0  0  0  0999 V2000
    9.7824  -12.8686   19.9649 C   0  0  0  0  0  0  0  0  0  0  0  0
    8.6899  -13.2447   20.9329 C   0  0  1  0  0  0  0  0  0  0  0  0
    7.7800  -12.0578   21.1557 C   0  0  0  0  0  0  0  0  0  0  0  0
    7.9326  -14.4255   20.3753 C   0  0  0  0  0  0  0  0  0  0  0  0
    8.7709  -15.6880   20.3365 C   0  0  2  0  0  0  0  0  0  0  0  0
    8.1858  -16.5844   19.3681 N   0  0  0  0  0  0  0  0  0  0  0  0
    8.6919  -16.3144   21.6751 C   0  0  0  0  0  0  0  0  0  0  0  0
    7.5959  -16.6861   22.1650 O   0  0  0  0  0  0  0  0  0  0  0  0
    8.6520  -22.5968   20.3668 O   0  0  0  0  0  0  0  0  0  0  0  0
    9.1968  -21.5507   21.1192 C   0  0  0  0  0  0  0  0  0  0  0  0
    8.8564  -21.4046   22.4286 C   0  0  0  0  0  0  0  0  0  0  0  0
    9.4004  -20.3723   23.1548 C   0  0  0  0  0  0  0  0  0  0  0  0
   10.2881  -19.4630   22.6110 C   0  0  0  0  0  0  0  0  0  0  0  0
   10.8024  -18.4029   23.4677 C   0  0  0  0  0  0  0  0  0  0  0  0
    9.8945  -17.2432   23.6907 C   0  0  2  0  0  0  0  0  0  0  0  0
    9.8574  -16.5014   22.4203 N   0  0  0  0  0  0  0  0  0  0  0  0
   10.4065  -16.2766   24.6884 C   0  0  0  0  0  0  0  0  0  0  0  0
   11.4718  -15.6636   24.4148 O   0  0  0  0  0  0  0  0  0  0  0  0
   10.6069  -19.6461   21.2814 C   0  0  0  0  0  0  0  0  0  0  0  0
   10.0914  -20.6560   20.5238 C   0  0  0  0  0  0  0  0  0  0  0  0
    5.0506  -12.2628   25.0185 O   0  0  0  0  0  0  0  0  0  0  0  0
    6.1205  -12.8339   25.7132 C   0  0  0  0  0  0  0  0  0  0  0  0
    6.0707  -12.9561   27.0889 C   0  0  0  0  0  0  0  0  0  0  0  0
    7.1278  -13.5194   27.7683 C   0  0  0  0  0  0  0  0  0  0  0  0
    8.2684  -13.9829   27.1356 C   0  0  0  0  0  0  0  0  0  0  0  0
    9.3958  -14.5829   27.8819 C   0  0  0  0  0  0  0  0  0  0  0  0
   10.4298  -15.2311   26.9845 C   0  0  2  0  0  0  0  0  0  0  0  0
    9.7834  -15.9943   25.9245 N   0  0  0  0  0  0  0  0  0  0  0  0
   11.3438  -16.1074   27.7243 C   0  0  0  0  0  0  0  0  0  0  0  0
   12.2209  -15.6541   28.6821 O   0  0  0  0  0  0  0  0  0  0  0  0
    8.2934  -13.8479   25.7497 C   0  0  0  0  0  0  0  0  0  0  0  0
    7.2391  -13.2847   25.0567 C   0  0  0  0  0  0  0  0  0  0  0  0
   11.3433  -17.3448   27.4856 O   0  0  0  0  0  0  0  0  0  0  0  0
  2  1  1  6
  2  3  1  0
  4  2  1  0
  5  6  1  6
  5  4  1  0
  7  5  1  0
  8  7  2  0
  9 10  1  0
 10 11  2  0
 10 20  1  0
 11 12  1  0
 12 13  2  0
 13 14  1  0
 15 14  1  6
 15 16  1  0
 16  7  1  0
 17 15  1  0
 17 28  1  0
 18 17  2  0
 19 13  1  0
 20 19  2  0
 22 21  1  0
 23 22  2  0
 24 23  1  0
 25 24  2  0
 25 31  1  0
 26 25  1  0
 27 26  1  1
 27 28  1  0
 27 29  1  0
 29 30  1  0
 31 32  2  0
 32 22  1  0
 33 29  2  0
M  END
$$$$
