LYY.pdb
     RDKit          3D

 33 34  0  0  1  0  0  0  0  0999 V2000
    2.0231  -18.5542   20.7554 C   0  0  0  0  0  0  0  0  0  0  0  0
    3.0292  -18.9784   21.7945 C   0  0  1  0  0  0  0  0  0  0  0  0
    2.9188  -20.4682   22.0278 C   0  0  0  0  0  0  0  0  0  0  0  0
    4.4093  -18.5935   21.3196 C   0  0  0  0  0  0  0  0  0  0  0  0
    5.4506  -18.6935   22.4168 C   0  0  2  0  0  0  0  0  0  0  0  0
    4.8886  -18.1284   23.6203 N   0  0  0  0  0  0  0  0  0  0  0  0
    6.6117  -17.8747   22.0025 C   0  0  0  0  0  0  0  0  0  0  0  0
    7.2919  -18.1626   20.9857 O   0  0  0  0  0  0  0  0  0  0  0  0
    8.1334  -12.8693   16.7086 O   0  0  0  0  0  0  0  0  0  0  0  0
    7.9656  -13.2647   18.0400 C   0  0  0  0  0  0  0  0  0  0  0  0
    7.4998  -14.5107   18.3268 C   0  0  0  0  0  0  0  0  0  0  0  0
    7.3408  -14.8847   19.6397 C   0  0  0  0  0  0  0  0  0  0  0  0
    7.6349  -14.0441   20.6968 C   0  0  0  0  0  0  0  0  0  0  0  0
    7.4259  -14.5383   22.0511 C   0  0  0  0  0  0  0  0  0  0  0  0
    8.0639  -15.8442   22.3770 C   0  0  2  0  0  0  0  0  0  0  0  0
    6.9690  -16.7529   22.7527 N   0  0  0  0  0  0  0  0  0  0  0  0
    8.9462  -15.7896   23.5648 C   0  0  0  0  0  0  0  0  0  0  0  0
    9.9850  -15.0821   23.4887 O   0  0  0  0  0  0  0  0  0  0  0  0
    8.1042  -12.7903   20.3634 C   0  0  0  0  0  0  0  0  0  0  0  0
    8.2773  -12.3778   19.0752 C   0  0  0  0  0  0  0  0  0  0  0  0
    5.3400  -11.4010   26.3174 O   0  0  0  0  0  0  0  0  0  0  0  0
    6.1458  -12.5242   26.5236 C   0  0  0  0  0  0  0  0  0  0  0  0
    7.4524  -12.3744   26.9483 C   0  0  0  0  0  0  0  0  0  0  0  0
    8.2419  -13.4845   27.1496 C   0  0  0  0  0  0  0  0  0  0  0  0
    7.7901  -14.7770   26.9456 C   0  0  0  0  0  0  0  0  0  0  0  0
    8.6533  -15.9580   27.1643 C   0  0  0  0  0  0  0  0  0  0  0  0
    9.5209  -16.2944   25.9690 C   0  0  2  0  0  0  0  0  0  0  0  0
    8.7036  -16.4751   24.7760 N   0  0  0  0  0  0  0  0  0  0  0  0
   10.3333  -17.4959   26.1863 C   0  0  0  0  0  0  0  0  0  0  0  0
   11.2411  -17.6231   27.2119 O   0  0  0  0  0  0  0  0  0  0  0  0
    6.4705  -14.9002   26.5178 C   0  0  0  0  0  0  0  0  0  0  0  0
    5.6683  -13.7942   26.3124 C   0  0  0  0  0  0  0  0  0  0  0  0
   10.2101  -18.4759   25.4037 O   0  0  0  0  0  0  0  0  0  0  0  0
  2  1  1  6
  2  3  1  0
  4  2  1  0
  5  6  1  1
  5  4  1  0
  7  5  1  0
  8  7  2  0
  9 10  1  0
 10 11  2  0
 10 20  1  0
 11 12  1  0
 12 13  2  0
 13 14  1  0
 15 14  1  1
 15 16  1  0
 16  7  1  0
 17 15  1  0
 17 28  1  0
 18 17  2  0
 19 13  1  0
 20 19  2  0
 22 21  1  0
 23 22  2  0
 24 23  1  0
 25 24  2  0
 25 31  1  0
 26 25  1  0
 27 26  1  1
 27 28  1  0
 27 29  1  0
 29 30  1  0
 31 32  2  0
 32 22  1  0
 33 29  2  0
M  END
$$$$
