DTG.pdb
     RDKit          3D

 20 19  0  0  1  0  0  0  0  0999 V2000
   18.2585  -11.6122  -17.9490 N   0  0  0  0  0  0  0  0  0  0  0  0
   18.7776  -11.0721  -16.7313 C   0  0  1  0  0  0  0  0  0  0  0  0
   19.5491  -12.1519  -15.9996 C   0  0  0  0  0  0  0  0  0  0  0  0
   18.6115  -13.1195  -15.3760 C   0  0  0  0  0  0  0  0  0  0  0  0
   17.6657  -12.6857  -14.6704 O   0  0  0  0  0  0  0  0  0  0  0  0
   19.6102   -9.8622  -16.9496 C   0  0  0  0  0  0  0  0  0  0  0  0
   20.5564   -9.9031  -17.7538 O   0  0  0  0  0  0  0  0  0  0  0  0
   18.7270  -14.4860  -15.5334 O   0  0  0  0  0  0  0  0  0  0  0  0
   19.0919   -6.8147  -18.5271 C   0  0  0  0  0  0  0  0  0  0  0  0
   19.4690   -6.3461  -17.1378 C   0  0  1  0  0  0  0  0  0  0  0  0
   18.3784   -5.8363  -16.4653 O   0  0  0  0  0  0  0  0  0  0  0  0
   20.1660   -7.4652  -16.4311 C   0  0  2  0  0  0  0  0  0  0  0  0
   19.3623   -8.6406  -16.2634 N   0  0  0  0  0  0  0  0  0  0  0  0
   20.8186   -7.0335  -15.1642 C   0  0  0  0  0  0  0  0  0  0  0  0
   20.2972   -7.2525  -14.0368 O   0  0  0  0  0  0  0  0  0  0  0  0
   22.0640   -6.3510  -15.1461 N   0  0  0  0  0  0  0  0  0  0  0  0
   22.7325   -5.9751  -13.9161 C   0  0  0  0  0  0  0  0  0  0  0  0
   22.1331   -4.7659  -13.3470 C   0  0  0  0  0  0  0  0  0  0  0  0
   20.9900   -4.2394  -13.9271 O   0  0  0  0  0  0  0  0  0  0  0  0
   22.6165   -4.1837  -12.3486 O   0  0  0  0  0  0  0  0  0  0  0  0
  2  1  1  6
  3  2  1  0
  4  3  1  0
  4  5  2  0
  6  2  1  0
  7  6  2  0
  8  4  1  0
 10  9  1  6
 10 12  1  0
 11 10  1  0
 12 13  1  1
 13  6  1  0
 14 15  2  0
 14 12  1  0
 16 14  1  0
 17 18  1  0
 17 16  1  0
 18 19  1  0
 20 18  2  0
M  END
$$$$
