DTG.pdb
     RDKit          3D

 20 19  0  0  1  0  0  0  0  0999 V2000
   17.5111   -3.5592  -15.3936 N   0  0  0  0  0  0  0  0  0  0  0  0
   17.9786   -4.8936  -15.6056 C   0  0  1  0  0  0  0  0  0  0  0  0
   17.2399   -5.4960  -16.7837 C   0  0  0  0  0  0  0  0  0  0  0  0
   15.9445   -6.0688  -16.3386 C   0  0  0  0  0  0  0  0  0  0  0  0
   15.1487   -5.3461  -15.6867 O   0  0  0  0  0  0  0  0  0  0  0  0
   19.4499   -4.9626  -15.7936 C   0  0  0  0  0  0  0  0  0  0  0  0
   19.9824   -4.3286  -16.7200 O   0  0  0  0  0  0  0  0  0  0  0  0
   15.5656   -7.3688  -16.6072 O   0  0  0  0  0  0  0  0  0  0  0  0
   22.1528   -3.5162  -14.6972 C   0  0  0  0  0  0  0  0  0  0  0  0
   22.5219   -4.9343  -14.3166 C   0  0  1  0  0  0  0  0  0  0  0  0
   22.4294   -5.1302  -12.9548 O   0  0  0  0  0  0  0  0  0  0  0  0
   21.6985   -5.8764  -15.1363 C   0  0  2  0  0  0  0  0  0  0  0  0
   20.2849   -5.7380  -14.9413 N   0  0  0  0  0  0  0  0  0  0  0  0
   22.1547   -7.2897  -15.0279 C   0  0  0  0  0  0  0  0  0  0  0  0
   21.6538   -8.0902  -14.1917 O   0  0  0  0  0  0  0  0  0  0  0  0
   23.1783   -7.8226  -15.8558 N   0  0  0  0  0  0  0  0  0  0  0  0
   23.6722   -9.1781  -15.7151 C   0  0  0  0  0  0  0  0  0  0  0  0
   22.8538  -10.1130  -16.4907 C   0  0  0  0  0  0  0  0  0  0  0  0
   23.4413  -10.8385  -17.5147 O   0  0  0  0  0  0  0  0  0  0  0  0
   21.6338  -10.2844  -16.2634 O   0  0  0  0  0  0  0  0  0  0  0  0
  2  1  1  6
  3  2  1  0
  4  3  1  0
  4  5  2  0
  6  2  1  0
  7  6  2  0
  8  4  1  0
 10  9  1  1
 10 12  1  0
 11 10  1  0
 12 13  1  1
 13  6  1  0
 14 15  2  0
 14 12  1  0
 16 14  1  0
 17 18  1  0
 17 16  1  0
 18 19  1  0
 20 18  2  0
M  END
$$$$
