DTG.pdb
     RDKit          3D

 20 19  0  0  1  0  0  0  0  0999 V2000
   17.8623  -12.3971  -15.0452 N   0  0  0  0  0  0  0  0  0  0  0  0
   18.7800  -12.4323  -16.1410 C   0  0  1  0  0  0  0  0  0  0  0  0
   18.0957  -13.0564  -17.3404 C   0  0  0  0  0  0  0  0  0  0  0  0
   17.4675  -14.3464  -16.9592 C   0  0  0  0  0  0  0  0  0  0  0  0
   18.1538  -15.2022  -16.3449 O   0  0  0  0  0  0  0  0  0  0  0  0
   19.3352  -11.0943  -16.4671 C   0  0  0  0  0  0  0  0  0  0  0  0
   20.1760  -10.9815  -17.3749 O   0  0  0  0  0  0  0  0  0  0  0  0
   16.1539  -14.6571  -17.2481 O   0  0  0  0  0  0  0  0  0  0  0  0
   17.9202   -8.1981  -17.9094 C   0  0  0  0  0  0  0  0  0  0  0  0
   18.4433   -7.6581  -16.5953 C   0  0  1  0  0  0  0  0  0  0  0  0
   17.4138   -7.3672  -15.7251 O   0  0  0  0  0  0  0  0  0  0  0  0
   19.4581   -8.6163  -16.0575 C   0  0  2  0  0  0  0  0  0  0  0  0
   18.9356   -9.9201  -15.7698 N   0  0  0  0  0  0  0  0  0  0  0  0
   20.2442   -8.0530  -14.9251 C   0  0  0  0  0  0  0  0  0  0  0  0
   20.3039   -8.6271  -13.8036 O   0  0  0  0  0  0  0  0  0  0  0  0
   20.9729   -6.8391  -15.0366 N   0  0  0  0  0  0  0  0  0  0  0  0
   21.7808   -6.3092  -13.9560 C   0  0  0  0  0  0  0  0  0  0  0  0
   22.4158   -5.0497  -14.3507 C   0  0  0  0  0  0  0  0  0  0  0  0
   23.0616   -4.2872  -13.3907 O   0  0  0  0  0  0  0  0  0  0  0  0
   22.3983   -4.6308  -15.5312 O   0  0  0  0  0  0  0  0  0  0  0  0
  2  1  1  1
  3  2  1  0
  4  3  1  0
  4  5  2  0
  6  2  1  0
  7  6  2  0
  8  4  1  0
 10  9  1  6
 10 12  1  0
 11 10  1  0
 12 13  1  1
 13  6  1  0
 14 15  2  0
 14 12  1  0
 16 14  1  0
 17 18  1  0
 17 16  1  0
 18 19  1  0
 20 18  2  0
M  END
$$$$
