DTG.pdb
     RDKit          3D

 20 19  0  0  1  0  0  0  0  0999 V2000
   20.5205   -7.0275  -14.0764 N   0  0  0  0  0  0  0  0  0  0  0  0
   21.4846   -6.8195  -15.1114 C   0  0  1  0  0  0  0  0  0  0  0  0
   22.6866   -6.1014  -14.5318 C   0  0  0  0  0  0  0  0  0  0  0  0
   22.2554   -4.8734  -13.8174 C   0  0  0  0  0  0  0  0  0  0  0  0
   21.6764   -3.9627  -14.4625 O   0  0  0  0  0  0  0  0  0  0  0  0
   21.8792   -8.0804  -15.7892 C   0  0  0  0  0  0  0  0  0  0  0  0
   22.6539   -8.0409  -16.7598 O   0  0  0  0  0  0  0  0  0  0  0  0
   22.4603   -4.6789  -12.4662 O   0  0  0  0  0  0  0  0  0  0  0  0
   23.9635  -10.8565  -15.0983 C   0  0  0  0  0  0  0  0  0  0  0  0
   22.5953  -11.4915  -15.2276 C   0  0  1  0  0  0  0  0  0  0  0  0
   22.0833  -11.8393  -13.9953 O   0  0  0  0  0  0  0  0  0  0  0  0
   21.7209  -10.5786  -16.0274 C   0  0  2  0  0  0  0  0  0  0  0  0
   21.3974   -9.3497  -15.3635 N   0  0  0  0  0  0  0  0  0  0  0  0
   20.5194  -11.2635  -16.5795 C   0  0  0  0  0  0  0  0  0  0  0  0
   20.6128  -12.2716  -17.3316 O   0  0  0  0  0  0  0  0  0  0  0  0
   19.1985  -10.8260  -16.2950 N   0  0  0  0  0  0  0  0  0  0  0  0
   18.0252  -11.4553  -16.8681 C   0  0  0  0  0  0  0  0  0  0  0  0
   17.3142  -10.5256  -17.7488 C   0  0  0  0  0  0  0  0  0  0  0  0
   16.0686  -10.8793  -18.2423 O   0  0  0  0  0  0  0  0  0  0  0  0
   17.7911   -9.4145  -18.0763 O   0  0  0  0  0  0  0  0  0  0  0  0
  2  1  1  1
  3  2  1  0
  4  3  1  0
  4  5  2  0
  6  2  1  0
  7  6  2  0
  8  4  1  0
 10  9  1  1
 10 12  1  0
 11 10  1  0
 12 13  1  1
 13  6  1  0
 14 15  2  0
 14 12  1  0
 16 14  1  0
 17 18  1  0
 17 16  1  0
 18 19  1  0
 20 18  2  0
M  END
$$$$
