DTG.pdb
     RDKit          3D

 20 19  0  0  1  0  0  0  0  0999 V2000
   22.5841  -10.2258  -16.9616 N   0  0  0  0  0  0  0  0  0  0  0  0
   22.2296   -9.1324  -16.1115 C   0  0  1  0  0  0  0  0  0  0  0  0
   23.4449   -8.2511  -15.9050 C   0  0  0  0  0  0  0  0  0  0  0  0
   23.8126   -7.5779  -17.1761 C   0  0  0  0  0  0  0  0  0  0  0  0
   24.1314   -8.2799  -18.1692 O   0  0  0  0  0  0  0  0  0  0  0  0
   21.0755   -8.3545  -16.6290 C   0  0  0  0  0  0  0  0  0  0  0  0
   20.9107   -8.2400  -17.8551 O   0  0  0  0  0  0  0  0  0  0  0  0
   23.8223   -6.2055  -17.3243 O   0  0  0  0  0  0  0  0  0  0  0  0
   17.7442   -9.0510  -16.8253 C   0  0  0  0  0  0  0  0  0  0  0  0
   17.6946   -7.7682  -16.0227 C   0  0  1  0  0  0  0  0  0  0  0  0
   17.3826   -8.0126  -14.7019 O   0  0  0  0  0  0  0  0  0  0  0  0
   18.9773   -7.0273  -16.2303 C   0  0  2  0  0  0  0  0  0  0  0  0
   20.1381   -7.7264  -15.7622 N   0  0  0  0  0  0  0  0  0  0  0  0
   18.9205   -5.6219  -15.7412 C   0  0  0  0  0  0  0  0  0  0  0  0
   19.6455   -5.2159  -14.7923 O   0  0  0  0  0  0  0  0  0  0  0  0
   18.0501   -4.6546  -16.3104 N   0  0  0  0  0  0  0  0  0  0  0  0
   17.9657   -3.2931  -15.8202 C   0  0  0  0  0  0  0  0  0  0  0  0
   17.1914   -3.2346  -14.5783 C   0  0  0  0  0  0  0  0  0  0  0  0
   16.9762   -2.0073  -13.9719 O   0  0  0  0  0  0  0  0  0  0  0  0
   16.7121   -4.2581  -14.0379 O   0  0  0  0  0  0  0  0  0  0  0  0
  2  1  1  6
  3  2  1  0
  4  3  1  0
  4  5  2  0
  6  2  1  0
  7  6  2  0
  8  4  1  0
 10  9  1  6
 10 12  1  0
 11 10  1  0
 12 13  1  1
 13  6  1  0
 14 15  2  0
 14 12  1  0
 16 14  1  0
 17 18  1  0
 17 16  1  0
 18 19  1  0
 20 18  2  0
M  END
$$$$
