DTG.pdb
     RDKit          3D

 20 19  0  0  1  0  0  0  0  0999 V2000
   12.7672  -10.0212  -10.3785 N   0  0  0  0  0  0  0  0  0  0  0  0
   14.1870  -10.0700  -10.5395 C   0  0  1  0  0  0  0  0  0  0  0  0
   14.5256  -11.0305  -11.6617 C   0  0  0  0  0  0  0  0  0  0  0  0
   14.0517  -12.3973  -11.3278 C   0  0  0  0  0  0  0  0  0  0  0  0
   14.2270  -12.8373  -10.1632 O   0  0  0  0  0  0  0  0  0  0  0  0
   14.7842   -8.7305  -10.7716 C   0  0  0  0  0  0  0  0  0  0  0  0
   14.3174   -7.9935  -11.6563 O   0  0  0  0  0  0  0  0  0  0  0  0
   13.4215  -13.2184  -12.2413 O   0  0  0  0  0  0  0  0  0  0  0  0
   16.0823   -6.5629   -7.7872 C   0  0  0  0  0  0  0  0  0  0  0  0
   15.9740   -5.9454   -9.1652 C   0  0  1  0  0  0  0  0  0  0  0  0
   16.6152   -4.7260   -9.2222 O   0  0  0  0  0  0  0  0  0  0  0  0
   16.4492   -6.9439  -10.1726 C   0  0  2  0  0  0  0  0  0  0  0  0
   15.8861   -8.2522  -10.0089 N   0  0  0  0  0  0  0  0  0  0  0  0
   17.9321   -6.9724  -10.3054 C   0  0  0  0  0  0  0  0  0  0  0  0
   18.6645   -7.5798   -9.4774 O   0  0  0  0  0  0  0  0  0  0  0  0
   18.6117   -6.3202  -11.3684 N   0  0  0  0  0  0  0  0  0  0  0  0
   20.0499   -6.3877  -11.5358 C   0  0  0  0  0  0  0  0  0  0  0  0
   20.4675   -5.6688  -12.7417 C   0  0  0  0  0  0  0  0  0  0  0  0
   21.8179   -5.5644  -13.0342 O   0  0  0  0  0  0  0  0  0  0  0  0
   19.6457   -5.1403  -13.5258 O   0  0  0  0  0  0  0  0  0  0  0  0
  2  1  1  6
  3  2  1  0
  4  3  1  0
  4  5  2  0
  6  2  1  0
  7  6  2  0
  8  4  1  0
 10  9  1  1
 10 12  1  0
 11 10  1  0
 12 13  1  1
 13  6  1  0
 14 15  2  0
 14 12  1  0
 16 14  1  0
 17 18  1  0
 17 16  1  0
 18 19  1  0
 20 18  2  0
M  END
$$$$
