DTG.pdb
     RDKit          3D

 20 19  0  0  1  0  0  0  0  0999 V2000
   16.7194  -11.2799  -14.9580 N   0  0  0  0  0  0  0  0  0  0  0  0
   17.2910   -9.9858  -15.1649 C   0  0  1  0  0  0  0  0  0  0  0  0
   16.4442   -8.9505  -14.4524 C   0  0  0  0  0  0  0  0  0  0  0  0
   15.0524   -8.9829  -14.9681 C   0  0  0  0  0  0  0  0  0  0  0  0
   14.8616   -9.1137  -16.2039 O   0  0  0  0  0  0  0  0  0  0  0  0
   18.7119   -9.9120  -14.7399 C   0  0  0  0  0  0  0  0  0  0  0  0
   19.0708  -10.4744  -13.6918 O   0  0  0  0  0  0  0  0  0  0  0  0
   13.9453   -8.8754  -14.1506 O   0  0  0  0  0  0  0  0  0  0  0  0
   23.3797   -9.9045  -15.6094 C   0  0  0  0  0  0  0  0  0  0  0  0
   21.9402  -10.0283  -16.0618 C   0  0  1  0  0  0  0  0  0  0  0  0
   21.5541  -11.3487  -16.1566 O   0  0  0  0  0  0  0  0  0  0  0  0
   21.0851   -9.1951  -15.1607 C   0  0  2  0  0  0  0  0  0  0  0  0
   19.6916   -9.2118  -15.4979 N   0  0  0  0  0  0  0  0  0  0  0  0
   21.6117   -7.8146  -14.9753 C   0  0  0  0  0  0  0  0  0  0  0  0
   22.8119   -7.5957  -14.6555 O   0  0  0  0  0  0  0  0  0  0  0  0
   20.7986   -6.6627  -15.1462 N   0  0  0  0  0  0  0  0  0  0  0  0
   21.2898   -5.3177  -14.9211 C   0  0  0  0  0  0  0  0  0  0  0  0
   21.3341   -5.0130  -13.4891 C   0  0  0  0  0  0  0  0  0  0  0  0
   21.6684   -3.7322  -13.0795 O   0  0  0  0  0  0  0  0  0  0  0  0
   21.0799   -5.8713  -12.6126 O   0  0  0  0  0  0  0  0  0  0  0  0
  2  1  1  1
  3  2  1  0
  4  3  1  0
  4  5  2  0
  6  2  1  0
  7  6  2  0
  8  4  1  0
 10  9  1  1
 10 12  1  0
 11 10  1  0
 12 13  1  6
 13  6  1  0
 14 15  2  0
 14 12  1  0
 16 14  1  0
 17 18  1  0
 17 16  1  0
 18 19  1  0
 20 18  2  0
M  END
$$$$
