DTG.pdb
     RDKit          3D

 20 19  0  0  1  0  0  0  0  0999 V2000
   18.9192  -12.4092  -15.1013 N   0  0  0  0  0  0  0  0  0  0  0  0
   19.5312  -12.3287  -16.3908 C   0  0  1  0  0  0  0  0  0  0  0  0
   18.6561  -13.0443  -17.4001 C   0  0  0  0  0  0  0  0  0  0  0  0
   18.4603  -14.4598  -16.9973 C   0  0  0  0  0  0  0  0  0  0  0  0
   17.5662  -14.7383  -16.1585 O   0  0  0  0  0  0  0  0  0  0  0  0
   19.8098  -10.9309  -16.8072 C   0  0  0  0  0  0  0  0  0  0  0  0
   20.3539  -10.7118  -17.9024 O   0  0  0  0  0  0  0  0  0  0  0  0
   19.2186  -15.4967  -17.5026 O   0  0  0  0  0  0  0  0  0  0  0  0
   17.9271   -8.1284  -17.8230 C   0  0  0  0  0  0  0  0  0  0  0  0
   18.6437   -7.5871  -16.6041 C   0  0  1  0  0  0  0  0  0  0  0  0
   17.7782   -7.4223  -15.5433 O   0  0  0  0  0  0  0  0  0  0  0  0
   19.8196   -8.4650  -16.3148 C   0  0  2  0  0  0  0  0  0  0  0  0
   19.4728   -9.8173  -15.9881 N   0  0  0  0  0  0  0  0  0  0  0  0
   20.7639   -7.8640  -15.3325 C   0  0  0  0  0  0  0  0  0  0  0  0
   20.8851   -8.3158  -14.1612 O   0  0  0  0  0  0  0  0  0  0  0  0
   21.5837   -6.7491  -15.6520 N   0  0  0  0  0  0  0  0  0  0  0  0
   22.4750   -6.1320  -14.6899 C   0  0  0  0  0  0  0  0  0  0  0  0
   21.7357   -5.2400  -13.7936 C   0  0  0  0  0  0  0  0  0  0  0  0
   22.4292   -4.5110  -12.8408 O   0  0  0  0  0  0  0  0  0  0  0  0
   20.4914   -5.1087  -13.8546 O   0  0  0  0  0  0  0  0  0  0  0  0
  2  1  1  1
  3  2  1  0
  4  3  1  0
  4  5  2  0
  6  2  1  0
  7  6  2  0
  8  4  1  0
 10  9  1  6
 10 12  1  0
 11 10  1  0
 12 13  1  1
 13  6  1  0
 14 15  2  0
 14 12  1  0
 16 14  1  0
 17 18  1  0
 17 16  1  0
 18 19  1  0
 20 18  2  0
M  END
$$$$
