DTG.pdb
     RDKit          3D

 20 19  0  0  1  0  0  0  0  0999 V2000
   13.0500   -8.8801   -9.4300 N   0  0  0  0  0  0  0  0  0  0  0  0
   14.4210   -9.0848   -9.7801 C   0  0  1  0  0  0  0  0  0  0  0  0
   14.5037  -10.1469  -10.8580 C   0  0  0  0  0  0  0  0  0  0  0  0
   14.0082  -11.4460  -10.3374 C   0  0  0  0  0  0  0  0  0  0  0  0
   13.5898  -11.5103   -9.1536 O   0  0  0  0  0  0  0  0  0  0  0  0
   15.0993   -7.8318  -10.1983 C   0  0  0  0  0  0  0  0  0  0  0  0
   14.4209   -6.8572  -10.5637 O   0  0  0  0  0  0  0  0  0  0  0  0
   13.9834  -12.5992  -11.0957 O   0  0  0  0  0  0  0  0  0  0  0  0
   15.3209   -5.1635   -9.5329 C   0  0  0  0  0  0  0  0  0  0  0  0
   16.8169   -5.3806   -9.4504 C   0  0  1  0  0  0  0  0  0  0  0  0
   17.2218   -5.6073   -8.1518 O   0  0  0  0  0  0  0  0  0  0  0  0
   17.1950   -6.4593  -10.4153 C   0  0  2  0  0  0  0  0  0  0  0  0
   16.5163   -7.7031  -10.1963 N   0  0  0  0  0  0  0  0  0  0  0  0
   18.6686   -6.6279  -10.5480 C   0  0  0  0  0  0  0  0  0  0  0  0
   19.3447   -7.2763   -9.7034 O   0  0  0  0  0  0  0  0  0  0  0  0
   19.4020   -6.0713  -11.6295 N   0  0  0  0  0  0  0  0  0  0  0  0
   20.8331   -6.2473  -11.7772 C   0  0  0  0  0  0  0  0  0  0  0  0
   21.3080   -5.6288  -13.0171 C   0  0  0  0  0  0  0  0  0  0  0  0
   22.6712   -5.5210  -13.2410 O   0  0  0  0  0  0  0  0  0  0  0  0
   20.5245   -5.1897  -13.8904 O   0  0  0  0  0  0  0  0  0  0  0  0
  2  1  1  6
  3  2  1  0
  4  3  1  0
  4  5  2  0
  6  2  1  0
  7  6  2  0
  8  4  1  0
 10  9  1  1
 10 12  1  0
 11 10  1  0
 12 13  1  1
 13  6  1  0
 14 15  2  0
 14 12  1  0
 16 14  1  0
 17 18  1  0
 17 16  1  0
 18 19  1  0
 20 18  2  0
M  END
$$$$
