DTG.pdb
     RDKit          3D

 20 19  0  0  1  0  0  0  0  0999 V2000
   21.0075   -3.4308  -17.6519 N   0  0  0  0  0  0  0  0  0  0  0  0
   20.7796   -4.2195  -16.4814 C   0  0  1  0  0  0  0  0  0  0  0  0
   19.4881   -3.7726  -15.8266 C   0  0  0  0  0  0  0  0  0  0  0  0
   19.6232   -2.3835  -15.3204 C   0  0  0  0  0  0  0  0  0  0  0  0
   18.7636   -1.5271  -15.6493 O   0  0  0  0  0  0  0  0  0  0  0  0
   20.7695   -5.6770  -16.7650 C   0  0  0  0  0  0  0  0  0  0  0  0
   20.2738   -6.0942  -17.8251 O   0  0  0  0  0  0  0  0  0  0  0  0
   20.6560   -1.9804  -14.4979 O   0  0  0  0  0  0  0  0  0  0  0  0
   23.6078   -7.9436  -17.0719 C   0  0  0  0  0  0  0  0  0  0  0  0
   22.7305   -8.6264  -16.0442 C   0  0  1  0  0  0  0  0  0  0  0  0
   23.3005   -8.5859  -14.7892 O   0  0  0  0  0  0  0  0  0  0  0  0
   21.3586   -8.0354  -16.1219 C   0  0  2  0  0  0  0  0  0  0  0  0
   21.3133   -6.6273  -15.8563 N   0  0  0  0  0  0  0  0  0  0  0  0
   20.3531   -8.7987  -15.3319 C   0  0  0  0  0  0  0  0  0  0  0  0
   19.8260   -8.3257  -14.2883 O   0  0  0  0  0  0  0  0  0  0  0  0
   19.9266  -10.1016  -15.7028 N   0  0  0  0  0  0  0  0  0  0  0  0
   19.0662  -10.9118  -14.8636 C   0  0  0  0  0  0  0  0  0  0  0  0
   18.8365  -12.2256  -15.4691 C   0  0  0  0  0  0  0  0  0  0  0  0
   18.2350  -13.2219  -14.7169 O   0  0  0  0  0  0  0  0  0  0  0  0
   19.1649  -12.4867  -16.6495 O   0  0  0  0  0  0  0  0  0  0  0  0
  2  1  1  6
  3  2  1  0
  4  3  1  0
  4  5  2  0
  6  2  1  0
  7  6  2  0
  8  4  1  0
 10  9  1  6
 10 12  1  0
 11 10  1  0
 12 13  1  1
 13  6  1  0
 14 15  2  0
 14 12  1  0
 16 14  1  0
 17 18  1  0
 17 16  1  0
 18 19  1  0
 20 18  2  0
M  END
$$$$
