DTG.pdb
     RDKit          3D

 20 19  0  0  1  0  0  0  0  0999 V2000
   19.8476  -11.5054  -16.2353 N   0  0  0  0  0  0  0  0  0  0  0  0
   20.7277  -10.3885  -16.3834 C   0  0  1  0  0  0  0  0  0  0  0  0
   20.9508  -10.1258  -17.8591 C   0  0  0  0  0  0  0  0  0  0  0  0
   21.5558  -11.3169  -18.5067 C   0  0  0  0  0  0  0  0  0  0  0  0
   22.4426  -11.9622  -17.8921 O   0  0  0  0  0  0  0  0  0  0  0  0
   20.2367   -9.1747  -15.6832 C   0  0  0  0  0  0  0  0  0  0  0  0
   19.0801   -8.7705  -15.8899 O   0  0  0  0  0  0  0  0  0  0  0  0
   21.1899  -11.7565  -19.7631 O   0  0  0  0  0  0  0  0  0  0  0  0
   19.0070   -8.5734  -12.6972 C   0  0  0  0  0  0  0  0  0  0  0  0
   20.1578   -7.5908  -12.6483 C   0  0  1  0  0  0  0  0  0  0  0  0
   21.1653   -8.0366  -11.8189 O   0  0  0  0  0  0  0  0  0  0  0  0
   20.5920   -7.2967  -14.0492 C   0  0  2  0  0  0  0  0  0  0  0  0
   21.0515   -8.4466  -14.7719 N   0  0  0  0  0  0  0  0  0  0  0  0
   21.5406   -6.1519  -14.1338 C   0  0  0  0  0  0  0  0  0  0  0  0
   22.7819   -6.3232  -14.2771 O   0  0  0  0  0  0  0  0  0  0  0  0
   21.1085   -4.8010  -14.0587 N   0  0  0  0  0  0  0  0  0  0  0  0
   22.0278   -3.6815  -14.1099 C   0  0  0  0  0  0  0  0  0  0  0  0
   21.3006   -2.4172  -14.2450 C   0  0  0  0  0  0  0  0  0  0  0  0
   22.0093   -1.2265  -14.2561 O   0  0  0  0  0  0  0  0  0  0  0  0
   20.0533   -2.3690  -14.3516 O   0  0  0  0  0  0  0  0  0  0  0  0
  2  1  1  6
  3  2  1  0
  4  3  1  0
  4  5  2  0
  6  2  1  0
  7  6  2  0
  8  4  1  0
 10  9  1  6
 10 12  1  0
 11 10  1  0
 12 13  1  1
 13  6  1  0
 14 15  2  0
 14 12  1  0
 16 14  1  0
 17 18  1  0
 17 16  1  0
 18 19  1  0
 20 18  2  0
M  END
$$$$
