ITR.pdb
     RDKit          3D

 27 26  0  0  1  0  0  0  0  0999 V2000
   18.6175  -18.9915  -13.4491 C   0  0  0  0  0  0  0  0  0  0  0  0
   19.2568  -20.3271  -13.2776 C   0  0  0  0  0  0  0  0  0  0  0  0
   20.3833  -20.3864  -12.3035 C   0  0  2  0  0  0  0  0  0  0  0  0
   21.4687  -19.4341  -12.7907 C   0  0  0  0  0  0  0  0  0  0  0  0
   20.9010  -21.8009  -12.2260 C   0  0  2  0  0  0  0  0  0  0  0  0
   21.3227  -22.2248  -13.5420 N   0  0  0  0  0  0  0  0  0  0  0  0
   19.8717  -22.7520  -11.7387 C   0  0  0  0  0  0  0  0  0  0  0  0
   19.2332  -23.5197  -12.5131 O   0  0  0  0  0  0  0  0  0  0  0  0
   17.9158  -25.0975   -7.8339 C   0  0  0  0  0  0  0  0  0  0  0  0
   18.9190  -24.1361   -8.4615 C   0  0  1  0  0  0  0  0  0  0  0  0
   20.2165  -24.5794   -8.3405 O   0  0  0  0  0  0  0  0  0  0  0  0
   18.5226  -23.7479   -9.8527 C   0  0  2  0  0  0  0  0  0  0  0  0
   19.5496  -22.8475  -10.3588 N   0  0  0  0  0  0  0  0  0  0  0  0
   17.1921  -23.1334   -9.9443 C   0  0  0  0  0  0  0  0  0  0  0  0
   17.1186  -21.8842  -10.0466 O   0  0  0  0  0  0  0  0  0  0  0  0
   11.6589  -21.4914  -14.5698 N   0  0  0  0  0  0  0  0  0  0  0  0
   12.8143  -20.7917  -15.1075 C   0  0  0  0  0  0  0  0  0  0  0  0
   12.6577  -19.6284  -15.5663 N   0  0  0  0  0  0  0  0  0  0  0  0
   14.0848  -21.4039  -15.1172 N   0  0  0  0  0  0  0  0  0  0  0  0
   14.5199  -22.4302  -14.2659 C   0  0  0  0  0  0  0  0  0  0  0  0
   15.0020  -22.1298  -12.8973 C   0  0  0  0  0  0  0  0  0  0  0  0
   15.3632  -23.5148  -12.2876 C   0  0  0  0  0  0  0  0  0  0  0  0
   14.9012  -23.5648  -10.8503 C   0  0  2  0  0  0  0  0  0  0  0  0
   15.9776  -23.8548   -9.9254 N   0  0  0  0  0  0  0  0  0  0  0  0
   13.7674  -24.5047  -10.6839 C   0  0  0  0  0  0  0  0  0  0  0  0
   12.4794  -24.0419  -10.6857 O   0  0  0  0  0  0  0  0  0  0  0  0
   13.9814  -25.7311  -10.5404 O   0  0  0  0  0  0  0  0  0  0  0  0
  2  3  1  0
  2  1  1  0
  3  4  1  6
  5  6  1  6
  5  3  1  0
  7  5  1  0
  8  7  2  0
 10  9  1  6
 10 11  1  0
 10 12  1  0
 12 13  1  1
 13  7  1  0
 14 12  1  0
 14 15  2  0
 16 17  1  0
 17 19  1  0
 17 18  2  0
 19 20  1  0
 20 21  1  0
 21 22  1  0
 23 22  1  6
 23 24  1  0
 24 14  1  0
 25 23  1  0
 26 25  1  0
 27 25  2  0
M  END
$$$$
