ITR.pdb
     RDKit          3D

 27 26  0  0  1  0  0  0  0  0999 V2000
   20.5927  -25.7011  -17.1928 C   0  0  0  0  0  0  0  0  0  0  0  0
   21.6403  -24.7471  -16.7297 C   0  0  0  0  0  0  0  0  0  0  0  0
   22.9218  -24.7722  -17.4903 C   0  0  2  0  0  0  0  0  0  0  0  0
   23.5050  -26.1751  -17.3708 C   0  0  0  0  0  0  0  0  0  0  0  0
   23.8636  -23.7449  -16.9137 C   0  0  2  0  0  0  0  0  0  0  0  0
   23.2801  -22.4306  -17.0608 N   0  0  0  0  0  0  0  0  0  0  0  0
   25.1832  -23.7464  -17.5919 C   0  0  0  0  0  0  0  0  0  0  0  0
   25.3140  -23.5148  -18.8272 O   0  0  0  0  0  0  0  0  0  0  0  0
   29.9013  -22.9408  -17.5544 C   0  0  0  0  0  0  0  0  0  0  0  0
   28.4209  -22.8343  -17.2058 C   0  0  1  0  0  0  0  0  0  0  0  0
   27.8439  -21.6916  -17.7118 O   0  0  0  0  0  0  0  0  0  0  0  0
   27.6815  -24.0970  -17.5251 C   0  0  2  0  0  0  0  0  0  0  0  0
   26.3806  -24.0116  -16.8757 N   0  0  0  0  0  0  0  0  0  0  0  0
   28.3897  -25.3200  -17.1263 C   0  0  0  0  0  0  0  0  0  0  0  0
   28.1311  -25.8190  -16.0036 O   0  0  0  0  0  0  0  0  0  0  0  0
   26.6903  -32.7522  -16.0549 N   0  0  0  0  0  0  0  0  0  0  0  0
   28.1056  -32.9187  -15.7669 C   0  0  0  0  0  0  0  0  0  0  0  0
   28.5087  -34.0324  -15.3364 N   0  0  0  0  0  0  0  0  0  0  0  0
   29.0091  -31.8538  -15.9636 N   0  0  0  0  0  0  0  0  0  0  0  0
   28.6860  -30.5566  -16.3882 C   0  0  0  0  0  0  0  0  0  0  0  0
   29.7483  -29.5757  -16.7118 C   0  0  0  0  0  0  0  0  0  0  0  0
   28.9872  -28.2767  -17.1038 C   0  0  0  0  0  0  0  0  0  0  0  0
   29.9839  -27.2114  -17.4956 C   0  0  2  0  0  0  0  0  0  0  0  0
   29.3502  -25.9813  -17.9238 N   0  0  0  0  0  0  0  0  0  0  0  0
   30.9392  -27.7176  -18.5094 C   0  0  0  0  0  0  0  0  0  0  0  0
   32.1093  -28.3121  -18.1213 O   0  0  0  0  0  0  0  0  0  0  0  0
   30.6809  -27.6045  -19.7304 O   0  0  0  0  0  0  0  0  0  0  0  0
  2  3  1  0
  2  1  1  0
  3  4  1  1
  5  6  1  6
  5  3  1  0
  7  5  1  0
  8  7  2  0
 10  9  1  6
 10 11  1  0
 10 12  1  0
 12 13  1  1
 13  7  1  0
 14 12  1  0
 14 15  2  0
 16 17  1  0
 17 19  1  0
 17 18  2  0
 19 20  1  0
 20 21  1  0
 21 22  1  0
 23 22  1  6
 23 24  1  0
 24 14  1  0
 25 23  1  0
 26 25  1  0
 27 25  2  0
M  END
$$$$
