ITR.pdb
     RDKit          3D

 27 26  0  0  1  0  0  0  0  0999 V2000
   21.5497  -18.3719  -16.8627 C   0  0  0  0  0  0  0  0  0  0  0  0
   22.4916  -19.5270  -16.8863 C   0  0  0  0  0  0  0  0  0  0  0  0
   22.5176  -20.3676  -15.6557 C   0  0  2  0  0  0  0  0  0  0  0  0
   21.0840  -20.5053  -15.1574 C   0  0  0  0  0  0  0  0  0  0  0  0
   23.3887  -19.7049  -14.6180 C   0  0  2  0  0  0  0  0  0  0  0  0
   24.6787  -19.4097  -15.1996 N   0  0  0  0  0  0  0  0  0  0  0  0
   23.6012  -20.5650  -13.4278 C   0  0  0  0  0  0  0  0  0  0  0  0
   23.1918  -21.7589  -13.3689 O   0  0  0  0  0  0  0  0  0  0  0  0
   26.8970  -21.1851  -11.6899 C   0  0  0  0  0  0  0  0  0  0  0  0
   25.9026  -20.6890  -10.6461 C   0  0  1  0  0  0  0  0  0  0  0  0
   26.1891  -19.4142  -10.2131 O   0  0  0  0  0  0  0  0  0  0  0  0
   24.4856  -20.8913  -11.0868 C   0  0  2  0  0  0  0  0  0  0  0  0
   24.2849  -20.0815  -12.2807 N   0  0  0  0  0  0  0  0  0  0  0  0
   23.4890  -20.5681  -10.0579 C   0  0  0  0  0  0  0  0  0  0  0  0
   22.7447  -19.5738  -10.2408 O   0  0  0  0  0  0  0  0  0  0  0  0
   18.1832  -25.4507   -7.9300 N   0  0  0  0  0  0  0  0  0  0  0  0
   18.3070  -24.6224   -6.7417 C   0  0  0  0  0  0  0  0  0  0  0  0
   17.8014  -25.0326   -5.6627 N   0  0  0  0  0  0  0  0  0  0  0  0
   18.9781  -23.3831   -6.7962 N   0  0  0  0  0  0  0  0  0  0  0  0
   19.1174  -22.5618   -7.9245 C   0  0  0  0  0  0  0  0  0  0  0  0
   20.3858  -22.5297   -8.6898 C   0  0  0  0  0  0  0  0  0  0  0  0
   20.8693  -21.0537   -8.6010 C   0  0  0  0  0  0  0  0  0  0  0  0
   22.2285  -21.0109   -7.9435 C   0  0  2  0  0  0  0  0  0  0  0  0
   23.3067  -21.3037   -8.8655 N   0  0  0  0  0  0  0  0  0  0  0  0
   22.2748  -21.8882   -6.7498 C   0  0  0  0  0  0  0  0  0  0  0  0
   21.6761  -21.4995   -5.5821 O   0  0  0  0  0  0  0  0  0  0  0  0
   22.8631  -22.9934   -6.8025 O   0  0  0  0  0  0  0  0  0  0  0  0
  2  3  1  0
  2  1  1  0
  3  4  1  1
  5  6  1  6
  5  3  1  0
  7  5  1  0
  8  7  2  0
 10  9  1  6
 10 11  1  0
 10 12  1  0
 12 13  1  6
 13  7  1  0
 14 12  1  0
 14 15  2  0
 16 17  1  0
 17 19  1  0
 17 18  2  0
 19 20  1  0
 20 21  1  0
 21 22  1  0
 23 22  1  6
 23 24  1  0
 24 14  1  0
 25 23  1  0
 26 25  1  0
 27 25  2  0
M  END
$$$$
