ITR.pdb
     RDKit          3D

 27 26  0  0  1  0  0  0  0  0999 V2000
   24.9573  -20.2107   -9.0379 C   0  0  0  0  0  0  0  0  0  0  0  0
   25.2430  -20.2086  -10.5009 C   0  0  0  0  0  0  0  0  0  0  0  0
   25.7787  -21.4827  -11.0587 C   0  0  2  0  0  0  0  0  0  0  0  0
   27.0627  -21.8145  -10.3077 C   0  0  0  0  0  0  0  0  0  0  0  0
   26.0451  -21.3081  -12.5329 C   0  0  2  0  0  0  0  0  0  0  0  0
   26.9793  -20.2212  -12.7210 N   0  0  0  0  0  0  0  0  0  0  0  0
   24.8110  -20.9978  -13.2959 C   0  0  0  0  0  0  0  0  0  0  0  0
   24.3119  -19.8378  -13.3405 O   0  0  0  0  0  0  0  0  0  0  0  0
   21.7765  -21.6289  -16.9335 C   0  0  0  0  0  0  0  0  0  0  0  0
   23.0716  -21.8096  -16.1496 C   0  0  1  0  0  0  0  0  0  0  0  0
   24.0745  -20.9786  -16.5950 O   0  0  0  0  0  0  0  0  0  0  0  0
   22.8383  -21.7639  -14.6709 C   0  0  2  0  0  0  0  0  0  0  0  0
   24.1211  -22.0033  -14.0238 N   0  0  0  0  0  0  0  0  0  0  0  0
   21.8242  -22.7145  -14.1973 C   0  0  0  0  0  0  0  0  0  0  0  0
   22.2113  -23.7618  -13.6234 O   0  0  0  0  0  0  0  0  0  0  0  0
   17.8809  -24.5825   -7.5691 N   0  0  0  0  0  0  0  0  0  0  0  0
   18.4202  -25.5654   -8.4948 C   0  0  0  0  0  0  0  0  0  0  0  0
   18.1865  -26.7860   -8.2855 N   0  0  0  0  0  0  0  0  0  0  0  0
   19.1914  -25.1606   -9.6041 N   0  0  0  0  0  0  0  0  0  0  0  0
   19.4992  -23.8409   -9.9658 C   0  0  0  0  0  0  0  0  0  0  0  0
   18.7046  -23.1293  -10.9943 C   0  0  0  0  0  0  0  0  0  0  0  0
   19.7579  -22.5340  -11.9723 C   0  0  0  0  0  0  0  0  0  0  0  0
   19.4869  -23.0411  -13.3692 C   0  0  2  0  0  0  0  0  0  0  0  0
   20.4309  -22.5324  -14.3431 N   0  0  0  0  0  0  0  0  0  0  0  0
   18.0859  -22.7762  -13.7735 C   0  0  0  0  0  0  0  0  0  0  0  0
   17.2047  -23.8112  -13.9335 O   0  0  0  0  0  0  0  0  0  0  0  0
   17.6986  -21.6010  -13.9714 O   0  0  0  0  0  0  0  0  0  0  0  0
  2  3  1  0
  2  1  1  0
  3  4  1  1
  5  6  1  1
  5  3  1  0
  7  5  1  0
  8  7  2  0
 10  9  1  6
 10 11  1  0
 10 12  1  0
 12 13  1  1
 13  7  1  0
 14 12  1  0
 14 15  2  0
 16 17  1  0
 17 19  1  0
 17 18  2  0
 19 20  1  0
 20 21  1  0
 21 22  1  0
 23 22  1  1
 23 24  1  0
 24 14  1  0
 25 23  1  0
 26 25  1  0
 27 25  2  0
M  END
$$$$
