ITR.pdb
     RDKit          3D

 27 26  0  0  1  0  0  0  0  0999 V2000
   27.9416  -19.6770   -7.1614 C   0  0  0  0  0  0  0  0  0  0  0  0
   27.3757  -20.8026   -7.9582 C   0  0  0  0  0  0  0  0  0  0  0  0
   26.7208  -20.4231   -9.2421 C   0  0  2  0  0  0  0  0  0  0  0  0
   25.2338  -20.7308   -9.1133 C   0  0  0  0  0  0  0  0  0  0  0  0
   27.3398  -21.2113  -10.3692 C   0  0  2  0  0  0  0  0  0  0  0  0
   28.7764  -21.0593  -10.3217 N   0  0  0  0  0  0  0  0  0  0  0  0
   26.8679  -20.7569  -11.7005 C   0  0  0  0  0  0  0  0  0  0  0  0
   27.0931  -19.5946  -12.1423 O   0  0  0  0  0  0  0  0  0  0  0  0
   25.6252  -21.7292  -16.2754 C   0  0  0  0  0  0  0  0  0  0  0  0
   26.1506  -22.0816  -14.8883 C   0  0  1  0  0  0  0  0  0  0  0  0
   27.5214  -22.2038  -14.8622 O   0  0  0  0  0  0  0  0  0  0  0  0
   25.5875  -21.1794  -13.8338 C   0  0  2  0  0  0  0  0  0  0  0  0
   26.1301  -21.6182  -12.5553 N   0  0  0  0  0  0  0  0  0  0  0  0
   24.1199  -21.1457  -13.7991 C   0  0  0  0  0  0  0  0  0  0  0  0
   23.5208  -21.9974  -13.0977 O   0  0  0  0  0  0  0  0  0  0  0  0
   18.2939  -14.9513  -14.1372 N   0  0  0  0  0  0  0  0  0  0  0  0
   19.6946  -15.3272  -14.2395 C   0  0  0  0  0  0  0  0  0  0  0  0
   20.5733  -14.4404  -14.0667 N   0  0  0  0  0  0  0  0  0  0  0  0
   20.0624  -16.6576  -14.5286 N   0  0  0  0  0  0  0  0  0  0  0  0
   19.1892  -17.7244  -14.7871 C   0  0  0  0  0  0  0  0  0  0  0  0
   19.6962  -19.1123  -14.8977 C   0  0  0  0  0  0  0  0  0  0  0  0
   21.2447  -18.9701  -14.9423 C   0  0  0  0  0  0  0  0  0  0  0  0
   21.8794  -20.2546  -14.4636 C   0  0  2  0  0  0  0  0  0  0  0  0
   23.3268  -20.2142  -14.5056 N   0  0  0  0  0  0  0  0  0  0  0  0
   21.3422  -21.4244  -15.1982 C   0  0  0  0  0  0  0  0  0  0  0  0
   21.7735  -21.7020  -16.4670 O   0  0  0  0  0  0  0  0  0  0  0  0
   20.4886  -22.1681  -14.6609 O   0  0  0  0  0  0  0  0  0  0  0  0
  2  3  1  0
  2  1  1  0
  3  4  1  1
  5  6  1  6
  5  3  1  0
  7  5  1  0
  8  7  2  0
 10  9  1  6
 10 11  1  0
 10 12  1  0
 12 13  1  1
 13  7  1  0
 14 12  1  0
 14 15  2  0
 16 17  1  0
 17 19  1  0
 17 18  2  0
 19 20  1  0
 20 21  1  0
 21 22  1  0
 23 22  1  6
 23 24  1  0
 24 14  1  0
 25 23  1  0
 26 25  1  0
 27 25  2  0
M  END
$$$$
