ITR.pdb
     RDKit          3D

 27 26  0  0  1  0  0  0  0  0999 V2000
   26.2626  -22.7891  -11.0164 C   0  0  0  0  0  0  0  0  0  0  0  0
   26.7125  -21.3681  -11.0343 C   0  0  0  0  0  0  0  0  0  0  0  0
   25.8461  -20.4232  -11.7946 C   0  0  2  0  0  0  0  0  0  0  0  0
   24.4366  -20.5245  -11.2240 C   0  0  0  0  0  0  0  0  0  0  0  0
   25.8652  -20.7957  -13.2560 C   0  0  2  0  0  0  0  0  0  0  0  0
   27.2358  -20.8687  -13.7094 N   0  0  0  0  0  0  0  0  0  0  0  0
   25.1486  -19.8072  -14.0992 C   0  0  0  0  0  0  0  0  0  0  0  0
   25.5983  -18.6471  -14.3191 O   0  0  0  0  0  0  0  0  0  0  0  0
   25.3099  -18.0359  -16.1866 C   0  0  0  0  0  0  0  0  0  0  0  0
   24.0775  -18.7904  -16.6727 C   0  0  1  0  0  0  0  0  0  0  0  0
   24.3974  -19.8255  -17.5217 O   0  0  0  0  0  0  0  0  0  0  0  0
   23.1759  -19.1727  -15.5396 C   0  0  2  0  0  0  0  0  0  0  0  0
   23.9049  -20.1213  -14.7089 N   0  0  0  0  0  0  0  0  0  0  0  0
   21.8855  -19.7293  -15.9657 C   0  0  0  0  0  0  0  0  0  0  0  0
   21.8122  -20.9633  -16.1850 O   0  0  0  0  0  0  0  0  0  0  0  0
   19.7838  -19.3200  -10.3004 N   0  0  0  0  0  0  0  0  0  0  0  0
   19.0447  -18.4842  -11.2324 C   0  0  0  0  0  0  0  0  0  0  0  0
   18.8826  -17.2655  -10.9551 N   0  0  0  0  0  0  0  0  0  0  0  0
   18.5176  -19.0273  -12.4225 N   0  0  0  0  0  0  0  0  0  0  0  0
   19.1438  -19.9639  -13.2579 C   0  0  0  0  0  0  0  0  0  0  0  0
   18.4348  -20.5330  -14.4279 C   0  0  0  0  0  0  0  0  0  0  0  0
   18.3773  -19.3736  -15.4636 C   0  0  0  0  0  0  0  0  0  0  0  0
   19.4484  -19.5820  -16.5082 C   0  0  2  0  0  0  0  0  0  0  0  0
   20.7098  -18.9675  -16.1479 N   0  0  0  0  0  0  0  0  0  0  0  0
   18.9862  -19.1411  -17.8456 C   0  0  0  0  0  0  0  0  0  0  0  0
   17.9396  -19.7745  -18.4592 O   0  0  0  0  0  0  0  0  0  0  0  0
   19.5517  -18.1838  -18.4237 O   0  0  0  0  0  0  0  0  0  0  0  0
  2  3  1  0
  2  1  1  0
  3  4  1  1
  5  6  1  6
  5  3  1  0
  7  5  1  0
  8  7  2  0
 10  9  1  1
 10 11  1  0
 10 12  1  0
 12 13  1  1
 13  7  1  0
 14 12  1  0
 14 15  2  0
 16 17  1  0
 17 19  1  0
 17 18  2  0
 19 20  1  0
 20 21  1  0
 21 22  1  0
 23 22  1  1
 23 24  1  0
 24 14  1  0
 25 23  1  0
 26 25  1  0
 27 25  2  0
M  END
$$$$
