ITR.pdb
     RDKit          3D

 27 26  0  0  1  0  0  0  0  0999 V2000
   28.7117  -19.3738   -5.3817 C   0  0  0  0  0  0  0  0  0  0  0  0
   28.5111  -20.3933   -6.4505 C   0  0  0  0  0  0  0  0  0  0  0  0
   27.9920  -19.8779   -7.7490 C   0  0  2  0  0  0  0  0  0  0  0  0
   26.6246  -19.2575   -7.4888 C   0  0  0  0  0  0  0  0  0  0  0  0
   27.8900  -21.0170   -8.7323 C   0  0  2  0  0  0  0  0  0  0  0  0
   29.1700  -21.6826   -8.8221 N   0  0  0  0  0  0  0  0  0  0  0  0
   27.5089  -20.5570  -10.0905 C   0  0  0  0  0  0  0  0  0  0  0  0
   28.2449  -19.7994  -10.7840 O   0  0  0  0  0  0  0  0  0  0  0  0
   27.9976  -21.4667  -12.9822 C   0  0  0  0  0  0  0  0  0  0  0  0
   26.4735  -21.5081  -12.9902 C   0  0  1  0  0  0  0  0  0  0  0  0
   25.9832  -22.7892  -12.8754 O   0  0  0  0  0  0  0  0  0  0  0  0
   25.8849  -20.5288  -12.0220 C   0  0  2  0  0  0  0  0  0  0  0  0
   26.2812  -20.9514  -10.6856 N   0  0  0  0  0  0  0  0  0  0  0  0
   24.4258  -20.3958  -12.1209 C   0  0  0  0  0  0  0  0  0  0  0  0
   23.7346  -20.6435  -11.1025 O   0  0  0  0  0  0  0  0  0  0  0  0
   18.5707  -15.4864  -14.3898 N   0  0  0  0  0  0  0  0  0  0  0  0
   17.9150  -16.4832  -15.2206 C   0  0  0  0  0  0  0  0  0  0  0  0
   16.6676  -16.4091  -15.3840 N   0  0  0  0  0  0  0  0  0  0  0  0
   18.6603  -17.5139  -15.8299 N   0  0  0  0  0  0  0  0  0  0  0  0
   19.9891  -17.8599  -15.5439 C   0  0  0  0  0  0  0  0  0  0  0  0
   20.3204  -18.6973  -14.3672 C   0  0  0  0  0  0  0  0  0  0  0  0
   21.8659  -18.8675  -14.4199 C   0  0  0  0  0  0  0  0  0  0  0  0
   22.3076  -19.7786  -13.2989 C   0  0  2  0  0  0  0  0  0  0  0  0
   23.7383  -20.0052  -13.2916 N   0  0  0  0  0  0  0  0  0  0  0  0
   21.5510  -21.0530  -13.3138 C   0  0  0  0  0  0  0  0  0  0  0  0
   20.4370  -21.2051  -12.5335 O   0  0  0  0  0  0  0  0  0  0  0  0
   21.9271  -22.0006  -14.0425 O   0  0  0  0  0  0  0  0  0  0  0  0
  2  3  1  0
  2  1  1  0
  3  4  1  1
  5  6  1  6
  5  3  1  0
  7  5  1  0
  8  7  2  0
 10  9  1  1
 10 11  1  0
 10 12  1  0
 12 13  1  1
 13  7  1  0
 14 12  1  0
 14 15  2  0
 16 17  1  0
 17 19  1  0
 17 18  2  0
 19 20  1  0
 20 21  1  0
 21 22  1  0
 23 22  1  6
 23 24  1  0
 24 14  1  0
 25 23  1  0
 26 25  1  0
 27 25  2  0
M  END
$$$$
