ITR.pdb
     RDKit          3D

 27 26  0  0  1  0  0  0  0  0999 V2000
   17.2932  -15.4035  -19.5086 C   0  0  0  0  0  0  0  0  0  0  0  0
   18.6643  -15.6285  -18.9688 C   0  0  0  0  0  0  0  0  0  0  0  0
   19.1276  -14.6477  -17.9466 C   0  0  2  0  0  0  0  0  0  0  0  0
   19.1937  -13.2790  -18.6133 C   0  0  0  0  0  0  0  0  0  0  0  0
   20.4834  -15.0650  -17.4344 C   0  0  2  0  0  0  0  0  0  0  0  0
   20.3840  -16.3815  -16.8459 N   0  0  0  0  0  0  0  0  0  0  0  0
   21.0082  -14.1341  -16.4050 C   0  0  0  0  0  0  0  0  0  0  0  0
   20.5868  -14.1288  -15.2138 O   0  0  0  0  0  0  0  0  0  0  0  0
   24.6157  -11.1646  -14.9145 C   0  0  0  0  0  0  0  0  0  0  0  0
   23.9924  -12.3026  -15.7151 C   0  0  1  0  0  0  0  0  0  0  0  0
   24.4754  -13.5351  -15.3379 O   0  0  0  0  0  0  0  0  0  0  0  0
   22.4983  -12.2054  -15.7503 C   0  0  2  0  0  0  0  0  0  0  0  0
   22.0241  -13.1905  -16.7127 N   0  0  0  0  0  0  0  0  0  0  0  0
   21.9953  -10.8652  -16.0776 C   0  0  0  0  0  0  0  0  0  0  0  0
   22.1090  -10.4585  -17.2599 O   0  0  0  0  0  0  0  0  0  0  0  0
   14.5556   -6.8707  -15.6792 N   0  0  0  0  0  0  0  0  0  0  0  0
   15.3845   -5.8831  -16.3509 C   0  0  0  0  0  0  0  0  0  0  0  0
   14.8258   -4.8924  -16.8936 N   0  0  0  0  0  0  0  0  0  0  0  0
   16.7862   -6.0323  -16.3960 N   0  0  0  0  0  0  0  0  0  0  0  0
   17.5209   -7.1319  -15.9287 C   0  0  0  0  0  0  0  0  0  0  0  0
   19.0014   -7.1382  -15.9891 C   0  0  0  0  0  0  0  0  0  0  0  0
   19.4151   -8.5595  -15.5102 C   0  0  0  0  0  0  0  0  0  0  0  0
   20.9212   -8.6746  -15.5269 C   0  0  2  0  0  0  0  0  0  0  0  0
   21.3867   -9.9929  -15.1478 N   0  0  0  0  0  0  0  0  0  0  0  0
   21.5493   -7.6139  -14.7041 C   0  0  0  0  0  0  0  0  0  0  0  0
   21.6359   -6.3323  -15.1765 O   0  0  0  0  0  0  0  0  0  0  0  0
   22.0056   -7.8843  -13.5687 O   0  0  0  0  0  0  0  0  0  0  0  0
  2  3  1  0
  2  1  1  0
  3  4  1  6
  5  6  1  1
  5  3  1  0
  7  5  1  0
  8  7  2  0
 10  9  1  1
 10 11  1  0
 10 12  1  0
 12 13  1  6
 13  7  1  0
 14 12  1  0
 14 15  2  0
 16 17  1  0
 17 19  1  0
 17 18  2  0
 19 20  1  0
 20 21  1  0
 21 22  1  0
 23 22  1  1
 23 24  1  0
 24 14  1  0
 25 23  1  0
 26 25  1  0
 27 25  2  0
M  END
$$$$
