ITR.pdb
     RDKit          3D

 27 26  0  0  1  0  0  0  0  0999 V2000
   27.4781  -18.1144  -15.9276 C   0  0  0  0  0  0  0  0  0  0  0  0
   26.4230  -19.0994  -15.5553 C   0  0  0  0  0  0  0  0  0  0  0  0
   26.7839  -20.0577  -14.4723 C   0  0  2  0  0  0  0  0  0  0  0  0
   28.0008  -20.8478  -14.9384 C   0  0  0  0  0  0  0  0  0  0  0  0
   25.6149  -20.9731  -14.2071 C   0  0  2  0  0  0  0  0  0  0  0  0
   25.3267  -21.7334  -15.4022 N   0  0  0  0  0  0  0  0  0  0  0  0
   24.3907  -20.2275  -13.8238 C   0  0  0  0  0  0  0  0  0  0  0  0
   24.3121  -19.5480  -12.7613 O   0  0  0  0  0  0  0  0  0  0  0  0
   22.7121  -17.2926  -15.0659 C   0  0  0  0  0  0  0  0  0  0  0  0
   21.7730  -18.4739  -15.2826 C   0  0  1  0  0  0  0  0  0  0  0  0
   21.7644  -18.9040  -16.5901 O   0  0  0  0  0  0  0  0  0  0  0  0
   21.9995  -19.5575  -14.2739 C   0  0  2  0  0  0  0  0  0  0  0  0
   23.2313  -20.2412  -14.6439 N   0  0  0  0  0  0  0  0  0  0  0  0
   20.8852  -20.5067  -14.1576 C   0  0  0  0  0  0  0  0  0  0  0  0
   21.1436  -21.7350  -14.1843 O   0  0  0  0  0  0  0  0  0  0  0  0
   19.0819  -25.2008   -8.8087 N   0  0  0  0  0  0  0  0  0  0  0  0
   19.0712  -25.9612  -10.0477 C   0  0  0  0  0  0  0  0  0  0  0  0
   18.8125  -27.1937   -9.9992 N   0  0  0  0  0  0  0  0  0  0  0  0
   19.3470  -25.3321  -11.2795 N   0  0  0  0  0  0  0  0  0  0  0  0
   19.4702  -23.9523  -11.4993 C   0  0  0  0  0  0  0  0  0  0  0  0
   18.4378  -23.2081  -12.2583 C   0  0  0  0  0  0  0  0  0  0  0  0
   18.9181  -21.7285  -12.2415 C   0  0  0  0  0  0  0  0  0  0  0  0
   18.5261  -21.0602  -13.5382 C   0  0  2  0  0  0  0  0  0  0  0  0
   19.5303  -20.1323  -14.0165 N   0  0  0  0  0  0  0  0  0  0  0  0
   17.1944  -20.4188  -13.4298 C   0  0  0  0  0  0  0  0  0  0  0  0
   16.1195  -20.9394  -14.0981 O   0  0  0  0  0  0  0  0  0  0  0  0
   17.0440  -19.3943  -12.7241 O   0  0  0  0  0  0  0  0  0  0  0  0
  2  3  1  0
  2  1  1  0
  3  4  1  6
  5  6  1  6
  5  3  1  0
  7  5  1  0
  8  7  2  0
 10  9  1  6
 10 11  1  0
 10 12  1  0
 12 13  1  6
 13  7  1  0
 14 12  1  0
 14 15  2  0
 16 17  1  0
 17 19  1  0
 17 18  2  0
 19 20  1  0
 20 21  1  0
 21 22  1  0
 23 22  1  1
 23 24  1  0
 24 14  1  0
 25 23  1  0
 26 25  1  0
 27 25  2  0
M  END
$$$$
