ITR.pdb
     RDKit          3D

 27 26  0  0  1  0  0  0  0  0999 V2000
   20.0800  -14.9236  -19.9190 C   0  0  0  0  0  0  0  0  0  0  0  0
   21.0101  -13.9870  -19.2263 C   0  0  0  0  0  0  0  0  0  0  0  0
   20.4098  -13.1636  -18.1386 C   0  0  2  0  0  0  0  0  0  0  0  0
   19.2625  -12.3625  -18.7422 C   0  0  0  0  0  0  0  0  0  0  0  0
   21.4641  -12.2496  -17.5659 C   0  0  2  0  0  0  0  0  0  0  0  0
   22.5830  -13.0429  -17.1096 N   0  0  0  0  0  0  0  0  0  0  0  0
   20.9589  -11.4551  -16.4192 C   0  0  0  0  0  0  0  0  0  0  0  0
   20.2653  -11.9621  -15.4927 O   0  0  0  0  0  0  0  0  0  0  0  0
   22.6468   -9.8668  -13.7204 C   0  0  0  0  0  0  0  0  0  0  0  0
   21.9162   -8.7444  -14.4491 C   0  0  1  0  0  0  0  0  0  0  0  0
   22.7695   -7.9555  -15.1868 O   0  0  0  0  0  0  0  0  0  0  0  0
   20.7292   -9.2532  -15.2076 C   0  0  2  0  0  0  0  0  0  0  0  0
   21.2345  -10.0665  -16.3052 N   0  0  0  0  0  0  0  0  0  0  0  0
   19.8394   -8.1952  -15.7026 C   0  0  0  0  0  0  0  0  0  0  0  0
   19.9828   -7.8015  -16.8862 O   0  0  0  0  0  0  0  0  0  0  0  0
   12.2420   -9.7010  -15.8664 N   0  0  0  0  0  0  0  0  0  0  0  0
   13.0806   -9.4213  -14.7121 C   0  0  0  0  0  0  0  0  0  0  0  0
   12.9237  -10.1107  -13.6689 N   0  0  0  0  0  0  0  0  0  0  0  0
   14.0491   -8.3972  -14.7587 N   0  0  0  0  0  0  0  0  0  0  0  0
   14.5717   -7.7987  -15.9145 C   0  0  0  0  0  0  0  0  0  0  0  0
   16.0330   -7.7615  -16.1573 C   0  0  0  0  0  0  0  0  0  0  0  0
   16.5655   -6.6392  -15.2207 C   0  0  0  0  0  0  0  0  0  0  0  0
   18.0503   -6.4675  -15.4393 C   0  0  2  0  0  0  0  0  0  0  0  0
   18.8239   -7.5833  -14.9345 N   0  0  0  0  0  0  0  0  0  0  0  0
   18.5275   -5.1764  -14.8897 C   0  0  0  0  0  0  0  0  0  0  0  0
   18.2693   -4.0058  -15.5501 O   0  0  0  0  0  0  0  0  0  0  0  0
   19.1712   -5.1485  -13.8149 O   0  0  0  0  0  0  0  0  0  0  0  0
  2  3  1  0
  2  1  1  0
  3  4  1  6
  5  6  1  1
  5  3  1  0
  7  5  1  0
  8  7  2  0
 10  9  1  6
 10 11  1  0
 10 12  1  0
 12 13  1  6
 13  7  1  0
 14 12  1  0
 14 15  2  0
 16 17  1  0
 17 19  1  0
 17 18  2  0
 19 20  1  0
 20 21  1  0
 21 22  1  0
 23 22  1  1
 23 24  1  0
 24 14  1  0
 25 23  1  0
 26 25  1  0
 27 25  2  0
M  END
$$$$
