ITR.pdb
     RDKit          3D

 27 26  0  0  1  0  0  0  0  0999 V2000
   17.1298  -16.5998  -16.6075 C   0  0  0  0  0  0  0  0  0  0  0  0
   17.6555  -15.3286  -16.0334 C   0  0  0  0  0  0  0  0  0  0  0  0
   17.0180  -14.0782  -16.5349 C   0  0  2  0  0  0  0  0  0  0  0  0
   17.2847  -13.9898  -18.0327 C   0  0  0  0  0  0  0  0  0  0  0  0
   17.6070  -12.8936  -15.8106 C   0  0  2  0  0  0  0  0  0  0  0  0
   17.3731  -13.0404  -14.3918 N   0  0  0  0  0  0  0  0  0  0  0  0
   17.0080  -11.6092  -16.2502 C   0  0  0  0  0  0  0  0  0  0  0  0
   17.0301  -11.2244  -17.4535 O   0  0  0  0  0  0  0  0  0  0  0  0
   13.4767  -10.5977  -16.0020 C   0  0  0  0  0  0  0  0  0  0  0  0
   14.3021   -9.5682  -15.2382 C   0  0  1  0  0  0  0  0  0  0  0  0
   14.1848   -9.7096  -13.8740 O   0  0  0  0  0  0  0  0  0  0  0  0
   15.7130   -9.5049  -15.7368 C   0  0  2  0  0  0  0  0  0  0  0  0
   16.3715  -10.7377  -15.3270 N   0  0  0  0  0  0  0  0  0  0  0  0
   16.4586   -8.3293  -15.2696 C   0  0  0  0  0  0  0  0  0  0  0  0
   16.9871   -8.3727  -14.1316 O   0  0  0  0  0  0  0  0  0  0  0  0
   22.0999   -7.2419  -12.9328 N   0  0  0  0  0  0  0  0  0  0  0  0
   21.9348   -8.0242  -14.1471 C   0  0  0  0  0  0  0  0  0  0  0  0
   22.0090   -9.2801  -14.0726 N   0  0  0  0  0  0  0  0  0  0  0  0
   21.6986   -7.3897  -15.3842 N   0  0  0  0  0  0  0  0  0  0  0  0
   20.6648   -6.4863  -15.6715 C   0  0  0  0  0  0  0  0  0  0  0  0
   19.5617   -6.8594  -16.5877 C   0  0  0  0  0  0  0  0  0  0  0  0
   18.5505   -5.6806  -16.4969 C   0  0  0  0  0  0  0  0  0  0  0  0
   17.4415   -6.0452  -15.5383 C   0  0  2  0  0  0  0  0  0  0  0  0
   16.6250   -7.1419  -16.0168 N   0  0  0  0  0  0  0  0  0  0  0  0
   16.6203   -4.8608  -15.1927 C   0  0  0  0  0  0  0  0  0  0  0  0
   15.2870   -4.8299  -15.5003 O   0  0  0  0  0  0  0  0  0  0  0  0
   17.1424   -3.8787  -14.6155 O   0  0  0  0  0  0  0  0  0  0  0  0
  2  3  1  0
  2  1  1  0
  3  4  1  6
  5  6  1  1
  5  3  1  0
  7  5  1  0
  8  7  2  0
 10  9  1  6
 10 11  1  0
 10 12  1  0
 12 13  1  1
 13  7  1  0
 14 12  1  0
 14 15  2  0
 16 17  1  0
 17 19  1  0
 17 18  2  0
 19 20  1  0
 20 21  1  0
 21 22  1  0
 23 22  1  6
 23 24  1  0
 24 14  1  0
 25 23  1  0
 26 25  1  0
 27 25  2  0
M  END
$$$$
