ITR.pdb
     RDKit          3D

 27 26  0  0  1  0  0  0  0  0999 V2000
   16.6335  -15.4288  -14.3356 C   0  0  0  0  0  0  0  0  0  0  0  0
   17.3842  -14.7520  -15.4312 C   0  0  0  0  0  0  0  0  0  0  0  0
   17.8994  -13.3889  -15.1182 C   0  0  2  0  0  0  0  0  0  0  0  0
   16.7080  -12.5191  -14.7352 C   0  0  0  0  0  0  0  0  0  0  0  0
   18.6065  -12.8333  -16.3291 C   0  0  2  0  0  0  0  0  0  0  0  0
   19.6554  -13.7452  -16.7261 N   0  0  0  0  0  0  0  0  0  0  0  0
   19.2180  -11.5073  -16.0659 C   0  0  0  0  0  0  0  0  0  0  0  0
   20.2260  -11.3589  -15.3186 O   0  0  0  0  0  0  0  0  0  0  0  0
   20.6251   -9.1880  -18.5034 C   0  0  0  0  0  0  0  0  0  0  0  0
   19.5630   -8.4000  -17.7448 C   0  0  1  0  0  0  0  0  0  0  0  0
   18.4503   -8.1447  -18.5138 O   0  0  0  0  0  0  0  0  0  0  0  0
   19.2679   -9.0075  -16.4081 C   0  0  2  0  0  0  0  0  0  0  0  0
   18.6930  -10.3238  -16.6495 N   0  0  0  0  0  0  0  0  0  0  0  0
   18.3834   -8.1932  -15.5650 C   0  0  0  0  0  0  0  0  0  0  0  0
   17.2703   -8.6706  -15.2340 O   0  0  0  0  0  0  0  0  0  0  0  0
   15.4964   -7.9357   -8.2451 N   0  0  0  0  0  0  0  0  0  0  0  0
   14.5962   -7.0623   -8.9804 C   0  0  0  0  0  0  0  0  0  0  0  0
   13.4089   -6.9385   -8.5763 N   0  0  0  0  0  0  0  0  0  0  0  0
   15.0426   -6.3691  -10.1246 N   0  0  0  0  0  0  0  0  0  0  0  0
   16.0166   -6.8061  -11.0344 C   0  0  0  0  0  0  0  0  0  0  0  0
   16.4023   -5.9700  -12.1953 C   0  0  0  0  0  0  0  0  0  0  0  0
   17.4340   -6.8289  -12.9815 C   0  0  0  0  0  0  0  0  0  0  0  0
   17.7775   -6.1355  -14.2788 C   0  0  2  0  0  0  0  0  0  0  0  0
   18.6989   -6.8987  -15.0954 N   0  0  0  0  0  0  0  0  0  0  0  0
   18.2705   -4.7589  -14.0369 C   0  0  0  0  0  0  0  0  0  0  0  0
   17.4475   -3.8172  -13.4808 O   0  0  0  0  0  0  0  0  0  0  0  0
   19.4460   -4.4481  -14.3402 O   0  0  0  0  0  0  0  0  0  0  0  0
  2  3  1  0
  2  1  1  0
  3  4  1  6
  5  6  1  1
  5  3  1  0
  7  5  1  0
  8  7  2  0
 10  9  1  6
 10 11  1  0
 10 12  1  0
 12 13  1  6
 13  7  1  0
 14 12  1  0
 14 15  2  0
 16 17  1  0
 17 19  1  0
 17 18  2  0
 19 20  1  0
 20 21  1  0
 21 22  1  0
 23 22  1  1
 23 24  1  0
 24 14  1  0
 25 23  1  0
 26 25  1  0
 27 25  2  0
M  END
$$$$
