ITR.pdb
     RDKit          3D

 27 26  0  0  1  0  0  0  0  0999 V2000
   28.0086  -19.6177   -6.4294 C   0  0  0  0  0  0  0  0  0  0  0  0
   27.9999  -20.5392   -7.6010 C   0  0  0  0  0  0  0  0  0  0  0  0
   27.1639  -20.1095   -8.7577 C   0  0  2  0  0  0  0  0  0  0  0  0
   25.7179  -20.0342   -8.2824 C   0  0  0  0  0  0  0  0  0  0  0  0
   27.3128  -21.1079   -9.8783 C   0  0  2  0  0  0  0  0  0  0  0  0
   28.7172  -21.3742  -10.0932 N   0  0  0  0  0  0  0  0  0  0  0  0
   26.7325  -20.6162  -11.1522 C   0  0  0  0  0  0  0  0  0  0  0  0
   27.1122  -19.5450  -11.7046 O   0  0  0  0  0  0  0  0  0  0  0  0
   26.8701  -22.2419  -14.2746 C   0  0  0  0  0  0  0  0  0  0  0  0
   25.3811  -21.9701  -14.0916 C   0  0  1  0  0  0  0  0  0  0  0  0
   24.6594  -23.1234  -13.8823 O   0  0  0  0  0  0  0  0  0  0  0  0
   25.1320  -20.8903  -13.0841 C   0  0  2  0  0  0  0  0  0  0  0  0
   25.7078  -21.3357  -11.8225 N   0  0  0  0  0  0  0  0  0  0  0  0
   23.7149  -20.5412  -12.9219 C   0  0  0  0  0  0  0  0  0  0  0  0
   23.2484  -20.4694  -11.7585 O   0  0  0  0  0  0  0  0  0  0  0  0
   18.7468  -17.4334  -18.0802 N   0  0  0  0  0  0  0  0  0  0  0  0
   18.3909  -16.3469  -17.1823 C   0  0  0  0  0  0  0  0  0  0  0  0
   17.4249  -15.5986  -17.4907 N   0  0  0  0  0  0  0  0  0  0  0  0
   19.1141  -16.1333  -15.9904 N   0  0  0  0  0  0  0  0  0  0  0  0
   20.2203  -16.8718  -15.5453 C   0  0  0  0  0  0  0  0  0  0  0  0
   20.0561  -18.2513  -15.0298 C   0  0  0  0  0  0  0  0  0  0  0  0
   21.2013  -18.4294  -13.9921 C   0  0  0  0  0  0  0  0  0  0  0  0
   21.4499  -19.9025  -13.7688 C   0  0  2  0  0  0  0  0  0  0  0  0
   22.8311  -20.2780  -13.9921 N   0  0  0  0  0  0  0  0  0  0  0  0
   20.5200  -20.7311  -14.5721 C   0  0  0  0  0  0  0  0  0  0  0  0
   19.1783  -20.7245  -14.3018 O   0  0  0  0  0  0  0  0  0  0  0  0
   20.9570  -21.4438  -15.5056 O   0  0  0  0  0  0  0  0  0  0  0  0
  2  3  1  0
  2  1  1  0
  3  4  1  1
  5  6  1  6
  5  3  1  0
  7  5  1  0
  8  7  2  0
 10  9  1  1
 10 11  1  0
 10 12  1  0
 12 13  1  1
 13  7  1  0
 14 12  1  0
 14 15  2  0
 16 17  1  0
 17 19  1  0
 17 18  2  0
 19 20  1  0
 20 21  1  0
 21 22  1  0
 23 22  1  6
 23 24  1  0
 24 14  1  0
 25 23  1  0
 26 25  1  0
 27 25  2  0
M  END
$$$$
