ITR.pdb
     RDKit          3D

 27 26  0  0  1  0  0  0  0  0999 V2000
   16.6669  -26.3338   -4.9772 C   0  0  0  0  0  0  0  0  0  0  0  0
   17.8573  -25.7591   -5.6661 C   0  0  0  0  0  0  0  0  0  0  0  0
   17.6531  -25.3577   -7.0869 C   0  0  2  0  0  0  0  0  0  0  0  0
   17.1341  -26.5749   -7.8430 C   0  0  0  0  0  0  0  0  0  0  0  0
   18.9631  -24.8820   -7.6634 C   0  0  2  0  0  0  0  0  0  0  0  0
   19.4226  -23.7345   -6.9142 N   0  0  0  0  0  0  0  0  0  0  0  0
   18.8419  -24.4886   -9.0889 C   0  0  0  0  0  0  0  0  0  0  0  0
   18.7228  -25.3338  -10.0206 O   0  0  0  0  0  0  0  0  0  0  0  0
   17.3209  -21.4120  -12.4459 C   0  0  0  0  0  0  0  0  0  0  0  0
   17.4393  -22.0628  -11.0722 C   0  0  1  0  0  0  0  0  0  0  0  0
   16.3667  -22.8755  -10.7828 O   0  0  0  0  0  0  0  0  0  0  0  0
   18.7771  -22.7064  -10.8745 C   0  0  2  0  0  0  0  0  0  0  0  0
   18.8538  -23.1236   -9.4812 N   0  0  0  0  0  0  0  0  0  0  0  0
   19.9119  -21.8445  -11.2292 C   0  0  0  0  0  0  0  0  0  0  0  0
   20.0526  -20.7605  -10.6116 O   0  0  0  0  0  0  0  0  0  0  0  0
   28.2602  -21.6875  -10.8346 N   0  0  0  0  0  0  0  0  0  0  0  0
   28.0736  -20.8060  -11.9755 C   0  0  0  0  0  0  0  0  0  0  0  0
   29.0921  -20.3380  -12.5516 N   0  0  0  0  0  0  0  0  0  0  0  0
   26.7780  -20.4795  -12.4271 N   0  0  0  0  0  0  0  0  0  0  0  0
   25.6536  -21.3175  -12.4042 C   0  0  0  0  0  0  0  0  0  0  0  0
   24.3712  -20.8861  -13.0083 C   0  0  0  0  0  0  0  0  0  0  0  0
   23.3041  -21.8474  -12.4105 C   0  0  0  0  0  0  0  0  0  0  0  0
   21.9326  -21.2350  -12.5711 C   0  0  2  0  0  0  0  0  0  0  0  0
   20.8655  -22.1515  -12.2253 N   0  0  0  0  0  0  0  0  0  0  0  0
   21.7525  -20.6717  -13.9301 C   0  0  0  0  0  0  0  0  0  0  0  0
   22.2641  -19.4413  -14.2423 O   0  0  0  0  0  0  0  0  0  0  0  0
   21.1299  -21.3199  -14.8034 O   0  0  0  0  0  0  0  0  0  0  0  0
  2  3  1  0
  2  1  1  0
  3  4  1  6
  5  6  1  1
  5  3  1  0
  7  5  1  0
  8  7  2  0
 10  9  1  6
 10 11  1  0
 10 12  1  0
 12 13  1  1
 13  7  1  0
 14 12  1  0
 14 15  2  0
 16 17  1  0
 17 19  1  0
 17 18  2  0
 19 20  1  0
 20 21  1  0
 21 22  1  0
 23 22  1  6
 23 24  1  0
 24 14  1  0
 25 23  1  0
 26 25  1  0
 27 25  2  0
M  END
$$$$
