ETE.pdb
     RDKit          3D

 26 25  0  0  1  0  0  0  0  0999 V2000
   18.5758  -11.5127  -18.0581 N   0  0  0  0  0  0  0  0  0  0  0  0
   19.5105  -11.7404  -16.9557 C   0  0  1  0  0  0  0  0  0  0  0  0
   20.2244  -13.0463  -17.2244 C   0  0  0  0  0  0  0  0  0  0  0  0
   19.3140  -14.2314  -17.2718 C   0  0  0  0  0  0  0  0  0  0  0  0
   20.0729  -15.4218  -17.6758 C   0  0  0  0  0  0  0  0  0  0  0  0
   19.5447  -16.5485  -17.7709 O   0  0  0  0  0  0  0  0  0  0  0  0
   20.4652  -10.5817  -16.9444 C   0  0  0  0  0  0  0  0  0  0  0  0
   21.4604  -10.6417  -16.1757 O   0  0  0  0  0  0  0  0  0  0  0  0
   21.4390  -15.2883  -17.9648 O   0  0  0  0  0  0  0  0  0  0  0  0
   21.6177   -8.5574  -20.0461 C   0  0  0  0  0  0  0  0  0  0  0  0
   21.2100   -7.6047  -18.9620 C   0  0  1  0  0  0  0  0  0  0  0  0
   19.8900   -7.1898  -19.2913 O   0  0  0  0  0  0  0  0  0  0  0  0
   21.1752   -8.3100  -17.6218 C   0  0  2  0  0  0  0  0  0  0  0  0
   20.2580   -9.4475  -17.7749 N   0  0  0  0  0  0  0  0  0  0  0  0
   20.6845   -7.4013  -16.5550 C   0  0  0  0  0  0  0  0  0  0  0  0
   19.4294   -7.3655  -16.4211 O   0  0  0  0  0  0  0  0  0  0  0  0
   21.4677   -6.6073  -15.7092 N   0  0  0  0  0  0  0  0  0  0  0  0
   21.0538   -5.9997  -14.4932 C   0  0  1  0  0  0  0  0  0  0  0  0
   20.1809   -6.8139  -13.5785 C   0  0  0  0  0  0  0  0  0  0  0  0
   19.8338   -6.1057  -12.3051 C   0  0  0  0  0  0  0  0  0  0  0  0
   18.9863   -7.0134  -11.4646 C   0  0  0  0  0  0  0  0  0  0  0  0
   18.3340   -6.6041  -10.4861 O   0  0  0  0  0  0  0  0  0  0  0  0
   22.0694   -5.1925  -13.8050 C   0  0  0  0  0  0  0  0  0  0  0  0
   21.7317   -4.2525  -12.8561 O   0  0  0  0  0  0  0  0  0  0  0  0
   18.9231   -8.3573  -11.7837 O   0  0  0  0  0  0  0  0  0  0  0  0
   23.2757   -5.3595  -14.0846 O   0  0  0  0  0  0  0  0  0  0  0  0
  2  7  1  0
  2  1  1  6
  3  2  1  0
  4  3  1  0
  5  4  1  0
  6  5  2  0
  7  8  2  0
  9  5  1  0
 11 10  1  6
 11 12  1  0
 13 11  1  0
 13 14  1  6
 14  7  1  0
 15 16  2  0
 15 13  1  0
 17 15  1  0
 18 17  1  0
 19 20  1  0
 18 19  1  1
 20 21  1  0
 21 22  2  0
 21 25  1  0
 23 18  1  0
 23 24  1  0
 26 23  2  0
M  END
$$$$
