ETE.pdb
     RDKit          3D

 26 25  0  0  1  0  0  0  0  0999 V2000
   19.5568  -13.1137  -16.9725 N   0  0  0  0  0  0  0  0  0  0  0  0
   19.7677  -11.7381  -17.4239 C   0  0  1  0  0  0  0  0  0  0  0  0
   18.4412  -11.2138  -17.9267 C   0  0  0  0  0  0  0  0  0  0  0  0
   17.9509  -11.9014  -19.1605 C   0  0  0  0  0  0  0  0  0  0  0  0
   16.7106  -11.2647  -19.6214 C   0  0  0  0  0  0  0  0  0  0  0  0
   16.5868  -10.8029  -20.7742 O   0  0  0  0  0  0  0  0  0  0  0  0
   20.2555  -10.9578  -16.2376 C   0  0  0  0  0  0  0  0  0  0  0  0
   19.7317  -11.1935  -15.1174 O   0  0  0  0  0  0  0  0  0  0  0  0
   15.6270  -11.1720  -18.7355 O   0  0  0  0  0  0  0  0  0  0  0  0
   23.3141  -11.1495  -14.7425 C   0  0  0  0  0  0  0  0  0  0  0  0
   23.1810   -9.6709  -14.9549 C   0  0  1  0  0  0  0  0  0  0  0  0
   23.8889   -9.3899  -16.1561 O   0  0  0  0  0  0  0  0  0  0  0  0
   21.7274   -9.2920  -15.1502 C   0  0  2  0  0  0  0  0  0  0  0  0
   21.2788   -9.9804  -16.3680 N   0  0  0  0  0  0  0  0  0  0  0  0
   21.5774   -7.8237  -15.3117 C   0  0  0  0  0  0  0  0  0  0  0  0
   21.6845   -7.4043  -16.4979 O   0  0  0  0  0  0  0  0  0  0  0  0
   21.3327   -6.8927  -14.2955 N   0  0  0  0  0  0  0  0  0  0  0  0
   21.1863   -5.4878  -14.4499 C   0  0  1  0  0  0  0  0  0  0  0  0
   19.7869   -4.9372  -14.4514 C   0  0  0  0  0  0  0  0  0  0  0  0
   19.7342   -3.4529  -14.6462 C   0  0  0  0  0  0  0  0  0  0  0  0
   18.3028   -3.0099  -14.5890 C   0  0  0  0  0  0  0  0  0  0  0  0
   17.3643   -3.8029  -14.3865 O   0  0  0  0  0  0  0  0  0  0  0  0
   22.1641   -4.6612  -13.7307 C   0  0  0  0  0  0  0  0  0  0  0  0
   22.4611   -3.3754  -14.1262 O   0  0  0  0  0  0  0  0  0  0  0  0
   18.0078   -1.6709  -14.7673 O   0  0  0  0  0  0  0  0  0  0  0  0
   22.7458   -5.1332  -12.7308 O   0  0  0  0  0  0  0  0  0  0  0  0
  2  7  1  0
  2  1  1  1
  3  2  1  0
  4  3  1  0
  5  4  1  0
  6  5  2  0
  7  8  2  0
  9  5  1  0
 11 10  1  6
 11 12  1  0
 13 11  1  0
 13 14  1  6
 14  7  1  0
 15 16  2  0
 15 13  1  0
 17 15  1  0
 18 17  1  0
 19 20  1  0
 18 19  1  1
 20 21  1  0
 21 22  2  0
 21 25  1  0
 23 18  1  0
 23 24  1  0
 26 23  2  0
M  END
$$$$
