ETE.pdb
     RDKit          3D

 26 25  0  0  1  0  0  0  0  0999 V2000
   25.6404  -13.2240  -19.0914 N   0  0  0  0  0  0  0  0  0  0  0  0
   24.5354  -12.2667  -19.1480 C   0  0  1  0  0  0  0  0  0  0  0  0
   23.2580  -13.0541  -19.3362 C   0  0  0  0  0  0  0  0  0  0  0  0
   23.1788  -13.7682  -20.6475 C   0  0  0  0  0  0  0  0  0  0  0  0
   21.8637  -14.4073  -20.7835 C   0  0  0  0  0  0  0  0  0  0  0  0
   20.9278  -13.8781  -21.4172 O   0  0  0  0  0  0  0  0  0  0  0  0
   24.5361  -11.5194  -17.8459 C   0  0  0  0  0  0  0  0  0  0  0  0
   24.7241  -12.1742  -16.7872 O   0  0  0  0  0  0  0  0  0  0  0  0
   21.6518  -15.6559  -20.1805 O   0  0  0  0  0  0  0  0  0  0  0  0
   26.3657  -10.9003  -16.1796 C   0  0  0  0  0  0  0  0  0  0  0  0
   25.8216   -9.5104  -16.0338 C   0  0  1  0  0  0  0  0  0  0  0  0
   26.6031   -8.6986  -16.9017 O   0  0  0  0  0  0  0  0  0  0  0  0
   24.3780   -9.4556  -16.4896 C   0  0  2  0  0  0  0  0  0  0  0  0
   24.3319  -10.1138  -17.8023 N   0  0  0  0  0  0  0  0  0  0  0  0
   23.9105   -8.0514  -16.6083 C   0  0  0  0  0  0  0  0  0  0  0  0
   23.8292   -7.6149  -17.7904 O   0  0  0  0  0  0  0  0  0  0  0  0
   23.5605   -7.1963  -15.5568 N   0  0  0  0  0  0  0  0  0  0  0  0
   22.8019   -5.9988  -15.6544 C   0  0  1  0  0  0  0  0  0  0  0  0
   21.6440   -5.9932  -16.6139 C   0  0  0  0  0  0  0  0  0  0  0  0
   21.0211   -4.6415  -16.7831 C   0  0  0  0  0  0  0  0  0  0  0  0
   19.8842   -4.7531  -17.7546 C   0  0  0  0  0  0  0  0  0  0  0  0
   19.1212   -3.8013  -18.0042 O   0  0  0  0  0  0  0  0  0  0  0  0
   22.5455   -5.3006  -14.3881 C   0  0  0  0  0  0  0  0  0  0  0  0
   22.2518   -3.9553  -14.3453 O   0  0  0  0  0  0  0  0  0  0  0  0
   19.6703   -5.9567  -18.4007 O   0  0  0  0  0  0  0  0  0  0  0  0
   22.5940   -5.9408  -13.3163 O   0  0  0  0  0  0  0  0  0  0  0  0
  2  7  1  0
  2  1  1  1
  3  2  1  0
  4  3  1  0
  5  4  1  0
  6  5  2  0
  7  8  2  0
  9  5  1  0
 11 10  1  6
 11 12  1  0
 13 11  1  0
 13 14  1  6
 14  7  1  0
 15 16  2  0
 15 13  1  0
 17 15  1  0
 18 17  1  0
 19 20  1  0
 18 19  1  1
 20 21  1  0
 21 22  2  0
 21 25  1  0
 23 18  1  0
 23 24  1  0
 26 23  2  0
M  END
$$$$
