ETE.pdb
     RDKit          3D

 26 25  0  0  1  0  0  0  0  0999 V2000
   19.1482  -12.8820  -17.9218 N   0  0  0  0  0  0  0  0  0  0  0  0
   17.9518  -12.0789  -18.1755 C   0  0  1  0  0  0  0  0  0  0  0  0
   17.0111  -12.2792  -17.0084 C   0  0  0  0  0  0  0  0  0  0  0  0
   17.6945  -12.7177  -15.7529 C   0  0  0  0  0  0  0  0  0  0  0  0
   16.6909  -13.0411  -14.7310 C   0  0  0  0  0  0  0  0  0  0  0  0
   15.4834  -13.1936  -15.0072 O   0  0  0  0  0  0  0  0  0  0  0  0
   18.3986  -10.6498  -18.2851 C   0  0  0  0  0  0  0  0  0  0  0  0
   19.5799  -10.3712  -17.9507 O   0  0  0  0  0  0  0  0  0  0  0  0
   17.1032  -13.1838  -13.3979 O   0  0  0  0  0  0  0  0  0  0  0  0
   17.4272   -6.0155  -19.6625 C   0  0  0  0  0  0  0  0  0  0  0  0
   17.0126   -7.4547  -19.5868 C   0  0  1  0  0  0  0  0  0  0  0  0
   17.0074   -7.9243  -20.9294 O   0  0  0  0  0  0  0  0  0  0  0  0
   18.0259   -8.2577  -18.7974 C   0  0  2  0  0  0  0  0  0  0  0  0
   17.5194   -9.6360  -18.7524 N   0  0  0  0  0  0  0  0  0  0  0  0
   18.1708   -7.7239  -17.4195 C   0  0  0  0  0  0  0  0  0  0  0  0
   17.2283   -8.0181  -16.6323 O   0  0  0  0  0  0  0  0  0  0  0  0
   19.2294   -6.9492  -16.9313 N   0  0  0  0  0  0  0  0  0  0  0  0
   19.3403   -6.3887  -15.6303 C   0  0  1  0  0  0  0  0  0  0  0  0
   20.7070   -5.9464  -15.1851 C   0  0  0  0  0  0  0  0  0  0  0  0
   20.7387   -5.4529  -13.7712 C   0  0  0  0  0  0  0  0  0  0  0  0
   22.0901   -4.8638  -13.4967 C   0  0  0  0  0  0  0  0  0  0  0  0
   23.1437   -5.5131  -13.6343 O   0  0  0  0  0  0  0  0  0  0  0  0
   18.2496   -5.4922  -15.2263 C   0  0  0  0  0  0  0  0  0  0  0  0
   17.6548   -5.5822  -13.9870 O   0  0  0  0  0  0  0  0  0  0  0  0
   22.1755   -3.5500  -13.0746 O   0  0  0  0  0  0  0  0  0  0  0  0
   17.8461   -4.6212  -16.0262 O   0  0  0  0  0  0  0  0  0  0  0  0
  2  7  1  0
  2  1  1  1
  3  2  1  0
  4  3  1  0
  5  4  1  0
  6  5  2  0
  7  8  2  0
  9  5  1  0
 11 10  1  6
 11 12  1  0
 13 11  1  0
 13 14  1  1
 14  7  1  0
 15 16  2  0
 15 13  1  0
 17 15  1  0
 18 17  1  0
 19 20  1  0
 18 19  1  6
 20 21  1  0
 21 22  2  0
 21 25  1  0
 23 18  1  0
 23 24  1  0
 26 23  2  0
M  END
$$$$
