ETE.pdb
     RDKit          3D

 26 25  0  0  1  0  0  0  0  0999 V2000
   23.1122  -14.6303  -17.8347 N   0  0  0  0  0  0  0  0  0  0  0  0
   23.0280  -13.2801  -18.3919 C   0  0  1  0  0  0  0  0  0  0  0  0
   21.6960  -13.1593  -19.0977 C   0  0  0  0  0  0  0  0  0  0  0  0
   21.5795  -14.0198  -20.3148 C   0  0  0  0  0  0  0  0  0  0  0  0
   22.2113  -13.3480  -21.4575 C   0  0  0  0  0  0  0  0  0  0  0  0
   22.0279  -12.1384  -21.7043 O   0  0  0  0  0  0  0  0  0  0  0  0
   23.1306  -12.3234  -17.2393 C   0  0  0  0  0  0  0  0  0  0  0  0
   22.5841  -12.6454  -16.1518 O   0  0  0  0  0  0  0  0  0  0  0  0
   23.0500  -14.0911  -22.3012 O   0  0  0  0  0  0  0  0  0  0  0  0
   26.2055  -11.0569  -15.8142 C   0  0  0  0  0  0  0  0  0  0  0  0
   25.3586   -9.8378  -16.0279 C   0  0  1  0  0  0  0  0  0  0  0  0
   25.8073   -9.2676  -17.2512 O   0  0  0  0  0  0  0  0  0  0  0  0
   23.9018  -10.2242  -16.1799 C   0  0  2  0  0  0  0  0  0  0  0  0
   23.8232  -11.0890  -17.3650 N   0  0  0  0  0  0  0  0  0  0  0  0
   23.0498   -9.0231  -16.3695 C   0  0  0  0  0  0  0  0  0  0  0  0
   22.5710   -8.8872  -17.5300 O   0  0  0  0  0  0  0  0  0  0  0  0
   22.7385   -8.0594  -15.4033 N   0  0  0  0  0  0  0  0  0  0  0  0
   21.7831   -7.0147  -15.5247 C   0  0  1  0  0  0  0  0  0  0  0  0
   20.4665   -7.3566  -16.1661 C   0  0  0  0  0  0  0  0  0  0  0  0
   19.5421   -6.1837  -16.2830 C   0  0  0  0  0  0  0  0  0  0  0  0
   18.2342   -6.6553  -16.8449 C   0  0  0  0  0  0  0  0  0  0  0  0
   17.2643   -5.8928  -17.0136 O   0  0  0  0  0  0  0  0  0  0  0  0
   21.6818   -6.1055  -14.3759 C   0  0  0  0  0  0  0  0  0  0  0  0
   21.2225   -4.8135  -14.5086 O   0  0  0  0  0  0  0  0  0  0  0  0
   18.0941   -7.9867  -17.1905 O   0  0  0  0  0  0  0  0  0  0  0  0
   22.0207   -6.5109  -13.2437 O   0  0  0  0  0  0  0  0  0  0  0  0
  2  7  1  0
  2  1  1  1
  3  2  1  0
  4  3  1  0
  5  4  1  0
  6  5  2  0
  7  8  2  0
  9  5  1  0
 11 10  1  6
 11 12  1  0
 13 11  1  0
 13 14  1  6
 14  7  1  0
 15 16  2  0
 15 13  1  0
 17 15  1  0
 18 17  1  0
 19 20  1  0
 18 19  1  1
 20 21  1  0
 21 22  2  0
 21 25  1  0
 23 18  1  0
 23 24  1  0
 26 23  2  0
M  END
$$$$
