ETE.pdb
     RDKit          3D

 26 25  0  0  1  0  0  0  0  0999 V2000
   25.8716  -20.7213  -10.2964 N   0  0  0  0  0  0  0  0  0  0  0  0
   25.0122  -21.1173  -11.4124 C   0  0  1  0  0  0  0  0  0  0  0  0
   23.6102  -20.6442  -11.0996 C   0  0  0  0  0  0  0  0  0  0  0  0
   22.5550  -21.6686  -11.3695 C   0  0  0  0  0  0  0  0  0  0  0  0
   21.2324  -21.1076  -11.0660 C   0  0  0  0  0  0  0  0  0  0  0  0
   20.3049  -21.0976  -11.9010 O   0  0  0  0  0  0  0  0  0  0  0  0
   25.5575  -20.4517  -12.6428 C   0  0  0  0  0  0  0  0  0  0  0  0
   25.9175  -19.2486  -12.5552 O   0  0  0  0  0  0  0  0  0  0  0  0
   21.0030  -20.5638   -9.7934 O   0  0  0  0  0  0  0  0  0  0  0  0
   27.9383  -20.5786  -16.7805 C   0  0  0  0  0  0  0  0  0  0  0  0
   27.2817  -21.2830  -15.6309 C   0  0  1  0  0  0  0  0  0  0  0  0
   28.3017  -21.4603  -14.6555 O   0  0  0  0  0  0  0  0  0  0  0  0
   26.1878  -20.4206  -15.0356 C   0  0  2  0  0  0  0  0  0  0  0  0
   25.6674  -21.1536  -13.8735 N   0  0  0  0  0  0  0  0  0  0  0  0
   25.0998  -20.1876  -16.0186 C   0  0  0  0  0  0  0  0  0  0  0  0
   24.0779  -20.9132  -15.8645 O   0  0  0  0  0  0  0  0  0  0  0  0
   25.1067  -19.2607  -17.0674 N   0  0  0  0  0  0  0  0  0  0  0  0
   23.9736  -18.6340  -17.6526 C   0  0  1  0  0  0  0  0  0  0  0  0
   22.8884  -18.1659  -16.7226 C   0  0  0  0  0  0  0  0  0  0  0  0
   21.6816  -17.6400  -17.4373 C   0  0  0  0  0  0  0  0  0  0  0  0
   20.6754  -17.1933  -16.4192 C   0  0  0  0  0  0  0  0  0  0  0  0
   20.3656  -15.9972  -16.2643 O   0  0  0  0  0  0  0  0  0  0  0  0
   24.2542  -17.7209  -18.7680 C   0  0  0  0  0  0  0  0  0  0  0  0
   23.4760  -17.6996  -19.9046 O   0  0  0  0  0  0  0  0  0  0  0  0
   20.0652  -18.1414  -15.6189 O   0  0  0  0  0  0  0  0  0  0  0  0
   25.2254  -16.9389  -18.6884 O   0  0  0  0  0  0  0  0  0  0  0  0
  2  7  1  0
  2  1  1  1
  3  2  1  0
  4  3  1  0
  5  4  1  0
  6  5  2  0
  7  8  2  0
  9  5  1  0
 11 10  1  6
 11 12  1  0
 13 11  1  0
 13 14  1  1
 14  7  1  0
 15 16  2  0
 15 13  1  0
 17 15  1  0
 18 17  1  0
 19 20  1  0
 18 19  1  1
 20 21  1  0
 21 22  2  0
 21 25  1  0
 23 18  1  0
 23 24  1  0
 26 23  2  0
M  END
$$$$
