ETE.pdb
     RDKit          3D

 26 25  0  0  1  0  0  0  0  0999 V2000
   16.0225  -13.4091  -14.6749 N   0  0  0  0  0  0  0  0  0  0  0  0
   16.0522  -12.1018  -15.3312 C   0  0  1  0  0  0  0  0  0  0  0  0
   15.0769  -11.2033  -14.6042 C   0  0  0  0  0  0  0  0  0  0  0  0
   13.6428  -11.5448  -14.8539 C   0  0  0  0  0  0  0  0  0  0  0  0
   12.7777  -10.6142  -14.1178 C   0  0  0  0  0  0  0  0  0  0  0  0
   13.2370   -9.6815  -13.4274 O   0  0  0  0  0  0  0  0  0  0  0  0
   17.4595  -11.5897  -15.2240 C   0  0  0  0  0  0  0  0  0  0  0  0
   18.2278  -12.1387  -14.3914 O   0  0  0  0  0  0  0  0  0  0  0  0
   11.3867  -10.7789  -14.1931 O   0  0  0  0  0  0  0  0  0  0  0  0
   21.5052  -10.5162  -17.0657 C   0  0  0  0  0  0  0  0  0  0  0  0
   20.0648  -10.9289  -17.0016 C   0  0  1  0  0  0  0  0  0  0  0  0
   20.0743  -12.3003  -16.6246 O   0  0  0  0  0  0  0  0  0  0  0  0
   19.3339  -10.1391  -15.9353 C   0  0  2  0  0  0  0  0  0  0  0  0
   17.9179  -10.5174  -16.0359 N   0  0  0  0  0  0  0  0  0  0  0  0
   19.4870   -8.6789  -16.1561 C   0  0  0  0  0  0  0  0  0  0  0  0
   18.6714   -8.1759  -16.9785 O   0  0  0  0  0  0  0  0  0  0  0  0
   20.4260   -7.8367  -15.5492 N   0  0  0  0  0  0  0  0  0  0  0  0
   20.6359   -6.4596  -15.8293 C   0  0  1  0  0  0  0  0  0  0  0  0
   21.4367   -5.6681  -14.8324 C   0  0  0  0  0  0  0  0  0  0  0  0
   20.8609   -5.7008  -13.4500 C   0  0  0  0  0  0  0  0  0  0  0  0
   21.7884   -4.9717  -12.5244 C   0  0  0  0  0  0  0  0  0  0  0  0
   22.6685   -5.5539  -11.8634 O   0  0  0  0  0  0  0  0  0  0  0  0
   20.9146   -6.1290  -17.2328 C   0  0  0  0  0  0  0  0  0  0  0  0
   20.2098   -5.1545  -17.9047 O   0  0  0  0  0  0  0  0  0  0  0  0
   21.6661   -3.6004  -12.3961 O   0  0  0  0  0  0  0  0  0  0  0  0
   21.8159   -6.7465  -17.8390 O   0  0  0  0  0  0  0  0  0  0  0  0
  2  7  1  0
  2  1  1  1
  3  2  1  0
  4  3  1  0
  5  4  1  0
  6  5  2  0
  7  8  2  0
  9  5  1  0
 11 10  1  1
 11 12  1  0
 13 11  1  0
 13 14  1  6
 14  7  1  0
 15 16  2  0
 15 13  1  0
 17 15  1  0
 18 17  1  0
 19 20  1  0
 18 19  1  1
 20 21  1  0
 21 22  2  0
 21 25  1  0
 23 18  1  0
 23 24  1  0
 26 23  2  0
M  END
$$$$
