ETE.pdb
     RDKit          3D

 26 25  0  0  1  0  0  0  0  0999 V2000
   19.7990  -13.3678  -17.0986 N   0  0  0  0  0  0  0  0  0  0  0  0
   20.3189  -12.1434  -17.7078 C   0  0  1  0  0  0  0  0  0  0  0  0
   19.1348  -11.3296  -18.1800 C   0  0  0  0  0  0  0  0  0  0  0  0
   18.3135  -12.0130  -19.2259 C   0  0  0  0  0  0  0  0  0  0  0  0
   17.1641  -11.1707  -19.5802 C   0  0  0  0  0  0  0  0  0  0  0  0
   16.3221  -11.5166  -20.4339 O   0  0  0  0  0  0  0  0  0  0  0  0
   21.0962  -11.4214  -16.6454 C   0  0  0  0  0  0  0  0  0  0  0  0
   20.7023  -11.5191  -15.4537 O   0  0  0  0  0  0  0  0  0  0  0  0
   17.0067   -9.9341  -18.9370 O   0  0  0  0  0  0  0  0  0  0  0  0
   25.1709   -9.5076  -14.9509 C   0  0  0  0  0  0  0  0  0  0  0  0
   24.3840  -10.2735  -15.9723 C   0  0  1  0  0  0  0  0  0  0  0  0
   24.5498  -11.6454  -15.6355 O   0  0  0  0  0  0  0  0  0  0  0  0
   22.9125   -9.9265  -15.8775 C   0  0  2  0  0  0  0  0  0  0  0  0
   22.2444  -10.6490  -16.9683 N   0  0  0  0  0  0  0  0  0  0  0  0
   22.6996   -8.4650  -16.0303 C   0  0  0  0  0  0  0  0  0  0  0  0
   22.8804   -8.0194  -17.1979 O   0  0  0  0  0  0  0  0  0  0  0  0
   22.3252   -7.5662  -15.0248 N   0  0  0  0  0  0  0  0  0  0  0  0
   22.0894   -6.1733  -15.1773 C   0  0  1  0  0  0  0  0  0  0  0  0
   20.8862   -5.7623  -15.9804 C   0  0  0  0  0  0  0  0  0  0  0  0
   19.5975   -5.8990  -15.2293 C   0  0  0  0  0  0  0  0  0  0  0  0
   18.4776   -5.4165  -16.1021 C   0  0  0  0  0  0  0  0  0  0  0  0
   17.7937   -4.4146  -15.8207 O   0  0  0  0  0  0  0  0  0  0  0  0
   22.3356   -5.3500  -13.9865 C   0  0  0  0  0  0  0  0  0  0  0  0
   22.4958   -3.9840  -14.0664 O   0  0  0  0  0  0  0  0  0  0  0  0
   18.1890   -6.1066  -17.2649 O   0  0  0  0  0  0  0  0  0  0  0  0
   22.4025   -5.8996  -12.8664 O   0  0  0  0  0  0  0  0  0  0  0  0
  2  7  1  0
  2  1  1  1
  3  2  1  0
  4  3  1  0
  5  4  1  0
  6  5  2  0
  7  8  2  0
  9  5  1  0
 11 10  1  1
 11 12  1  0
 13 11  1  0
 13 14  1  6
 14  7  1  0
 15 16  2  0
 15 13  1  0
 17 15  1  0
 18 17  1  0
 19 20  1  0
 18 19  1  1
 20 21  1  0
 21 22  2  0
 21 25  1  0
 23 18  1  0
 23 24  1  0
 26 23  2  0
M  END
$$$$
