ETE.pdb
     RDKit          3D

 26 25  0  0  1  0  0  0  0  0999 V2000
   18.5092  -12.5290  -17.3667 N   0  0  0  0  0  0  0  0  0  0  0  0
   18.3914  -11.0752  -17.2526 C   0  0  1  0  0  0  0  0  0  0  0  0
   16.9680  -10.7624  -16.8484 C   0  0  0  0  0  0  0  0  0  0  0  0
   15.9639  -11.0336  -17.9225 C   0  0  0  0  0  0  0  0  0  0  0  0
   14.6337  -10.6004  -17.4763 C   0  0  0  0  0  0  0  0  0  0  0  0
   13.5940  -10.8856  -18.1051 O   0  0  0  0  0  0  0  0  0  0  0  0
   19.3719  -10.6373  -16.2033 C   0  0  0  0  0  0  0  0  0  0  0  0
   19.2168  -11.0686  -15.0308 O   0  0  0  0  0  0  0  0  0  0  0  0
   14.5274   -9.8395  -16.3027 O   0  0  0  0  0  0  0  0  0  0  0  0
   23.2570   -9.8335  -16.8937 C   0  0  0  0  0  0  0  0  0  0  0  0
   22.6106  -10.1307  -15.5735 C   0  0  1  0  0  0  0  0  0  0  0  0
   23.5351   -9.6923  -14.5855 O   0  0  0  0  0  0  0  0  0  0  0  0
   21.3281   -9.3392  -15.4210 C   0  0  2  0  0  0  0  0  0  0  0  0
   20.4464   -9.7620  -16.5174 N   0  0  0  0  0  0  0  0  0  0  0  0
   21.5891   -7.8805  -15.5122 C   0  0  0  0  0  0  0  0  0  0  0  0
   21.5042   -7.3956  -16.6751 O   0  0  0  0  0  0  0  0  0  0  0  0
   21.9089   -7.0218  -14.4541 N   0  0  0  0  0  0  0  0  0  0  0  0
   21.7961   -5.6053  -14.4479 C   0  0  1  0  0  0  0  0  0  0  0  0
   20.5803   -5.0083  -15.1012 C   0  0  0  0  0  0  0  0  0  0  0  0
   20.6226   -3.5129  -15.1771 C   0  0  0  0  0  0  0  0  0  0  0  0
   19.3416   -3.0250  -15.7852 C   0  0  0  0  0  0  0  0  0  0  0  0
   19.0608   -1.8151  -15.8736 O   0  0  0  0  0  0  0  0  0  0  0  0
   22.2091   -4.9376  -13.2068 C   0  0  0  0  0  0  0  0  0  0  0  0
   22.3909   -5.6334  -12.0317 O   0  0  0  0  0  0  0  0  0  0  0  0
   18.4338   -3.9496  -16.2679 O   0  0  0  0  0  0  0  0  0  0  0  0
   22.4023   -3.7032  -13.2118 O   0  0  0  0  0  0  0  0  0  0  0  0
  2  7  1  0
  2  1  1  1
  3  2  1  0
  4  3  1  0
  5  4  1  0
  6  5  2  0
  7  8  2  0
  9  5  1  0
 11 10  1  6
 11 12  1  0
 13 11  1  0
 13 14  1  6
 14  7  1  0
 15 16  2  0
 15 13  1  0
 17 15  1  0
 18 17  1  0
 19 20  1  0
 18 19  1  1
 20 21  1  0
 21 22  2  0
 21 25  1  0
 23 18  1  0
 23 24  1  0
 26 23  2  0
M  END
$$$$
