ETE.pdb
     RDKit          3D

 26 25  0  0  1  0  0  0  0  0999 V2000
   16.9507  -13.5471  -16.5930 N   0  0  0  0  0  0  0  0  0  0  0  0
   16.4687  -12.1684  -16.5069 C   0  0  1  0  0  0  0  0  0  0  0  0
   15.8717  -11.9782  -15.1304 C   0  0  0  0  0  0  0  0  0  0  0  0
   14.6534  -12.8088  -14.8827 C   0  0  0  0  0  0  0  0  0  0  0  0
   14.2724  -12.7175  -13.4675 C   0  0  0  0  0  0  0  0  0  0  0  0
   14.8854  -11.9924  -12.6576 O   0  0  0  0  0  0  0  0  0  0  0  0
   17.6561  -11.2751  -16.7216 C   0  0  0  0  0  0  0  0  0  0  0  0
   18.7314  -11.8022  -17.1100 O   0  0  0  0  0  0  0  0  0  0  0  0
   13.1815  -13.4712  -13.0098 O   0  0  0  0  0  0  0  0  0  0  0  0
   18.9210  -10.5301  -18.8621 C   0  0  0  0  0  0  0  0  0  0  0  0
   18.8047   -9.1091  -18.3969 C   0  0  1  0  0  0  0  0  0  0  0  0
   17.5780   -8.6284  -18.9327 O   0  0  0  0  0  0  0  0  0  0  0  0
   18.7281   -9.0507  -16.8851 C   0  0  2  0  0  0  0  0  0  0  0  0
   17.5756   -9.8744  -16.4957 N   0  0  0  0  0  0  0  0  0  0  0  0
   18.5374   -7.6551  -16.4156 C   0  0  0  0  0  0  0  0  0  0  0  0
   17.3574   -7.2163  -16.5140 O   0  0  0  0  0  0  0  0  0  0  0  0
   19.5205   -6.8103  -15.8875 N   0  0  0  0  0  0  0  0  0  0  0  0
   19.3340   -5.4826  -15.4169 C   0  0  1  0  0  0  0  0  0  0  0  0
   20.4380   -4.8833  -14.5901 C   0  0  0  0  0  0  0  0  0  0  0  0
   21.0387   -5.8486  -13.6148 C   0  0  0  0  0  0  0  0  0  0  0  0
   22.0321   -5.1168  -12.7625 C   0  0  0  0  0  0  0  0  0  0  0  0
   23.2617   -5.2188  -12.9303 O   0  0  0  0  0  0  0  0  0  0  0  0
   18.7105   -4.5508  -16.3654 C   0  0  0  0  0  0  0  0  0  0  0  0
   18.6019   -4.8426  -17.7074 O   0  0  0  0  0  0  0  0  0  0  0  0
   21.5706   -4.2961  -11.7500 O   0  0  0  0  0  0  0  0  0  0  0  0
   18.2641   -3.4610  -15.9480 O   0  0  0  0  0  0  0  0  0  0  0  0
  2  7  1  0
  2  1  1  1
  3  2  1  0
  4  3  1  0
  5  4  1  0
  6  5  2  0
  7  8  2  0
  9  5  1  0
 11 10  1  1
 11 12  1  0
 13 11  1  0
 13 14  1  6
 14  7  1  0
 15 16  2  0
 15 13  1  0
 17 15  1  0
 18 17  1  0
 19 20  1  0
 18 19  1  6
 20 21  1  0
 21 22  2  0
 21 25  1  0
 23 18  1  0
 23 24  1  0
 26 23  2  0
M  END
$$$$
