ETE.pdb
     RDKit          3D

 26 25  0  0  1  0  0  0  0  0999 V2000
   27.2329  -22.1505  -13.0698 N   0  0  0  0  0  0  0  0  0  0  0  0
   26.2735  -21.5017  -12.1758 C   0  0  1  0  0  0  0  0  0  0  0  0
   27.0477  -20.9419  -11.0035 C   0  0  0  0  0  0  0  0  0  0  0  0
   26.1941  -20.2309  -10.0027 C   0  0  0  0  0  0  0  0  0  0  0  0
   24.9828  -21.0177   -9.7385 C   0  0  0  0  0  0  0  0  0  0  0  0
   23.8567  -20.6644  -10.1443 O   0  0  0  0  0  0  0  0  0  0  0  0
   25.6051  -20.4139  -12.9657 C   0  0  0  0  0  0  0  0  0  0  0  0
   26.3155  -19.4605  -13.3797 O   0  0  0  0  0  0  0  0  0  0  0  0
   25.0948  -22.2079   -9.0046 O   0  0  0  0  0  0  0  0  0  0  0  0
   23.9730  -21.1551  -16.0190 C   0  0  0  0  0  0  0  0  0  0  0  0
   24.3557  -19.7888  -15.5333 C   0  0  1  0  0  0  0  0  0  0  0  0
   23.8655  -18.8814  -16.5128 O   0  0  0  0  0  0  0  0  0  0  0  0
   23.6788  -19.4868  -14.2122 C   0  0  2  0  0  0  0  0  0  0  0  0
   24.2118  -20.4530  -13.2422 N   0  0  0  0  0  0  0  0  0  0  0  0
   22.2058  -19.6371  -14.3226 C   0  0  0  0  0  0  0  0  0  0  0  0
   21.7602  -20.7729  -13.9973 O   0  0  0  0  0  0  0  0  0  0  0  0
   21.2959  -18.6591  -14.7405 N   0  0  0  0  0  0  0  0  0  0  0  0
   19.9011  -18.6281  -14.4708 C   0  0  1  0  0  0  0  0  0  0  0  0
   19.1963  -17.3103  -14.6387 C   0  0  0  0  0  0  0  0  0  0  0  0
   17.7594  -17.3489  -14.2172 C   0  0  0  0  0  0  0  0  0  0  0  0
   17.1407  -16.0108  -14.4917 C   0  0  0  0  0  0  0  0  0  0  0  0
   17.5261  -14.9676  -13.9316 O   0  0  0  0  0  0  0  0  0  0  0  0
   19.1348  -19.7911  -14.9366 C   0  0  0  0  0  0  0  0  0  0  0  0
   18.2788  -20.4791  -14.1049 O   0  0  0  0  0  0  0  0  0  0  0  0
   16.1021  -15.9262  -15.4006 O   0  0  0  0  0  0  0  0  0  0  0  0
   19.2595  -20.1712  -16.1202 O   0  0  0  0  0  0  0  0  0  0  0  0
  2  7  1  0
  2  1  1  6
  3  2  1  0
  4  3  1  0
  5  4  1  0
  6  5  2  0
  7  8  2  0
  9  5  1  0
 11 10  1  6
 11 12  1  0
 13 11  1  0
 13 14  1  1
 14  7  1  0
 15 16  2  0
 15 13  1  0
 17 15  1  0
 18 17  1  0
 19 20  1  0
 18 19  1  6
 20 21  1  0
 21 22  2  0
 21 25  1  0
 23 18  1  0
 23 24  1  0
 26 23  2  0
M  END
$$$$
