ETE.pdb
     RDKit          3D

 26 25  0  0  1  0  0  0  0  0999 V2000
   15.7874  -11.1939  -16.7711 N   0  0  0  0  0  0  0  0  0  0  0  0
   16.5191  -10.6190  -15.6420 C   0  0  1  0  0  0  0  0  0  0  0  0
   17.5599  -11.6279  -15.2107 C   0  0  0  0  0  0  0  0  0  0  0  0
   18.1077  -12.4460  -16.3360 C   0  0  0  0  0  0  0  0  0  0  0  0
   19.1610  -13.3366  -15.8324 C   0  0  0  0  0  0  0  0  0  0  0  0
   18.9234  -14.5006  -15.4501 O   0  0  0  0  0  0  0  0  0  0  0  0
   17.1517   -9.3484  -16.1313 C   0  0  0  0  0  0  0  0  0  0  0  0
   17.4208   -9.2546  -17.3575 O   0  0  0  0  0  0  0  0  0  0  0  0
   20.4803  -12.8629  -15.7790 O   0  0  0  0  0  0  0  0  0  0  0  0
   17.8992   -4.6111  -15.7321 C   0  0  0  0  0  0  0  0  0  0  0  0
   17.2182   -5.9039  -15.3945 C   0  0  1  0  0  0  0  0  0  0  0  0
   16.0285   -5.9265  -16.1736 O   0  0  0  0  0  0  0  0  0  0  0  0
   18.0833   -7.0801  -15.7982 C   0  0  2  0  0  0  0  0  0  0  0  0
   17.4407   -8.2784  -15.2419 N   0  0  0  0  0  0  0  0  0  0  0  0
   19.4577   -6.9412  -15.2541 C   0  0  0  0  0  0  0  0  0  0  0  0
   19.5762   -7.2196  -14.0282 O   0  0  0  0  0  0  0  0  0  0  0  0
   20.5989   -6.5433  -15.9603 N   0  0  0  0  0  0  0  0  0  0  0  0
   21.9031   -6.3566  -15.4281 C   0  0  1  0  0  0  0  0  0  0  0  0
   23.0559   -6.4205  -16.3918 C   0  0  0  0  0  0  0  0  0  0  0  0
   24.3864   -6.2018  -15.7394 C   0  0  0  0  0  0  0  0  0  0  0  0
   25.4502   -6.2219  -16.7960 C   0  0  0  0  0  0  0  0  0  0  0  0
   25.9448   -7.2800  -17.2278 O   0  0  0  0  0  0  0  0  0  0  0  0
   22.0293   -5.3183  -14.3973 C   0  0  0  0  0  0  0  0  0  0  0  0
   22.5934   -5.5783  -13.1676 O   0  0  0  0  0  0  0  0  0  0  0  0
   25.9029   -5.0227  -17.3144 O   0  0  0  0  0  0  0  0  0  0  0  0
   21.6147   -4.1644  -14.6378 O   0  0  0  0  0  0  0  0  0  0  0  0
  2  7  1  0
  2  1  1  6
  3  2  1  0
  4  3  1  0
  5  4  1  0
  6  5  2  0
  7  8  2  0
  9  5  1  0
 11 10  1  6
 11 12  1  0
 13 11  1  0
 13 14  1  1
 14  7  1  0
 15 16  2  0
 15 13  1  0
 17 15  1  0
 18 17  1  0
 19 20  1  0
 18 19  1  6
 20 21  1  0
 21 22  2  0
 21 25  1  0
 23 18  1  0
 23 24  1  0
 26 23  2  0
M  END
$$$$
