ETE.pdb
     RDKit          3D

 26 25  0  0  1  0  0  0  0  0999 V2000
   14.3896  -13.7233  -15.1425 N   0  0  0  0  0  0  0  0  0  0  0  0
   15.7671  -13.4219  -14.7524 C   0  0  1  0  0  0  0  0  0  0  0  0
   16.6511  -14.5103  -15.3192 C   0  0  0  0  0  0  0  0  0  0  0  0
   16.4310  -15.8507  -14.6944 C   0  0  0  0  0  0  0  0  0  0  0  0
   17.3262  -16.8371  -15.3125 C   0  0  0  0  0  0  0  0  0  0  0  0
   18.5004  -17.0064  -14.9252 O   0  0  0  0  0  0  0  0  0  0  0  0
   16.1034  -12.0792  -15.3340 C   0  0  0  0  0  0  0  0  0  0  0  0
   15.3856  -11.6433  -16.2719 O   0  0  0  0  0  0  0  0  0  0  0  0
   16.8451  -17.6161  -16.3751 O   0  0  0  0  0  0  0  0  0  0  0  0
   14.9131   -9.7668  -15.5559 C   0  0  0  0  0  0  0  0  0  0  0  0
   16.1502   -9.1718  -14.9519 C   0  0  1  0  0  0  0  0  0  0  0  0
   15.9897   -9.2985  -13.5443 O   0  0  0  0  0  0  0  0  0  0  0  0
   17.3757   -9.9570  -15.3717 C   0  0  2  0  0  0  0  0  0  0  0  0
   17.1982  -11.3168  -14.8446 N   0  0  0  0  0  0  0  0  0  0  0  0
   18.6117   -9.3527  -14.8136 C   0  0  0  0  0  0  0  0  0  0  0  0
   18.8234   -9.6027  -13.5941 O   0  0  0  0  0  0  0  0  0  0  0  0
   19.5355   -8.5566  -15.5007 N   0  0  0  0  0  0  0  0  0  0  0  0
   20.7433   -8.0184  -14.9805 C   0  0  1  0  0  0  0  0  0  0  0  0
   21.9981   -8.2455  -15.7776 C   0  0  0  0  0  0  0  0  0  0  0  0
   22.1912   -9.6741  -16.1845 C   0  0  0  0  0  0  0  0  0  0  0  0
   23.4941   -9.7944  -16.9173 C   0  0  0  0  0  0  0  0  0  0  0  0
   24.2260   -8.8135  -17.1467 O   0  0  0  0  0  0  0  0  0  0  0  0
   20.6396   -6.6836  -14.3770 C   0  0  0  0  0  0  0  0  0  0  0  0
   21.5768   -6.2143  -13.4829 O   0  0  0  0  0  0  0  0  0  0  0  0
   23.9032  -11.0397  -17.3573 O   0  0  0  0  0  0  0  0  0  0  0  0
   19.6756   -5.9488  -14.6802 O   0  0  0  0  0  0  0  0  0  0  0  0
  2  7  1  0
  2  1  1  6
  3  2  1  0
  4  3  1  0
  5  4  1  0
  6  5  2  0
  7  8  2  0
  9  5  1  0
 11 10  1  6
 11 12  1  0
 13 11  1  0
 13 14  1  1
 14  7  1  0
 15 16  2  0
 15 13  1  0
 17 15  1  0
 18 17  1  0
 19 20  1  0
 18 19  1  6
 20 21  1  0
 21 22  2  0
 21 25  1  0
 23 18  1  0
 23 24  1  0
 26 23  2  0
M  END
$$$$
