ETE.pdb
     RDKit          3D

 26 25  0  0  1  0  0  0  0  0999 V2000
   14.6662  -14.1129  -14.9223 N   0  0  0  0  0  0  0  0  0  0  0  0
   15.3505  -13.5651  -13.7508 C   0  0  1  0  0  0  0  0  0  0  0  0
   16.6267  -14.3530  -13.5572 C   0  0  0  0  0  0  0  0  0  0  0  0
   16.4279  -15.6578  -12.8546 C   0  0  0  0  0  0  0  0  0  0  0  0
   17.1485  -16.7189  -13.5694 C   0  0  0  0  0  0  0  0  0  0  0  0
   17.7584  -16.5077  -14.6376 O   0  0  0  0  0  0  0  0  0  0  0  0
   15.6333  -12.1202  -14.0447 C   0  0  0  0  0  0  0  0  0  0  0  0
   15.8118  -11.7836  -15.2446 O   0  0  0  0  0  0  0  0  0  0  0  0
   17.1515  -18.0152  -13.0335 O   0  0  0  0  0  0  0  0  0  0  0  0
   13.5817   -9.5557  -14.2684 C   0  0  0  0  0  0  0  0  0  0  0  0
   14.5403   -9.0758  -13.2196 C   0  0  1  0  0  0  0  0  0  0  0  0
   13.9812   -9.4777  -11.9751 O   0  0  0  0  0  0  0  0  0  0  0  0
   15.8874   -9.7488  -13.3847 C   0  0  2  0  0  0  0  0  0  0  0  0
   15.6984  -11.1550  -13.0037 N   0  0  0  0  0  0  0  0  0  0  0  0
   16.9080   -9.1179  -12.5101 C   0  0  0  0  0  0  0  0  0  0  0  0
   17.2496   -9.8058  -11.5079 O   0  0  0  0  0  0  0  0  0  0  0  0
   17.5078   -7.8668  -12.6952 N   0  0  0  0  0  0  0  0  0  0  0  0
   18.5382   -7.2947  -11.9015 C   0  0  1  0  0  0  0  0  0  0  0  0
   19.7798   -6.8329  -12.6132 C   0  0  0  0  0  0  0  0  0  0  0  0
   20.8192   -6.2750  -11.6900 C   0  0  0  0  0  0  0  0  0  0  0  0
   21.9159   -5.6656  -12.5112 C   0  0  0  0  0  0  0  0  0  0  0  0
   22.4378   -6.2567  -13.4750 O   0  0  0  0  0  0  0  0  0  0  0  0
   18.0923   -6.4078  -10.8192 C   0  0  0  0  0  0  0  0  0  0  0  0
   17.0327   -5.5418  -10.9778 O   0  0  0  0  0  0  0  0  0  0  0  0
   22.3689   -4.3992  -12.1906 O   0  0  0  0  0  0  0  0  0  0  0  0
   18.6879   -6.4359   -9.7213 O   0  0  0  0  0  0  0  0  0  0  0  0
  2  7  1  0
  2  1  1  6
  3  2  1  0
  4  3  1  0
  5  4  1  0
  6  5  2  0
  7  8  2  0
  9  5  1  0
 11 10  1  6
 11 12  1  0
 13 11  1  0
 13 14  1  1
 14  7  1  0
 15 16  2  0
 15 13  1  0
 17 15  1  0
 18 17  1  0
 19 20  1  0
 18 19  1  6
 20 21  1  0
 21 22  2  0
 21 25  1  0
 23 18  1  0
 23 24  1  0
 26 23  2  0
M  END
$$$$
