LEL.pdb
     RDKit          3D

 26 25  0  0  1  0  0  0  0  0999 V2000
   16.3612  -14.6139  -20.8577 C   0  0  0  0  0  0  0  0  0  0  0  0
   16.2430  -14.2607  -19.4024 C   0  0  1  0  0  0  0  0  0  0  0  0
   15.2177  -15.0942  -18.6785 C   0  0  0  0  0  0  0  0  0  0  0  0
   17.6173  -14.4143  -18.7371 C   0  0  0  0  0  0  0  0  0  0  0  0
   17.5903  -13.5296  -17.5129 C   0  0  2  0  0  0  0  0  0  0  0  0
   16.2560  -13.3491  -17.0329 N   0  0  0  0  0  0  0  0  0  0  0  0
   18.2923  -12.2521  -17.7058 C   0  0  0  0  0  0  0  0  0  0  0  0
   19.4589  -12.1517  -18.1326 O   0  0  0  0  0  0  0  0  0  0  0  0
   17.5994  -11.0556  -17.3862 N   0  0  0  0  0  0  0  0  0  0  0  0
   18.2387   -9.7251  -17.4709 C   0  0  1  0  0  0  0  0  0  0  0  0
   17.1337   -8.7401  -17.2760 C   0  0  0  0  0  0  0  0  0  0  0  0
   17.5816   -7.3344  -17.3884 C   0  0  0  0  0  0  0  0  0  0  0  0
   16.3837   -6.4280  -17.1788 C   0  0  0  0  0  0  0  0  0  0  0  0
   16.5732   -5.2813  -16.7421 O   0  0  0  0  0  0  0  0  0  0  0  0
   19.2168   -9.6523  -16.3817 C   0  0  0  0  0  0  0  0  0  0  0  0
   18.9897  -10.2139  -15.2792 O   0  0  0  0  0  0  0  0  0  0  0  0
   15.0950   -6.8427  -17.4594 O   0  0  0  0  0  0  0  0  0  0  0  0
   23.0839  -10.5066  -13.3100 C   0  0  0  0  0  0  0  0  0  0  0  0
   23.5498  -10.0085  -14.6526 C   0  0  1  0  0  0  0  0  0  0  0  0
   24.5918  -10.9883  -15.2178 C   0  0  0  0  0  0  0  0  0  0  0  0
   22.4613   -9.9255  -15.6521 C   0  0  0  0  0  0  0  0  0  0  0  0
   21.4093   -8.8881  -15.4279 C   0  0  2  0  0  0  0  0  0  0  0  0
   20.4374   -8.9647  -16.5315 N   0  0  0  0  0  0  0  0  0  0  0  0
   21.8652   -7.5274  -15.2306 C   0  0  0  0  0  0  0  0  0  0  0  0
   21.8775   -6.6959  -16.1615 O   0  0  0  0  0  0  0  0  0  0  0  0
   22.3065   -7.0999  -13.9851 O   0  0  0  0  0  0  0  0  0  0  0  0
  2  1  1  6
  2  3  1  0
  4  5  1  0
  4  2  1  0
  5  6  1  6
  7  5  1  0
  8  7  2  0
  9  7  1  0
 10  9  1  0
 10 11  1  1
 11 12  1  0
 12 13  1  0
 13 14  2  0
 13 17  1  0
 15 16  2  0
 15 10  1  0
 19 18  1  1
 19 21  1  0
 20 19  1  0
 22 21  1  6
 22 23  1  0
 23 15  1  0
 24 22  1  0
 25 24  2  0
 26 24  1  0
M  END
$$$$
