LEL.pdb
     RDKit          3D

 26 25  0  0  1  0  0  0  0  0999 V2000
   29.6727  -17.1649  -18.3047 C   0  0  0  0  0  0  0  0  0  0  0  0
   28.9881  -18.3550  -17.6951 C   0  0  1  0  0  0  0  0  0  0  0  0
   29.9177  -19.5220  -17.4852 C   0  0  0  0  0  0  0  0  0  0  0  0
   28.3511  -17.9378  -16.3629 C   0  0  0  0  0  0  0  0  0  0  0  0
   27.6353  -19.1612  -15.8404 C   0  0  2  0  0  0  0  0  0  0  0  0
   26.8709  -19.7938  -16.8695 N   0  0  0  0  0  0  0  0  0  0  0  0
   26.8367  -18.8945  -14.6350 C   0  0  0  0  0  0  0  0  0  0  0  0
   26.6389  -17.7580  -14.1633 O   0  0  0  0  0  0  0  0  0  0  0  0
   26.2528  -20.0001  -13.9638 N   0  0  0  0  0  0  0  0  0  0  0  0
   25.2465  -19.8336  -12.8934 C   0  0  1  0  0  0  0  0  0  0  0  0
   24.0461  -20.5923  -13.3550 C   0  0  0  0  0  0  0  0  0  0  0  0
   22.9259  -20.5513  -12.3891 C   0  0  0  0  0  0  0  0  0  0  0  0
   21.7661  -21.3436  -12.9615 C   0  0  0  0  0  0  0  0  0  0  0  0
   21.9583  -22.0328  -13.9761 O   0  0  0  0  0  0  0  0  0  0  0  0
   25.8156  -20.4231  -11.6781 C   0  0  0  0  0  0  0  0  0  0  0  0
   26.7280  -21.2859  -11.7523 O   0  0  0  0  0  0  0  0  0  0  0  0
   20.5090  -21.3183  -12.3866 O   0  0  0  0  0  0  0  0  0  0  0  0
   28.9014  -21.0598   -7.6343 C   0  0  0  0  0  0  0  0  0  0  0  0
   27.6978  -20.1811   -7.4178 C   0  0  1  0  0  0  0  0  0  0  0  0
   28.1416  -18.8844   -6.7200 C   0  0  0  0  0  0  0  0  0  0  0  0
   27.0375  -19.7778   -8.6796 C   0  0  0  0  0  0  0  0  0  0  0  0
   25.9361  -20.6543   -9.1816 C   0  0  2  0  0  0  0  0  0  0  0  0
   25.3715  -20.0427  -10.3962 N   0  0  0  0  0  0  0  0  0  0  0  0
   24.8914  -20.9957   -8.2381 C   0  0  0  0  0  0  0  0  0  0  0  0
   23.7191  -20.5911   -8.3793 O   0  0  0  0  0  0  0  0  0  0  0  0
   25.1640  -21.7942   -7.1350 O   0  0  0  0  0  0  0  0  0  0  0  0
  2  1  1  1
  2  3  1  0
  4  5  1  0
  4  2  1  0
  5  6  1  6
  7  5  1  0
  8  7  2  0
  9  7  1  0
 10  9  1  0
 10 11  1  6
 11 12  1  0
 12 13  1  0
 13 14  2  0
 13 17  1  0
 15 16  2  0
 15 10  1  0
 19 18  1  6
 19 21  1  0
 20 19  1  0
 22 21  1  1
 22 23  1  0
 23 15  1  0
 24 22  1  0
 25 24  2  0
 26 24  1  0
M  END
$$$$
