LEL.pdb
     RDKit          3D

 26 25  0  0  1  0  0  0  0  0999 V2000
   12.7139  -13.0479  -11.5552 C   0  0  0  0  0  0  0  0  0  0  0  0
   13.8958  -13.4600  -12.3858 C   0  0  1  0  0  0  0  0  0  0  0  0
   13.5973  -13.4761  -13.8625 C   0  0  0  0  0  0  0  0  0  0  0  0
   15.0681  -12.5144  -12.0918 C   0  0  0  0  0  0  0  0  0  0  0  0
   14.4542  -11.1647  -11.8028 C   0  0  2  0  0  0  0  0  0  0  0  0
   13.8737  -10.5965  -12.9790 N   0  0  0  0  0  0  0  0  0  0  0  0
   15.3796  -10.2389  -11.1331 C   0  0  0  0  0  0  0  0  0  0  0  0
   16.0099  -10.5094  -10.0925 O   0  0  0  0  0  0  0  0  0  0  0  0
   15.5689   -8.9546  -11.7062 N   0  0  0  0  0  0  0  0  0  0  0  0
   16.4931   -7.9578  -11.1246 C   0  0  1  0  0  0  0  0  0  0  0  0
   17.4551   -7.6232  -12.2165 C   0  0  0  0  0  0  0  0  0  0  0  0
   16.8137   -6.9588  -13.3727 C   0  0  0  0  0  0  0  0  0  0  0  0
   17.8352   -6.0566  -14.0385 C   0  0  0  0  0  0  0  0  0  0  0  0
   18.8534   -6.5699  -14.5296 O   0  0  0  0  0  0  0  0  0  0  0  0
   15.6843   -6.7940  -10.7508 C   0  0  0  0  0  0  0  0  0  0  0  0
   14.6732   -6.4737  -11.4271 O   0  0  0  0  0  0  0  0  0  0  0  0
   17.6630   -4.6869  -14.1121 O   0  0  0  0  0  0  0  0  0  0  0  0
   13.6351   -5.6209   -5.8035 C   0  0  0  0  0  0  0  0  0  0  0  0
   13.8252   -5.6997   -7.2953 C   0  0  1  0  0  0  0  0  0  0  0  0
   12.5589   -5.1734   -7.9915 C   0  0  0  0  0  0  0  0  0  0  0  0
   14.9511   -4.8717   -7.7828 C   0  0  0  0  0  0  0  0  0  0  0  0
   15.1825   -4.8389   -9.2588 C   0  0  2  0  0  0  0  0  0  0  0  0
   16.0023   -6.0051   -9.6275 N   0  0  0  0  0  0  0  0  0  0  0  0
   15.7393   -3.6186   -9.8057 C   0  0  0  0  0  0  0  0  0  0  0  0
   16.9357   -3.5388  -10.1527 O   0  0  0  0  0  0  0  0  0  0  0  0
   14.9504   -2.4867   -9.9643 O   0  0  0  0  0  0  0  0  0  0  0  0
  2  1  1  1
  2  3  1  0
  4  5  1  0
  4  2  1  0
  5  6  1  6
  7  5  1  0
  8  7  2  0
  9  7  1  0
 10  9  1  0
 10 11  1  6
 11 12  1  0
 12 13  1  0
 13 14  2  0
 13 17  1  0
 15 16  2  0
 15 10  1  0
 19 18  1  1
 19 21  1  0
 20 19  1  0
 22 21  1  1
 22 23  1  0
 23 15  1  0
 24 22  1  0
 25 24  2  0
 26 24  1  0
M  END
$$$$
