LEL.pdb
     RDKit          3D

 26 25  0  0  1  0  0  0  0  0999 V2000
   17.6318  -16.1219  -16.9480 C   0  0  0  0  0  0  0  0  0  0  0  0
   16.8998  -14.8231  -16.7642 C   0  0  1  0  0  0  0  0  0  0  0  0
   16.3502  -14.6522  -15.3717 C   0  0  0  0  0  0  0  0  0  0  0  0
   17.8442  -13.6635  -17.1079 C   0  0  0  0  0  0  0  0  0  0  0  0
   17.0266  -12.4015  -16.9630 C   0  0  2  0  0  0  0  0  0  0  0  0
   15.9208  -12.3932  -17.8687 N   0  0  0  0  0  0  0  0  0  0  0  0
   17.8329  -11.1753  -17.0543 C   0  0  0  0  0  0  0  0  0  0  0  0
   19.0785  -11.1575  -17.0934 O   0  0  0  0  0  0  0  0  0  0  0  0
   17.1517   -9.9312  -17.1012 N   0  0  0  0  0  0  0  0  0  0  0  0
   17.8624   -8.6470  -17.2791 C   0  0  1  0  0  0  0  0  0  0  0  0
   16.7915   -7.6129  -17.3945 C   0  0  0  0  0  0  0  0  0  0  0  0
   17.3204   -6.2537  -17.6442 C   0  0  0  0  0  0  0  0  0  0  0  0
   16.1515   -5.2932  -17.7517 C   0  0  0  0  0  0  0  0  0  0  0  0
   16.2730   -4.1514  -17.2794 O   0  0  0  0  0  0  0  0  0  0  0  0
   18.6764   -8.4404  -16.0779 C   0  0  0  0  0  0  0  0  0  0  0  0
   18.2359   -8.7603  -14.9437 O   0  0  0  0  0  0  0  0  0  0  0  0
   14.9624   -5.6536  -18.3578 O   0  0  0  0  0  0  0  0  0  0  0  0
   23.3887  -10.2240  -13.5643 C   0  0  0  0  0  0  0  0  0  0  0  0
   22.7071   -8.8926  -13.7387 C   0  0  1  0  0  0  0  0  0  0  0  0
   23.7709   -7.8152  -14.0084 C   0  0  0  0  0  0  0  0  0  0  0  0
   21.7741   -8.8627  -14.8873 C   0  0  0  0  0  0  0  0  0  0  0  0
   20.8002   -7.7307  -14.9437 C   0  0  2  0  0  0  0  0  0  0  0  0
   19.9712   -7.8895  -16.1502 N   0  0  0  0  0  0  0  0  0  0  0  0
   21.3487   -6.3925  -14.8627 C   0  0  0  0  0  0  0  0  0  0  0  0
   21.6263   -5.7320  -15.8848 O   0  0  0  0  0  0  0  0  0  0  0  0
   21.5842   -5.7948  -13.6314 O   0  0  0  0  0  0  0  0  0  0  0  0
  2  1  1  1
  2  3  1  0
  4  5  1  0
  4  2  1  0
  5  6  1  6
  7  5  1  0
  8  7  2  0
  9  7  1  0
 10  9  1  0
 10 11  1  1
 11 12  1  0
 12 13  1  0
 13 14  2  0
 13 17  1  0
 15 16  2  0
 15 10  1  0
 19 18  1  6
 19 21  1  0
 20 19  1  0
 22 21  1  6
 22 23  1  0
 23 15  1  0
 24 22  1  0
 25 24  2  0
 26 24  1  0
M  END
$$$$
