LEL.pdb
     RDKit          3D

 26 25  0  0  1  0  0  0  0  0999 V2000
   15.4006  -13.1393  -14.6389 C   0  0  0  0  0  0  0  0  0  0  0  0
   15.8997  -11.9828  -15.4575 C   0  0  1  0  0  0  0  0  0  0  0  0
   14.8743  -10.8899  -15.6141 C   0  0  0  0  0  0  0  0  0  0  0  0
   17.1747  -11.4252  -14.8106 C   0  0  0  0  0  0  0  0  0  0  0  0
   17.6261  -10.2844  -15.6920 C   0  0  2  0  0  0  0  0  0  0  0  0
   17.8192  -10.7162  -17.0409 N   0  0  0  0  0  0  0  0  0  0  0  0
   18.7966   -9.5702  -15.1609 C   0  0  0  0  0  0  0  0  0  0  0  0
   18.9310   -9.2360  -13.9679 O   0  0  0  0  0  0  0  0  0  0  0  0
   19.8413   -9.2392  -16.0625 N   0  0  0  0  0  0  0  0  0  0  0  0
   21.1167   -8.6434  -15.6102 C   0  0  1  0  0  0  0  0  0  0  0  0
   22.1367   -9.0837  -16.6078 C   0  0  0  0  0  0  0  0  0  0  0  0
   22.5611  -10.4892  -16.4235 C   0  0  0  0  0  0  0  0  0  0  0  0
   23.6146  -10.8156  -17.4646 C   0  0  0  0  0  0  0  0  0  0  0  0
   23.2503  -11.0486  -18.6285 O   0  0  0  0  0  0  0  0  0  0  0  0
   20.9397   -7.1887  -15.6345 C   0  0  0  0  0  0  0  0  0  0  0  0
   20.2055   -6.6478  -16.5011 O   0  0  0  0  0  0  0  0  0  0  0  0
   24.9610  -10.8602  -17.1535 O   0  0  0  0  0  0  0  0  0  0  0  0
   19.6686   -2.4390  -15.7849 C   0  0  0  0  0  0  0  0  0  0  0  0
   19.5099   -3.1906  -14.4897 C   0  0  1  0  0  0  0  0  0  0  0  0
   18.0266   -3.1840  -14.0837 C   0  0  0  0  0  0  0  0  0  0  0  0
   19.9154   -4.6107  -14.5878 C   0  0  0  0  0  0  0  0  0  0  0  0
   21.3771   -4.8938  -14.7165 C   0  0  2  0  0  0  0  0  0  0  0  0
   21.5725   -6.3530  -14.6930 N   0  0  0  0  0  0  0  0  0  0  0  0
   22.2555   -4.2366  -13.7706 C   0  0  0  0  0  0  0  0  0  0  0  0
   22.4095   -2.9979  -13.7663 O   0  0  0  0  0  0  0  0  0  0  0  0
   22.9608   -4.9721  -12.8271 O   0  0  0  0  0  0  0  0  0  0  0  0
  2  1  1  1
  2  3  1  0
  4  5  1  0
  4  2  1  0
  5  6  1  6
  7  5  1  0
  8  7  2  0
  9  7  1  0
 10  9  1  0
 10 11  1  6
 11 12  1  0
 12 13  1  0
 13 14  2  0
 13 17  1  0
 15 16  2  0
 15 10  1  0
 19 18  1  6
 19 21  1  0
 20 19  1  0
 22 21  1  1
 22 23  1  0
 23 15  1  0
 24 22  1  0
 25 24  2  0
 26 24  1  0
M  END
$$$$
