LEL.pdb
     RDKit          3D

 26 25  0  0  1  0  0  0  0  0999 V2000
   27.7887  -19.2170  -17.5682 C   0  0  0  0  0  0  0  0  0  0  0  0
   27.8039  -20.0835  -16.3411 C   0  0  1  0  0  0  0  0  0  0  0  0
   29.1061  -20.8191  -16.1593 C   0  0  0  0  0  0  0  0  0  0  0  0
   27.5092  -19.2144  -15.1113 C   0  0  0  0  0  0  0  0  0  0  0  0
   27.5405  -20.1469  -13.9232 C   0  0  2  0  0  0  0  0  0  0  0  0
   27.1255  -21.4654  -14.2878 N   0  0  0  0  0  0  0  0  0  0  0  0
   26.8023  -19.6299  -12.7614 C   0  0  0  0  0  0  0  0  0  0  0  0
   26.8394  -18.4443  -12.3791 O   0  0  0  0  0  0  0  0  0  0  0  0
   25.9952  -20.5370  -12.0267 N   0  0  0  0  0  0  0  0  0  0  0  0
   25.1534  -20.1046  -10.8907 C   0  0  1  0  0  0  0  0  0  0  0  0
   23.7817  -20.6080  -11.1984 C   0  0  0  0  0  0  0  0  0  0  0  0
   23.0565  -19.7611  -12.1711 C   0  0  0  0  0  0  0  0  0  0  0  0
   21.6780  -20.3537  -12.3933 C   0  0  0  0  0  0  0  0  0  0  0  0
   20.7373  -19.9553  -11.6877 O   0  0  0  0  0  0  0  0  0  0  0  0
   25.6989  -20.7426   -9.6892 C   0  0  0  0  0  0  0  0  0  0  0  0
   26.1269  -21.9248   -9.7307 O   0  0  0  0  0  0  0  0  0  0  0  0
   21.4435  -21.3193  -13.3544 O   0  0  0  0  0  0  0  0  0  0  0  0
   28.6604  -18.2305   -5.7484 C   0  0  0  0  0  0  0  0  0  0  0  0
   28.1550  -19.3332   -6.6408 C   0  0  1  0  0  0  0  0  0  0  0  0
   29.0694  -20.5605   -6.4897 C   0  0  0  0  0  0  0  0  0  0  0  0
   26.7868  -19.7800   -6.2955 C   0  0  0  0  0  0  0  0  0  0  0  0
   26.1381  -20.7606   -7.2179 C   0  0  2  0  0  0  0  0  0  0  0  0
   25.7703  -20.0591   -8.4591 N   0  0  0  0  0  0  0  0  0  0  0  0
   25.0148  -21.5083   -6.6912 C   0  0  0  0  0  0  0  0  0  0  0  0
   23.8546  -21.3428   -7.1209 O   0  0  0  0  0  0  0  0  0  0  0  0
   25.1955  -22.4443   -5.6813 O   0  0  0  0  0  0  0  0  0  0  0  0
  2  1  1  6
  2  3  1  0
  4  5  1  0
  4  2  1  0
  5  6  1  6
  7  5  1  0
  8  7  2  0
  9  7  1  0
 10  9  1  0
 10 11  1  6
 11 12  1  0
 12 13  1  0
 13 14  2  0
 13 17  1  0
 15 16  2  0
 15 10  1  0
 19 18  1  1
 19 21  1  0
 20 19  1  0
 22 21  1  1
 22 23  1  0
 23 15  1  0
 24 22  1  0
 25 24  2  0
 26 24  1  0
M  END
$$$$
