LEL.pdb
     RDKit          3D

 26 25  0  0  1  0  0  0  0  0999 V2000
   27.4539  -19.0444  -18.1188 C   0  0  0  0  0  0  0  0  0  0  0  0
   27.3593  -20.0273  -16.9867 C   0  0  1  0  0  0  0  0  0  0  0  0
   28.4624  -21.0534  -17.0078 C   0  0  0  0  0  0  0  0  0  0  0  0
   27.3723  -19.2617  -15.6569 C   0  0  0  0  0  0  0  0  0  0  0  0
   27.3054  -20.3093  -14.5706 C   0  0  2  0  0  0  0  0  0  0  0  0
   26.7197  -21.5205  -15.0537 N   0  0  0  0  0  0  0  0  0  0  0  0
   26.6593  -19.8279  -13.3406 C   0  0  0  0  0  0  0  0  0  0  0  0
   26.8291  -18.6910  -12.8593 O   0  0  0  0  0  0  0  0  0  0  0  0
   25.7860  -20.7126  -12.6560 N   0  0  0  0  0  0  0  0  0  0  0  0
   25.0179  -20.2987  -11.4624 C   0  0  1  0  0  0  0  0  0  0  0  0
   23.6881  -20.9647  -11.5950 C   0  0  0  0  0  0  0  0  0  0  0  0
   22.6396  -20.3410  -10.7577 C   0  0  0  0  0  0  0  0  0  0  0  0
   21.3359  -20.3471  -11.5328 C   0  0  0  0  0  0  0  0  0  0  0  0
   20.5555  -21.3004  -11.3788 O   0  0  0  0  0  0  0  0  0  0  0  0
   25.7486  -20.7943  -10.2925 C   0  0  0  0  0  0  0  0  0  0  0  0
   26.1640  -21.9810  -10.2531 O   0  0  0  0  0  0  0  0  0  0  0  0
   20.9963  -19.3258  -12.4005 O   0  0  0  0  0  0  0  0  0  0  0  0
   29.0999  -20.7118   -5.9930 C   0  0  0  0  0  0  0  0  0  0  0  0
   27.9186  -19.7806   -5.9220 C   0  0  1  0  0  0  0  0  0  0  0  0
   28.3652  -18.4494   -5.2949 C   0  0  0  0  0  0  0  0  0  0  0  0
   27.3545  -19.4541   -7.2509 C   0  0  0  0  0  0  0  0  0  0  0  0
   26.5581  -20.5192   -7.9325 C   0  0  2  0  0  0  0  0  0  0  0  0
   26.0162  -19.9657   -9.1848 N   0  0  0  0  0  0  0  0  0  0  0  0
   25.5169  -21.1562   -7.1526 C   0  0  0  0  0  0  0  0  0  0  0  0
   24.3066  -20.9460   -7.3744 O   0  0  0  0  0  0  0  0  0  0  0  0
   25.8358  -22.0319   -6.1230 O   0  0  0  0  0  0  0  0  0  0  0  0
  2  1  1  6
  2  3  1  0
  4  5  1  0
  4  2  1  0
  5  6  1  6
  7  5  1  0
  8  7  2  0
  9  7  1  0
 10  9  1  0
 10 11  1  6
 11 12  1  0
 12 13  1  0
 13 14  2  0
 13 17  1  0
 15 16  2  0
 15 10  1  0
 19 18  1  6
 19 21  1  0
 20 19  1  0
 22 21  1  1
 22 23  1  0
 23 15  1  0
 24 22  1  0
 25 24  2  0
 26 24  1  0
M  END
$$$$
