LEL.pdb
     RDKit          3D

 26 25  0  0  1  0  0  0  0  0999 V2000
   25.6467  -31.2221   -8.2227 C   0  0  0  0  0  0  0  0  0  0  0  0
   25.6612  -32.6107   -7.6498 C   0  0  1  0  0  0  0  0  0  0  0  0
   26.3439  -33.6085   -8.5490 C   0  0  0  0  0  0  0  0  0  0  0  0
   26.3460  -32.5784   -6.2769 C   0  0  0  0  0  0  0  0  0  0  0  0
   26.1655  -33.9575   -5.6872 C   0  0  2  0  0  0  0  0  0  0  0  0
   24.7822  -34.3064   -5.5980 N   0  0  0  0  0  0  0  0  0  0  0  0
   26.8708  -34.1379   -4.4097 C   0  0  0  0  0  0  0  0  0  0  0  0
   26.7051  -33.4128   -3.4097 O   0  0  0  0  0  0  0  0  0  0  0  0
   27.8002  -35.2054   -4.3061 N   0  0  0  0  0  0  0  0  0  0  0  0
   28.6095  -35.4337   -3.0900 C   0  0  1  0  0  0  0  0  0  0  0  0
   27.8828  -36.4873   -2.3211 C   0  0  0  0  0  0  0  0  0  0  0  0
   26.7737  -35.9487   -1.5029 C   0  0  0  0  0  0  0  0  0  0  0  0
   27.3165  -35.5846   -0.1342 C   0  0  0  0  0  0  0  0  0  0  0  0
   28.2500  -36.2556    0.3345 O   0  0  0  0  0  0  0  0  0  0  0  0
   29.9229  -35.9083   -3.5352 C   0  0  0  0  0  0  0  0  0  0  0  0
   30.0256  -36.6556   -4.5419 O   0  0  0  0  0  0  0  0  0  0  0  0
   26.8021  -34.5321    0.6000 O   0  0  0  0  0  0  0  0  0  0  0  0
   34.0043  -33.1400   -5.2374 C   0  0  0  0  0  0  0  0  0  0  0  0
   33.0910  -34.3085   -4.9761 C   0  0  1  0  0  0  0  0  0  0  0  0
   33.3730  -35.4081   -6.0136 C   0  0  0  0  0  0  0  0  0  0  0  0
   33.2962  -34.9208   -3.6443 C   0  0  0  0  0  0  0  0  0  0  0  0
   32.4147  -36.0717   -3.2813 C   0  0  2  0  0  0  0  0  0  0  0  0
   31.1060  -35.5420   -2.8634 N   0  0  0  0  0  0  0  0  0  0  0  0
   32.9321  -37.0081   -2.3047 C   0  0  0  0  0  0  0  0  0  0  0  0
   33.9568  -37.6869   -2.5223 O   0  0  0  0  0  0  0  0  0  0  0  0
   32.2980  -37.1810   -1.0813 O   0  0  0  0  0  0  0  0  0  0  0  0
  2  1  1  6
  2  3  1  0
  4  5  1  0
  4  2  1  0
  5  6  1  1
  7  5  1  0
  8  7  2  0
  9  7  1  0
 10  9  1  0
 10 11  1  1
 11 12  1  0
 12 13  1  0
 13 14  2  0
 13 17  1  0
 15 16  2  0
 15 10  1  0
 19 18  1  6
 19 21  1  0
 20 19  1  0
 22 21  1  1
 22 23  1  0
 23 15  1  0
 24 22  1  0
 25 24  2  0
 26 24  1  0
M  END
$$$$
