LEL.pdb
     RDKit          3D

 26 25  0  0  1  0  0  0  0  0999 V2000
   30.9386  -25.8497  -16.4277 C   0  0  0  0  0  0  0  0  0  0  0  0
   29.8530  -25.0232  -17.0562 C   0  0  1  0  0  0  0  0  0  0  0  0
   28.5708  -25.7901  -17.2508 C   0  0  0  0  0  0  0  0  0  0  0  0
   29.6027  -23.7826  -16.1885 C   0  0  0  0  0  0  0  0  0  0  0  0
   28.5791  -22.9542  -16.9288 C   0  0  2  0  0  0  0  0  0  0  0  0
   29.0770  -22.5288  -18.1994 N   0  0  0  0  0  0  0  0  0  0  0  0
   28.0529  -21.8360  -16.1320 C   0  0  0  0  0  0  0  0  0  0  0  0
   28.7622  -20.9588  -15.6023 O   0  0  0  0  0  0  0  0  0  0  0  0
   26.6478  -21.7478  -15.9532 N   0  0  0  0  0  0  0  0  0  0  0  0
   26.0113  -20.6223  -15.2362 C   0  0  1  0  0  0  0  0  0  0  0  0
   24.8468  -20.2211  -16.0803 C   0  0  0  0  0  0  0  0  0  0  0  0
   24.0066  -19.1771  -15.4530 C   0  0  0  0  0  0  0  0  0  0  0  0
   22.8058  -18.9241  -16.3443 C   0  0  0  0  0  0  0  0  0  0  0  0
   21.7554  -19.5469  -16.1201 O   0  0  0  0  0  0  0  0  0  0  0  0
   25.5750  -21.1380  -13.9354 C   0  0  0  0  0  0  0  0  0  0  0  0
   25.1754  -22.3252  -13.8192 O   0  0  0  0  0  0  0  0  0  0  0  0
   22.8501  -18.0240  -17.3928 O   0  0  0  0  0  0  0  0  0  0  0  0
   25.8538  -21.7831   -8.4798 C   0  0  0  0  0  0  0  0  0  0  0  0
   25.3836  -20.4530   -9.0063 C   0  0  1  0  0  0  0  0  0  0  0  0
   25.9614  -19.3318   -8.1264 C   0  0  0  0  0  0  0  0  0  0  0  0
   25.8365  -20.1815  -10.3891 C   0  0  0  0  0  0  0  0  0  0  0  0
   25.0704  -20.8305  -11.4959 C   0  0  2  0  0  0  0  0  0  0  0  0
   25.5949  -20.3335  -12.7788 N   0  0  0  0  0  0  0  0  0  0  0  0
   23.6272  -20.7169  -11.4455 C   0  0  0  0  0  0  0  0  0  0  0  0
   23.0284  -19.7265  -11.9130 O   0  0  0  0  0  0  0  0  0  0  0  0
   22.8556  -21.7182  -10.8705 O   0  0  0  0  0  0  0  0  0  0  0  0
  2  1  1  1
  2  3  1  0
  4  5  1  0
  4  2  1  0
  5  6  1  6
  7  5  1  0
  8  7  2  0
  9  7  1  0
 10  9  1  0
 10 11  1  6
 11 12  1  0
 12 13  1  0
 13 14  2  0
 13 17  1  0
 15 16  2  0
 15 10  1  0
 19 18  1  1
 19 21  1  0
 20 19  1  0
 22 21  1  1
 22 23  1  0
 23 15  1  0
 24 22  1  0
 25 24  2  0
 26 24  1  0
M  END
$$$$
