LEL.pdb
     RDKit          3D

 26 25  0  0  1  0  0  0  0  0999 V2000
   24.5844  -14.0753  -14.9200 C   0  0  0  0  0  0  0  0  0  0  0  0
   23.3463  -14.2109  -15.7599 C   0  0  1  0  0  0  0  0  0  0  0  0
   22.2994  -15.0878  -15.1233 C   0  0  0  0  0  0  0  0  0  0  0  0
   22.7728  -12.8143  -16.0349 C   0  0  0  0  0  0  0  0  0  0  0  0
   21.6015  -13.0194  -16.9666 C   0  0  2  0  0  0  0  0  0  0  0  0
   22.0020  -13.6913  -18.1630 N   0  0  0  0  0  0  0  0  0  0  0  0
   20.8577  -11.7815  -17.2431 C   0  0  0  0  0  0  0  0  0  0  0  0
   21.1389  -10.9856  -18.1599 O   0  0  0  0  0  0  0  0  0  0  0  0
   19.7483  -11.4709  -16.4144 N   0  0  0  0  0  0  0  0  0  0  0  0
   18.8849  -10.2955  -16.6571 C   0  0  1  0  0  0  0  0  0  0  0  0
   17.4891  -10.7736  -16.4277 C   0  0  0  0  0  0  0  0  0  0  0  0
   16.9569  -11.5744  -17.5525 C   0  0  0  0  0  0  0  0  0  0  0  0
   16.4614  -10.6264  -18.6278 C   0  0  0  0  0  0  0  0  0  0  0  0
   16.5839   -9.4041  -18.4473 O   0  0  0  0  0  0  0  0  0  0  0  0
   19.2676   -9.2759  -15.6762 C   0  0  0  0  0  0  0  0  0  0  0  0
   19.3788   -9.5698  -14.4580 O   0  0  0  0  0  0  0  0  0  0  0  0
   15.8810  -11.0848  -19.7958 O   0  0  0  0  0  0  0  0  0  0  0  0
   23.4712   -6.2745  -16.4788 C   0  0  0  0  0  0  0  0  0  0  0  0
   22.3468   -7.0507  -15.8457 C   0  0  1  0  0  0  0  0  0  0  0  0
   22.8139   -7.5909  -14.4837 C   0  0  0  0  0  0  0  0  0  0  0  0
   21.1456   -6.2262  -15.5844 C   0  0  0  0  0  0  0  0  0  0  0  0
   19.9339   -6.9331  -15.0695 C   0  0  2  0  0  0  0  0  0  0  0  0
   19.5299   -7.9456  -16.0593 N   0  0  0  0  0  0  0  0  0  0  0  0
   18.8092   -6.1055  -14.6842 C   0  0  0  0  0  0  0  0  0  0  0  0
   17.7601   -6.0650  -15.3594 O   0  0  0  0  0  0  0  0  0  0  0  0
   18.8628   -5.3234  -13.5378 O   0  0  0  0  0  0  0  0  0  0  0  0
  2  1  1  1
  2  3  1  0
  4  5  1  0
  4  2  1  0
  5  6  1  6
  7  5  1  0
  8  7  2  0
  9  7  1  0
 10  9  1  0
 10 11  1  1
 11 12  1  0
 12 13  1  0
 13 14  2  0
 13 17  1  0
 15 16  2  0
 15 10  1  0
 19 18  1  1
 19 21  1  0
 20 19  1  0
 22 21  1  6
 22 23  1  0
 23 15  1  0
 24 22  1  0
 25 24  2  0
 26 24  1  0
M  END
$$$$
