YKD.pdb
     RDKit          3D

 30 30  0  0  1  0  0  0  0  0999 V2000
   19.6650  -14.4592   10.7607 O   0  0  0  0  0  0  0  0  0  0  0  0
   19.1921  -14.3601   12.0824 C   0  0  0  0  0  0  0  0  0  0  0  0
   19.5987  -13.3481   12.9077 C   0  0  0  0  0  0  0  0  0  0  0  0
   19.0971  -13.3043   14.2000 C   0  0  0  0  0  0  0  0  0  0  0  0
   18.2064  -14.2463   14.6714 C   0  0  0  0  0  0  0  0  0  0  0  0
   17.7084  -14.1369   16.0677 C   0  0  0  0  0  0  0  0  0  0  0  0
   16.2406  -13.7743   16.0169 C   0  0  2  0  0  0  0  0  0  0  0  0
   16.1559  -12.3981   15.5969 N   0  0  0  0  0  0  0  0  0  0  0  0
   15.5891  -13.9065   17.3338 C   0  0  0  0  0  0  0  0  0  0  0  0
   15.7674  -13.0265   18.1926 O   0  0  0  0  0  0  0  0  0  0  0  0
   17.8167  -15.2504   13.8195 C   0  0  0  0  0  0  0  0  0  0  0  0
   18.3067  -15.3061   12.5340 C   0  0  0  0  0  0  0  0  0  0  0  0
   14.7770  -15.0388   17.5767 N   0  0  0  0  0  0  0  0  0  0  0  0
   14.1535  -15.2283   18.8809 C   0  0  1  0  0  0  0  0  0  0  0  0
   12.9037  -16.0101   18.6534 C   0  0  0  0  0  0  0  0  0  0  0  0
   12.2387  -16.3447   19.9433 C   0  0  0  0  0  0  0  0  0  0  0  0
   11.0187  -17.2081   19.6223 C   0  0  0  0  0  0  0  0  0  0  0  0
   10.3993  -17.6189   20.9228 C   0  0  0  0  0  0  0  0  0  0  0  0
    9.2205  -18.4322   20.7119 N   0  0  0  0  0  0  0  0  0  0  0  0
   15.1336  -15.8479   19.7901 C   0  0  0  0  0  0  0  0  0  0  0  0
   15.7156  -16.9435   19.5228 O   0  0  0  0  0  0  0  0  0  0  0  0
   15.4478  -15.2083   21.0117 N   0  0  0  0  0  0  0  0  0  0  0  0
   16.4045  -15.7940   21.9739 C   0  0  1  0  0  0  0  0  0  0  0  0
   17.3686  -14.7298   22.4198 C   0  0  0  0  0  0  0  0  0  0  0  0
   18.7309  -15.2373   22.5189 C   0  0  0  0  0  0  0  0  0  0  0  0
   19.0657  -16.4079   22.2799 O   0  0  0  0  0  0  0  0  0  0  0  0
   15.6214  -16.3787   23.0918 C   0  0  0  0  0  0  0  0  0  0  0  0
   14.5249  -15.8652   23.4715 O   0  0  0  0  0  0  0  0  0  0  0  0
   19.7432  -14.3410   22.9129 O   0  0  0  0  0  0  0  0  0  0  0  0
   16.0475  -17.4927   23.7564 O   0  0  0  0  0  0  0  0  0  0  0  0
  2  3  2  0
  2  1  1  0
  4  3  1  0
  5  4  2  0
  6  5  1  0
  7  6  1  0
  7  8  1  1
  9 10  2  0
  9  7  1  0
 11  5  1  0
 11 12  2  0
 12  2  1  0
 13  9  1  0
 14 13  1  0
 14 15  1  6
 16 17  1  0
 16 15  1  0
 18 17  1  0
 19 18  1  0
 20 14  1  0
 20 22  1  0
 21 20  2  0
 23 22  1  0
 23 27  1  0
 23 24  1  1
 25 26  2  0
 25 24  1  0
 27 28  2  0
 27 30  1  0
 29 25  1  0
M  END
$$$$
