YKD.pdb
     RDKit          3D

 30 30  0  0  1  0  0  0  0  0999 V2000
    5.7830  -10.4728   28.5000 O   0  0  0  0  0  0  0  0  0  0  0  0
    6.3565  -11.5146   27.7476 C   0  0  0  0  0  0  0  0  0  0  0  0
    6.4481  -11.4387   26.3851 C   0  0  0  0  0  0  0  0  0  0  0  0
    7.0238  -12.4978   25.6991 C   0  0  0  0  0  0  0  0  0  0  0  0
    7.5026  -13.6165   26.3490 C   0  0  0  0  0  0  0  0  0  0  0  0
    8.1088  -14.7138   25.5503 C   0  0  0  0  0  0  0  0  0  0  0  0
    7.0168  -15.3491   24.7182 C   0  0  2  0  0  0  0  0  0  0  0  0
    6.4040  -16.3717   25.5283 N   0  0  0  0  0  0  0  0  0  0  0  0
    7.5450  -15.9736   23.4905 C   0  0  0  0  0  0  0  0  0  0  0  0
    7.6036  -17.2122   23.4139 O   0  0  0  0  0  0  0  0  0  0  0  0
    7.3967  -13.6637   27.7174 C   0  0  0  0  0  0  0  0  0  0  0  0
    6.8274  -12.6195   28.4110 C   0  0  0  0  0  0  0  0  0  0  0  0
    7.9699  -15.1351   22.4335 N   0  0  0  0  0  0  0  0  0  0  0  0
    8.1940  -15.6881   21.1033 C   0  0  1  0  0  0  0  0  0  0  0  0
    7.9608  -14.5819   20.1302 C   0  0  0  0  0  0  0  0  0  0  0  0
    8.1740  -15.0453   18.7309 C   0  0  0  0  0  0  0  0  0  0  0  0
    8.2671  -13.8040   17.8436 C   0  0  0  0  0  0  0  0  0  0  0  0
    8.4400  -14.2691   16.4303 C   0  0  0  0  0  0  0  0  0  0  0  0
    8.4441  -13.1555   15.5054 N   0  0  0  0  0  0  0  0  0  0  0  0
    9.5347  -16.2980   21.0622 C   0  0  0  0  0  0  0  0  0  0  0  0
    9.9309  -17.0116   20.0904 O   0  0  0  0  0  0  0  0  0  0  0  0
   10.4254  -16.0886   22.1406 N   0  0  0  0  0  0  0  0  0  0  0  0
   11.7336  -16.7724   22.2142 C   0  0  1  0  0  0  0  0  0  0  0  0
   12.8211  -15.7426   22.3462 C   0  0  0  0  0  0  0  0  0  0  0  0
   13.2850  -15.2721   21.0474 C   0  0  0  0  0  0  0  0  0  0  0  0
   12.9246  -15.7435   19.9576 O   0  0  0  0  0  0  0  0  0  0  0  0
   11.6849  -17.7207   23.3558 C   0  0  0  0  0  0  0  0  0  0  0  0
   12.0662  -18.9247   23.2328 O   0  0  0  0  0  0  0  0  0  0  0  0
   14.2068  -14.2078   21.0205 O   0  0  0  0  0  0  0  0  0  0  0  0
   11.2295  -17.3368   24.5844 O   0  0  0  0  0  0  0  0  0  0  0  0
  2  3  2  0
  2  1  1  0
  4  3  1  0
  5  4  2  0
  6  5  1  0
  7  6  1  0
  7  8  1  1
  9 10  2  0
  9  7  1  0
 11  5  1  0
 11 12  2  0
 12  2  1  0
 13  9  1  0
 14 13  1  0
 14 15  1  6
 16 17  1  0
 16 15  1  0
 18 17  1  0
 19 18  1  0
 20 14  1  0
 20 22  1  0
 21 20  2  0
 23 22  1  0
 23 27  1  0
 23 24  1  1
 25 26  2  0
 25 24  1  0
 27 28  2  0
 27 30  1  0
 29 25  1  0
M  END
$$$$
