YKD.pdb
     RDKit          3D

 30 30  0  0  1  0  0  0  0  0999 V2000
    5.2669  -10.3985   28.1284 O   0  0  0  0  0  0  0  0  0  0  0  0
    6.0253  -11.4562   27.5929 C   0  0  0  0  0  0  0  0  0  0  0  0
    7.2207  -11.8236   28.1466 C   0  0  0  0  0  0  0  0  0  0  0  0
    7.9219  -12.8742   27.5736 C   0  0  0  0  0  0  0  0  0  0  0  0
    7.4497  -13.5527   26.4692 C   0  0  0  0  0  0  0  0  0  0  0  0
    8.2534  -14.6701   25.9079 C   0  0  0  0  0  0  0  0  0  0  0  0
    7.3048  -15.6487   25.2513 C   0  0  2  0  0  0  0  0  0  0  0  0
    6.9746  -16.6481   26.2361 N   0  0  0  0  0  0  0  0  0  0  0  0
    7.9142  -16.3179   24.0864 C   0  0  0  0  0  0  0  0  0  0  0  0
    8.3187  -17.4872   24.1984 O   0  0  0  0  0  0  0  0  0  0  0  0
    6.2466  -13.1608   25.9356 C   0  0  0  0  0  0  0  0  0  0  0  0
    5.5400  -12.1196   26.4943 C   0  0  0  0  0  0  0  0  0  0  0  0
    8.0184  -15.6006   22.8717 N   0  0  0  0  0  0  0  0  0  0  0  0
    8.6744  -16.2035   21.7177 C   0  0  1  0  0  0  0  0  0  0  0  0
    7.9617  -15.7052   20.5058 C   0  0  0  0  0  0  0  0  0  0  0  0
    8.7706  -14.6778   19.7929 C   0  0  0  0  0  0  0  0  0  0  0  0
    8.1845  -14.5222   18.3897 C   0  0  0  0  0  0  0  0  0  0  0  0
    8.9059  -13.3932   17.7199 C   0  0  0  0  0  0  0  0  0  0  0  0
    8.3480  -13.1117   16.4140 N   0  0  0  0  0  0  0  0  0  0  0  0
   10.1148  -15.8987   21.7775 C   0  0  0  0  0  0  0  0  0  0  0  0
   10.6121  -14.8474   21.2696 O   0  0  0  0  0  0  0  0  0  0  0  0
   10.9892  -16.8037   22.4228 N   0  0  0  0  0  0  0  0  0  0  0  0
   12.1241  -17.4303   21.7132 C   0  0  1  0  0  0  0  0  0  0  0  0
   11.5940  -18.3016   20.6085 C   0  0  0  0  0  0  0  0  0  0  0  0
   12.6662  -18.9566   19.8704 C   0  0  0  0  0  0  0  0  0  0  0  0
   12.5995  -19.2873   18.6763 O   0  0  0  0  0  0  0  0  0  0  0  0
   13.0093  -16.3423   21.2257 C   0  0  0  0  0  0  0  0  0  0  0  0
   12.6698  -15.5970   20.2565 O   0  0  0  0  0  0  0  0  0  0  0  0
   13.8647  -19.2365   20.5548 O   0  0  0  0  0  0  0  0  0  0  0  0
   14.2237  -16.0981   21.8001 O   0  0  0  0  0  0  0  0  0  0  0  0
  2  3  2  0
  2  1  1  0
  4  3  1  0
  5  4  2  0
  6  5  1  0
  7  6  1  0
  7  8  1  1
  9 10  2  0
  9  7  1  0
 11  5  1  0
 11 12  2  0
 12  2  1  0
 13  9  1  0
 14 13  1  0
 14 15  1  6
 16 17  1  0
 16 15  1  0
 18 17  1  0
 19 18  1  0
 20 14  1  0
 20 22  1  0
 21 20  2  0
 23 22  1  0
 23 27  1  0
 23 24  1  6
 25 26  2  0
 25 24  1  0
 27 28  2  0
 27 30  1  0
 29 25  1  0
M  END
$$$$
