YKD.pdb
     RDKit          3D

 30 30  0  0  1  0  0  0  0  0999 V2000
    5.0147  -10.3062   26.7370 O   0  0  0  0  0  0  0  0  0  0  0  0
    5.7569  -11.4539   26.4019 C   0  0  0  0  0  0  0  0  0  0  0  0
    6.3013  -11.6085   25.1568 C   0  0  0  0  0  0  0  0  0  0  0  0
    7.0226  -12.7620   24.8870 C   0  0  0  0  0  0  0  0  0  0  0  0
    7.2041  -13.7494   25.8331 C   0  0  0  0  0  0  0  0  0  0  0  0
    7.9900  -14.9593   25.4751 C   0  0  0  0  0  0  0  0  0  0  0  0
    7.1740  -15.7792   24.5002 C   0  0  2  0  0  0  0  0  0  0  0  0
    6.3391  -16.6597   25.2780 N   0  0  0  0  0  0  0  0  0  0  0  0
    8.0236  -16.5964   23.6132 C   0  0  0  0  0  0  0  0  0  0  0  0
    8.4412  -17.6959   24.0134 O   0  0  0  0  0  0  0  0  0  0  0  0
    6.6455  -13.5658   27.0741 C   0  0  0  0  0  0  0  0  0  0  0  0
    5.9271  -12.4256   27.3556 C   0  0  0  0  0  0  0  0  0  0  0  0
    8.3366  -16.0973   22.3273 N   0  0  0  0  0  0  0  0  0  0  0  0
    9.3661  -16.7418   21.5208 C   0  0  1  0  0  0  0  0  0  0  0  0
    9.3235  -16.1026   20.1737 C   0  0  0  0  0  0  0  0  0  0  0  0
    8.3846  -16.8221   19.2687 C   0  0  0  0  0  0  0  0  0  0  0  0
    8.4290  -16.1239   17.9095 C   0  0  0  0  0  0  0  0  0  0  0  0
    7.4033  -16.7739   17.0324 C   0  0  0  0  0  0  0  0  0  0  0  0
    7.2469  -16.0578   15.7840 N   0  0  0  0  0  0  0  0  0  0  0  0
   10.6544  -16.6446   22.2294 C   0  0  0  0  0  0  0  0  0  0  0  0
   10.7840  -16.0239   23.3286 O   0  0  0  0  0  0  0  0  0  0  0  0
   11.7994  -17.2622   21.6749 N   0  0  0  0  0  0  0  0  0  0  0  0
   13.0280  -17.4790   22.4671 C   0  0  1  0  0  0  0  0  0  0  0  0
   12.6946  -18.3077   23.6766 C   0  0  0  0  0  0  0  0  0  0  0  0
   13.8894  -18.7032   24.4110 C   0  0  0  0  0  0  0  0  0  0  0  0
   14.9062  -18.0023   24.5318 O   0  0  0  0  0  0  0  0  0  0  0  0
   14.0321  -18.1181   21.5794 C   0  0  0  0  0  0  0  0  0  0  0  0
   15.1977  -17.6354   21.4431 O   0  0  0  0  0  0  0  0  0  0  0  0
   13.8967  -19.9683   25.0295 O   0  0  0  0  0  0  0  0  0  0  0  0
   13.7438  -19.2513   20.8742 O   0  0  0  0  0  0  0  0  0  0  0  0
  2  3  2  0
  2  1  1  0
  4  3  1  0
  5  4  2  0
  6  5  1  0
  7  6  1  0
  7  8  1  1
  9 10  2  0
  9  7  1  0
 11  5  1  0
 11 12  2  0
 12  2  1  0
 13  9  1  0
 14 13  1  0
 14 15  1  6
 16 17  1  0
 16 15  1  0
 18 17  1  0
 19 18  1  0
 20 14  1  0
 20 22  1  0
 21 20  2  0
 23 22  1  0
 23 27  1  0
 23 24  1  1
 25 26  2  0
 25 24  1  0
 27 28  2  0
 27 30  1  0
 29 25  1  0
M  END
$$$$
