YKD.pdb
     RDKit          3D

 30 30  0  0  1  0  0  0  0  0999 V2000
   10.1311  -13.9864   31.0807 O   0  0  0  0  0  0  0  0  0  0  0  0
   10.0983  -14.3850   29.7315 C   0  0  0  0  0  0  0  0  0  0  0  0
    9.6875  -13.5280   28.7481 C   0  0  0  0  0  0  0  0  0  0  0  0
    9.6773  -13.9794   27.4367 C   0  0  0  0  0  0  0  0  0  0  0  0
   10.0672  -15.2592   27.1005 C   0  0  0  0  0  0  0  0  0  0  0  0
   10.0324  -15.6754   25.6739 C   0  0  0  0  0  0  0  0  0  0  0  0
    8.5992  -15.9980   25.3126 C   0  0  2  0  0  0  0  0  0  0  0  0
    8.1948  -17.1148   26.1292 N   0  0  0  0  0  0  0  0  0  0  0  0
    8.4545  -16.3745   23.8936 C   0  0  0  0  0  0  0  0  0  0  0  0
    8.4780  -17.5756   23.5768 O   0  0  0  0  0  0  0  0  0  0  0  0
   10.4747  -16.0967   28.1097 C   0  0  0  0  0  0  0  0  0  0  0  0
   10.4897  -15.6617   29.4159 C   0  0  0  0  0  0  0  0  0  0  0  0
    8.2924  -15.3481   22.9341 N   0  0  0  0  0  0  0  0  0  0  0  0
    8.5174  -15.6234   21.5202 C   0  0  1  0  0  0  0  0  0  0  0  0
    8.0569  -14.4212   20.7668 C   0  0  0  0  0  0  0  0  0  0  0  0
    8.1584  -14.6387   19.2969 C   0  0  0  0  0  0  0  0  0  0  0  0
    7.6237  -13.3834   18.6075 C   0  0  0  0  0  0  0  0  0  0  0  0
    7.5446  -13.6714   17.1396 C   0  0  0  0  0  0  0  0  0  0  0  0
    7.1924  -12.4855   16.3878 N   0  0  0  0  0  0  0  0  0  0  0  0
    9.9313  -15.9908   21.3272 C   0  0  0  0  0  0  0  0  0  0  0  0
   10.8778  -15.4103   21.9418 O   0  0  0  0  0  0  0  0  0  0  0  0
   10.2615  -17.0287   20.4251 N   0  0  0  0  0  0  0  0  0  0  0  0
   11.6587  -17.4614   20.2134 C   0  0  1  0  0  0  0  0  0  0  0  0
   11.7558  -18.9439   20.4448 C   0  0  0  0  0  0  0  0  0  0  0  0
   12.3395  -19.2545   21.7433 C   0  0  0  0  0  0  0  0  0  0  0  0
   13.3278  -18.6807   22.2268 O   0  0  0  0  0  0  0  0  0  0  0  0
   12.0547  -17.0569   18.8406 C   0  0  0  0  0  0  0  0  0  0  0  0
   11.2026  -16.9703   17.9044 O   0  0  0  0  0  0  0  0  0  0  0  0
   11.7445  -20.2764   22.5081 O   0  0  0  0  0  0  0  0  0  0  0  0
   13.3507  -16.7606   18.5292 O   0  0  0  0  0  0  0  0  0  0  0  0
  2  3  2  0
  2  1  1  0
  4  3  1  0
  5  4  2  0
  6  5  1  0
  7  6  1  0
  7  8  1  1
  9 10  2  0
  9  7  1  0
 11  5  1  0
 11 12  2  0
 12  2  1  0
 13  9  1  0
 14 13  1  0
 14 15  1  6
 16 17  1  0
 16 15  1  0
 18 17  1  0
 19 18  1  0
 20 14  1  0
 20 22  1  0
 21 20  2  0
 23 22  1  0
 23 27  1  0
 23 24  1  6
 25 26  2  0
 25 24  1  0
 27 28  2  0
 27 30  1  0
 29 25  1  0
M  END
$$$$
