YKD.pdb
     RDKit          3D

 30 30  0  0  1  0  0  0  0  0999 V2000
    4.8030  -10.9739   28.6612 O   0  0  0  0  0  0  0  0  0  0  0  0
    5.5718  -11.9048   27.9383 C   0  0  0  0  0  0  0  0  0  0  0  0
    5.3657  -12.1101   26.6019 C   0  0  0  0  0  0  0  0  0  0  0  0
    6.1558  -13.0413   25.9444 C   0  0  0  0  0  0  0  0  0  0  0  0
    7.1359  -13.7601   26.5969 C   0  0  0  0  0  0  0  0  0  0  0  0
    7.9465  -14.7413   25.8291 C   0  0  0  0  0  0  0  0  0  0  0  0
    7.0123  -15.5265   24.9350 C   0  0  2  0  0  0  0  0  0  0  0  0
    6.5687  -16.6744   25.6855 N   0  0  0  0  0  0  0  0  0  0  0  0
    7.6813  -15.9959   23.7068 C   0  0  0  0  0  0  0  0  0  0  0  0
    8.1381  -17.1505   23.6654 O   0  0  0  0  0  0  0  0  0  0  0  0
    7.3193  -13.5322   27.9386 C   0  0  0  0  0  0  0  0  0  0  0  0
    6.5422  -12.6107   28.6039 C   0  0  0  0  0  0  0  0  0  0  0  0
    7.7809  -15.1092   22.6093 N   0  0  0  0  0  0  0  0  0  0  0  0
    8.4571  -15.5277   21.3872 C   0  0  1  0  0  0  0  0  0  0  0  0
    8.1798  -14.4824   20.3599 C   0  0  0  0  0  0  0  0  0  0  0  0
    8.7716  -14.8536   19.0445 C   0  0  0  0  0  0  0  0  0  0  0  0
    8.3978  -13.7584   18.0457 C   0  0  0  0  0  0  0  0  0  0  0  0
    8.9625  -14.1477   16.7140 C   0  0  0  0  0  0  0  0  0  0  0  0
    8.5716  -13.2114   15.6814 N   0  0  0  0  0  0  0  0  0  0  0  0
    9.8806  -15.7606   21.6881 C   0  0  0  0  0  0  0  0  0  0  0  0
   10.5619  -14.9759   22.4166 O   0  0  0  0  0  0  0  0  0  0  0  0
   10.5260  -16.8987   21.1513 N   0  0  0  0  0  0  0  0  0  0  0  0
   11.9638  -17.1568   21.3753 C   0  0  1  0  0  0  0  0  0  0  0  0
   12.1810  -18.6368   21.5275 C   0  0  0  0  0  0  0  0  0  0  0  0
   11.8223  -19.1048   22.8600 C   0  0  0  0  0  0  0  0  0  0  0  0
   11.0794  -20.0715   23.0908 O   0  0  0  0  0  0  0  0  0  0  0  0
   12.7120  -16.5706   20.2344 C   0  0  0  0  0  0  0  0  0  0  0  0
   13.7953  -15.9338   20.4106 O   0  0  0  0  0  0  0  0  0  0  0  0
   12.3530  -18.4159   23.9677 O   0  0  0  0  0  0  0  0  0  0  0  0
   12.2664  -16.6931   18.9496 O   0  0  0  0  0  0  0  0  0  0  0  0
  2  3  2  0
  2  1  1  0
  4  3  1  0
  5  4  2  0
  6  5  1  0
  7  6  1  0
  7  8  1  1
  9 10  2  0
  9  7  1  0
 11  5  1  0
 11 12  2  0
 12  2  1  0
 13  9  1  0
 14 13  1  0
 14 15  1  6
 16 17  1  0
 16 15  1  0
 18 17  1  0
 19 18  1  0
 20 14  1  0
 20 22  1  0
 21 20  2  0
 23 22  1  0
 23 27  1  0
 23 24  1  6
 25 26  2  0
 25 24  1  0
 27 28  2  0
 27 30  1  0
 29 25  1  0
M  END
$$$$
