YKD.pdb
     RDKit          3D

 30 30  0  0  1  0  0  0  0  0999 V2000
    5.5260  -10.4865   28.2086 O   0  0  0  0  0  0  0  0  0  0  0  0
    6.1621  -11.5835   27.5985 C   0  0  0  0  0  0  0  0  0  0  0  0
    6.9123  -12.4645   28.3277 C   0  0  0  0  0  0  0  0  0  0  0  0
    7.5146  -13.5263   27.6692 C   0  0  0  0  0  0  0  0  0  0  0  0
    7.3783  -13.7160   26.3096 C   0  0  0  0  0  0  0  0  0  0  0  0
    8.0508  -14.8769   25.6697 C   0  0  0  0  0  0  0  0  0  0  0  0
    7.0375  -15.5866   24.7990 C   0  0  2  0  0  0  0  0  0  0  0  0
    6.5701  -16.7331   25.5370 N   0  0  0  0  0  0  0  0  0  0  0  0
    7.6246  -16.0513   23.5279 C   0  0  0  0  0  0  0  0  0  0  0  0
    7.9219  -17.2504   23.3968 O   0  0  0  0  0  0  0  0  0  0  0  0
    6.6190  -12.8150   25.6044 C   0  0  0  0  0  0  0  0  0  0  0  0
    6.0155  -11.7563   26.2452 C   0  0  0  0  0  0  0  0  0  0  0  0
    7.8307  -15.1092   22.4932 N   0  0  0  0  0  0  0  0  0  0  0  0
    8.6017  -15.4749   21.3110 C   0  0  1  0  0  0  0  0  0  0  0  0
    8.5761  -14.2969   20.3965 C   0  0  0  0  0  0  0  0  0  0  0  0
    7.9731  -14.6521   19.0818 C   0  0  0  0  0  0  0  0  0  0  0  0
    8.7735  -13.9305   17.9977 C   0  0  0  0  0  0  0  0  0  0  0  0
    8.1970  -14.3227   16.6720 C   0  0  0  0  0  0  0  0  0  0  0  0
    8.8922  -13.6723   15.5814 N   0  0  0  0  0  0  0  0  0  0  0  0
    9.9405  -15.9198   21.7363 C   0  0  0  0  0  0  0  0  0  0  0  0
   10.6751  -15.2321   22.5096 O   0  0  0  0  0  0  0  0  0  0  0  0
   10.4395  -17.1593   21.2727 N   0  0  0  0  0  0  0  0  0  0  0  0
   11.7954  -17.6325   21.6215 C   0  0  1  0  0  0  0  0  0  0  0  0
   11.7389  -19.1018   21.9355 C   0  0  0  0  0  0  0  0  0  0  0  0
   12.1040  -19.3766   23.3192 C   0  0  0  0  0  0  0  0  0  0  0  0
   11.5902  -20.2617   24.0208 O   0  0  0  0  0  0  0  0  0  0  0  0
   12.6934  -17.3123   20.4831 C   0  0  0  0  0  0  0  0  0  0  0  0
   12.3112  -17.4466   19.2806 O   0  0  0  0  0  0  0  0  0  0  0  0
   13.1102  -18.5858   23.9069 O   0  0  0  0  0  0  0  0  0  0  0  0
   13.9660  -16.8594   20.6825 O   0  0  0  0  0  0  0  0  0  0  0  0
  2  3  2  0
  2  1  1  0
  4  3  1  0
  5  4  2  0
  6  5  1  0
  7  6  1  0
  7  8  1  1
  9 10  2  0
  9  7  1  0
 11  5  1  0
 11 12  2  0
 12  2  1  0
 13  9  1  0
 14 13  1  0
 14 15  1  6
 16 17  1  0
 16 15  1  0
 18 17  1  0
 19 18  1  0
 20 14  1  0
 20 22  1  0
 21 20  2  0
 23 22  1  0
 23 27  1  0
 23 24  1  6
 25 26  2  0
 25 24  1  0
 27 28  2  0
 27 30  1  0
 29 25  1  0
M  END
$$$$
