YKD.pdb
     RDKit          3D

 30 30  0  0  1  0  0  0  0  0999 V2000
   10.9053  -14.3397   30.5819 O   0  0  0  0  0  0  0  0  0  0  0  0
    9.9993  -14.5572   29.5273 C   0  0  0  0  0  0  0  0  0  0  0  0
    9.6487  -15.8219   29.1424 C   0  0  0  0  0  0  0  0  0  0  0  0
    8.7507  -15.9717   28.0960 C   0  0  0  0  0  0  0  0  0  0  0  0
    8.2063  -14.8880   27.4385 C   0  0  0  0  0  0  0  0  0  0  0  0
    7.2487  -15.1226   26.3261 C   0  0  0  0  0  0  0  0  0  0  0  0
    7.8866  -16.0878   25.3514 C   0  0  2  0  0  0  0  0  0  0  0  0
    9.3090  -15.8584   25.3937 N   0  0  0  0  0  0  0  0  0  0  0  0
    7.4156  -15.8756   23.9696 C   0  0  0  0  0  0  0  0  0  0  0  0
    6.2050  -15.9894   23.7145 O   0  0  0  0  0  0  0  0  0  0  0  0
    8.5775  -13.6308   27.8475 C   0  0  0  0  0  0  0  0  0  0  0  0
    9.4679  -13.4675   28.8848 C   0  0  0  0  0  0  0  0  0  0  0  0
    8.3650  -15.5470   22.9739 N   0  0  0  0  0  0  0  0  0  0  0  0
    8.0768  -15.8124   21.5695 C   0  0  1  0  0  0  0  0  0  0  0  0
    8.2260  -14.5171   20.8451 C   0  0  0  0  0  0  0  0  0  0  0  0
    7.8509  -14.6589   19.4108 C   0  0  0  0  0  0  0  0  0  0  0  0
    8.1236  -13.3184   18.7285 C   0  0  0  0  0  0  0  0  0  0  0  0
    7.6987  -13.4435   17.2976 C   0  0  0  0  0  0  0  0  0  0  0  0
    7.7854  -12.1732   16.6087 N   0  0  0  0  0  0  0  0  0  0  0  0
    8.9495  -16.9046   21.1039 C   0  0  0  0  0  0  0  0  0  0  0  0
    8.5589  -18.1102   21.0386 O   0  0  0  0  0  0  0  0  0  0  0  0
   10.2765  -16.6129   20.7114 N   0  0  0  0  0  0  0  0  0  0  0  0
   11.1328  -17.6206   20.0514 C   0  0  1  0  0  0  0  0  0  0  0  0
   10.4302  -18.1382   18.8270 C   0  0  0  0  0  0  0  0  0  0  0  0
   11.2332  -19.1243   18.1154 C   0  0  0  0  0  0  0  0  0  0  0  0
   12.3852  -19.4571   18.4341 O   0  0  0  0  0  0  0  0  0  0  0  0
   12.4370  -16.9783   19.7492 C   0  0  0  0  0  0  0  0  0  0  0  0
   12.5122  -15.9469   19.0138 O   0  0  0  0  0  0  0  0  0  0  0  0
   10.6673  -19.7469   16.9860 O   0  0  0  0  0  0  0  0  0  0  0  0
   13.6083  -17.4695   20.2504 O   0  0  0  0  0  0  0  0  0  0  0  0
  2  3  2  0
  2  1  1  0
  4  3  1  0
  5  4  2  0
  6  5  1  0
  7  6  1  0
  7  8  1  6
  9 10  2  0
  9  7  1  0
 11  5  1  0
 11 12  2  0
 12  2  1  0
 13  9  1  0
 14 13  1  0
 14 15  1  6
 16 17  1  0
 16 15  1  0
 18 17  1  0
 19 18  1  0
 20 14  1  0
 20 22  1  0
 21 20  2  0
 23 22  1  0
 23 27  1  0
 23 24  1  6
 25 26  2  0
 25 24  1  0
 27 28  2  0
 27 30  1  0
 29 25  1  0
M  END
$$$$
