YKD.pdb
     RDKit          3D

 30 30  0  0  1  0  0  0  0  0999 V2000
    5.2554  -10.4573   28.1543 O   0  0  0  0  0  0  0  0  0  0  0  0
    5.9223  -11.5509   27.5715 C   0  0  0  0  0  0  0  0  0  0  0  0
    6.9247  -12.2054   28.2329 C   0  0  0  0  0  0  0  0  0  0  0  0
    7.5441  -13.2762   27.6059 C   0  0  0  0  0  0  0  0  0  0  0  0
    7.1792  -13.6954   26.3432 C   0  0  0  0  0  0  0  0  0  0  0  0
    7.8854  -14.8518   25.7321 C   0  0  0  0  0  0  0  0  0  0  0  0
    6.8822  -15.6400   24.9192 C   0  0  2  0  0  0  0  0  0  0  0  0
    6.4882  -16.7761   25.7139 N   0  0  0  0  0  0  0  0  0  0  0  0
    7.4548  -16.1280   23.6503 C   0  0  0  0  0  0  0  0  0  0  0  0
    7.8388  -17.3067   23.5688 O   0  0  0  0  0  0  0  0  0  0  0  0
    6.1695  -13.0186   25.7043 C   0  0  0  0  0  0  0  0  0  0  0  0
    5.5460  -11.9538   26.3150 C   0  0  0  0  0  0  0  0  0  0  0  0
    7.5482  -15.2310   22.5606 N   0  0  0  0  0  0  0  0  0  0  0  0
    8.1591  -15.6594   21.3081 C   0  0  1  0  0  0  0  0  0  0  0  0
    7.9709  -14.5471   20.3323 C   0  0  0  0  0  0  0  0  0  0  0  0
    8.5507  -14.8945   19.0052 C   0  0  0  0  0  0  0  0  0  0  0  0
    8.2602  -13.7314   18.0567 C   0  0  0  0  0  0  0  0  0  0  0  0
    8.7600  -14.1183   16.6987 C   0  0  0  0  0  0  0  0  0  0  0  0
    8.4565  -13.1003   15.7152 N   0  0  0  0  0  0  0  0  0  0  0  0
    9.5570  -16.0454   21.5692 C   0  0  0  0  0  0  0  0  0  0  0  0
   10.2954  -15.4216   22.3915 O   0  0  0  0  0  0  0  0  0  0  0  0
   10.1108  -17.1518   20.8843 N   0  0  0  0  0  0  0  0  0  0  0  0
   11.5044  -17.5892   21.1095 C   0  0  1  0  0  0  0  0  0  0  0  0
   11.5458  -19.0909   21.1703 C   0  0  0  0  0  0  0  0  0  0  0  0
   12.9085  -19.5930   21.2899 C   0  0  0  0  0  0  0  0  0  0  0  0
   13.4328  -20.4007   20.5074 O   0  0  0  0  0  0  0  0  0  0  0  0
   12.3379  -17.0253   20.0176 C   0  0  0  0  0  0  0  0  0  0  0  0
   11.9581  -17.0643   18.8075 O   0  0  0  0  0  0  0  0  0  0  0  0
   13.6904  -19.1328   22.3670 O   0  0  0  0  0  0  0  0  0  0  0  0
   13.5458  -16.4409   20.2701 O   0  0  0  0  0  0  0  0  0  0  0  0
  2  3  2  0
  2  1  1  0
  4  3  1  0
  5  4  2  0
  6  5  1  0
  7  6  1  0
  7  8  1  1
  9 10  2  0
  9  7  1  0
 11  5  1  0
 11 12  2  0
 12  2  1  0
 13  9  1  0
 14 13  1  0
 14 15  1  6
 16 17  1  0
 16 15  1  0
 18 17  1  0
 19 18  1  0
 20 14  1  0
 20 22  1  0
 21 20  2  0
 23 22  1  0
 23 27  1  0
 23 24  1  6
 25 26  2  0
 25 24  1  0
 27 28  2  0
 27 30  1  0
 29 25  1  0
M  END
$$$$
