QEF.pdb
     RDKit          3D

 30 30  0  0  1  0  0  0  0  0999 V2000
   19.5194  -15.9151  -16.8666 N   0  0  0  0  0  0  0  0  0  0  0  0
   18.2260  -16.2438  -16.3636 C   0  0  0  0  0  0  0  0  0  0  0  0
   17.9971  -17.4187  -16.0402 O   0  0  0  0  0  0  0  0  0  0  0  0
   17.2394  -15.1530  -16.2630 C   0  0  0  0  0  0  0  0  0  0  0  0
   17.7993  -13.8306  -16.7009 C   0  0  0  0  0  0  0  0  0  0  0  0
   17.1239  -13.2337  -17.9040 C   0  0  2  0  0  0  0  0  0  0  0  0
   17.7048  -13.9215  -19.0604 N   0  0  0  0  0  0  0  0  0  0  0  0
   17.4644  -11.7808  -17.9565 C   0  0  0  0  0  0  0  0  0  0  0  0
   18.6069  -11.3697  -18.2662 O   0  0  0  0  0  0  0  0  0  0  0  0
   16.5062  -10.7715  -17.6562 N   0  0  0  0  0  0  0  0  0  0  0  0
   16.8593   -9.3876  -17.6209 C   0  0  1  0  0  0  0  0  0  0  0  0
   15.6572   -8.4873  -17.7359 C   0  0  0  0  0  0  0  0  0  0  0  0
   16.0044   -7.0343  -17.7859 C   0  0  0  0  0  0  0  0  0  0  0  0
   15.6318   -6.4257  -16.4820 C   0  0  0  0  0  0  0  0  0  0  0  0
   16.4943   -6.1444  -15.6112 O   0  0  0  0  0  0  0  0  0  0  0  0
   17.6758   -9.0461  -16.4109 C   0  0  0  0  0  0  0  0  0  0  0  0
   17.4333   -9.5914  -15.3050 O   0  0  0  0  0  0  0  0  0  0  0  0
   14.3004   -6.1356  -16.1596 O   0  0  0  0  0  0  0  0  0  0  0  0
   18.7427   -8.1100  -16.4467 N   0  0  0  0  0  0  0  0  0  0  0  0
   19.4462   -7.7017  -15.2189 C   0  0  1  0  0  0  0  0  0  0  0  0
   20.8503   -8.1972  -15.2102 C   0  0  0  0  0  0  0  0  0  0  0  0
   21.5639   -7.7473  -14.0114 C   0  0  0  0  0  0  0  0  0  0  0  0
   21.5872   -8.5520  -12.8924 C   0  0  0  0  0  0  0  0  0  0  0  0
   22.2682   -8.0978  -11.7852 C   0  0  0  0  0  0  0  0  0  0  0  0
   22.9165   -6.8697  -11.7797 C   0  0  0  0  0  0  0  0  0  0  0  0
   22.9028   -6.0483  -12.8964 C   0  0  0  0  0  0  0  0  0  0  0  0
   22.2196   -6.5092  -14.0006 C   0  0  0  0  0  0  0  0  0  0  0  0
   19.2774   -6.2600  -15.0150 C   0  0  0  0  0  0  0  0  0  0  0  0
   19.2311   -5.3697  -16.1107 O   0  0  0  0  0  0  0  0  0  0  0  0
   19.1629   -5.7027  -13.8965 O   0  0  0  0  0  0  0  0  0  0  0  0
  2  1  1  0
  2  3  2  0
  4  2  1  0
  5  4  1  0
  6  5  1  0
  6  7  1  6
  8  9  2  0
  8  6  1  0
 10  8  1  0
 11 10  1  0
 11 12  1  1
 13 14  1  0
 13 12  1  0
 14 18  1  0
 15 14  2  0
 16 17  2  0
 16 11  1  0
 19 16  1  0
 20 21  1  6
 20 19  1  0
 22 21  1  0
 22 23  2  0
 24 23  1  0
 25 24  2  0
 26 27  2  0
 26 25  1  0
 27 22  1  0
 28 20  1  0
 29 28  1  0
 30 28  2  0
M  END
$$$$
