QEF.pdb
     RDKit          3D

 30 30  0  0  1  0  0  0  0  0999 V2000
   21.8432  -10.7719    7.2743 N   0  0  0  0  0  0  0  0  0  0  0  0
   20.9703  -11.5297    6.4387 C   0  0  0  0  0  0  0  0  0  0  0  0
   21.4618  -12.1825    5.5062 O   0  0  0  0  0  0  0  0  0  0  0  0
   19.5287  -11.4831    6.7436 C   0  0  0  0  0  0  0  0  0  0  0  0
   19.0100  -12.7915    7.2662 C   0  0  0  0  0  0  0  0  0  0  0  0
   17.5628  -12.7724    7.6722 C   0  0  2  0  0  0  0  0  0  0  0  0
   17.5268  -12.0746    8.9605 N   0  0  0  0  0  0  0  0  0  0  0  0
   17.1100  -14.1843    7.8493 C   0  0  0  0  0  0  0  0  0  0  0  0
   17.2914  -14.8189    8.9145 O   0  0  0  0  0  0  0  0  0  0  0  0
   16.4420  -14.8964    6.8132 N   0  0  0  0  0  0  0  0  0  0  0  0
   16.0151  -16.2488    6.9863 C   0  0  1  0  0  0  0  0  0  0  0  0
   14.5179  -16.3654    7.1046 C   0  0  0  0  0  0  0  0  0  0  0  0
   13.9619  -15.6864    8.3146 C   0  0  0  0  0  0  0  0  0  0  0  0
   12.9251  -14.7203    7.8660 C   0  0  0  0  0  0  0  0  0  0  0  0
   12.3858  -13.9097    8.6619 O   0  0  0  0  0  0  0  0  0  0  0  0
   16.5431  -17.1477    5.9090 C   0  0  0  0  0  0  0  0  0  0  0  0
   16.5155  -16.7839    4.7065 O   0  0  0  0  0  0  0  0  0  0  0  0
   12.4981  -14.6659    6.5335 O   0  0  0  0  0  0  0  0  0  0  0  0
   17.0904  -18.4291    6.1812 N   0  0  0  0  0  0  0  0  0  0  0  0
   17.7180  -19.2360    5.1210 C   0  0  1  0  0  0  0  0  0  0  0  0
   18.8575  -18.5117    4.4933 C   0  0  0  0  0  0  0  0  0  0  0  0
   18.4341  -17.8075    3.2794 C   0  0  0  0  0  0  0  0  0  0  0  0
   18.4873  -16.4305    3.2392 C   0  0  0  0  0  0  0  0  0  0  0  0
   18.0830  -15.8029    2.0822 C   0  0  0  0  0  0  0  0  0  0  0  0
   17.6330  -16.5200    0.9815 C   0  0  0  0  0  0  0  0  0  0  0  0
   17.5732  -17.9048    1.0053 C   0  0  0  0  0  0  0  0  0  0  0  0
   17.9793  -18.5261    2.1661 C   0  0  0  0  0  0  0  0  0  0  0  0
   18.0200  -20.5738    5.6385 C   0  0  0  0  0  0  0  0  0  0  0  0
   18.4585  -21.6055    4.7791 O   0  0  0  0  0  0  0  0  0  0  0  0
   17.9221  -20.9159    6.8419 O   0  0  0  0  0  0  0  0  0  0  0  0
  2  1  1  0
  2  3  2  0
  4  2  1  0
  5  4  1  0
  6  5  1  0
  6  7  1  1
  8  9  2  0
  8  6  1  0
 10  8  1  0
 11 10  1  0
 11 12  1  6
 13 14  1  0
 13 12  1  0
 14 18  1  0
 15 14  2  0
 16 17  2  0
 16 11  1  0
 19 16  1  0
 20 21  1  1
 20 19  1  0
 22 21  1  0
 22 23  2  0
 24 23  1  0
 25 24  2  0
 26 27  2  0
 26 25  1  0
 27 22  1  0
 28 20  1  0
 29 28  1  0
 30 28  2  0
M  END
$$$$
