QEF.pdb
     RDKit          3D

 30 30  0  0  1  0  0  0  0  0999 V2000
   10.9757  -17.9924    0.6825 N   0  0  0  0  0  0  0  0  0  0  0  0
   10.3574  -18.9938   -0.1232 C   0  0  0  0  0  0  0  0  0  0  0  0
    9.6536  -18.6343   -1.0786 O   0  0  0  0  0  0  0  0  0  0  0  0
   10.5990  -20.4021    0.2401 C   0  0  0  0  0  0  0  0  0  0  0  0
   11.5491  -20.5422    1.3940 C   0  0  0  0  0  0  0  0  0  0  0  0
   13.0023  -20.4412    1.0225 C   0  0  2  0  0  0  0  0  0  0  0  0
   13.3553  -21.7494    0.4640 N   0  0  0  0  0  0  0  0  0  0  0  0
   13.7860  -20.1959    2.2696 C   0  0  0  0  0  0  0  0  0  0  0  0
   13.5014  -19.2759    3.0715 O   0  0  0  0  0  0  0  0  0  0  0  0
   14.9088  -20.9968    2.6232 N   0  0  0  0  0  0  0  0  0  0  0  0
   15.6276  -20.7866    3.8399 C   0  0  1  0  0  0  0  0  0  0  0  0
   16.4461  -21.9876    4.2356 C   0  0  0  0  0  0  0  0  0  0  0  0
   15.6293  -23.1044    4.8012 C   0  0  0  0  0  0  0  0  0  0  0  0
   16.5406  -24.2429    5.0888 C   0  0  0  0  0  0  0  0  0  0  0  0
   16.1425  -25.2767    5.6840 O   0  0  0  0  0  0  0  0  0  0  0  0
   16.4738  -19.5503    3.7870 C   0  0  0  0  0  0  0  0  0  0  0  0
   17.0359  -19.2093    2.7160 O   0  0  0  0  0  0  0  0  0  0  0  0
   17.8887  -24.2195    4.7105 O   0  0  0  0  0  0  0  0  0  0  0  0
   16.6818  -18.7162    4.9169 N   0  0  0  0  0  0  0  0  0  0  0  0
   17.4535  -17.4658    4.8154 C   0  0  1  0  0  0  0  0  0  0  0  0
   16.9477  -16.6067    3.7094 C   0  0  0  0  0  0  0  0  0  0  0  0
   17.7663  -15.4000    3.5585 C   0  0  0  0  0  0  0  0  0  0  0  0
   18.8653  -15.4241    2.7267 C   0  0  0  0  0  0  0  0  0  0  0  0
   19.6102  -14.2721    2.6083 C   0  0  0  0  0  0  0  0  0  0  0  0
   19.2781  -13.1138    3.2986 C   0  0  0  0  0  0  0  0  0  0  0  0
   18.1764  -13.0725    4.1390 C   0  0  0  0  0  0  0  0  0  0  0  0
   17.4357  -14.2288    4.2526 C   0  0  0  0  0  0  0  0  0  0  0  0
   17.5291  -16.8294    6.1337 C   0  0  0  0  0  0  0  0  0  0  0  0
   18.7083  -16.1809    6.5630 O   0  0  0  0  0  0  0  0  0  0  0  0
   16.5946  -16.8010    6.9707 O   0  0  0  0  0  0  0  0  0  0  0  0
  2  1  1  0
  2  3  2  0
  4  2  1  0
  5  4  1  0
  6  5  1  0
  6  7  1  1
  8  9  2  0
  8  6  1  0
 10  8  1  0
 11 10  1  0
 11 12  1  6
 13 14  1  0
 13 12  1  0
 14 18  1  0
 15 14  2  0
 16 17  2  0
 16 11  1  0
 19 16  1  0
 20 21  1  6
 20 19  1  0
 22 21  1  0
 22 23  2  0
 24 23  1  0
 25 24  2  0
 26 27  2  0
 26 25  1  0
 27 22  1  0
 28 20  1  0
 29 28  1  0
 30 28  2  0
M  END
$$$$
