QEF.pdb
     RDKit          3D

 30 30  0  0  1  0  0  0  0  0999 V2000
   27.4446  -25.3656  -19.9269 N   0  0  0  0  0  0  0  0  0  0  0  0
   26.9072  -26.6580  -19.6532 C   0  0  0  0  0  0  0  0  0  0  0  0
   27.0539  -27.5520  -20.4998 O   0  0  0  0  0  0  0  0  0  0  0  0
   26.2058  -26.8437  -18.3699 C   0  0  0  0  0  0  0  0  0  0  0  0
   26.0966  -25.5681  -17.5857 C   0  0  0  0  0  0  0  0  0  0  0  0
   27.3905  -25.0892  -16.9887 C   0  0  2  0  0  0  0  0  0  0  0  0
   27.8365  -26.1688  -16.1036 N   0  0  0  0  0  0  0  0  0  0  0  0
   27.1073  -23.8622  -16.1862 C   0  0  0  0  0  0  0  0  0  0  0  0
   26.9759  -23.8902  -14.9403 O   0  0  0  0  0  0  0  0  0  0  0  0
   26.9690  -22.5813  -16.7923 N   0  0  0  0  0  0  0  0  0  0  0  0
   26.7528  -21.4023  -16.0150 C   0  0  1  0  0  0  0  0  0  0  0  0
   27.1186  -20.1479  -16.7645 C   0  0  0  0  0  0  0  0  0  0  0  0
   26.8909  -18.8971  -15.9783 C   0  0  0  0  0  0  0  0  0  0  0  0
   27.2787  -17.7409  -16.8281 C   0  0  0  0  0  0  0  0  0  0  0  0
   26.9581  -17.6737  -18.0423 O   0  0  0  0  0  0  0  0  0  0  0  0
   25.3521  -21.3261  -15.4862 C   0  0  0  0  0  0  0  0  0  0  0  0
   24.3975  -21.8162  -16.1403 O   0  0  0  0  0  0  0  0  0  0  0  0
   28.0209  -16.6690  -16.3174 O   0  0  0  0  0  0  0  0  0  0  0  0
   25.0342  -20.7108  -14.2469 N   0  0  0  0  0  0  0  0  0  0  0  0
   23.6533  -20.6848  -13.7355 C   0  0  1  0  0  0  0  0  0  0  0  0
   23.6203  -20.8690  -12.2583 C   0  0  0  0  0  0  0  0  0  0  0  0
   22.2562  -20.7377  -11.7379 C   0  0  0  0  0  0  0  0  0  0  0  0
   21.8469  -19.5362  -11.2000 C   0  0  0  0  0  0  0  0  0  0  0  0
   20.5585  -19.4489  -10.7220 C   0  0  0  0  0  0  0  0  0  0  0  0
   19.6863  -20.5282  -10.7728 C   0  0  0  0  0  0  0  0  0  0  0  0
   20.0818  -21.7434  -11.3103 C   0  0  0  0  0  0  0  0  0  0  0  0
   21.3722  -21.8235  -11.7866 C   0  0  0  0  0  0  0  0  0  0  0  0
   22.9652  -19.4952  -14.2454 C   0  0  0  0  0  0  0  0  0  0  0  0
   21.5874  -19.5271  -14.5549 O   0  0  0  0  0  0  0  0  0  0  0  0
   23.5103  -18.3829  -14.4469 O   0  0  0  0  0  0  0  0  0  0  0  0
  2  1  1  0
  2  3  2  0
  4  2  1  0
  5  4  1  0
  6  5  1  0
  6  7  1  1
  8  9  2  0
  8  6  1  0
 10  8  1  0
 11 10  1  0
 11 12  1  6
 13 14  1  0
 13 12  1  0
 14 18  1  0
 15 14  2  0
 16 17  2  0
 16 11  1  0
 19 16  1  0
 20 21  1  1
 20 19  1  0
 22 21  1  0
 22 23  2  0
 24 23  1  0
 25 24  2  0
 26 27  2  0
 26 25  1  0
 27 22  1  0
 28 20  1  0
 29 28  1  0
 30 28  2  0
M  END
$$$$
