QEF.pdb
     RDKit          3D

 30 30  0  0  1  0  0  0  0  0999 V2000
   26.6382  -25.2646  -16.6551 N   0  0  0  0  0  0  0  0  0  0  0  0
   27.7760  -25.6937  -17.4003 C   0  0  0  0  0  0  0  0  0  0  0  0
   27.6477  -26.6500  -18.1790 O   0  0  0  0  0  0  0  0  0  0  0  0
   29.0397  -24.9641  -17.1903 C   0  0  0  0  0  0  0  0  0  0  0  0
   28.8497  -23.7040  -16.3966 C   0  0  0  0  0  0  0  0  0  0  0  0
   28.1725  -22.5902  -17.1454 C   0  0  2  0  0  0  0  0  0  0  0  0
   29.2377  -21.9179  -17.8946 N   0  0  0  0  0  0  0  0  0  0  0  0
   27.5844  -21.6480  -16.1474 C   0  0  0  0  0  0  0  0  0  0  0  0
   28.2525  -21.1683  -15.2019 O   0  0  0  0  0  0  0  0  0  0  0  0
   26.2228  -21.2368  -16.2112 N   0  0  0  0  0  0  0  0  0  0  0  0
   25.6584  -20.3552  -15.2390 C   0  0  1  0  0  0  0  0  0  0  0  0
   24.7189  -19.3512  -15.8542 C   0  0  0  0  0  0  0  0  0  0  0  0
   24.0023  -18.5113  -14.8464 C   0  0  0  0  0  0  0  0  0  0  0  0
   23.0550  -17.6262  -15.5734 C   0  0  0  0  0  0  0  0  0  0  0  0
   21.8410  -17.5502  -15.2541 O   0  0  0  0  0  0  0  0  0  0  0  0
   24.9945  -21.1014  -14.1211 C   0  0  0  0  0  0  0  0  0  0  0  0
   24.1021  -21.9518  -14.3654 O   0  0  0  0  0  0  0  0  0  0  0  0
   23.4688  -16.8328  -16.6504 O   0  0  0  0  0  0  0  0  0  0  0  0
   25.3292  -20.8936  -12.7571 N   0  0  0  0  0  0  0  0  0  0  0  0
   24.5653  -21.5352  -11.6736 C   0  0  1  0  0  0  0  0  0  0  0  0
   25.4712  -22.1327  -10.6540 C   0  0  0  0  0  0  0  0  0  0  0  0
   26.1573  -21.0937   -9.8803 C   0  0  0  0  0  0  0  0  0  0  0  0
   27.5040  -20.8762  -10.0793 C   0  0  0  0  0  0  0  0  0  0  0  0
   28.1152  -19.8914   -9.3360 C   0  0  0  0  0  0  0  0  0  0  0  0
   27.4111  -19.1321   -8.4107 C   0  0  0  0  0  0  0  0  0  0  0  0
   26.0567  -19.3378   -8.1983 C   0  0  0  0  0  0  0  0  0  0  0  0
   25.4517  -20.3249   -8.9455 C   0  0  0  0  0  0  0  0  0  0  0  0
   23.5600  -20.5986  -11.1629 C   0  0  0  0  0  0  0  0  0  0  0  0
   22.4371  -21.0581  -10.4396 O   0  0  0  0  0  0  0  0  0  0  0  0
   23.5988  -19.3532  -11.3127 O   0  0  0  0  0  0  0  0  0  0  0  0
  2  1  1  0
  2  3  2  0
  4  2  1  0
  5  4  1  0
  6  5  1  0
  6  7  1  1
  8  9  2  0
  8  6  1  0
 10  8  1  0
 11 10  1  0
 11 12  1  6
 13 14  1  0
 13 12  1  0
 14 18  1  0
 15 14  2  0
 16 17  2  0
 16 11  1  0
 19 16  1  0
 20 21  1  1
 20 19  1  0
 22 21  1  0
 22 23  2  0
 24 23  1  0
 25 24  2  0
 26 27  2  0
 26 25  1  0
 27 22  1  0
 28 20  1  0
 29 28  1  0
 30 28  2  0
M  END
$$$$
