QEF.pdb
     RDKit          3D

 30 30  0  0  1  0  0  0  0  0999 V2000
   12.1792   -7.8713  -16.1600 N   0  0  0  0  0  0  0  0  0  0  0  0
   13.4477   -7.8229  -16.8100 C   0  0  0  0  0  0  0  0  0  0  0  0
   13.7475   -6.8033  -17.4487 O   0  0  0  0  0  0  0  0  0  0  0  0
   14.3237   -9.0013  -16.6777 C   0  0  0  0  0  0  0  0  0  0  0  0
   15.4209   -8.7909  -15.6748 C   0  0  0  0  0  0  0  0  0  0  0  0
   16.3976   -9.9289  -15.5694 C   0  0  2  0  0  0  0  0  0  0  0  0
   15.9041  -10.7681  -14.4739 N   0  0  0  0  0  0  0  0  0  0  0  0
   17.7332   -9.3649  -15.2120 C   0  0  0  0  0  0  0  0  0  0  0  0
   18.0148   -8.9907  -14.0496 O   0  0  0  0  0  0  0  0  0  0  0  0
   18.7710   -9.2183  -16.1755 N   0  0  0  0  0  0  0  0  0  0  0  0
   20.1073   -8.8855  -15.7950 C   0  0  1  0  0  0  0  0  0  0  0  0
   21.1230   -9.8231  -16.3937 C   0  0  0  0  0  0  0  0  0  0  0  0
   21.2320  -11.1249  -15.6673 C   0  0  0  0  0  0  0  0  0  0  0  0
   21.5950  -12.1752  -16.6546 C   0  0  0  0  0  0  0  0  0  0  0  0
   20.7922  -13.0880  -16.9766 O   0  0  0  0  0  0  0  0  0  0  0  0
   20.4417   -7.4576  -16.1057 C   0  0  0  0  0  0  0  0  0  0  0  0
   20.0354   -6.9259  -17.1694 O   0  0  0  0  0  0  0  0  0  0  0  0
   22.8501  -12.1991  -17.2750 O   0  0  0  0  0  0  0  0  0  0  0  0
   21.2172   -6.6463  -15.2362 N   0  0  0  0  0  0  0  0  0  0  0  0
   21.4544   -5.2217  -15.5247 C   0  0  1  0  0  0  0  0  0  0  0  0
   20.1776   -4.5050  -15.7951 C   0  0  0  0  0  0  0  0  0  0  0  0
   20.4100   -3.0758  -16.0243 C   0  0  0  0  0  0  0  0  0  0  0  0
   20.9516   -2.6590  -17.2215 C   0  0  0  0  0  0  0  0  0  0  0  0
   21.1548   -1.3092  -17.4024 C   0  0  0  0  0  0  0  0  0  0  0  0
   20.8296   -0.3837  -16.4195 C   0  0  0  0  0  0  0  0  0  0  0  0
   20.2843   -0.7859  -15.2101 C   0  0  0  0  0  0  0  0  0  0  0  0
   20.0838   -2.1380  -15.0359 C   0  0  0  0  0  0  0  0  0  0  0  0
   22.3001   -4.6445  -14.4758 C   0  0  0  0  0  0  0  0  0  0  0  0
   23.2224   -3.6151  -14.7677 O   0  0  0  0  0  0  0  0  0  0  0  0
   22.2865   -4.9940  -13.2706 O   0  0  0  0  0  0  0  0  0  0  0  0
  2  1  1  0
  2  3  2  0
  4  2  1  0
  5  4  1  0
  6  5  1  0
  6  7  1  1
  8  9  2  0
  8  6  1  0
 10  8  1  0
 11 10  1  0
 11 12  1  6
 13 14  1  0
 13 12  1  0
 14 18  1  0
 15 14  2  0
 16 17  2  0
 16 11  1  0
 19 16  1  0
 20 21  1  1
 20 19  1  0
 22 21  1  0
 22 23  2  0
 24 23  1  0
 25 24  2  0
 26 27  2  0
 26 25  1  0
 27 22  1  0
 28 20  1  0
 29 28  1  0
 30 28  2  0
M  END
$$$$
