QEF.pdb
     RDKit          3D

 30 30  0  0  1  0  0  0  0  0999 V2000
   24.7430  -24.7149  -14.1172 N   0  0  0  0  0  0  0  0  0  0  0  0
   25.1141  -23.9203  -15.2419 C   0  0  0  0  0  0  0  0  0  0  0  0
   26.0841  -24.2785  -15.9262 O   0  0  0  0  0  0  0  0  0  0  0  0
   24.3114  -22.7143  -15.5156 C   0  0  0  0  0  0  0  0  0  0  0  0
   23.1854  -22.5404  -14.5379 C   0  0  0  0  0  0  0  0  0  0  0  0
   22.1660  -23.6451  -14.5561 C   0  0  2  0  0  0  0  0  0  0  0  0
   21.5928  -23.6267  -15.9048 N   0  0  0  0  0  0  0  0  0  0  0  0
   21.1087  -23.3200  -13.5530 C   0  0  0  0  0  0  0  0  0  0  0  0
   21.0923  -22.2377  -12.9216 O   0  0  0  0  0  0  0  0  0  0  0  0
   20.0514  -24.2250  -13.2531 N   0  0  0  0  0  0  0  0  0  0  0  0
   19.0259  -23.8970  -12.3141 C   0  0  1  0  0  0  0  0  0  0  0  0
   17.6513  -23.9437  -12.9285 C   0  0  0  0  0  0  0  0  0  0  0  0
   17.4879  -23.0199  -14.0922 C   0  0  0  0  0  0  0  0  0  0  0  0
   16.8384  -23.7768  -15.1944 C   0  0  0  0  0  0  0  0  0  0  0  0
   15.9329  -24.6213  -14.9748 O   0  0  0  0  0  0  0  0  0  0  0  0
   19.0963  -24.7499  -11.0832 C   0  0  0  0  0  0  0  0  0  0  0  0
   19.6441  -25.8801  -11.1228 O   0  0  0  0  0  0  0  0  0  0  0  0
   17.2038  -23.5859  -16.5326 O   0  0  0  0  0  0  0  0  0  0  0  0
   18.5609  -24.3376   -9.8346 N   0  0  0  0  0  0  0  0  0  0  0  0
   18.7209  -25.1591   -8.6228 C   0  0  1  0  0  0  0  0  0  0  0  0
   18.7845  -24.3119   -7.3999 C   0  0  0  0  0  0  0  0  0  0  0  0
   17.4421  -23.9998   -6.9007 C   0  0  0  0  0  0  0  0  0  0  0  0
   16.9634  -24.6523   -5.7846 C   0  0  0  0  0  0  0  0  0  0  0  0
   15.6988  -24.3328   -5.3433 C   0  0  0  0  0  0  0  0  0  0  0  0
   14.9172  -23.3853   -5.9911 C   0  0  0  0  0  0  0  0  0  0  0  0
   15.3831  -22.7201   -7.1146 C   0  0  0  0  0  0  0  0  0  0  0  0
   16.6493  -23.0447   -7.5505 C   0  0  0  0  0  0  0  0  0  0  0  0
   17.7079  -26.2185   -8.6127 C   0  0  0  0  0  0  0  0  0  0  0  0
   17.9116  -27.4145   -7.8894 O   0  0  0  0  0  0  0  0  0  0  0  0
   16.6104  -26.1667   -9.2191 O   0  0  0  0  0  0  0  0  0  0  0  0
  2  1  1  0
  2  3  2  0
  4  2  1  0
  5  4  1  0
  6  5  1  0
  6  7  1  6
  8  9  2  0
  8  6  1  0
 10  8  1  0
 11 10  1  0
 11 12  1  6
 13 14  1  0
 13 12  1  0
 14 18  1  0
 15 14  2  0
 16 17  2  0
 16 11  1  0
 19 16  1  0
 20 21  1  1
 20 19  1  0
 22 21  1  0
 22 23  2  0
 24 23  1  0
 25 24  2  0
 26 27  2  0
 26 25  1  0
 27 22  1  0
 28 20  1  0
 29 28  1  0
 30 28  2  0
M  END
$$$$
