QEF.pdb
     RDKit          3D

 30 30  0  0  1  0  0  0  0  0999 V2000
   27.0682  -25.8142  -17.3061 N   0  0  0  0  0  0  0  0  0  0  0  0
   26.9328  -24.7559  -16.3597 C   0  0  0  0  0  0  0  0  0  0  0  0
   26.2716  -24.9620  -15.3312 O   0  0  0  0  0  0  0  0  0  0  0  0
   27.5938  -23.4760  -16.6732 C   0  0  0  0  0  0  0  0  0  0  0  0
   28.3291  -23.5153  -17.9816 C   0  0  0  0  0  0  0  0  0  0  0  0
   27.7858  -22.5868  -19.0317 C   0  0  2  0  0  0  0  0  0  0  0  0
   28.9402  -21.8241  -19.5149 N   0  0  0  0  0  0  0  0  0  0  0  0
   26.8088  -21.6656  -18.3786 C   0  0  0  0  0  0  0  0  0  0  0  0
   27.1660  -20.6310  -17.7684 O   0  0  0  0  0  0  0  0  0  0  0  0
   25.4065  -21.9095  -18.4108 N   0  0  0  0  0  0  0  0  0  0  0  0
   24.4743  -21.0121  -17.8052 C   0  0  1  0  0  0  0  0  0  0  0  0
   23.1865  -20.9156  -18.5807 C   0  0  0  0  0  0  0  0  0  0  0  0
   22.6600  -19.5208  -18.6888 C   0  0  0  0  0  0  0  0  0  0  0  0
   22.1724  -19.1064  -17.3472 C   0  0  0  0  0  0  0  0  0  0  0  0
   21.2290  -19.7055  -16.7706 O   0  0  0  0  0  0  0  0  0  0  0  0
   24.2150  -21.3550  -16.3690 C   0  0  0  0  0  0  0  0  0  0  0  0
   23.9983  -22.5449  -16.0280 O   0  0  0  0  0  0  0  0  0  0  0  0
   22.7407  -18.0273  -16.6592 O   0  0  0  0  0  0  0  0  0  0  0  0
   24.2005  -20.3776  -15.3393 N   0  0  0  0  0  0  0  0  0  0  0  0
   24.1097  -20.7603  -13.9200 C   0  0  1  0  0  0  0  0  0  0  0  0
   25.0321  -19.9466  -13.0807 C   0  0  0  0  0  0  0  0  0  0  0  0
   24.9060  -20.2961  -11.6626 C   0  0  0  0  0  0  0  0  0  0  0  0
   25.9242  -20.9859  -11.0398 C   0  0  0  0  0  0  0  0  0  0  0  0
   25.7721  -21.2961   -9.7069 C   0  0  0  0  0  0  0  0  0  0  0  0
   24.6347  -20.9327   -8.9979 C   0  0  0  0  0  0  0  0  0  0  0  0
   23.6017  -20.2389   -9.6089 C   0  0  0  0  0  0  0  0  0  0  0  0
   23.7607  -19.9319  -10.9427 C   0  0  0  0  0  0  0  0  0  0  0  0
   22.7044  -20.7640  -13.5034 C   0  0  0  0  0  0  0  0  0  0  0  0
   22.1845  -21.8056  -12.7032 O   0  0  0  0  0  0  0  0  0  0  0  0
   21.8650  -19.8810  -13.8043 O   0  0  0  0  0  0  0  0  0  0  0  0
  2  1  1  0
  2  3  2  0
  4  2  1  0
  5  4  1  0
  6  5  1  0
  6  7  1  1
  8  9  2  0
  8  6  1  0
 10  8  1  0
 11 10  1  0
 11 12  1  6
 13 14  1  0
 13 12  1  0
 14 18  1  0
 15 14  2  0
 16 17  2  0
 16 11  1  0
 19 16  1  0
 20 21  1  1
 20 19  1  0
 22 21  1  0
 22 23  2  0
 24 23  1  0
 25 24  2  0
 26 27  2  0
 26 25  1  0
 27 22  1  0
 28 20  1  0
 29 28  1  0
 30 28  2  0
M  END
$$$$
