QEF.pdb
     RDKit          3D

 30 30  0  0  1  0  0  0  0  0999 V2000
   28.1319  -17.5769  -20.8799 N   0  0  0  0  0  0  0  0  0  0  0  0
   27.3427  -18.7259  -20.5781 C   0  0  0  0  0  0  0  0  0  0  0  0
   26.6574  -19.2277  -21.4814 O   0  0  0  0  0  0  0  0  0  0  0  0
   27.3955  -19.2423  -19.1983 C   0  0  0  0  0  0  0  0  0  0  0  0
   26.4077  -18.5642  -18.2936 C   0  0  0  0  0  0  0  0  0  0  0  0
   25.0779  -18.2694  -18.9297 C   0  0  2  0  0  0  0  0  0  0  0  0
   25.1974  -16.9151  -19.4769 N   0  0  0  0  0  0  0  0  0  0  0  0
   24.0350  -18.2927  -17.8613 C   0  0  0  0  0  0  0  0  0  0  0  0
   24.0611  -17.5132  -16.8804 O   0  0  0  0  0  0  0  0  0  0  0  0
   22.9438  -19.2066  -17.8939 N   0  0  0  0  0  0  0  0  0  0  0  0
   21.9507  -19.2272  -16.8670 C   0  0  1  0  0  0  0  0  0  0  0  0
   20.6142  -19.7030  -17.3732 C   0  0  0  0  0  0  0  0  0  0  0  0
   19.5728  -19.7980  -16.3051 C   0  0  0  0  0  0  0  0  0  0  0  0
   18.3289  -20.3314  -16.9196 C   0  0  0  0  0  0  0  0  0  0  0  0
   18.2108  -21.5439  -17.2315 O   0  0  0  0  0  0  0  0  0  0  0  0
   22.3907  -20.0223  -15.6747 C   0  0  0  0  0  0  0  0  0  0  0  0
   23.0072  -21.1069  -15.8255 O   0  0  0  0  0  0  0  0  0  0  0  0
   17.2266  -19.5084  -17.1814 O   0  0  0  0  0  0  0  0  0  0  0  0
   22.1412  -19.6039  -14.3412 N   0  0  0  0  0  0  0  0  0  0  0  0
   22.7021  -20.3330  -13.1910 C   0  0  1  0  0  0  0  0  0  0  0  0
   23.5582  -19.4471  -12.3547 C   0  0  0  0  0  0  0  0  0  0  0  0
   24.0260  -20.1430  -11.1524 C   0  0  0  0  0  0  0  0  0  0  0  0
   23.2558  -20.1173  -10.0093 C   0  0  0  0  0  0  0  0  0  0  0  0
   23.7259  -20.7830   -8.8995 C   0  0  0  0  0  0  0  0  0  0  0  0
   24.9362  -21.4637   -8.9147 C   0  0  0  0  0  0  0  0  0  0  0  0
   25.7230  -21.4994  -10.0555 C   0  0  0  0  0  0  0  0  0  0  0  0
   25.2463  -20.8312  -11.1623 C   0  0  0  0  0  0  0  0  0  0  0  0
   21.6258  -21.0328  -12.4835 C   0  0  0  0  0  0  0  0  0  0  0  0
   21.8285  -22.3205  -11.9396 O   0  0  0  0  0  0  0  0  0  0  0  0
   20.4717  -20.5750  -12.3011 O   0  0  0  0  0  0  0  0  0  0  0  0
  2  1  1  0
  2  3  2  0
  4  2  1  0
  5  4  1  0
  6  5  1  0
  6  7  1  1
  8  9  2  0
  8  6  1  0
 10  8  1  0
 11 10  1  0
 11 12  1  6
 13 14  1  0
 13 12  1  0
 14 18  1  0
 15 14  2  0
 16 17  2  0
 16 11  1  0
 19 16  1  0
 20 21  1  1
 20 19  1  0
 22 21  1  0
 22 23  2  0
 24 23  1  0
 25 24  2  0
 26 27  2  0
 26 25  1  0
 27 22  1  0
 28 20  1  0
 29 28  1  0
 30 28  2  0
M  END
$$$$
