QEF.pdb
     RDKit          3D

 30 30  0  0  1  0  0  0  0  0999 V2000
   22.9502  -21.5262  -10.7145 N   0  0  0  0  0  0  0  0  0  0  0  0
   23.4277  -20.9650   -9.4933 C   0  0  0  0  0  0  0  0  0  0  0  0
   22.6490  -20.8903   -8.5313 O   0  0  0  0  0  0  0  0  0  0  0  0
   24.8284  -20.5064   -9.4589 C   0  0  0  0  0  0  0  0  0  0  0  0
   25.4980  -20.6062  -10.7990 C   0  0  0  0  0  0  0  0  0  0  0  0
   25.8356  -22.0076  -11.2258 C   0  0  2  0  0  0  0  0  0  0  0  0
   26.9153  -22.4391  -10.3338 N   0  0  0  0  0  0  0  0  0  0  0  0
   26.3317  -21.9591  -12.6334 C   0  0  0  0  0  0  0  0  0  0  0  0
   27.4695  -21.5254  -12.9297 O   0  0  0  0  0  0  0  0  0  0  0  0
   25.5374  -22.4049  -13.7276 N   0  0  0  0  0  0  0  0  0  0  0  0
   25.9583  -22.2296  -15.0815 C   0  0  1  0  0  0  0  0  0  0  0  0
   25.0840  -22.9773  -16.0539 C   0  0  0  0  0  0  0  0  0  0  0  0
   25.4478  -22.7414  -17.4844 C   0  0  0  0  0  0  0  0  0  0  0  0
   24.5265  -23.5419  -18.3328 C   0  0  0  0  0  0  0  0  0  0  0  0
   24.6147  -23.5447  -19.5873 O   0  0  0  0  0  0  0  0  0  0  0  0
   26.0648  -20.7815  -15.4545 C   0  0  0  0  0  0  0  0  0  0  0  0
   25.6806  -19.8892  -14.6574 O   0  0  0  0  0  0  0  0  0  0  0  0
   23.5142  -24.3329  -17.7757 O   0  0  0  0  0  0  0  0  0  0  0  0
   26.5930  -20.3485  -16.6992 N   0  0  0  0  0  0  0  0  0  0  0  0
   26.8014  -18.9195  -16.9884 C   0  0  1  0  0  0  0  0  0  0  0  0
   27.6648  -18.2797  -15.9578 C   0  0  0  0  0  0  0  0  0  0  0  0
   27.9129  -16.8701  -16.2747 C   0  0  0  0  0  0  0  0  0  0  0  0
   28.8909  -16.5412  -17.1889 C   0  0  0  0  0  0  0  0  0  0  0  0
   29.0955  -15.2074  -17.4629 C   0  0  0  0  0  0  0  0  0  0  0  0
   28.3484  -14.2124  -16.8462 C   0  0  0  0  0  0  0  0  0  0  0  0
   27.3613  -14.5258  -15.9247 C   0  0  0  0  0  0  0  0  0  0  0  0
   27.1621  -15.8624  -15.6553 C   0  0  0  0  0  0  0  0  0  0  0  0
   27.2420  -18.7609  -18.3774 C   0  0  0  0  0  0  0  0  0  0  0  0
   26.9297  -17.5956  -19.1122 O   0  0  0  0  0  0  0  0  0  0  0  0
   27.9097  -19.6079  -19.0189 O   0  0  0  0  0  0  0  0  0  0  0  0
  2  1  1  0
  2  3  2  0
  4  2  1  0
  5  4  1  0
  6  5  1  0
  6  7  1  1
  8  9  2  0
  8  6  1  0
 10  8  1  0
 11 10  1  0
 11 12  1  6
 13 14  1  0
 13 12  1  0
 14 18  1  0
 15 14  2  0
 16 17  2  0
 16 11  1  0
 19 16  1  0
 20 21  1  1
 20 19  1  0
 22 21  1  0
 22 23  2  0
 24 23  1  0
 25 24  2  0
 26 27  2  0
 26 25  1  0
 27 22  1  0
 28 20  1  0
 29 28  1  0
 30 28  2  0
M  END
$$$$
