QEF.pdb
     RDKit          3D

 30 30  0  0  1  0  0  0  0  0999 V2000
   29.6349  -15.7960  -17.7278 N   0  0  0  0  0  0  0  0  0  0  0  0
   30.1089  -16.9324  -18.4477 C   0  0  0  0  0  0  0  0  0  0  0  0
   31.0881  -16.7937  -19.1955 O   0  0  0  0  0  0  0  0  0  0  0  0
   29.3936  -18.2066  -18.2521 C   0  0  0  0  0  0  0  0  0  0  0  0
   28.2483  -18.0800  -17.2897 C   0  0  0  0  0  0  0  0  0  0  0  0
   27.4570  -19.3426  -17.0908 C   0  0  2  0  0  0  0  0  0  0  0  0
   27.0087  -19.7385  -18.4287 N   0  0  0  0  0  0  0  0  0  0  0  0
   26.2753  -19.0220  -16.2360 C   0  0  0  0  0  0  0  0  0  0  0  0
   26.3835  -18.7356  -15.0209 O   0  0  0  0  0  0  0  0  0  0  0  0
   24.9491  -19.0227  -16.7538 N   0  0  0  0  0  0  0  0  0  0  0  0
   23.8245  -18.6888  -15.9383 C   0  0  1  0  0  0  0  0  0  0  0  0
   22.7943  -17.8838  -16.6862 C   0  0  0  0  0  0  0  0  0  0  0  0
   21.5530  -17.6236  -15.8951 C   0  0  0  0  0  0  0  0  0  0  0  0
   20.6189  -16.8411  -16.7462 C   0  0  0  0  0  0  0  0  0  0  0  0
   19.6211  -17.3724  -17.2973 O   0  0  0  0  0  0  0  0  0  0  0  0
   23.2082  -19.9006  -15.3064 C   0  0  0  0  0  0  0  0  0  0  0  0
   22.8955  -20.8948  -16.0085 O   0  0  0  0  0  0  0  0  0  0  0  0
   20.8047  -15.4724  -16.9761 O   0  0  0  0  0  0  0  0  0  0  0  0
   22.9501  -19.9898  -13.9132 N   0  0  0  0  0  0  0  0  0  0  0  0
   22.3492  -21.1967  -13.3203 C   0  0  1  0  0  0  0  0  0  0  0  0
   23.3896  -22.0870  -12.7354 C   0  0  0  0  0  0  0  0  0  0  0  0
   24.2074  -21.3716  -11.7514 C   0  0  0  0  0  0  0  0  0  0  0  0
   23.6556  -21.0157  -10.5392 C   0  0  0  0  0  0  0  0  0  0  0  0
   24.4535  -20.3460   -9.6389 C   0  0  0  0  0  0  0  0  0  0  0  0
   25.7749  -20.0312   -9.9276 C   0  0  0  0  0  0  0  0  0  0  0  0
   26.3453  -20.3816  -11.1416 C   0  0  0  0  0  0  0  0  0  0  0  0
   25.5410  -21.0516  -12.0376 C   0  0  0  0  0  0  0  0  0  0  0  0
   21.2612  -20.8086  -12.4179 C   0  0  0  0  0  0  0  0  0  0  0  0
   20.3512  -21.7671  -11.9195 O   0  0  0  0  0  0  0  0  0  0  0  0
   21.0434  -19.6388  -12.0191 O   0  0  0  0  0  0  0  0  0  0  0  0
  2  1  1  0
  2  3  2  0
  4  2  1  0
  5  4  1  0
  6  5  1  0
  6  7  1  6
  8  9  2  0
  8  6  1  0
 10  8  1  0
 11 10  1  0
 11 12  1  6
 13 14  1  0
 13 12  1  0
 14 18  1  0
 15 14  2  0
 16 17  2  0
 16 11  1  0
 19 16  1  0
 20 21  1  1
 20 19  1  0
 22 21  1  0
 22 23  2  0
 24 23  1  0
 25 24  2  0
 26 27  2  0
 26 25  1  0
 27 22  1  0
 28 20  1  0
 29 28  1  0
 30 28  2  0
M  END
$$$$
