QEF.pdb
     RDKit          3D

 30 30  0  0  1  0  0  0  0  0999 V2000
   17.0565  -14.9164  -14.7599 N   0  0  0  0  0  0  0  0  0  0  0  0
   17.7710  -15.9139  -15.4870 C   0  0  0  0  0  0  0  0  0  0  0  0
   17.6139  -17.1028  -15.1721 O   0  0  0  0  0  0  0  0  0  0  0  0
   18.6574  -15.4580  -16.5731 C   0  0  0  0  0  0  0  0  0  0  0  0
   18.5791  -13.9749  -16.7934 C   0  0  0  0  0  0  0  0  0  0  0  0
   17.4461  -13.5336  -17.6774 C   0  0  2  0  0  0  0  0  0  0  0  0
   17.8242  -13.9441  -19.0325 N   0  0  0  0  0  0  0  0  0  0  0  0
   17.3535  -12.0449  -17.6076 C   0  0  0  0  0  0  0  0  0  0  0  0
   18.2012  -11.2935  -18.1435 O   0  0  0  0  0  0  0  0  0  0  0  0
   16.2911  -11.3877  -16.9247 N   0  0  0  0  0  0  0  0  0  0  0  0
   16.2039   -9.9629  -16.8662 C   0  0  1  0  0  0  0  0  0  0  0  0
   14.8052   -9.4869  -16.5728 C   0  0  0  0  0  0  0  0  0  0  0  0
   13.7835  -10.0181  -17.5259 C   0  0  0  0  0  0  0  0  0  0  0  0
   12.5426  -10.3048  -16.7596 C   0  0  0  0  0  0  0  0  0  0  0  0
   11.5109   -9.5957  -16.8792 O   0  0  0  0  0  0  0  0  0  0  0  0
   17.1874   -9.3782  -15.8976 C   0  0  0  0  0  0  0  0  0  0  0  0
   17.4493   -9.9710  -14.8209 O   0  0  0  0  0  0  0  0  0  0  0  0
   12.4619  -11.3800  -15.8661 O   0  0  0  0  0  0  0  0  0  0  0  0
   17.8613   -8.1518  -16.1373 N   0  0  0  0  0  0  0  0  0  0  0  0
   18.8023   -7.5888  -15.1541 C   0  0  1  0  0  0  0  0  0  0  0  0
   20.2115   -7.7250  -15.6152 C   0  0  0  0  0  0  0  0  0  0  0  0
   21.1376   -7.0614  -14.6927 C   0  0  0  0  0  0  0  0  0  0  0  0
   21.6395   -7.7591  -13.6149 C   0  0  0  0  0  0  0  0  0  0  0  0
   22.5077   -7.1044  -12.7703 C   0  0  0  0  0  0  0  0  0  0  0  0
   22.8763   -5.7826  -12.9835 C   0  0  0  0  0  0  0  0  0  0  0  0
   22.3810   -5.0666  -14.0623 C   0  0  0  0  0  0  0  0  0  0  0  0
   21.5128   -5.7281  -14.9033 C   0  0  0  0  0  0  0  0  0  0  0  0
   18.3780   -6.2334  -14.7915 C   0  0  0  0  0  0  0  0  0  0  0  0
   18.5399   -5.7471  -13.4752 O   0  0  0  0  0  0  0  0  0  0  0  0
   17.8532   -5.4112  -15.5810 O   0  0  0  0  0  0  0  0  0  0  0  0
  2  1  1  0
  2  3  2  0
  4  2  1  0
  5  4  1  0
  6  5  1  0
  6  7  1  6
  8  9  2  0
  8  6  1  0
 10  8  1  0
 11 10  1  0
 11 12  1  1
 13 14  1  0
 13 12  1  0
 14 18  1  0
 15 14  2  0
 16 17  2  0
 16 11  1  0
 19 16  1  0
 20 21  1  6
 20 19  1  0
 22 21  1  0
 22 23  2  0
 24 23  1  0
 25 24  2  0
 26 27  2  0
 26 25  1  0
 27 22  1  0
 28 20  1  0
 29 28  1  0
 30 28  2  0
M  END
$$$$
