LGA.pdb
     RDKit          3D

 18 17  0  0  1  0  0  0  0  0999 V2000
    6.1954  -11.7842   26.5688 C   0  0  0  0  0  0  0  0  0  0  0  0
    7.1280  -12.9235   26.2417 C   0  0  1  0  0  0  0  0  0  0  0  0
    8.1269  -13.0212   27.3792 C   0  0  0  0  0  0  0  0  0  0  0  0
    6.4364  -14.2385   26.1246 C   0  0  0  0  0  0  0  0  0  0  0  0
    7.3359  -15.3347   25.5989 C   0  0  2  0  0  0  0  0  0  0  0  0
    8.6557  -14.8263   25.3460 N   0  0  0  0  0  0  0  0  0  0  0  0
    6.7742  -15.9697   24.3815 C   0  0  0  0  0  0  0  0  0  0  0  0
    5.5304  -16.1099   24.2736 O   0  0  0  0  0  0  0  0  0  0  0  0
    7.5901  -16.4358   23.3112 N   0  0  0  0  0  0  0  0  0  0  0  0
    7.0431  -17.0485   22.1188 C   0  0  0  0  0  0  0  0  0  0  0  0
    7.3795  -16.1510   20.9661 C   0  0  0  0  0  0  0  0  0  0  0  0
    7.3253  -16.5776   19.7818 O   0  0  0  0  0  0  0  0  0  0  0  0
    7.5508  -12.5320   20.2676 C   0  0  0  0  0  0  0  0  0  0  0  0
    7.9833  -13.9624   20.0010 C   0  0  2  0  0  0  0  0  0  0  0  0
    7.7672  -14.8033   21.1581 N   0  0  0  0  0  0  0  0  0  0  0  0
    9.4219  -14.0342   19.6505 C   0  0  0  0  0  0  0  0  0  0  0  0
    9.8489  -13.4486   18.6281 O   0  0  0  0  0  0  0  0  0  0  0  0
   10.3186  -14.7395   20.4321 O   0  0  0  0  0  0  0  0  0  0  0  0
  2  1  1  1
  3  2  1  0
  4  5  1  0
  4  2  1  0
  5  6  1  6
  7  5  1  0
  7  8  2  0
  9 10  1  0
  9  7  1  0
 10 11  1  0
 11 12  2  0
 11 15  1  0
 14 13  1  1
 15 14  1  0
 16 18  1  0
 16 14  1  0
 17 16  2  0
M  END
$$$$
