LGA.pdb
     RDKit          3D

 18 17  0  0  1  0  0  0  0  0999 V2000
    7.4177  -12.0684   20.5310 C   0  0  0  0  0  0  0  0  0  0  0  0
    7.5136  -13.5014   20.0702 C   0  0  1  0  0  0  0  0  0  0  0  0
    7.2211  -13.5103   18.5818 C   0  0  0  0  0  0  0  0  0  0  0  0
    8.8632  -14.0994   20.2758 C   0  0  0  0  0  0  0  0  0  0  0  0
    8.9216  -15.5660   19.9115 C   0  0  2  0  0  0  0  0  0  0  0  0
    7.8865  -16.2958   20.5898 N   0  0  0  0  0  0  0  0  0  0  0  0
   10.2539  -16.1511   20.2001 C   0  0  0  0  0  0  0  0  0  0  0  0
   11.0481  -16.3801   19.2540 O   0  0  0  0  0  0  0  0  0  0  0  0
   10.6835  -16.4712   21.5197 N   0  0  0  0  0  0  0  0  0  0  0  0
   12.0622  -16.7732   21.8429 C   0  0  0  0  0  0  0  0  0  0  0  0
   12.1406  -16.9452   23.3300 C   0  0  0  0  0  0  0  0  0  0  0  0
   13.2348  -17.2260   23.8882 O   0  0  0  0  0  0  0  0  0  0  0  0
   10.3544  -15.8632   26.3266 C   0  0  0  0  0  0  0  0  0  0  0  0
   11.1567  -16.9220   25.5922 C   0  0  2  0  0  0  0  0  0  0  0  0
   11.0023  -16.8012   24.1589 N   0  0  0  0  0  0  0  0  0  0  0  0
   10.7301  -18.2875   25.9807 C   0  0  0  0  0  0  0  0  0  0  0  0
   10.1532  -19.0257   25.1481 O   0  0  0  0  0  0  0  0  0  0  0  0
   10.9543  -18.7763   27.2547 O   0  0  0  0  0  0  0  0  0  0  0  0
  2  1  1  6
  3  2  1  0
  4  5  1  0
  4  2  1  0
  5  6  1  1
  7  5  1  0
  7  8  2  0
  9 10  1  0
  9  7  1  0
 10 11  1  0
 11 12  2  0
 11 15  1  0
 14 13  1  1
 15 14  1  0
 16 18  1  0
 16 14  1  0
 17 16  2  0
M  END
$$$$
