LGA.pdb
     RDKit          3D

 18 17  0  0  1  0  0  0  0  0999 V2000
    5.7102  -11.7869   26.6470 C   0  0  0  0  0  0  0  0  0  0  0  0
    5.9105  -12.7723   25.5228 C   0  0  1  0  0  0  0  0  0  0  0  0
    6.1736  -11.9652   24.2657 C   0  0  0  0  0  0  0  0  0  0  0  0
    7.0714  -13.6827   25.7346 C   0  0  0  0  0  0  0  0  0  0  0  0
    7.0050  -14.9325   24.8855 C   0  0  2  0  0  0  0  0  0  0  0  0
    5.7712  -15.6323   25.1138 N   0  0  0  0  0  0  0  0  0  0  0  0
    8.1673  -15.8224   25.1261 C   0  0  0  0  0  0  0  0  0  0  0  0
    8.1405  -16.6300   26.0880 O   0  0  0  0  0  0  0  0  0  0  0  0
    9.3315  -15.8052   24.3059 N   0  0  0  0  0  0  0  0  0  0  0  0
   10.4553  -16.6920   24.5225 C   0  0  0  0  0  0  0  0  0  0  0  0
   11.1337  -16.2469   25.7831 C   0  0  0  0  0  0  0  0  0  0  0  0
   12.3141  -15.8069   25.7573 O   0  0  0  0  0  0  0  0  0  0  0  0
   10.6198  -14.6389   28.8325 C   0  0  0  0  0  0  0  0  0  0  0  0
   11.2096  -15.8983   28.2241 C   0  0  2  0  0  0  0  0  0  0  0  0
   10.4840  -16.3017   27.0394 N   0  0  0  0  0  0  0  0  0  0  0  0
   11.1749  -17.0277   29.1836 C   0  0  0  0  0  0  0  0  0  0  0  0
   10.4257  -18.0095   28.9707 O   0  0  0  0  0  0  0  0  0  0  0  0
   11.9579  -17.0277   30.3236 O   0  0  0  0  0  0  0  0  0  0  0  0
  2  1  1  1
  3  2  1  0
  4  5  1  0
  4  2  1  0
  5  6  1  1
  7  5  1  0
  7  8  2  0
  9 10  1  0
  9  7  1  0
 10 11  1  0
 11 12  2  0
 11 15  1  0
 14 13  1  1
 15 14  1  0
 16 18  1  0
 16 14  1  0
 17 16  2  0
M  END
$$$$
