LGA.pdb
     RDKit          3D

 18 17  0  0  1  0  0  0  0  0999 V2000
    7.8215  -12.2005   19.6924 C   0  0  0  0  0  0  0  0  0  0  0  0
    8.0553  -13.6563   20.0104 C   0  0  1  0  0  0  0  0  0  0  0  0
    6.8361  -14.1474   20.7676 C   0  0  0  0  0  0  0  0  0  0  0  0
    8.2156  -14.5078   18.7978 C   0  0  0  0  0  0  0  0  0  0  0  0
    8.5576  -15.9442   19.1252 C   0  0  2  0  0  0  0  0  0  0  0  0
    7.5328  -16.5331   19.9421 N   0  0  0  0  0  0  0  0  0  0  0  0
    9.8835  -16.0573   19.7811 C   0  0  0  0  0  0  0  0  0  0  0  0
   10.8943  -15.5608   19.2246 O   0  0  0  0  0  0  0  0  0  0  0  0
   10.0689  -16.7125   21.0321 N   0  0  0  0  0  0  0  0  0  0  0  0
   11.3467  -16.7556   21.7116 C   0  0  0  0  0  0  0  0  0  0  0  0
   11.0992  -16.3853   23.1431 C   0  0  0  0  0  0  0  0  0  0  0  0
   12.0271  -16.4480   23.9932 O   0  0  0  0  0  0  0  0  0  0  0  0
    8.4989  -14.6814   25.2089 C   0  0  0  0  0  0  0  0  0  0  0  0
    9.6445  -15.6543   24.9966 C   0  0  2  0  0  0  0  0  0  0  0  0
    9.8283  -15.9549   23.5935 N   0  0  0  0  0  0  0  0  0  0  0  0
    9.4042  -16.9332   25.7066 C   0  0  0  0  0  0  0  0  0  0  0  0
    8.9154  -17.9101   25.0922 O   0  0  0  0  0  0  0  0  0  0  0  0
    9.7088  -17.0801   27.0475 O   0  0  0  0  0  0  0  0  0  0  0  0
  2  1  1  6
  3  2  1  0
  4  5  1  0
  4  2  1  0
  5  6  1  1
  7  5  1  0
  7  8  2  0
  9 10  1  0
  9  7  1  0
 10 11  1  0
 11 12  2  0
 11 15  1  0
 14 13  1  6
 15 14  1  0
 16 18  1  0
 16 14  1  0
 17 16  2  0
M  END
$$$$
