LGA.pdb
     RDKit          3D

 18 17  0  0  1  0  0  0  0  0999 V2000
    5.6235  -11.4560   26.9451 C   0  0  0  0  0  0  0  0  0  0  0  0
    6.1858  -12.3416   25.8615 C   0  0  1  0  0  0  0  0  0  0  0  0
    7.1799  -11.5070   25.0764 C   0  0  0  0  0  0  0  0  0  0  0  0
    6.9049  -13.5361   26.3881 C   0  0  0  0  0  0  0  0  0  0  0  0
    7.7016  -14.2618   25.3270 C   0  0  2  0  0  0  0  0  0  0  0  0
    6.8548  -14.6359   24.2282 N   0  0  0  0  0  0  0  0  0  0  0  0
    8.4010  -15.4474   25.8801 C   0  0  0  0  0  0  0  0  0  0  0  0
    9.1075  -15.3246   26.9116 O   0  0  0  0  0  0  0  0  0  0  0  0
    8.3089  -16.7397   25.2885 N   0  0  0  0  0  0  0  0  0  0  0  0
    9.0536  -17.8804   25.7789 C   0  0  0  0  0  0  0  0  0  0  0  0
   10.2884  -17.9979   24.9370 C   0  0  0  0  0  0  0  0  0  0  0  0
   11.0932  -18.9526   25.1054 O   0  0  0  0  0  0  0  0  0  0  0  0
   11.5245  -16.6879   21.6925 C   0  0  0  0  0  0  0  0  0  0  0  0
   11.7369  -17.2885   23.0703 C   0  0  2  0  0  0  0  0  0  0  0  0
   10.5977  -17.0524   23.9301 N   0  0  0  0  0  0  0  0  0  0  0  0
   12.9315  -16.7114   23.7317 C   0  0  0  0  0  0  0  0  0  0  0  0
   14.0654  -16.8580   23.2184 O   0  0  0  0  0  0  0  0  0  0  0  0
   12.8275  -16.0056   24.9163 O   0  0  0  0  0  0  0  0  0  0  0  0
  2  1  1  1
  3  2  1  0
  4  5  1  0
  4  2  1  0
  5  6  1  6
  7  5  1  0
  7  8  2  0
  9 10  1  0
  9  7  1  0
 10 11  1  0
 11 12  2  0
 11 15  1  0
 14 13  1  6
 15 14  1  0
 16 18  1  0
 16 14  1  0
 17 16  2  0
M  END
$$$$
