LGA.pdb
     RDKit          3D

 18 17  0  0  1  0  0  0  0  0999 V2000
    7.8538  -12.3608   19.9136 C   0  0  0  0  0  0  0  0  0  0  0  0
    7.6143  -13.4866   20.8883 C   0  0  1  0  0  0  0  0  0  0  0  0
    6.4615  -14.3086   20.3438 C   0  0  0  0  0  0  0  0  0  0  0  0
    8.7881  -14.3914   21.0463 C   0  0  0  0  0  0  0  0  0  0  0  0
    8.5828  -15.4454   22.1112 C   0  0  2  0  0  0  0  0  0  0  0  0
    7.7514  -14.9395   23.1681 N   0  0  0  0  0  0  0  0  0  0  0  0
    9.8733  -15.9421   22.6485 C   0  0  0  0  0  0  0  0  0  0  0  0
   10.6280  -16.6266   21.9137 O   0  0  0  0  0  0  0  0  0  0  0  0
   10.3053  -15.6761   23.9794 N   0  0  0  0  0  0  0  0  0  0  0  0
   11.6368  -15.9965   24.4493 C   0  0  0  0  0  0  0  0  0  0  0  0
   11.6151  -15.8927   25.9447 C   0  0  0  0  0  0  0  0  0  0  0  0
   12.5964  -16.2851   26.6309 O   0  0  0  0  0  0  0  0  0  0  0  0
    9.8511  -13.8051   28.4186 C   0  0  0  0  0  0  0  0  0  0  0  0
   10.6378  -15.0488   28.0468 C   0  0  2  0  0  0  0  0  0  0  0  0
   10.5048  -15.3562   26.6394 N   0  0  0  0  0  0  0  0  0  0  0  0
   10.1746  -16.2293   28.8145 C   0  0  0  0  0  0  0  0  0  0  0  0
    9.5572  -17.1527   28.2341 O   0  0  0  0  0  0  0  0  0  0  0  0
   10.4082  -16.3412   30.1729 O   0  0  0  0  0  0  0  0  0  0  0  0
  2  1  1  6
  3  2  1  0
  4  5  1  0
  4  2  1  0
  5  6  1  1
  7  5  1  0
  7  8  2  0
  9 10  1  0
  9  7  1  0
 10 11  1  0
 11 12  2  0
 11 15  1  0
 14 13  1  1
 15 14  1  0
 16 18  1  0
 16 14  1  0
 17 16  2  0
M  END
$$$$
