LGA.pdb
     RDKit          3D

 18 17  0  0  1  0  0  0  0  0999 V2000
    7.0633  -12.6275   18.7797 C   0  0  0  0  0  0  0  0  0  0  0  0
    7.9853  -13.5788   19.5008 C   0  0  1  0  0  0  0  0  0  0  0  0
    9.3400  -12.9024   19.5909 C   0  0  0  0  0  0  0  0  0  0  0  0
    7.5390  -13.8980   20.8865 C   0  0  0  0  0  0  0  0  0  0  0  0
    8.5299  -14.7533   21.6442 C   0  0  2  0  0  0  0  0  0  0  0  0
    8.6702  -16.0383   21.0171 N   0  0  0  0  0  0  0  0  0  0  0  0
    8.1492  -14.9022   23.0703 C   0  0  0  0  0  0  0  0  0  0  0  0
    8.0094  -13.8781   23.7844 O   0  0  0  0  0  0  0  0  0  0  0  0
    7.9310  -16.1710   23.6793 N   0  0  0  0  0  0  0  0  0  0  0  0
    7.5961  -16.3202   25.0800 C   0  0  0  0  0  0  0  0  0  0  0  0
    8.7858  -15.8646   25.8703 C   0  0  0  0  0  0  0  0  0  0  0  0
    9.9547  -16.1411   25.4900 O   0  0  0  0  0  0  0  0  0  0  0  0
    9.5511  -13.4206   28.5832 C   0  0  0  0  0  0  0  0  0  0  0  0
    9.8358  -14.6544   27.7461 C   0  0  2  0  0  0  0  0  0  0  0  0
    8.6468  -15.1140   27.0622 N   0  0  0  0  0  0  0  0  0  0  0  0
   10.3370  -15.7701   28.5837 C   0  0  0  0  0  0  0  0  0  0  0  0
   11.3776  -15.6240   29.2668 O   0  0  0  0  0  0  0  0  0  0  0  0
    9.6784  -16.9851   28.6329 O   0  0  0  0  0  0  0  0  0  0  0  0
  2  1  1  1
  3  2  1  0
  4  5  1  0
  4  2  1  0
  5  6  1  6
  7  5  1  0
  7  8  2  0
  9 10  1  0
  9  7  1  0
 10 11  1  0
 11 12  2  0
 11 15  1  0
 14 13  1  1
 15 14  1  0
 16 18  1  0
 16 14  1  0
 17 16  2  0
M  END
$$$$
