LGA.pdb
     RDKit          3D

 18 17  0  0  1  0  0  0  0  0999 V2000
    7.2609  -11.5847   26.8906 C   0  0  0  0  0  0  0  0  0  0  0  0
    6.7118  -12.8074   26.1989 C   0  0  1  0  0  0  0  0  0  0  0  0
    5.1992  -12.7040   26.2472 C   0  0  0  0  0  0  0  0  0  0  0  0
    7.1189  -12.9103   24.7689 C   0  0  0  0  0  0  0  0  0  0  0  0
    7.1146  -14.3323   24.2540 C   0  0  2  0  0  0  0  0  0  0  0  0
    6.4676  -15.2067   25.1928 N   0  0  0  0  0  0  0  0  0  0  0  0
    8.4854  -14.8100   23.9482 C   0  0  0  0  0  0  0  0  0  0  0  0
    9.2442  -14.1028   23.2395 O   0  0  0  0  0  0  0  0  0  0  0  0
    8.9914  -16.0522   24.4271 N   0  0  0  0  0  0  0  0  0  0  0  0
   10.3449  -16.4977   24.1706 C   0  0  0  0  0  0  0  0  0  0  0  0
   11.0832  -16.4434   25.4742 C   0  0  0  0  0  0  0  0  0  0  0  0
   12.2841  -16.8172   25.5492 O   0  0  0  0  0  0  0  0  0  0  0  0
   10.9320  -14.7046   28.7023 C   0  0  0  0  0  0  0  0  0  0  0  0
   11.2378  -15.9471   27.8858 C   0  0  2  0  0  0  0  0  0  0  0  0
   10.4691  -15.9757   26.6606 N   0  0  0  0  0  0  0  0  0  0  0  0
   10.9263  -17.1814   28.6454 C   0  0  0  0  0  0  0  0  0  0  0  0
   10.0320  -17.9597   28.2390 O   0  0  0  0  0  0  0  0  0  0  0  0
   11.6052  -17.5022   29.8067 O   0  0  0  0  0  0  0  0  0  0  0  0
  2  1  1  6
  3  2  1  0
  4  5  1  0
  4  2  1  0
  5  6  1  1
  7  5  1  0
  7  8  2  0
  9 10  1  0
  9  7  1  0
 10 11  1  0
 11 12  2  0
 11 15  1  0
 14 13  1  1
 15 14  1  0
 16 18  1  0
 16 14  1  0
 17 16  2  0
M  END
$$$$
