LGA.pdb
     RDKit          3D

 18 17  0  0  1  0  0  0  0  0999 V2000
    9.1209  -12.7977   20.5882 C   0  0  0  0  0  0  0  0  0  0  0  0
    7.7996  -13.5127   20.7222 C   0  0  1  0  0  0  0  0  0  0  0  0
    6.9730  -13.1519   19.5025 C   0  0  0  0  0  0  0  0  0  0  0  0
    7.9320  -14.9966   20.7638 C   0  0  0  0  0  0  0  0  0  0  0  0
    6.6604  -15.6916   21.1963 C   0  0  2  0  0  0  0  0  0  0  0  0
    5.9220  -14.8678   22.1131 N   0  0  0  0  0  0  0  0  0  0  0  0
    6.9365  -17.0228   21.7899 C   0  0  0  0  0  0  0  0  0  0  0  0
    7.5967  -17.8680   21.1358 O   0  0  0  0  0  0  0  0  0  0  0  0
    6.4819  -17.3953   23.0873 N   0  0  0  0  0  0  0  0  0  0  0  0
    6.7407  -18.6981   23.6636 C   0  0  0  0  0  0  0  0  0  0  0  0
    7.9330  -18.5558   24.5612 C   0  0  0  0  0  0  0  0  0  0  0  0
    8.4435  -19.5648   25.1171 O   0  0  0  0  0  0  0  0  0  0  0  0
   10.3363  -15.8384   25.5920 C   0  0  0  0  0  0  0  0  0  0  0  0
    9.7634  -17.2439   25.5684 C   0  0  2  0  0  0  0  0  0  0  0  0
    8.5276  -17.2973   24.8182 N   0  0  0  0  0  0  0  0  0  0  0  0
    9.4836  -17.7351   26.9387 C   0  0  0  0  0  0  0  0  0  0  0  0
    8.3032  -17.7945   27.3555 O   0  0  0  0  0  0  0  0  0  0  0  0
   10.5040  -18.1353   27.7820 O   0  0  0  0  0  0  0  0  0  0  0  0
  2  1  1  6
  3  2  1  0
  4  5  1  0
  4  2  1  0
  5  6  1  1
  7  5  1  0
  7  8  2  0
  9 10  1  0
  9  7  1  0
 10 11  1  0
 11 12  2  0
 11 15  1  0
 14 13  1  1
 15 14  1  0
 16 18  1  0
 16 14  1  0
 17 16  2  0
M  END
$$$$
