LGA.pdb
     RDKit          3D

 18 17  0  0  1  0  0  0  0  0999 V2000
    8.1572  -12.4213   20.2616 C   0  0  0  0  0  0  0  0  0  0  0  0
    8.0112  -13.8967   20.5386 C   0  0  1  0  0  0  0  0  0  0  0  0
    6.9883  -14.0415   21.6494 C   0  0  0  0  0  0  0  0  0  0  0  0
    7.5247  -14.6735   19.3633 C   0  0  0  0  0  0  0  0  0  0  0  0
    7.5139  -16.1664   19.6050 C   0  0  2  0  0  0  0  0  0  0  0  0
    7.0191  -16.4607   20.9214 N   0  0  0  0  0  0  0  0  0  0  0  0
    8.8555  -16.7656   19.4008 C   0  0  0  0  0  0  0  0  0  0  0  0
    9.5289  -16.4469   18.3893 O   0  0  0  0  0  0  0  0  0  0  0  0
    9.4266  -17.7004   20.3110 N   0  0  0  0  0  0  0  0  0  0  0  0
   10.7883  -18.1778   20.1917 C   0  0  0  0  0  0  0  0  0  0  0  0
   11.5173  -17.7497   21.4297 C   0  0  0  0  0  0  0  0  0  0  0  0
   12.7753  -17.7958   21.4837 O   0  0  0  0  0  0  0  0  0  0  0  0
   10.8713  -15.5965   24.3526 C   0  0  0  0  0  0  0  0  0  0  0  0
   11.5940  -16.7524   23.6848 C   0  0  2  0  0  0  0  0  0  0  0  0
   10.8308  -17.2816   22.5756 N   0  0  0  0  0  0  0  0  0  0  0  0
   11.8351  -17.8608   24.6391 C   0  0  0  0  0  0  0  0  0  0  0  0
   11.2579  -18.9620   24.4811 O   0  0  0  0  0  0  0  0  0  0  0  0
   12.6918  -17.7110   25.7143 O   0  0  0  0  0  0  0  0  0  0  0  0
  2  1  1  6
  3  2  1  0
  4  5  1  0
  4  2  1  0
  5  6  1  1
  7  5  1  0
  7  8  2  0
  9 10  1  0
  9  7  1  0
 10 11  1  0
 11 12  2  0
 11 15  1  0
 14 13  1  1
 15 14  1  0
 16 18  1  0
 16 14  1  0
 17 16  2  0
M  END
$$$$
