LGA.pdb
     RDKit          3D

 18 17  0  0  1  0  0  0  0  0999 V2000
    7.6572  -12.2243   19.8173 C   0  0  0  0  0  0  0  0  0  0  0  0
    7.4735  -13.4542   20.6709 C   0  0  1  0  0  0  0  0  0  0  0  0
    6.7529  -14.4825   19.8198 C   0  0  0  0  0  0  0  0  0  0  0  0
    8.7592  -14.0553   21.1258 C   0  0  0  0  0  0  0  0  0  0  0  0
    8.5650  -15.2341   22.0533 C   0  0  2  0  0  0  0  0  0  0  0  0
    7.6887  -14.8843   23.1368 N   0  0  0  0  0  0  0  0  0  0  0  0
    9.8585  -15.7476   22.5671 C   0  0  0  0  0  0  0  0  0  0  0  0
   10.6957  -16.2311   21.7650 O   0  0  0  0  0  0  0  0  0  0  0  0
   10.2029  -15.7185   23.9488 N   0  0  0  0  0  0  0  0  0  0  0  0
   11.5124  -16.0961   24.4376 C   0  0  0  0  0  0  0  0  0  0  0  0
   11.5004  -15.9087   25.9250 C   0  0  0  0  0  0  0  0  0  0  0  0
   12.4591  -16.3183   26.6325 O   0  0  0  0  0  0  0  0  0  0  0  0
    9.6583  -13.7880   28.3800 C   0  0  0  0  0  0  0  0  0  0  0  0
   10.5563  -14.9487   27.9921 C   0  0  2  0  0  0  0  0  0  0  0  0
   10.4244  -15.2716   26.5881 N   0  0  0  0  0  0  0  0  0  0  0  0
   10.2288  -16.1671   28.7703 C   0  0  0  0  0  0  0  0  0  0  0  0
   10.4362  -16.1974   30.0060 O   0  0  0  0  0  0  0  0  0  0  0  0
    9.6930  -17.2873   28.1617 O   0  0  0  0  0  0  0  0  0  0  0  0
  2  1  1  6
  3  2  1  0
  4  5  1  0
  4  2  1  0
  5  6  1  1
  7  5  1  0
  7  8  2  0
  9 10  1  0
  9  7  1  0
 10 11  1  0
 11 12  2  0
 11 15  1  0
 14 13  1  1
 15 14  1  0
 16 18  1  0
 16 14  1  0
 17 16  2  0
M  END
$$$$
