LGA.pdb
     RDKit          3D

 18 17  0  0  1  0  0  0  0  0999 V2000
    8.1707  -12.1197   26.8726 C   0  0  0  0  0  0  0  0  0  0  0  0
    7.1828  -13.1963   26.4981 C   0  0  1  0  0  0  0  0  0  0  0  0
    5.9634  -12.5006   25.9236 C   0  0  0  0  0  0  0  0  0  0  0  0
    7.7001  -14.1405   25.4675 C   0  0  0  0  0  0  0  0  0  0  0  0
    6.7193  -15.2408   25.1287 C   0  0  2  0  0  0  0  0  0  0  0  0
    6.2940  -15.9220   26.3200 N   0  0  0  0  0  0  0  0  0  0  0  0
    7.2860  -16.1990   24.1482 C   0  0  0  0  0  0  0  0  0  0  0  0
    7.6210  -17.3487   24.5280 O   0  0  0  0  0  0  0  0  0  0  0  0
    7.4718  -15.8734   22.7742 N   0  0  0  0  0  0  0  0  0  0  0  0
    7.9458  -16.8331   21.7991 C   0  0  0  0  0  0  0  0  0  0  0  0
    9.4173  -17.0060   22.0276 C   0  0  0  0  0  0  0  0  0  0  0  0
   10.1017  -17.7508   21.2762 O   0  0  0  0  0  0  0  0  0  0  0  0
   12.2836  -15.3137   23.4328 C   0  0  0  0  0  0  0  0  0  0  0  0
   11.4995  -16.6055   23.2885 C   0  0  2  0  0  0  0  0  0  0  0  0
   10.0908  -16.3476   23.0842 N   0  0  0  0  0  0  0  0  0  0  0  0
   11.6345  -17.4556   24.4954 C   0  0  0  0  0  0  0  0  0  0  0  0
   10.6336  -17.6925   25.2115 O   0  0  0  0  0  0  0  0  0  0  0  0
   12.8519  -18.0023   24.8580 O   0  0  0  0  0  0  0  0  0  0  0  0
  2  1  1  6
  3  2  1  0
  4  5  1  0
  4  2  1  0
  5  6  1  1
  7  5  1  0
  7  8  2  0
  9 10  1  0
  9  7  1  0
 10 11  1  0
 11 12  2  0
 11 15  1  0
 14 13  1  1
 15 14  1  0
 16 18  1  0
 16 14  1  0
 17 16  2  0
M  END
$$$$
