LGA.pdb
     RDKit          3D

 18 17  0  0  1  0  0  0  0  0999 V2000
    7.0242  -12.0458   25.5984 C   0  0  0  0  0  0  0  0  0  0  0  0
    7.3606  -13.4758   25.9406 C   0  0  1  0  0  0  0  0  0  0  0  0
    8.2103  -13.4443   27.1969 C   0  0  0  0  0  0  0  0  0  0  0  0
    6.1608  -14.3148   26.2195 C   0  0  0  0  0  0  0  0  0  0  0  0
    6.4456  -15.7980   26.1407 C   0  0  2  0  0  0  0  0  0  0  0  0
    7.6212  -16.1269   26.8982 N   0  0  0  0  0  0  0  0  0  0  0  0
    6.5783  -16.2580   24.7365 C   0  0  0  0  0  0  0  0  0  0  0  0
    5.6760  -15.9834   23.9067 O   0  0  0  0  0  0  0  0  0  0  0  0
    7.6978  -17.0084   24.2759 N   0  0  0  0  0  0  0  0  0  0  0  0
    7.8271  -17.4616   22.9069 C   0  0  0  0  0  0  0  0  0  0  0  0
    9.2540  -17.2441   22.5018 C   0  0  0  0  0  0  0  0  0  0  0  0
    9.6514  -17.5646   21.3498 O   0  0  0  0  0  0  0  0  0  0  0  0
   12.0352  -15.2007   22.7064 C   0  0  0  0  0  0  0  0  0  0  0  0
   11.5922  -16.6251   22.9872 C   0  0  2  0  0  0  0  0  0  0  0  0
   10.2025  -16.6766   23.3859 N   0  0  0  0  0  0  0  0  0  0  0  0
   12.3978  -17.2364   24.0711 C   0  0  0  0  0  0  0  0  0  0  0  0
   11.8454  -17.5976   25.1365 O   0  0  0  0  0  0  0  0  0  0  0  0
   13.7616  -17.4216   23.9371 O   0  0  0  0  0  0  0  0  0  0  0  0
  2  1  1  1
  3  2  1  0
  4  5  1  0
  4  2  1  0
  5  6  1  1
  7  5  1  0
  7  8  2  0
  9 10  1  0
  9  7  1  0
 10 11  1  0
 11 12  2  0
 11 15  1  0
 14 13  1  1
 15 14  1  0
 16 18  1  0
 16 14  1  0
 17 16  2  0
M  END
$$$$
