LGA.pdb
     RDKit          3D

 18 17  0  0  1  0  0  0  0  0999 V2000
    6.8246  -11.4200   26.7676 C   0  0  0  0  0  0  0  0  0  0  0  0
    6.4450  -12.6934   26.0539 C   0  0  1  0  0  0  0  0  0  0  0  0
    4.9652  -12.5993   25.7335 C   0  0  0  0  0  0  0  0  0  0  0  0
    7.1796  -12.8945   24.7729 C   0  0  0  0  0  0  0  0  0  0  0  0
    7.1058  -14.3176   24.2663 C   0  0  2  0  0  0  0  0  0  0  0  0
    6.4299  -15.1568   25.2167 N   0  0  0  0  0  0  0  0  0  0  0  0
    8.4503  -14.8583   23.9493 C   0  0  0  0  0  0  0  0  0  0  0  0
    9.2309  -14.1921   23.2247 O   0  0  0  0  0  0  0  0  0  0  0  0
    8.9068  -16.1171   24.4346 N   0  0  0  0  0  0  0  0  0  0  0  0
   10.2618  -16.5879   24.2375 C   0  0  0  0  0  0  0  0  0  0  0  0
   10.9781  -16.4346   25.5454 C   0  0  0  0  0  0  0  0  0  0  0  0
   12.1866  -16.7721   25.6602 O   0  0  0  0  0  0  0  0  0  0  0  0
   10.6496  -14.6012   28.7374 C   0  0  0  0  0  0  0  0  0  0  0  0
   11.0739  -15.8155   27.9315 C   0  0  2  0  0  0  0  0  0  0  0  0
   10.3343  -15.9107   26.6919 N   0  0  0  0  0  0  0  0  0  0  0  0
   10.8518  -17.0699   28.6895 C   0  0  0  0  0  0  0  0  0  0  0  0
   10.0257  -17.9162   28.2746 O   0  0  0  0  0  0  0  0  0  0  0  0
   11.5409  -17.3358   29.8586 O   0  0  0  0  0  0  0  0  0  0  0  0
  2  1  1  6
  3  2  1  0
  4  5  1  0
  4  2  1  0
  5  6  1  1
  7  5  1  0
  7  8  2  0
  9 10  1  0
  9  7  1  0
 10 11  1  0
 11 12  2  0
 11 15  1  0
 14 13  1  1
 15 14  1  0
 16 18  1  0
 16 14  1  0
 17 16  2  0
M  END
$$$$
