EIN.pdb
     RDKit          3D

 26 25  0  0  1  0  0  0  0  0999 V2000
    8.0576  -15.5618   20.5967 N   0  0  0  0  0  0  0  0  0  0  0  0
    7.4371  -15.8228   21.8507 C   0  0  1  0  0  0  0  0  0  0  0  0
    7.0589  -17.2232   22.1291 C   0  0  0  0  0  0  0  0  0  0  0  0
    8.2320  -18.1384   22.1857 C   0  0  0  0  0  0  0  0  0  0  0  0
    7.9337  -19.5339   22.4781 C   0  0  0  0  0  0  0  0  0  0  0  0
    6.7954  -19.9552   22.7058 O   0  0  0  0  0  0  0  0  0  0  0  0
    8.1340  -15.1621   22.9924 C   0  0  0  0  0  0  0  0  0  0  0  0
    9.3759  -14.9794   22.9595 O   0  0  0  0  0  0  0  0  0  0  0  0
    8.9548  -20.5119   22.5205 O   0  0  0  0  0  0  0  0  0  0  0  0
    5.1831  -11.7435   26.2973 C   0  0  0  0  0  0  0  0  0  0  0  0
    6.3568  -12.2054   25.4184 C   0  0  0  0  0  0  0  0  0  0  0  0
    7.2481  -13.1705   26.0857 C   0  0  2  0  0  0  0  0  0  0  0  0
    8.0507  -12.4515   27.1484 C   0  0  0  0  0  0  0  0  0  0  0  0
    8.1355  -13.9993   25.2249 C   0  0  2  0  0  0  0  0  0  0  0  0
    7.4760  -14.7007   24.1714 N   0  0  0  0  0  0  0  0  0  0  0  0
    9.1412  -14.8072   25.9691 C   0  0  0  0  0  0  0  0  0  0  0  0
   10.0629  -14.3355   26.6778 O   0  0  0  0  0  0  0  0  0  0  0  0
   10.0802  -19.0395   29.3339 N   0  0  0  0  0  0  0  0  0  0  0  0
    9.9822  -19.2342   27.9333 C   0  0  0  0  0  0  0  0  0  0  0  0
   10.6779  -20.1660   27.4221 O   0  0  0  0  0  0  0  0  0  0  0  0
    9.1166  -18.4052   27.0581 C   0  0  0  0  0  0  0  0  0  0  0  0
    9.8545  -17.0935   26.8423 C   0  0  2  0  0  0  0  0  0  0  0  0
    9.1232  -16.2314   25.9265 N   0  0  0  0  0  0  0  0  0  0  0  0
   11.1433  -17.4078   26.1965 C   0  0  0  0  0  0  0  0  0  0  0  0
   12.2786  -17.8405   26.8599 O   0  0  0  0  0  0  0  0  0  0  0  0
   11.2221  -17.2763   24.9515 O   0  0  0  0  0  0  0  0  0  0  0  0
  2  1  1  6
  3  2  1  0
  4  3  1  0
  5  4  1  0
  5  6  2  0
  7  2  1  0
  7  8  2  0
  9  5  1  0
 10 11  1  0
 11 12  1  0
 12 14  1  0
 12 13  1  1
 14 15  1  1
 15  7  1  0
 16 14  1  0
 17 16  2  0
 18 19  1  0
 19 20  2  0
 19 21  1  0
 22 21  1  6
 22 24  1  0
 22 23  1  0
 23 16  1  0
 24 25  1  0
 26 24  2  0
M  END
$$$$
