EIN.pdb
     RDKit          3D

 26 25  0  0  1  0  0  0  0  0999 V2000
    8.5558  -14.5953   20.1500 N   0  0  0  0  0  0  0  0  0  0  0  0
    8.0267  -15.4547   21.1536 C   0  0  1  0  0  0  0  0  0  0  0  0
    8.0562  -16.9046   20.8736 C   0  0  0  0  0  0  0  0  0  0  0  0
    7.6299  -17.2340   19.4855 C   0  0  0  0  0  0  0  0  0  0  0  0
    7.4494  -18.6503   19.1971 C   0  0  0  0  0  0  0  0  0  0  0  0
    6.3867  -19.2532   19.3763 O   0  0  0  0  0  0  0  0  0  0  0  0
    8.5030  -15.1090   22.5245 C   0  0  0  0  0  0  0  0  0  0  0  0
    9.7268  -14.9387   22.7484 O   0  0  0  0  0  0  0  0  0  0  0  0
    8.5064  -19.4377   18.6834 O   0  0  0  0  0  0  0  0  0  0  0  0
    5.8683  -11.6664   25.8199 C   0  0  0  0  0  0  0  0  0  0  0  0
    6.9716  -12.4539   25.0946 C   0  0  0  0  0  0  0  0  0  0  0  0
    7.3267  -13.7194   25.7606 C   0  0  2  0  0  0  0  0  0  0  0  0
    8.0066  -13.4130   27.0775 C   0  0  0  0  0  0  0  0  0  0  0  0
    8.1128  -14.7130   24.9796 C   0  0  2  0  0  0  0  0  0  0  0  0
    7.6439  -14.9497   23.6526 N   0  0  0  0  0  0  0  0  0  0  0  0
    8.4781  -15.9443   25.7337 C   0  0  0  0  0  0  0  0  0  0  0  0
    7.6702  -16.8321   26.0986 O   0  0  0  0  0  0  0  0  0  0  0  0
   12.9956  -18.9547   28.0225 N   0  0  0  0  0  0  0  0  0  0  0  0
   12.1445  -18.9994   26.8899 C   0  0  0  0  0  0  0  0  0  0  0  0
   11.7534  -20.1423   26.4968 O   0  0  0  0  0  0  0  0  0  0  0  0
   11.7037  -17.7857   26.1585 C   0  0  0  0  0  0  0  0  0  0  0  0
   10.2997  -17.4734   26.6513 C   0  0  2  0  0  0  0  0  0  0  0  0
    9.8276  -16.2097   26.1063 N   0  0  0  0  0  0  0  0  0  0  0  0
   10.3674  -17.3086   28.1159 C   0  0  0  0  0  0  0  0  0  0  0  0
   10.3058  -18.3425   29.0344 O   0  0  0  0  0  0  0  0  0  0  0  0
   10.4919  -16.1457   28.5694 O   0  0  0  0  0  0  0  0  0  0  0  0
  2  1  1  6
  3  2  1  0
  4  3  1  0
  5  4  1  0
  5  6  2  0
  7  2  1  0
  7  8  2  0
  9  5  1  0
 10 11  1  0
 11 12  1  0
 12 14  1  0
 12 13  1  1
 14 15  1  6
 15  7  1  0
 16 14  1  0
 17 16  2  0
 18 19  1  0
 19 20  2  0
 19 21  1  0
 22 21  1  6
 22 24  1  0
 22 23  1  0
 23 16  1  0
 24 25  1  0
 26 24  2  0
M  END
$$$$
