EIN.pdb
     RDKit          3D

 26 25  0  0  1  0  0  0  0  0999 V2000
    8.3615  -15.0274   19.8231 N   0  0  0  0  0  0  0  0  0  0  0  0
    7.5811  -15.3575   20.9667 C   0  0  1  0  0  0  0  0  0  0  0  0
    6.9856  -16.7087   21.0005 C   0  0  0  0  0  0  0  0  0  0  0  0
    7.8735  -17.7467   20.4079 C   0  0  0  0  0  0  0  0  0  0  0  0
    7.3115  -19.0878   20.3221 C   0  0  0  0  0  0  0  0  0  0  0  0
    6.5252  -19.4430   19.4386 O   0  0  0  0  0  0  0  0  0  0  0  0
    8.2372  -14.9699   22.2492 C   0  0  0  0  0  0  0  0  0  0  0  0
    9.4831  -15.0583   22.3782 O   0  0  0  0  0  0  0  0  0  0  0  0
    7.6403  -20.0859   21.2690 O   0  0  0  0  0  0  0  0  0  0  0  0
    7.6282  -11.3497   27.2474 C   0  0  0  0  0  0  0  0  0  0  0  0
    8.2990  -12.5558   26.5700 C   0  0  0  0  0  0  0  0  0  0  0  0
    7.5633  -13.0560   25.3954 C   0  0  2  0  0  0  0  0  0  0  0  0
    6.1375  -13.3649   25.7980 C   0  0  0  0  0  0  0  0  0  0  0  0
    8.1574  -14.1942   24.6426 C   0  0  2  0  0  0  0  0  0  0  0  0
    7.5337  -14.4862   23.3926 N   0  0  0  0  0  0  0  0  0  0  0  0
    8.4663  -15.3916   25.4727 C   0  0  0  0  0  0  0  0  0  0  0  0
    7.6355  -16.2703   25.8071 O   0  0  0  0  0  0  0  0  0  0  0  0
   12.1252  -19.6371   25.6596 N   0  0  0  0  0  0  0  0  0  0  0  0
   12.1996  -18.4165   26.3763 C   0  0  0  0  0  0  0  0  0  0  0  0
   12.6995  -18.4529   27.5435 O   0  0  0  0  0  0  0  0  0  0  0  0
   11.7225  -17.1231   25.8267 C   0  0  0  0  0  0  0  0  0  0  0  0
   10.2998  -16.9407   26.3309 C   0  0  2  0  0  0  0  0  0  0  0  0
    9.7826  -15.6317   25.9626 N   0  0  0  0  0  0  0  0  0  0  0  0
   10.3400  -16.9852   27.8052 C   0  0  0  0  0  0  0  0  0  0  0  0
   10.3295  -18.1425   28.5647 O   0  0  0  0  0  0  0  0  0  0  0  0
   10.3890  -15.8946   28.4230 O   0  0  0  0  0  0  0  0  0  0  0  0
  2  1  1  6
  3  2  1  0
  4  3  1  0
  5  4  1  0
  5  6  2  0
  7  2  1  0
  7  8  2  0
  9  5  1  0
 10 11  1  0
 11 12  1  0
 12 14  1  0
 12 13  1  1
 14 15  1  6
 15  7  1  0
 16 14  1  0
 17 16  2  0
 18 19  1  0
 19 20  2  0
 19 21  1  0
 22 21  1  6
 22 24  1  0
 22 23  1  0
 23 16  1  0
 24 25  1  0
 26 24  2  0
M  END
$$$$
