EIN.pdb
     RDKit          3D

 26 25  0  0  1  0  0  0  0  0999 V2000
   10.8205  -16.9937   15.9502 N   0  0  0  0  0  0  0  0  0  0  0  0
    9.9051  -17.4089   16.9580 C   0  0  1  0  0  0  0  0  0  0  0  0
    9.8068  -18.8605   17.2127 C   0  0  0  0  0  0  0  0  0  0  0  0
    9.9651  -19.6762   15.9772 C   0  0  0  0  0  0  0  0  0  0  0  0
    9.8287  -21.1164   16.1468 C   0  0  0  0  0  0  0  0  0  0  0  0
    9.1377  -21.6374   17.0277 O   0  0  0  0  0  0  0  0  0  0  0  0
   10.0068  -16.5968   18.2053 C   0  0  0  0  0  0  0  0  0  0  0  0
   11.1302  -16.2717   18.6627 O   0  0  0  0  0  0  0  0  0  0  0  0
   10.4963  -22.0250   15.2925 O   0  0  0  0  0  0  0  0  0  0  0  0
    6.5058  -12.4931   19.6904 C   0  0  0  0  0  0  0  0  0  0  0  0
    7.7369  -13.3776   19.4343 C   0  0  0  0  0  0  0  0  0  0  0  0
    7.9260  -14.4312   20.4469 C   0  0  2  0  0  0  0  0  0  0  0  0
    8.1078  -13.7873   21.8044 C   0  0  0  0  0  0  0  0  0  0  0  0
    8.9867  -15.4451   20.1976 C   0  0  2  0  0  0  0  0  0  0  0  0
    8.8823  -16.1393   18.9551 N   0  0  0  0  0  0  0  0  0  0  0  0
    9.2990  -16.3145   21.3658 C   0  0  0  0  0  0  0  0  0  0  0  0
    8.6368  -17.3226   21.7113 O   0  0  0  0  0  0  0  0  0  0  0  0
   11.7763  -18.7161   21.5578 N   0  0  0  0  0  0  0  0  0  0  0  0
   12.7248  -18.0419   22.3671 C   0  0  0  0  0  0  0  0  0  0  0  0
   13.9478  -18.3493   22.2144 O   0  0  0  0  0  0  0  0  0  0  0  0
   12.3504  -17.0124   23.3684 C   0  0  0  0  0  0  0  0  0  0  0  0
   10.8356  -16.8929   23.3158 C   0  0  2  0  0  0  0  0  0  0  0  0
   10.4198  -16.0503   22.2051 N   0  0  0  0  0  0  0  0  0  0  0  0
   10.3983  -16.2170   24.5523 C   0  0  0  0  0  0  0  0  0  0  0  0
    9.8146  -14.9630   24.6072 O   0  0  0  0  0  0  0  0  0  0  0  0
   10.5640  -16.8202   25.6396 O   0  0  0  0  0  0  0  0  0  0  0  0
  2  1  1  6
  3  2  1  0
  4  3  1  0
  5  4  1  0
  5  6  2  0
  7  2  1  0
  7  8  2  0
  9  5  1  0
 10 11  1  0
 11 12  1  0
 12 14  1  0
 12 13  1  1
 14 15  1  6
 15  7  1  0
 16 14  1  0
 17 16  2  0
 18 19  1  0
 19 20  2  0
 19 21  1  0
 22 21  1  1
 22 24  1  0
 22 23  1  0
 23 16  1  0
 24 25  1  0
 26 24  2  0
M  END
$$$$
