EIN.pdb
     RDKit          3D

 26 25  0  0  1  0  0  0  0  0999 V2000
   11.2367  -15.8713   14.9447 N   0  0  0  0  0  0  0  0  0  0  0  0
   10.4946  -16.4539   16.0104 C   0  0  1  0  0  0  0  0  0  0  0  0
   10.5758  -17.9216   16.1554 C   0  0  0  0  0  0  0  0  0  0  0  0
   11.4496  -18.5562   15.1303 C   0  0  0  0  0  0  0  0  0  0  0  0
   11.5943  -20.0023   15.2283 C   0  0  0  0  0  0  0  0  0  0  0  0
   12.3028  -20.6702   14.4688 O   0  0  0  0  0  0  0  0  0  0  0  0
   10.6603  -15.7238   17.3008 C   0  0  0  0  0  0  0  0  0  0  0  0
   11.8069  -15.4859   17.7542 O   0  0  0  0  0  0  0  0  0  0  0  0
   10.9148  -20.7447   16.2224 O   0  0  0  0  0  0  0  0  0  0  0  0
    6.7182  -12.2339   19.4820 C   0  0  0  0  0  0  0  0  0  0  0  0
    8.0347  -12.8531   18.9851 C   0  0  0  0  0  0  0  0  0  0  0  0
    8.5759  -13.8868   19.8850 C   0  0  2  0  0  0  0  0  0  0  0  0
    8.8828  -13.2627   21.2292 C   0  0  0  0  0  0  0  0  0  0  0  0
    9.7322  -14.6879   19.3989 C   0  0  2  0  0  0  0  0  0  0  0  0
    9.5744  -15.2532   18.0980 N   0  0  0  0  0  0  0  0  0  0  0  0
   10.3104  -15.6168   20.4093 C   0  0  0  0  0  0  0  0  0  0  0  0
    9.9534  -16.8073   20.5812 O   0  0  0  0  0  0  0  0  0  0  0  0
   14.6303  -14.3760   20.7682 N   0  0  0  0  0  0  0  0  0  0  0  0
   14.2072  -15.5382   21.4606 C   0  0  0  0  0  0  0  0  0  0  0  0
   14.5865  -16.6615   21.0045 O   0  0  0  0  0  0  0  0  0  0  0  0
   13.3523  -15.4937   22.6729 C   0  0  0  0  0  0  0  0  0  0  0  0
   12.0003  -16.0578   22.2661 C   0  0  2  0  0  0  0  0  0  0  0  0
   11.3537  -15.1995   21.2854 N   0  0  0  0  0  0  0  0  0  0  0  0
   11.1397  -16.0615   23.4645 C   0  0  0  0  0  0  0  0  0  0  0  0
   11.2856  -16.9164   24.5436 O   0  0  0  0  0  0  0  0  0  0  0  0
   10.2039  -15.2279   23.5162 O   0  0  0  0  0  0  0  0  0  0  0  0
  2  1  1  6
  3  2  1  0
  4  3  1  0
  5  4  1  0
  5  6  2  0
  7  2  1  0
  7  8  2  0
  9  5  1  0
 10 11  1  0
 11 12  1  0
 12 14  1  0
 12 13  1  1
 14 15  1  6
 15  7  1  0
 16 14  1  0
 17 16  2  0
 18 19  1  0
 19 20  2  0
 19 21  1  0
 22 21  1  1
 22 24  1  0
 22 23  1  0
 23 16  1  0
 24 25  1  0
 26 24  2  0
M  END
$$$$
