EIN.pdb
     RDKit          3D

 26 25  0  0  1  0  0  0  0  0999 V2000
    8.1492  -14.2876   20.2965 N   0  0  0  0  0  0  0  0  0  0  0  0
    7.3761  -14.8127   21.3700 C   0  0  1  0  0  0  0  0  0  0  0  0
    6.7578  -16.1377   21.1610 C   0  0  0  0  0  0  0  0  0  0  0  0
    7.7559  -17.1996   20.8558 C   0  0  0  0  0  0  0  0  0  0  0  0
    7.2161  -18.5369   20.6514 C   0  0  0  0  0  0  0  0  0  0  0  0
    7.3449  -19.1715   19.5998 O   0  0  0  0  0  0  0  0  0  0  0  0
    8.0531  -14.6798   22.6928 C   0  0  0  0  0  0  0  0  0  0  0  0
    9.2937  -14.8468   22.7918 O   0  0  0  0  0  0  0  0  0  0  0  0
    6.4946  -19.2033   21.6694 O   0  0  0  0  0  0  0  0  0  0  0  0
    5.7882  -11.5308   26.6874 C   0  0  0  0  0  0  0  0  0  0  0  0
    6.8673  -12.1261   25.7684 C   0  0  0  0  0  0  0  0  0  0  0  0
    7.3367  -13.4558   26.1957 C   0  0  2  0  0  0  0  0  0  0  0  0
    8.1941  -13.3048   27.4337 C   0  0  0  0  0  0  0  0  0  0  0  0
    8.0192  -14.3052   25.1817 C   0  0  2  0  0  0  0  0  0  0  0  0
    7.3763  -14.3652   23.9090 N   0  0  0  0  0  0  0  0  0  0  0  0
    8.4961  -15.6195   25.6948 C   0  0  0  0  0  0  0  0  0  0  0  0
    7.7676  -16.6201   25.9004 O   0  0  0  0  0  0  0  0  0  0  0  0
   10.5489  -18.1636   24.0400 N   0  0  0  0  0  0  0  0  0  0  0  0
   11.7732  -17.8703   24.6913 C   0  0  0  0  0  0  0  0  0  0  0  0
   12.8466  -18.1276   24.0627 O   0  0  0  0  0  0  0  0  0  0  0  0
   11.8473  -17.2877   26.0543 C   0  0  0  0  0  0  0  0  0  0  0  0
   10.4121  -17.0875   26.5145 C   0  0  2  0  0  0  0  0  0  0  0  0
    9.8708  -15.8397   25.9981 N   0  0  0  0  0  0  0  0  0  0  0  0
   10.4275  -16.9706   27.9852 C   0  0  0  0  0  0  0  0  0  0  0  0
   10.4551  -18.0384   28.8658 O   0  0  0  0  0  0  0  0  0  0  0  0
   10.4165  -15.8186   28.4814 O   0  0  0  0  0  0  0  0  0  0  0  0
  2  1  1  6
  3  2  1  0
  4  3  1  0
  5  4  1  0
  5  6  2  0
  7  2  1  0
  7  8  2  0
  9  5  1  0
 10 11  1  0
 11 12  1  0
 12 14  1  0
 12 13  1  1
 14 15  1  6
 15  7  1  0
 16 14  1  0
 17 16  2  0
 18 19  1  0
 19 20  2  0
 19 21  1  0
 22 21  1  6
 22 24  1  0
 22 23  1  0
 23 16  1  0
 24 25  1  0
 26 24  2  0
M  END
$$$$
