EIN.pdb
     RDKit          3D

 26 25  0  0  1  0  0  0  0  0999 V2000
    7.9863  -14.4284   20.3623 N   0  0  0  0  0  0  0  0  0  0  0  0
    7.3255  -15.1122   21.4214 C   0  0  1  0  0  0  0  0  0  0  0  0
    6.8647  -16.4875   21.1423 C   0  0  0  0  0  0  0  0  0  0  0  0
    7.9064  -17.3239   20.4848 C   0  0  0  0  0  0  0  0  0  0  0  0
    7.5066  -18.6825   20.1440 C   0  0  0  0  0  0  0  0  0  0  0  0
    6.3387  -19.0814   20.1880 O   0  0  0  0  0  0  0  0  0  0  0  0
    8.0329  -14.9810   22.7282 C   0  0  0  0  0  0  0  0  0  0  0  0
    9.2830  -15.0840   22.7878 O   0  0  0  0  0  0  0  0  0  0  0  0
    8.4552  -19.6483   19.7338 O   0  0  0  0  0  0  0  0  0  0  0  0
    5.9170  -11.7154   26.6037 C   0  0  0  0  0  0  0  0  0  0  0  0
    6.9772  -12.3769   25.7082 C   0  0  0  0  0  0  0  0  0  0  0  0
    7.4252  -13.6920   26.1990 C   0  0  2  0  0  0  0  0  0  0  0  0
    8.3185  -13.4933   27.4044 C   0  0  0  0  0  0  0  0  0  0  0  0
    8.0596  -14.6147   25.2185 C   0  0  2  0  0  0  0  0  0  0  0  0
    7.3764  -14.7379   23.9716 N   0  0  0  0  0  0  0  0  0  0  0  0
    8.5274  -15.9054   25.7959 C   0  0  0  0  0  0  0  0  0  0  0  0
    7.7786  -16.8226   26.2108 O   0  0  0  0  0  0  0  0  0  0  0  0
   11.6624  -19.2411   24.0539 N   0  0  0  0  0  0  0  0  0  0  0  0
   11.7740  -17.9374   24.5990 C   0  0  0  0  0  0  0  0  0  0  0  0
   11.7938  -16.9626   23.7848 O   0  0  0  0  0  0  0  0  0  0  0  0
   11.8694  -17.6733   26.0563 C   0  0  0  0  0  0  0  0  0  0  0  0
   10.4528  -17.4025   26.5374 C   0  0  2  0  0  0  0  0  0  0  0  0
    9.9161  -16.1994   25.9199 N   0  0  0  0  0  0  0  0  0  0  0  0
   10.5161  -17.1462   27.9891 C   0  0  0  0  0  0  0  0  0  0  0  0
   10.5060  -15.8918   28.5746 O   0  0  0  0  0  0  0  0  0  0  0  0
   10.5826  -18.1363   28.7563 O   0  0  0  0  0  0  0  0  0  0  0  0
  2  1  1  6
  3  2  1  0
  4  3  1  0
  5  4  1  0
  5  6  2  0
  7  2  1  0
  7  8  2  0
  9  5  1  0
 10 11  1  0
 11 12  1  0
 12 14  1  0
 12 13  1  1
 14 15  1  6
 15  7  1  0
 16 14  1  0
 17 16  2  0
 18 19  1  0
 19 20  2  0
 19 21  1  0
 22 21  1  6
 22 24  1  0
 22 23  1  0
 23 16  1  0
 24 25  1  0
 26 24  2  0
M  END
$$$$
