EIN.pdb
     RDKit          3D

 26 25  0  0  1  0  0  0  0  0999 V2000
    8.1881  -14.1814   20.0342 N   0  0  0  0  0  0  0  0  0  0  0  0
    7.4949  -14.9188   21.0350 C   0  0  1  0  0  0  0  0  0  0  0  0
    7.1678  -16.3246   20.7214 C   0  0  0  0  0  0  0  0  0  0  0  0
    7.3998  -16.6667   19.2910 C   0  0  0  0  0  0  0  0  0  0  0  0
    6.9693  -17.9961   18.8795 C   0  0  0  0  0  0  0  0  0  0  0  0
    6.0316  -18.1995   18.1021 O   0  0  0  0  0  0  0  0  0  0  0  0
    8.0766  -14.7383   22.3969 C   0  0  0  0  0  0  0  0  0  0  0  0
    9.3196  -14.7854   22.5688 O   0  0  0  0  0  0  0  0  0  0  0  0
    7.6150  -19.1602   19.3581 O   0  0  0  0  0  0  0  0  0  0  0  0
    5.6681  -11.5376   26.2420 C   0  0  0  0  0  0  0  0  0  0  0  0
    6.7678  -12.1997   25.3961 C   0  0  0  0  0  0  0  0  0  0  0  0
    7.1098  -13.5633   25.8377 C   0  0  2  0  0  0  0  0  0  0  0  0
    7.8253  -13.4885   27.1692 C   0  0  0  0  0  0  0  0  0  0  0  0
    7.8564  -14.4299   24.8854 C   0  0  2  0  0  0  0  0  0  0  0  0
    7.3019  -14.5069   23.5726 N   0  0  0  0  0  0  0  0  0  0  0  0
    8.2917  -15.7378   25.4492 C   0  0  0  0  0  0  0  0  0  0  0  0
    7.5433  -16.7280   25.6332 O   0  0  0  0  0  0  0  0  0  0  0  0
   13.0021  -18.8216   27.2101 N   0  0  0  0  0  0  0  0  0  0  0  0
   12.1272  -18.7099   26.1005 C   0  0  0  0  0  0  0  0  0  0  0  0
   11.7832  -19.7842   25.5163 O   0  0  0  0  0  0  0  0  0  0  0  0
   11.6099  -17.4108   25.6033 C   0  0  0  0  0  0  0  0  0  0  0  0
   10.2031  -17.2666   26.1616 C   0  0  2  0  0  0  0  0  0  0  0  0
    9.6453  -15.9638   25.8325 N   0  0  0  0  0  0  0  0  0  0  0  0
   10.2981  -17.3318   27.6325 C   0  0  0  0  0  0  0  0  0  0  0  0
   10.2079  -18.4917   28.3828 O   0  0  0  0  0  0  0  0  0  0  0  0
   10.4756  -16.2581   28.2562 O   0  0  0  0  0  0  0  0  0  0  0  0
  2  1  1  6
  3  2  1  0
  4  3  1  0
  5  4  1  0
  5  6  2  0
  7  2  1  0
  7  8  2  0
  9  5  1  0
 10 11  1  0
 11 12  1  0
 12 14  1  0
 12 13  1  1
 14 15  1  6
 15  7  1  0
 16 14  1  0
 17 16  2  0
 18 19  1  0
 19 20  2  0
 19 21  1  0
 22 21  1  6
 22 24  1  0
 22 23  1  0
 23 16  1  0
 24 25  1  0
 26 24  2  0
M  END
$$$$
