EIN.pdb
     RDKit          3D

 26 25  0  0  1  0  0  0  0  0999 V2000
    9.7749  -17.2561   16.3546 N   0  0  0  0  0  0  0  0  0  0  0  0
    9.2404  -17.7616   17.5731 C   0  0  1  0  0  0  0  0  0  0  0  0
    9.4798  -19.1895   17.8649 C   0  0  0  0  0  0  0  0  0  0  0  0
   10.0934  -19.9184   16.7207 C   0  0  0  0  0  0  0  0  0  0  0  0
   10.3344  -21.3395   16.9304 C   0  0  0  0  0  0  0  0  0  0  0  0
   11.1488  -21.7803   17.7473 O   0  0  0  0  0  0  0  0  0  0  0  0
    9.5061  -16.8688   18.7385 C   0  0  0  0  0  0  0  0  0  0  0  0
   10.6729  -16.4761   18.9857 O   0  0  0  0  0  0  0  0  0  0  0  0
    9.6336  -22.3220   16.1923 O   0  0  0  0  0  0  0  0  0  0  0  0
    7.7085  -12.7944   19.8261 C   0  0  0  0  0  0  0  0  0  0  0  0
    6.8777  -13.9755   20.3537 C   0  0  0  0  0  0  0  0  0  0  0  0
    7.6082  -14.8307   21.3056 C   0  0  2  0  0  0  0  0  0  0  0  0
    8.0097  -14.0038   22.5079 C   0  0  0  0  0  0  0  0  0  0  0  0
    8.7684  -15.6056   20.7870 C   0  0  2  0  0  0  0  0  0  0  0  0
    8.4983  -16.4045   19.6357 N   0  0  0  0  0  0  0  0  0  0  0  0
    9.5759  -16.2879   21.8360 C   0  0  0  0  0  0  0  0  0  0  0  0
    9.2746  -17.3761   22.3831 O   0  0  0  0  0  0  0  0  0  0  0  0
   13.5550  -17.6947   24.7183 N   0  0  0  0  0  0  0  0  0  0  0  0
   13.9584  -16.4812   24.1069 C   0  0  0  0  0  0  0  0  0  0  0  0
   15.1382  -16.0723   24.3406 O   0  0  0  0  0  0  0  0  0  0  0  0
   13.0713  -15.6843   23.2234 C   0  0  0  0  0  0  0  0  0  0  0  0
   11.7408  -16.4186   23.1754 C   0  0  2  0  0  0  0  0  0  0  0  0
   10.7983  -15.7284   22.3082 N   0  0  0  0  0  0  0  0  0  0  0  0
   11.1683  -16.3936   24.5350 C   0  0  0  0  0  0  0  0  0  0  0  0
   11.3227  -17.3937   25.4795 O   0  0  0  0  0  0  0  0  0  0  0  0
   10.4904  -15.3917   24.8667 O   0  0  0  0  0  0  0  0  0  0  0  0
  2  1  1  6
  3  2  1  0
  4  3  1  0
  5  4  1  0
  5  6  2  0
  7  2  1  0
  7  8  2  0
  9  5  1  0
 10 11  1  0
 11 12  1  0
 12 14  1  0
 12 13  1  1
 14 15  1  6
 15  7  1  0
 16 14  1  0
 17 16  2  0
 18 19  1  0
 19 20  2  0
 19 21  1  0
 22 21  1  1
 22 24  1  0
 22 23  1  0
 23 16  1  0
 24 25  1  0
 26 24  2  0
M  END
$$$$
