EIN.pdb
     RDKit          3D

 26 25  0  0  1  0  0  0  0  0999 V2000
    8.7361  -15.0508   20.3330 N   0  0  0  0  0  0  0  0  0  0  0  0
    7.8788  -15.4657   21.3907 C   0  0  1  0  0  0  0  0  0  0  0  0
    7.3977  -16.8616   21.3510 C   0  0  0  0  0  0  0  0  0  0  0  0
    7.2880  -17.3959   19.9655 C   0  0  0  0  0  0  0  0  0  0  0  0
    6.7888  -18.7594   19.8497 C   0  0  0  0  0  0  0  0  0  0  0  0
    5.6692  -19.0413   19.4115 O   0  0  0  0  0  0  0  0  0  0  0  0
    8.3728  -15.0502   22.7357 C   0  0  0  0  0  0  0  0  0  0  0  0
    9.6023  -15.0542   22.9906 O   0  0  0  0  0  0  0  0  0  0  0  0
    7.5755  -19.8674   20.2427 O   0  0  0  0  0  0  0  0  0  0  0  0
    5.8624  -11.3085   26.0243 C   0  0  0  0  0  0  0  0  0  0  0  0
    6.9458  -12.1294   25.3061 C   0  0  0  0  0  0  0  0  0  0  0  0
    7.2060  -13.4373   25.9329 C   0  0  2  0  0  0  0  0  0  0  0  0
    7.8413  -13.2196   27.2891 C   0  0  0  0  0  0  0  0  0  0  0  0
    7.9746  -14.4391   25.1449 C   0  0  2  0  0  0  0  0  0  0  0  0
    7.5250  -14.6306   23.8040 N   0  0  0  0  0  0  0  0  0  0  0  0
    8.2837  -15.6983   25.8778 C   0  0  0  0  0  0  0  0  0  0  0  0
    7.5000  -16.6701   26.0030 O   0  0  0  0  0  0  0  0  0  0  0  0
   11.1457  -19.5724   27.5980 N   0  0  0  0  0  0  0  0  0  0  0  0
   11.7594  -18.8743   26.5279 C   0  0  0  0  0  0  0  0  0  0  0  0
   12.7656  -19.4181   25.9752 O   0  0  0  0  0  0  0  0  0  0  0  0
   11.2822  -17.5564   26.0399 C   0  0  0  0  0  0  0  0  0  0  0  0
   10.0818  -17.1897   26.8979 C   0  0  2  0  0  0  0  0  0  0  0  0
    9.5446  -15.8939   26.5119 N   0  0  0  0  0  0  0  0  0  0  0  0
   10.5518  -17.0601   28.2905 C   0  0  0  0  0  0  0  0  0  0  0  0
   10.5827  -15.8783   29.0108 O   0  0  0  0  0  0  0  0  0  0  0  0
   10.9537  -18.0963   28.8719 O   0  0  0  0  0  0  0  0  0  0  0  0
  2  1  1  6
  3  2  1  0
  4  3  1  0
  5  4  1  0
  5  6  2  0
  7  2  1  0
  7  8  2  0
  9  5  1  0
 10 11  1  0
 11 12  1  0
 12 14  1  0
 12 13  1  1
 14 15  1  6
 15  7  1  0
 16 14  1  0
 17 16  2  0
 18 19  1  0
 19 20  2  0
 19 21  1  0
 22 21  1  6
 22 24  1  0
 22 23  1  0
 23 16  1  0
 24 25  1  0
 26 24  2  0
M  END
$$$$
