EIN.pdb
     RDKit          3D

 26 25  0  0  1  0  0  0  0  0999 V2000
    6.6686  -16.5403   21.8397 N   0  0  0  0  0  0  0  0  0  0  0  0
    8.0853  -16.4265   21.7640 C   0  0  1  0  0  0  0  0  0  0  0  0
    8.6438  -15.8666   20.5165 C   0  0  0  0  0  0  0  0  0  0  0  0
    7.9072  -16.3133   19.3020 C   0  0  0  0  0  0  0  0  0  0  0  0
    8.4163  -15.8130   18.0322 C   0  0  0  0  0  0  0  0  0  0  0  0
    7.7256  -15.1954   17.2158 O   0  0  0  0  0  0  0  0  0  0  0  0
    8.6875  -15.8384   22.9958 C   0  0  0  0  0  0  0  0  0  0  0  0
    9.9325  -15.7082   23.0951 O   0  0  0  0  0  0  0  0  0  0  0  0
    9.7638  -16.0107   17.6498 O   0  0  0  0  0  0  0  0  0  0  0  0
    6.1832  -11.9226   25.8287 C   0  0  0  0  0  0  0  0  0  0  0  0
    7.3601  -12.7021   25.2199 C   0  0  0  0  0  0  0  0  0  0  0  0
    7.7892  -13.8522   26.0349 C   0  0  2  0  0  0  0  0  0  0  0  0
    8.5787  -13.3500   27.2245 C   0  0  0  0  0  0  0  0  0  0  0  0
    8.5163  -14.9530   25.3459 C   0  0  2  0  0  0  0  0  0  0  0  0
    7.9313  -15.3927   24.1207 N   0  0  0  0  0  0  0  0  0  0  0  0
    8.9695  -16.0522   26.2428 C   0  0  0  0  0  0  0  0  0  0  0  0
    8.2151  -16.8892   26.7947 O   0  0  0  0  0  0  0  0  0  0  0  0
   12.2254  -20.1344   27.4950 N   0  0  0  0  0  0  0  0  0  0  0  0
   12.7886  -18.8367   27.5840 C   0  0  0  0  0  0  0  0  0  0  0  0
   13.7450  -18.6690   28.4030 O   0  0  0  0  0  0  0  0  0  0  0  0
   12.3111  -17.6882   26.7744 C   0  0  0  0  0  0  0  0  0  0  0  0
   10.8937  -17.3944   27.2398 C   0  0  2  0  0  0  0  0  0  0  0  0
   10.3494  -16.2370   26.5463 N   0  0  0  0  0  0  0  0  0  0  0  0
   10.9580  -17.0439   28.6715 C   0  0  0  0  0  0  0  0  0  0  0  0
   10.8871  -17.9512   29.7146 O   0  0  0  0  0  0  0  0  0  0  0  0
   11.0884  -15.8332   28.9729 O   0  0  0  0  0  0  0  0  0  0  0  0
  2  1  1  1
  3  2  1  0
  4  3  1  0
  5  4  1  0
  5  6  2  0
  7  2  1  0
  7  8  2  0
  9  5  1  0
 10 11  1  0
 11 12  1  0
 12 14  1  0
 12 13  1  1
 14 15  1  6
 15  7  1  0
 16 14  1  0
 17 16  2  0
 18 19  1  0
 19 20  2  0
 19 21  1  0
 22 21  1  6
 22 24  1  0
 22 23  1  0
 23 16  1  0
 24 25  1  0
 26 24  2  0
M  END
$$$$
