EIN.pdb
     RDKit          3D

 26 25  0  0  1  0  0  0  0  0999 V2000
    8.9711  -15.2323   20.4698 N   0  0  0  0  0  0  0  0  0  0  0  0
    8.3112  -15.8791   21.5524 C   0  0  1  0  0  0  0  0  0  0  0  0
    8.2075  -17.3510   21.4868 C   0  0  0  0  0  0  0  0  0  0  0  0
    7.5603  -17.8296   20.2342 C   0  0  0  0  0  0  0  0  0  0  0  0
    7.3568  -19.2686   20.1357 C   0  0  0  0  0  0  0  0  0  0  0  0
    6.2576  -19.8136   20.2765 O   0  0  0  0  0  0  0  0  0  0  0  0
    8.7545  -15.3780   22.8858 C   0  0  0  0  0  0  0  0  0  0  0  0
    9.9742  -15.1976   23.1239 O   0  0  0  0  0  0  0  0  0  0  0  0
    8.4320  -20.1477   19.8675 O   0  0  0  0  0  0  0  0  0  0  0  0
    6.0186  -11.9018   26.2879 C   0  0  0  0  0  0  0  0  0  0  0  0
    7.0515  -12.6966   25.4725 C   0  0  0  0  0  0  0  0  0  0  0  0
    7.4682  -13.9547   26.1164 C   0  0  2  0  0  0  0  0  0  0  0  0
    8.1476  -13.6376   27.4310 C   0  0  0  0  0  0  0  0  0  0  0  0
    8.2889  -14.9017   25.3133 C   0  0  2  0  0  0  0  0  0  0  0  0
    7.8669  -15.0740   23.9609 N   0  0  0  0  0  0  0  0  0  0  0  0
    8.6395  -16.1671   26.0162 C   0  0  0  0  0  0  0  0  0  0  0  0
    7.8150  -17.0352   26.3914 O   0  0  0  0  0  0  0  0  0  0  0  0
   12.4453  -17.7135   24.1021 N   0  0  0  0  0  0  0  0  0  0  0  0
   11.6860  -18.4050   25.0790 C   0  0  0  0  0  0  0  0  0  0  0  0
   10.8745  -19.2923   24.6691 O   0  0  0  0  0  0  0  0  0  0  0  0
   11.7987  -18.1354   26.5341 C   0  0  0  0  0  0  0  0  0  0  0  0
   10.4161  -17.7078   27.0001 C   0  0  2  0  0  0  0  0  0  0  0  0
    9.9927  -16.4924   26.3216 N   0  0  0  0  0  0  0  0  0  0  0  0
   10.5097  -17.3850   28.4368 C   0  0  0  0  0  0  0  0  0  0  0  0
   10.5950  -18.3181   29.4558 O   0  0  0  0  0  0  0  0  0  0  0  0
   10.5144  -16.1747   28.7661 O   0  0  0  0  0  0  0  0  0  0  0  0
  2  1  1  6
  3  2  1  0
  4  3  1  0
  5  4  1  0
  5  6  2  0
  7  2  1  0
  7  8  2  0
  9  5  1  0
 10 11  1  0
 11 12  1  0
 12 14  1  0
 12 13  1  1
 14 15  1  6
 15  7  1  0
 16 14  1  0
 17 16  2  0
 18 19  1  0
 19 20  2  0
 19 21  1  0
 22 21  1  6
 22 24  1  0
 22 23  1  0
 23 16  1  0
 24 25  1  0
 26 24  2  0
M  END
$$$$
