EIN.pdb
     RDKit          3D

 26 25  0  0  1  0  0  0  0  0999 V2000
    8.3138  -14.6847   20.0020 N   0  0  0  0  0  0  0  0  0  0  0  0
    7.4401  -15.1288   21.0342 C   0  0  1  0  0  0  0  0  0  0  0  0
    6.8092  -16.4516   20.8508 C   0  0  0  0  0  0  0  0  0  0  0  0
    7.7852  -17.5734   20.9286 C   0  0  0  0  0  0  0  0  0  0  0  0
    7.2432  -18.9032   20.6844 C   0  0  0  0  0  0  0  0  0  0  0  0
    7.9137  -19.9375   20.7586 O   0  0  0  0  0  0  0  0  0  0  0  0
    8.0063  -14.9297   22.4000 C   0  0  0  0  0  0  0  0  0  0  0  0
    9.2400  -15.0505   22.6008 O   0  0  0  0  0  0  0  0  0  0  0  0
    5.8847  -19.0926   20.3387 O   0  0  0  0  0  0  0  0  0  0  0  0
    5.5198  -11.5555   26.1562 C   0  0  0  0  0  0  0  0  0  0  0  0
    6.5549  -12.2559   25.2610 C   0  0  0  0  0  0  0  0  0  0  0  0
    6.9805  -13.5712   25.7709 C   0  0  2  0  0  0  0  0  0  0  0  0
    7.7001  -13.3829   27.0889 C   0  0  0  0  0  0  0  0  0  0  0  0
    7.7702  -14.4422   24.8583 C   0  0  2  0  0  0  0  0  0  0  0  0
    7.2262  -14.5994   23.5482 N   0  0  0  0  0  0  0  0  0  0  0  0
    8.2613  -15.7043   25.4780 C   0  0  0  0  0  0  0  0  0  0  0  0
    7.5678  -16.7332   25.6638 O   0  0  0  0  0  0  0  0  0  0  0  0
   11.5101  -19.3695   27.0046 N   0  0  0  0  0  0  0  0  0  0  0  0
   12.2237  -18.4592   26.1851 C   0  0  0  0  0  0  0  0  0  0  0  0
   13.3916  -18.7960   25.8161 O   0  0  0  0  0  0  0  0  0  0  0  0
   11.6701  -17.1520   25.7525 C   0  0  0  0  0  0  0  0  0  0  0  0
   10.2431  -17.0959   26.2742 C   0  0  2  0  0  0  0  0  0  0  0  0
    9.6099  -15.8352   25.9190 N   0  0  0  0  0  0  0  0  0  0  0  0
   10.3047  -17.1432   27.7476 C   0  0  0  0  0  0  0  0  0  0  0  0
    9.9074  -16.1205   28.5917 O   0  0  0  0  0  0  0  0  0  0  0  0
   10.7484  -18.1877   28.2821 O   0  0  0  0  0  0  0  0  0  0  0  0
  2  1  1  6
  3  2  1  0
  4  3  1  0
  5  4  1  0
  5  6  2  0
  7  2  1  0
  7  8  2  0
  9  5  1  0
 10 11  1  0
 11 12  1  0
 12 14  1  0
 12 13  1  1
 14 15  1  6
 15  7  1  0
 16 14  1  0
 17 16  2  0
 18 19  1  0
 19 20  2  0
 19 21  1  0
 22 21  1  6
 22 24  1  0
 22 23  1  0
 23 16  1  0
 24 25  1  0
 26 24  2  0
M  END
$$$$
