EIN.pdb
     RDKit          3D

 26 25  0  0  1  0  0  0  0  0999 V2000
    8.0077  -18.2174   17.4661 N   0  0  0  0  0  0  0  0  0  0  0  0
    9.3940  -18.0583   17.7467 C   0  0  1  0  0  0  0  0  0  0  0  0
   10.2859  -17.8264   16.5925 C   0  0  0  0  0  0  0  0  0  0  0  0
    9.5870  -17.9644   15.2850 C   0  0  0  0  0  0  0  0  0  0  0  0
   10.4100  -18.4147   14.1707 C   0  0  0  0  0  0  0  0  0  0  0  0
   10.0223  -19.2183   13.3171 O   0  0  0  0  0  0  0  0  0  0  0  0
    9.6532  -17.1327   18.8877 C   0  0  0  0  0  0  0  0  0  0  0  0
   10.8266  -16.9236   19.2829 O   0  0  0  0  0  0  0  0  0  0  0  0
   11.7339  -17.9475   13.9972 O   0  0  0  0  0  0  0  0  0  0  0  0
    6.9912  -12.3252   19.6593 C   0  0  0  0  0  0  0  0  0  0  0  0
    8.0050  -13.4765   19.5589 C   0  0  0  0  0  0  0  0  0  0  0  0
    8.0307  -14.3441   20.7497 C   0  0  2  0  0  0  0  0  0  0  0  0
    8.3618  -13.5068   21.9661 C   0  0  0  0  0  0  0  0  0  0  0  0
    8.8858  -15.5611   20.6981 C   0  0  2  0  0  0  0  0  0  0  0  0
    8.6316  -16.4350   19.5988 N   0  0  0  0  0  0  0  0  0  0  0  0
    9.0613  -16.2505   22.0066 C   0  0  0  0  0  0  0  0  0  0  0  0
    8.1378  -16.7767   22.6734 O   0  0  0  0  0  0  0  0  0  0  0  0
   10.6746  -20.1024   21.9343 N   0  0  0  0  0  0  0  0  0  0  0  0
   10.5399  -19.3969   23.1563 C   0  0  0  0  0  0  0  0  0  0  0  0
    9.5699  -19.7158   23.9120 O   0  0  0  0  0  0  0  0  0  0  0  0
   11.4693  -18.3191   23.5771 C   0  0  0  0  0  0  0  0  0  0  0  0
   10.6114  -17.0931   23.8465 C   0  0  2  0  0  0  0  0  0  0  0  0
   10.3445  -16.3657   22.6151 N   0  0  0  0  0  0  0  0  0  0  0  0
   11.3865  -16.1890   24.7176 C   0  0  0  0  0  0  0  0  0  0  0  0
   11.4667  -16.2908   26.0959 O   0  0  0  0  0  0  0  0  0  0  0  0
   12.0249  -15.2563   24.1737 O   0  0  0  0  0  0  0  0  0  0  0  0
  2  1  1  6
  3  2  1  0
  4  3  1  0
  5  4  1  0
  5  6  2  0
  7  2  1  0
  7  8  2  0
  9  5  1  0
 10 11  1  0
 11 12  1  0
 12 14  1  0
 12 13  1  1
 14 15  1  6
 15  7  1  0
 16 14  1  0
 17 16  2  0
 18 19  1  0
 19 20  2  0
 19 21  1  0
 22 21  1  6
 22 24  1  0
 22 23  1  0
 23 16  1  0
 24 25  1  0
 26 24  2  0
M  END
$$$$
