VMV.pdb
     RDKit          3D

 23 22  0  0  1  0  0  0  0  0999 V2000
   28.5557  -16.1821  -15.7417 C   0  0  0  0  0  0  0  0  0  0  0  0
   27.9845  -17.5584  -15.8175 C   0  0  2  0  0  0  0  0  0  0  0  0
   28.2477  -18.1707  -17.1958 C   0  0  0  0  0  0  0  0  0  0  0  0
   26.4850  -17.5993  -15.6150 C   0  0  2  0  0  0  0  0  0  0  0  0
   26.0304  -16.4840  -14.8135 N   0  0  0  0  0  0  0  0  0  0  0  0
   26.0151  -18.8462  -14.9959 C   0  0  0  0  0  0  0  0  0  0  0  0
   26.0985  -19.9549  -15.5922 O   0  0  0  0  0  0  0  0  0  0  0  0
   26.1373  -19.5673   -8.7605 C   0  0  0  0  0  0  0  0  0  0  0  0
   25.3238  -21.1450   -9.1479 S   0  0  0  0  0  0  0  0  0  0  0  0
   24.7784  -21.2010  -10.8691 C   0  0  0  0  0  0  0  0  0  0  0  0
   25.3538  -19.9887  -11.5952 C   0  0  0  0  0  0  0  0  0  0  0  0
   24.9081  -20.0213  -13.0589 C   0  0  2  0  0  0  0  0  0  0  0  0
   25.4452  -18.8538  -13.6946 N   0  0  0  0  0  0  0  0  0  0  0  0
   23.4379  -20.0198  -13.1703 C   0  0  0  0  0  0  0  0  0  0  0  0
   22.7791  -18.9816  -12.8807 O   0  0  0  0  0  0  0  0  0  0  0  0
   21.0770  -23.2112  -15.0412 C   0  0  0  0  0  0  0  0  0  0  0  0
   20.8004  -21.7293  -15.0584 C   0  0  1  0  0  0  0  0  0  0  0  0
   19.3151  -21.5034  -15.2199 C   0  0  0  0  0  0  0  0  0  0  0  0
   21.2437  -21.0364  -13.8098 C   0  0  2  0  0  0  0  0  0  0  0  0
   22.6847  -21.1486  -13.5974 N   0  0  0  0  0  0  0  0  0  0  0  0
   20.5571  -21.6085  -12.6418 C   0  0  0  0  0  0  0  0  0  0  0  0
   20.9706  -22.6556  -12.0838 O   0  0  0  0  0  0  0  0  0  0  0  0
   19.4240  -21.0162  -12.1071 O   0  0  0  0  0  0  0  0  0  0  0  0
  2  1  1  6
  2  3  1  0
  4  2  1  0
  4  6  1  0
  4  5  1  1
  6  7  2  0
  8  9  1  0
 10  9  1  0
 11 10  1  0
 12 11  1  1
 13  6  1  0
 13 12  1  0
 14 12  1  0
 14 20  1  0
 15 14  2  0
 17 16  1  1
 18 17  1  0
 19 21  1  0
 19 20  1  1
 19 17  1  0
 21 23  1  0
 22 21  2  0
M  END
$$$$
