VMV.pdb
     RDKit          3D

 23 22  0  0  1  0  0  0  0  0999 V2000
   25.9994  -17.8409  -15.9917 C   0  0  0  0  0  0  0  0  0  0  0  0
   27.2349  -17.7971  -15.1565 C   0  0  2  0  0  0  0  0  0  0  0  0
   28.3223  -16.9756  -15.8541 C   0  0  0  0  0  0  0  0  0  0  0  0
   27.8354  -19.1623  -14.8985 C   0  0  2  0  0  0  0  0  0  0  0  0
   28.2431  -19.8006  -16.1313 N   0  0  0  0  0  0  0  0  0  0  0  0
   26.9323  -20.0684  -14.1758 C   0  0  0  0  0  0  0  0  0  0  0  0
   26.3296  -21.0095  -14.7613 O   0  0  0  0  0  0  0  0  0  0  0  0
   26.8332  -19.9167   -7.7216 C   0  0  0  0  0  0  0  0  0  0  0  0
   25.3108  -20.8751   -7.9763 S   0  0  0  0  0  0  0  0  0  0  0  0
   25.0842  -21.3036   -9.7165 C   0  0  0  0  0  0  0  0  0  0  0  0
   25.9842  -20.4007  -10.5548 C   0  0  0  0  0  0  0  0  0  0  0  0
   25.7520  -20.6974  -12.0382 C   0  0  2  0  0  0  0  0  0  0  0  0
   26.7002  -19.9207  -12.7821 N   0  0  0  0  0  0  0  0  0  0  0  0
   24.3815  -20.3390  -12.4470 C   0  0  0  0  0  0  0  0  0  0  0  0
   24.0532  -19.1262  -12.5776 O   0  0  0  0  0  0  0  0  0  0  0  0
   21.9969  -22.8265  -14.8388 C   0  0  0  0  0  0  0  0  0  0  0  0
   21.8927  -21.3315  -14.6748 C   0  0  1  0  0  0  0  0  0  0  0  0
   20.5282  -20.8754  -15.1366 C   0  0  0  0  0  0  0  0  0  0  0  0
   22.0796  -20.8831  -13.2606 C   0  0  2  0  0  0  0  0  0  0  0  0
   23.3682  -21.3012  -12.7140 N   0  0  0  0  0  0  0  0  0  0  0  0
   21.0143  -21.4341  -12.4094 C   0  0  0  0  0  0  0  0  0  0  0  0
   21.1953  -22.4648  -11.7141 O   0  0  0  0  0  0  0  0  0  0  0  0
   19.7647  -20.8389  -12.3385 O   0  0  0  0  0  0  0  0  0  0  0  0
  2  1  1  6
  2  3  1  0
  4  2  1  0
  4  6  1  0
  4  5  1  6
  6  7  2  0
  8  9  1  0
 10  9  1  0
 11 10  1  0
 12 11  1  1
 13  6  1  0
 13 12  1  0
 14 12  1  0
 14 20  1  0
 15 14  2  0
 17 16  1  1
 18 17  1  0
 19 21  1  0
 19 20  1  1
 19 17  1  0
 21 23  1  0
 22 21  2  0
M  END
$$$$
