VMV.pdb
     RDKit          3D

 23 22  0  0  1  0  0  0  0  0999 V2000
   19.6952  -13.2725  -17.9510 C   0  0  0  0  0  0  0  0  0  0  0  0
   18.3570  -12.6999  -17.6235 C   0  0  2  0  0  0  0  0  0  0  0  0
   17.3848  -12.9155  -18.7865 C   0  0  0  0  0  0  0  0  0  0  0  0
   18.3870  -11.2084  -17.3675 C   0  0  2  0  0  0  0  0  0  0  0  0
   18.6174  -10.4682  -18.5891 N   0  0  0  0  0  0  0  0  0  0  0  0
   19.3960  -10.8081  -16.3773 C   0  0  0  0  0  0  0  0  0  0  0  0
   19.3751  -11.2475  -15.1948 O   0  0  0  0  0  0  0  0  0  0  0  0
   26.7595  -10.2203  -14.6142 C   0  0  0  0  0  0  0  0  0  0  0  0
   25.4002  -10.5642  -15.7697 S   0  0  0  0  0  0  0  0  0  0  0  0
   23.8690   -9.7622  -15.2447 C   0  0  0  0  0  0  0  0  0  0  0  0
   22.7732  -10.1168  -16.2454 C   0  0  0  0  0  0  0  0  0  0  0  0
   21.4573   -9.4765  -15.7976 C   0  0  2  0  0  0  0  0  0  0  0  0
   20.4407   -9.9058  -16.7129 N   0  0  0  0  0  0  0  0  0  0  0  0
   21.5487   -8.0049  -15.8059 C   0  0  0  0  0  0  0  0  0  0  0  0
   21.8417   -7.3917  -16.8707 O   0  0  0  0  0  0  0  0  0  0  0  0
   19.9949   -3.6438  -14.4978 C   0  0  0  0  0  0  0  0  0  0  0  0
   19.9762   -5.1495  -14.5715 C   0  0  1  0  0  0  0  0  0  0  0  0
   19.1114   -5.5789  -15.7338 C   0  0  0  0  0  0  0  0  0  0  0  0
   21.3356   -5.7436  -14.7582 C   0  0  2  0  0  0  0  0  0  0  0  0
   21.3209   -7.2007  -14.6547 N   0  0  0  0  0  0  0  0  0  0  0  0
   22.2624   -5.2163  -13.7453 C   0  0  0  0  0  0  0  0  0  0  0  0
   22.5131   -5.8504  -12.6900 O   0  0  0  0  0  0  0  0  0  0  0  0
   22.8987   -3.9965  -13.9124 O   0  0  0  0  0  0  0  0  0  0  0  0
  2  1  1  6
  2  3  1  0
  4  2  1  0
  4  6  1  0
  4  5  1  6
  6  7  2  0
  8  9  1  0
 10  9  1  0
 11 10  1  0
 12 11  1  6
 13  6  1  0
 13 12  1  0
 14 12  1  0
 14 20  1  0
 15 14  2  0
 17 16  1  6
 18 17  1  0
 19 21  1  0
 19 20  1  1
 19 17  1  0
 21 23  1  0
 22 21  2  0
M  END
$$$$
