VMV.pdb
     RDKit          3D

 23 22  0  0  1  0  0  0  0  0999 V2000
   28.7542  -20.9337  -14.6355 C   0  0  0  0  0  0  0  0  0  0  0  0
   28.2556  -20.2504  -13.4065 C   0  0  2  0  0  0  0  0  0  0  0  0
   29.1909  -20.5254  -12.2259 C   0  0  0  0  0  0  0  0  0  0  0  0
   26.8812  -20.7152  -12.9753 C   0  0  2  0  0  0  0  0  0  0  0  0
   25.9017  -20.5045  -14.0190 N   0  0  0  0  0  0  0  0  0  0  0  0
   26.4062  -20.0655  -11.7460 C   0  0  0  0  0  0  0  0  0  0  0  0
   26.2509  -18.8155  -11.6745 O   0  0  0  0  0  0  0  0  0  0  0  0
   21.0322  -20.4872   -8.3510 C   0  0  0  0  0  0  0  0  0  0  0  0
   21.6071  -20.6547  -10.0665 S   0  0  0  0  0  0  0  0  0  0  0  0
   23.3007  -20.0556  -10.2563 C   0  0  0  0  0  0  0  0  0  0  0  0
   24.1664  -20.7151   -9.1868 C   0  0  0  0  0  0  0  0  0  0  0  0
   25.6157  -20.2546   -9.3591 C   0  0  2  0  0  0  0  0  0  0  0  0
   26.1012  -20.8221  -10.5830 N   0  0  0  0  0  0  0  0  0  0  0  0
   26.4560  -20.7011   -8.2328 C   0  0  0  0  0  0  0  0  0  0  0  0
   26.8884  -21.8874   -8.1930 O   0  0  0  0  0  0  0  0  0  0  0  0
   29.6014  -18.8835   -6.5434 C   0  0  0  0  0  0  0  0  0  0  0  0
   28.5910  -19.3439   -5.5236 C   0  0  1  0  0  0  0  0  0  0  0  0
   27.7793  -18.1573   -5.0584 C   0  0  0  0  0  0  0  0  0  0  0  0
   27.6471  -20.3731   -6.0578 C   0  0  2  0  0  0  0  0  0  0  0  0
   26.8259  -19.8560   -7.1499 N   0  0  0  0  0  0  0  0  0  0  0  0
   26.7535  -20.8445   -4.9890 C   0  0  0  0  0  0  0  0  0  0  0  0
   25.5169  -20.6244   -5.0211 O   0  0  0  0  0  0  0  0  0  0  0  0
   27.2385  -21.5518   -3.9003 O   0  0  0  0  0  0  0  0  0  0  0  0
  2  1  1  6
  2  3  1  0
  4  2  1  0
  4  6  1  0
  4  5  1  6
  6  7  2  0
  8  9  1  0
 10  9  1  0
 11 10  1  0
 12 11  1  1
 13  6  1  0
 13 12  1  0
 14 12  1  0
 14 20  1  0
 15 14  2  0
 17 16  1  6
 18 17  1  0
 19 21  1  0
 19 20  1  6
 19 17  1  0
 21 23  1  0
 22 21  2  0
M  END
$$$$
