VMV.pdb
     RDKit          3D

 23 22  0  0  1  0  0  0  0  0999 V2000
   28.7206  -19.0271  -14.1734 C   0  0  0  0  0  0  0  0  0  0  0  0
   28.0730  -20.2508  -13.6172 C   0  0  2  0  0  0  0  0  0  0  0  0
   28.2560  -21.4331  -14.5727 C   0  0  0  0  0  0  0  0  0  0  0  0
   26.5812  -20.1007  -13.4099 C   0  0  2  0  0  0  0  0  0  0  0  0
   26.1996  -18.7084  -13.3142 N   0  0  0  0  0  0  0  0  0  0  0  0
   26.0846  -20.8075  -12.2214 C   0  0  0  0  0  0  0  0  0  0  0  0
   26.1032  -22.0666  -12.1430 O   0  0  0  0  0  0  0  0  0  0  0  0
   26.7567  -19.0383   -6.0867 C   0  0  0  0  0  0  0  0  0  0  0  0
   27.9461  -19.8974   -7.1584 S   0  0  0  0  0  0  0  0  0  0  0  0
   27.1178  -20.7193   -8.5374 C   0  0  0  0  0  0  0  0  0  0  0  0
   25.7469  -20.0768   -8.7264 C   0  0  0  0  0  0  0  0  0  0  0  0
   25.0487  -20.7253   -9.9239 C   0  0  2  0  0  0  0  0  0  0  0  0
   25.5609  -20.0985  -11.1074 N   0  0  0  0  0  0  0  0  0  0  0  0
   23.5872  -20.5429   -9.8540 C   0  0  0  0  0  0  0  0  0  0  0  0
   23.0800  -19.3988  -10.0259 O   0  0  0  0  0  0  0  0  0  0  0  0
   21.0359  -21.1632  -12.0273 C   0  0  0  0  0  0  0  0  0  0  0  0
   20.5312  -21.8194  -10.7673 C   0  0  1  0  0  0  0  0  0  0  0  0
   20.7190  -23.3147  -10.8768 C   0  0  0  0  0  0  0  0  0  0  0  0
   21.2408  -21.3497   -9.5379 C   0  0  2  0  0  0  0  0  0  0  0  0
   22.6778  -21.6062   -9.5972 N   0  0  0  0  0  0  0  0  0  0  0  0
   20.6979  -22.0260   -8.3500 C   0  0  0  0  0  0  0  0  0  0  0  0
   21.3896  -22.8320   -7.6788 O   0  0  0  0  0  0  0  0  0  0  0  0
   19.3993  -21.8024   -7.9208 O   0  0  0  0  0  0  0  0  0  0  0  0
  2  1  1  6
  2  3  1  0
  4  2  1  0
  4  6  1  0
  4  5  1  1
  6  7  2  0
  8  9  1  0
 10  9  1  0
 11 10  1  0
 12 11  1  1
 13  6  1  0
 13 12  1  0
 14 12  1  0
 14 20  1  0
 15 14  2  0
 17 16  1  6
 18 17  1  0
 19 21  1  0
 19 20  1  6
 19 17  1  0
 21 23  1  0
 22 21  2  0
M  END
$$$$
