VMV.pdb
     RDKit          3D

 23 22  0  0  1  0  0  0  0  0999 V2000
   28.6387  -18.5363  -14.9348 C   0  0  0  0  0  0  0  0  0  0  0  0
   27.7528  -17.9687  -15.9927 C   0  0  2  0  0  0  0  0  0  0  0  0
   28.2452  -16.5814  -16.4138 C   0  0  0  0  0  0  0  0  0  0  0  0
   26.3181  -17.7908  -15.5442 C   0  0  2  0  0  0  0  0  0  0  0  0
   26.1741  -16.6376  -14.6825 N   0  0  0  0  0  0  0  0  0  0  0  0
   25.7750  -18.9669  -14.8511 C   0  0  0  0  0  0  0  0  0  0  0  0
   25.6360  -20.0759  -15.4365 O   0  0  0  0  0  0  0  0  0  0  0  0
   26.9428  -20.6475   -8.7320 C   0  0  0  0  0  0  0  0  0  0  0  0
   25.1391  -20.8574   -8.7914 S   0  0  0  0  0  0  0  0  0  0  0  0
   24.5435  -20.9688  -10.4932 C   0  0  0  0  0  0  0  0  0  0  0  0
   25.1886  -19.8478  -11.3025 C   0  0  0  0  0  0  0  0  0  0  0  0
   24.7825  -19.9904  -12.7712 C   0  0  2  0  0  0  0  0  0  0  0  0
   25.3824  -18.9027  -13.4873 N   0  0  0  0  0  0  0  0  0  0  0  0
   23.3171  -19.9445  -12.9277 C   0  0  0  0  0  0  0  0  0  0  0  0
   22.6778  -18.8973  -12.6269 O   0  0  0  0  0  0  0  0  0  0  0  0
   21.2553  -20.3789  -16.0219 C   0  0  0  0  0  0  0  0  0  0  0  0
   20.6571  -21.2662  -14.9600 C   0  0  1  0  0  0  0  0  0  0  0  0
   21.0575  -22.6986  -15.2264 C   0  0  0  0  0  0  0  0  0  0  0  0
   21.1022  -20.9075  -13.5783 C   0  0  2  0  0  0  0  0  0  0  0  0
   22.5477  -21.0386  -13.4119 N   0  0  0  0  0  0  0  0  0  0  0  0
   20.4415  -21.7755  -12.5919 C   0  0  0  0  0  0  0  0  0  0  0  0
   21.0461  -22.7349  -12.0509 O   0  0  0  0  0  0  0  0  0  0  0  0
   19.1229  -21.5715  -12.2172 O   0  0  0  0  0  0  0  0  0  0  0  0
  2  1  1  1
  2  3  1  0
  4  2  1  0
  4  6  1  0
  4  5  1  1
  6  7  2  0
  8  9  1  0
 10  9  1  0
 11 10  1  0
 12 11  1  1
 13  6  1  0
 13 12  1  0
 14 12  1  0
 14 20  1  0
 15 14  2  0
 17 16  1  6
 18 17  1  0
 19 21  1  0
 19 20  1  6
 19 17  1  0
 21 23  1  0
 22 21  2  0
M  END
$$$$
