VMV.pdb
     RDKit          3D

 23 22  0  0  1  0  0  0  0  0999 V2000
   25.3232  -35.3906  -13.6767 C   0  0  0  0  0  0  0  0  0  0  0  0
   24.4136  -34.2080  -13.6796 C   0  0  2  0  0  0  0  0  0  0  0  0
   24.4918  -33.4774  -15.0229 C   0  0  0  0  0  0  0  0  0  0  0  0
   24.7557  -33.1832  -12.6195 C   0  0  2  0  0  0  0  0  0  0  0  0
   25.9900  -32.4952  -12.9300 N   0  0  0  0  0  0  0  0  0  0  0  0
   24.8622  -33.7549  -11.2702 C   0  0  0  0  0  0  0  0  0  0  0  0
   23.9882  -34.5414  -10.8127 O   0  0  0  0  0  0  0  0  0  0  0  0
   30.4017  -35.3801   -7.3809 C   0  0  0  0  0  0  0  0  0  0  0  0
   29.4564  -33.9566   -6.7634 S   0  0  0  0  0  0  0  0  0  0  0  0
   27.7058  -34.0930   -7.1874 C   0  0  0  0  0  0  0  0  0  0  0  0
   27.5198  -33.6091   -8.6224 C   0  0  0  0  0  0  0  0  0  0  0  0
   26.0874  -33.9072   -9.0716 C   0  0  2  0  0  0  0  0  0  0  0  0
   25.9586  -33.4436  -10.4223 N   0  0  0  0  0  0  0  0  0  0  0  0
   25.1041  -33.2230   -8.2120 C   0  0  0  0  0  0  0  0  0  0  0  0
   24.9935  -31.9652   -8.2486 O   0  0  0  0  0  0  0  0  0  0  0  0
   21.9048  -35.1996   -5.8923 C   0  0  0  0  0  0  0  0  0  0  0  0
   21.8918  -33.8701   -6.6031 C   0  0  1  0  0  0  0  0  0  0  0  0
   20.8722  -32.9672   -5.9486 C   0  0  0  0  0  0  0  0  0  0  0  0
   23.2161  -33.1765   -6.5719 C   0  0  2  0  0  0  0  0  0  0  0  0
   24.2408  -33.9083   -7.3126 N   0  0  0  0  0  0  0  0  0  0  0  0
   23.6725  -33.0181   -5.1828 C   0  0  0  0  0  0  0  0  0  0  0  0
   24.6222  -33.6990   -4.7211 O   0  0  0  0  0  0  0  0  0  0  0  0
   23.0736  -32.1102   -4.3238 O   0  0  0  0  0  0  0  0  0  0  0  0
  2  1  1  6
  2  3  1  0
  4  2  1  0
  4  6  1  0
  4  5  1  6
  6  7  2  0
  8  9  1  0
 10  9  1  0
 11 10  1  0
 12 11  1  1
 13  6  1  0
 13 12  1  0
 14 12  1  0
 14 20  1  0
 15 14  2  0
 17 16  1  1
 18 17  1  0
 19 21  1  0
 19 20  1  6
 19 17  1  0
 21 23  1  0
 22 21  2  0
M  END
$$$$
