VMV.pdb
     RDKit          3D

 23 22  0  0  1  0  0  0  0  0999 V2000
   17.9551  -25.7731   -2.5077 C   0  0  0  0  0  0  0  0  0  0  0  0
   16.7515  -26.4716   -3.0458 C   0  0  2  0  0  0  0  0  0  0  0  0
   17.1679  -27.5986   -3.9948 C   0  0  0  0  0  0  0  0  0  0  0  0
   15.8352  -25.5658   -3.8401 C   0  0  2  0  0  0  0  0  0  0  0  0
   16.4925  -25.0587   -5.0250 N   0  0  0  0  0  0  0  0  0  0  0  0
   15.3237  -24.4288   -3.0627 C   0  0  0  0  0  0  0  0  0  0  0  0
   15.5878  -23.2366   -3.3799 O   0  0  0  0  0  0  0  0  0  0  0  0
    9.0999  -22.1357    1.0756 C   0  0  0  0  0  0  0  0  0  0  0  0
   10.1121  -23.4766    0.3837 S   0  0  0  0  0  0  0  0  0  0  0  0
   11.7454  -22.8831   -0.1097 C   0  0  0  0  0  0  0  0  0  0  0  0
   12.4619  -24.0082   -0.8505 C   0  0  0  0  0  0  0  0  0  0  0  0
   13.8902  -23.5656   -1.1764 C   0  0  2  0  0  0  0  0  0  0  0  0
   14.5073  -24.6268   -1.9171 N   0  0  0  0  0  0  0  0  0  0  0  0
   14.6609  -23.2992    0.0521 C   0  0  0  0  0  0  0  0  0  0  0  0
   15.2197  -24.2482    0.6708 O   0  0  0  0  0  0  0  0  0  0  0  0
   17.2983  -20.3468    0.4130 C   0  0  0  0  0  0  0  0  0  0  0  0
   16.4401  -20.4733    1.6460 C   0  0  1  0  0  0  0  0  0  0  0  0
   15.4018  -19.3755    1.6429 C   0  0  0  0  0  0  0  0  0  0  0  0
   15.7296  -21.7860    1.7328 C   0  0  2  0  0  0  0  0  0  0  0  0
   14.8234  -21.9995    0.6070 N   0  0  0  0  0  0  0  0  0  0  0  0
   14.9483  -21.8580    2.9767 C   0  0  0  0  0  0  0  0  0  0  0  0
   13.6932  -21.7989    2.9692 O   0  0  0  0  0  0  0  0  0  0  0  0
   15.5642  -21.9940    4.2108 O   0  0  0  0  0  0  0  0  0  0  0  0
  2  1  1  6
  2  3  1  0
  4  2  1  0
  4  6  1  0
  4  5  1  6
  6  7  2  0
  8  9  1  0
 10  9  1  0
 11 10  1  0
 12 11  1  1
 13  6  1  0
 13 12  1  0
 14 12  1  0
 14 20  1  0
 15 14  2  0
 17 16  1  6
 18 17  1  0
 19 21  1  0
 19 20  1  6
 19 17  1  0
 21 23  1  0
 22 21  2  0
M  END
$$$$
