VMV.pdb
     RDKit          3D

 23 22  0  0  1  0  0  0  0  0999 V2000
   28.2858  -18.4860  -19.0576 C   0  0  0  0  0  0  0  0  0  0  0  0
   27.8264  -19.4385  -18.0051 C   0  0  2  0  0  0  0  0  0  0  0  0
   26.3624  -19.8229  -18.2350 C   0  0  0  0  0  0  0  0  0  0  0  0
   27.8999  -18.8688  -16.6047 C   0  0  2  0  0  0  0  0  0  0  0  0
   29.1184  -18.1146  -16.4054 N   0  0  0  0  0  0  0  0  0  0  0  0
   27.8025  -19.8916  -15.5544 C   0  0  0  0  0  0  0  0  0  0  0  0
   26.9458  -20.8164  -15.6071 O   0  0  0  0  0  0  0  0  0  0  0  0
   32.5193  -22.3590  -11.2067 C   0  0  0  0  0  0  0  0  0  0  0  0
   31.2370  -21.4317  -10.3140 S   0  0  0  0  0  0  0  0  0  0  0  0
   29.6631  -21.4623  -11.1999 C   0  0  0  0  0  0  0  0  0  0  0  0
   29.8224  -20.6639  -12.4903 C   0  0  0  0  0  0  0  0  0  0  0  0
   28.5150  -20.7245  -13.2835 C   0  0  2  0  0  0  0  0  0  0  0  0
   28.6730  -19.8806  -14.4318 N   0  0  0  0  0  0  0  0  0  0  0  0
   27.3755  -20.2576  -12.4726 C   0  0  0  0  0  0  0  0  0  0  0  0
   27.2137  -19.0241  -12.2536 O   0  0  0  0  0  0  0  0  0  0  0  0
   22.8017  -20.4407  -10.9244 C   0  0  0  0  0  0  0  0  0  0  0  0
   23.9699  -20.9846  -11.7070 C   0  0  1  0  0  0  0  0  0  0  0  0
   23.9043  -20.4629  -13.1236 C   0  0  0  0  0  0  0  0  0  0  0  0
   25.2932  -20.5971  -11.1288 C   0  0  2  0  0  0  0  0  0  0  0  0
   26.4118  -21.1337  -11.9003 N   0  0  0  0  0  0  0  0  0  0  0  0
   25.4057  -21.0877   -9.7470 C   0  0  0  0  0  0  0  0  0  0  0  0
   26.0370  -22.1387   -9.4717 O   0  0  0  0  0  0  0  0  0  0  0  0
   24.8193  -20.4109   -8.6892 O   0  0  0  0  0  0  0  0  0  0  0  0
  2  1  1  6
  2  3  1  0
  4  2  1  0
  4  6  1  0
  4  5  1  6
  6  7  2  0
  8  9  1  0
 10  9  1  0
 11 10  1  0
 12 11  1  1
 13  6  1  0
 13 12  1  0
 14 12  1  0
 14 20  1  0
 15 14  2  0
 17 16  1  1
 18 17  1  0
 19 21  1  0
 19 20  1  6
 19 17  1  0
 21 23  1  0
 22 21  2  0
M  END
$$$$
