VMV.pdb
     RDKit          3D

 23 22  0  0  1  0  0  0  0  0999 V2000
   15.5489  -14.5973  -17.8850 C   0  0  0  0  0  0  0  0  0  0  0  0
   16.5918  -15.4711  -17.2726 C   0  0  2  0  0  0  0  0  0  0  0  0
   15.9467  -16.7001  -16.6264 C   0  0  0  0  0  0  0  0  0  0  0  0
   17.3855  -14.7859  -16.1810 C   0  0  2  0  0  0  0  0  0  0  0  0
   16.6241  -14.6936  -14.9542 N   0  0  0  0  0  0  0  0  0  0  0  0
   17.8447  -13.4405  -16.5522 C   0  0  0  0  0  0  0  0  0  0  0  0
   18.5918  -13.2470  -17.5503 O   0  0  0  0  0  0  0  0  0  0  0  0
   14.2020   -8.4255  -17.5599 C   0  0  0  0  0  0  0  0  0  0  0  0
   15.4344   -7.6760  -16.4551 S   0  0  0  0  0  0  0  0  0  0  0  0
   16.9553   -8.6495  -16.4061 C   0  0  0  0  0  0  0  0  0  0  0  0
   16.5940  -10.0874  -16.0456 C   0  0  0  0  0  0  0  0  0  0  0  0
   17.8518  -10.9559  -16.1222 C   0  0  2  0  0  0  0  0  0  0  0  0
   17.4641  -12.2979  -15.7988 N   0  0  0  0  0  0  0  0  0  0  0  0
   18.8814  -10.4906  -15.1748 C   0  0  0  0  0  0  0  0  0  0  0  0
   18.7196  -10.6477  -13.9319 O   0  0  0  0  0  0  0  0  0  0  0  0
   23.5219   -9.7775  -13.9502 C   0  0  0  0  0  0  0  0  0  0  0  0
   22.4302  -10.1598  -14.9171 C   0  0  1  0  0  0  0  0  0  0  0  0
   22.2475  -11.6595  -14.8919 C   0  0  0  0  0  0  0  0  0  0  0  0
   21.1150   -9.5250  -14.5960 C   0  0  2  0  0  0  0  0  0  0  0  0
   20.0873   -9.8545  -15.5806 N   0  0  0  0  0  0  0  0  0  0  0  0
   21.2572   -8.0621  -14.5462 C   0  0  0  0  0  0  0  0  0  0  0  0
   21.0747   -7.3487  -15.5643 O   0  0  0  0  0  0  0  0  0  0  0  0
   21.5989   -7.4081  -13.3730 O   0  0  0  0  0  0  0  0  0  0  0  0
  2  1  1  1
  2  3  1  0
  4  2  1  0
  4  6  1  0
  4  5  1  1
  6  7  2  0
  8  9  1  0
 10  9  1  0
 11 10  1  0
 12 11  1  1
 13  6  1  0
 13 12  1  0
 14 12  1  0
 14 20  1  0
 15 14  2  0
 17 16  1  1
 18 17  1  0
 19 21  1  0
 19 20  1  6
 19 17  1  0
 21 23  1  0
 22 21  2  0
M  END
$$$$
