VMV.pdb
     RDKit          3D

 23 22  0  0  1  0  0  0  0  0999 V2000
   28.8063  -21.4771  -14.3996 C   0  0  0  0  0  0  0  0  0  0  0  0
   28.2083  -20.9024  -15.6398 C   0  0  2  0  0  0  0  0  0  0  0  0
   29.1811  -19.9186  -16.2955 C   0  0  0  0  0  0  0  0  0  0  0  0
   26.9301  -20.1312  -15.3898 C   0  0  2  0  0  0  0  0  0  0  0  0
   27.1979  -18.8567  -14.7596 N   0  0  0  0  0  0  0  0  0  0  0  0
   25.9576  -20.8665  -14.5699 C   0  0  0  0  0  0  0  0  0  0  0  0
   25.5914  -22.0370  -14.8660 O   0  0  0  0  0  0  0  0  0  0  0  0
   25.1215  -20.7918   -7.9152 C   0  0  0  0  0  0  0  0  0  0  0  0
   26.5569  -20.6247   -9.0166 S   0  0  0  0  0  0  0  0  0  0  0  0
   26.1647  -21.1583  -10.6972 C   0  0  0  0  0  0  0  0  0  0  0  0
   24.8276  -20.5419  -11.0974 C   0  0  0  0  0  0  0  0  0  0  0  0
   24.4843  -20.9701  -12.5261 C   0  0  2  0  0  0  0  0  0  0  0  0
   25.3876  -20.2865  -13.4051 N   0  0  0  0  0  0  0  0  0  0  0  0
   23.0932  -20.6219  -12.8690 C   0  0  0  0  0  0  0  0  0  0  0  0
   22.7416  -19.4112  -12.9485 O   0  0  0  0  0  0  0  0  0  0  0  0
   21.2427  -21.6374  -16.0085 C   0  0  0  0  0  0  0  0  0  0  0  0
   20.3457  -21.9096  -14.8277 C   0  0  1  0  0  0  0  0  0  0  0  0
   20.3598  -23.3897  -14.5243 C   0  0  0  0  0  0  0  0  0  0  0  0
   20.7643  -21.1772  -13.5932 C   0  0  2  0  0  0  0  0  0  0  0  0
   22.0848  -21.5918  -13.1256 N   0  0  0  0  0  0  0  0  0  0  0  0
   19.7952  -21.4111  -12.5121 C   0  0  0  0  0  0  0  0  0  0  0  0
   20.0659  -22.1544  -11.5358 O   0  0  0  0  0  0  0  0  0  0  0  0
   18.5412  -20.8212  -12.5246 O   0  0  0  0  0  0  0  0  0  0  0  0
  2  1  1  1
  2  3  1  0
  4  2  1  0
  4  6  1  0
  4  5  1  1
  6  7  2  0
  8  9  1  0
 10  9  1  0
 11 10  1  0
 12 11  1  1
 13  6  1  0
 13 12  1  0
 14 12  1  0
 14 20  1  0
 15 14  2  0
 17 16  1  6
 18 17  1  0
 19 21  1  0
 19 20  1  1
 19 17  1  0
 21 23  1  0
 22 21  2  0
M  END
$$$$
