VMV.pdb
     RDKit          3D

 23 22  0  0  1  0  0  0  0  0999 V2000
   29.2541  -20.0226  -14.6788 C   0  0  0  0  0  0  0  0  0  0  0  0
   28.3679  -19.7000  -15.8350 C   0  0  2  0  0  0  0  0  0  0  0  0
   28.9950  -18.6020  -16.6984 C   0  0  0  0  0  0  0  0  0  0  0  0
   27.0042  -19.1883  -15.4234 C   0  0  2  0  0  0  0  0  0  0  0  0
   27.1000  -17.9046  -14.7629 N   0  0  0  0  0  0  0  0  0  0  0  0
   26.2749  -20.1150  -14.5470 C   0  0  0  0  0  0  0  0  0  0  0  0
   25.9078  -21.2543  -14.9460 O   0  0  0  0  0  0  0  0  0  0  0  0
   26.8781  -19.9031   -8.1712 C   0  0  0  0  0  0  0  0  0  0  0  0
   25.1976  -20.5904   -8.2407 S   0  0  0  0  0  0  0  0  0  0  0  0
   24.7494  -21.0687   -9.9240 C   0  0  0  0  0  0  0  0  0  0  0  0
   25.5677  -20.2254  -10.8972 C   0  0  0  0  0  0  0  0  0  0  0  0
   25.1664  -20.5810  -12.3306 C   0  0  2  0  0  0  0  0  0  0  0  0
   25.9522  -19.7642  -13.2088 N   0  0  0  0  0  0  0  0  0  0  0  0
   23.7323  -20.3288  -12.5627 C   0  0  0  0  0  0  0  0  0  0  0  0
   23.2937  -19.1450  -12.6070 O   0  0  0  0  0  0  0  0  0  0  0  0
   19.6108  -21.3978  -14.8527 C   0  0  0  0  0  0  0  0  0  0  0  0
   21.0529  -21.6231  -14.4754 C   0  0  1  0  0  0  0  0  0  0  0  0
   21.9438  -20.9863  -15.5165 C   0  0  0  0  0  0  0  0  0  0  0  0
   21.4068  -21.0442  -13.1429 C   0  0  2  0  0  0  0  0  0  0  0  0
   22.7758  -21.3655  -12.7467 N   0  0  0  0  0  0  0  0  0  0  0  0
   20.4933  -21.5552  -12.1098 C   0  0  0  0  0  0  0  0  0  0  0  0
   19.3049  -21.1555  -12.0269 O   0  0  0  0  0  0  0  0  0  0  0  0
   20.9052  -22.4998  -11.1831 O   0  0  0  0  0  0  0  0  0  0  0  0
  2  1  1  1
  2  3  1  0
  4  2  1  0
  4  6  1  0
  4  5  1  1
  6  7  2  0
  8  9  1  0
 10  9  1  0
 11 10  1  0
 12 11  1  1
 13  6  1  0
 13 12  1  0
 14 12  1  0
 14 20  1  0
 15 14  2  0
 17 16  1  6
 18 17  1  0
 19 21  1  0
 19 20  1  1
 19 17  1  0
 21 23  1  0
 22 21  2  0
M  END
$$$$
