VMV.pdb
     RDKit          3D

 23 22  0  0  1  0  0  0  0  0999 V2000
   15.3427  -15.1013  -16.5095 C   0  0  0  0  0  0  0  0  0  0  0  0
   16.6954  -15.4992  -16.9970 C   0  0  2  0  0  0  0  0  0  0  0  0
   17.0710  -16.8829  -16.4599 C   0  0  0  0  0  0  0  0  0  0  0  0
   17.7956  -14.5594  -16.5526 C   0  0  2  0  0  0  0  0  0  0  0  0
   18.0226  -14.6502  -15.1266 N   0  0  0  0  0  0  0  0  0  0  0  0
   17.5370  -13.1553  -16.8995 C   0  0  0  0  0  0  0  0  0  0  0  0
   17.4860  -12.7674  -18.0990 O   0  0  0  0  0  0  0  0  0  0  0  0
   12.9386  -10.3771  -14.5340 C   0  0  0  0  0  0  0  0  0  0  0  0
   13.2261   -9.9389  -16.2737 S   0  0  0  0  0  0  0  0  0  0  0  0
   14.8499  -10.4968  -16.8350 C   0  0  0  0  0  0  0  0  0  0  0  0
   15.8416  -10.3190  -15.6893 C   0  0  0  0  0  0  0  0  0  0  0  0
   17.2299  -10.7666  -16.1523 C   0  0  2  0  0  0  0  0  0  0  0  0
   17.3331  -12.1731  -15.8936 N   0  0  0  0  0  0  0  0  0  0  0  0
   18.2932  -10.0456  -15.4287 C   0  0  0  0  0  0  0  0  0  0  0  0
   18.5065  -10.2855  -14.2069 O   0  0  0  0  0  0  0  0  0  0  0  0
   22.6157   -7.7935  -15.2224 C   0  0  0  0  0  0  0  0  0  0  0  0
   21.5120   -8.4993  -15.9684 C   0  0  1  0  0  0  0  0  0  0  0  0
   21.8768   -9.9563  -16.1329 C   0  0  0  0  0  0  0  0  0  0  0  0
   20.1925   -8.4257  -15.2690 C   0  0  2  0  0  0  0  0  0  0  0  0
   19.1245   -9.0635  -16.0352 N   0  0  0  0  0  0  0  0  0  0  0  0
   19.8205   -7.0222  -15.0351 C   0  0  0  0  0  0  0  0  0  0  0  0
   19.1347   -6.3765  -15.8665 O   0  0  0  0  0  0  0  0  0  0  0  0
   20.2114   -6.3522  -13.8866 O   0  0  0  0  0  0  0  0  0  0  0  0
  2  1  1  1
  2  3  1  0
  4  2  1  0
  4  6  1  0
  4  5  1  1
  6  7  2  0
  8  9  1  0
 10  9  1  0
 11 10  1  0
 12 11  1  1
 13  6  1  0
 13 12  1  0
 14 12  1  0
 14 20  1  0
 15 14  2  0
 17 16  1  1
 18 17  1  0
 19 21  1  0
 19 20  1  6
 19 17  1  0
 21 23  1  0
 22 21  2  0
M  END
$$$$
