TAP.pdb
     RDKit          3D

 20 20  0  0  1  0  0  0  0  0999 V2000
   24.7677   -9.6018  -14.9923 C   0  0  0  0  0  0  0  0  0  0  0  0
   24.5594  -10.8942  -15.7478 C   0  0  1  0  0  0  0  0  0  0  0  0
   25.6291  -11.7785  -15.5268 O   0  0  0  0  0  0  0  0  0  0  0  0
   23.3254  -11.5598  -15.2230 C   0  0  2  0  0  0  0  0  0  0  0  0
   23.1304  -12.8843  -15.7868 N   0  0  0  0  0  0  0  0  0  0  0  0
   22.1534  -10.6828  -15.5783 C   0  0  0  0  0  0  0  0  0  0  0  0
   21.8184  -10.5208  -16.7785 O   0  0  0  0  0  0  0  0  0  0  0  0
   19.2096   -9.2283  -13.8077 C   0  0  0  0  0  0  0  0  0  0  0  0
   20.2048   -9.2561  -14.9392 C   0  0  2  0  0  0  0  0  0  0  0  0
   21.3886  -10.0115  -14.5873 N   0  0  0  0  0  0  0  0  0  0  0  0
   20.5607   -7.9078  -15.4250 C   0  0  0  0  0  0  0  0  0  0  0  0
   21.5908   -7.3857  -14.9279 O   0  0  0  0  0  0  0  0  0  0  0  0
   19.8090   -7.2041  -16.3987 N   0  0  0  0  0  0  0  0  0  0  0  0
   18.6439   -7.7187  -17.0955 C   0  0  0  0  0  0  0  0  0  0  0  0
   18.5367   -6.8826  -18.3720 C   0  0  0  0  0  0  0  0  0  0  0  0
   19.0213   -5.5436  -17.8827 C   0  0  0  0  0  0  0  0  0  0  0  0
   20.0572   -5.8766  -16.8678 C   0  0  1  0  0  0  0  0  0  0  0  0
   20.0205   -4.8625  -15.7992 C   0  0  0  0  0  0  0  0  0  0  0  0
   19.4980   -5.0985  -14.6839 O   0  0  0  0  0  0  0  0  0  0  0  0
   20.5717   -3.6248  -16.0256 O   0  0  0  0  0  0  0  0  0  0  0  0
  2  1  1  1
  3  2  1  0
  4  6  1  0
  4  2  1  0
  4  5  1  6
  6 10  1  0
  7  6  2  0
  9  8  1  1
  9 11  1  0
 10  9  1  0
 11 13  1  0
 11 12  2  0
 13 17  1  0
 14 15  1  0
 14 13  1  0
 15 16  1  0
 16 17  1  0
 17 18  1  1
 18 19  2  0
 18 20  1  0
M  END
$$$$
