TAP.pdb
     RDKit          3D

 20 20  0  0  1  0  0  0  0  0999 V2000
   20.4651  -16.0924  -17.8870 C   0  0  0  0  0  0  0  0  0  0  0  0
   19.1381  -15.9291  -17.1823 C   0  0  1  0  0  0  0  0  0  0  0  0
   18.6814  -17.1628  -16.6876 O   0  0  0  0  0  0  0  0  0  0  0  0
   19.3326  -15.0289  -16.0019 C   0  0  2  0  0  0  0  0  0  0  0  0
   18.1318  -14.9126  -15.1927 N   0  0  0  0  0  0  0  0  0  0  0  0
   19.7197  -13.6717  -16.5280 C   0  0  0  0  0  0  0  0  0  0  0  0
   20.8046  -13.5107  -17.1413 O   0  0  0  0  0  0  0  0  0  0  0  0
   18.1105  -10.4868  -17.4413 C   0  0  0  0  0  0  0  0  0  0  0  0
   19.2828  -11.2345  -16.8597 C   0  0  2  0  0  0  0  0  0  0  0  0
   18.8880  -12.5331  -16.3562 N   0  0  0  0  0  0  0  0  0  0  0  0
   20.0027  -10.4617  -15.8277 C   0  0  0  0  0  0  0  0  0  0  0  0
   19.7454  -10.7476  -14.6307 O   0  0  0  0  0  0  0  0  0  0  0  0
   20.9420   -9.4435  -16.1269 N   0  0  0  0  0  0  0  0  0  0  0  0
   21.3538   -9.0444  -17.4606 C   0  0  0  0  0  0  0  0  0  0  0  0
   22.7120   -8.3653  -17.2760 C   0  0  0  0  0  0  0  0  0  0  0  0
   22.5230   -7.6985  -15.9392 C   0  0  0  0  0  0  0  0  0  0  0  0
   21.6473   -8.6340  -15.1829 C   0  0  1  0  0  0  0  0  0  0  0  0
   20.7594   -7.8511  -14.3053 C   0  0  0  0  0  0  0  0  0  0  0  0
   21.1132   -7.4982  -13.1551 O   0  0  0  0  0  0  0  0  0  0  0  0
   19.5107   -7.4958  -14.7540 O   0  0  0  0  0  0  0  0  0  0  0  0
  2  1  1  1
  3  2  1  0
  4  6  1  0
  4  2  1  0
  4  5  1  6
  6 10  1  0
  7  6  2  0
  9  8  1  1
  9 11  1  0
 10  9  1  0
 11 13  1  0
 11 12  2  0
 13 17  1  0
 14 15  1  0
 14 13  1  0
 15 16  1  0
 16 17  1  0
 17 18  1  6
 18 19  2  0
 18 20  1  0
M  END
$$$$
