TAP.pdb
     RDKit          3D

 20 20  0  0  1  0  0  0  0  0999 V2000
   25.6734  -22.6778  -17.9439 C   0  0  0  0  0  0  0  0  0  0  0  0
   26.4900  -21.6081  -18.6318 C   0  0  1  0  0  0  0  0  0  0  0  0
   26.7566  -21.9648  -19.9648 O   0  0  0  0  0  0  0  0  0  0  0  0
   25.6871  -20.3450  -18.6687 C   0  0  2  0  0  0  0  0  0  0  0  0
   26.3549  -19.2879  -19.4080 N   0  0  0  0  0  0  0  0  0  0  0  0
   25.4711  -19.9056  -17.2443 C   0  0  0  0  0  0  0  0  0  0  0  0
   26.3984  -19.3561  -16.5984 O   0  0  0  0  0  0  0  0  0  0  0  0
   22.5890  -19.1767  -15.0170 C   0  0  0  0  0  0  0  0  0  0  0  0
   24.0190  -19.5998  -15.2345 C   0  0  2  0  0  0  0  0  0  0  0  0
   24.2292  -20.0907  -16.5801 N   0  0  0  0  0  0  0  0  0  0  0  0
   24.4875  -20.5789  -14.2333 C   0  0  0  0  0  0  0  0  0  0  0  0
   24.2779  -21.7912  -14.4927 O   0  0  0  0  0  0  0  0  0  0  0  0
   25.1430  -20.2146  -13.0308 N   0  0  0  0  0  0  0  0  0  0  0  0
   25.5445  -18.8679  -12.6663 C   0  0  0  0  0  0  0  0  0  0  0  0
   26.6518  -19.0459  -11.6260 C   0  0  0  0  0  0  0  0  0  0  0  0
   26.1797  -20.2832  -10.9094 C   0  0  0  0  0  0  0  0  0  0  0  0
   25.5246  -21.0946  -11.9707 C   0  0  1  0  0  0  0  0  0  0  0  0
   24.3892  -21.8247  -11.3795 C   0  0  0  0  0  0  0  0  0  0  0  0
   23.2077  -21.4260  -11.5126 O   0  0  0  0  0  0  0  0  0  0  0  0
   24.6257  -22.9727  -10.6631 O   0  0  0  0  0  0  0  0  0  0  0  0
  2  1  1  6
  3  2  1  0
  4  6  1  0
  4  2  1  0
  4  5  1  6
  6 10  1  0
  7  6  2  0
  9  8  1  1
  9 11  1  0
 10  9  1  0
 11 13  1  0
 11 12  2  0
 13 17  1  0
 14 15  1  0
 14 13  1  0
 15 16  1  0
 16 17  1  0
 17 18  1  1
 18 19  2  0
 18 20  1  0
M  END
$$$$
