TAP.pdb
     RDKit          3D

 20 20  0  0  1  0  0  0  0  0999 V2000
   20.7631  -14.9826  -17.0657 C   0  0  0  0  0  0  0  0  0  0  0  0
   21.6785  -16.1751  -16.9092 C   0  0  1  0  0  0  0  0  0  0  0  0
   20.9723  -17.3744  -17.1044 O   0  0  0  0  0  0  0  0  0  0  0  0
   22.7324  -16.1097  -17.9706 C   0  0  2  0  0  0  0  0  0  0  0  0
   23.6131  -17.2647  -17.9457 N   0  0  0  0  0  0  0  0  0  0  0  0
   23.5355  -14.8578  -17.7329 C   0  0  0  0  0  0  0  0  0  0  0  0
   24.3152  -14.7766  -16.7509 O   0  0  0  0  0  0  0  0  0  0  0  0
   24.4185  -11.7562  -19.6535 C   0  0  0  0  0  0  0  0  0  0  0  0
   24.2765  -12.5640  -18.3891 C   0  0  2  0  0  0  0  0  0  0  0  0
   23.4472  -13.7325  -18.5953 N   0  0  0  0  0  0  0  0  0  0  0  0
   23.7911  -11.7636  -17.2471 C   0  0  0  0  0  0  0  0  0  0  0  0
   22.5591  -11.8231  -17.0031 O   0  0  0  0  0  0  0  0  0  0  0  0
   24.6347  -10.9577  -16.4425 N   0  0  0  0  0  0  0  0  0  0  0  0
   26.0765  -10.8534  -16.5770 C   0  0  0  0  0  0  0  0  0  0  0  0
   26.5725  -10.3572  -15.2176 C   0  0  0  0  0  0  0  0  0  0  0  0
   25.4393   -9.4542  -14.8079 C   0  0  0  0  0  0  0  0  0  0  0  0
   24.2262  -10.1115  -15.3650 C   0  0  1  0  0  0  0  0  0  0  0  0
   23.2645   -9.0713  -15.7705 C   0  0  0  0  0  0  0  0  0  0  0  0
   23.1485   -8.7105  -16.9659 O   0  0  0  0  0  0  0  0  0  0  0  0
   22.4718   -8.4782  -14.8182 O   0  0  0  0  0  0  0  0  0  0  0  0
  2  1  1  6
  3  2  1  0
  4  6  1  0
  4  2  1  0
  4  5  1  1
  6 10  1  0
  7  6  2  0
  9  8  1  6
  9 11  1  0
 10  9  1  0
 11 13  1  0
 11 12  2  0
 13 17  1  0
 14 15  1  0
 14 13  1  0
 15 16  1  0
 16 17  1  0
 17 18  1  6
 18 19  2  0
 18 20  1  0
M  END
$$$$
