TAP.pdb
     RDKit          3D

 20 20  0  0  1  0  0  0  0  0999 V2000
   22.7223  -11.5215  -18.3358 C   0  0  0  0  0  0  0  0  0  0  0  0
   22.7238  -12.3055  -17.0436 C   0  0  1  0  0  0  0  0  0  0  0  0
   22.7906  -11.4420  -15.9369 O   0  0  0  0  0  0  0  0  0  0  0  0
   21.4312  -13.0535  -16.9380 C   0  0  2  0  0  0  0  0  0  0  0  0
   21.2897  -14.0603  -17.9756 N   0  0  0  0  0  0  0  0  0  0  0  0
   20.3164  -12.0473  -17.0561 C   0  0  0  0  0  0  0  0  0  0  0  0
   20.0333  -11.5363  -18.1685 O   0  0  0  0  0  0  0  0  0  0  0  0
   17.3077  -11.0933  -15.1288 C   0  0  0  0  0  0  0  0  0  0  0  0
   18.4225  -10.7426  -16.0804 C   0  0  2  0  0  0  0  0  0  0  0  0
   19.5494  -11.6393  -15.9323 N   0  0  0  0  0  0  0  0  0  0  0  0
   18.8484   -9.3329  -15.9725 C   0  0  0  0  0  0  0  0  0  0  0  0
   19.8899   -9.1106  -15.3042 O   0  0  0  0  0  0  0  0  0  0  0  0
   18.1496   -8.2569  -16.5744 N   0  0  0  0  0  0  0  0  0  0  0  0
   16.9699   -8.3832  -17.4111 C   0  0  0  0  0  0  0  0  0  0  0  0
   16.9262   -7.0992  -18.2415 C   0  0  0  0  0  0  0  0  0  0  0  0
   17.4730   -6.0992  -17.2574 C   0  0  0  0  0  0  0  0  0  0  0  0
   18.4743   -6.8685  -16.4703 C   0  0  1  0  0  0  0  0  0  0  0  0
   18.4746   -6.3705  -15.0833 C   0  0  0  0  0  0  0  0  0  0  0  0
   17.9594   -7.0267  -14.1471 O   0  0  0  0  0  0  0  0  0  0  0  0
   19.0531   -5.1564  -14.8033 O   0  0  0  0  0  0  0  0  0  0  0  0
  2  1  1  6
  3  2  1  0
  4  6  1  0
  4  2  1  0
  4  5  1  6
  6 10  1  0
  7  6  2  0
  9  8  1  1
  9 11  1  0
 10  9  1  0
 11 13  1  0
 11 12  2  0
 13 17  1  0
 14 15  1  0
 14 13  1  0
 15 16  1  0
 16 17  1  0
 17 18  1  1
 18 19  2  0
 18 20  1  0
M  END
$$$$
