TAP.pdb
     RDKit          3D

 20 20  0  0  1  0  0  0  0  0999 V2000
   15.5786  -10.6325  -15.7472 C   0  0  0  0  0  0  0  0  0  0  0  0
   16.0387  -11.9349  -15.1336 C   0  0  1  0  0  0  0  0  0  0  0  0
   15.0072  -12.8891  -15.1581 O   0  0  0  0  0  0  0  0  0  0  0  0
   17.1607  -12.4816  -15.9604 C   0  0  2  0  0  0  0  0  0  0  0  0
   17.5712  -13.8059  -15.5271 N   0  0  0  0  0  0  0  0  0  0  0  0
   18.3200  -11.5280  -15.8353 C   0  0  0  0  0  0  0  0  0  0  0  0
   18.9502  -11.4282  -14.7528 O   0  0  0  0  0  0  0  0  0  0  0  0
   20.5344   -9.6234  -18.1741 C   0  0  0  0  0  0  0  0  0  0  0  0
   19.9330   -9.8934  -16.8188 C   0  0  2  0  0  0  0  0  0  0  0  0
   18.7440  -10.7132  -16.9188 N   0  0  0  0  0  0  0  0  0  0  0  0
   19.6642   -8.6598  -16.0530 C   0  0  0  0  0  0  0  0  0  0  0  0
   18.4963   -8.1993  -16.1223 O   0  0  0  0  0  0  0  0  0  0  0  0
   20.6416   -7.9978  -15.2689 N   0  0  0  0  0  0  0  0  0  0  0  0
   21.9897   -8.4776  -15.0239 C   0  0  0  0  0  0  0  0  0  0  0  0
   22.4412   -7.7727  -13.7436 C   0  0  0  0  0  0  0  0  0  0  0  0
   21.7605   -6.4378  -13.8927 C   0  0  0  0  0  0  0  0  0  0  0  0
   20.4812   -6.7532  -14.5839 C   0  0  1  0  0  0  0  0  0  0  0  0
   20.1343   -5.6342  -15.4778 C   0  0  0  0  0  0  0  0  0  0  0  0
   20.3231   -5.6965  -16.7160 O   0  0  0  0  0  0  0  0  0  0  0  0
   19.5895   -4.4908  -14.9461 O   0  0  0  0  0  0  0  0  0  0  0  0
  2  1  1  6
  3  2  1  0
  4  6  1  0
  4  2  1  0
  4  5  1  1
  6 10  1  0
  7  6  2  0
  9  8  1  6
  9 11  1  0
 10  9  1  0
 11 13  1  0
 11 12  2  0
 13 17  1  0
 14 15  1  0
 14 13  1  0
 15 16  1  0
 16 17  1  0
 17 18  1  6
 18 19  2  0
 18 20  1  0
M  END
$$$$
