TAP.pdb
     RDKit          3D

 20 20  0  0  1  0  0  0  0  0999 V2000
   16.0771  -16.0607  -13.7367 C   0  0  0  0  0  0  0  0  0  0  0  0
   17.0012  -17.2484  -13.8770 C   0  0  1  0  0  0  0  0  0  0  0  0
   16.5008  -18.3554  -13.1704 O   0  0  0  0  0  0  0  0  0  0  0  0
   17.0587  -17.6401  -15.3208 C   0  0  2  0  0  0  0  0  0  0  0  0
   17.8786  -18.8188  -15.5408 N   0  0  0  0  0  0  0  0  0  0  0  0
   17.6353  -16.4752  -16.0821 C   0  0  0  0  0  0  0  0  0  0  0  0
   18.8546  -16.1884  -15.9822 O   0  0  0  0  0  0  0  0  0  0  0  0
   16.6268  -14.2872  -18.9398 C   0  0  0  0  0  0  0  0  0  0  0  0
   17.4194  -14.5763  -17.6910 C   0  0  2  0  0  0  0  0  0  0  0  0
   16.8379  -15.6634  -16.9322 N   0  0  0  0  0  0  0  0  0  0  0  0
   17.6135  -13.3824  -16.8441 C   0  0  0  0  0  0  0  0  0  0  0  0
   16.8449  -13.2638  -15.8562 O   0  0  0  0  0  0  0  0  0  0  0  0
   18.6016  -12.3980  -17.0953 N   0  0  0  0  0  0  0  0  0  0  0  0
   19.5886  -12.4490  -18.1588 C   0  0  0  0  0  0  0  0  0  0  0  0
   20.7196  -11.5257  -17.7026 C   0  0  0  0  0  0  0  0  0  0  0  0
   19.9466  -10.4601  -16.9718 C   0  0  0  0  0  0  0  0  0  0  0  0
   18.8054  -11.1908  -16.3570 C   0  0  1  0  0  0  0  0  0  0  0  0
   17.6260  -10.3075  -16.3434 C   0  0  0  0  0  0  0  0  0  0  0  0
   17.3842   -9.5453  -15.3774 O   0  0  0  0  0  0  0  0  0  0  0  0
   16.7658  -10.3153  -17.4144 O   0  0  0  0  0  0  0  0  0  0  0  0
  2  1  1  6
  3  2  1  0
  4  6  1  0
  4  2  1  0
  4  5  1  1
  6 10  1  0
  7  6  2  0
  9  8  1  6
  9 11  1  0
 10  9  1  0
 11 13  1  0
 11 12  2  0
 13 17  1  0
 14 15  1  0
 14 13  1  0
 15 16  1  0
 16 17  1  0
 17 18  1  6
 18 19  2  0
 18 20  1  0
M  END
$$$$
