TAP.pdb
     RDKit          3D

 20 20  0  0  1  0  0  0  0  0999 V2000
   30.8123  -32.5206  -22.7583 C   0  0  0  0  0  0  0  0  0  0  0  0
   31.3761  -33.8944  -22.4771 C   0  0  1  0  0  0  0  0  0  0  0  0
   31.7985  -34.5127  -23.6664 O   0  0  0  0  0  0  0  0  0  0  0  0
   32.5859  -33.7447  -21.6079 C   0  0  2  0  0  0  0  0  0  0  0  0
   33.2837  -35.0036  -21.4116 N   0  0  0  0  0  0  0  0  0  0  0  0
   32.1227  -33.2118  -20.2774 C   0  0  0  0  0  0  0  0  0  0  0  0
   31.3378  -33.8813  -19.5601 O   0  0  0  0  0  0  0  0  0  0  0  0
   32.8580  -30.2598  -18.0467 C   0  0  0  0  0  0  0  0  0  0  0  0
   32.0316  -31.4201  -18.5388 C   0  0  2  0  0  0  0  0  0  0  0  0
   32.5467  -31.9490  -19.7841 N   0  0  0  0  0  0  0  0  0  0  0  0
   30.5957  -31.0953  -18.6538 C   0  0  0  0  0  0  0  0  0  0  0  0
   30.2058  -30.6609  -19.7674 O   0  0  0  0  0  0  0  0  0  0  0  0
   29.6717  -31.2503  -17.5906 N   0  0  0  0  0  0  0  0  0  0  0  0
   29.9664  -31.8463  -16.3000 C   0  0  0  0  0  0  0  0  0  0  0  0
   28.6125  -32.2902  -15.7432 C   0  0  0  0  0  0  0  0  0  0  0  0
   27.7122  -31.2053  -16.2722 C   0  0  0  0  0  0  0  0  0  0  0  0
   28.2980  -30.8542  -17.5942 C   0  0  1  0  0  0  0  0  0  0  0  0
   28.1057  -29.4128  -17.8327 C   0  0  0  0  0  0  0  0  0  0  0  0
   29.0631  -28.6039  -17.7902 O   0  0  0  0  0  0  0  0  0  0  0  0
   26.8469  -28.9375  -18.1094 O   0  0  0  0  0  0  0  0  0  0  0  0
  2  1  1  6
  3  2  1  0
  4  6  1  0
  4  2  1  0
  4  5  1  1
  6 10  1  0
  7  6  2  0
  9  8  1  6
  9 11  1  0
 10  9  1  0
 11 13  1  0
 11 12  2  0
 13 17  1  0
 14 15  1  0
 14 13  1  0
 15 16  1  0
 16 17  1  0
 17 18  1  1
 18 19  2  0
 18 20  1  0
M  END
$$$$
