TAP.pdb
     RDKit          3D

 20 20  0  0  1  0  0  0  0  0999 V2000
   17.5818  -19.9758    6.2515 C   0  0  0  0  0  0  0  0  0  0  0  0
   17.8056  -20.7292    4.9605 C   0  0  1  0  0  0  0  0  0  0  0  0
   17.8069  -22.1163    5.1868 O   0  0  0  0  0  0  0  0  0  0  0  0
   16.6657  -20.4378    4.0345 C   0  0  2  0  0  0  0  0  0  0  0  0
   16.7108  -21.2500    2.8310 N   0  0  0  0  0  0  0  0  0  0  0  0
   16.7472  -18.9804    3.6629 C   0  0  0  0  0  0  0  0  0  0  0  0
   17.6581  -18.5655    2.9032 O   0  0  0  0  0  0  0  0  0  0  0  0
   14.5745  -15.9376    3.8821 C   0  0  0  0  0  0  0  0  0  0  0  0
   15.9095  -16.6298    3.7819 C   0  0  2  0  0  0  0  0  0  0  0  0
   15.8125  -18.0271    4.1478 N   0  0  0  0  0  0  0  0  0  0  0  0
   16.9685  -15.9510    4.5554 C   0  0  0  0  0  0  0  0  0  0  0  0
   17.2702  -16.4629    5.6634 O   0  0  0  0  0  0  0  0  0  0  0  0
   17.6353  -14.7827    4.1095 N   0  0  0  0  0  0  0  0  0  0  0  0
   17.4968  -14.1854    2.7935 C   0  0  0  0  0  0  0  0  0  0  0  0
   18.7593  -13.3438    2.5988 C   0  0  0  0  0  0  0  0  0  0  0  0
   19.0050  -12.8611    4.0038 C   0  0  0  0  0  0  0  0  0  0  0  0
   18.5548  -13.9890    4.8635 C   0  0  1  0  0  0  0  0  0  0  0  0
   17.9752  -13.4415    6.1028 C   0  0  0  0  0  0  0  0  0  0  0  0
   16.7359  -13.4046    6.2909 O   0  0  0  0  0  0  0  0  0  0  0  0
   18.8098  -12.9576    7.0808 O   0  0  0  0  0  0  0  0  0  0  0  0
  2  1  1  1
  3  2  1  0
  4  6  1  0
  4  2  1  0
  4  5  1  6
  6 10  1  0
  7  6  2  0
  9  8  1  1
  9 11  1  0
 10  9  1  0
 11 13  1  0
 11 12  2  0
 13 17  1  0
 14 15  1  0
 14 13  1  0
 15 16  1  0
 16 17  1  0
 17 18  1  1
 18 19  2  0
 18 20  1  0
M  END
$$$$
