TAP.pdb
     RDKit          3D

 20 20  0  0  1  0  0  0  0  0999 V2000
   24.9189  -26.0384  -16.3299 C   0  0  0  0  0  0  0  0  0  0  0  0
   25.4933  -24.8398  -15.6103 C   0  0  1  0  0  0  0  0  0  0  0  0
   26.6099  -24.3338  -16.2976 O   0  0  0  0  0  0  0  0  0  0  0  0
   24.4617  -23.7549  -15.5922 C   0  0  2  0  0  0  0  0  0  0  0  0
   24.9574  -22.5320  -14.9849 N   0  0  0  0  0  0  0  0  0  0  0  0
   23.2825  -24.2662  -14.8068 C   0  0  0  0  0  0  0  0  0  0  0  0
   23.3903  -24.5077  -13.5783 O   0  0  0  0  0  0  0  0  0  0  0  0
   19.5802  -24.6352  -15.3204 C   0  0  0  0  0  0  0  0  0  0  0  0
   20.8844  -24.9440  -14.6312 C   0  0  2  0  0  0  0  0  0  0  0  0
   22.0176  -24.4939  -15.4116 N   0  0  0  0  0  0  0  0  0  0  0  0
   21.0208  -26.3696  -14.2710 C   0  0  0  0  0  0  0  0  0  0  0  0
   21.6324  -27.0999  -15.0916 O   0  0  0  0  0  0  0  0  0  0  0  0
   20.5051  -26.9263  -13.0741 N   0  0  0  0  0  0  0  0  0  0  0  0
   19.8690  -26.1787  -12.0044 C   0  0  0  0  0  0  0  0  0  0  0  0
   19.9972  -27.0639  -10.7635 C   0  0  0  0  0  0  0  0  0  0  0  0
   19.8695  -28.4355  -11.3717 C   0  0  0  0  0  0  0  0  0  0  0  0
   20.5171  -28.3075  -12.7052 C   0  0  1  0  0  0  0  0  0  0  0  0
   19.8097  -29.1749  -13.6636 C   0  0  0  0  0  0  0  0  0  0  0  0
   19.0063  -28.7088  -14.5062 O   0  0  0  0  0  0  0  0  0  0  0  0
   20.0325  -30.5302  -13.6377 O   0  0  0  0  0  0  0  0  0  0  0  0
  2  1  1  6
  3  2  1  0
  4  6  1  0
  4  2  1  0
  4  5  1  1
  6 10  1  0
  7  6  2  0
  9  8  1  6
  9 11  1  0
 10  9  1  0
 11 13  1  0
 11 12  2  0
 13 17  1  0
 14 15  1  0
 14 13  1  0
 15 16  1  0
 16 17  1  0
 17 18  1  6
 18 19  2  0
 18 20  1  0
M  END
$$$$
