LER.pdb
     RDKit          3D

 29 28  0  0  1  0  0  0  0  0999 V2000
    8.6905  -11.9701   20.1075 C   0  0  0  0  0  0  0  0  0  0  0  0
    8.1923  -13.3332   19.7017 C   0  0  2  0  0  0  0  0  0  0  0  0
    6.6978  -13.1795   19.3867 C   0  0  0  0  0  0  0  0  0  0  0  0
    8.3784  -14.3782   20.7823 C   0  0  0  0  0  0  0  0  0  0  0  0
    9.7823  -14.4069   21.3037 C   0  0  2  0  0  0  0  0  0  0  0  0
   10.7238  -13.9774   20.3075 N   0  0  0  0  0  0  0  0  0  0  0  0
   10.1088  -15.7959   21.7378 C   0  0  0  0  0  0  0  0  0  0  0  0
    9.2990  -16.4753   22.4304 O   0  0  0  0  0  0  0  0  0  0  0  0
   11.3287  -16.4004   21.3929 N   0  0  0  0  0  0  0  0  0  0  0  0
   11.6548  -17.7989   21.7626 C   0  0  1  0  0  0  0  0  0  0  0  0
   12.1959  -18.4053   20.5146 C   0  0  0  0  0  0  0  0  0  0  0  0
   11.3297  -19.3724   19.7982 C   0  0  0  0  0  0  0  0  0  0  0  0
   12.1917  -20.1786   18.8576 C   0  0  0  0  0  0  0  0  0  0  0  0
   12.1946  -19.8950   17.6400 O   0  0  0  0  0  0  0  0  0  0  0  0
   12.5641  -17.8054   22.9212 C   0  0  0  0  0  0  0  0  0  0  0  0
   13.3205  -16.7888   23.0811 O   0  0  0  0  0  0  0  0  0  0  0  0
   12.9800  -21.2195   19.2858 O   0  0  0  0  0  0  0  0  0  0  0  0
   10.6656  -21.1036   30.6517 N   0  0  0  0  0  0  0  0  0  0  0  0
   11.3933  -19.8832   30.7929 C   0  0  0  0  0  0  0  0  0  0  0  0
   11.4262  -19.2278   31.8924 N   0  0  0  0  0  0  0  0  0  0  0  0
   12.1186  -19.3587   29.6733 N   0  0  0  0  0  0  0  0  0  0  0  0
   12.2280  -20.0307   28.3965 C   0  0  0  0  0  0  0  0  0  0  0  0
   12.8622  -19.1486   27.3776 C   0  0  0  0  0  0  0  0  0  0  0  0
   13.0290  -19.7032   26.0296 C   0  0  0  0  0  0  0  0  0  0  0  0
   13.6109  -18.8024   24.9949 C   0  0  2  0  0  0  0  0  0  0  0  0
   12.6634  -18.8351   23.8624 N   0  0  0  0  0  0  0  0  0  0  0  0
   14.9324  -19.2539   24.5060 C   0  0  0  0  0  0  0  0  0  0  0  0
   16.0829  -18.6604   25.0110 O   0  0  0  0  0  0  0  0  0  0  0  0
   15.0952  -20.1570   23.6464 O   0  0  0  0  0  0  0  0  0  0  0  0
  2  4  1  0
  2  3  1  1
  2  1  1  0
  5  6  1  6
  5  4  1  0
  7  5  1  0
  8  7  2  0
  9  7  1  0
 10 15  1  0
 10  9  1  0
 10 11  1  6
 12 11  1  0
 13 12  1  0
 14 13  2  0
 15 16  2  0
 17 13  1  0
 18 19  1  0
 19 21  1  0
 20 19  2  0
 21 22  1  0
 23 24  1  0
 23 22  1  0
 25 24  1  1
 25 27  1  0
 26 25  1  0
 26 15  1  0
 27 29  2  0
 27 28  1  0
M  END
$$$$
