LER.pdb
     RDKit          3D

 29 28  0  0  1  0  0  0  0  0999 V2000
    8.7546  -12.6353   18.3432 C   0  0  0  0  0  0  0  0  0  0  0  0
    7.6527  -13.3007   19.1267 C   0  0  2  0  0  0  0  0  0  0  0  0
    7.0043  -12.2084   19.9886 C   0  0  0  0  0  0  0  0  0  0  0  0
    8.1512  -14.4203   20.0169 C   0  0  0  0  0  0  0  0  0  0  0  0
    8.8044  -15.5165   19.2324 C   0  0  2  0  0  0  0  0  0  0  0  0
    7.8326  -16.3553   18.5881 N   0  0  0  0  0  0  0  0  0  0  0  0
    9.6440  -16.3360   20.1532 C   0  0  0  0  0  0  0  0  0  0  0  0
    9.1332  -16.9672   21.1216 O   0  0  0  0  0  0  0  0  0  0  0  0
   11.0339  -16.4367   19.9781 N   0  0  0  0  0  0  0  0  0  0  0  0
   11.8832  -17.2934   20.8403 C   0  0  1  0  0  0  0  0  0  0  0  0
   13.0775  -17.6052   20.0071 C   0  0  0  0  0  0  0  0  0  0  0  0
   14.1363  -18.4410   20.6230 C   0  0  0  0  0  0  0  0  0  0  0  0
   15.2358  -18.6415   19.6088 C   0  0  0  0  0  0  0  0  0  0  0  0
   16.4254  -18.4899   19.9623 O   0  0  0  0  0  0  0  0  0  0  0  0
   12.1554  -16.6012   22.1114 C   0  0  0  0  0  0  0  0  0  0  0  0
   12.5900  -15.4018   22.0468 O   0  0  0  0  0  0  0  0  0  0  0  0
   14.9832  -18.9862   18.3028 O   0  0  0  0  0  0  0  0  0  0  0  0
   10.7774  -16.3296   30.4749 N   0  0  0  0  0  0  0  0  0  0  0  0
   10.6644  -15.2308   29.5701 C   0  0  0  0  0  0  0  0  0  0  0  0
   10.4210  -14.0380   29.9671 N   0  0  0  0  0  0  0  0  0  0  0  0
   10.8261  -15.4535   28.1634 N   0  0  0  0  0  0  0  0  0  0  0  0
    9.7255  -15.5331   27.2274 C   0  0  0  0  0  0  0  0  0  0  0  0
   10.2184  -15.6802   25.8296 C   0  0  0  0  0  0  0  0  0  0  0  0
   11.2009  -16.7407   25.5795 C   0  0  0  0  0  0  0  0  0  0  0  0
   12.3054  -16.4288   24.6289 C   0  0  2  0  0  0  0  0  0  0  0  0
   11.9733  -17.1513   23.3843 N   0  0  0  0  0  0  0  0  0  0  0  0
   13.6278  -16.8987   25.0980 C   0  0  0  0  0  0  0  0  0  0  0  0
   14.4771  -16.0064   25.7409 O   0  0  0  0  0  0  0  0  0  0  0  0
   14.0498  -18.0744   24.9543 O   0  0  0  0  0  0  0  0  0  0  0  0
  2  4  1  0
  2  3  1  1
  2  1  1  0
  5  6  1  1
  5  4  1  0
  7  5  1  0
  8  7  2  0
  9  7  1  0
 10 15  1  0
 10  9  1  0
 10 11  1  6
 12 11  1  0
 13 12  1  0
 14 13  2  0
 15 16  2  0
 17 13  1  0
 18 19  1  0
 19 21  1  0
 20 19  2  0
 21 22  1  0
 23 24  1  0
 23 22  1  0
 25 24  1  1
 25 27  1  0
 26 25  1  0
 26 15  1  0
 27 29  2  0
 27 28  1  0
M  END
$$$$
