LER.pdb
     RDKit          3D

 29 28  0  0  1  0  0  0  0  0999 V2000
    7.9464  -13.8462   18.7419 C   0  0  0  0  0  0  0  0  0  0  0  0
    7.5261  -13.8793   20.1887 C   0  0  2  0  0  0  0  0  0  0  0  0
    6.7439  -12.5845   20.4493 C   0  0  0  0  0  0  0  0  0  0  0  0
    8.6980  -13.9654   21.1445 C   0  0  0  0  0  0  0  0  0  0  0  0
    9.5057  -15.2097   20.9363 C   0  0  2  0  0  0  0  0  0  0  0  0
    8.7202  -16.3916   21.1579 N   0  0  0  0  0  0  0  0  0  0  0  0
   10.6666  -15.1950   21.8724 C   0  0  0  0  0  0  0  0  0  0  0  0
   11.4289  -14.1907   21.9583 O   0  0  0  0  0  0  0  0  0  0  0  0
   10.9558  -16.2972   22.6935 N   0  0  0  0  0  0  0  0  0  0  0  0
   12.1594  -16.3497   23.5580 C   0  0  1  0  0  0  0  0  0  0  0  0
   11.9431  -17.5310   24.4387 C   0  0  0  0  0  0  0  0  0  0  0  0
   11.3182  -17.2871   25.7612 C   0  0  0  0  0  0  0  0  0  0  0  0
   11.2172  -18.6044   26.4909 C   0  0  0  0  0  0  0  0  0  0  0  0
   10.1423  -19.2415   26.4514 O   0  0  0  0  0  0  0  0  0  0  0  0
   13.3695  -16.3922   22.7196 C   0  0  0  0  0  0  0  0  0  0  0  0
   13.5421  -17.4246   21.9876 O   0  0  0  0  0  0  0  0  0  0  0  0
   12.2648  -19.1376   27.2026 O   0  0  0  0  0  0  0  0  0  0  0  0
   15.0620  -14.9225   16.6744 N   0  0  0  0  0  0  0  0  0  0  0  0
   16.2835  -14.2057   16.4927 C   0  0  0  0  0  0  0  0  0  0  0  0
   17.0306  -14.3732   15.4665 N   0  0  0  0  0  0  0  0  0  0  0  0
   16.7035  -13.2610   17.4856 N   0  0  0  0  0  0  0  0  0  0  0  0
   16.0251  -13.0623   18.7482 C   0  0  0  0  0  0  0  0  0  0  0  0
   16.0357  -14.3074   19.5656 C   0  0  0  0  0  0  0  0  0  0  0  0
   15.4040  -14.2397   20.8880 C   0  0  0  0  0  0  0  0  0  0  0  0
   15.5058  -15.4518   21.7489 C   0  0  2  0  0  0  0  0  0  0  0  0
   14.3439  -15.3907   22.6587 N   0  0  0  0  0  0  0  0  0  0  0  0
   16.7360  -15.4811   22.5707 C   0  0  0  0  0  0  0  0  0  0  0  0
   17.9091  -15.9823   22.0200 O   0  0  0  0  0  0  0  0  0  0  0  0
   16.7996  -15.0760   23.7593 O   0  0  0  0  0  0  0  0  0  0  0  0
  2  4  1  0
  2  3  1  1
  2  1  1  0
  5  6  1  1
  5  4  1  0
  7  5  1  0
  8  7  2  0
  9  7  1  0
 10 15  1  0
 10  9  1  0
 10 11  1  6
 12 11  1  0
 13 12  1  0
 14 13  2  0
 15 16  2  0
 17 13  1  0
 18 19  1  0
 19 21  1  0
 20 19  2  0
 21 22  1  0
 23 24  1  0
 23 22  1  0
 25 24  1  6
 25 27  1  0
 26 25  1  0
 26 15  1  0
 27 29  2  0
 27 28  1  0
M  END
$$$$
