LER.pdb
     RDKit          3D

 29 28  0  0  1  0  0  0  0  0999 V2000
    8.8493  -13.6355   18.6989 C   0  0  0  0  0  0  0  0  0  0  0  0
    7.7852  -13.9012   19.7324 C   0  0  2  0  0  0  0  0  0  0  0  0
    6.9722  -12.6065   19.8697 C   0  0  0  0  0  0  0  0  0  0  0  0
    8.3534  -14.2892   21.0819 C   0  0  0  0  0  0  0  0  0  0  0  0
    9.1168  -15.5767   21.0237 C   0  0  2  0  0  0  0  0  0  0  0  0
    8.2927  -16.6954   21.3875 N   0  0  0  0  0  0  0  0  0  0  0  0
   10.2831  -15.4897   21.9492 C   0  0  0  0  0  0  0  0  0  0  0  0
   11.1516  -14.5797   21.8282 O   0  0  0  0  0  0  0  0  0  0  0  0
   10.4594  -16.4164   22.9899 N   0  0  0  0  0  0  0  0  0  0  0  0
   11.6283  -16.3745   23.9012 C   0  0  1  0  0  0  0  0  0  0  0  0
   11.2792  -17.3058   25.0097 C   0  0  0  0  0  0  0  0  0  0  0  0
   12.3101  -17.5414   26.0493 C   0  0  0  0  0  0  0  0  0  0  0  0
   11.7496  -18.5051   27.0666 C   0  0  0  0  0  0  0  0  0  0  0  0
   10.5875  -18.9409   26.9169 O   0  0  0  0  0  0  0  0  0  0  0  0
   12.8523  -16.7054   23.1518 C   0  0  0  0  0  0  0  0  0  0  0  0
   12.9046  -17.8493   22.5861 O   0  0  0  0  0  0  0  0  0  0  0  0
   12.4681  -18.9274   28.1592 O   0  0  0  0  0  0  0  0  0  0  0  0
   13.0155  -16.3705   18.4296 N   0  0  0  0  0  0  0  0  0  0  0  0
   12.6646  -15.0713   17.9522 C   0  0  0  0  0  0  0  0  0  0  0  0
   11.5906  -14.8507   17.2910 N   0  0  0  0  0  0  0  0  0  0  0  0
   13.5352  -13.9629   18.2136 N   0  0  0  0  0  0  0  0  0  0  0  0
   14.6099  -13.9920   19.1820 C   0  0  0  0  0  0  0  0  0  0  0  0
   14.4000  -15.0726   20.1854 C   0  0  0  0  0  0  0  0  0  0  0  0
   15.3959  -15.1876   21.2565 C   0  0  0  0  0  0  0  0  0  0  0  0
   15.1788  -16.2587   22.2696 C   0  0  2  0  0  0  0  0  0  0  0  0
   13.9613  -15.8655   23.0076 N   0  0  0  0  0  0  0  0  0  0  0  0
   16.2899  -16.3772   23.2395 C   0  0  0  0  0  0  0  0  0  0  0  0
   17.4701  -16.9977   22.8483 O   0  0  0  0  0  0  0  0  0  0  0  0
   16.2439  -15.9472   24.4202 O   0  0  0  0  0  0  0  0  0  0  0  0
  2  4  1  0
  2  3  1  1
  2  1  1  0
  5  6  1  1
  5  4  1  0
  7  5  1  0
  8  7  2  0
  9  7  1  0
 10 15  1  0
 10  9  1  0
 10 11  1  1
 12 11  1  0
 13 12  1  0
 14 13  2  0
 15 16  2  0
 17 13  1  0
 18 19  1  0
 19 21  1  0
 20 19  2  0
 21 22  1  0
 23 24  1  0
 23 22  1  0
 25 24  1  6
 25 27  1  0
 26 25  1  0
 26 15  1  0
 27 29  2  0
 27 28  1  0
M  END
$$$$
