LER.pdb
     RDKit          3D

 29 28  0  0  1  0  0  0  0  0999 V2000
    7.6695  -12.4309   20.4226 C   0  0  0  0  0  0  0  0  0  0  0  0
    8.5974  -12.5877   19.2455 C   0  0  2  0  0  0  0  0  0  0  0  0
    8.1956  -11.5159   18.2228 C   0  0  0  0  0  0  0  0  0  0  0  0
    8.5150  -13.9574   18.6041 C   0  0  0  0  0  0  0  0  0  0  0  0
    8.8901  -15.0503   19.5574 C   0  0  2  0  0  0  0  0  0  0  0  0
    8.8353  -14.6026   20.9210 N   0  0  0  0  0  0  0  0  0  0  0  0
   10.2694  -15.5188   19.2374 C   0  0  0  0  0  0  0  0  0  0  0  0
   10.4705  -16.4575   18.4155 O   0  0  0  0  0  0  0  0  0  0  0  0
   11.3964  -14.9340   19.8380 N   0  0  0  0  0  0  0  0  0  0  0  0
   12.7511  -15.5272   19.7312 C   0  0  1  0  0  0  0  0  0  0  0  0
   13.5180  -14.5724   18.8837 C   0  0  0  0  0  0  0  0  0  0  0  0
   14.9651  -14.8387   18.6991 C   0  0  0  0  0  0  0  0  0  0  0  0
   15.5459  -13.7419   17.8403 C   0  0  0  0  0  0  0  0  0  0  0  0
   15.8260  -13.9868   16.6468 O   0  0  0  0  0  0  0  0  0  0  0  0
   13.2958  -15.7631   21.0791 C   0  0  0  0  0  0  0  0  0  0  0  0
   13.1592  -14.8300   21.9405 O   0  0  0  0  0  0  0  0  0  0  0  0
   15.7820  -12.4754   18.3183 O   0  0  0  0  0  0  0  0  0  0  0  0
   15.7665  -19.3761   27.3652 N   0  0  0  0  0  0  0  0  0  0  0  0
   15.0476  -20.5956   27.1789 C   0  0  0  0  0  0  0  0  0  0  0  0
   15.3883  -21.6872   27.7548 N   0  0  0  0  0  0  0  0  0  0  0  0
   13.9007  -20.6162   26.3193 N   0  0  0  0  0  0  0  0  0  0  0  0
   13.9582  -20.3869   24.8917 C   0  0  0  0  0  0  0  0  0  0  0  0
   14.1500  -18.9416   24.5870 C   0  0  0  0  0  0  0  0  0  0  0  0
   14.2368  -18.5667   23.1712 C   0  0  0  0  0  0  0  0  0  0  0  0
   14.4553  -17.1246   22.8657 C   0  0  2  0  0  0  0  0  0  0  0  0
   13.9485  -16.9290   21.4923 N   0  0  0  0  0  0  0  0  0  0  0  0
   15.8819  -16.7330   22.8928 C   0  0  0  0  0  0  0  0  0  0  0  0
   16.4500  -16.3181   24.0911 O   0  0  0  0  0  0  0  0  0  0  0  0
   16.6364  -16.7484   21.8871 O   0  0  0  0  0  0  0  0  0  0  0  0
  2  4  1  0
  2  3  1  6
  2  1  1  0
  5  6  1  1
  5  4  1  0
  7  5  1  0
  8  7  2  0
  9  7  1  0
 10 15  1  0
 10  9  1  0
 10 11  1  6
 12 11  1  0
 13 12  1  0
 14 13  2  0
 15 16  2  0
 17 13  1  0
 18 19  1  0
 19 21  1  0
 20 19  2  0
 21 22  1  0
 23 24  1  0
 23 22  1  0
 25 24  1  6
 25 27  1  0
 26 25  1  0
 26 15  1  0
 27 29  2  0
 27 28  1  0
M  END
$$$$
