LER.pdb
     RDKit          3D

 29 28  0  0  1  0  0  0  0  0999 V2000
    8.7492  -13.4224   18.2729 C   0  0  0  0  0  0  0  0  0  0  0  0
    7.7775  -13.4114   19.4247 C   0  0  2  0  0  0  0  0  0  0  0  0
    7.3280  -11.9551   19.6072 C   0  0  0  0  0  0  0  0  0  0  0  0
    8.3832  -13.9213   20.7160 C   0  0  0  0  0  0  0  0  0  0  0  0
    8.7689  -15.3659   20.6266 C   0  0  2  0  0  0  0  0  0  0  0  0
    7.7041  -16.1635   20.0851 N   0  0  0  0  0  0  0  0  0  0  0  0
    9.1217  -15.8576   21.9897 C   0  0  0  0  0  0  0  0  0  0  0  0
    9.9207  -15.2192   22.7322 O   0  0  0  0  0  0  0  0  0  0  0  0
    8.5789  -17.0487   22.4989 N   0  0  0  0  0  0  0  0  0  0  0  0
    8.9891  -17.6129   23.8074 C   0  0  1  0  0  0  0  0  0  0  0  0
    7.9061  -18.5710   24.1641 C   0  0  0  0  0  0  0  0  0  0  0  0
    8.1673  -19.5046   25.2862 C   0  0  0  0  0  0  0  0  0  0  0  0
    6.9648  -20.4020   25.4494 C   0  0  0  0  0  0  0  0  0  0  0  0
    5.9997  -20.2757   24.6648 O   0  0  0  0  0  0  0  0  0  0  0  0
   10.3397  -18.1897   23.6962 C   0  0  0  0  0  0  0  0  0  0  0  0
   10.5395  -19.0455   22.7693 O   0  0  0  0  0  0  0  0  0  0  0  0
    6.8850  -21.3598   26.4315 O   0  0  0  0  0  0  0  0  0  0  0  0
   15.7220  -15.4205   18.7332 N   0  0  0  0  0  0  0  0  0  0  0  0
   14.4967  -14.7600   19.0513 C   0  0  0  0  0  0  0  0  0  0  0  0
   14.0567  -13.7673   18.3729 N   0  0  0  0  0  0  0  0  0  0  0  0
   13.7189  -15.2117   20.1675 N   0  0  0  0  0  0  0  0  0  0  0  0
   14.1727  -15.1607   21.5405 C   0  0  0  0  0  0  0  0  0  0  0  0
   13.9894  -16.4753   22.2162 C   0  0  0  0  0  0  0  0  0  0  0  0
   12.8174  -16.6172   23.0872 C   0  0  0  0  0  0  0  0  0  0  0  0
   12.8106  -17.7722   24.0289 C   0  0  2  0  0  0  0  0  0  0  0  0
   11.4224  -17.8728   24.5230 N   0  0  0  0  0  0  0  0  0  0  0  0
   13.7034  -17.5798   25.1931 C   0  0  0  0  0  0  0  0  0  0  0  0
   15.0443  -17.9277   25.0859 O   0  0  0  0  0  0  0  0  0  0  0  0
   13.3290  -17.1134   26.2992 O   0  0  0  0  0  0  0  0  0  0  0  0
  2  4  1  0
  2  3  1  1
  2  1  1  0
  5  6  1  1
  5  4  1  0
  7  5  1  0
  8  7  2  0
  9  7  1  0
 10 15  1  0
 10  9  1  0
 10 11  1  6
 12 11  1  0
 13 12  1  0
 14 13  2  0
 15 16  2  0
 17 13  1  0
 18 19  1  0
 19 21  1  0
 20 19  2  0
 21 22  1  0
 23 24  1  0
 23 22  1  0
 25 24  1  6
 25 27  1  0
 26 25  1  0
 26 15  1  0
 27 29  2  0
 27 28  1  0
M  END
$$$$
