LER.pdb
     RDKit          3D

 29 28  0  0  1  0  0  0  0  0999 V2000
    7.9409  -12.0956   19.9384 C   0  0  0  0  0  0  0  0  0  0  0  0
    7.8606  -13.2924   19.0262 C   0  0  2  0  0  0  0  0  0  0  0  0
    6.4647  -13.2665   18.3882 C   0  0  0  0  0  0  0  0  0  0  0  0
    8.0622  -14.6061   19.7529 C   0  0  0  0  0  0  0  0  0  0  0  0
    9.3612  -14.6454   20.4976 C   0  0  2  0  0  0  0  0  0  0  0  0
   10.3595  -13.8332   19.8599 N   0  0  0  0  0  0  0  0  0  0  0  0
    9.8342  -16.0579   20.5707 C   0  0  0  0  0  0  0  0  0  0  0  0
    9.0565  -16.9947   20.9094 O   0  0  0  0  0  0  0  0  0  0  0  0
   11.1621  -16.3995   20.2659 N   0  0  0  0  0  0  0  0  0  0  0  0
   11.6875  -17.7755   20.4363 C   0  0  1  0  0  0  0  0  0  0  0  0
   12.8588  -17.8510   19.5196 C   0  0  0  0  0  0  0  0  0  0  0  0
   13.5878  -19.1406   19.4534 C   0  0  0  0  0  0  0  0  0  0  0  0
   14.7214  -18.9973   18.4673 C   0  0  0  0  0  0  0  0  0  0  0  0
   14.6238  -19.5383   17.3445 O   0  0  0  0  0  0  0  0  0  0  0  0
   11.9744  -18.0232   21.8595 C   0  0  0  0  0  0  0  0  0  0  0  0
   12.5226  -19.1359   22.1641 O   0  0  0  0  0  0  0  0  0  0  0  0
   15.8654  -18.2919   18.7534 O   0  0  0  0  0  0  0  0  0  0  0  0
    9.6643  -13.8065   29.4069 N   0  0  0  0  0  0  0  0  0  0  0  0
   10.6393  -14.7861   29.7656 C   0  0  0  0  0  0  0  0  0  0  0  0
   10.9964  -14.9857   30.9789 N   0  0  0  0  0  0  0  0  0  0  0  0
   11.2503  -15.5832   28.7429 N   0  0  0  0  0  0  0  0  0  0  0  0
   11.0055  -15.4061   27.3278 C   0  0  0  0  0  0  0  0  0  0  0  0
   11.9656  -16.2014   26.5128 C   0  0  0  0  0  0  0  0  0  0  0  0
   11.7908  -16.1648   25.0566 C   0  0  0  0  0  0  0  0  0  0  0  0
   11.9746  -17.4477   24.3209 C   0  0  2  0  0  0  0  0  0  0  0  0
   11.6971  -17.1357   22.9043 N   0  0  0  0  0  0  0  0  0  0  0  0
   11.0366  -18.5070   24.7539 C   0  0  0  0  0  0  0  0  0  0  0  0
   11.4261  -19.3939   25.7501 O   0  0  0  0  0  0  0  0  0  0  0  0
    9.8851  -18.6677   24.2752 O   0  0  0  0  0  0  0  0  0  0  0  0
  2  4  1  0
  2  3  1  1
  2  1  1  0
  5  6  1  6
  5  4  1  0
  7  5  1  0
  8  7  2  0
  9  7  1  0
 10 15  1  0
 10  9  1  0
 10 11  1  6
 12 11  1  0
 13 12  1  0
 14 13  2  0
 15 16  2  0
 17 13  1  0
 18 19  1  0
 19 21  1  0
 20 19  2  0
 21 22  1  0
 23 24  1  0
 23 22  1  0
 25 24  1  1
 25 27  1  0
 26 25  1  0
 26 15  1  0
 27 29  2  0
 27 28  1  0
M  END
$$$$
