LER.pdb
     RDKit          3D

 29 28  0  0  1  0  0  0  0  0999 V2000
    7.7272  -12.1392   18.4027 C   0  0  0  0  0  0  0  0  0  0  0  0
    7.6315  -13.2394   19.4280 C   0  0  2  0  0  0  0  0  0  0  0  0
    7.0835  -12.5989   20.7108 C   0  0  0  0  0  0  0  0  0  0  0  0
    8.9651  -13.8964   19.7185 C   0  0  0  0  0  0  0  0  0  0  0  0
    9.5229  -14.5962   18.5173 C   0  0  2  0  0  0  0  0  0  0  0  0
    8.6097  -15.5818   18.0096 N   0  0  0  0  0  0  0  0  0  0  0  0
   10.8100  -15.2497   18.8925 C   0  0  0  0  0  0  0  0  0  0  0  0
   10.8347  -16.3977   19.4202 O   0  0  0  0  0  0  0  0  0  0  0  0
   12.0426  -14.6131   18.6733 N   0  0  0  0  0  0  0  0  0  0  0  0
   13.3348  -15.2297   19.0590 C   0  0  1  0  0  0  0  0  0  0  0  0
   14.3415  -14.5917   18.1660 C   0  0  0  0  0  0  0  0  0  0  0  0
   15.7684  -14.9113   18.4132 C   0  0  0  0  0  0  0  0  0  0  0  0
   16.6097  -14.1154   17.4454 C   0  0  0  0  0  0  0  0  0  0  0  0
   16.7589  -14.5376   16.2782 O   0  0  0  0  0  0  0  0  0  0  0  0
   13.5580  -15.0489   20.5035 C   0  0  0  0  0  0  0  0  0  0  0  0
   13.4314  -13.8687   20.9752 O   0  0  0  0  0  0  0  0  0  0  0  0
   17.2237  -12.9369   17.7954 O   0  0  0  0  0  0  0  0  0  0  0  0
   10.5923  -15.6537   27.3411 N   0  0  0  0  0  0  0  0  0  0  0  0
   11.6672  -16.3766   27.9417 C   0  0  0  0  0  0  0  0  0  0  0  0
   12.0410  -16.1720   29.1491 N   0  0  0  0  0  0  0  0  0  0  0  0
   12.3641  -17.3707   27.1794 N   0  0  0  0  0  0  0  0  0  0  0  0
   12.2317  -17.5285   25.7472 C   0  0  0  0  0  0  0  0  0  0  0  0
   13.1029  -16.5656   25.0177 C   0  0  0  0  0  0  0  0  0  0  0  0
   13.1579  -16.6938   23.5572 C   0  0  0  0  0  0  0  0  0  0  0  0
   14.1342  -15.8271   22.8386 C   0  0  2  0  0  0  0  0  0  0  0  0
   13.8947  -16.0672   21.4011 N   0  0  0  0  0  0  0  0  0  0  0  0
   15.5435  -16.1663   23.1360 C   0  0  0  0  0  0  0  0  0  0  0  0
   16.3267  -16.7452   22.1449 O   0  0  0  0  0  0  0  0  0  0  0  0
   16.0980  -15.9644   24.2462 O   0  0  0  0  0  0  0  0  0  0  0  0
  2  4  1  0
  2  3  1  1
  2  1  1  0
  5  6  1  1
  5  4  1  0
  7  5  1  0
  8  7  2  0
  9  7  1  0
 10 15  1  0
 10  9  1  0
 10 11  1  6
 12 11  1  0
 13 12  1  0
 14 13  2  0
 15 16  2  0
 17 13  1  0
 18 19  1  0
 19 21  1  0
 20 19  2  0
 21 22  1  0
 23 24  1  0
 23 22  1  0
 25 24  1  1
 25 27  1  0
 26 25  1  0
 26 15  1  0
 27 29  2  0
 27 28  1  0
M  END
$$$$
