LER.pdb
     RDKit          3D

 29 28  0  0  1  0  0  0  0  0999 V2000
    8.3333  -13.0774   18.4464 C   0  0  0  0  0  0  0  0  0  0  0  0
    7.5432  -13.6460   19.5968 C   0  0  2  0  0  0  0  0  0  0  0  0
    7.1938  -12.4673   20.5159 C   0  0  0  0  0  0  0  0  0  0  0  0
    8.3079  -14.6920   20.3814 C   0  0  0  0  0  0  0  0  0  0  0  0
    8.7099  -15.8554   19.5278 C   0  0  2  0  0  0  0  0  0  0  0  0
    7.5885  -16.7007   19.2262 N   0  0  0  0  0  0  0  0  0  0  0  0
    9.7544  -16.6429   20.2443 C   0  0  0  0  0  0  0  0  0  0  0  0
    9.4473  -17.4798   21.1401 O   0  0  0  0  0  0  0  0  0  0  0  0
   11.1184  -16.4834   19.9501 N   0  0  0  0  0  0  0  0  0  0  0  0
   12.1667  -17.3417   20.5527 C   0  0  1  0  0  0  0  0  0  0  0  0
   13.2690  -17.3544   19.5513 C   0  0  0  0  0  0  0  0  0  0  0  0
   14.4926  -18.1173   19.8975 C   0  0  0  0  0  0  0  0  0  0  0  0
   15.5060  -17.9179   18.7970 C   0  0  0  0  0  0  0  0  0  0  0  0
   16.5966  -17.3689   19.0656 O   0  0  0  0  0  0  0  0  0  0  0  0
   12.5221  -16.8267   21.8860 C   0  0  0  0  0  0  0  0  0  0  0  0
   12.6416  -15.5616   22.0153 O   0  0  0  0  0  0  0  0  0  0  0  0
   15.2793  -18.3174   17.5019 O   0  0  0  0  0  0  0  0  0  0  0  0
   12.2129  -20.7236   30.0177 N   0  0  0  0  0  0  0  0  0  0  0  0
   12.9135  -19.4887   30.1700 C   0  0  0  0  0  0  0  0  0  0  0  0
   13.3547  -19.0858   31.3024 N   0  0  0  0  0  0  0  0  0  0  0  0
   13.1394  -18.6579   29.0239 N   0  0  0  0  0  0  0  0  0  0  0  0
   12.6193  -18.9447   27.7044 C   0  0  0  0  0  0  0  0  0  0  0  0
   13.0160  -17.8906   26.7297 C   0  0  0  0  0  0  0  0  0  0  0  0
   12.6100  -18.0893   25.3340 C   0  0  0  0  0  0  0  0  0  0  0  0
   13.0157  -17.0407   24.3559 C   0  0  2  0  0  0  0  0  0  0  0  0
   12.7364  -17.6123   23.0230 N   0  0  0  0  0  0  0  0  0  0  0  0
   14.4556  -16.7066   24.4237 C   0  0  0  0  0  0  0  0  0  0  0  0
   15.3434  -17.3502   23.5704 O   0  0  0  0  0  0  0  0  0  0  0  0
   14.9469  -15.8627   25.2158 O   0  0  0  0  0  0  0  0  0  0  0  0
  2  4  1  0
  2  3  1  1
  2  1  1  0
  5  6  1  1
  5  4  1  0
  7  5  1  0
  8  7  2  0
  9  7  1  0
 10 15  1  0
 10  9  1  0
 10 11  1  6
 12 11  1  0
 13 12  1  0
 14 13  2  0
 15 16  2  0
 17 13  1  0
 18 19  1  0
 19 21  1  0
 20 19  2  0
 21 22  1  0
 23 24  1  0
 23 22  1  0
 25 24  1  1
 25 27  1  0
 26 25  1  0
 26 15  1  0
 27 29  2  0
 27 28  1  0
M  END
$$$$
