LER.pdb
     RDKit          3D

 29 28  0  0  1  0  0  0  0  0999 V2000
    7.7734  -13.1767   18.3460 C   0  0  0  0  0  0  0  0  0  0  0  0
    7.4243  -13.3928   19.7959 C   0  0  2  0  0  0  0  0  0  0  0  0
    7.4780  -12.0154   20.4714 C   0  0  0  0  0  0  0  0  0  0  0  0
    8.3739  -14.3403   20.4994 C   0  0  0  0  0  0  0  0  0  0  0  0
    8.3776  -15.7020   19.8751 C   0  0  2  0  0  0  0  0  0  0  0  0
    7.0865  -16.3253   19.9614 N   0  0  0  0  0  0  0  0  0  0  0  0
    9.3917  -16.5486   20.5674 C   0  0  0  0  0  0  0  0  0  0  0  0
    9.2218  -16.9359   21.7583 O   0  0  0  0  0  0  0  0  0  0  0  0
   10.5734  -16.9470   19.9213 N   0  0  0  0  0  0  0  0  0  0  0  0
   11.6082  -17.7689   20.5938 C   0  0  1  0  0  0  0  0  0  0  0  0
   12.4355  -18.3199   19.4848 C   0  0  0  0  0  0  0  0  0  0  0  0
   13.6484  -19.0869   19.8583 C   0  0  0  0  0  0  0  0  0  0  0  0
   13.2929  -20.5534   19.8935 C   0  0  0  0  0  0  0  0  0  0  0  0
   12.6865  -21.0564   18.9229 O   0  0  0  0  0  0  0  0  0  0  0  0
   12.3296  -16.9466   21.5799 C   0  0  0  0  0  0  0  0  0  0  0  0
   12.7146  -15.7864   21.2095 O   0  0  0  0  0  0  0  0  0  0  0  0
   13.6100  -21.3656   20.9555 O   0  0  0  0  0  0  0  0  0  0  0  0
    9.8093  -16.2922   29.3816 N   0  0  0  0  0  0  0  0  0  0  0  0
   10.5127  -15.0900   29.0678 C   0  0  0  0  0  0  0  0  0  0  0  0
   10.0843  -13.9344   29.4149 N   0  0  0  0  0  0  0  0  0  0  0  0
   11.7445  -15.1612   28.3381 N   0  0  0  0  0  0  0  0  0  0  0  0
   12.1340  -16.2902   27.5210 C   0  0  0  0  0  0  0  0  0  0  0  0
   12.5475  -15.8507   26.1593 C   0  0  0  0  0  0  0  0  0  0  0  0
   12.8968  -16.9031   25.1987 C   0  0  0  0  0  0  0  0  0  0  0  0
   13.3409  -16.4635   23.8458 C   0  0  2  0  0  0  0  0  0  0  0  0
   12.6245  -17.3335   22.8912 N   0  0  0  0  0  0  0  0  0  0  0  0
   14.7943  -16.6334   23.6260 C   0  0  0  0  0  0  0  0  0  0  0  0
   15.6463  -15.5602   23.8562 O   0  0  0  0  0  0  0  0  0  0  0  0
   15.3281  -17.7033   23.2369 O   0  0  0  0  0  0  0  0  0  0  0  0
  2  4  1  0
  2  3  1  1
  2  1  1  0
  5  6  1  1
  5  4  1  0
  7  5  1  0
  8  7  2  0
  9  7  1  0
 10 15  1  0
 10  9  1  0
 10 11  1  6
 12 11  1  0
 13 12  1  0
 14 13  2  0
 15 16  2  0
 17 13  1  0
 18 19  1  0
 19 21  1  0
 20 19  2  0
 21 22  1  0
 23 24  1  0
 23 22  1  0
 25 24  1  1
 25 27  1  0
 26 25  1  0
 26 15  1  0
 27 29  2  0
 27 28  1  0
M  END
$$$$
