LER.pdb
     RDKit          3D

 29 28  0  0  1  0  0  0  0  0999 V2000
    8.2633  -13.2973   19.0323 C   0  0  0  0  0  0  0  0  0  0  0  0
    7.3982  -13.3899   20.2627 C   0  0  2  0  0  0  0  0  0  0  0  0
    7.2988  -11.9704   20.8385 C   0  0  0  0  0  0  0  0  0  0  0  0
    7.9600  -14.3255   21.3132 C   0  0  0  0  0  0  0  0  0  0  0  0
    8.1296  -15.7202   20.7939 C   0  0  2  0  0  0  0  0  0  0  0  0
    6.8644  -16.3245   20.4823 N   0  0  0  0  0  0  0  0  0  0  0  0
    8.8366  -16.5366   21.8225 C   0  0  0  0  0  0  0  0  0  0  0  0
    8.2248  -17.0050   22.8242 O   0  0  0  0  0  0  0  0  0  0  0  0
   10.2091  -16.8153   21.7159 N   0  0  0  0  0  0  0  0  0  0  0  0
   10.9364  -17.6227   22.7247 C   0  0  1  0  0  0  0  0  0  0  0  0
   12.2472  -17.9329   22.0894 C   0  0  0  0  0  0  0  0  0  0  0  0
   13.2366  -18.6803   22.9029 C   0  0  0  0  0  0  0  0  0  0  0  0
   14.4839  -18.8754   22.0758 C   0  0  0  0  0  0  0  0  0  0  0  0
   14.8157  -20.0324   21.7381 O   0  0  0  0  0  0  0  0  0  0  0  0
   11.0032  -16.8828   23.9964 C   0  0  0  0  0  0  0  0  0  0  0  0
   11.6038  -15.7555   23.9903 O   0  0  0  0  0  0  0  0  0  0  0  0
   15.2766  -17.8270   21.6750 O   0  0  0  0  0  0  0  0  0  0  0  0
    7.4373  -11.5049   24.5537 N   0  0  0  0  0  0  0  0  0  0  0  0
    7.0452  -12.3319   25.6497 C   0  0  0  0  0  0  0  0  0  0  0  0
    5.9277  -12.1818   26.2564 N   0  0  0  0  0  0  0  0  0  0  0  0
    7.9225  -13.3723   26.0998 N   0  0  0  0  0  0  0  0  0  0  0  0
    8.6119  -13.3521   27.3719 C   0  0  0  0  0  0  0  0  0  0  0  0
    9.5011  -14.5378   27.5200 C   0  0  0  0  0  0  0  0  0  0  0  0
    9.6239  -15.4256   26.3585 C   0  0  0  0  0  0  0  0  0  0  0  0
   10.5919  -16.5533   26.4687 C   0  0  2  0  0  0  0  0  0  0  0  0
   10.4588  -17.3146   25.2101 N   0  0  0  0  0  0  0  0  0  0  0  0
   10.2970  -17.4662   27.5952 C   0  0  0  0  0  0  0  0  0  0  0  0
    9.8593  -18.7574   27.3268 O   0  0  0  0  0  0  0  0  0  0  0  0
   10.4161  -17.1522   28.8069 O   0  0  0  0  0  0  0  0  0  0  0  0
  2  4  1  0
  2  3  1  1
  2  1  1  0
  5  6  1  1
  5  4  1  0
  7  5  1  0
  8  7  2  0
  9  7  1  0
 10 15  1  0
 10  9  1  0
 10 11  1  6
 12 11  1  0
 13 12  1  0
 14 13  2  0
 15 16  2  0
 17 13  1  0
 18 19  1  0
 19 21  1  0
 20 19  2  0
 21 22  1  0
 23 24  1  0
 23 22  1  0
 25 24  1  6
 25 27  1  0
 26 25  1  0
 26 15  1  0
 27 29  2  0
 27 28  1  0
M  END
$$$$
