LER.pdb
     RDKit          3D

 29 28  0  0  1  0  0  0  0  0999 V2000
    8.8179  -11.7256   19.6194 C   0  0  0  0  0  0  0  0  0  0  0  0
    8.1020  -12.9779   19.1835 C   0  0  2  0  0  0  0  0  0  0  0  0
    6.6158  -12.6145   19.0595 C   0  0  0  0  0  0  0  0  0  0  0  0
    8.2644  -14.1241   20.1604 C   0  0  0  0  0  0  0  0  0  0  0  0
    9.7044  -14.4242   20.4438 C   0  0  2  0  0  0  0  0  0  0  0  0
   10.5036  -14.3463   19.2528 N   0  0  0  0  0  0  0  0  0  0  0  0
    9.8072  -15.7920   21.0294 C   0  0  0  0  0  0  0  0  0  0  0  0
    8.9193  -16.2419   21.8080 O   0  0  0  0  0  0  0  0  0  0  0  0
   10.8950  -16.6309   20.7371 N   0  0  0  0  0  0  0  0  0  0  0  0
   11.0800  -17.9488   21.3911 C   0  0  1  0  0  0  0  0  0  0  0  0
   12.1270  -18.6311   20.5810 C   0  0  0  0  0  0  0  0  0  0  0  0
   11.8543  -18.8160   19.1352 C   0  0  0  0  0  0  0  0  0  0  0  0
   13.1706  -18.8070   18.3968 C   0  0  0  0  0  0  0  0  0  0  0  0
   14.2260  -18.6054   19.0361 O   0  0  0  0  0  0  0  0  0  0  0  0
   11.4014  -17.7540   22.8151 C   0  0  0  0  0  0  0  0  0  0  0  0
   12.5864  -17.3748   23.1042 O   0  0  0  0  0  0  0  0  0  0  0  0
   13.2593  -19.0128   17.0411 O   0  0  0  0  0  0  0  0  0  0  0  0
   12.0233  -15.6116   28.9124 N   0  0  0  0  0  0  0  0  0  0  0  0
   10.9908  -14.9275   29.6229 C   0  0  0  0  0  0  0  0  0  0  0  0
   11.1197  -14.5727   30.8464 N   0  0  0  0  0  0  0  0  0  0  0  0
    9.7591  -14.6192   28.9576 N   0  0  0  0  0  0  0  0  0  0  0  0
    9.4910  -14.9324   27.5706 C   0  0  0  0  0  0  0  0  0  0  0  0
   10.2941  -16.1027   27.1191 C   0  0  0  0  0  0  0  0  0  0  0  0
   10.0952  -16.5518   25.7367 C   0  0  0  0  0  0  0  0  0  0  0  0
   10.8846  -17.7340   25.2895 C   0  0  2  0  0  0  0  0  0  0  0  0
   10.5117  -17.9484   23.8765 N   0  0  0  0  0  0  0  0  0  0  0  0
   10.5663  -18.9664   26.0441 C   0  0  0  0  0  0  0  0  0  0  0  0
   11.1985  -19.2015   27.2589 O   0  0  0  0  0  0  0  0  0  0  0  0
    9.7460  -19.8375   25.6579 O   0  0  0  0  0  0  0  0  0  0  0  0
  2  4  1  0
  2  3  1  1
  2  1  1  0
  5  6  1  6
  5  4  1  0
  7  5  1  0
  8  7  2  0
  9  7  1  0
 10 15  1  0
 10  9  1  0
 10 11  1  6
 12 11  1  0
 13 12  1  0
 14 13  2  0
 15 16  2  0
 17 13  1  0
 18 19  1  0
 19 21  1  0
 20 19  2  0
 21 22  1  0
 23 24  1  0
 23 22  1  0
 25 24  1  1
 25 27  1  0
 26 25  1  0
 26 15  1  0
 27 29  2  0
 27 28  1  0
M  END
$$$$
