LER.pdb
     RDKit          3D

 29 28  0  0  1  0  0  0  0  0999 V2000
    7.8641  -15.4055   18.2058 C   0  0  0  0  0  0  0  0  0  0  0  0
    8.3717  -16.8206   18.3098 C   0  0  2  0  0  0  0  0  0  0  0  0
    9.2213  -17.0764   17.0573 C   0  0  0  0  0  0  0  0  0  0  0  0
    7.2587  -17.8453   18.3862 C   0  0  0  0  0  0  0  0  0  0  0  0
    7.7834  -19.2346   18.5822 C   0  0  2  0  0  0  0  0  0  0  0  0
    6.7400  -20.2143   18.4616 N   0  0  0  0  0  0  0  0  0  0  0  0
    8.4081  -19.3295   19.9332 C   0  0  0  0  0  0  0  0  0  0  0  0
    7.7641  -19.0271   20.9777 O   0  0  0  0  0  0  0  0  0  0  0  0
    9.7356  -19.7587   20.0947 N   0  0  0  0  0  0  0  0  0  0  0  0
   10.3978  -19.8111   21.4204 C   0  0  1  0  0  0  0  0  0  0  0  0
   11.3996  -20.9067   21.3014 C   0  0  0  0  0  0  0  0  0  0  0  0
   12.2921  -21.1402   22.4624 C   0  0  0  0  0  0  0  0  0  0  0  0
   13.1966  -22.3051   22.1416 C   0  0  0  0  0  0  0  0  0  0  0  0
   14.0561  -22.1791   21.2426 O   0  0  0  0  0  0  0  0  0  0  0  0
   10.9411  -18.4837   21.7552 C   0  0  0  0  0  0  0  0  0  0  0  0
   11.5993  -17.8714   20.8478 O   0  0  0  0  0  0  0  0  0  0  0  0
   13.1149  -23.5080   22.8009 O   0  0  0  0  0  0  0  0  0  0  0  0
    6.9433  -11.7399   21.2660 N   0  0  0  0  0  0  0  0  0  0  0  0
    7.3019  -12.7750   20.3501 C   0  0  0  0  0  0  0  0  0  0  0  0
    6.6809  -12.9586   19.2455 N   0  0  0  0  0  0  0  0  0  0  0  0
    8.3938  -13.6494   20.6632 N   0  0  0  0  0  0  0  0  0  0  0  0
    8.7526  -14.0421   22.0089 C   0  0  0  0  0  0  0  0  0  0  0  0
    9.8356  -15.0644   21.9995 C   0  0  0  0  0  0  0  0  0  0  0  0
   10.3048  -15.5477   23.3029 C   0  0  0  0  0  0  0  0  0  0  0  0
   11.4187  -16.5376   23.2961 C   0  0  2  0  0  0  0  0  0  0  0  0
   10.7913  -17.8384   22.9869 N   0  0  0  0  0  0  0  0  0  0  0  0
   12.1035  -16.6530   24.6027 C   0  0  0  0  0  0  0  0  0  0  0  0
   13.1231  -15.7628   24.9165 O   0  0  0  0  0  0  0  0  0  0  0  0
   11.8239  -17.5183   25.4712 O   0  0  0  0  0  0  0  0  0  0  0  0
  2  4  1  0
  2  3  1  6
  2  1  1  0
  5  6  1  1
  5  4  1  0
  7  5  1  0
  8  7  2  0
  9  7  1  0
 10 15  1  0
 10  9  1  0
 10 11  1  6
 12 11  1  0
 13 12  1  0
 14 13  2  0
 15 16  2  0
 17 13  1  0
 18 19  1  0
 19 21  1  0
 20 19  2  0
 21 22  1  0
 23 24  1  0
 23 22  1  0
 25 24  1  1
 25 27  1  0
 26 25  1  0
 26 15  1  0
 27 29  2  0
 27 28  1  0
M  END
$$$$
