YND.pdb
     RDKit          3D

 29 29  0  0  1  0  0  0  0  0999 V2000
   40.2027  -29.9290  -15.8101 O   0  0  0  0  0  0  0  0  0  0  0  0
   38.9826  -30.4402  -16.1990 C   0  0  0  0  0  0  0  0  0  0  0  0
   38.8201  -31.7755  -16.4859 C   0  0  0  0  0  0  0  0  0  0  0  0
   37.6173  -32.3146  -16.8756 C   0  0  0  0  0  0  0  0  0  0  0  0
   36.4953  -31.5037  -16.9959 C   0  0  0  0  0  0  0  0  0  0  0  0
   35.2305  -32.1212  -17.4232 C   0  0  0  0  0  0  0  0  0  0  0  0
   34.3354  -32.4306  -16.2122 C   0  0  2  0  0  0  0  0  0  0  0  0
   34.8483  -33.5910  -15.5268 N   0  0  0  0  0  0  0  0  0  0  0  0
   32.9767  -32.5640  -16.7347 C   0  0  0  0  0  0  0  0  0  0  0  0
   32.4617  -33.7253  -16.6618 O   0  0  0  0  0  0  0  0  0  0  0  0
   36.6534  -30.1677  -16.7096 C   0  0  0  0  0  0  0  0  0  0  0  0
   37.8568  -29.6262  -16.3191 C   0  0  0  0  0  0  0  0  0  0  0  0
   28.0993  -32.9008  -15.0740 N   0  0  0  0  0  0  0  0  0  0  0  0
   29.0037  -32.8685  -16.1782 C   0  0  0  0  0  0  0  0  0  0  0  0
   28.8558  -33.6358  -17.1508 O   0  0  0  0  0  0  0  0  0  0  0  0
   30.1117  -31.8895  -16.1118 C   0  0  0  0  0  0  0  0  0  0  0  0
   30.7965  -31.7122  -17.4662 C   0  0  2  0  0  0  0  0  0  0  0  0
   32.2109  -31.5113  -17.3040 N   0  0  0  0  0  0  0  0  0  0  0  0
   30.1217  -30.6331  -18.1827 C   0  0  0  0  0  0  0  0  0  0  0  0
   29.5446  -29.6752  -17.6148 O   0  0  0  0  0  0  0  0  0  0  0  0
   30.1011  -30.6429  -19.6055 N   0  0  0  0  0  0  0  0  0  0  0  0
   30.6772  -29.5574  -20.3882 C   0  0  1  0  0  0  0  0  0  0  0  0
   32.1870  -29.5270  -20.1614 C   0  0  0  0  0  0  0  0  0  0  0  0
   32.7309  -28.4033  -20.9524 C   0  0  0  0  0  0  0  0  0  0  0  0
   32.8892  -28.4860  -22.1995 O   0  0  0  0  0  0  0  0  0  0  0  0
   30.4390  -29.8024  -21.8240 C   0  0  0  0  0  0  0  0  0  0  0  0
   30.3216  -30.9747  -22.2452 O   0  0  0  0  0  0  0  0  0  0  0  0
   33.1044  -27.1845  -20.3873 O   0  0  0  0  0  0  0  0  0  0  0  0
   30.3362  -28.7745  -22.7499 O   0  0  0  0  0  0  0  0  0  0  0  0
  2  1  1  0
  3  2  2  0
  4  3  1  0
  5 11  1  0
  5  4  2  0
  6  5  1  0
  7  6  1  0
  7  8  1  6
  9 18  1  0
  9  7  1  0
 10  9  2  0
 11 12  2  0
 12  2  1  0
 13 14  1  0
 14 15  2  0
 16 14  1  0
 17 16  1  1
 17 18  1  0
 19 21  1  0
 19 17  1  0
 20 19  2  0
 22 21  1  0
 22 26  1  0
 23 24  1  0
 22 23  1  6
 24 25  2  0
 26 29  1  0
 27 26  2  0
 28 24  1  0
M  END
$$$$
