YND.pdb
     RDKit          3D

 29 29  0  0  1  0  0  0  0  0999 V2000
   30.5980  -34.2953  -16.5327 O   0  0  0  0  0  0  0  0  0  0  0  0
   30.1631  -32.9945  -16.6744 C   0  0  0  0  0  0  0  0  0  0  0  0
   30.0019  -32.4204  -17.9138 C   0  0  0  0  0  0  0  0  0  0  0  0
   29.5701  -31.1271  -18.0873 C   0  0  0  0  0  0  0  0  0  0  0  0
   29.2748  -30.3360  -16.9837 C   0  0  0  0  0  0  0  0  0  0  0  0
   28.8233  -28.9554  -17.2155 C   0  0  0  0  0  0  0  0  0  0  0  0
   27.3622  -28.7753  -16.7725 C   0  0  2  0  0  0  0  0  0  0  0  0
   26.5292  -29.7053  -17.4939 N   0  0  0  0  0  0  0  0  0  0  0  0
   27.0459  -27.3632  -16.9797 C   0  0  0  0  0  0  0  0  0  0  0  0
   27.0559  -26.9599  -18.1866 O   0  0  0  0  0  0  0  0  0  0  0  0
   29.4345  -30.9063  -15.7423 C   0  0  0  0  0  0  0  0  0  0  0  0
   29.8664  -32.2011  -15.5667 C   0  0  0  0  0  0  0  0  0  0  0  0
   26.5961  -22.2997  -17.7120 N   0  0  0  0  0  0  0  0  0  0  0  0
   25.9502  -23.4943  -18.1524 C   0  0  0  0  0  0  0  0  0  0  0  0
   24.9195  -23.4449  -18.8536 O   0  0  0  0  0  0  0  0  0  0  0  0
   26.5589  -24.7791  -17.7406 C   0  0  0  0  0  0  0  0  0  0  0  0
   26.1408  -25.1797  -16.3266 C   0  0  2  0  0  0  0  0  0  0  0  0
   26.7356  -26.4336  -15.9511 N   0  0  0  0  0  0  0  0  0  0  0  0
   24.6817  -25.1711  -16.2607 C   0  0  0  0  0  0  0  0  0  0  0  0
   23.9881  -24.1287  -16.3344 O   0  0  0  0  0  0  0  0  0  0  0  0
   23.9805  -26.3993  -16.1037 N   0  0  0  0  0  0  0  0  0  0  0  0
   22.5246  -26.4547  -16.0900 C   0  0  1  0  0  0  0  0  0  0  0  0
   21.9936  -25.9200  -17.4181 C   0  0  0  0  0  0  0  0  0  0  0  0
   20.5216  -26.0493  -17.3905 C   0  0  0  0  0  0  0  0  0  0  0  0
   19.8838  -26.1340  -16.3073 O   0  0  0  0  0  0  0  0  0  0  0  0
   22.0843  -27.8571  -15.9569 C   0  0  0  0  0  0  0  0  0  0  0  0
   20.8698  -28.1175  -15.8058 O   0  0  0  0  0  0  0  0  0  0  0  0
   19.7386  -26.0865  -18.5436 O   0  0  0  0  0  0  0  0  0  0  0  0
   22.9699  -28.9243  -15.9923 O   0  0  0  0  0  0  0  0  0  0  0  0
  2  1  1  0
  3  2  2  0
  4  3  1  0
  5 11  1  0
  5  4  2  0
  6  5  1  0
  7  6  1  0
  7  8  1  6
  9 18  1  0
  9  7  1  0
 10  9  2  0
 11 12  2  0
 12  2  1  0
 13 14  1  0
 14 15  2  0
 16 14  1  0
 17 16  1  6
 17 18  1  0
 19 21  1  0
 19 17  1  0
 20 19  2  0
 22 21  1  0
 22 26  1  0
 23 24  1  0
 22 23  1  6
 24 25  2  0
 26 29  1  0
 27 26  2  0
 28 24  1  0
M  END
$$$$
