YND.pdb
     RDKit          3D

 29 29  0  0  1  0  0  0  0  0999 V2000
   16.3758  -16.4782  -20.6046 O   0  0  0  0  0  0  0  0  0  0  0  0
   17.2155  -15.6702  -19.8675 C   0  0  0  0  0  0  0  0  0  0  0  0
   16.9127  -15.3047  -18.5766 C   0  0  0  0  0  0  0  0  0  0  0  0
   17.7290  -14.5013  -17.8170 C   0  0  0  0  0  0  0  0  0  0  0  0
   18.9203  -14.0186  -18.3449 C   0  0  0  0  0  0  0  0  0  0  0  0
   19.7595  -13.1558  -17.4994 C   0  0  0  0  0  0  0  0  0  0  0  0
   21.0054  -13.9124  -17.0110 C   0  0  2  0  0  0  0  0  0  0  0  0
   20.5957  -15.0049  -16.1636 N   0  0  0  0  0  0  0  0  0  0  0  0
   21.8625  -12.9148  -16.3729 C   0  0  0  0  0  0  0  0  0  0  0  0
   21.5951  -12.6433  -15.1588 O   0  0  0  0  0  0  0  0  0  0  0  0
   19.2271  -14.3818  -19.6356 C   0  0  0  0  0  0  0  0  0  0  0  0
   18.4111  -15.1864  -20.3976 C   0  0  0  0  0  0  0  0  0  0  0  0
   27.3530  -10.6486  -15.5011 N   0  0  0  0  0  0  0  0  0  0  0  0
   25.9307  -10.5252  -15.5036 C   0  0  0  0  0  0  0  0  0  0  0  0
   25.3636   -9.6289  -14.8466 O   0  0  0  0  0  0  0  0  0  0  0  0
   25.1722  -11.5021  -16.3166 C   0  0  0  0  0  0  0  0  0  0  0  0
   23.6657  -11.2582  -16.2404 C   0  0  2  0  0  0  0  0  0  0  0  0
   22.9469  -12.2447  -17.0001 N   0  0  0  0  0  0  0  0  0  0  0  0
   23.4030   -9.8824  -16.6543 C   0  0  0  0  0  0  0  0  0  0  0  0
   23.9379   -9.3417  -17.6516 O   0  0  0  0  0  0  0  0  0  0  0  0
   22.4942   -9.0864  -15.9025 N   0  0  0  0  0  0  0  0  0  0  0  0
   22.1936   -7.7096  -16.2725 C   0  0  1  0  0  0  0  0  0  0  0  0
   20.9321   -7.6893  -17.1326 C   0  0  0  0  0  0  0  0  0  0  0  0
   19.8515   -8.3230  -16.3484 C   0  0  0  0  0  0  0  0  0  0  0  0
   19.6617   -9.5683  -16.3671 O   0  0  0  0  0  0  0  0  0  0  0  0
   21.9261   -6.9178  -15.0559 C   0  0  0  0  0  0  0  0  0  0  0  0
   21.7052   -5.6896  -15.1477 O   0  0  0  0  0  0  0  0  0  0  0  0
   18.9733   -7.6018  -15.5403 O   0  0  0  0  0  0  0  0  0  0  0  0
   21.9068   -7.4804  -13.7881 O   0  0  0  0  0  0  0  0  0  0  0  0
  2  1  1  0
  3  2  2  0
  4  3  1  0
  5 11  1  0
  5  4  2  0
  6  5  1  0
  7  6  1  0
  7  8  1  1
  9 18  1  0
  9  7  1  0
 10  9  2  0
 11 12  2  0
 12  2  1  0
 13 14  1  0
 14 15  2  0
 16 14  1  0
 17 16  1  6
 17 18  1  0
 19 21  1  0
 19 17  1  0
 20 19  2  0
 22 21  1  0
 22 26  1  0
 23 24  1  0
 22 23  1  6
 24 25  2  0
 26 29  1  0
 27 26  2  0
 28 24  1  0
M  END
$$$$
