YND.pdb
     RDKit          3D

 29 29  0  0  1  0  0  0  0  0999 V2000
   26.8005  -16.5034  -20.3985 O   0  0  0  0  0  0  0  0  0  0  0  0
   25.7621  -16.3953  -19.4979 C   0  0  0  0  0  0  0  0  0  0  0  0
   25.1785  -15.1826  -19.2143 C   0  0  0  0  0  0  0  0  0  0  0  0
   24.1423  -15.0429  -18.3221 C   0  0  0  0  0  0  0  0  0  0  0  0
   23.6375  -16.1548  -17.6591 C   0  0  0  0  0  0  0  0  0  0  0  0
   22.5335  -15.9582  -16.7072 C   0  0  0  0  0  0  0  0  0  0  0  0
   21.2393  -15.5721  -17.4416 C   0  0  2  0  0  0  0  0  0  0  0  0
   21.1646  -14.1361  -17.5492 N   0  0  0  0  0  0  0  0  0  0  0  0
   20.1479  -16.2002  -16.6990 C   0  0  0  0  0  0  0  0  0  0  0  0
   19.7795  -15.6041  -15.6369 O   0  0  0  0  0  0  0  0  0  0  0  0
   24.2182  -17.3697  -17.9400 C   0  0  0  0  0  0  0  0  0  0  0  0
   25.2555  -17.5115  -18.8331 C   0  0  0  0  0  0  0  0  0  0  0  0
   16.2966  -18.7549  -14.8112 N   0  0  0  0  0  0  0  0  0  0  0  0
   16.0208  -18.5486  -16.1967 C   0  0  0  0  0  0  0  0  0  0  0  0
   14.8756  -18.7312  -16.6567 O   0  0  0  0  0  0  0  0  0  0  0  0
   17.1489  -18.1111  -17.0493 C   0  0  0  0  0  0  0  0  0  0  0  0
   18.4207  -17.8780  -16.2350 C   0  0  2  0  0  0  0  0  0  0  0  0
   19.4867  -17.4007  -17.0733 N   0  0  0  0  0  0  0  0  0  0  0  0
   18.7363  -19.1095  -15.5160 C   0  0  0  0  0  0  0  0  0  0  0  0
   19.2794  -20.1065  -16.0490 O   0  0  0  0  0  0  0  0  0  0  0  0
   18.4211  -19.2130  -14.1323 N   0  0  0  0  0  0  0  0  0  0  0  0
   18.7402  -20.4068  -13.3604 C   0  0  1  0  0  0  0  0  0  0  0  0
   18.9779  -20.0099  -11.9052 C   0  0  0  0  0  0  0  0  0  0  0  0
   19.2686  -21.2470  -11.1508 C   0  0  0  0  0  0  0  0  0  0  0  0
   19.2893  -22.3755  -11.7107 O   0  0  0  0  0  0  0  0  0  0  0  0
   17.5962  -21.3388  -13.3954 C   0  0  0  0  0  0  0  0  0  0  0  0
   17.6675  -22.4359  -12.7980 O   0  0  0  0  0  0  0  0  0  0  0  0
   19.5382  -21.2593   -9.7828 O   0  0  0  0  0  0  0  0  0  0  0  0
   16.4199  -21.0520  -14.0724 O   0  0  0  0  0  0  0  0  0  0  0  0
  2  1  1  0
  3  2  2  0
  4  3  1  0
  5 11  1  0
  5  4  2  0
  6  5  1  0
  7  6  1  0
  7  8  1  1
  9 18  1  0
  9  7  1  0
 10  9  2  0
 11 12  2  0
 12  2  1  0
 13 14  1  0
 14 15  2  0
 16 14  1  0
 17 16  1  6
 17 18  1  0
 19 21  1  0
 19 17  1  0
 20 19  2  0
 22 21  1  0
 22 26  1  0
 23 24  1  0
 22 23  1  1
 24 25  2  0
 26 29  1  0
 27 26  2  0
 28 24  1  0
M  END
$$$$
