YND.pdb
     RDKit          3D

 29 29  0  0  1  0  0  0  0  0999 V2000
   13.8084  -10.1574  -21.2596 O   0  0  0  0  0  0  0  0  0  0  0  0
   14.7483   -9.8183  -20.3093 C   0  0  0  0  0  0  0  0  0  0  0  0
   16.0946   -9.8362  -20.5900 C   0  0  0  0  0  0  0  0  0  0  0  0
   17.0548   -9.5035  -19.6646 C   0  0  0  0  0  0  0  0  0  0  0  0
   16.6847   -9.1281  -18.3790 C   0  0  0  0  0  0  0  0  0  0  0  0
   17.7456   -8.7876  -17.4186 C   0  0  0  0  0  0  0  0  0  0  0  0
   18.4495  -10.0552  -16.9078 C   0  0  2  0  0  0  0  0  0  0  0  0
   17.4881  -10.8946  -16.2367 N   0  0  0  0  0  0  0  0  0  0  0  0
   19.5630   -9.5959  -16.0795 C   0  0  0  0  0  0  0  0  0  0  0  0
   19.3259   -9.4899  -14.8338 O   0  0  0  0  0  0  0  0  0  0  0  0
   15.3392   -9.1086  -18.0941 C   0  0  0  0  0  0  0  0  0  0  0  0
   14.3764   -9.4411  -19.0193 C   0  0  0  0  0  0  0  0  0  0  0  0
   22.5811  -11.3891  -15.1238 N   0  0  0  0  0  0  0  0  0  0  0  0
   23.5191  -10.6401  -15.8967 C   0  0  0  0  0  0  0  0  0  0  0  0
   24.5159  -11.1912  -16.4056 O   0  0  0  0  0  0  0  0  0  0  0  0
   23.2513   -9.1938  -16.0627 C   0  0  0  0  0  0  0  0  0  0  0  0
   21.8412   -8.8202  -15.6081 C   0  0  2  0  0  0  0  0  0  0  0  0
   20.8598   -9.2681  -16.5586 N   0  0  0  0  0  0  0  0  0  0  0  0
   21.8081   -7.3825  -15.3531 C   0  0  0  0  0  0  0  0  0  0  0  0
   21.5026   -6.5290  -16.2198 O   0  0  0  0  0  0  0  0  0  0  0  0
   22.1366   -6.8933  -14.0579 N   0  0  0  0  0  0  0  0  0  0  0  0
   22.0574   -5.4757  -13.7309 C   0  0  1  0  0  0  0  0  0  0  0  0
   22.6267   -4.6643  -14.8925 C   0  0  0  0  0  0  0  0  0  0  0  0
   22.5006   -3.2351  -14.5379 C   0  0  0  0  0  0  0  0  0  0  0  0
   22.5616   -2.8408  -13.3428 O   0  0  0  0  0  0  0  0  0  0  0  0
   20.6444   -5.0869  -13.5554 C   0  0  0  0  0  0  0  0  0  0  0  0
   19.7447   -5.9524  -13.6390 O   0  0  0  0  0  0  0  0  0  0  0  0
   22.3078   -2.2296  -15.4845 O   0  0  0  0  0  0  0  0  0  0  0  0
   20.2561   -3.7806  -13.2963 O   0  0  0  0  0  0  0  0  0  0  0  0
  2  1  1  0
  3  2  2  0
  4  3  1  0
  5 11  1  0
  5  4  2  0
  6  5  1  0
  7  6  1  0
  7  8  1  1
  9 18  1  0
  9  7  1  0
 10  9  2  0
 11 12  2  0
 12  2  1  0
 13 14  1  0
 14 15  2  0
 16 14  1  0
 17 16  1  6
 17 18  1  0
 19 21  1  0
 19 17  1  0
 20 19  2  0
 22 21  1  0
 22 26  1  0
 23 24  1  0
 22 23  1  6
 24 25  2  0
 26 29  1  0
 27 26  2  0
 28 24  1  0
M  END
$$$$
