YND.pdb
     RDKit          3D

 29 29  0  0  1  0  0  0  0  0999 V2000
   14.7351  -15.6117  -15.8382 O   0  0  0  0  0  0  0  0  0  0  0  0
   15.7120  -14.6386  -15.8314 C   0  0  0  0  0  0  0  0  0  0  0  0
   15.6043  -13.5051  -16.6030 C   0  0  0  0  0  0  0  0  0  0  0  0
   16.5606  -12.5180  -16.6175 C   0  0  0  0  0  0  0  0  0  0  0  0
   17.6995  -12.6380  -15.8306 C   0  0  0  0  0  0  0  0  0  0  0  0
   18.7006  -11.5616  -15.8829 C   0  0  0  0  0  0  0  0  0  0  0  0
   19.5660  -11.6794  -17.1481 C   0  0  2  0  0  0  0  0  0  0  0  0
   20.4521  -12.8091  -17.0139 N   0  0  0  0  0  0  0  0  0  0  0  0
   20.2251  -10.3849  -17.3115 C   0  0  0  0  0  0  0  0  0  0  0  0
   21.2408  -10.1782  -16.5733 O   0  0  0  0  0  0  0  0  0  0  0  0
   17.8111  -13.7700  -15.0573 C   0  0  0  0  0  0  0  0  0  0  0  0
   16.8546  -14.7592  -15.0412 C   0  0  0  0  0  0  0  0  0  0  0  0
   19.8536   -7.9739  -21.9413 N   0  0  0  0  0  0  0  0  0  0  0  0
   20.6689   -8.1646  -20.7849 C   0  0  0  0  0  0  0  0  0  0  0  0
   21.6403   -8.9472  -20.8071 O   0  0  0  0  0  0  0  0  0  0  0  0
   20.3082   -7.3949  -19.5732 C   0  0  0  0  0  0  0  0  0  0  0  0
   20.6142   -8.1717  -18.2935 C   0  0  2  0  0  0  0  0  0  0  0  0
   19.8193   -9.3672  -18.2161 N   0  0  0  0  0  0  0  0  0  0  0  0
   20.4422   -7.2695  -17.1579 C   0  0  0  0  0  0  0  0  0  0  0  0
   19.3413   -7.0640  -16.5931 O   0  0  0  0  0  0  0  0  0  0  0  0
   21.5689   -6.5702  -16.6420 N   0  0  0  0  0  0  0  0  0  0  0  0
   21.4554   -5.6655  -15.5056 C   0  0  1  0  0  0  0  0  0  0  0  0
   22.5519   -5.9954  -14.4952 C   0  0  0  0  0  0  0  0  0  0  0  0
   22.3977   -5.0669  -13.3558 C   0  0  0  0  0  0  0  0  0  0  0  0
   21.5352   -5.2574  -12.4574 O   0  0  0  0  0  0  0  0  0  0  0  0
   21.6587   -4.2753  -15.9579 C   0  0  0  0  0  0  0  0  0  0  0  0
   22.3090   -4.0485  -17.0026 O   0  0  0  0  0  0  0  0  0  0  0  0
   23.1834   -3.9268  -13.1906 O   0  0  0  0  0  0  0  0  0  0  0  0
   21.1531   -3.1838  -15.2671 O   0  0  0  0  0  0  0  0  0  0  0  0
  2  1  1  0
  3  2  2  0
  4  3  1  0
  5 11  1  0
  5  4  2  0
  6  5  1  0
  7  6  1  0
  7  8  1  1
  9 18  1  0
  9  7  1  0
 10  9  2  0
 11 12  2  0
 12  2  1  0
 13 14  1  0
 14 15  2  0
 16 14  1  0
 17 16  1  6
 17 18  1  0
 19 21  1  0
 19 17  1  0
 20 19  2  0
 22 21  1  0
 22 26  1  0
 23 24  1  0
 22 23  1  1
 24 25  2  0
 26 29  1  0
 27 26  2  0
 28 24  1  0
M  END
$$$$
