YND.pdb
     RDKit          3D

 29 29  0  0  1  0  0  0  0  0999 V2000
   23.9316  -30.6800  -17.3057 O   0  0  0  0  0  0  0  0  0  0  0  0
   23.6378  -29.4849  -16.6841 C   0  0  0  0  0  0  0  0  0  0  0  0
   24.1505  -29.1719  -15.4468 C   0  0  0  0  0  0  0  0  0  0  0  0
   23.8763  -27.9895  -14.8021 C   0  0  0  0  0  0  0  0  0  0  0  0
   23.0479  -27.0459  -15.3973 C   0  0  0  0  0  0  0  0  0  0  0  0
   22.7753  -25.7976  -14.6685 C   0  0  0  0  0  0  0  0  0  0  0  0
   23.5521  -24.6227  -15.2845 C   0  0  2  0  0  0  0  0  0  0  0  0
   24.9619  -24.8080  -15.0451 N   0  0  0  0  0  0  0  0  0  0  0  0
   22.9754  -23.4086  -14.7098 C   0  0  0  0  0  0  0  0  0  0  0  0
   23.7052  -22.7849  -13.8745 O   0  0  0  0  0  0  0  0  0  0  0  0
   22.5332  -27.3547  -16.6349 C   0  0  0  0  0  0  0  0  0  0  0  0
   22.8068  -28.5380  -17.2820 C   0  0  0  0  0  0  0  0  0  0  0  0
   22.2326  -18.1505  -15.6384 N   0  0  0  0  0  0  0  0  0  0  0  0
   22.1991  -19.1878  -14.6580 C   0  0  0  0  0  0  0  0  0  0  0  0
   21.9728  -18.9293  -13.4586 O   0  0  0  0  0  0  0  0  0  0  0  0
   22.4422  -20.5689  -15.1313 C   0  0  0  0  0  0  0  0  0  0  0  0
   21.3867  -21.5432  -14.6104 C   0  0  2  0  0  0  0  0  0  0  0  0
   21.6879  -22.8901  -15.0132 N   0  0  0  0  0  0  0  0  0  0  0  0
   20.0744  -21.0725  -15.0459 C   0  0  0  0  0  0  0  0  0  0  0  0
   19.7878  -20.8178  -16.2401 O   0  0  0  0  0  0  0  0  0  0  0  0
   19.0437  -20.8824  -14.0835 N   0  0  0  0  0  0  0  0  0  0  0  0
   17.6570  -20.6700  -14.4769 C   0  0  1  0  0  0  0  0  0  0  0  0
   16.7514  -20.9506  -13.2798 C   0  0  0  0  0  0  0  0  0  0  0  0
   16.5416  -22.4121  -13.2164 C   0  0  0  0  0  0  0  0  0  0  0  0
   16.9472  -23.1802  -14.1289 O   0  0  0  0  0  0  0  0  0  0  0  0
   17.4649  -19.2606  -14.8706 C   0  0  0  0  0  0  0  0  0  0  0  0
   18.3044  -18.3980  -14.5289 O   0  0  0  0  0  0  0  0  0  0  0  0
   15.8891  -23.0426  -12.1577 O   0  0  0  0  0  0  0  0  0  0  0  0
   16.3759  -18.8357  -15.6175 O   0  0  0  0  0  0  0  0  0  0  0  0
  2  1  1  0
  3  2  2  0
  4  3  1  0
  5 11  1  0
  5  4  2  0
  6  5  1  0
  7  6  1  0
  7  8  1  1
  9 18  1  0
  9  7  1  0
 10  9  2  0
 11 12  2  0
 12  2  1  0
 13 14  1  0
 14 15  2  0
 16 14  1  0
 17 16  1  6
 17 18  1  0
 19 21  1  0
 19 17  1  0
 20 19  2  0
 22 21  1  0
 22 26  1  0
 23 24  1  0
 22 23  1  1
 24 25  2  0
 26 29  1  0
 27 26  2  0
 28 24  1  0
M  END
$$$$
