YND.pdb
     RDKit          3D

 29 29  0  0  1  0  0  0  0  0999 V2000
   18.7781  -13.3757  -22.7808 O   0  0  0  0  0  0  0  0  0  0  0  0
   19.3384  -12.4078  -21.9742 C   0  0  0  0  0  0  0  0  0  0  0  0
   18.7557  -12.0361  -20.7851 C   0  0  0  0  0  0  0  0  0  0  0  0
   19.2899  -11.0754  -19.9599 C   0  0  0  0  0  0  0  0  0  0  0  0
   20.4694  -10.4305  -20.3118 C   0  0  0  0  0  0  0  0  0  0  0  0
   21.0013   -9.4035  -19.4029 C   0  0  0  0  0  0  0  0  0  0  0  0
   22.2227   -9.9324  -18.6336 C   0  0  2  0  0  0  0  0  0  0  0  0
   21.8045  -10.9918  -17.7491 N   0  0  0  0  0  0  0  0  0  0  0  0
   22.8234   -8.7722  -17.9779 C   0  0  0  0  0  0  0  0  0  0  0  0
   22.3354   -8.4554  -16.8462 O   0  0  0  0  0  0  0  0  0  0  0  0
   21.0555  -10.7994  -21.5002 C   0  0  0  0  0  0  0  0  0  0  0  0
   20.5223  -11.7612  -22.3275 C   0  0  0  0  0  0  0  0  0  0  0  0
   25.4642   -4.8600  -16.3107 N   0  0  0  0  0  0  0  0  0  0  0  0
   26.3374   -5.4177  -17.2929 C   0  0  0  0  0  0  0  0  0  0  0  0
   27.4940   -4.9761  -17.4475 O   0  0  0  0  0  0  0  0  0  0  0  0
   25.8076   -6.5339  -18.1079 C   0  0  0  0  0  0  0  0  0  0  0  0
   24.3716   -6.8875  -17.7238 C   0  0  2  0  0  0  0  0  0  0  0  0
   23.8888   -7.9938  -18.5048 N   0  0  0  0  0  0  0  0  0  0  0  0
   23.5569   -5.6805  -17.8366 C   0  0  0  0  0  0  0  0  0  0  0  0
   23.3374   -5.0881  -18.9201 O   0  0  0  0  0  0  0  0  0  0  0  0
   22.9668   -5.1222  -16.6684 N   0  0  0  0  0  0  0  0  0  0  0  0
   21.9976   -4.0368  -16.7428 C   0  0  1  0  0  0  0  0  0  0  0  0
   20.7600   -4.5250  -17.4923 C   0  0  0  0  0  0  0  0  0  0  0  0
   19.8223   -3.3866  -17.5873 C   0  0  0  0  0  0  0  0  0  0  0  0
   19.1469   -2.9997  -16.5966 O   0  0  0  0  0  0  0  0  0  0  0  0
   21.5804   -3.6520  -15.3803 C   0  0  0  0  0  0  0  0  0  0  0  0
   21.8434   -4.4009  -14.4130 O   0  0  0  0  0  0  0  0  0  0  0  0
   19.6171   -2.6649  -18.7625 O   0  0  0  0  0  0  0  0  0  0  0  0
   20.8964   -2.4751  -15.1132 O   0  0  0  0  0  0  0  0  0  0  0  0
  2  1  1  0
  3  2  2  0
  4  3  1  0
  5 11  1  0
  5  4  2  0
  6  5  1  0
  7  6  1  0
  7  8  1  1
  9 18  1  0
  9  7  1  0
 10  9  2  0
 11 12  2  0
 12  2  1  0
 13 14  1  0
 14 15  2  0
 16 14  1  0
 17 16  1  6
 17 18  1  0
 19 21  1  0
 19 17  1  0
 20 19  2  0
 22 21  1  0
 22 26  1  0
 23 24  1  0
 22 23  1  6
 24 25  2  0
 26 29  1  0
 27 26  2  0
 28 24  1  0
M  END
$$$$
