YND.pdb
     RDKit          3D

 29 29  0  0  1  0  0  0  0  0999 V2000
   29.0501  -19.9443   -3.4615 O   0  0  0  0  0  0  0  0  0  0  0  0
   28.4816  -19.8703   -4.7155 C   0  0  0  0  0  0  0  0  0  0  0  0
   29.0003  -19.0548   -5.6940 C   0  0  0  0  0  0  0  0  0  0  0  0
   28.4565  -18.9598   -6.9527 C   0  0  0  0  0  0  0  0  0  0  0  0
   27.3326  -19.7060   -7.2855 C   0  0  0  0  0  0  0  0  0  0  0  0
   26.7793  -19.5676   -8.6414 C   0  0  0  0  0  0  0  0  0  0  0  0
   27.0568  -20.8276   -9.4775 C   0  0  2  0  0  0  0  0  0  0  0  0
   28.4793  -21.0577   -9.5317 N   0  0  0  0  0  0  0  0  0  0  0  0
   26.4101  -20.6080  -10.7700 C   0  0  0  0  0  0  0  0  0  0  0  0
   27.1847  -20.3429  -11.7442 O   0  0  0  0  0  0  0  0  0  0  0  0
   26.8107  -20.5231   -6.3099 C   0  0  0  0  0  0  0  0  0  0  0  0
   27.3540  -20.6197   -5.0492 C   0  0  0  0  0  0  0  0  0  0  0  0
   24.6423  -24.3615  -14.1582 N   0  0  0  0  0  0  0  0  0  0  0  0
   24.7477  -22.9490  -13.9792 C   0  0  0  0  0  0  0  0  0  0  0  0
   24.4790  -22.1628  -14.9099 O   0  0  0  0  0  0  0  0  0  0  0  0
   25.1855  -22.4704  -12.6488 C   0  0  0  0  0  0  0  0  0  0  0  0
   24.5595  -21.1223  -12.2945 C   0  0  2  0  0  0  0  0  0  0  0  0
   25.0106  -20.6693  -11.0068 N   0  0  0  0  0  0  0  0  0  0  0  0
   23.1085  -21.2480  -12.4051 C   0  0  0  0  0  0  0  0  0  0  0  0
   22.4574  -22.2179  -11.9485 O   0  0  0  0  0  0  0  0  0  0  0  0
   22.3654  -20.2284  -13.0632 N   0  0  0  0  0  0  0  0  0  0  0  0
   20.9366  -20.3623  -13.3150 C   0  0  1  0  0  0  0  0  0  0  0  0
   20.6270  -19.8400  -14.7161 C   0  0  0  0  0  0  0  0  0  0  0  0
   20.8016  -18.3727  -14.6901 C   0  0  0  0  0  0  0  0  0  0  0  0
   20.8383  -17.7286  -13.6080 O   0  0  0  0  0  0  0  0  0  0  0  0
   20.5577  -21.7880  -13.2684 C   0  0  0  0  0  0  0  0  0  0  0  0
   21.1014  -22.6033  -14.0464 O   0  0  0  0  0  0  0  0  0  0  0  0
   20.9372  -17.6012  -15.8437 O   0  0  0  0  0  0  0  0  0  0  0  0
   19.6078  -22.2796  -12.3849 O   0  0  0  0  0  0  0  0  0  0  0  0
  2  1  1  0
  3  2  2  0
  4  3  1  0
  5 11  1  0
  5  4  2  0
  6  5  1  0
  7  6  1  0
  7  8  1  6
  9 18  1  0
  9  7  1  0
 10  9  2  0
 11 12  2  0
 12  2  1  0
 13 14  1  0
 14 15  2  0
 16 14  1  0
 17 16  1  1
 17 18  1  0
 19 21  1  0
 19 17  1  0
 20 19  2  0
 22 21  1  0
 22 26  1  0
 23 24  1  0
 22 23  1  6
 24 25  2  0
 26 29  1  0
 27 26  2  0
 28 24  1  0
M  END
$$$$
