YND.pdb
     RDKit          3D

 29 29  0  0  1  0  0  0  0  0999 V2000
   17.2742  -20.3163  -19.2278 O   0  0  0  0  0  0  0  0  0  0  0  0
   17.7918  -19.0502  -19.0534 C   0  0  0  0  0  0  0  0  0  0  0  0
   18.2687  -18.6292  -17.8340 C   0  0  0  0  0  0  0  0  0  0  0  0
   18.7904  -17.3743  -17.6290 C   0  0  0  0  0  0  0  0  0  0  0  0
   18.8538  -16.4650  -18.6778 C   0  0  0  0  0  0  0  0  0  0  0  0
   19.4126  -15.1306  -18.4118 C   0  0  0  0  0  0  0  0  0  0  0  0
   20.7763  -14.9605  -19.1008 C   0  0  2  0  0  0  0  0  0  0  0  0
   21.7485  -15.7977  -18.4427 N   0  0  0  0  0  0  0  0  0  0  0  0
   21.0677  -13.5282  -19.0771 C   0  0  0  0  0  0  0  0  0  0  0  0
   21.7013  -13.1039  -18.0584 O   0  0  0  0  0  0  0  0  0  0  0  0
   18.3781  -16.8820  -19.8991 C   0  0  0  0  0  0  0  0  0  0  0  0
   17.8557  -18.1382  -20.1063 C   0  0  0  0  0  0  0  0  0  0  0  0
   22.0379   -8.3484  -21.9962 N   0  0  0  0  0  0  0  0  0  0  0  0
   22.2470   -9.2901  -20.9437 C   0  0  0  0  0  0  0  0  0  0  0  0
   22.8342   -8.9587  -19.8940 O   0  0  0  0  0  0  0  0  0  0  0  0
   21.7367  -10.6629  -21.1581 C   0  0  0  0  0  0  0  0  0  0  0  0
   21.0602  -11.2205  -19.9067 C   0  0  2  0  0  0  0  0  0  0  0  0
   20.7011  -12.6007  -20.0890 N   0  0  0  0  0  0  0  0  0  0  0  0
   19.9342  -10.3533  -19.5699 C   0  0  0  0  0  0  0  0  0  0  0  0
   18.8240  -10.3971  -20.1517 O   0  0  0  0  0  0  0  0  0  0  0  0
   20.0757   -9.3949  -18.5277 N   0  0  0  0  0  0  0  0  0  0  0  0
   18.9636   -8.5554  -18.1019 C   0  0  1  0  0  0  0  0  0  0  0  0
   18.7333   -8.7554  -16.6056 C   0  0  0  0  0  0  0  0  0  0  0  0
   17.4936   -8.0346  -16.2483 C   0  0  0  0  0  0  0  0  0  0  0  0
   16.8176   -7.4113  -17.1095 O   0  0  0  0  0  0  0  0  0  0  0  0
   19.3024   -7.1360  -18.3230 C   0  0  0  0  0  0  0  0  0  0  0  0
   20.4944   -6.7616  -18.2537 O   0  0  0  0  0  0  0  0  0  0  0  0
   16.9854   -7.9905  -14.9506 O   0  0  0  0  0  0  0  0  0  0  0  0
   18.3437   -6.1754  -18.6104 O   0  0  0  0  0  0  0  0  0  0  0  0
  2  1  1  0
  3  2  2  0
  4  3  1  0
  5 11  1  0
  5  4  2  0
  6  5  1  0
  7  6  1  0
  7  8  1  1
  9 18  1  0
  9  7  1  0
 10  9  2  0
 11 12  2  0
 12  2  1  0
 13 14  1  0
 14 15  2  0
 16 14  1  0
 17 16  1  6
 17 18  1  0
 19 21  1  0
 19 17  1  0
 20 19  2  0
 22 21  1  0
 22 26  1  0
 23 24  1  0
 22 23  1  1
 24 25  2  0
 26 29  1  0
 27 26  2  0
 28 24  1  0
M  END
$$$$
