YND.pdb
     RDKit          3D

 29 29  0  0  1  0  0  0  0  0999 V2000
   29.0783  -14.7975  -18.0284 O   0  0  0  0  0  0  0  0  0  0  0  0
   28.4213  -15.9420  -17.6286 C   0  0  0  0  0  0  0  0  0  0  0  0
   27.7023  -15.9872  -16.4570 C   0  0  0  0  0  0  0  0  0  0  0  0
   27.0370  -17.1123  -16.0321 C   0  0  0  0  0  0  0  0  0  0  0  0
   27.0714  -18.2733  -16.7948 C   0  0  0  0  0  0  0  0  0  0  0  0
   26.3517  -19.4562  -16.2983 C   0  0  0  0  0  0  0  0  0  0  0  0
   27.0838  -20.0794  -15.0987 C   0  0  2  0  0  0  0  0  0  0  0  0
   28.1045  -20.9773  -15.5796 N   0  0  0  0  0  0  0  0  0  0  0  0
   26.0510  -20.6957  -14.2679 C   0  0  0  0  0  0  0  0  0  0  0  0
   25.9428  -21.9604  -14.3579 O   0  0  0  0  0  0  0  0  0  0  0  0
   27.7892  -18.2324  -17.9673 C   0  0  0  0  0  0  0  0  0  0  0  0
   28.4557  -17.1068  -18.3945 C   0  0  0  0  0  0  0  0  0  0  0  0
   26.5458  -21.9213  -10.9220 N   0  0  0  0  0  0  0  0  0  0  0  0
   25.9614  -20.8005  -10.2583 C   0  0  0  0  0  0  0  0  0  0  0  0
   26.3609  -20.4423   -9.1320 O   0  0  0  0  0  0  0  0  0  0  0  0
   24.8713  -20.0926  -10.9665 C   0  0  0  0  0  0  0  0  0  0  0  0
   24.5624  -20.7320  -12.3195 C   0  0  2  0  0  0  0  0  0  0  0  0
   25.1816  -19.9964  -13.3883 N   0  0  0  0  0  0  0  0  0  0  0  0
   23.1127  -20.8571  -12.4465 C   0  0  0  0  0  0  0  0  0  0  0  0
   22.3997  -21.5203  -11.6560 O   0  0  0  0  0  0  0  0  0  0  0  0
   22.4444  -20.2011  -13.5178 N   0  0  0  0  0  0  0  0  0  0  0  0
   21.1185  -20.6119  -13.9606 C   0  0  1  0  0  0  0  0  0  0  0  0
   21.1926  -22.0402  -14.4956 C   0  0  0  0  0  0  0  0  0  0  0  0
   19.8765  -22.3604  -15.0868 C   0  0  0  0  0  0  0  0  0  0  0  0
   19.0292  -21.4639  -15.3430 O   0  0  0  0  0  0  0  0  0  0  0  0
   20.1898  -20.6048  -12.8134 C   0  0  0  0  0  0  0  0  0  0  0  0
   20.3510  -21.4177  -11.8759 O   0  0  0  0  0  0  0  0  0  0  0  0
   19.4785  -23.6591  -15.4013 O   0  0  0  0  0  0  0  0  0  0  0  0
   19.1238  -19.7220  -12.7211 O   0  0  0  0  0  0  0  0  0  0  0  0
  2  1  1  0
  3  2  2  0
  4  3  1  0
  5 11  1  0
  5  4  2  0
  6  5  1  0
  7  6  1  0
  7  8  1  6
  9 18  1  0
  9  7  1  0
 10  9  2  0
 11 12  2  0
 12  2  1  0
 13 14  1  0
 14 15  2  0
 16 14  1  0
 17 16  1  1
 17 18  1  0
 19 21  1  0
 19 17  1  0
 20 19  2  0
 22 21  1  0
 22 26  1  0
 23 24  1  0
 22 23  1  1
 24 25  2  0
 26 29  1  0
 27 26  2  0
 28 24  1  0
M  END
$$$$
