YND.pdb
     RDKit          3D

 29 29  0  0  1  0  0  0  0  0999 V2000
   28.0119  -16.9568  -15.0626 O   0  0  0  0  0  0  0  0  0  0  0  0
   27.1259  -15.9700  -15.4398 C   0  0  0  0  0  0  0  0  0  0  0  0
   26.2517  -15.4053  -14.5405 C   0  0  0  0  0  0  0  0  0  0  0  0
   25.3575  -14.4204  -14.8860 C   0  0  0  0  0  0  0  0  0  0  0  0
   25.3068  -13.9509  -16.1929 C   0  0  0  0  0  0  0  0  0  0  0  0
   24.3293  -12.9016  -16.5202 C   0  0  0  0  0  0  0  0  0  0  0  0
   22.9177  -13.4934  -16.6633 C   0  0  2  0  0  0  0  0  0  0  0  0
   22.9313  -14.5129  -17.6830 N   0  0  0  0  0  0  0  0  0  0  0  0
   22.0276  -12.3631  -16.9223 C   0  0  0  0  0  0  0  0  0  0  0  0
   21.8195  -12.0852  -18.1465 O   0  0  0  0  0  0  0  0  0  0  0  0
   26.1795  -14.5128  -17.0954 C   0  0  0  0  0  0  0  0  0  0  0  0
   27.0756  -15.4988  -16.7513 C   0  0  0  0  0  0  0  0  0  0  0  0
   17.3697  -11.7952  -17.2295 N   0  0  0  0  0  0  0  0  0  0  0  0
   18.4309  -12.0074  -16.2984 C   0  0  0  0  0  0  0  0  0  0  0  0
   18.7846  -13.1611  -15.9813 O   0  0  0  0  0  0  0  0  0  0  0  0
   19.0832  -10.8037  -15.7360 C   0  0  0  0  0  0  0  0  0  0  0  0
   20.4621  -10.5646  -16.3492 C   0  0  2  0  0  0  0  0  0  0  0  0
   21.3945  -11.5735  -15.9251 N   0  0  0  0  0  0  0  0  0  0  0  0
   20.8759   -9.2011  -16.0283 C   0  0  0  0  0  0  0  0  0  0  0  0
   21.4841   -8.8878  -14.9772 O   0  0  0  0  0  0  0  0  0  0  0  0
   20.5856   -8.1483  -16.9405 N   0  0  0  0  0  0  0  0  0  0  0  0
   20.8641   -6.7551  -16.6172 C   0  0  1  0  0  0  0  0  0  0  0  0
   20.7398   -5.9151  -17.8863 C   0  0  0  0  0  0  0  0  0  0  0  0
   21.1714   -4.5417  -17.5522 C   0  0  0  0  0  0  0  0  0  0  0  0
   21.6152   -4.2456  -16.4109 O   0  0  0  0  0  0  0  0  0  0  0  0
   19.8654   -6.2632  -15.6480 C   0  0  0  0  0  0  0  0  0  0  0  0
   18.6652   -6.5964  -15.7665 O   0  0  0  0  0  0  0  0  0  0  0  0
   21.1213   -3.4853  -18.4609 O   0  0  0  0  0  0  0  0  0  0  0  0
   20.1992   -5.4318  -14.5889 O   0  0  0  0  0  0  0  0  0  0  0  0
  2  1  1  0
  3  2  2  0
  4  3  1  0
  5 11  1  0
  5  4  2  0
  6  5  1  0
  7  6  1  0
  7  8  1  6
  9 18  1  0
  9  7  1  0
 10  9  2  0
 11 12  2  0
 12  2  1  0
 13 14  1  0
 14 15  2  0
 16 14  1  0
 17 16  1  1
 17 18  1  0
 19 21  1  0
 19 17  1  0
 20 19  2  0
 22 21  1  0
 22 26  1  0
 23 24  1  0
 22 23  1  6
 24 25  2  0
 26 29  1  0
 27 26  2  0
 28 24  1  0
M  END
$$$$
