YND.pdb
     RDKit          3D

 29 29  0  0  1  0  0  0  0  0999 V2000
   34.6844   -7.8700  -18.2486 O   0  0  0  0  0  0  0  0  0  0  0  0
   33.3479   -8.2087  -18.2646 C   0  0  0  0  0  0  0  0  0  0  0  0
   32.4857   -7.7834  -17.2811 C   0  0  0  0  0  0  0  0  0  0  0  0
   31.1492   -8.1040  -17.2697 C   0  0  0  0  0  0  0  0  0  0  0  0
   30.6118   -8.8912  -18.2807 C   0  0  0  0  0  0  0  0  0  0  0  0
   29.1783   -9.2163  -18.2248 C   0  0  0  0  0  0  0  0  0  0  0  0
   28.9351  -10.4772  -17.3796 C   0  0  2  0  0  0  0  0  0  0  0  0
   29.5288  -11.6133  -18.0398 N   0  0  0  0  0  0  0  0  0  0  0  0
   27.4896  -10.5579  -17.1770 C   0  0  0  0  0  0  0  0  0  0  0  0
   26.9812  -11.7228  -17.2386 O   0  0  0  0  0  0  0  0  0  0  0  0
   31.4705   -9.3186  -19.2665 C   0  0  0  0  0  0  0  0  0  0  0  0
   32.8088   -8.9984  -19.2797 C   0  0  0  0  0  0  0  0  0  0  0  0
   23.1194  -11.8077  -15.8221 N   0  0  0  0  0  0  0  0  0  0  0  0
   23.8158  -10.9335  -14.9338 C   0  0  0  0  0  0  0  0  0  0  0  0
   23.2649  -10.4932  -13.9046 O   0  0  0  0  0  0  0  0  0  0  0  0
   25.2083  -10.5812  -15.2911 C   0  0  0  0  0  0  0  0  0  0  0  0
   25.2719   -9.7191  -16.5510 C   0  0  2  0  0  0  0  0  0  0  0  0
   26.6350   -9.4519  -16.9220 N   0  0  0  0  0  0  0  0  0  0  0  0
   24.4716   -8.5184  -16.3253 C   0  0  0  0  0  0  0  0  0  0  0  0
   24.7993   -7.6025  -15.5334 O   0  0  0  0  0  0  0  0  0  0  0  0
   23.2461   -8.3511  -17.0287 N   0  0  0  0  0  0  0  0  0  0  0  0
   22.4641   -7.1260  -16.9261 C   0  0  1  0  0  0  0  0  0  0  0  0
   21.3950   -7.1249  -18.0165 C   0  0  0  0  0  0  0  0  0  0  0  0
   22.0770   -6.8809  -19.3047 C   0  0  0  0  0  0  0  0  0  0  0  0
   23.2424   -6.4054  -19.3581 O   0  0  0  0  0  0  0  0  0  0  0  0
   21.7792   -7.0845  -15.6193 C   0  0  0  0  0  0  0  0  0  0  0  0
   21.8356   -8.0730  -14.8543 O   0  0  0  0  0  0  0  0  0  0  0  0
   21.4914   -7.1545  -20.5402 O   0  0  0  0  0  0  0  0  0  0  0  0
   21.0606   -5.9792  -15.1876 O   0  0  0  0  0  0  0  0  0  0  0  0
  2  1  1  0
  3  2  2  0
  4  3  1  0
  5 11  1  0
  5  4  2  0
  6  5  1  0
  7  6  1  0
  7  8  1  6
  9 18  1  0
  9  7  1  0
 10  9  2  0
 11 12  2  0
 12  2  1  0
 13 14  1  0
 14 15  2  0
 16 14  1  0
 17 16  1  1
 17 18  1  0
 19 21  1  0
 19 17  1  0
 20 19  2  0
 22 21  1  0
 22 26  1  0
 23 24  1  0
 22 23  1  6
 24 25  2  0
 26 29  1  0
 27 26  2  0
 28 24  1  0
M  END
$$$$
