YND.pdb
     RDKit          3D

 29 29  0  0  1  0  0  0  0  0999 V2000
   22.4772  -18.2616  -14.9072 O   0  0  0  0  0  0  0  0  0  0  0  0
   21.7064  -17.1666  -15.2360 C   0  0  0  0  0  0  0  0  0  0  0  0
   21.5269  -16.7791  -16.5434 C   0  0  0  0  0  0  0  0  0  0  0  0
   20.7647  -15.6932  -16.9024 C   0  0  0  0  0  0  0  0  0  0  0  0
   20.1338  -14.9302  -15.9274 C   0  0  0  0  0  0  0  0  0  0  0  0
   19.3343  -13.7723  -16.3560 C   0  0  0  0  0  0  0  0  0  0  0  0
   17.8309  -14.0787  -16.2596 C   0  0  2  0  0  0  0  0  0  0  0  0
   17.5305  -15.2393  -17.0610 N   0  0  0  0  0  0  0  0  0  0  0  0
   17.1402  -12.8521  -16.6535 C   0  0  0  0  0  0  0  0  0  0  0  0
   16.3352  -12.9546  -17.6336 O   0  0  0  0  0  0  0  0  0  0  0  0
   20.3106  -15.3144  -14.6186 C   0  0  0  0  0  0  0  0  0  0  0  0
   21.0730  -16.4015  -14.2572 C   0  0  0  0  0  0  0  0  0  0  0  0
   14.8199   -8.6440  -17.5422 N   0  0  0  0  0  0  0  0  0  0  0  0
   14.1630   -9.6800  -16.8119 C   0  0  0  0  0  0  0  0  0  0  0  0
   12.9237   -9.6765  -16.6680 O   0  0  0  0  0  0  0  0  0  0  0  0
   15.0167  -10.7464  -16.2418 C   0  0  0  0  0  0  0  0  0  0  0  0
   16.4998  -10.4896  -16.5047 C   0  0  2  0  0  0  0  0  0  0  0  0
   17.3022  -11.5849  -16.0318 N   0  0  0  0  0  0  0  0  0  0  0  0
   16.8520   -9.1990  -15.9187 C   0  0  0  0  0  0  0  0  0  0  0  0
   16.7950   -8.9540  -14.6899 O   0  0  0  0  0  0  0  0  0  0  0  0
   17.2871   -8.1410  -16.7649 N   0  0  0  0  0  0  0  0  0  0  0  0
   17.8981   -6.9319  -16.2284 C   0  0  1  0  0  0  0  0  0  0  0  0
   18.5125   -6.1334  -17.3758 C   0  0  0  0  0  0  0  0  0  0  0  0
   19.1595   -4.9413  -16.7889 C   0  0  0  0  0  0  0  0  0  0  0  0
   19.1838   -4.7454  -15.5446 O   0  0  0  0  0  0  0  0  0  0  0  0
   16.8616   -6.0929  -15.5957 C   0  0  0  0  0  0  0  0  0  0  0  0
   17.0346   -5.6576  -14.4355 O   0  0  0  0  0  0  0  0  0  0  0  0
   19.7831   -3.9578  -17.5558 O   0  0  0  0  0  0  0  0  0  0  0  0
   15.6794   -5.7554  -16.2382 O   0  0  0  0  0  0  0  0  0  0  0  0
  2  1  1  0
  3  2  2  0
  4  3  1  0
  5 11  1  0
  5  4  2  0
  6  5  1  0
  7  6  1  0
  7  8  1  6
  9 18  1  0
  9  7  1  0
 10  9  2  0
 11 12  2  0
 12  2  1  0
 13 14  1  0
 14 15  2  0
 16 14  1  0
 17 16  1  1
 17 18  1  0
 19 21  1  0
 19 17  1  0
 20 19  2  0
 22 21  1  0
 22 26  1  0
 23 24  1  0
 22 23  1  6
 24 25  2  0
 26 29  1  0
 27 26  2  0
 28 24  1  0
M  END
$$$$
