YND.pdb
     RDKit          3D

 29 29  0  0  1  0  0  0  0  0999 V2000
   21.1406  -19.9608  -15.5046 O   0  0  0  0  0  0  0  0  0  0  0  0
   21.7585  -18.7281  -15.5030 C   0  0  0  0  0  0  0  0  0  0  0  0
   21.4461  -17.7676  -14.5695 C   0  0  0  0  0  0  0  0  0  0  0  0
   22.0444  -16.5305  -14.5419 C   0  0  0  0  0  0  0  0  0  0  0  0
   23.0115  -16.2018  -15.4840 C   0  0  0  0  0  0  0  0  0  0  0  0
   23.6202  -14.8642  -15.4219 C   0  0  0  0  0  0  0  0  0  0  0  0
   22.5437  -13.7799  -15.2518 C   0  0  2  0  0  0  0  0  0  0  0  0
   21.3512  -14.1798  -15.9571 N   0  0  0  0  0  0  0  0  0  0  0  0
   23.1498  -12.5305  -15.7085 C   0  0  0  0  0  0  0  0  0  0  0  0
   24.2747  -12.2342  -15.1927 O   0  0  0  0  0  0  0  0  0  0  0  0
   23.3271  -17.1597  -16.4193 C   0  0  0  0  0  0  0  0  0  0  0  0
   22.7293  -18.3988  -16.4483 C   0  0  0  0  0  0  0  0  0  0  0  0
   24.6968   -8.3023  -17.8760 N   0  0  0  0  0  0  0  0  0  0  0  0
   24.2776   -9.1735  -18.9265 C   0  0  0  0  0  0  0  0  0  0  0  0
   24.5386   -8.9128  -20.1184 O   0  0  0  0  0  0  0  0  0  0  0  0
   23.5277  -10.3879  -18.5344 C   0  0  0  0  0  0  0  0  0  0  0  0
   23.3233  -10.4671  -17.0222 C   0  0  2  0  0  0  0  0  0  0  0  0
   22.5827  -11.6466  -16.6654 N   0  0  0  0  0  0  0  0  0  0  0  0
   22.7055   -9.2206  -16.5777 C   0  0  0  0  0  0  0  0  0  0  0  0
   23.1652   -8.0837  -16.8408 O   0  0  0  0  0  0  0  0  0  0  0  0
   21.5146   -9.2676  -15.8003 N   0  0  0  0  0  0  0  0  0  0  0  0
   20.8647   -8.0556  -15.3191 C   0  0  1  0  0  0  0  0  0  0  0  0
   21.9080   -7.1631  -14.6508 C   0  0  0  0  0  0  0  0  0  0  0  0
   21.2186   -5.9347  -14.2037 C   0  0  0  0  0  0  0  0  0  0  0  0
   19.9653   -5.8196  -14.2612 O   0  0  0  0  0  0  0  0  0  0  0  0
   20.2965   -7.3125  -16.4608 C   0  0  0  0  0  0  0  0  0  0  0  0
   19.0814   -7.4273  -16.7366 O   0  0  0  0  0  0  0  0  0  0  0  0
   21.8925   -4.8265  -13.6917 O   0  0  0  0  0  0  0  0  0  0  0  0
   21.0597   -6.4746  -17.2606 O   0  0  0  0  0  0  0  0  0  0  0  0
  2  1  1  0
  3  2  2  0
  4  3  1  0
  5 11  1  0
  5  4  2  0
  6  5  1  0
  7  6  1  0
  7  8  1  6
  9 18  1  0
  9  7  1  0
 10  9  2  0
 11 12  2  0
 12  2  1  0
 13 14  1  0
 14 15  2  0
 16 14  1  0
 17 16  1  6
 17 18  1  0
 19 21  1  0
 19 17  1  0
 20 19  2  0
 22 21  1  0
 22 26  1  0
 23 24  1  0
 22 23  1  6
 24 25  2  0
 26 29  1  0
 27 26  2  0
 28 24  1  0
M  END
$$$$
