YND.pdb
     RDKit          3D

 29 29  0  0  1  0  0  0  0  0999 V2000
   21.8886  -16.2197  -20.9976 O   0  0  0  0  0  0  0  0  0  0  0  0
   22.2172  -15.0539  -20.3387 C   0  0  0  0  0  0  0  0  0  0  0  0
   21.4652  -13.9110  -20.4795 C   0  0  0  0  0  0  0  0  0  0  0  0
   21.7670  -12.7345  -19.8362 C   0  0  0  0  0  0  0  0  0  0  0  0
   22.8738  -12.6607  -18.9993 C   0  0  0  0  0  0  0  0  0  0  0  0
   23.1639  -11.3797  -18.3371 C   0  0  0  0  0  0  0  0  0  0  0  0
   23.9055  -10.4268  -19.2885 C   0  0  2  0  0  0  0  0  0  0  0  0
   25.1727  -11.0106  -19.6529 N   0  0  0  0  0  0  0  0  0  0  0  0
   23.9862   -9.1422  -18.5955 C   0  0  0  0  0  0  0  0  0  0  0  0
   25.1573   -8.6805  -18.4096 O   0  0  0  0  0  0  0  0  0  0  0  0
   23.6285  -13.8015  -18.8555 C   0  0  0  0  0  0  0  0  0  0  0  0
   23.3278  -14.9804  -19.4986 C   0  0  0  0  0  0  0  0  0  0  0  0
   23.9337   -4.7289  -16.5389 N   0  0  0  0  0  0  0  0  0  0  0  0
   24.1548   -4.8712  -17.9422 C   0  0  0  0  0  0  0  0  0  0  0  0
   24.6765   -3.9524  -18.6056 O   0  0  0  0  0  0  0  0  0  0  0  0
   23.7396   -6.1494  -18.5623 C   0  0  0  0  0  0  0  0  0  0  0  0
   23.1226   -7.1037  -17.5408 C   0  0  2  0  0  0  0  0  0  0  0  0
   22.8738   -8.3926  -18.1272 N   0  0  0  0  0  0  0  0  0  0  0  0
   21.9340   -6.4673  -16.9793 C   0  0  0  0  0  0  0  0  0  0  0  0
   20.8258   -6.4236  -17.5650 O   0  0  0  0  0  0  0  0  0  0  0  0
   22.0075   -5.8537  -15.6976 N   0  0  0  0  0  0  0  0  0  0  0  0
   20.8328   -5.7101  -14.8477 C   0  0  1  0  0  0  0  0  0  0  0  0
   20.3109   -7.0976  -14.4814 C   0  0  0  0  0  0  0  0  0  0  0  0
   19.1159   -6.9111  -13.6320 C   0  0  0  0  0  0  0  0  0  0  0  0
   18.5573   -5.7883  -13.5111 O   0  0  0  0  0  0  0  0  0  0  0  0
   21.2083   -5.0220  -13.5971 C   0  0  0  0  0  0  0  0  0  0  0  0
   22.4042   -5.0058  -13.2294 O   0  0  0  0  0  0  0  0  0  0  0  0
   18.5246   -7.9477  -12.9110 O   0  0  0  0  0  0  0  0  0  0  0  0
   20.2805   -4.3778  -12.7917 O   0  0  0  0  0  0  0  0  0  0  0  0
  2  1  1  0
  3  2  2  0
  4  3  1  0
  5 11  1  0
  5  4  2  0
  6  5  1  0
  7  6  1  0
  7  8  1  1
  9 18  1  0
  9  7  1  0
 10  9  2  0
 11 12  2  0
 12  2  1  0
 13 14  1  0
 14 15  2  0
 16 14  1  0
 17 16  1  6
 17 18  1  0
 19 21  1  0
 19 17  1  0
 20 19  2  0
 22 21  1  0
 22 26  1  0
 23 24  1  0
 22 23  1  1
 24 25  2  0
 26 29  1  0
 27 26  2  0
 28 24  1  0
M  END
$$$$
