AHY.pdb
     RDKit          3D

 28 29  0  0  1  0  0  0  0  0999 V2000
   26.1837  -11.6320  -15.6818 C   0  0  0  0  0  0  0  0  0  0  0  0
   25.6014  -11.7439  -17.0556 C   0  0  2  0  0  0  0  0  0  0  0  0
   26.5661  -11.4016  -18.0801 N   0  0  0  0  0  0  0  0  0  0  0  0
   24.3890  -10.8887  -17.2214 C   0  0  0  0  0  0  0  0  0  0  0  0
   24.4847   -9.6597  -17.4984 O   0  0  0  0  0  0  0  0  0  0  0  0
   23.1300  -11.4577  -17.0675 N   0  0  0  0  0  0  0  0  0  0  0  0
   21.8541  -10.6582  -17.1857 C   0  0  1  0  0  0  0  0  0  0  0  0
   20.8513  -11.7219  -17.4718 C   0  0  0  0  0  0  0  0  0  0  0  0
   19.4418  -11.4283  -17.3467 C   0  0  0  0  0  0  0  0  0  0  0  0
   18.4510  -11.8194  -16.5205 C   0  0  0  0  0  0  0  0  0  0  0  0
   17.2920  -11.1682  -16.8071 N   0  0  0  0  0  0  0  0  0  0  0  0
   17.5828  -10.3703  -17.8197 C   0  0  0  0  0  0  0  0  0  0  0  0
   18.8482  -10.4932  -18.1709 N   0  0  0  0  0  0  0  0  0  0  0  0
   21.6926  -10.2002  -15.7528 C   0  0  0  0  0  0  0  0  0  0  0  0
   22.0054  -11.0072  -14.7971 O   0  0  0  0  0  0  0  0  0  0  0  0
   23.7186   -3.1761  -16.1608 O   0  0  0  0  0  0  0  0  0  0  0  0
   23.3926   -4.3431  -15.4808 C   0  0  0  0  0  0  0  0  0  0  0  0
   23.9353   -5.5504  -15.8655 C   0  0  0  0  0  0  0  0  0  0  0  0
   23.6184   -6.7157  -15.1970 C   0  0  0  0  0  0  0  0  0  0  0  0
   22.7535   -6.7371  -14.1224 C   0  0  0  0  0  0  0  0  0  0  0  0
   22.4300   -8.0054  -13.4209 C   0  0  0  0  0  0  0  0  0  0  0  0
   21.1343   -8.6047  -13.9086 C   0  0  2  0  0  0  0  0  0  0  0  0
   21.2262   -8.9470  -15.3375 N   0  0  0  0  0  0  0  0  0  0  0  0
   19.9926   -7.6768  -13.7132 C   0  0  0  0  0  0  0  0  0  0  0  0
   19.6499   -7.2733  -12.5753 O   0  0  0  0  0  0  0  0  0  0  0  0
   22.2129   -5.5220  -13.7423 C   0  0  0  0  0  0  0  0  0  0  0  0
   22.5260   -4.3463  -14.4083 C   0  0  0  0  0  0  0  0  0  0  0  0
   19.2816   -7.2415  -14.8226 O   0  0  0  0  0  0  0  0  0  0  0  0
  2  1  1  1
  2  4  1  0
  3  2  1  0
  4  6  1  0
  5  4  2  0
  6  7  1  0
  7  8  1  1
  9  8  1  0
 10  9  2  0
 11 10  1  0
 12 11  1  0
 12 13  2  0
 13  9  1  0
 14  7  1  0
 14 15  2  0
 16 17  1  0
 17 18  2  0
 17 27  1  0
 18 19  1  0
 19 20  2  0
 20 21  1  0
 22 21  1  6
 22 23  1  0
 22 24  1  0
 23 14  1  0
 24 25  2  0
 24 28  1  0
 26 20  1  0
 27 26  2  0
M  END
$$$$
