AHY.pdb
     RDKit          3D

 28 29  0  0  1  0  0  0  0  0999 V2000
   15.0739  -11.1069  -14.7566 C   0  0  0  0  0  0  0  0  0  0  0  0
   15.5727  -12.3193  -15.4778 C   0  0  2  0  0  0  0  0  0  0  0  0
   15.0012  -13.5381  -14.9437 N   0  0  0  0  0  0  0  0  0  0  0  0
   17.0617  -12.4207  -15.4394 C   0  0  0  0  0  0  0  0  0  0  0  0
   17.6622  -12.8970  -14.4350 O   0  0  0  0  0  0  0  0  0  0  0  0
   17.8010  -11.9816  -16.5317 N   0  0  0  0  0  0  0  0  0  0  0  0
   19.3018  -12.1302  -16.6132 C   0  0  1  0  0  0  0  0  0  0  0  0
   19.4861  -12.6176  -18.0088 C   0  0  0  0  0  0  0  0  0  0  0  0
   20.8205  -12.7755  -18.5407 C   0  0  0  0  0  0  0  0  0  0  0  0
   22.0686  -12.6948  -18.0377 C   0  0  0  0  0  0  0  0  0  0  0  0
   22.9957  -13.0094  -18.9817 N   0  0  0  0  0  0  0  0  0  0  0  0
   22.3017  -13.2861  -20.0718 C   0  0  0  0  0  0  0  0  0  0  0  0
   21.0070  -13.1598  -19.8535 N   0  0  0  0  0  0  0  0  0  0  0  0
   19.7181  -10.6776  -16.5387 C   0  0  0  0  0  0  0  0  0  0  0  0
   18.9444   -9.7766  -17.0404 O   0  0  0  0  0  0  0  0  0  0  0  0
   23.5642   -2.8750  -14.9188 O   0  0  0  0  0  0  0  0  0  0  0  0
   23.2784   -4.2342  -14.9578 C   0  0  0  0  0  0  0  0  0  0  0  0
   22.3095   -4.7681  -14.1355 C   0  0  0  0  0  0  0  0  0  0  0  0
   22.0177   -6.1168  -14.1662 C   0  0  0  0  0  0  0  0  0  0  0  0
   22.6696   -6.9931  -15.0091 C   0  0  0  0  0  0  0  0  0  0  0  0
   22.3355   -8.4399  -15.0219 C   0  0  0  0  0  0  0  0  0  0  0  0
   21.2129   -8.7507  -15.9806 C   0  0  2  0  0  0  0  0  0  0  0  0
   20.8949  -10.1880  -15.9589 N   0  0  0  0  0  0  0  0  0  0  0  0
   21.5542   -8.3590  -17.3709 C   0  0  0  0  0  0  0  0  0  0  0  0
   22.2927   -9.0653  -18.0993 O   0  0  0  0  0  0  0  0  0  0  0  0
   23.6404   -6.4500  -15.8311 C   0  0  0  0  0  0  0  0  0  0  0  0
   23.9401   -5.0959  -15.8068 C   0  0  0  0  0  0  0  0  0  0  0  0
   21.0411   -7.1751  -17.8816 O   0  0  0  0  0  0  0  0  0  0  0  0
  2  1  1  1
  2  4  1  0
  3  2  1  0
  4  6  1  0
  5  4  2  0
  6  7  1  0
  7  8  1  6
  9  8  1  0
 10  9  2  0
 11 10  1  0
 12 11  1  0
 12 13  2  0
 13  9  1  0
 14  7  1  0
 14 15  2  0
 16 17  1  0
 17 18  2  0
 17 27  1  0
 18 19  1  0
 19 20  2  0
 20 21  1  0
 22 21  1  1
 22 23  1  0
 22 24  1  0
 23 14  1  0
 24 25  2  0
 24 28  1  0
 26 20  1  0
 27 26  2  0
M  END
$$$$
