AHY.pdb
     RDKit          3D

 28 29  0  0  1  0  0  0  0  0999 V2000
   29.2794  -22.3428  -15.6934 C   0  0  0  0  0  0  0  0  0  0  0  0
   27.8026  -22.4170  -15.9222 C   0  0  2  0  0  0  0  0  0  0  0  0
   27.4576  -22.1642  -17.3058 N   0  0  0  0  0  0  0  0  0  0  0  0
   27.0522  -21.4654  -15.0502 C   0  0  0  0  0  0  0  0  0  0  0  0
   27.4138  -20.2609  -14.9286 O   0  0  0  0  0  0  0  0  0  0  0  0
   25.9334  -21.9154  -14.3588 N   0  0  0  0  0  0  0  0  0  0  0  0
   25.0503  -20.9950  -13.5500 C   0  0  1  0  0  0  0  0  0  0  0  0
   23.7294  -21.6774  -13.6433 C   0  0  0  0  0  0  0  0  0  0  0  0
   22.6291  -21.2208  -12.8253 C   0  0  0  0  0  0  0  0  0  0  0  0
   21.8941  -21.7488  -11.8261 C   0  0  0  0  0  0  0  0  0  0  0  0
   21.0012  -20.8420  -11.3464 N   0  0  0  0  0  0  0  0  0  0  0  0
   21.1972  -19.7488  -12.0626 C   0  0  0  0  0  0  0  0  0  0  0  0
   22.1547  -19.9305  -12.9514 N   0  0  0  0  0  0  0  0  0  0  0  0
   25.6252  -21.2195  -12.1686 C   0  0  0  0  0  0  0  0  0  0  0  0
   26.0303  -22.3991  -11.8417 O   0  0  0  0  0  0  0  0  0  0  0  0
   28.9085  -20.2418   -3.9856 O   0  0  0  0  0  0  0  0  0  0  0  0
   28.5550  -20.1071   -5.3226 C   0  0  0  0  0  0  0  0  0  0  0  0
   27.5984  -19.1906   -5.7032 C   0  0  0  0  0  0  0  0  0  0  0  0
   27.2398  -19.0485   -7.0284 C   0  0  0  0  0  0  0  0  0  0  0  0
   27.8102  -19.8047   -8.0315 C   0  0  0  0  0  0  0  0  0  0  0  0
   27.4058  -19.6311   -9.4498 C   0  0  0  0  0  0  0  0  0  0  0  0
   26.3138  -20.5935   -9.8465 C   0  0  2  0  0  0  0  0  0  0  0  0
   25.7735  -20.2477  -11.1716 N   0  0  0  0  0  0  0  0  0  0  0  0
   25.2014  -20.5965   -8.8641 C   0  0  0  0  0  0  0  0  0  0  0  0
   24.2294  -19.8081   -8.9565 O   0  0  0  0  0  0  0  0  0  0  0  0
   28.7692  -20.7222   -7.6420 C   0  0  0  0  0  0  0  0  0  0  0  0
   29.1356  -20.8714   -6.3125 C   0  0  0  0  0  0  0  0  0  0  0  0
   25.2366  -21.4990   -7.8104 O   0  0  0  0  0  0  0  0  0  0  0  0
  2  1  1  6
  2  4  1  0
  3  2  1  0
  4  6  1  0
  5  4  2  0
  6  7  1  0
  7  8  1  1
  9  8  1  0
 10  9  2  0
 11 10  1  0
 12 11  1  0
 12 13  2  0
 13  9  1  0
 14  7  1  0
 14 15  2  0
 16 17  1  0
 17 18  2  0
 17 27  1  0
 18 19  1  0
 19 20  2  0
 20 21  1  0
 22 21  1  1
 22 23  1  0
 22 24  1  0
 23 14  1  0
 24 25  2  0
 24 28  1  0
 26 20  1  0
 27 26  2  0
M  END
$$$$
