AHY.pdb
     RDKit          3D

 28 29  0  0  1  0  0  0  0  0999 V2000
   14.5362   -8.1539  -15.3035 C   0  0  0  0  0  0  0  0  0  0  0  0
   15.3459   -9.2752  -15.8744 C   0  0  2  0  0  0  0  0  0  0  0  0
   14.6613  -10.5465  -15.7622 N   0  0  0  0  0  0  0  0  0  0  0  0
   16.6867   -9.3840  -15.2270 C   0  0  0  0  0  0  0  0  0  0  0  0
   16.8096   -9.7755  -14.0320 O   0  0  0  0  0  0  0  0  0  0  0  0
   17.8220   -9.0473  -15.9551 N   0  0  0  0  0  0  0  0  0  0  0  0
   19.2159   -9.1410  -15.3812 C   0  0  1  0  0  0  0  0  0  0  0  0
   19.9679   -9.7687  -16.5036 C   0  0  0  0  0  0  0  0  0  0  0  0
   21.3979   -9.9465  -16.3953 C   0  0  0  0  0  0  0  0  0  0  0  0
   22.3153   -9.7664  -15.4241 C   0  0  0  0  0  0  0  0  0  0  0  0
   23.5485  -10.1619  -15.8393 N   0  0  0  0  0  0  0  0  0  0  0  0
   23.3778  -10.5889  -17.0783 C   0  0  0  0  0  0  0  0  0  0  0  0
   22.1162  -10.4788  -17.4473 N   0  0  0  0  0  0  0  0  0  0  0  0
   19.5735   -7.6726  -15.3080 C   0  0  0  0  0  0  0  0  0  0  0  0
   19.1741   -6.8822  -16.2450 O   0  0  0  0  0  0  0  0  0  0  0  0
   17.3178   -6.4678   -8.8564 O   0  0  0  0  0  0  0  0  0  0  0  0
   17.8266   -6.0581  -10.0827 C   0  0  0  0  0  0  0  0  0  0  0  0
   17.2851   -6.5340  -11.2576 C   0  0  0  0  0  0  0  0  0  0  0  0
   17.7828   -6.1337  -12.4812 C   0  0  0  0  0  0  0  0  0  0  0  0
   18.8344   -5.2479  -12.5952 C   0  0  0  0  0  0  0  0  0  0  0  0
   19.3500   -4.8337  -13.9248 C   0  0  0  0  0  0  0  0  0  0  0  0
   20.5831   -5.6090  -14.3178 C   0  0  2  0  0  0  0  0  0  0  0  0
   20.3156   -7.0565  -14.2930 N   0  0  0  0  0  0  0  0  0  0  0  0
   21.7244   -5.3196  -13.4143 C   0  0  0  0  0  0  0  0  0  0  0  0
   22.3114   -6.2243  -12.7725 O   0  0  0  0  0  0  0  0  0  0  0  0
   19.3724   -4.7748  -11.4121 C   0  0  0  0  0  0  0  0  0  0  0  0
   18.8785   -5.1718  -10.1782 C   0  0  0  0  0  0  0  0  0  0  0  0
   22.1564   -4.0083  -13.2746 O   0  0  0  0  0  0  0  0  0  0  0  0
  2  1  1  1
  2  4  1  0
  3  2  1  0
  4  6  1  0
  5  4  2  0
  6  7  1  0
  7  8  1  6
  9  8  1  0
 10  9  2  0
 11 10  1  0
 12 11  1  0
 12 13  2  0
 13  9  1  0
 14  7  1  0
 14 15  2  0
 16 17  1  0
 17 18  2  0
 17 27  1  0
 18 19  1  0
 19 20  2  0
 20 21  1  0
 22 21  1  1
 22 23  1  0
 22 24  1  0
 23 14  1  0
 24 25  2  0
 24 28  1  0
 26 20  1  0
 27 26  2  0
M  END
$$$$
