AHY.pdb
     RDKit          3D

 28 29  0  0  1  0  0  0  0  0999 V2000
   29.6210  -32.4143  -15.4972 C   0  0  0  0  0  0  0  0  0  0  0  0
   28.4056  -32.7949  -16.2825 C   0  0  2  0  0  0  0  0  0  0  0  0
   28.2725  -32.0036  -17.4881 N   0  0  0  0  0  0  0  0  0  0  0  0
   27.1556  -32.6696  -15.4757 C   0  0  0  0  0  0  0  0  0  0  0  0
   26.4785  -31.6030  -15.4747 O   0  0  0  0  0  0  0  0  0  0  0  0
   26.7296  -33.7493  -14.7108 N   0  0  0  0  0  0  0  0  0  0  0  0
   25.4422  -33.7316  -13.9213 C   0  0  1  0  0  0  0  0  0  0  0  0
   24.7872  -34.9903  -14.3749 C   0  0  0  0  0  0  0  0  0  0  0  0
   23.9169  -34.9682  -15.5284 C   0  0  0  0  0  0  0  0  0  0  0  0
   24.0966  -34.9513  -16.8643 C   0  0  0  0  0  0  0  0  0  0  0  0
   22.9047  -35.0056  -17.5170 N   0  0  0  0  0  0  0  0  0  0  0  0
   21.9893  -35.0575  -16.5652 C   0  0  0  0  0  0  0  0  0  0  0  0
   22.5472  -35.0378  -15.3702 N   0  0  0  0  0  0  0  0  0  0  0  0
   25.9839  -33.9332  -12.5231 C   0  0  0  0  0  0  0  0  0  0  0  0
   26.9708  -34.7432  -12.3433 O   0  0  0  0  0  0  0  0  0  0  0  0
   27.0760  -33.2127   -3.7178 O   0  0  0  0  0  0  0  0  0  0  0  0
   26.8892  -32.9843   -5.0755 C   0  0  0  0  0  0  0  0  0  0  0  0
   27.8916  -33.2728   -5.9767 C   0  0  0  0  0  0  0  0  0  0  0  0
   27.7167  -33.0498   -7.3275 C   0  0  0  0  0  0  0  0  0  0  0  0
   26.5462  -32.5333   -7.8439 C   0  0  0  0  0  0  0  0  0  0  0  0
   26.3846  -32.3036   -9.3021 C   0  0  0  0  0  0  0  0  0  0  0  0
   26.1215  -33.5875  -10.0493 C   0  0  2  0  0  0  0  0  0  0  0  0
   25.5139  -33.3093  -11.3611 N   0  0  0  0  0  0  0  0  0  0  0  0
   25.2217  -34.4904   -9.2890 C   0  0  0  0  0  0  0  0  0  0  0  0
   23.9726  -34.3776   -9.3339 O   0  0  0  0  0  0  0  0  0  0  0  0
   25.5451  -32.2463   -6.9337 C   0  0  0  0  0  0  0  0  0  0  0  0
   25.7124  -32.4673   -5.5745 C   0  0  0  0  0  0  0  0  0  0  0  0
   25.7782  -35.4904   -8.5042 O   0  0  0  0  0  0  0  0  0  0  0  0
  2  1  1  1
  2  4  1  0
  3  2  1  0
  4  6  1  0
  5  4  2  0
  6  7  1  0
  7  8  1  6
  9  8  1  0
 10  9  2  0
 11 10  1  0
 12 11  1  0
 12 13  2  0
 13  9  1  0
 14  7  1  0
 14 15  2  0
 16 17  1  0
 17 18  2  0
 17 27  1  0
 18 19  1  0
 19 20  2  0
 20 21  1  0
 22 21  1  1
 22 23  1  0
 22 24  1  0
 23 14  1  0
 24 25  2  0
 24 28  1  0
 26 20  1  0
 27 26  2  0
M  END
$$$$
