AHY.pdb
     RDKit          3D

 28 29  0  0  1  0  0  0  0  0999 V2000
   27.8520  -26.0775  -18.1270 C   0  0  0  0  0  0  0  0  0  0  0  0
   27.2040  -25.7916  -16.8089 C   0  0  2  0  0  0  0  0  0  0  0  0
   25.9884  -26.5576  -16.6280 N   0  0  0  0  0  0  0  0  0  0  0  0
   26.8966  -24.3406  -16.6390 C   0  0  0  0  0  0  0  0  0  0  0  0
   27.7807  -23.4562  -16.8188 O   0  0  0  0  0  0  0  0  0  0  0  0
   25.6110  -23.9566  -16.2755 N   0  0  0  0  0  0  0  0  0  0  0  0
   25.1975  -22.5094  -16.1492 C   0  0  1  0  0  0  0  0  0  0  0  0
   23.8077  -22.5400  -16.6847 C   0  0  0  0  0  0  0  0  0  0  0  0
   22.9288  -21.4156  -16.4572 C   0  0  0  0  0  0  0  0  0  0  0  0
   23.0470  -20.2117  -15.8624 C   0  0  0  0  0  0  0  0  0  0  0  0
   21.9017  -19.4898  -15.9916 N   0  0  0  0  0  0  0  0  0  0  0  0
   21.0775  -20.2648  -16.6748 C   0  0  0  0  0  0  0  0  0  0  0  0
   21.6475  -21.4167  -16.9714 N   0  0  0  0  0  0  0  0  0  0  0  0
   25.1432  -22.3779  -14.6430 C   0  0  0  0  0  0  0  0  0  0  0  0
   24.5681  -23.3026  -13.9527 O   0  0  0  0  0  0  0  0  0  0  0  0
   25.9825  -20.1628   -6.1363 O   0  0  0  0  0  0  0  0  0  0  0  0
   26.1395  -20.2189   -7.5157 C   0  0  0  0  0  0  0  0  0  0  0  0
   26.0545  -21.4237   -8.1799 C   0  0  0  0  0  0  0  0  0  0  0  0
   26.2089  -21.4908   -9.5499 C   0  0  0  0  0  0  0  0  0  0  0  0
   26.4534  -20.3725  -10.3198 C   0  0  0  0  0  0  0  0  0  0  0  0
   26.6152  -20.4732  -11.7925 C   0  0  0  0  0  0  0  0  0  0  0  0
   25.5046  -21.2721  -12.4283 C   0  0  2  0  0  0  0  0  0  0  0  0
   25.6731  -21.3230  -13.8899 N   0  0  0  0  0  0  0  0  0  0  0  0
   24.1707  -20.6979  -12.1219 C   0  0  0  0  0  0  0  0  0  0  0  0
   23.7356  -19.6762  -12.7064 O   0  0  0  0  0  0  0  0  0  0  0  0
   26.5374  -19.1672   -9.6464 C   0  0  0  0  0  0  0  0  0  0  0  0
   26.3835  -19.0907   -8.2700 C   0  0  0  0  0  0  0  0  0  0  0  0
   23.3798  -21.3094  -11.1594 O   0  0  0  0  0  0  0  0  0  0  0  0
  2  1  1  6
  2  4  1  0
  3  2  1  0
  4  6  1  0
  5  4  2  0
  6  7  1  0
  7  8  1  6
  9  8  1  0
 10  9  2  0
 11 10  1  0
 12 11  1  0
 12 13  2  0
 13  9  1  0
 14  7  1  0
 14 15  2  0
 16 17  1  0
 17 18  2  0
 17 27  1  0
 18 19  1  0
 19 20  2  0
 20 21  1  0
 22 21  1  1
 22 23  1  0
 22 24  1  0
 23 14  1  0
 24 25  2  0
 24 28  1  0
 26 20  1  0
 27 26  2  0
M  END
$$$$
