AHY.pdb
     RDKit          3D

 28 29  0  0  1  0  0  0  0  0999 V2000
   30.7023  -20.6571  -21.6401 C   0  0  0  0  0  0  0  0  0  0  0  0
   29.2867  -20.5549  -21.1663 C   0  0  2  0  0  0  0  0  0  0  0  0
   28.4070  -20.0496  -22.1998 N   0  0  0  0  0  0  0  0  0  0  0  0
   29.1626  -19.6917  -19.9545 C   0  0  0  0  0  0  0  0  0  0  0  0
   30.1224  -18.9711  -19.5600 O   0  0  0  0  0  0  0  0  0  0  0  0
   27.9660  -19.6819  -19.2471 N   0  0  0  0  0  0  0  0  0  0  0  0
   27.7242  -18.7711  -18.0668 C   0  0  1  0  0  0  0  0  0  0  0  0
   26.3650  -18.2387  -18.3638 C   0  0  0  0  0  0  0  0  0  0  0  0
   25.6445  -17.5090  -17.3455 C   0  0  0  0  0  0  0  0  0  0  0  0
   25.9457  -17.0094  -16.1302 C   0  0  0  0  0  0  0  0  0  0  0  0
   24.8894  -16.3315  -15.6066 N   0  0  0  0  0  0  0  0  0  0  0  0
   23.9346  -16.4195  -16.5161 C   0  0  0  0  0  0  0  0  0  0  0  0
   24.3411  -17.1098  -17.5640 N   0  0  0  0  0  0  0  0  0  0  0  0
   27.6219  -19.7943  -16.9569 C   0  0  0  0  0  0  0  0  0  0  0  0
   27.1470  -20.9631  -17.2229 O   0  0  0  0  0  0  0  0  0  0  0  0
   24.6909  -20.2008   -9.0491 O   0  0  0  0  0  0  0  0  0  0  0  0
   25.6161  -20.2379  -10.0850 C   0  0  0  0  0  0  0  0  0  0  0  0
   25.8797  -19.1065  -10.8270 C   0  0  0  0  0  0  0  0  0  0  0  0
   26.7968  -19.1322  -11.8581 C   0  0  0  0  0  0  0  0  0  0  0  0
   27.4909  -20.2747  -12.1990 C   0  0  0  0  0  0  0  0  0  0  0  0
   28.4726  -20.2744  -13.3132 C   0  0  0  0  0  0  0  0  0  0  0  0
   27.8383  -20.6700  -14.6235 C   0  0  2  0  0  0  0  0  0  0  0  0
   28.0047  -19.6026  -15.6238 N   0  0  0  0  0  0  0  0  0  0  0  0
   26.3903  -20.9560  -14.4681 C   0  0  0  0  0  0  0  0  0  0  0  0
   25.9648  -22.1018  -14.1835 O   0  0  0  0  0  0  0  0  0  0  0  0
   27.2211  -21.4059  -11.4501 C   0  0  0  0  0  0  0  0  0  0  0  0
   26.3011  -21.3890  -10.4123 C   0  0  0  0  0  0  0  0  0  0  0  0
   25.4781  -19.9249  -14.6427 O   0  0  0  0  0  0  0  0  0  0  0  0
  2  1  1  6
  2  4  1  0
  3  2  1  0
  4  6  1  0
  5  4  2  0
  6  7  1  0
  7  8  1  6
  9  8  1  0
 10  9  2  0
 11 10  1  0
 12 11  1  0
 12 13  2  0
 13  9  1  0
 14  7  1  0
 14 15  2  0
 16 17  1  0
 17 18  2  0
 17 27  1  0
 18 19  1  0
 19 20  2  0
 20 21  1  0
 22 21  1  1
 22 23  1  0
 22 24  1  0
 23 14  1  0
 24 25  2  0
 24 28  1  0
 26 20  1  0
 27 26  2  0
M  END
$$$$
