AHY.pdb
     RDKit          3D

 28 29  0  0  1  0  0  0  0  0999 V2000
   24.9440  -11.8858  -14.8323 C   0  0  0  0  0  0  0  0  0  0  0  0
   23.7722  -12.2760  -15.6770 C   0  0  2  0  0  0  0  0  0  0  0  0
   24.1529  -13.1778  -16.7443 N   0  0  0  0  0  0  0  0  0  0  0  0
   23.0844  -11.0879  -16.2637 C   0  0  0  0  0  0  0  0  0  0  0  0
   23.4869  -10.5602  -17.3388 O   0  0  0  0  0  0  0  0  0  0  0  0
   21.9789  -10.5527  -15.6127 N   0  0  0  0  0  0  0  0  0  0  0  0
   21.1231   -9.4658  -16.2189 C   0  0  1  0  0  0  0  0  0  0  0  0
   19.7566  -10.0452  -16.0923 C   0  0  0  0  0  0  0  0  0  0  0  0
   19.1939  -10.7970  -17.1907 C   0  0  0  0  0  0  0  0  0  0  0  0
   18.7983  -12.0723  -17.3761 C   0  0  0  0  0  0  0  0  0  0  0  0
   18.2634  -12.2413  -18.6150 N   0  0  0  0  0  0  0  0  0  0  0  0
   18.3339  -11.0531  -19.1891 C   0  0  0  0  0  0  0  0  0  0  0  0
   18.8794  -10.1672  -18.3783 N   0  0  0  0  0  0  0  0  0  0  0  0
   21.2966   -8.3793  -15.1803 C   0  0  0  0  0  0  0  0  0  0  0  0
   21.1853   -8.6812  -13.9318 O   0  0  0  0  0  0  0  0  0  0  0  0
   25.8912   -4.2582  -18.9915 O   0  0  0  0  0  0  0  0  0  0  0  0
   25.2667   -4.6421  -17.8112 C   0  0  0  0  0  0  0  0  0  0  0  0
   25.2203   -5.9703  -17.4456 C   0  0  0  0  0  0  0  0  0  0  0  0
   24.6025   -6.3626  -16.2753 C   0  0  0  0  0  0  0  0  0  0  0  0
   24.0057   -5.4608  -15.4186 C   0  0  0  0  0  0  0  0  0  0  0  0
   23.3481   -5.9103  -14.1653 C   0  0  0  0  0  0  0  0  0  0  0  0
   21.8608   -6.0906  -14.3425 C   0  0  2  0  0  0  0  0  0  0  0  0
   21.5791   -7.0324  -15.4384 N   0  0  0  0  0  0  0  0  0  0  0  0
   21.1828   -4.8030  -14.6343 C   0  0  0  0  0  0  0  0  0  0  0  0
   20.5887   -4.5946  -15.7200 O   0  0  0  0  0  0  0  0  0  0  0  0
   24.0563   -4.1300  -15.7922 C   0  0  0  0  0  0  0  0  0  0  0  0
   24.6750   -3.7270  -16.9664 C   0  0  0  0  0  0  0  0  0  0  0  0
   21.2061   -3.7981  -13.6776 O   0  0  0  0  0  0  0  0  0  0  0  0
  2  1  1  6
  2  4  1  0
  3  2  1  0
  4  6  1  0
  5  4  2  0
  6  7  1  0
  7  8  1  1
  9  8  1  0
 10  9  2  0
 11 10  1  0
 12 11  1  0
 12 13  2  0
 13  9  1  0
 14  7  1  0
 14 15  2  0
 16 17  1  0
 17 18  2  0
 17 27  1  0
 18 19  1  0
 19 20  2  0
 20 21  1  0
 22 21  1  6
 22 23  1  0
 22 24  1  0
 23 14  1  0
 24 25  2  0
 24 28  1  0
 26 20  1  0
 27 26  2  0
M  END
$$$$
