AHY.pdb
     RDKit          3D

 28 29  0  0  1  0  0  0  0  0999 V2000
   22.8873  -12.1001  -21.4066 C   0  0  0  0  0  0  0  0  0  0  0  0
   22.6857  -12.5050  -19.9803 C   0  0  2  0  0  0  0  0  0  0  0  0
   22.3072  -13.8980  -19.8633 N   0  0  0  0  0  0  0  0  0  0  0  0
   21.6599  -11.6615  -19.2983 C   0  0  0  0  0  0  0  0  0  0  0  0
   20.6695  -11.1937  -19.9280 O   0  0  0  0  0  0  0  0  0  0  0  0
   21.7989  -11.3862  -17.9428 N   0  0  0  0  0  0  0  0  0  0  0  0
   20.7600  -10.6234  -17.1553 C   0  0  1  0  0  0  0  0  0  0  0  0
   20.5258  -11.5311  -15.9975 C   0  0  0  0  0  0  0  0  0  0  0  0
   19.4363  -12.4796  -16.0413 C   0  0  0  0  0  0  0  0  0  0  0  0
   18.5201  -12.8451  -16.9601 C   0  0  0  0  0  0  0  0  0  0  0  0
   17.7459  -13.8632  -16.4980 N   0  0  0  0  0  0  0  0  0  0  0  0
   18.1985  -14.1203  -15.2832 C   0  0  0  0  0  0  0  0  0  0  0  0
   19.2017  -13.3221  -14.9731 N   0  0  0  0  0  0  0  0  0  0  0  0
   21.5870   -9.4422  -16.6969 C   0  0  0  0  0  0  0  0  0  0  0  0
   22.8731   -9.5231  -16.7377 O   0  0  0  0  0  0  0  0  0  0  0  0
   25.5005   -1.7481  -16.5628 O   0  0  0  0  0  0  0  0  0  0  0  0
   24.7918   -2.9314  -16.7308 C   0  0  0  0  0  0  0  0  0  0  0  0
   25.4245   -4.1490  -16.6003 C   0  0  0  0  0  0  0  0  0  0  0  0
   24.7300   -5.3304  -16.7651 C   0  0  0  0  0  0  0  0  0  0  0  0
   23.3837   -5.3584  -17.0651 C   0  0  0  0  0  0  0  0  0  0  0  0
   22.6607   -6.6441  -17.2368 C   0  0  0  0  0  0  0  0  0  0  0  0
   21.9816   -7.0834  -15.9632 C   0  0  2  0  0  0  0  0  0  0  0  0
   21.0874   -8.2246  -16.2189 N   0  0  0  0  0  0  0  0  0  0  0  0
   21.1903   -5.9844  -15.3560 C   0  0  0  0  0  0  0  0  0  0  0  0
   20.0009   -5.7590  -15.6871 O   0  0  0  0  0  0  0  0  0  0  0  0
   22.7557   -4.1328  -17.1944 C   0  0  0  0  0  0  0  0  0  0  0  0
   23.4459   -2.9409  -17.0305 C   0  0  0  0  0  0  0  0  0  0  0  0
   21.7832   -5.1810  -14.3924 O   0  0  0  0  0  0  0  0  0  0  0  0
  2  1  1  6
  2  4  1  0
  3  2  1  0
  4  6  1  0
  5  4  2  0
  6  7  1  0
  7  8  1  1
  9  8  1  0
 10  9  2  0
 11 10  1  0
 12 11  1  0
 12 13  2  0
 13  9  1  0
 14  7  1  0
 14 15  2  0
 16 17  1  0
 17 18  2  0
 17 27  1  0
 18 19  1  0
 19 20  2  0
 20 21  1  0
 22 21  1  6
 22 23  1  0
 22 24  1  0
 23 14  1  0
 24 25  2  0
 24 28  1  0
 26 20  1  0
 27 26  2  0
M  END
$$$$
