AHY.pdb
     RDKit          3D

 28 29  0  0  1  0  0  0  0  0999 V2000
   22.3272  -14.2660  -17.7789 C   0  0  0  0  0  0  0  0  0  0  0  0
   21.9972  -12.8155  -17.9404 C   0  0  2  0  0  0  0  0  0  0  0  0
   22.4330  -12.3026  -19.2227 N   0  0  0  0  0  0  0  0  0  0  0  0
   22.5911  -11.9816  -16.8537 C   0  0  0  0  0  0  0  0  0  0  0  0
   22.4825  -12.3111  -15.6388 O   0  0  0  0  0  0  0  0  0  0  0  0
   23.2771  -10.8195  -17.1870 N   0  0  0  0  0  0  0  0  0  0  0  0
   23.9139   -9.9233  -16.1514 C   0  0  1  0  0  0  0  0  0  0  0  0
   25.3235   -9.8569  -16.6288 C   0  0  0  0  0  0  0  0  0  0  0  0
   26.2516  -10.9035  -16.2660 C   0  0  0  0  0  0  0  0  0  0  0  0
   26.1699  -12.0619  -15.5812 C   0  0  0  0  0  0  0  0  0  0  0  0
   27.3601  -12.7198  -15.5930 N   0  0  0  0  0  0  0  0  0  0  0  0
   28.1749  -11.9518  -16.2951 C   0  0  0  0  0  0  0  0  0  0  0  0
   27.5570  -10.8642  -16.7134 N   0  0  0  0  0  0  0  0  0  0  0  0
   23.2231   -8.6153  -16.4694 C   0  0  0  0  0  0  0  0  0  0  0  0
   23.2940   -8.1432  -17.6670 O   0  0  0  0  0  0  0  0  0  0  0  0
   17.9340   -2.0039  -18.2224 O   0  0  0  0  0  0  0  0  0  0  0  0
   18.5686   -3.1787  -17.8381 C   0  0  0  0  0  0  0  0  0  0  0  0
   18.2268   -3.8033  -16.6578 C   0  0  0  0  0  0  0  0  0  0  0  0
   18.8509   -4.9706  -16.2666 C   0  0  0  0  0  0  0  0  0  0  0  0
   19.8370   -5.5688  -17.0236 C   0  0  0  0  0  0  0  0  0  0  0  0
   20.4918   -6.8252  -16.5790 C   0  0  0  0  0  0  0  0  0  0  0  0
   21.8598   -6.5720  -15.9954 C   0  0  2  0  0  0  0  0  0  0  0  0
   22.4849   -7.8355  -15.5708 N   0  0  0  0  0  0  0  0  0  0  0  0
   21.7982   -5.6553  -14.8298 C   0  0  0  0  0  0  0  0  0  0  0  0
   21.5983   -6.0737  -13.6637 O   0  0  0  0  0  0  0  0  0  0  0  0
   20.1745   -4.9363  -18.2064 C   0  0  0  0  0  0  0  0  0  0  0  0
   19.5526   -3.7630  -18.6072 C   0  0  0  0  0  0  0  0  0  0  0  0
   21.9668   -4.2933  -15.0352 O   0  0  0  0  0  0  0  0  0  0  0  0
  2  1  1  1
  2  4  1  0
  3  2  1  0
  4  6  1  0
  5  4  2  0
  6  7  1  0
  7  8  1  6
  9  8  1  0
 10  9  2  0
 11 10  1  0
 12 11  1  0
 12 13  2  0
 13  9  1  0
 14  7  1  0
 14 15  2  0
 16 17  1  0
 17 18  2  0
 17 27  1  0
 18 19  1  0
 19 20  2  0
 20 21  1  0
 22 21  1  1
 22 23  1  0
 22 24  1  0
 23 14  1  0
 24 25  2  0
 24 28  1  0
 26 20  1  0
 27 26  2  0
M  END
$$$$
