AHY.pdb
     RDKit          3D

 28 29  0  0  1  0  0  0  0  0999 V2000
   15.0322  -11.0497  -14.4589 C   0  0  0  0  0  0  0  0  0  0  0  0
   15.6166  -11.7747  -15.6301 C   0  0  2  0  0  0  0  0  0  0  0  0
   15.4187  -13.2060  -15.5321 N   0  0  0  0  0  0  0  0  0  0  0  0
   17.0738  -11.4934  -15.7927 C   0  0  0  0  0  0  0  0  0  0  0  0
   17.9484  -12.2139  -15.2339 O   0  0  0  0  0  0  0  0  0  0  0  0
   17.4746  -10.4166  -16.5751 N   0  0  0  0  0  0  0  0  0  0  0  0
   18.9261  -10.1124  -16.8611 C   0  0  1  0  0  0  0  0  0  0  0  0
   18.9043   -9.8689  -18.3306 C   0  0  0  0  0  0  0  0  0  0  0  0
   19.1797  -10.9575  -19.2402 C   0  0  0  0  0  0  0  0  0  0  0  0
   19.4573  -12.2701  -19.1079 C   0  0  0  0  0  0  0  0  0  0  0  0
   19.5670  -12.8698  -20.3236 N   0  0  0  0  0  0  0  0  0  0  0  0
   19.3521  -11.9094  -21.2057 C   0  0  0  0  0  0  0  0  0  0  0  0
   19.1180  -10.7588  -20.6050 N   0  0  0  0  0  0  0  0  0  0  0  0
   19.0676   -8.7881  -16.1434 C   0  0  0  0  0  0  0  0  0  0  0  0
   18.0883   -7.9500  -16.1741 O   0  0  0  0  0  0  0  0  0  0  0  0
   15.9271   -9.2786  -10.5387 O   0  0  0  0  0  0  0  0  0  0  0  0
   17.0467   -8.7874  -11.1987 C   0  0  0  0  0  0  0  0  0  0  0  0
   16.9514   -7.6680  -11.9975 C   0  0  0  0  0  0  0  0  0  0  0  0
   18.0572   -7.1716  -12.6577 C   0  0  0  0  0  0  0  0  0  0  0  0
   19.3014   -7.7591  -12.5566 C   0  0  0  0  0  0  0  0  0  0  0  0
   20.4748   -7.2038  -13.2777 C   0  0  0  0  0  0  0  0  0  0  0  0
   20.2069   -7.0474  -14.7541 C   0  0  2  0  0  0  0  0  0  0  0  0
   20.1875   -8.3603  -15.4199 N   0  0  0  0  0  0  0  0  0  0  0  0
   21.2298   -6.1953  -15.4102 C   0  0  0  0  0  0  0  0  0  0  0  0
   21.9938   -6.6391  -16.3014 O   0  0  0  0  0  0  0  0  0  0  0  0
   19.3892   -8.8817  -11.7534 C   0  0  0  0  0  0  0  0  0  0  0  0
   18.2831   -9.3873  -11.0864 C   0  0  0  0  0  0  0  0  0  0  0  0
   21.3453   -4.8666  -15.0267 O   0  0  0  0  0  0  0  0  0  0  0  0
  2  1  1  1
  2  4  1  0
  3  2  1  0
  4  6  1  0
  5  4  2  0
  6  7  1  0
  7  8  1  6
  9  8  1  0
 10  9  2  0
 11 10  1  0
 12 11  1  0
 12 13  2  0
 13  9  1  0
 14  7  1  0
 14 15  2  0
 16 17  1  0
 17 18  2  0
 17 27  1  0
 18 19  1  0
 19 20  2  0
 20 21  1  0
 22 21  1  1
 22 23  1  0
 22 24  1  0
 23 14  1  0
 24 25  2  0
 24 28  1  0
 26 20  1  0
 27 26  2  0
M  END
$$$$
