AHY.pdb
     RDKit          3D

 28 29  0  0  1  0  0  0  0  0999 V2000
   13.0810  -31.2213   -7.6457 C   0  0  0  0  0  0  0  0  0  0  0  0
   14.4108  -31.5542   -8.2455 C   0  0  2  0  0  0  0  0  0  0  0  0
   14.9367  -32.8024   -7.7327 N   0  0  0  0  0  0  0  0  0  0  0  0
   15.4141  -30.4721   -8.0190 C   0  0  0  0  0  0  0  0  0  0  0  0
   15.9613  -30.3088   -6.8920 O   0  0  0  0  0  0  0  0  0  0  0  0
   15.7519  -29.6280   -9.0706 N   0  0  0  0  0  0  0  0  0  0  0  0
   16.8191  -28.5657   -8.9527 C   0  0  1  0  0  0  0  0  0  0  0  0
   17.5548  -28.7265  -10.2379 C   0  0  0  0  0  0  0  0  0  0  0  0
   18.6069  -29.7118  -10.3414 C   0  0  0  0  0  0  0  0  0  0  0  0
   19.1799  -30.5942   -9.4985 C   0  0  0  0  0  0  0  0  0  0  0  0
   20.1062  -31.3530  -10.1432 N   0  0  0  0  0  0  0  0  0  0  0  0
   20.0948  -30.9269  -11.3942 C   0  0  0  0  0  0  0  0  0  0  0  0
   19.2190  -29.9539  -11.5549 N   0  0  0  0  0  0  0  0  0  0  0  0
   15.9642  -27.3195   -9.0259 C   0  0  0  0  0  0  0  0  0  0  0  0
   15.0783  -27.2202   -9.9574 O   0  0  0  0  0  0  0  0  0  0  0  0
   12.6995  -27.4682   -2.7449 O   0  0  0  0  0  0  0  0  0  0  0  0
   12.9312  -27.0052   -4.0342 C   0  0  0  0  0  0  0  0  0  0  0  0
   13.0753  -27.8921   -5.0795 C   0  0  0  0  0  0  0  0  0  0  0  0
   13.3057  -27.4430   -6.3642 C   0  0  0  0  0  0  0  0  0  0  0  0
   13.4033  -26.1012   -6.6695 C   0  0  0  0  0  0  0  0  0  0  0  0
   13.6514  -25.6453   -8.0609 C   0  0  0  0  0  0  0  0  0  0  0  0
   15.0558  -25.1246   -8.2414 C   0  0  2  0  0  0  0  0  0  0  0  0
   16.0317  -26.2237   -8.1570 N   0  0  0  0  0  0  0  0  0  0  0  0
   15.3981  -24.1036   -7.2201 C   0  0  0  0  0  0  0  0  0  0  0  0
   16.3096  -24.2851   -6.3768 O   0  0  0  0  0  0  0  0  0  0  0  0
   13.2576  -25.2173   -5.6156 C   0  0  0  0  0  0  0  0  0  0  0  0
   13.0259  -25.6599   -4.3217 C   0  0  0  0  0  0  0  0  0  0  0  0
   14.6887  -22.9112   -7.1964 O   0  0  0  0  0  0  0  0  0  0  0  0
  2  1  1  1
  2  4  1  0
  3  2  1  0
  4  6  1  0
  5  4  2  0
  6  7  1  0
  7  8  1  6
  9  8  1  0
 10  9  2  0
 11 10  1  0
 12 11  1  0
 12 13  2  0
 13  9  1  0
 14  7  1  0
 14 15  2  0
 16 17  1  0
 17 18  2  0
 17 27  1  0
 18 19  1  0
 19 20  2  0
 20 21  1  0
 22 21  1  1
 22 23  1  0
 22 24  1  0
 23 14  1  0
 24 25  2  0
 24 28  1  0
 26 20  1  0
 27 26  2  0
M  END
$$$$
