AHY.pdb
     RDKit          3D

 28 29  0  0  1  0  0  0  0  0999 V2000
   35.7607  -25.3832  -17.9074 C   0  0  0  0  0  0  0  0  0  0  0  0
   34.4172  -25.9420  -18.2558 C   0  0  2  0  0  0  0  0  0  0  0  0
   34.0661  -25.6817  -19.6365 N   0  0  0  0  0  0  0  0  0  0  0  0
   33.3413  -25.4077  -17.3693 C   0  0  0  0  0  0  0  0  0  0  0  0
   33.4555  -25.4290  -16.1113 O   0  0  0  0  0  0  0  0  0  0  0  0
   32.1912  -24.8763  -17.9414 N   0  0  0  0  0  0  0  0  0  0  0  0
   31.0533  -24.3206  -17.1183 C   0  0  1  0  0  0  0  0  0  0  0  0
   30.7561  -23.0450  -17.8280 C   0  0  0  0  0  0  0  0  0  0  0  0
   29.5615  -22.3029  -17.4953 C   0  0  0  0  0  0  0  0  0  0  0  0
   28.5777  -22.4295  -16.5824 C   0  0  0  0  0  0  0  0  0  0  0  0
   27.7050  -21.3893  -16.6591 N   0  0  0  0  0  0  0  0  0  0  0  0
   28.1653  -20.6203  -17.6303 C   0  0  0  0  0  0  0  0  0  0  0  0
   29.2657  -21.1258  -18.1532 N   0  0  0  0  0  0  0  0  0  0  0  0
   29.9726  -25.3288  -17.4420 C   0  0  0  0  0  0  0  0  0  0  0  0
   29.9131  -25.8249  -18.6306 O   0  0  0  0  0  0  0  0  0  0  0  0
   23.7879  -31.6341  -17.2502 O   0  0  0  0  0  0  0  0  0  0  0  0
   24.7979  -30.7332  -16.9357 C   0  0  0  0  0  0  0  0  0  0  0  0
   24.5010  -29.5418  -16.3094 C   0  0  0  0  0  0  0  0  0  0  0  0
   25.4965  -28.6398  -15.9923 C   0  0  0  0  0  0  0  0  0  0  0  0
   26.8248  -28.8766  -16.2802 C   0  0  0  0  0  0  0  0  0  0  0  0
   27.8759  -27.8887  -15.9275 C   0  0  0  0  0  0  0  0  0  0  0  0
   28.0136  -26.8133  -16.9766 C   0  0  2  0  0  0  0  0  0  0  0  0
   28.9964  -25.8011  -16.5562 N   0  0  0  0  0  0  0  0  0  0  0  0
   26.7190  -26.1385  -17.2439 C   0  0  0  0  0  0  0  0  0  0  0  0
   26.2726  -25.2346  -16.4966 O   0  0  0  0  0  0  0  0  0  0  0  0
   27.1150  -30.0741  -16.9086 C   0  0  0  0  0  0  0  0  0  0  0  0
   26.1208  -30.9862  -17.2308 C   0  0  0  0  0  0  0  0  0  0  0  0
   25.9788  -26.5185  -18.3546 O   0  0  0  0  0  0  0  0  0  0  0  0
  2  1  1  1
  2  4  1  0
  3  2  1  0
  4  6  1  0
  5  4  2  0
  6  7  1  0
  7  8  1  6
  9  8  1  0
 10  9  2  0
 11 10  1  0
 12 11  1  0
 12 13  2  0
 13  9  1  0
 14  7  1  0
 14 15  2  0
 16 17  1  0
 17 18  2  0
 17 27  1  0
 18 19  1  0
 19 20  2  0
 20 21  1  0
 22 21  1  1
 22 23  1  0
 22 24  1  0
 23 14  1  0
 24 25  2  0
 24 28  1  0
 26 20  1  0
 27 26  2  0
M  END
$$$$
