AHY.pdb
     RDKit          3D

 28 29  0  0  1  0  0  0  0  0999 V2000
   22.5988  -31.8519  -14.8945 C   0  0  0  0  0  0  0  0  0  0  0  0
   23.8964  -31.6831  -15.6202 C   0  0  2  0  0  0  0  0  0  0  0  0
   23.7165  -31.6951  -17.0571 N   0  0  0  0  0  0  0  0  0  0  0  0
   24.8893  -32.7325  -15.2436 C   0  0  0  0  0  0  0  0  0  0  0  0
   24.7521  -33.9314  -15.6180 O   0  0  0  0  0  0  0  0  0  0  0  0
   25.9864  -32.3818  -14.4653 N   0  0  0  0  0  0  0  0  0  0  0  0
   27.0376  -33.3799  -14.0414 C   0  0  1  0  0  0  0  0  0  0  0  0
   28.2914  -32.7161  -14.4957 C   0  0  0  0  0  0  0  0  0  0  0  0
   28.7882  -32.9628  -15.8302 C   0  0  0  0  0  0  0  0  0  0  0  0
   28.3722  -33.6855  -16.8893 C   0  0  0  0  0  0  0  0  0  0  0  0
   29.2001  -33.5107  -17.9540 N   0  0  0  0  0  0  0  0  0  0  0  0
   30.1304  -32.6699  -17.5365 C   0  0  0  0  0  0  0  0  0  0  0  0
   29.9232  -32.3196  -16.2819 N   0  0  0  0  0  0  0  0  0  0  0  0
   26.9312  -33.2568  -12.5371 C   0  0  0  0  0  0  0  0  0  0  0  0
   26.6074  -32.1201  -12.0220 O   0  0  0  0  0  0  0  0  0  0  0  0
   24.7897  -33.0201   -4.2287 O   0  0  0  0  0  0  0  0  0  0  0  0
   25.0081  -33.1182   -5.5974 C   0  0  0  0  0  0  0  0  0  0  0  0
   24.5409  -34.2063   -6.3029 C   0  0  0  0  0  0  0  0  0  0  0  0
   24.7523  -34.3139   -7.6627 C   0  0  0  0  0  0  0  0  0  0  0  0
   25.4328  -33.3526   -8.3812 C   0  0  0  0  0  0  0  0  0  0  0  0
   25.6458  -33.4934   -9.8441 C   0  0  0  0  0  0  0  0  0  0  0  0
   27.0132  -34.0446  -10.1642 C   0  0  2  0  0  0  0  0  0  0  0  0
   27.1510  -34.2831  -11.6104 N   0  0  0  0  0  0  0  0  0  0  0  0
   27.2748  -35.3158   -9.4443 C   0  0  0  0  0  0  0  0  0  0  0  0
   27.3606  -35.3669   -8.1933 O   0  0  0  0  0  0  0  0  0  0  0  0
   25.8985  -32.2639   -7.6665 C   0  0  0  0  0  0  0  0  0  0  0  0
   25.6906  -32.1478   -6.3000 C   0  0  0  0  0  0  0  0  0  0  0  0
   27.4293  -36.4844  -10.1766 O   0  0  0  0  0  0  0  0  0  0  0  0
  2  1  1  1
  2  4  1  0
  3  2  1  0
  4  6  1  0
  5  4  2  0
  6  7  1  0
  7  8  1  6
  9  8  1  0
 10  9  2  0
 11 10  1  0
 12 11  1  0
 12 13  2  0
 13  9  1  0
 14  7  1  0
 14 15  2  0
 16 17  1  0
 17 18  2  0
 17 27  1  0
 18 19  1  0
 19 20  2  0
 20 21  1  0
 22 21  1  6
 22 23  1  0
 22 24  1  0
 23 14  1  0
 24 25  2  0
 24 28  1  0
 26 20  1  0
 27 26  2  0
M  END
$$$$
