WCM.pdb
     RDKit          3D

 29 30  0  0  1  0  0  0  0  0999 V2000
    7.0886  -17.7546   20.4680 N   0  0  0  0  0  0  0  0  0  0  0  0
    7.6654  -16.9426   21.5171 C   0  0  1  0  0  0  0  0  0  0  0  0
    6.7540  -16.0898   22.2822 C   0  0  0  0  0  0  0  0  0  0  0  0
    7.0806  -14.7449   22.6238 C   0  0  0  0  0  0  0  0  0  0  0  0
    7.7593  -13.8566   21.8032 C   0  0  0  0  0  0  0  0  0  0  0  0
    7.9099  -12.7021   22.4286 N   0  0  0  0  0  0  0  0  0  0  0  0
    7.3596  -12.7513   23.6597 C   0  0  0  0  0  0  0  0  0  0  0  0
    7.2326  -11.8576   24.7015 C   0  0  0  0  0  0  0  0  0  0  0  0
    6.5885  -12.2421   25.8596 C   0  0  0  0  0  0  0  0  0  0  0  0
    6.0734  -13.5203   25.9709 C   0  0  0  0  0  0  0  0  0  0  0  0
    6.1937  -14.4266   24.9337 C   0  0  0  0  0  0  0  0  0  0  0  0
    6.8372  -14.0451   23.7759 C   0  0  0  0  0  0  0  0  0  0  0  0
    8.6751  -17.6712   22.3213 C   0  0  0  0  0  0  0  0  0  0  0  0
    8.2747  -18.7103   22.9213 O   0  0  0  0  0  0  0  0  0  0  0  0
   10.0272  -17.3220   22.4809 N   0  0  0  0  0  0  0  0  0  0  0  0
   10.9668  -18.0376   23.3031 C   0  0  1  0  0  0  0  0  0  0  0  0
   12.2205  -18.2337   22.4559 C   0  0  0  0  0  0  0  0  0  0  0  0
   13.3896  -19.1607   23.5223 S   0  0  0  0  0  0  0  0  0  0  0  0
   11.2540  -17.3566   24.5807 C   0  0  0  0  0  0  0  0  0  0  0  0
   11.5560  -16.1367   24.5294 O   0  0  0  0  0  0  0  0  0  0  0  0
   10.1948  -13.0198   27.5838 C   0  0  0  0  0  0  0  0  0  0  0  0
   10.1096  -14.0944   29.0215 S   0  0  0  0  0  0  0  0  0  0  0  0
   10.2600  -15.8180   28.6172 C   0  0  0  0  0  0  0  0  0  0  0  0
   10.7334  -16.1864   27.2779 C   0  0  0  0  0  0  0  0  0  0  0  0
   11.6846  -17.3073   27.0910 C   0  0  2  0  0  0  0  0  0  0  0  0
   11.2140  -17.9724   25.8406 N   0  0  0  0  0  0  0  0  0  0  0  0
   11.6175  -18.2784   28.1958 C   0  0  0  0  0  0  0  0  0  0  0  0
   11.0460  -19.3855   28.1780 O   0  0  0  0  0  0  0  0  0  0  0  0
   12.2484  -17.9781   29.4273 O   0  0  0  0  0  0  0  0  0  0  0  0
  2  3  1  0
  2  1  1  1
  2 13  1  0
  4  3  1  0
  4 12  1  0
  5  6  1  0
  5  4  2  0
  6  7  1  0
  7 12  2  0
  7  8  1  0
  8  9  2  0
  9 10  1  0
 11 10  2  0
 12 11  1  0
 13 14  2  0
 15 13  1  0
 15 16  1  0
 16 17  1  6
 18 17  1  0
 19 16  1  0
 19 20  2  0
 22 21  1  0
 23 22  1  0
 23 24  1  0
 25 24  1  1
 25 26  1  0
 25 27  1  0
 26 19  1  0
 27 29  1  0
 28 27  2  0
M  END
$$$$
