WCM.pdb
     RDKit          3D

 29 30  0  0  1  0  0  0  0  0999 V2000
    7.2205  -16.3174   22.3376 N   0  0  0  0  0  0  0  0  0  0  0  0
    8.5260  -16.2506   22.9571 C   0  0  1  0  0  0  0  0  0  0  0  0
    8.5980  -15.6973   24.3106 C   0  0  0  0  0  0  0  0  0  0  0  0
    7.5270  -14.9507   24.8829 C   0  0  0  0  0  0  0  0  0  0  0  0
    6.3836  -15.4992   25.4439 C   0  0  0  0  0  0  0  0  0  0  0  0
    5.5893  -14.5314   25.8669 N   0  0  0  0  0  0  0  0  0  0  0  0
    6.1374  -13.3231   25.6214 C   0  0  0  0  0  0  0  0  0  0  0  0
    5.7525  -12.0193   25.8493 C   0  0  0  0  0  0  0  0  0  0  0  0
    6.5781  -10.9833   25.4630 C   0  0  0  0  0  0  0  0  0  0  0  0
    7.7868  -11.2563   24.8499 C   0  0  0  0  0  0  0  0  0  0  0  0
    8.1852  -12.5593   24.6152 C   0  0  0  0  0  0  0  0  0  0  0  0
    7.3619  -13.5960   24.9997 C   0  0  0  0  0  0  0  0  0  0  0  0
    9.3362  -17.4706   22.7283 C   0  0  0  0  0  0  0  0  0  0  0  0
    9.0493  -18.1536   21.7030 O   0  0  0  0  0  0  0  0  0  0  0  0
   10.3871  -17.9397   23.5353 N   0  0  0  0  0  0  0  0  0  0  0  0
   11.7796  -17.6491   23.3179 C   0  0  1  0  0  0  0  0  0  0  0  0
   11.8287  -16.4537   22.3709 C   0  0  0  0  0  0  0  0  0  0  0  0
   13.5805  -16.3202   21.8447 S   0  0  0  0  0  0  0  0  0  0  0  0
   12.5220  -17.4038   24.5698 C   0  0  0  0  0  0  0  0  0  0  0  0
   13.7697  -17.5603   24.5412 O   0  0  0  0  0  0  0  0  0  0  0  0
    9.5649  -13.0050   28.4305 C   0  0  0  0  0  0  0  0  0  0  0  0
    9.6191  -14.8006   28.3869 S   0  0  0  0  0  0  0  0  0  0  0  0
   11.2397  -15.4440   28.0456 C   0  0  0  0  0  0  0  0  0  0  0  0
   11.4370  -16.8980   28.0680 C   0  0  0  0  0  0  0  0  0  0  0  0
   12.3550  -17.5540   27.1073 C   0  0  2  0  0  0  0  0  0  0  0  0
   11.9356  -17.0107   25.7821 N   0  0  0  0  0  0  0  0  0  0  0  0
   12.1857  -19.0166   27.0924 C   0  0  0  0  0  0  0  0  0  0  0  0
   11.5964  -19.6874   26.2233 O   0  0  0  0  0  0  0  0  0  0  0  0
   12.7266  -19.7919   28.1466 O   0  0  0  0  0  0  0  0  0  0  0  0
  2  3  1  0
  2  1  1  1
  2 13  1  0
  4  3  1  0
  4 12  1  0
  5  6  1  0
  5  4  2  0
  6  7  1  0
  7 12  2  0
  7  8  1  0
  8  9  2  0
  9 10  1  0
 11 10  2  0
 12 11  1  0
 13 14  2  0
 15 13  1  0
 15 16  1  0
 16 17  1  6
 18 17  1  0
 19 16  1  0
 19 20  2  0
 22 21  1  0
 23 22  1  0
 23 24  1  0
 25 24  1  1
 25 26  1  0
 25 27  1  0
 26 19  1  0
 27 29  1  0
 28 27  2  0
M  END
$$$$
