WCM.pdb
     RDKit          3D

 29 30  0  0  1  0  0  0  0  0999 V2000
    6.6991  -18.1200   24.4106 N   0  0  0  0  0  0  0  0  0  0  0  0
    7.3561  -16.9068   23.9759 C   0  0  1  0  0  0  0  0  0  0  0  0
    7.7173  -15.9334   25.0081 C   0  0  0  0  0  0  0  0  0  0  0  0
    6.7612  -15.0442   25.5801 C   0  0  0  0  0  0  0  0  0  0  0  0
    5.7231  -15.4220   26.4183 C   0  0  0  0  0  0  0  0  0  0  0  0
    5.0165  -14.3575   26.7562 N   0  0  0  0  0  0  0  0  0  0  0  0
    5.5244  -13.2464   26.1832 C   0  0  0  0  0  0  0  0  0  0  0  0
    5.1914  -11.9089   26.1980 C   0  0  0  0  0  0  0  0  0  0  0  0
    5.9483  -11.0061   25.4797 C   0  0  0  0  0  0  0  0  0  0  0  0
    7.0367  -11.4455   24.7490 C   0  0  0  0  0  0  0  0  0  0  0  0
    7.3819  -12.7841   24.7254 C   0  0  0  0  0  0  0  0  0  0  0  0
    6.6268  -13.6881   25.4417 C   0  0  0  0  0  0  0  0  0  0  0  0
    8.3931  -17.1498   22.9449 C   0  0  0  0  0  0  0  0  0  0  0  0
    9.1200  -18.1723   23.1069 O   0  0  0  0  0  0  0  0  0  0  0  0
    8.6457  -16.3593   21.8105 N   0  0  0  0  0  0  0  0  0  0  0  0
    9.9082  -16.2921   21.1233 C   0  0  1  0  0  0  0  0  0  0  0  0
    9.7792  -15.1760   20.0908 C   0  0  0  0  0  0  0  0  0  0  0  0
    8.1271  -15.4057   19.3285 S   0  0  0  0  0  0  0  0  0  0  0  0
   11.0521  -16.0852   22.0329 C   0  0  0  0  0  0  0  0  0  0  0  0
   11.8896  -15.2021   21.7154 O   0  0  0  0  0  0  0  0  0  0  0  0
   12.6015  -12.9178   27.4365 C   0  0  0  0  0  0  0  0  0  0  0  0
   12.3215  -14.6672   27.7364 S   0  0  0  0  0  0  0  0  0  0  0  0
   12.8903  -15.7046   26.4108 C   0  0  0  0  0  0  0  0  0  0  0  0
   12.0172  -15.8996   25.2475 C   0  0  0  0  0  0  0  0  0  0  0  0
   12.4932  -16.6439   24.0578 C   0  0  2  0  0  0  0  0  0  0  0  0
   11.2685  -16.8014   23.2196 N   0  0  0  0  0  0  0  0  0  0  0  0
   12.9995  -17.9811   24.4092 C   0  0  0  0  0  0  0  0  0  0  0  0
   12.3941  -19.0625   24.2793 O   0  0  0  0  0  0  0  0  0  0  0  0
   14.2998  -18.1134   24.9536 O   0  0  0  0  0  0  0  0  0  0  0  0
  2  3  1  0
  2  1  1  1
  2 13  1  0
  4  3  1  0
  4 12  1  0
  5  6  1  0
  5  4  2  0
  6  7  1  0
  7 12  2  0
  7  8  1  0
  8  9  2  0
  9 10  1  0
 11 10  2  0
 12 11  1  0
 13 14  2  0
 15 13  1  0
 15 16  1  0
 16 17  1  6
 18 17  1  0
 19 16  1  0
 19 20  2  0
 22 21  1  0
 23 22  1  0
 23 24  1  0
 25 24  1  1
 25 26  1  0
 25 27  1  0
 26 19  1  0
 27 29  1  0
 28 27  2  0
M  END
$$$$
