WCM.pdb
     RDKit          3D

 29 30  0  0  1  0  0  0  0  0999 V2000
    6.3608  -18.3031   24.1857 N   0  0  0  0  0  0  0  0  0  0  0  0
    7.2739  -17.2112   23.9274 C   0  0  1  0  0  0  0  0  0  0  0  0
    7.7143  -16.4195   25.0775 C   0  0  0  0  0  0  0  0  0  0  0  0
    6.9960  -15.2743   25.5298 C   0  0  0  0  0  0  0  0  0  0  0  0
    5.6597  -15.2667   25.9001 C   0  0  0  0  0  0  0  0  0  0  0  0
    5.3047  -14.0438   26.2536 N   0  0  0  0  0  0  0  0  0  0  0  0
    6.3471  -13.1940   26.1437 C   0  0  0  0  0  0  0  0  0  0  0  0
    6.5295  -11.8478   26.3770 C   0  0  0  0  0  0  0  0  0  0  0  0
    7.7660  -11.2757   26.1583 C   0  0  0  0  0  0  0  0  0  0  0  0
    8.8161  -12.0535   25.7068 C   0  0  0  0  0  0  0  0  0  0  0  0
    8.6470  -13.4050   25.4689 C   0  0  0  0  0  0  0  0  0  0  0  0
    7.4125  -13.9788   25.6860 C   0  0  0  0  0  0  0  0  0  0  0  0
    8.3383  -17.5661   22.9587 C   0  0  0  0  0  0  0  0  0  0  0  0
    8.9764  -18.6338   23.1887 O   0  0  0  0  0  0  0  0  0  0  0  0
    8.7052  -16.8359   21.8152 N   0  0  0  0  0  0  0  0  0  0  0  0
   10.0381  -16.7722   21.2765 C   0  0  1  0  0  0  0  0  0  0  0  0
   10.0074  -15.7214   20.1706 C   0  0  0  0  0  0  0  0  0  0  0  0
   11.6762  -15.7637   19.4112 S   0  0  0  0  0  0  0  0  0  0  0  0
   11.0623  -16.4809   22.2987 C   0  0  0  0  0  0  0  0  0  0  0  0
   12.2647  -16.6698   21.9813 O   0  0  0  0  0  0  0  0  0  0  0  0
    9.9353  -12.6137   27.8188 C   0  0  0  0  0  0  0  0  0  0  0  0
   10.8558  -14.0751   28.3149 S   0  0  0  0  0  0  0  0  0  0  0  0
   11.7955  -14.7940   26.9894 C   0  0  0  0  0  0  0  0  0  0  0  0
   11.1014  -15.1398   25.7435 C   0  0  0  0  0  0  0  0  0  0  0  0
   11.8540  -15.6409   24.5695 C   0  0  2  0  0  0  0  0  0  0  0  0
   10.7889  -16.0111   23.5919 N   0  0  0  0  0  0  0  0  0  0  0  0
   12.6394  -16.8445   24.8897 C   0  0  0  0  0  0  0  0  0  0  0  0
   13.8674  -16.8976   25.0944 O   0  0  0  0  0  0  0  0  0  0  0  0
   11.9866  -18.0971   24.9886 O   0  0  0  0  0  0  0  0  0  0  0  0
  2  3  1  0
  2  1  1  1
  2 13  1  0
  4  3  1  0
  4 12  1  0
  5  6  1  0
  5  4  2  0
  6  7  1  0
  7 12  2  0
  7  8  1  0
  8  9  2  0
  9 10  1  0
 11 10  2  0
 12 11  1  0
 13 14  2  0
 15 13  1  0
 15 16  1  0
 16 17  1  6
 18 17  1  0
 19 16  1  0
 19 20  2  0
 22 21  1  0
 23 22  1  0
 23 24  1  0
 25 24  1  1
 25 26  1  0
 25 27  1  0
 26 19  1  0
 27 29  1  0
 28 27  2  0
M  END
$$$$
