WCM.pdb
     RDKit          3D

 29 30  0  0  1  0  0  0  0  0999 V2000
    6.4567  -18.0360   24.0019 N   0  0  0  0  0  0  0  0  0  0  0  0
    7.3872  -16.9320   24.0907 C   0  0  1  0  0  0  0  0  0  0  0  0
    7.4463  -16.2058   25.3605 C   0  0  0  0  0  0  0  0  0  0  0  0
    6.6499  -15.0504   25.6115 C   0  0  0  0  0  0  0  0  0  0  0  0
    5.5237  -15.0190   26.4200 C   0  0  0  0  0  0  0  0  0  0  0  0
    5.0153  -13.7991   26.4246 N   0  0  0  0  0  0  0  0  0  0  0  0
    5.7473  -12.9745   25.6467 C   0  0  0  0  0  0  0  0  0  0  0  0
    5.6708  -11.6409   25.3064 C   0  0  0  0  0  0  0  0  0  0  0  0
    6.6144  -11.0941   24.4611 C   0  0  0  0  0  0  0  0  0  0  0  0
    7.6319  -11.8844   23.9594 C   0  0  0  0  0  0  0  0  0  0  0  0
    7.7205  -13.2234   24.2926 C   0  0  0  0  0  0  0  0  0  0  0  0
    6.7786  -13.7722   25.1364 C   0  0  0  0  0  0  0  0  0  0  0  0
    8.7002  -17.2329   23.4723 C   0  0  0  0  0  0  0  0  0  0  0  0
    9.2991  -18.2639   23.8948 O   0  0  0  0  0  0  0  0  0  0  0  0
    9.3411  -16.4885   22.4669 N   0  0  0  0  0  0  0  0  0  0  0  0
   10.7425  -16.5740   22.1514 C   0  0  1  0  0  0  0  0  0  0  0  0
   11.0062  -15.5307   21.0696 C   0  0  0  0  0  0  0  0  0  0  0  0
   10.0443  -16.0873   19.6107 S   0  0  0  0  0  0  0  0  0  0  0  0
   11.6132  -16.3929   23.3294 C   0  0  0  0  0  0  0  0  0  0  0  0
   12.0094  -15.2258   23.5803 O   0  0  0  0  0  0  0  0  0  0  0  0
   10.1533  -14.0585   27.7895 C   0  0  0  0  0  0  0  0  0  0  0  0
   11.7587  -14.5679   28.4156 S   0  0  0  0  0  0  0  0  0  0  0  0
   12.3824  -16.0354   27.6317 C   0  0  0  0  0  0  0  0  0  0  0  0
   12.0516  -16.2729   26.2218 C   0  0  0  0  0  0  0  0  0  0  0  0
   12.8644  -17.1979   25.3972 C   0  0  2  0  0  0  0  0  0  0  0  0
   12.0269  -17.4262   24.1832 N   0  0  0  0  0  0  0  0  0  0  0  0
   13.0830  -18.4896   26.0693 C   0  0  0  0  0  0  0  0  0  0  0  0
   14.0382  -18.7886   26.8116 O   0  0  0  0  0  0  0  0  0  0  0  0
   12.1457  -19.5358   25.8910 O   0  0  0  0  0  0  0  0  0  0  0  0
  2  3  1  0
  2  1  1  1
  2 13  1  0
  4  3  1  0
  4 12  1  0
  5  6  1  0
  5  4  2  0
  6  7  1  0
  7 12  2  0
  7  8  1  0
  8  9  2  0
  9 10  1  0
 11 10  2  0
 12 11  1  0
 13 14  2  0
 15 13  1  0
 15 16  1  0
 16 17  1  6
 18 17  1  0
 19 16  1  0
 19 20  2  0
 22 21  1  0
 23 22  1  0
 23 24  1  0
 25 24  1  1
 25 26  1  0
 25 27  1  0
 26 19  1  0
 27 29  1  0
 28 27  2  0
M  END
$$$$
