WCM.pdb
     RDKit          3D

 29 30  0  0  1  0  0  0  0  0999 V2000
    6.3990  -17.9750   24.4416 N   0  0  0  0  0  0  0  0  0  0  0  0
    7.4886  -17.0539   24.2031 C   0  0  1  0  0  0  0  0  0  0  0  0
    7.9256  -16.2268   25.3293 C   0  0  0  0  0  0  0  0  0  0  0  0
    7.2221  -15.0520   25.7255 C   0  0  0  0  0  0  0  0  0  0  0  0
    6.0102  -15.0379   26.3995 C   0  0  0  0  0  0  0  0  0  0  0  0
    5.6289  -13.7885   26.5997 N   0  0  0  0  0  0  0  0  0  0  0  0
    6.5327  -12.9264   26.0890 C   0  0  0  0  0  0  0  0  0  0  0  0
    6.6331  -11.5532   26.0226 C   0  0  0  0  0  0  0  0  0  0  0  0
    7.7268  -10.9747   25.4118 C   0  0  0  0  0  0  0  0  0  0  0  0
    8.7169  -11.7732   24.8697 C   0  0  0  0  0  0  0  0  0  0  0  0
    8.6288  -13.1517   24.9293 C   0  0  0  0  0  0  0  0  0  0  0  0
    7.5367  -13.7321   25.5384 C   0  0  0  0  0  0  0  0  0  0  0  0
    8.5792  -17.6476   23.3936 C   0  0  0  0  0  0  0  0  0  0  0  0
    9.0448  -18.7518   23.7986 O   0  0  0  0  0  0  0  0  0  0  0  0
    9.1430  -17.1062   22.2254 N   0  0  0  0  0  0  0  0  0  0  0  0
   10.5500  -17.0955   21.9236 C   0  0  1  0  0  0  0  0  0  0  0  0
   10.6975  -16.3938   20.5767 C   0  0  0  0  0  0  0  0  0  0  0  0
   12.4421  -16.6589   20.0773 S   0  0  0  0  0  0  0  0  0  0  0  0
   11.3635  -16.4607   22.9789 C   0  0  0  0  0  0  0  0  0  0  0  0
   11.6114  -15.2335   22.8569 O   0  0  0  0  0  0  0  0  0  0  0  0
    8.3056  -14.2938   27.3252 C   0  0  0  0  0  0  0  0  0  0  0  0
    9.8758  -15.0423   27.7761 S   0  0  0  0  0  0  0  0  0  0  0  0
   11.0318  -15.1094   26.4285 C   0  0  0  0  0  0  0  0  0  0  0  0
   11.8826  -16.2973   26.2918 C   0  0  0  0  0  0  0  0  0  0  0  0
   12.7594  -16.4707   25.1098 C   0  0  2  0  0  0  0  0  0  0  0  0
   11.8765  -17.1274   24.1015 N   0  0  0  0  0  0  0  0  0  0  0  0
   13.8971  -17.3617   25.3921 C   0  0  0  0  0  0  0  0  0  0  0  0
   14.9079  -17.0851   26.0663 O   0  0  0  0  0  0  0  0  0  0  0  0
   13.8978  -18.6782   24.8709 O   0  0  0  0  0  0  0  0  0  0  0  0
  2  3  1  0
  2  1  1  1
  2 13  1  0
  4  3  1  0
  4 12  1  0
  5  6  1  0
  5  4  2  0
  6  7  1  0
  7 12  2  0
  7  8  1  0
  8  9  2  0
  9 10  1  0
 11 10  2  0
 12 11  1  0
 13 14  2  0
 15 13  1  0
 15 16  1  0
 16 17  1  6
 18 17  1  0
 19 16  1  0
 19 20  2  0
 22 21  1  0
 23 22  1  0
 23 24  1  0
 25 24  1  1
 25 26  1  0
 25 27  1  0
 26 19  1  0
 27 29  1  0
 28 27  2  0
M  END
$$$$
