WCM.pdb
     RDKit          3D

 29 30  0  0  1  0  0  0  0  0999 V2000
    6.2228  -18.3286   23.7092 N   0  0  0  0  0  0  0  0  0  0  0  0
    7.1472  -17.2376   23.9283 C   0  0  1  0  0  0  0  0  0  0  0  0
    7.3086  -16.7619   25.3035 C   0  0  0  0  0  0  0  0  0  0  0  0
    6.8035  -15.5003   25.7339 C   0  0  0  0  0  0  0  0  0  0  0  0
    5.6678  -15.3188   26.5086 C   0  0  0  0  0  0  0  0  0  0  0  0
    5.4734  -14.0279   26.7147 N   0  0  0  0  0  0  0  0  0  0  0  0
    6.4346  -13.2986   26.1107 C   0  0  0  0  0  0  0  0  0  0  0  0
    6.7088  -11.9517   26.0073 C   0  0  0  0  0  0  0  0  0  0  0  0
    7.8115  -11.5296   25.2932 C   0  0  0  0  0  0  0  0  0  0  0  0
    8.6364  -12.4577   24.6850 C   0  0  0  0  0  0  0  0  0  0  0  0
    8.3730  -13.8116   24.7807 C   0  0  0  0  0  0  0  0  0  0  0  0
    7.2716  -14.2358   25.4930 C   0  0  0  0  0  0  0  0  0  0  0  0
    8.4049  -17.3836   23.1576 C   0  0  0  0  0  0  0  0  0  0  0  0
    8.9294  -18.5346   23.1476 O   0  0  0  0  0  0  0  0  0  0  0  0
    9.0678  -16.3729   22.4402 N   0  0  0  0  0  0  0  0  0  0  0  0
   10.4692  -16.3847   22.1132 C   0  0  1  0  0  0  0  0  0  0  0  0
   10.6957  -15.2302   21.1416 C   0  0  0  0  0  0  0  0  0  0  0  0
    9.3909  -15.4043   19.8647 S   0  0  0  0  0  0  0  0  0  0  0  0
   11.3414  -16.2978   23.3007 C   0  0  0  0  0  0  0  0  0  0  0  0
   12.3262  -15.5178   23.2377 O   0  0  0  0  0  0  0  0  0  0  0  0
    9.3400  -12.5721   27.4572 C   0  0  0  0  0  0  0  0  0  0  0  0
   10.1457  -14.1042   27.9395 S   0  0  0  0  0  0  0  0  0  0  0  0
   11.0480  -14.8682   26.6132 C   0  0  0  0  0  0  0  0  0  0  0  0
   11.3554  -16.3001   26.7066 C   0  0  0  0  0  0  0  0  0  0  0  0
   12.1084  -16.9862   25.6303 C   0  0  2  0  0  0  0  0  0  0  0  0
   11.1492  -17.0208   24.4874 N   0  0  0  0  0  0  0  0  0  0  0  0
   12.4569  -18.3694   25.9956 C   0  0  0  0  0  0  0  0  0  0  0  0
   13.3025  -18.7244   26.8392 O   0  0  0  0  0  0  0  0  0  0  0  0
   11.7967  -19.4467   25.3566 O   0  0  0  0  0  0  0  0  0  0  0  0
  2  3  1  0
  2  1  1  1
  2 13  1  0
  4  3  1  0
  4 12  1  0
  5  6  1  0
  5  4  2  0
  6  7  1  0
  7 12  2  0
  7  8  1  0
  8  9  2  0
  9 10  1  0
 11 10  2  0
 12 11  1  0
 13 14  2  0
 15 13  1  0
 15 16  1  0
 16 17  1  6
 18 17  1  0
 19 16  1  0
 19 20  2  0
 22 21  1  0
 23 22  1  0
 23 24  1  0
 25 24  1  1
 25 26  1  0
 25 27  1  0
 26 19  1  0
 27 29  1  0
 28 27  2  0
M  END
$$$$
