WCM.pdb
     RDKit          3D

 29 30  0  0  1  0  0  0  0  0999 V2000
    6.5001  -18.1737   24.5849 N   0  0  0  0  0  0  0  0  0  0  0  0
    7.1958  -16.9670   24.1942 C   0  0  1  0  0  0  0  0  0  0  0  0
    7.6089  -16.0557   25.2629 C   0  0  0  0  0  0  0  0  0  0  0  0
    6.7009  -15.1430   25.8747 C   0  0  0  0  0  0  0  0  0  0  0  0
    5.6345  -15.5024   26.6850 C   0  0  0  0  0  0  0  0  0  0  0  0
    4.9880  -14.4173   27.0741 N   0  0  0  0  0  0  0  0  0  0  0  0
    5.5654  -13.3096   26.5639 C   0  0  0  0  0  0  0  0  0  0  0  0
    5.3109  -11.9574   26.6471 C   0  0  0  0  0  0  0  0  0  0  0  0
    6.1262  -11.0643   25.9824 C   0  0  0  0  0  0  0  0  0  0  0  0
    7.1940  -11.5281   25.2367 C   0  0  0  0  0  0  0  0  0  0  0  0
    7.4607  -12.8817   25.1447 C   0  0  0  0  0  0  0  0  0  0  0  0
    6.6473  -13.7759   25.8073 C   0  0  0  0  0  0  0  0  0  0  0  0
    8.2072  -17.2011   23.1361 C   0  0  0  0  0  0  0  0  0  0  0  0
    8.9390  -18.2238   23.2724 O   0  0  0  0  0  0  0  0  0  0  0  0
    8.4307  -16.4018   22.0017 N   0  0  0  0  0  0  0  0  0  0  0  0
    9.6830  -16.3086   21.2989 C   0  0  1  0  0  0  0  0  0  0  0  0
    9.5792  -15.0862   20.3916 C   0  0  0  0  0  0  0  0  0  0  0  0
    7.8785  -14.4433   20.6324 S   0  0  0  0  0  0  0  0  0  0  0  0
   10.8493  -16.2402   22.2010 C   0  0  0  0  0  0  0  0  0  0  0  0
   11.3163  -15.1002   22.4552 O   0  0  0  0  0  0  0  0  0  0  0  0
   11.3060  -15.9656   28.6153 C   0  0  0  0  0  0  0  0  0  0  0  0
   11.2413  -14.9160   27.1582 S   0  0  0  0  0  0  0  0  0  0  0  0
   12.2076  -15.5387   25.8034 C   0  0  0  0  0  0  0  0  0  0  0  0
   11.6761  -16.6590   25.0184 C   0  0  0  0  0  0  0  0  0  0  0  0
   12.4581  -17.2423   23.9030 C   0  0  2  0  0  0  0  0  0  0  0  0
   11.4692  -17.3519   22.7906 N   0  0  0  0  0  0  0  0  0  0  0  0
   12.9580  -18.5895   24.2242 C   0  0  0  0  0  0  0  0  0  0  0  0
   12.3752  -19.6693   24.0074 O   0  0  0  0  0  0  0  0  0  0  0  0
   14.2233  -18.7345   24.8428 O   0  0  0  0  0  0  0  0  0  0  0  0
  2  3  1  0
  2  1  1  1
  2 13  1  0
  4  3  1  0
  4 12  1  0
  5  6  1  0
  5  4  2  0
  6  7  1  0
  7 12  2  0
  7  8  1  0
  8  9  2  0
  9 10  1  0
 11 10  2  0
 12 11  1  0
 13 14  2  0
 15 13  1  0
 15 16  1  0
 16 17  1  1
 18 17  1  0
 19 16  1  0
 19 20  2  0
 22 21  1  0
 23 22  1  0
 23 24  1  0
 25 24  1  1
 25 26  1  0
 25 27  1  0
 26 19  1  0
 27 29  1  0
 28 27  2  0
M  END
$$$$
