WCM.pdb
     RDKit          3D

 29 30  0  0  1  0  0  0  0  0999 V2000
    6.7283  -17.5975   24.7827 N   0  0  0  0  0  0  0  0  0  0  0  0
    7.6675  -16.7246   24.1129 C   0  0  1  0  0  0  0  0  0  0  0  0
    7.8937  -15.4041   24.7034 C   0  0  0  0  0  0  0  0  0  0  0  0
    6.8187  -14.5594   25.1070 C   0  0  0  0  0  0  0  0  0  0  0  0
    5.5962  -15.0011   25.5901 C   0  0  0  0  0  0  0  0  0  0  0  0
    4.8235  -13.9625   25.8567 N   0  0  0  0  0  0  0  0  0  0  0  0
    5.4633  -12.8079   25.5768 C   0  0  0  0  0  0  0  0  0  0  0  0
    5.1361  -11.4718   25.6656 C   0  0  0  0  0  0  0  0  0  0  0  0
    6.0549  -10.5145   25.2870 C   0  0  0  0  0  0  0  0  0  0  0  0
    7.2987  -10.8981   24.8208 C   0  0  0  0  0  0  0  0  0  0  0  0
    7.6400  -12.2347   24.7267 C   0  0  0  0  0  0  0  0  0  0  0  0
    6.7236  -13.1930   25.1037 C   0  0  0  0  0  0  0  0  0  0  0  0
    8.8881  -17.4314   23.6574 C   0  0  0  0  0  0  0  0  0  0  0  0
    9.4159  -18.2329   24.4815 O   0  0  0  0  0  0  0  0  0  0  0  0
    9.5127  -17.2990   22.4052 N   0  0  0  0  0  0  0  0  0  0  0  0
   10.9340  -17.1940   22.2056 C   0  0  1  0  0  0  0  0  0  0  0  0
   11.1346  -16.2791   21.0010 C   0  0  0  0  0  0  0  0  0  0  0  0
   12.9022  -16.4542   20.5447 S   0  0  0  0  0  0  0  0  0  0  0  0
   11.6525  -16.7124   23.4015 C   0  0  0  0  0  0  0  0  0  0  0  0
   11.9163  -15.4839   23.4607 O   0  0  0  0  0  0  0  0  0  0  0  0
   10.4315  -14.3035   28.1412 C   0  0  0  0  0  0  0  0  0  0  0  0
   10.7380  -16.0330   28.5202 S   0  0  0  0  0  0  0  0  0  0  0  0
   11.0377  -17.0238   27.0761 C   0  0  0  0  0  0  0  0  0  0  0  0
   12.4141  -17.4407   26.7838 C   0  0  0  0  0  0  0  0  0  0  0  0
   13.0549  -17.0918   25.4940 C   0  0  2  0  0  0  0  0  0  0  0  0
   12.0594  -17.5251   24.4701 N   0  0  0  0  0  0  0  0  0  0  0  0
   14.3067  -17.8370   25.2799 C   0  0  0  0  0  0  0  0  0  0  0  0
   15.4261  -17.5603   25.7522 O   0  0  0  0  0  0  0  0  0  0  0  0
   14.2983  -18.9941   24.4639 O   0  0  0  0  0  0  0  0  0  0  0  0
  2  3  1  0
  2  1  1  1
  2 13  1  0
  4  3  1  0
  4 12  1  0
  5  6  1  0
  5  4  2  0
  6  7  1  0
  7 12  2  0
  7  8  1  0
  8  9  2  0
  9 10  1  0
 11 10  2  0
 12 11  1  0
 13 14  2  0
 15 13  1  0
 15 16  1  0
 16 17  1  6
 18 17  1  0
 19 16  1  0
 19 20  2  0
 22 21  1  0
 23 22  1  0
 23 24  1  0
 25 24  1  1
 25 26  1  0
 25 27  1  0
 26 19  1  0
 27 29  1  0
 28 27  2  0
M  END
$$$$
