WCM.pdb
     RDKit          3D

 29 30  0  0  1  0  0  0  0  0999 V2000
    6.6286  -17.7301   25.0068 N   0  0  0  0  0  0  0  0  0  0  0  0
    7.4535  -16.8150   24.2487 C   0  0  1  0  0  0  0  0  0  0  0  0
    7.7680  -15.5262   24.8679 C   0  0  0  0  0  0  0  0  0  0  0  0
    6.7523  -14.6230   25.2975 C   0  0  0  0  0  0  0  0  0  0  0  0
    5.6759  -14.9595   26.1043 C   0  0  0  0  0  0  0  0  0  0  0  0
    4.9184  -13.8942   26.2998 N   0  0  0  0  0  0  0  0  0  0  0  0
    5.4277  -12.8225   25.6572 C   0  0  0  0  0  0  0  0  0  0  0  0
    5.0548  -11.5018   25.5282 C   0  0  0  0  0  0  0  0  0  0  0  0
    5.8278  -10.6418   24.7752 C   0  0  0  0  0  0  0  0  0  0  0  0
    6.9719  -11.1071   24.1540 C   0  0  0  0  0  0  0  0  0  0  0  0
    7.3575  -12.4294   24.2750 C   0  0  0  0  0  0  0  0  0  0  0  0
    6.5866  -13.2906   25.0262 C   0  0  0  0  0  0  0  0  0  0  0  0
    8.5894  -17.4864   23.5734 C   0  0  0  0  0  0  0  0  0  0  0  0
    9.1589  -18.4145   24.2171 O   0  0  0  0  0  0  0  0  0  0  0  0
    9.0924  -17.1942   22.2938 N   0  0  0  0  0  0  0  0  0  0  0  0
   10.4898  -17.0868   21.9676 C   0  0  1  0  0  0  0  0  0  0  0  0
   10.5697  -16.2984   20.6637 C   0  0  0  0  0  0  0  0  0  0  0  0
   12.3316  -16.3675   20.1593 S   0  0  0  0  0  0  0  0  0  0  0  0
   11.2901  -16.4721   23.0447 C   0  0  0  0  0  0  0  0  0  0  0  0
   10.8472  -15.4140   23.5609 O   0  0  0  0  0  0  0  0  0  0  0  0
   10.1968  -16.2255   28.1180 C   0  0  0  0  0  0  0  0  0  0  0  0
   11.8904  -16.5895   28.5959 S   0  0  0  0  0  0  0  0  0  0  0  0
   12.9986  -16.7060   27.2120 C   0  0  0  0  0  0  0  0  0  0  0  0
   12.4303  -16.7627   25.8601 C   0  0  0  0  0  0  0  0  0  0  0  0
   13.2418  -16.3837   24.6795 C   0  0  2  0  0  0  0  0  0  0  0  0
   12.5034  -16.9831   23.5294 N   0  0  0  0  0  0  0  0  0  0  0  0
   14.5930  -16.9667   24.7279 C   0  0  0  0  0  0  0  0  0  0  0  0
   15.4995  -16.6754   25.5316 O   0  0  0  0  0  0  0  0  0  0  0  0
   14.9558  -17.9643   23.7909 O   0  0  0  0  0  0  0  0  0  0  0  0
  2  3  1  0
  2  1  1  1
  2 13  1  0
  4  3  1  0
  4 12  1  0
  5  6  1  0
  5  4  2  0
  6  7  1  0
  7 12  2  0
  7  8  1  0
  8  9  2  0
  9 10  1  0
 11 10  2  0
 12 11  1  0
 13 14  2  0
 15 13  1  0
 15 16  1  0
 16 17  1  6
 18 17  1  0
 19 16  1  0
 19 20  2  0
 22 21  1  0
 23 22  1  0
 23 24  1  0
 25 24  1  1
 25 26  1  0
 25 27  1  0
 26 19  1  0
 27 29  1  0
 28 27  2  0
M  END
$$$$
