WCM.pdb
     RDKit          3D

 29 30  0  0  1  0  0  0  0  0999 V2000
    7.5482  -18.2027   20.7860 N   0  0  0  0  0  0  0  0  0  0  0  0
    7.9759  -17.1857   21.7216 C   0  0  1  0  0  0  0  0  0  0  0  0
    6.9439  -16.3056   22.2728 C   0  0  0  0  0  0  0  0  0  0  0  0
    7.2248  -14.9678   22.6773 C   0  0  0  0  0  0  0  0  0  0  0  0
    7.6930  -13.9645   21.8425 C   0  0  0  0  0  0  0  0  0  0  0  0
    7.8613  -12.8526   22.5369 N   0  0  0  0  0  0  0  0  0  0  0  0
    7.5266  -13.0429   23.8301 C   0  0  0  0  0  0  0  0  0  0  0  0
    7.5093  -12.2458   24.9546 C   0  0  0  0  0  0  0  0  0  0  0  0
    7.0946  -12.7716   26.1611 C   0  0  0  0  0  0  0  0  0  0  0  0
    6.6982  -14.0939   26.2377 C   0  0  0  0  0  0  0  0  0  0  0  0
    6.7107  -14.9045   25.1176 C   0  0  0  0  0  0  0  0  0  0  0  0
    7.1252  -14.3818   23.9113 C   0  0  0  0  0  0  0  0  0  0  0  0
    8.9711  -17.6842   22.7005 C   0  0  0  0  0  0  0  0  0  0  0  0
    8.5730  -18.5757   23.5047 O   0  0  0  0  0  0  0  0  0  0  0  0
   10.3074  -17.2653   22.8211 N   0  0  0  0  0  0  0  0  0  0  0  0
   11.2326  -17.7520   23.8100 C   0  0  1  0  0  0  0  0  0  0  0  0
   12.5840  -17.8771   23.1128 C   0  0  0  0  0  0  0  0  0  0  0  0
   12.8124  -16.2998   22.2055 S   0  0  0  0  0  0  0  0  0  0  0  0
   11.2983  -16.8971   25.0115 C   0  0  0  0  0  0  0  0  0  0  0  0
   11.8668  -15.7811   24.8954 O   0  0  0  0  0  0  0  0  0  0  0  0
    8.0248  -12.1245   26.8159 C   0  0  0  0  0  0  0  0  0  0  0  0
    8.1831  -13.7316   27.6038 S   0  0  0  0  0  0  0  0  0  0  0  0
    9.7767  -14.4778   27.3582 C   0  0  0  0  0  0  0  0  0  0  0  0
   10.0350  -15.7942   27.9533 C   0  0  0  0  0  0  0  0  0  0  0  0
   11.2101  -16.5965   27.5396 C   0  0  2  0  0  0  0  0  0  0  0  0
   10.7739  -17.2413   26.2663 N   0  0  0  0  0  0  0  0  0  0  0  0
   11.5307  -17.6507   28.5164 C   0  0  0  0  0  0  0  0  0  0  0  0
   11.9665  -17.4850   29.6719 O   0  0  0  0  0  0  0  0  0  0  0  0
   11.3446  -19.0089   28.1626 O   0  0  0  0  0  0  0  0  0  0  0  0
  2  3  1  0
  2  1  1  1
  2 13  1  0
  4  3  1  0
  4 12  1  0
  5  6  1  0
  5  4  2  0
  6  7  1  0
  7 12  2  0
  7  8  1  0
  8  9  2  0
  9 10  1  0
 11 10  2  0
 12 11  1  0
 13 14  2  0
 15 13  1  0
 15 16  1  0
 16 17  1  6
 18 17  1  0
 19 16  1  0
 19 20  2  0
 22 21  1  0
 23 22  1  0
 23 24  1  0
 25 24  1  1
 25 26  1  0
 25 27  1  0
 26 19  1  0
 27 29  1  0
 28 27  2  0
M  END
$$$$
