WCM.pdb
     RDKit          3D

 29 30  0  0  1  0  0  0  0  0999 V2000
    6.4367  -19.2070   24.1058 N   0  0  0  0  0  0  0  0  0  0  0  0
    6.8846  -17.8316   24.1198 C   0  0  1  0  0  0  0  0  0  0  0  0
    7.1932  -17.2405   25.4231 C   0  0  0  0  0  0  0  0  0  0  0  0
    6.5362  -16.0685   25.8993 C   0  0  0  0  0  0  0  0  0  0  0  0
    5.2600  -16.0346   26.4407 C   0  0  0  0  0  0  0  0  0  0  0  0
    4.9497  -14.7920   26.7669 N   0  0  0  0  0  0  0  0  0  0  0  0
    5.9655  -13.9539   26.4724 C   0  0  0  0  0  0  0  0  0  0  0  0
    6.1717  -12.5972   26.6018 C   0  0  0  0  0  0  0  0  0  0  0  0
    7.3665  -12.0432   26.1901 C   0  0  0  0  0  0  0  0  0  0  0  0
    8.3513  -12.8497   25.6503 C   0  0  0  0  0  0  0  0  0  0  0  0
    8.1576  -14.2119   25.5147 C   0  0  0  0  0  0  0  0  0  0  0  0
    6.9645  -14.7677   25.9247 C   0  0  0  0  0  0  0  0  0  0  0  0
    7.8571  -17.5305   23.0423 C   0  0  0  0  0  0  0  0  0  0  0  0
    8.6473  -18.4640   22.7195 O   0  0  0  0  0  0  0  0  0  0  0  0
    7.9855  -16.3154   22.3477 N   0  0  0  0  0  0  0  0  0  0  0  0
    9.0518  -16.0032   21.4330 C   0  0  1  0  0  0  0  0  0  0  0  0
    8.7020  -14.6573   20.8050 C   0  0  0  0  0  0  0  0  0  0  0  0
    8.8933  -13.4267   22.1512 S   0  0  0  0  0  0  0  0  0  0  0  0
   10.3809  -15.9942   22.0749 C   0  0  0  0  0  0  0  0  0  0  0  0
   11.3629  -15.6588   21.3640 O   0  0  0  0  0  0  0  0  0  0  0  0
   10.5057  -13.5557   28.5070 C   0  0  0  0  0  0  0  0  0  0  0  0
   10.5340  -15.1380   27.6560 S   0  0  0  0  0  0  0  0  0  0  0  0
   11.5725  -15.1390   26.2143 C   0  0  0  0  0  0  0  0  0  0  0  0
   11.7418  -16.3934   25.4717 C   0  0  0  0  0  0  0  0  0  0  0  0
   11.9904  -16.3827   24.0109 C   0  0  2  0  0  0  0  0  0  0  0  0
   10.6231  -16.3320   23.4147 N   0  0  0  0  0  0  0  0  0  0  0  0
   12.6582  -17.6134   23.5553 C   0  0  0  0  0  0  0  0  0  0  0  0
   12.1423  -18.5401   22.9013 O   0  0  0  0  0  0  0  0  0  0  0  0
   14.0251  -17.8192   23.8618 O   0  0  0  0  0  0  0  0  0  0  0  0
  2  3  1  0
  2  1  1  1
  2 13  1  0
  4  3  1  0
  4 12  1  0
  5  6  1  0
  5  4  2  0
  6  7  1  0
  7 12  2  0
  7  8  1  0
  8  9  2  0
  9 10  1  0
 11 10  2  0
 12 11  1  0
 13 14  2  0
 15 13  1  0
 15 16  1  0
 16 17  1  1
 18 17  1  0
 19 16  1  0
 19 20  2  0
 22 21  1  0
 23 22  1  0
 23 24  1  0
 25 24  1  1
 25 26  1  0
 25 27  1  0
 26 19  1  0
 27 29  1  0
 28 27  2  0
M  END
$$$$
