WCM.pdb
     RDKit          3D

 29 30  0  0  1  0  0  0  0  0999 V2000
    6.2454  -18.0772   24.4034 N   0  0  0  0  0  0  0  0  0  0  0  0
    7.0331  -16.9429   23.9726 C   0  0  1  0  0  0  0  0  0  0  0  0
    7.6065  -16.0903   25.0155 C   0  0  0  0  0  0  0  0  0  0  0  0
    6.8250  -15.1357   25.7296 C   0  0  0  0  0  0  0  0  0  0  0  0
    5.6549  -15.4184   26.4180 C   0  0  0  0  0  0  0  0  0  0  0  0
    5.1767  -14.3089   26.9537 N   0  0  0  0  0  0  0  0  0  0  0  0
    5.9722  -13.2581   26.6640 C   0  0  0  0  0  0  0  0  0  0  0  0
    5.9478  -11.9124   26.9615 C   0  0  0  0  0  0  0  0  0  0  0  0
    6.9518  -11.0889   26.4946 C   0  0  0  0  0  0  0  0  0  0  0  0
    7.9773  -11.6158   25.7315 C   0  0  0  0  0  0  0  0  0  0  0  0
    8.0140  -12.9637   25.4257 C   0  0  0  0  0  0  0  0  0  0  0  0
    7.0119  -13.7883   25.8904 C   0  0  0  0  0  0  0  0  0  0  0  0
    7.9434  -17.2663   22.8484 C   0  0  0  0  0  0  0  0  0  0  0  0
    8.5152  -18.3937   22.8926 O   0  0  0  0  0  0  0  0  0  0  0  0
    8.2312  -16.4466   21.7434 N   0  0  0  0  0  0  0  0  0  0  0  0
    9.4487  -16.5005   20.9782 C   0  0  1  0  0  0  0  0  0  0  0  0
    9.2323  -15.6095   19.7586 C   0  0  0  0  0  0  0  0  0  0  0  0
    8.0664  -14.3051   20.3086 S   0  0  0  0  0  0  0  0  0  0  0  0
   10.6394  -16.1066   21.7565 C   0  0  0  0  0  0  0  0  0  0  0  0
   10.9820  -14.8971   21.7149 O   0  0  0  0  0  0  0  0  0  0  0  0
   11.4424  -13.4012   28.0508 C   0  0  0  0  0  0  0  0  0  0  0  0
   11.1351  -13.8167   26.3297 S   0  0  0  0  0  0  0  0  0  0  0  0
   11.2508  -15.5585   25.9987 C   0  0  0  0  0  0  0  0  0  0  0  0
   10.9927  -16.0326   24.6341 C   0  0  0  0  0  0  0  0  0  0  0  0
   12.0908  -16.5717   23.7977 C   0  0  2  0  0  0  0  0  0  0  0  0
   11.4109  -16.9828   22.5344 N   0  0  0  0  0  0  0  0  0  0  0  0
   12.7158  -17.7586   24.4048 C   0  0  0  0  0  0  0  0  0  0  0  0
   12.2808  -18.9258   24.3724 O   0  0  0  0  0  0  0  0  0  0  0  0
   13.9363  -17.6205   25.1093 O   0  0  0  0  0  0  0  0  0  0  0  0
  2  3  1  0
  2  1  1  1
  2 13  1  0
  4  3  1  0
  4 12  1  0
  5  6  1  0
  5  4  2  0
  6  7  1  0
  7 12  2  0
  7  8  1  0
  8  9  2  0
  9 10  1  0
 11 10  2  0
 12 11  1  0
 13 14  2  0
 15 13  1  0
 15 16  1  0
 16 17  1  6
 18 17  1  0
 19 16  1  0
 19 20  2  0
 22 21  1  0
 23 22  1  0
 23 24  1  0
 25 24  1  1
 25 26  1  0
 25 27  1  0
 26 19  1  0
 27 29  1  0
 28 27  2  0
M  END
$$$$
