WCM.pdb
     RDKit          3D

 29 30  0  0  1  0  0  0  0  0999 V2000
   10.3341  -18.0288   20.3983 N   0  0  0  0  0  0  0  0  0  0  0  0
   10.8054  -16.8361   21.0676 C   0  0  1  0  0  0  0  0  0  0  0  0
   10.9271  -15.6194   20.2624 C   0  0  0  0  0  0  0  0  0  0  0  0
    9.8204  -15.0626   19.5572 C   0  0  0  0  0  0  0  0  0  0  0  0
    9.6393  -15.1218   18.1836 C   0  0  0  0  0  0  0  0  0  0  0  0
    8.5220  -14.4962   17.8565 N   0  0  0  0  0  0  0  0  0  0  0  0
    7.9139  -14.0008   18.9545 C   0  0  0  0  0  0  0  0  0  0  0  0
    6.7572  -13.2868   19.1833 C   0  0  0  0  0  0  0  0  0  0  0  0
    6.4156  -12.9300   20.4717 C   0  0  0  0  0  0  0  0  0  0  0  0
    7.2333  -13.2895   21.5270 C   0  0  0  0  0  0  0  0  0  0  0  0
    8.3962  -14.0057   21.3117 C   0  0  0  0  0  0  0  0  0  0  0  0
    8.7400  -14.3628   20.0254 C   0  0  0  0  0  0  0  0  0  0  0  0
   10.2007  -16.6497   22.4081 C   0  0  0  0  0  0  0  0  0  0  0  0
   10.5366  -15.6052   23.0376 O   0  0  0  0  0  0  0  0  0  0  0  0
    9.2947  -17.5157   23.0443 N   0  0  0  0  0  0  0  0  0  0  0  0
    8.8080  -17.3490   24.3882 C   0  0  1  0  0  0  0  0  0  0  0  0
    8.0582  -18.6310   24.7382 C   0  0  0  0  0  0  0  0  0  0  0  0
    6.9385  -18.1796   26.1188 S   0  0  0  0  0  0  0  0  0  0  0  0
    9.8780  -17.0426   25.3576 C   0  0  0  0  0  0  0  0  0  0  0  0
   10.6027  -16.0423   25.1204 O   0  0  0  0  0  0  0  0  0  0  0  0
    9.7574  -12.1073   26.7575 C   0  0  0  0  0  0  0  0  0  0  0  0
    9.9452  -13.4451   27.9423 S   0  0  0  0  0  0  0  0  0  0  0  0
   10.5343  -14.9524   27.2088 C   0  0  0  0  0  0  0  0  0  0  0  0
   10.7169  -16.1274   28.0688 C   0  0  0  0  0  0  0  0  0  0  0  0
   11.1951  -17.4123   27.5065 C   0  0  2  0  0  0  0  0  0  0  0  0
   10.1411  -17.7857   26.5181 N   0  0  0  0  0  0  0  0  0  0  0  0
   11.2762  -18.4672   28.5306 C   0  0  0  0  0  0  0  0  0  0  0  0
   10.4510  -19.3808   28.7230 O   0  0  0  0  0  0  0  0  0  0  0  0
   12.3816  -18.4969   29.4148 O   0  0  0  0  0  0  0  0  0  0  0  0
  2  3  1  0
  2  1  1  6
  2 13  1  0
  4  3  1  0
  4 12  1  0
  5  6  1  0
  5  4  2  0
  6  7  1  0
  7 12  2  0
  7  8  1  0
  8  9  2  0
  9 10  1  0
 11 10  2  0
 12 11  1  0
 13 14  2  0
 15 13  1  0
 15 16  1  0
 16 17  1  1
 18 17  1  0
 19 16  1  0
 19 20  2  0
 22 21  1  0
 23 22  1  0
 23 24  1  0
 25 24  1  1
 25 26  1  0
 25 27  1  0
 26 19  1  0
 27 29  1  0
 28 27  2  0
M  END
$$$$
