RGM.pdb
     RDKit          3D

 24 23  0  0  1  0  0  0  0  0999 V2000
   26.2108  -24.4050  -15.6253 N   0  0  0  0  0  0  0  0  0  0  0  0
   27.4242  -24.0924  -16.3334 C   0  0  0  0  0  0  0  0  0  0  0  0
   27.8892  -24.9572  -17.1402 N   0  0  0  0  0  0  0  0  0  0  0  0
   28.0804  -22.8547  -16.1304 N   0  0  0  0  0  0  0  0  0  0  0  0
   27.3956  -21.6969  -15.6471 C   0  0  0  0  0  0  0  0  0  0  0  0
   26.0783  -21.4230  -16.3759 C   0  0  0  0  0  0  0  0  0  0  0  0
   25.4991  -20.1984  -15.7476 C   0  0  0  0  0  0  0  0  0  0  0  0
   26.1856  -18.9536  -16.1982 C   0  0  2  0  0  0  0  0  0  0  0  0
   27.6287  -19.0543  -15.9938 N   0  0  0  0  0  0  0  0  0  0  0  0
   25.7049  -17.7090  -15.5603 C   0  0  0  0  0  0  0  0  0  0  0  0
   24.4821  -17.4268  -15.4671 O   0  0  0  0  0  0  0  0  0  0  0  0
   28.7659  -24.8201  -17.6820 N   0  0  0  0  0  0  0  0  0  0  0  0
   26.6359  -16.7533  -15.0101 C   0  0  0  0  0  0  0  0  0  0  0  0
   26.1054  -15.5527  -14.4336 C   0  0  0  0  0  0  0  0  0  0  0  0
   25.6869  -14.5587  -15.4423 O   0  0  0  0  0  0  0  0  0  0  0  0
   26.0121  -13.3442  -15.3689 C   0  0  0  0  0  0  0  0  0  0  0  0
   27.6115  -13.5928  -20.8485 S   0  0  0  0  0  0  0  0  0  0  0  0
   25.8939  -13.5957  -21.3988 C   0  0  0  0  0  0  0  0  0  0  0  0
   24.8151  -13.3257  -19.9337 C   0  0  0  0  0  0  0  0  0  0  0  0
   25.2631  -14.1967  -18.8074 C   0  0  1  0  0  0  0  0  0  0  0  0
   24.4450  -14.0094  -17.5777 N   0  0  0  0  0  0  0  0  0  0  0  0
   24.8928  -14.9638  -16.5370 C   0  0  0  0  0  0  0  0  0  0  0  0
   23.0156  -14.2786  -17.7880 O   0  0  0  0  0  0  0  0  0  0  0  0
   22.5434  -15.4100  -17.5693 O   0  0  0  0  0  0  0  0  0  0  0  0
  2  1  1  0
  2  3  2  0
  4  2  1  0
  5  4  1  0
  6  7  1  0
  6  5  1  0
  7  8  1  0
  8  9  1  1
 10  8  1  0
 10 12  1  0
 11 10  2  0
 13 12  1  0
 14 13  1  0
 15 14  2  0
 17 16  1  0
 18 17  1  0
 19 18  1  0
 20 21  1  0
 20 19  1  1
 21 14  1  0
 22 20  1  0
 23 22  2  0
 24 22  1  0
M  END
$$$$
