RGM.pdb
     RDKit          3D

 24 23  0  0  1  0  0  0  0  0999 V2000
   19.3538  -25.3269  -11.1808 N   0  0  0  0  0  0  0  0  0  0  0  0
   18.7886  -24.0041  -11.2274 C   0  0  0  0  0  0  0  0  0  0  0  0
   17.8806  -23.7084  -10.3889 N   0  0  0  0  0  0  0  0  0  0  0  0
   19.2331  -23.0623  -12.1862 N   0  0  0  0  0  0  0  0  0  0  0  0
   19.6955  -23.4506  -13.4817 C   0  0  0  0  0  0  0  0  0  0  0  0
   20.1475  -22.2697  -14.3435 C   0  0  0  0  0  0  0  0  0  0  0  0
   20.6586  -21.2330  -13.3981 C   0  0  0  0  0  0  0  0  0  0  0  0
   21.1189  -20.0026  -14.1038 C   0  0  2  0  0  0  0  0  0  0  0  0
   20.3962  -19.8249  -15.3610 N   0  0  0  0  0  0  0  0  0  0  0  0
   22.5702  -19.9479  -14.3824 C   0  0  0  0  0  0  0  0  0  0  0  0
   23.4297  -19.8457  -13.4690 O   0  0  0  0  0  0  0  0  0  0  0  0
   17.3640  -22.8062  -10.4004 N   0  0  0  0  0  0  0  0  0  0  0  0
   23.0655  -20.0112  -15.7365 C   0  0  0  0  0  0  0  0  0  0  0  0
   24.4812  -19.9122  -15.9400 C   0  0  0  0  0  0  0  0  0  0  0  0
   24.9256  -18.5461  -16.2820 O   0  0  0  0  0  0  0  0  0  0  0  0
   24.1351  -17.5661  -16.3100 C   0  0  0  0  0  0  0  0  0  0  0  0
   31.0978  -17.5887  -17.5752 S   0  0  0  0  0  0  0  0  0  0  0  0
   30.6107  -15.9017  -17.9871 C   0  0  0  0  0  0  0  0  0  0  0  0
   28.7836  -15.7689  -17.8221 C   0  0  0  0  0  0  0  0  0  0  0  0
   28.2393  -17.0130  -17.2023 C   0  0  1  0  0  0  0  0  0  0  0  0
   26.7545  -16.9972  -17.0946 N   0  0  0  0  0  0  0  0  0  0  0  0
   26.2822  -18.3083  -16.5921 C   0  0  0  0  0  0  0  0  0  0  0  0
   26.0835  -16.7911  -18.3858 O   0  0  0  0  0  0  0  0  0  0  0  0
   25.8000  -17.7594  -19.1159 O   0  0  0  0  0  0  0  0  0  0  0  0
  2  1  1  0
  2  3  2  0
  4  2  1  0
  5  4  1  0
  6  7  1  0
  6  5  1  0
  7  8  1  0
  8  9  1  6
 10  8  1  0
 10 12  1  0
 11 10  2  0
 13 12  1  0
 14 13  1  0
 15 14  2  0
 17 16  1  0
 18 17  1  0
 19 18  1  0
 20 21  1  0
 20 19  1  1
 21 14  1  0
 22 20  1  0
 23 22  2  0
 24 22  1  0
M  END
$$$$
