RGM.pdb
     RDKit          3D

 24 23  0  0  1  0  0  0  0  0999 V2000
   25.6366  -20.5661  -11.0422 N   0  0  0  0  0  0  0  0  0  0  0  0
   26.3423  -20.9092  -12.2487 C   0  0  0  0  0  0  0  0  0  0  0  0
   27.4577  -21.5090  -12.1429 N   0  0  0  0  0  0  0  0  0  0  0  0
   25.8058  -20.5817  -13.5171 N   0  0  0  0  0  0  0  0  0  0  0  0
   24.4986  -20.0252  -13.6734 C   0  0  0  0  0  0  0  0  0  0  0  0
   23.3848  -20.9388  -13.1571 C   0  0  0  0  0  0  0  0  0  0  0  0
   22.1040  -20.2037  -13.3791 C   0  0  0  0  0  0  0  0  0  0  0  0
   21.4155  -20.6334  -14.6301 C   0  0  2  0  0  0  0  0  0  0  0  0
   22.3695  -21.2076  -15.5760 N   0  0  0  0  0  0  0  0  0  0  0  0
   20.6502  -19.5715  -15.3184 C   0  0  0  0  0  0  0  0  0  0  0  0
   19.7796  -18.8781  -14.7314 O   0  0  0  0  0  0  0  0  0  0  0  0
   28.0866  -21.6926  -12.9501 N   0  0  0  0  0  0  0  0  0  0  0  0
   20.8765  -19.2843  -16.7146 C   0  0  0  0  0  0  0  0  0  0  0  0
   20.2599  -18.1149  -17.2692 C   0  0  0  0  0  0  0  0  0  0  0  0
   21.2097  -17.0062  -17.4910 O   0  0  0  0  0  0  0  0  0  0  0  0
   20.8914  -15.9587  -18.1136 C   0  0  0  0  0  0  0  0  0  0  0  0
   26.8711  -17.2513  -14.5758 S   0  0  0  0  0  0  0  0  0  0  0  0
   27.0608  -15.5474  -15.1358 C   0  0  0  0  0  0  0  0  0  0  0  0
   25.6778  -15.1569  -16.2838 C   0  0  0  0  0  0  0  0  0  0  0  0
   24.5905  -16.1678  -16.1293 C   0  0  1  0  0  0  0  0  0  0  0  0
   23.5014  -15.9953  -17.1297 N   0  0  0  0  0  0  0  0  0  0  0  0
   22.5280  -17.1039  -16.9954 C   0  0  0  0  0  0  0  0  0  0  0  0
   23.9798  -16.0405  -18.5185 O   0  0  0  0  0  0  0  0  0  0  0  0
   24.2498  -17.1279  -19.0623 O   0  0  0  0  0  0  0  0  0  0  0  0
  2  1  1  0
  2  3  2  0
  4  2  1  0
  5  4  1  0
  6  7  1  0
  6  5  1  0
  7  8  1  0
  8  9  1  6
 10  8  1  0
 10 12  1  0
 11 10  2  0
 13 12  1  0
 14 13  1  0
 15 14  2  0
 17 16  1  0
 18 17  1  0
 19 18  1  0
 20 21  1  0
 20 19  1  1
 21 14  1  0
 22 20  1  0
 23 22  2  0
 24 22  1  0
M  END
$$$$
