RGM.pdb
     RDKit          3D

 24 23  0  0  1  0  0  0  0  0999 V2000
   18.9614  -24.5209   -6.7627 N   0  0  0  0  0  0  0  0  0  0  0  0
   17.6537  -24.8484   -7.2671 C   0  0  0  0  0  0  0  0  0  0  0  0
   16.7445  -25.1475   -6.4311 N   0  0  0  0  0  0  0  0  0  0  0  0
   17.3934  -24.8398   -8.6585 N   0  0  0  0  0  0  0  0  0  0  0  0
   18.3502  -24.3727   -9.6121 C   0  0  0  0  0  0  0  0  0  0  0  0
   18.1795  -22.8943   -9.9682 C   0  0  0  0  0  0  0  0  0  0  0  0
   19.1788  -22.6036  -11.0391 C   0  0  0  0  0  0  0  0  0  0  0  0
   20.4543  -22.0607  -10.4894 C   0  0  2  0  0  0  0  0  0  0  0  0
   20.2964  -21.6866   -9.0859 N   0  0  0  0  0  0  0  0  0  0  0  0
   21.0102  -20.9049  -11.2257 C   0  0  0  0  0  0  0  0  0  0  0  0
   20.7614  -19.7147  -10.9013 O   0  0  0  0  0  0  0  0  0  0  0  0
   15.7815  -25.4240   -6.7088 N   0  0  0  0  0  0  0  0  0  0  0  0
   21.8748  -21.1007  -12.3645 C   0  0  0  0  0  0  0  0  0  0  0  0
   21.2977  -20.9965  -13.6728 C   0  0  0  0  0  0  0  0  0  0  0  0
   21.2420  -19.6090  -14.1751 O   0  0  0  0  0  0  0  0  0  0  0  0
   20.7532  -18.6653  -13.4993 C   0  0  0  0  0  0  0  0  0  0  0  0
   24.3618  -18.1138  -19.5340 S   0  0  0  0  0  0  0  0  0  0  0  0
   23.8048  -16.4310  -19.2007 C   0  0  0  0  0  0  0  0  0  0  0  0
   22.6067  -16.4822  -17.8061 C   0  0  0  0  0  0  0  0  0  0  0  0
   22.6389  -17.8274  -17.1599 C   0  0  1  0  0  0  0  0  0  0  0  0
   21.6754  -17.9439  -16.0308 N   0  0  0  0  0  0  0  0  0  0  0  0
   21.7497  -19.3078  -15.4575 C   0  0  0  0  0  0  0  0  0  0  0  0
   20.2776  -17.7512  -16.4416 O   0  0  0  0  0  0  0  0  0  0  0  0
   19.5904  -18.7154  -16.8277 O   0  0  0  0  0  0  0  0  0  0  0  0
  2  1  1  0
  2  3  2  0
  4  2  1  0
  5  4  1  0
  6  7  1  0
  6  5  1  0
  7  8  1  0
  8  9  1  1
 10  8  1  0
 10 12  1  0
 11 10  2  0
 13 12  1  0
 14 13  1  0
 15 14  2  0
 17 16  1  0
 18 17  1  0
 19 18  1  0
 20 21  1  0
 20 19  1  1
 21 14  1  0
 22 20  1  0
 23 22  2  0
 24 22  1  0
M  END
$$$$
