RGM.pdb
     RDKit          3D

 24 23  0  0  1  0  0  0  0  0999 V2000
   19.0303  -18.9058  -14.5763 N   0  0  0  0  0  0  0  0  0  0  0  0
   19.8383  -17.9298  -15.2590 C   0  0  0  0  0  0  0  0  0  0  0  0
   19.4986  -16.7077  -15.1813 N   0  0  0  0  0  0  0  0  0  0  0  0
   20.9780  -18.3261  -15.9992 N   0  0  0  0  0  0  0  0  0  0  0  0
   21.7094  -19.5165  -15.6973 C   0  0  0  0  0  0  0  0  0  0  0  0
   23.0388  -19.2482  -14.9886 C   0  0  0  0  0  0  0  0  0  0  0  0
   22.8086  -19.5404  -13.5424 C   0  0  0  0  0  0  0  0  0  0  0  0
   23.6772  -20.6453  -13.0439 C   0  0  2  0  0  0  0  0  0  0  0  0
   23.1751  -21.9420  -13.4920 N   0  0  0  0  0  0  0  0  0  0  0  0
   23.8520  -20.6890  -11.5761 C   0  0  0  0  0  0  0  0  0  0  0  0
   22.9241  -21.0252  -10.7954 O   0  0  0  0  0  0  0  0  0  0  0  0
   20.0140  -15.9400  -15.6565 N   0  0  0  0  0  0  0  0  0  0  0  0
   25.1158  -20.3420  -10.9718 C   0  0  0  0  0  0  0  0  0  0  0  0
   25.2079  -20.3716   -9.5414 C   0  0  0  0  0  0  0  0  0  0  0  0
   26.5745  -20.1203   -9.0412 O   0  0  0  0  0  0  0  0  0  0  0  0
   27.5559  -19.9536   -9.8127 C   0  0  0  0  0  0  0  0  0  0  0  0
   27.4691  -19.7765   -2.7731 S   0  0  0  0  0  0  0  0  0  0  0  0
   29.2270  -19.6880   -3.1662 C   0  0  0  0  0  0  0  0  0  0  0  0
   29.4041  -19.4492   -4.9814 C   0  0  0  0  0  0  0  0  0  0  0  0
   28.0686  -19.5580   -5.6391 C   0  0  1  0  0  0  0  0  0  0  0  0
   28.1691  -19.8615   -7.0932 N   0  0  0  0  0  0  0  0  0  0  0  0
   26.8111  -20.0609   -7.6507 C   0  0  0  0  0  0  0  0  0  0  0  0
   28.9099  -21.0990   -7.3755 O   0  0  0  0  0  0  0  0  0  0  0  0
   28.3204  -22.1948   -7.4256 O   0  0  0  0  0  0  0  0  0  0  0  0
  2  1  1  0
  2  3  2  0
  4  2  1  0
  5  4  1  0
  6  7  1  0
  6  5  1  0
  7  8  1  0
  8  9  1  1
 10  8  1  0
 10 12  1  0
 11 10  2  0
 13 12  1  0
 14 13  1  0
 15 14  2  0
 17 16  1  0
 18 17  1  0
 19 18  1  0
 20 21  1  0
 20 19  1  6
 21 14  1  0
 22 20  1  0
 23 22  2  0
 24 22  1  0
M  END
$$$$
