RGM.pdb
     RDKit          3D

 24 23  0  0  1  0  0  0  0  0999 V2000
   19.6363  -17.9555  -15.9398 N   0  0  0  0  0  0  0  0  0  0  0  0
   19.4221  -19.3504  -16.2220 C   0  0  0  0  0  0  0  0  0  0  0  0
   18.4750  -19.6661  -17.0085 N   0  0  0  0  0  0  0  0  0  0  0  0
   20.2448  -20.3409  -15.6338 N   0  0  0  0  0  0  0  0  0  0  0  0
   21.5671  -20.0593  -15.1701 C   0  0  0  0  0  0  0  0  0  0  0  0
   22.5121  -19.5920  -16.2791 C   0  0  0  0  0  0  0  0  0  0  0  0
   23.8747  -20.0683  -15.8963 C   0  0  0  0  0  0  0  0  0  0  0  0
   23.8739  -20.7956  -14.5945 C   0  0  2  0  0  0  0  0  0  0  0  0
   22.8943  -20.2171  -13.6779 N   0  0  0  0  0  0  0  0  0  0  0  0
   25.1835  -20.8531  -13.9100 C   0  0  0  0  0  0  0  0  0  0  0  0
   26.1355  -21.5597  -14.3320 O   0  0  0  0  0  0  0  0  0  0  0  0
   18.2037  -20.6492  -17.2106 N   0  0  0  0  0  0  0  0  0  0  0  0
   25.4247  -20.0874  -12.7107 C   0  0  0  0  0  0  0  0  0  0  0  0
   26.6874  -20.2500  -12.0515 C   0  0  0  0  0  0  0  0  0  0  0  0
   26.5776  -20.9247  -10.7425 O   0  0  0  0  0  0  0  0  0  0  0  0
   26.2105  -22.1241  -10.6298 C   0  0  0  0  0  0  0  0  0  0  0  0
   28.7543  -17.9972   -5.4559 S   0  0  0  0  0  0  0  0  0  0  0  0
   28.2542  -19.5283   -4.6445 C   0  0  0  0  0  0  0  0  0  0  0  0
   27.2096  -20.4900   -5.8139 C   0  0  0  0  0  0  0  0  0  0  0  0
   27.4582  -20.0289   -7.2116 C   0  0  1  0  0  0  0  0  0  0  0  0
   26.6762  -20.8001   -8.2169 N   0  0  0  0  0  0  0  0  0  0  0  0
   26.8907  -20.2171   -9.5618 C   0  0  0  0  0  0  0  0  0  0  0  0
   25.2265  -20.7540   -7.9804 O   0  0  0  0  0  0  0  0  0  0  0  0
   24.5028  -19.9695   -8.6222 O   0  0  0  0  0  0  0  0  0  0  0  0
  2  1  1  0
  2  3  2  0
  4  2  1  0
  5  4  1  0
  6  7  1  0
  6  5  1  0
  7  8  1  0
  8  9  1  1
 10  8  1  0
 10 12  1  0
 11 10  2  0
 13 12  1  0
 14 13  1  0
 15 14  2  0
 17 16  1  0
 18 17  1  0
 19 18  1  0
 20 21  1  0
 20 19  1  6
 21 14  1  0
 22 20  1  0
 23 22  2  0
 24 22  1  0
M  END
$$$$
