RGM.pdb
     RDKit          3D

 24 23  0  0  1  0  0  0  0  0999 V2000
   24.2054  -24.3575  -14.4436 N   0  0  0  0  0  0  0  0  0  0  0  0
   25.4506  -24.1863  -15.1448 C   0  0  0  0  0  0  0  0  0  0  0  0
   25.8958  -25.1621  -15.8265 N   0  0  0  0  0  0  0  0  0  0  0  0
   26.1586  -22.9627  -15.0711 N   0  0  0  0  0  0  0  0  0  0  0  0
   25.5878  -21.7826  -14.5013 C   0  0  0  0  0  0  0  0  0  0  0  0
   24.6905  -21.0129  -15.4729 C   0  0  0  0  0  0  0  0  0  0  0  0
   23.2844  -21.3545  -15.1040 C   0  0  0  0  0  0  0  0  0  0  0  0
   22.7715  -20.5082  -13.9884 C   0  0  2  0  0  0  0  0  0  0  0  0
   23.2433  -19.1320  -14.1223 N   0  0  0  0  0  0  0  0  0  0  0  0
   23.1074  -20.9918  -12.6318 C   0  0  0  0  0  0  0  0  0  0  0  0
   22.8496  -22.1626  -12.2493 O   0  0  0  0  0  0  0  0  0  0  0  0
   26.8502  -25.1833  -16.2382 N   0  0  0  0  0  0  0  0  0  0  0  0
   23.7555  -20.1245  -11.6776 C   0  0  0  0  0  0  0  0  0  0  0  0
   24.2017  -20.6984  -10.4419 C   0  0  0  0  0  0  0  0  0  0  0  0
   25.6059  -20.3716  -10.1224 O   0  0  0  0  0  0  0  0  0  0  0  0
   26.3746  -19.8143  -10.9498 C   0  0  0  0  0  0  0  0  0  0  0  0
   28.1543  -18.4704   -4.2862 S   0  0  0  0  0  0  0  0  0  0  0  0
   29.0690  -19.9680   -4.7025 C   0  0  0  0  0  0  0  0  0  0  0  0
   29.0570  -20.1654   -6.5312 C   0  0  0  0  0  0  0  0  0  0  0  0
   27.6789  -20.5023   -6.9951 C   0  0  2  0  0  0  0  0  0  0  0  0
   27.5226  -20.3709   -8.4699 N   0  0  0  0  0  0  0  0  0  0  0  0
   26.1256  -20.6870   -8.8482 C   0  0  0  0  0  0  0  0  0  0  0  0
   28.3695  -21.3039   -9.2262 O   0  0  0  0  0  0  0  0  0  0  0  0
   27.9886  -22.4681   -9.4508 O   0  0  0  0  0  0  0  0  0  0  0  0
  2  1  1  0
  2  3  2  0
  4  2  1  0
  5  4  1  0
  6  7  1  0
  6  5  1  0
  7  8  1  0
  8  9  1  6
 10  8  1  0
 10 12  1  0
 11 10  2  0
 13 12  1  0
 14 13  1  0
 15 14  2  0
 17 16  1  0
 18 17  1  0
 19 18  1  0
 20 21  1  0
 20 19  1  1
 21 14  1  0
 22 20  1  0
 23 22  2  0
 24 22  1  0
M  END
$$$$
