RGM.pdb
     RDKit          3D

 24 23  0  0  1  0  0  0  0  0999 V2000
   26.4000  -21.0866   -8.4426 N   0  0  0  0  0  0  0  0  0  0  0  0
   25.4159  -21.0656   -9.4927 C   0  0  0  0  0  0  0  0  0  0  0  0
   24.1878  -21.0655   -9.1657 N   0  0  0  0  0  0  0  0  0  0  0  0
   25.8106  -21.0494  -10.8520 N   0  0  0  0  0  0  0  0  0  0  0  0
   27.1798  -20.9467  -11.2491 C   0  0  0  0  0  0  0  0  0  0  0  0
   27.3759  -20.9860  -12.7662 C   0  0  0  0  0  0  0  0  0  0  0  0
   27.4054  -19.5641  -13.2214 C   0  0  0  0  0  0  0  0  0  0  0  0
   26.3004  -19.2525  -14.1730 C   0  0  2  0  0  0  0  0  0  0  0  0
   26.4198  -20.0559  -15.3874 N   0  0  0  0  0  0  0  0  0  0  0  0
   26.1906  -17.8290  -14.5585 C   0  0  0  0  0  0  0  0  0  0  0  0
   26.1028  -16.9044  -13.7094 O   0  0  0  0  0  0  0  0  0  0  0  0
   23.4122  -21.0641   -9.8580 N   0  0  0  0  0  0  0  0  0  0  0  0
   26.1798  -17.4383  -15.9478 C   0  0  0  0  0  0  0  0  0  0  0  0
   26.0368  -16.0450  -16.2535 C   0  0  0  0  0  0  0  0  0  0  0  0
   24.6562  -15.5503  -16.0807 O   0  0  0  0  0  0  0  0  0  0  0  0
   23.6842  -16.3220  -15.8666 C   0  0  0  0  0  0  0  0  0  0  0  0
   22.1575   -9.9552  -13.4437 S   0  0  0  0  0  0  0  0  0  0  0  0
   23.9035  -10.3866  -13.5784 C   0  0  0  0  0  0  0  0  0  0  0  0
   24.0294  -12.0839  -14.2758 C   0  0  0  0  0  0  0  0  0  0  0  0
   23.1357  -12.2105  -15.4646 C   0  0  2  0  0  0  0  0  0  0  0  0
   23.0345  -13.6113  -15.9588 N   0  0  0  0  0  0  0  0  0  0  0  0
   24.3945  -14.1650  -16.1547 C   0  0  0  0  0  0  0  0  0  0  0  0
   22.3610  -13.7177  -17.2607 O   0  0  0  0  0  0  0  0  0  0  0  0
   23.0202  -13.7364  -18.3172 O   0  0  0  0  0  0  0  0  0  0  0  0
  2  1  1  0
  2  3  2  0
  4  2  1  0
  5  4  1  0
  6  7  1  0
  6  5  1  0
  7  8  1  0
  8  9  1  6
 10  8  1  0
 10 12  1  0
 11 10  2  0
 13 12  1  0
 14 13  1  0
 15 14  2  0
 17 16  1  0
 18 17  1  0
 19 18  1  0
 20 21  1  0
 20 19  1  1
 21 14  1  0
 22 20  1  0
 23 22  2  0
 24 22  1  0
M  END
$$$$
