RGM.pdb
     RDKit          3D

 24 23  0  0  1  0  0  0  0  0999 V2000
   24.9356  -22.9115  -15.2549 N   0  0  0  0  0  0  0  0  0  0  0  0
   24.7782  -24.3361  -15.1233 C   0  0  0  0  0  0  0  0  0  0  0  0
   25.5240  -25.0904  -15.8231 N   0  0  0  0  0  0  0  0  0  0  0  0
   23.8143  -24.8775  -14.2393 N   0  0  0  0  0  0  0  0  0  0  0  0
   22.8628  -24.0611  -13.5529 C   0  0  0  0  0  0  0  0  0  0  0  0
   21.6212  -23.7434  -14.3889 C   0  0  0  0  0  0  0  0  0  0  0  0
   20.5500  -23.3642  -13.4200 C   0  0  0  0  0  0  0  0  0  0  0  0
   20.1912  -24.4870  -12.5065 C   0  0  2  0  0  0  0  0  0  0  0  0
   19.2013  -25.3642  -13.1271 N   0  0  0  0  0  0  0  0  0  0  0  0
   19.6892  -24.0754  -11.1777 C   0  0  0  0  0  0  0  0  0  0  0  0
   20.2209  -23.1491  -10.5124 O   0  0  0  0  0  0  0  0  0  0  0  0
   26.3108  -24.7369  -16.4035 N   0  0  0  0  0  0  0  0  0  0  0  0
   18.5501  -24.7317  -10.5824 C   0  0  0  0  0  0  0  0  0  0  0  0
   18.1403  -24.3126   -9.2741 C   0  0  0  0  0  0  0  0  0  0  0  0
   18.2542  -25.3794   -8.2593 O   0  0  0  0  0  0  0  0  0  0  0  0
   18.9174  -26.4315   -8.4572 C   0  0  0  0  0  0  0  0  0  0  0  0
   16.1971  -24.2439   -2.3536 S   0  0  0  0  0  0  0  0  0  0  0  0
   16.4090  -26.0123   -2.0695 C   0  0  0  0  0  0  0  0  0  0  0  0
   17.0440  -26.7764   -3.6175 C   0  0  0  0  0  0  0  0  0  0  0  0
   17.0258  -25.7727   -4.7222 C   0  0  1  0  0  0  0  0  0  0  0  0
   17.6868  -26.2707   -5.9598 N   0  0  0  0  0  0  0  0  0  0  0  0
   17.6032  -25.2343   -7.0150 C   0  0  0  0  0  0  0  0  0  0  0  0
   17.0443  -27.4697   -6.5158 O   0  0  0  0  0  0  0  0  0  0  0  0
   16.0984  -27.3685   -7.3196 O   0  0  0  0  0  0  0  0  0  0  0  0
  2  1  1  0
  2  3  2  0
  4  2  1  0
  5  4  1  0
  6  7  1  0
  6  5  1  0
  7  8  1  0
  8  9  1  6
 10  8  1  0
 10 12  1  0
 11 10  2  0
 13 12  1  0
 14 13  1  0
 15 14  2  0
 17 16  1  0
 18 17  1  0
 19 18  1  0
 20 21  1  0
 20 19  1  1
 21 14  1  0
 22 20  1  0
 23 22  2  0
 24 22  1  0
M  END
$$$$
