RGM.pdb
     RDKit          3D

 24 23  0  0  1  0  0  0  0  0999 V2000
   22.5718  -18.3392  -17.9813 N   0  0  0  0  0  0  0  0  0  0  0  0
   21.1888  -18.7303  -17.9059 C   0  0  0  0  0  0  0  0  0  0  0  0
   20.3297  -18.0234  -18.5202 N   0  0  0  0  0  0  0  0  0  0  0  0
   20.8004  -19.8708  -17.1627 N   0  0  0  0  0  0  0  0  0  0  0  0
   20.8099  -19.8913  -15.7336 C   0  0  0  0  0  0  0  0  0  0  0  0
   22.0893  -19.3111  -15.1272 C   0  0  0  0  0  0  0  0  0  0  0  0
   22.9275  -20.4787  -14.7223 C   0  0  0  0  0  0  0  0  0  0  0  0
   22.6626  -20.9045  -13.3179 C   0  0  2  0  0  0  0  0  0  0  0  0
   22.1945  -19.7779  -12.5140 N   0  0  0  0  0  0  0  0  0  0  0  0
   23.8107  -21.5312  -12.6278 C   0  0  0  0  0  0  0  0  0  0  0  0
   24.1826  -22.7089  -12.8691 O   0  0  0  0  0  0  0  0  0  0  0  0
   19.3228  -18.2743  -18.5829 N   0  0  0  0  0  0  0  0  0  0  0  0
   24.5622  -20.8034  -11.6336 C   0  0  0  0  0  0  0  0  0  0  0  0
   25.2170  -21.5542  -10.6027 C   0  0  0  0  0  0  0  0  0  0  0  0
   26.0588  -20.7205   -9.7212 O   0  0  0  0  0  0  0  0  0  0  0  0
   25.5732  -19.8598   -8.9404 C   0  0  0  0  0  0  0  0  0  0  0  0
   28.8165  -19.0840   -3.7540 S   0  0  0  0  0  0  0  0  0  0  0  0
   28.1028  -19.2154   -5.4051 C   0  0  0  0  0  0  0  0  0  0  0  0
   28.7417  -20.7499   -6.1927 C   0  0  0  0  0  0  0  0  0  0  0  0
   27.8891  -21.1111   -7.3634 C   0  0  1  0  0  0  0  0  0  0  0  0
   28.3164  -20.4285   -8.6157 N   0  0  0  0  0  0  0  0  0  0  0  0
   27.4616  -20.8780   -9.7390 C   0  0  0  0  0  0  0  0  0  0  0  0
   29.6979  -20.7454   -9.0041 O   0  0  0  0  0  0  0  0  0  0  0  0
   30.0511  -21.9253   -9.1883 O   0  0  0  0  0  0  0  0  0  0  0  0
  2  1  1  0
  2  3  2  0
  4  2  1  0
  5  4  1  0
  6  7  1  0
  6  5  1  0
  7  8  1  0
  8  9  1  1
 10  8  1  0
 10 12  1  0
 11 10  2  0
 13 12  1  0
 14 13  1  0
 15 14  2  0
 17 16  1  0
 18 17  1  0
 19 18  1  0
 20 21  1  0
 20 19  1  1
 21 14  1  0
 22 20  1  0
 23 22  2  0
 24 22  1  0
M  END
$$$$
