RGM.pdb
     RDKit          3D

 24 23  0  0  1  0  0  0  0  0999 V2000
   25.0116  -25.4978  -14.7838 N   0  0  0  0  0  0  0  0  0  0  0  0
   24.9429  -25.5792  -16.2191 C   0  0  0  0  0  0  0  0  0  0  0  0
   24.3073  -26.5505  -16.7364 N   0  0  0  0  0  0  0  0  0  0  0  0
   25.5712  -24.6027  -17.0287 N   0  0  0  0  0  0  0  0  0  0  0  0
   25.6520  -23.2283  -16.6446 C   0  0  0  0  0  0  0  0  0  0  0  0
   24.2839  -22.5752  -16.4368 C   0  0  0  0  0  0  0  0  0  0  0  0
   24.5513  -21.1608  -16.0394 C   0  0  0  0  0  0  0  0  0  0  0  0
   25.7115  -21.0449  -15.1098 C   0  0  2  0  0  0  0  0  0  0  0  0
   26.2145  -22.3661  -14.7410 N   0  0  0  0  0  0  0  0  0  0  0  0
   25.4468  -20.2791  -13.8726 C   0  0  0  0  0  0  0  0  0  0  0  0
   24.8618  -19.1650  -13.8803 O   0  0  0  0  0  0  0  0  0  0  0  0
   24.2624  -26.7234  -17.7606 N   0  0  0  0  0  0  0  0  0  0  0  0
   25.8563  -20.7890  -12.5861 C   0  0  0  0  0  0  0  0  0  0  0  0
   25.6587  -19.9537  -11.4377 C   0  0  0  0  0  0  0  0  0  0  0  0
   25.9695  -20.6330  -10.1639 O   0  0  0  0  0  0  0  0  0  0  0  0
   26.0515  -21.8862  -10.0695 C   0  0  0  0  0  0  0  0  0  0  0  0
   29.6962  -18.1735   -5.6213 S   0  0  0  0  0  0  0  0  0  0  0  0
   28.5026  -18.9245   -4.4970 C   0  0  0  0  0  0  0  0  0  0  0  0
   27.4623  -20.0998   -5.4560 C   0  0  0  0  0  0  0  0  0  0  0  0
   27.2538  -19.5791   -6.8393 C   0  0  1  0  0  0  0  0  0  0  0  0
   26.4399  -20.4987   -7.6810 N   0  0  0  0  0  0  0  0  0  0  0  0
   26.1862  -19.8681   -8.9973 C   0  0  0  0  0  0  0  0  0  0  0  0
   25.1181  -20.7891   -7.1079 O   0  0  0  0  0  0  0  0  0  0  0  0
   24.0880  -20.2970   -7.6057 O   0  0  0  0  0  0  0  0  0  0  0  0
  2  1  1  0
  2  3  2  0
  4  2  1  0
  5  4  1  0
  6  7  1  0
  6  5  1  0
  7  8  1  0
  8  9  1  1
 10  8  1  0
 10 12  1  0
 11 10  2  0
 13 12  1  0
 14 13  1  0
 15 14  2  0
 17 16  1  0
 18 17  1  0
 19 18  1  0
 20 21  1  0
 20 19  1  6
 21 14  1  0
 22 20  1  0
 23 22  2  0
 24 22  1  0
M  END
$$$$
