RGM.pdb
     RDKit          3D

 24 23  0  0  1  0  0  0  0  0999 V2000
   21.3088  -18.2247  -15.1409 N   0  0  0  0  0  0  0  0  0  0  0  0
   20.3071  -19.2582  -15.1299 C   0  0  0  0  0  0  0  0  0  0  0  0
   19.2700  -19.0978  -15.8467 N   0  0  0  0  0  0  0  0  0  0  0  0
   20.4755  -20.4188  -14.3372 N   0  0  0  0  0  0  0  0  0  0  0  0
   21.6732  -20.6734  -13.5998 C   0  0  0  0  0  0  0  0  0  0  0  0
   22.4884  -21.8445  -14.1525 C   0  0  0  0  0  0  0  0  0  0  0  0
   23.5345  -21.2468  -15.0347 C   0  0  0  0  0  0  0  0  0  0  0  0
   24.9040  -21.7283  -14.6934 C   0  0  2  0  0  0  0  0  0  0  0  0
   24.8495  -23.0509  -14.0752 N   0  0  0  0  0  0  0  0  0  0  0  0
   25.6816  -20.8286  -13.8142 C   0  0  0  0  0  0  0  0  0  0  0  0
   26.0116  -19.6649  -14.1611 O   0  0  0  0  0  0  0  0  0  0  0  0
   18.5115  -19.8050  -15.9207 N   0  0  0  0  0  0  0  0  0  0  0  0
   26.0990  -21.2581  -12.5011 C   0  0  0  0  0  0  0  0  0  0  0  0
   26.8245  -20.3265  -11.6880 C   0  0  0  0  0  0  0  0  0  0  0  0
   27.0407  -20.8046  -10.3076 O   0  0  0  0  0  0  0  0  0  0  0  0
   27.5753  -21.9164  -10.0540 C   0  0  0  0  0  0  0  0  0  0  0  0
   29.7517  -18.6258   -5.3708 S   0  0  0  0  0  0  0  0  0  0  0  0
   28.2615  -19.0121   -4.4312 C   0  0  0  0  0  0  0  0  0  0  0  0
   27.1643  -20.0474   -5.4836 C   0  0  0  0  0  0  0  0  0  0  0  0
   27.3005  -19.6388   -6.9127 C   0  0  1  0  0  0  0  0  0  0  0  0
   26.5552  -20.5354   -7.8386 N   0  0  0  0  0  0  0  0  0  0  0  0
   26.6405  -20.0014   -9.2178 C   0  0  0  0  0  0  0  0  0  0  0  0
   25.1221  -20.6267   -7.5259 O   0  0  0  0  0  0  0  0  0  0  0  0
   24.7320  -21.2162   -6.5006 O   0  0  0  0  0  0  0  0  0  0  0  0
  2  1  1  0
  2  3  2  0
  4  2  1  0
  5  4  1  0
  6  7  1  0
  6  5  1  0
  7  8  1  0
  8  9  1  1
 10  8  1  0
 10 12  1  0
 11 10  2  0
 13 12  1  0
 14 13  1  0
 15 14  2  0
 17 16  1  0
 18 17  1  0
 19 18  1  0
 20 21  1  0
 20 19  1  6
 21 14  1  0
 22 20  1  0
 23 22  2  0
 24 22  1  0
M  END
$$$$
