GTY.pdb
     RDKit          3D

 24 24  0  0  1  0  0  0  0  0999 V2000
    2.5499  -18.8268   21.3622 N   0  0  0  0  0  0  0  0  0  0  0  0
    3.2897  -17.5940   21.3458 C   0  0  0  0  0  0  0  0  0  0  0  0
    4.7486  -17.8658   21.4490 C   0  0  0  0  0  0  0  0  0  0  0  0
    5.1985  -19.0365   21.6401 O   0  0  0  0  0  0  0  0  0  0  0  0
    6.9406  -17.5939   18.9467 C   0  0  0  0  0  0  0  0  0  0  0  0
    7.6214  -16.6996   19.9583 C   0  0  1  0  0  0  0  0  0  0  0  0
    7.4806  -15.3891   19.5293 O   0  0  0  0  0  0  0  0  0  0  0  0
    7.0756  -16.9122   21.3464 C   0  0  2  0  0  0  0  0  0  0  0  0
    5.6526  -16.7744   21.3282 N   0  0  0  0  0  0  0  0  0  0  0  0
    7.7266  -15.9683   22.2918 C   0  0  0  0  0  0  0  0  0  0  0  0
    7.2506  -14.8199   22.4310 O   0  0  0  0  0  0  0  0  0  0  0  0
    6.3723  -10.8662   27.1054 O   0  0  0  0  0  0  0  0  0  0  0  0
    6.7903  -12.1102   26.6570 C   0  0  0  0  0  0  0  0  0  0  0  0
    7.6960  -12.8505   27.3768 C   0  0  0  0  0  0  0  0  0  0  0  0
    8.0875  -14.0755   26.9055 C   0  0  0  0  0  0  0  0  0  0  0  0
    7.6153  -14.6145   25.7299 C   0  0  0  0  0  0  0  0  0  0  0  0
    8.0790  -15.9306   25.2852 C   0  0  0  0  0  0  0  0  0  0  0  0
    9.2338  -15.8209   24.2880 C   0  0  2  0  0  0  0  0  0  0  0  0
    8.8731  -16.3877   23.0169 N   0  0  0  0  0  0  0  0  0  0  0  0
   10.4901  -16.3511   24.8384 C   0  0  0  0  0  0  0  0  0  0  0  0
   11.3577  -15.4502   25.4382 O   0  0  0  0  0  0  0  0  0  0  0  0
    6.7068  -13.8718   25.0081 C   0  0  0  0  0  0  0  0  0  0  0  0
    6.2986  -12.6251   25.4733 C   0  0  0  0  0  0  0  0  0  0  0  0
   10.8334  -17.5508   24.8062 O   0  0  0  0  0  0  0  0  0  0  0  0
  1  2  1  0
  3  2  1  0
  3  9  1  0
  4  3  2  0
  6  5  1  6
  7  6  1  0
  8  6  1  0
  8  9  1  6
  8 10  1  0
 10 19  1  0
 11 10  2  0
 13 12  1  0
 14 13  2  0
 15 14  1  0
 16 22  1  0
 16 15  2  0
 17 16  1  0
 18 17  1  1
 19 18  1  0
 20 21  1  0
 20 18  1  0
 22 23  2  0
 23 13  1  0
 24 20  2  0
M  END
$$$$
