GTY.pdb
     RDKit          3D

 24 24  0  0  1  0  0  0  0  0999 V2000
   10.3293  -16.9505   15.9290 N   0  0  0  0  0  0  0  0  0  0  0  0
    9.4548  -17.0985   17.0607 C   0  0  0  0  0  0  0  0  0  0  0  0
    9.7903  -16.0959   18.1071 C   0  0  0  0  0  0  0  0  0  0  0  0
   10.9024  -15.4855   18.1159 O   0  0  0  0  0  0  0  0  0  0  0  0
    7.6130  -13.2293   18.9744 C   0  0  0  0  0  0  0  0  0  0  0  0
    7.8515  -13.9619   20.2756 C   0  0  1  0  0  0  0  0  0  0  0  0
    6.6816  -14.6263   20.6095 O   0  0  0  0  0  0  0  0  0  0  0  0
    9.0341  -14.8908   20.1834 C   0  0  2  0  0  0  0  0  0  0  0  0
    8.8290  -15.8236   19.1194 N   0  0  0  0  0  0  0  0  0  0  0  0
    9.2504  -15.5595   21.4927 C   0  0  0  0  0  0  0  0  0  0  0  0
    8.8626  -16.7389   21.6461 O   0  0  0  0  0  0  0  0  0  0  0  0
    5.9794  -12.0973   28.6687 O   0  0  0  0  0  0  0  0  0  0  0  0
    6.4981  -12.4738   27.4389 C   0  0  0  0  0  0  0  0  0  0  0  0
    5.9528  -13.5195   26.7348 C   0  0  0  0  0  0  0  0  0  0  0  0
    6.4893  -13.8652   25.5229 C   0  0  0  0  0  0  0  0  0  0  0  0
    7.5636  -13.2114   24.9625 C   0  0  0  0  0  0  0  0  0  0  0  0
    8.0870  -13.6363   23.6623 C   0  0  0  0  0  0  0  0  0  0  0  0
    9.2607  -14.6061   23.8098 C   0  0  2  0  0  0  0  0  0  0  0  0
    9.8920  -14.8485   22.5410 N   0  0  0  0  0  0  0  0  0  0  0  0
    8.8764  -15.8324   24.5246 C   0  0  0  0  0  0  0  0  0  0  0  0
    9.4059  -16.0284   25.7917 O   0  0  0  0  0  0  0  0  0  0  0  0
    8.1105  -12.1627   25.6689 C   0  0  0  0  0  0  0  0  0  0  0  0
    7.5769  -11.7986   26.9018 C   0  0  0  0  0  0  0  0  0  0  0  0
    8.1095  -16.7093   24.0763 O   0  0  0  0  0  0  0  0  0  0  0  0
  1  2  1  0
  3  2  1  0
  3  9  1  0
  4  3  2  0
  6  5  1  6
  7  6  1  0
  8  6  1  0
  8  9  1  6
  8 10  1  0
 10 19  1  0
 11 10  2  0
 13 12  1  0
 14 13  2  0
 15 14  1  0
 16 22  1  0
 16 15  2  0
 17 16  1  0
 18 17  1  6
 19 18  1  0
 20 21  1  0
 20 18  1  0
 22 23  2  0
 23 13  1  0
 24 20  2  0
M  END
$$$$
