GTY.pdb
     RDKit          3D

 24 24  0  0  1  0  0  0  0  0999 V2000
   10.8901  -17.1542   17.5931 N   0  0  0  0  0  0  0  0  0  0  0  0
    9.8671  -17.3847   18.5769 C   0  0  0  0  0  0  0  0  0  0  0  0
    9.8885  -16.3104   19.6056 C   0  0  0  0  0  0  0  0  0  0  0  0
   10.9753  -15.8065   20.0233 O   0  0  0  0  0  0  0  0  0  0  0  0
    6.9307  -13.4652   19.9298 C   0  0  0  0  0  0  0  0  0  0  0  0
    7.1644  -14.2822   21.1806 C   0  0  1  0  0  0  0  0  0  0  0  0
    6.1571  -15.2308   21.2627 O   0  0  0  0  0  0  0  0  0  0  0  0
    8.5386  -14.8998   21.1939 C   0  0  2  0  0  0  0  0  0  0  0  0
    8.6497  -15.8446   20.1265 N   0  0  0  0  0  0  0  0  0  0  0  0
    8.8020  -15.5096   22.5232 C   0  0  0  0  0  0  0  0  0  0  0  0
    8.6473  -16.7422   22.6698 O   0  0  0  0  0  0  0  0  0  0  0  0
   11.1893  -16.0585   31.0113 O   0  0  0  0  0  0  0  0  0  0  0  0
   10.9038  -15.5828   29.7403 C   0  0  0  0  0  0  0  0  0  0  0  0
   10.1750  -14.4317   29.5663 C   0  0  0  0  0  0  0  0  0  0  0  0
    9.9110  -13.9895   28.2971 C   0  0  0  0  0  0  0  0  0  0  0  0
   10.3432  -14.6467   27.1671 C   0  0  0  0  0  0  0  0  0  0  0  0
   10.0228  -14.1169   25.8399 C   0  0  0  0  0  0  0  0  0  0  0  0
    9.4130  -15.1861   24.9316 C   0  0  2  0  0  0  0  0  0  0  0  0
    9.2234  -14.6831   23.5982 N   0  0  0  0  0  0  0  0  0  0  0  0
    8.2036  -15.7831   25.5175 C   0  0  0  0  0  0  0  0  0  0  0  0
    7.0135  -15.0833   25.3828 O   0  0  0  0  0  0  0  0  0  0  0  0
   11.0743  -15.8012   27.3419 C   0  0  0  0  0  0  0  0  0  0  0  0
   11.3513  -16.2640   28.6250 C   0  0  0  0  0  0  0  0  0  0  0  0
    8.1683  -16.8722   26.1265 O   0  0  0  0  0  0  0  0  0  0  0  0
  1  2  1  0
  3  2  1  0
  3  9  1  0
  4  3  2  0
  6  5  1  6
  7  6  1  0
  8  6  1  0
  8  9  1  6
  8 10  1  0
 10 19  1  0
 11 10  2  0
 13 12  1  0
 14 13  2  0
 15 14  1  0
 16 22  1  0
 16 15  2  0
 17 16  1  0
 18 17  1  1
 19 18  1  0
 20 21  1  0
 20 18  1  0
 22 23  2  0
 23 13  1  0
 24 20  2  0
M  END
$$$$
