GTY.pdb
     RDKit          3D

 24 24  0  0  1  0  0  0  0  0999 V2000
   11.7803  -16.9242   17.8530 N   0  0  0  0  0  0  0  0  0  0  0  0
   10.4711  -16.9030   18.4472 C   0  0  0  0  0  0  0  0  0  0  0  0
   10.4040  -15.8662   19.5117 C   0  0  0  0  0  0  0  0  0  0  0  0
   11.4345  -15.5013   20.1554 O   0  0  0  0  0  0  0  0  0  0  0  0
    7.2622  -13.1017   19.9197 C   0  0  0  0  0  0  0  0  0  0  0  0
    7.4134  -14.1341   21.0143 C   0  0  1  0  0  0  0  0  0  0  0  0
    6.4611  -15.1190   20.8035 O   0  0  0  0  0  0  0  0  0  0  0  0
    8.8130  -14.6893   21.0670 C   0  0  2  0  0  0  0  0  0  0  0  0
    9.1437  -15.2758   19.8057 N   0  0  0  0  0  0  0  0  0  0  0  0
    8.9281  -15.6546   22.1910 C   0  0  0  0  0  0  0  0  0  0  0  0
    9.9181  -16.4176   22.2401 O   0  0  0  0  0  0  0  0  0  0  0  0
   10.6017  -15.1262   30.4500 O   0  0  0  0  0  0  0  0  0  0  0  0
   10.2335  -14.9992   29.1190 C   0  0  0  0  0  0  0  0  0  0  0  0
   10.6026  -15.9439   28.1929 C   0  0  0  0  0  0  0  0  0  0  0  0
   10.2220  -15.7880   26.8864 C   0  0  0  0  0  0  0  0  0  0  0  0
    9.4774  -14.7181   26.4430 C   0  0  0  0  0  0  0  0  0  0  0  0
    9.1070  -14.6146   25.0298 C   0  0  0  0  0  0  0  0  0  0  0  0
    8.2118  -15.7741   24.5891 C   0  0  2  0  0  0  0  0  0  0  0  0
    7.9147  -15.6913   23.1848 N   0  0  0  0  0  0  0  0  0  0  0  0
    7.0201  -15.9053   25.4405 C   0  0  0  0  0  0  0  0  0  0  0  0
    7.0052  -16.9370   26.3677 O   0  0  0  0  0  0  0  0  0  0  0  0
    9.1073  -13.7706   27.3721 C   0  0  0  0  0  0  0  0  0  0  0  0
    9.4858  -13.9144   28.7038 C   0  0  0  0  0  0  0  0  0  0  0  0
    6.0217  -15.1578   25.3910 O   0  0  0  0  0  0  0  0  0  0  0  0
  1  2  1  0
  3  2  1  0
  3  9  1  0
  4  3  2  0
  6  5  1  6
  7  6  1  0
  8  6  1  0
  8  9  1  6
  8 10  1  0
 10 19  1  0
 11 10  2  0
 13 12  1  0
 14 13  2  0
 15 14  1  0
 16 22  1  0
 16 15  2  0
 17 16  1  0
 18 17  1  1
 19 18  1  0
 20 21  1  0
 20 18  1  0
 22 23  2  0
 23 13  1  0
 24 20  2  0
M  END
$$$$
