GTY.pdb
     RDKit          3D

 24 24  0  0  1  0  0  0  0  0999 V2000
    8.0341  -12.5840   17.3619 N   0  0  0  0  0  0  0  0  0  0  0  0
    9.0288  -13.3041   18.1100 C   0  0  0  0  0  0  0  0  0  0  0  0
    8.3810  -14.1627   19.1375 C   0  0  0  0  0  0  0  0  0  0  0  0
    7.2133  -14.6319   18.9769 O   0  0  0  0  0  0  0  0  0  0  0  0
    8.2014  -16.7877   19.1848 C   0  0  0  0  0  0  0  0  0  0  0  0
    8.8082  -16.8272   20.5694 C   0  0  1  0  0  0  0  0  0  0  0  0
   10.1110  -17.2850   20.4492 O   0  0  0  0  0  0  0  0  0  0  0  0
    8.7306  -15.4854   21.2502 C   0  0  2  0  0  0  0  0  0  0  0  0
    9.1016  -14.4579   20.3278 N   0  0  0  0  0  0  0  0  0  0  0  0
    9.5814  -15.4907   22.4685 C   0  0  0  0  0  0  0  0  0  0  0  0
   10.5509  -14.7033   22.5383 O   0  0  0  0  0  0  0  0  0  0  0  0
    6.3743  -10.7449   27.5094 O   0  0  0  0  0  0  0  0  0  0  0  0
    6.6120  -11.9404   26.8480 C   0  0  0  0  0  0  0  0  0  0  0  0
    7.8944  -12.3675   26.6043 C   0  0  0  0  0  0  0  0  0  0  0  0
    8.0939  -13.5535   25.9486 C   0  0  0  0  0  0  0  0  0  0  0  0
    7.0621  -14.3541   25.5127 C   0  0  0  0  0  0  0  0  0  0  0  0
    7.3491  -15.6101   24.8162 C   0  0  0  0  0  0  0  0  0  0  0  0
    8.8437  -15.9359   24.8213 C   0  0  2  0  0  0  0  0  0  0  0  0
    9.2776  -16.3870   23.5270 N   0  0  0  0  0  0  0  0  0  0  0  0
    9.2061  -16.8455   25.9184 C   0  0  0  0  0  0  0  0  0  0  0  0
   10.0460  -16.3545   26.9072 O   0  0  0  0  0  0  0  0  0  0  0  0
    5.7759  -13.9254   25.7573 C   0  0  0  0  0  0  0  0  0  0  0  0
    5.5561  -12.7228   26.4226 C   0  0  0  0  0  0  0  0  0  0  0  0
    8.8143  -18.0258   26.0260 O   0  0  0  0  0  0  0  0  0  0  0  0
  1  2  1  0
  3  2  1  0
  3  9  1  0
  4  3  2  0
  6  5  1  6
  7  6  1  0
  8  6  1  0
  8  9  1  6
  8 10  1  0
 10 19  1  0
 11 10  2  0
 13 12  1  0
 14 13  2  0
 15 14  1  0
 16 22  1  0
 16 15  2  0
 17 16  1  0
 18 17  1  6
 19 18  1  0
 20 21  1  0
 20 18  1  0
 22 23  2  0
 23 13  1  0
 24 20  2  0
M  END
$$$$
