GTY.pdb
     RDKit          3D

 24 24  0  0  1  0  0  0  0  0999 V2000
    7.9607  -12.9592   16.7042 N   0  0  0  0  0  0  0  0  0  0  0  0
    8.8912  -13.5024   17.6564 C   0  0  0  0  0  0  0  0  0  0  0  0
    8.1653  -14.0440   18.8365 C   0  0  0  0  0  0  0  0  0  0  0  0
    6.9286  -13.8271   19.0179 O   0  0  0  0  0  0  0  0  0  0  0  0
    7.2121  -17.1081   19.4715 C   0  0  0  0  0  0  0  0  0  0  0  0
    8.0603  -16.8787   20.7023 C   0  0  1  0  0  0  0  0  0  0  0  0
    9.2378  -17.5930   20.5457 O   0  0  0  0  0  0  0  0  0  0  0  0
    8.3052  -15.4120   20.9446 C   0  0  2  0  0  0  0  0  0  0  0  0
    8.8896  -14.8248   19.7793 N   0  0  0  0  0  0  0  0  0  0  0  0
    9.1502  -15.2373   22.1545 C   0  0  0  0  0  0  0  0  0  0  0  0
   10.3811  -15.0611   22.0180 O   0  0  0  0  0  0  0  0  0  0  0  0
   11.1023  -14.9733   30.7739 O   0  0  0  0  0  0  0  0  0  0  0  0
   10.4418  -14.9113   29.5561 C   0  0  0  0  0  0  0  0  0  0  0  0
   10.3149  -13.7205   28.8836 C   0  0  0  0  0  0  0  0  0  0  0  0
    9.6566  -13.6944   27.6827 C   0  0  0  0  0  0  0  0  0  0  0  0
    9.1055  -14.8152   27.1032 C   0  0  0  0  0  0  0  0  0  0  0  0
    8.4136  -14.7136   25.8164 C   0  0  0  0  0  0  0  0  0  0  0  0
    9.3039  -15.1570   24.6541 C   0  0  2  0  0  0  0  0  0  0  0  0
    8.5450  -15.2734   23.4385 N   0  0  0  0  0  0  0  0  0  0  0  0
   10.0831  -16.3596   24.9839 C   0  0  0  0  0  0  0  0  0  0  0  0
    9.4925  -17.5917   24.7446 O   0  0  0  0  0  0  0  0  0  0  0  0
    9.2329  -16.0095   27.7780 C   0  0  0  0  0  0  0  0  0  0  0  0
    9.8991  -16.0531   28.9992 C   0  0  0  0  0  0  0  0  0  0  0  0
   11.2359  -16.3541   25.4627 O   0  0  0  0  0  0  0  0  0  0  0  0
  1  2  1  0
  3  2  1  0
  3  9  1  0
  4  3  2  0
  6  5  1  6
  7  6  1  0
  8  6  1  0
  8  9  1  6
  8 10  1  0
 10 19  1  0
 11 10  2  0
 13 12  1  0
 14 13  2  0
 15 14  1  0
 16 22  1  0
 16 15  2  0
 17 16  1  0
 18 17  1  1
 19 18  1  0
 20 21  1  0
 20 18  1  0
 22 23  2  0
 23 13  1  0
 24 20  2  0
M  END
$$$$
