GTY.pdb
     RDKit          3D

 24 24  0  0  1  0  0  0  0  0999 V2000
    4.4712  -19.6459   22.2837 N   0  0  0  0  0  0  0  0  0  0  0  0
    4.3899  -18.2103   22.2755 C   0  0  0  0  0  0  0  0  0  0  0  0
    5.7075  -17.6206   21.9165 C   0  0  0  0  0  0  0  0  0  0  0  0
    6.7319  -18.3427   21.7201 O   0  0  0  0  0  0  0  0  0  0  0  0
    8.0556  -13.5370   20.4271 C   0  0  0  0  0  0  0  0  0  0  0  0
    6.7917  -14.3329   20.6631 C   0  0  1  0  0  0  0  0  0  0  0  0
    6.2908  -14.7109   19.4271 O   0  0  0  0  0  0  0  0  0  0  0  0
    7.0365  -15.5114   21.5693 C   0  0  2  0  0  0  0  0  0  0  0  0
    5.8076  -16.2071   21.7933 N   0  0  0  0  0  0  0  0  0  0  0  0
    7.6678  -15.0503   22.8330 C   0  0  0  0  0  0  0  0  0  0  0  0
    7.0463  -14.2525   23.5692 O   0  0  0  0  0  0  0  0  0  0  0  0
   10.9052  -14.8289   30.6847 O   0  0  0  0  0  0  0  0  0  0  0  0
   10.3323  -15.0067   29.4344 C   0  0  0  0  0  0  0  0  0  0  0  0
   10.1195  -16.2663   28.9298 C   0  0  0  0  0  0  0  0  0  0  0  0
    9.5513  -16.4064   27.6914 C   0  0  0  0  0  0  0  0  0  0  0  0
    9.1757  -15.3358   26.9113 C   0  0  0  0  0  0  0  0  0  0  0  0
    8.5744  -15.5597   25.5948 C   0  0  0  0  0  0  0  0  0  0  0  0
    9.5596  -15.2686   24.4614 C   0  0  2  0  0  0  0  0  0  0  0  0
    8.9610  -15.5237   23.1794 N   0  0  0  0  0  0  0  0  0  0  0  0
   10.8469  -15.9509   24.6608 C   0  0  0  0  0  0  0  0  0  0  0  0
   10.9230  -17.2910   24.3108 O   0  0  0  0  0  0  0  0  0  0  0  0
    9.3893  -14.0725   27.4176 C   0  0  0  0  0  0  0  0  0  0  0  0
    9.9655  -13.9130   28.6745 C   0  0  0  0  0  0  0  0  0  0  0  0
   11.8755  -15.4141   25.1212 O   0  0  0  0  0  0  0  0  0  0  0  0
  1  2  1  0
  3  2  1  0
  3  9  1  0
  4  3  2  0
  6  5  1  6
  7  6  1  0
  8  6  1  0
  8  9  1  1
  8 10  1  0
 10 19  1  0
 11 10  2  0
 13 12  1  0
 14 13  2  0
 15 14  1  0
 16 22  1  0
 16 15  2  0
 17 16  1  0
 18 17  1  1
 19 18  1  0
 20 21  1  0
 20 18  1  0
 22 23  2  0
 23 13  1  0
 24 20  2  0
M  END
$$$$
