GTY.pdb
     RDKit          3D

 24 24  0  0  1  0  0  0  0  0999 V2000
    8.2453  -12.6228   18.1061 N   0  0  0  0  0  0  0  0  0  0  0  0
    9.0389  -13.2090   19.1520 C   0  0  0  0  0  0  0  0  0  0  0  0
    8.1964  -14.0840   20.0107 C   0  0  0  0  0  0  0  0  0  0  0  0
    7.0805  -14.5371   19.6121 O   0  0  0  0  0  0  0  0  0  0  0  0
    7.7521  -16.6361   19.8254 C   0  0  0  0  0  0  0  0  0  0  0  0
    8.4451  -16.7983   21.1597 C   0  0  1  0  0  0  0  0  0  0  0  0
    9.7794  -17.0817   20.9135 O   0  0  0  0  0  0  0  0  0  0  0  0
    8.2667  -15.5827   22.0316 C   0  0  2  0  0  0  0  0  0  0  0  0
    8.6667  -14.4138   21.3120 N   0  0  0  0  0  0  0  0  0  0  0  0
    9.0238  -15.7580   23.2982 C   0  0  0  0  0  0  0  0  0  0  0  0
   10.2358  -15.4502   23.3314 O   0  0  0  0  0  0  0  0  0  0  0  0
    6.0498  -10.6832   26.3863 O   0  0  0  0  0  0  0  0  0  0  0  0
    6.5242  -11.9816   26.4983 C   0  0  0  0  0  0  0  0  0  0  0  0
    5.7408  -13.0511   26.1396 C   0  0  0  0  0  0  0  0  0  0  0  0
    6.2403  -14.3205   26.2627 C   0  0  0  0  0  0  0  0  0  0  0  0
    7.5059  -14.5878   26.7344 C   0  0  0  0  0  0  0  0  0  0  0  0
    7.9746  -15.9712   26.8410 C   0  0  0  0  0  0  0  0  0  0  0  0
    8.9776  -16.3195   25.7397 C   0  0  2  0  0  0  0  0  0  0  0  0
    8.3580  -16.2696   24.4433 N   0  0  0  0  0  0  0  0  0  0  0  0
    9.6802  -17.5820   26.0128 C   0  0  0  0  0  0  0  0  0  0  0  0
   10.5105  -17.6263   27.1232 O   0  0  0  0  0  0  0  0  0  0  0  0
    8.2916  -13.5148   27.0941 C   0  0  0  0  0  0  0  0  0  0  0  0
    7.7989  -12.2185   26.9750 C   0  0  0  0  0  0  0  0  0  0  0  0
    9.5850  -18.6161   25.3203 O   0  0  0  0  0  0  0  0  0  0  0  0
  1  2  1  0
  3  2  1  0
  3  9  1  0
  4  3  2  0
  6  5  1  6
  7  6  1  0
  8  6  1  0
  8  9  1  6
  8 10  1  0
 10 19  1  0
 11 10  2  0
 13 12  1  0
 14 13  2  0
 15 14  1  0
 16 22  1  0
 16 15  2  0
 17 16  1  0
 18 17  1  1
 19 18  1  0
 20 21  1  0
 20 18  1  0
 22 23  2  0
 23 13  1  0
 24 20  2  0
M  END
$$$$
