GTY.pdb
     RDKit          3D

 24 24  0  0  1  0  0  0  0  0999 V2000
    6.5653  -19.9263   19.1296 N   0  0  0  0  0  0  0  0  0  0  0  0
    6.9683  -19.1985   20.3024 C   0  0  0  0  0  0  0  0  0  0  0  0
    7.9976  -18.1834   19.9518 C   0  0  0  0  0  0  0  0  0  0  0  0
    8.3035  -17.9301   18.7470 O   0  0  0  0  0  0  0  0  0  0  0  0
    7.9134  -15.4967   18.9066 C   0  0  0  0  0  0  0  0  0  0  0  0
    8.3405  -15.2039   20.3274 C   0  0  1  0  0  0  0  0  0  0  0  0
    7.1971  -15.1260   21.1071 O   0  0  0  0  0  0  0  0  0  0  0  0
    9.3163  -16.2316   20.8388 C   0  0  2  0  0  0  0  0  0  0  0  0
    8.6487  -17.4849   21.0060 N   0  0  0  0  0  0  0  0  0  0  0  0
    9.9416  -15.7478   22.0971 C   0  0  0  0  0  0  0  0  0  0  0  0
   10.7825  -14.8232   22.0435 O   0  0  0  0  0  0  0  0  0  0  0  0
    6.2200  -11.3230   28.2737 O   0  0  0  0  0  0  0  0  0  0  0  0
    6.6701  -12.1186   27.2307 C   0  0  0  0  0  0  0  0  0  0  0  0
    5.9014  -12.3103   26.1087 C   0  0  0  0  0  0  0  0  0  0  0  0
    6.3760  -13.1020   25.0968 C   0  0  0  0  0  0  0  0  0  0  0  0
    7.6019  -13.7270   25.1435 C   0  0  0  0  0  0  0  0  0  0  0  0
    8.0456  -14.5613   24.0246 C   0  0  0  0  0  0  0  0  0  0  0  0
    9.1109  -15.5715   24.4544 C   0  0  2  0  0  0  0  0  0  0  0  0
    9.5728  -16.3428   23.3324 N   0  0  0  0  0  0  0  0  0  0  0  0
    8.6681  -16.3889   25.5937 C   0  0  0  0  0  0  0  0  0  0  0  0
    9.3477  -16.2380   26.7935 O   0  0  0  0  0  0  0  0  0  0  0  0
    8.3728  -13.5346   26.2690 C   0  0  0  0  0  0  0  0  0  0  0  0
    7.9050  -12.7328   27.3061 C   0  0  0  0  0  0  0  0  0  0  0  0
    7.7266  -17.2079   25.5614 O   0  0  0  0  0  0  0  0  0  0  0  0
  1  2  1  0
  3  2  1  0
  3  9  1  0
  4  3  2  0
  6  5  1  6
  7  6  1  0
  8  6  1  0
  8  9  1  1
  8 10  1  0
 10 19  1  0
 11 10  2  0
 13 12  1  0
 14 13  2  0
 15 14  1  0
 16 22  1  0
 16 15  2  0
 17 16  1  0
 18 17  1  6
 19 18  1  0
 20 21  1  0
 20 18  1  0
 22 23  2  0
 23 13  1  0
 24 20  2  0
M  END
$$$$
