GTY.pdb
     RDKit          3D

 24 24  0  0  1  0  0  0  0  0999 V2000
    3.3996  -18.4389   21.2749 N   0  0  0  0  0  0  0  0  0  0  0  0
    4.3334  -17.6742   22.0562 C   0  0  0  0  0  0  0  0  0  0  0  0
    5.5306  -17.3331   21.2419 C   0  0  0  0  0  0  0  0  0  0  0  0
    5.5462  -17.4809   19.9820 O   0  0  0  0  0  0  0  0  0  0  0  0
    6.6557  -14.0669   21.1076 C   0  0  0  0  0  0  0  0  0  0  0  0
    7.3688  -15.1521   20.3326 C   0  0  1  0  0  0  0  0  0  0  0  0
    8.4257  -14.5652   19.6546 O   0  0  0  0  0  0  0  0  0  0  0  0
    7.8150  -16.2765   21.2307 C   0  0  2  0  0  0  0  0  0  0  0  0
    6.6824  -16.8284   21.9066 N   0  0  0  0  0  0  0  0  0  0  0  0
    8.8551  -15.7850   22.1714 C   0  0  0  0  0  0  0  0  0  0  0  0
    9.8891  -15.2513   21.7122 O   0  0  0  0  0  0  0  0  0  0  0  0
   10.4693  -15.3784   30.8865 O   0  0  0  0  0  0  0  0  0  0  0  0
   10.1157  -15.1584   29.5636 C   0  0  0  0  0  0  0  0  0  0  0  0
    9.2551  -14.1432   29.2241 C   0  0  0  0  0  0  0  0  0  0  0  0
    8.9269  -13.9532   27.9079 C   0  0  0  0  0  0  0  0  0  0  0  0
    9.4203  -14.7375   26.8895 C   0  0  0  0  0  0  0  0  0  0  0  0
    9.0250  -14.4780   25.5034 C   0  0  0  0  0  0  0  0  0  0  0  0
    9.6269  -15.5008   24.5382 C   0  0  2  0  0  0  0  0  0  0  0  0
    8.6550  -15.9301   23.5697 N   0  0  0  0  0  0  0  0  0  0  0  0
   10.2856  -16.6076   25.2478 C   0  0  0  0  0  0  0  0  0  0  0  0
    9.7508  -17.8779   25.0911 O   0  0  0  0  0  0  0  0  0  0  0  0
   10.2835  -15.7556   27.2303 C   0  0  0  0  0  0  0  0  0  0  0  0
   10.6273  -15.9619   28.5632 C   0  0  0  0  0  0  0  0  0  0  0  0
   11.2896  -16.4891   25.9800 O   0  0  0  0  0  0  0  0  0  0  0  0
  1  2  1  0
  3  2  1  0
  3  9  1  0
  4  3  2  0
  6  5  1  1
  7  6  1  0
  8  6  1  0
  8  9  1  1
  8 10  1  0
 10 19  1  0
 11 10  2  0
 13 12  1  0
 14 13  2  0
 15 14  1  0
 16 22  1  0
 16 15  2  0
 17 16  1  0
 18 17  1  1
 19 18  1  0
 20 21  1  0
 20 18  1  0
 22 23  2  0
 23 13  1  0
 24 20  2  0
M  END
$$$$
