GTY.pdb
     RDKit          3D

 24 24  0  0  1  0  0  0  0  0999 V2000
    9.6622  -17.6101   17.1452 N   0  0  0  0  0  0  0  0  0  0  0  0
    8.9703  -17.7827   18.3938 C   0  0  0  0  0  0  0  0  0  0  0  0
    9.2578  -16.6429   19.3053 C   0  0  0  0  0  0  0  0  0  0  0  0
   10.1610  -15.7907   19.0456 O   0  0  0  0  0  0  0  0  0  0  0  0
    6.6096  -14.3602   20.7000 C   0  0  0  0  0  0  0  0  0  0  0  0
    7.3703  -14.9122   21.8847 C   0  0  1  0  0  0  0  0  0  0  0  0
    6.5586  -15.8428   22.5144 O   0  0  0  0  0  0  0  0  0  0  0  0
    8.6982  -15.4925   21.4729 C   0  0  2  0  0  0  0  0  0  0  0  0
    8.4917  -16.5168   20.4970 N   0  0  0  0  0  0  0  0  0  0  0  0
    9.4235  -15.9869   22.6720 C   0  0  0  0  0  0  0  0  0  0  0  0
    9.3920  -17.2077   22.9430 O   0  0  0  0  0  0  0  0  0  0  0  0
   10.4204  -15.7268   31.2166 O   0  0  0  0  0  0  0  0  0  0  0  0
   10.1740  -15.4485   29.8806 C   0  0  0  0  0  0  0  0  0  0  0  0
    9.9297  -16.4599   28.9839 C   0  0  0  0  0  0  0  0  0  0  0  0
    9.6898  -16.1502   27.6714 C   0  0  0  0  0  0  0  0  0  0  0  0
    9.6804  -14.8590   27.1934 C   0  0  0  0  0  0  0  0  0  0  0  0
    9.4178  -14.6010   25.7759 C   0  0  0  0  0  0  0  0  0  0  0  0
   10.4213  -15.3178   24.8708 C   0  0  2  0  0  0  0  0  0  0  0  0
   10.1367  -15.0661   23.4842 N   0  0  0  0  0  0  0  0  0  0  0  0
   10.5407  -16.7456   25.2018 C   0  0  0  0  0  0  0  0  0  0  0  0
   11.7724  -17.1985   25.6513 O   0  0  0  0  0  0  0  0  0  0  0  0
    9.9255  -13.8448   28.0930 C   0  0  0  0  0  0  0  0  0  0  0  0
   10.1709  -14.1426   29.4303 C   0  0  0  0  0  0  0  0  0  0  0  0
    9.6167  -17.5796   25.1086 O   0  0  0  0  0  0  0  0  0  0  0  0
  1  2  1  0
  3  2  1  0
  3  9  1  0
  4  3  2  0
  6  5  1  6
  7  6  1  0
  8  6  1  0
  8  9  1  6
  8 10  1  0
 10 19  1  0
 11 10  2  0
 13 12  1  0
 14 13  2  0
 15 14  1  0
 16 22  1  0
 16 15  2  0
 17 16  1  0
 18 17  1  1
 19 18  1  0
 20 21  1  0
 20 18  1  0
 22 23  2  0
 23 13  1  0
 24 20  2  0
M  END
$$$$
