GTY.pdb
     RDKit          3D

 24 24  0  0  1  0  0  0  0  0999 V2000
    8.2009  -12.5812   17.8758 N   0  0  0  0  0  0  0  0  0  0  0  0
    9.0933  -13.1331   18.8589 C   0  0  0  0  0  0  0  0  0  0  0  0
    8.3286  -13.9047   19.8751 C   0  0  0  0  0  0  0  0  0  0  0  0
    7.0737  -13.7746   20.0080 O   0  0  0  0  0  0  0  0  0  0  0  0
    7.5367  -17.1574   19.9067 C   0  0  0  0  0  0  0  0  0  0  0  0
    8.3458  -17.0600   21.1806 C   0  0  1  0  0  0  0  0  0  0  0  0
    9.6015  -17.5897   20.9277 O   0  0  0  0  0  0  0  0  0  0  0  0
    8.4111  -15.6444   21.6922 C   0  0  2  0  0  0  0  0  0  0  0  0
    9.0361  -14.8097   20.7140 N   0  0  0  0  0  0  0  0  0  0  0  0
    9.1169  -15.6152   22.9996 C   0  0  0  0  0  0  0  0  0  0  0  0
   10.2911  -15.1867   23.0489 O   0  0  0  0  0  0  0  0  0  0  0  0
    6.0354  -10.4947   26.4313 O   0  0  0  0  0  0  0  0  0  0  0  0
    6.5215  -11.7932   26.4614 C   0  0  0  0  0  0  0  0  0  0  0  0
    5.6936  -12.8610   26.2145 C   0  0  0  0  0  0  0  0  0  0  0  0
    6.2062  -14.1306   26.2521 C   0  0  0  0  0  0  0  0  0  0  0  0
    7.5278  -14.3998   26.5287 C   0  0  0  0  0  0  0  0  0  0  0  0
    8.0074  -15.7834   26.5536 C   0  0  0  0  0  0  0  0  0  0  0  0
    9.0526  -16.0438   25.4675 C   0  0  2  0  0  0  0  0  0  0  0  0
    8.4460  -16.0728   24.1643 N   0  0  0  0  0  0  0  0  0  0  0  0
    9.8746  -17.2261   25.7652 C   0  0  0  0  0  0  0  0  0  0  0  0
   10.6386  -17.2007   26.9228 O   0  0  0  0  0  0  0  0  0  0  0  0
    8.3579  -13.3286   26.7763 C   0  0  0  0  0  0  0  0  0  0  0  0
    7.8528  -12.0321   26.7418 C   0  0  0  0  0  0  0  0  0  0  0  0
    9.9359  -18.2503   25.0543 O   0  0  0  0  0  0  0  0  0  0  0  0
  1  2  1  0
  3  2  1  0
  3  9  1  0
  4  3  2  0
  6  5  1  6
  7  6  1  0
  8  6  1  0
  8  9  1  6
  8 10  1  0
 10 19  1  0
 11 10  2  0
 13 12  1  0
 14 13  2  0
 15 14  1  0
 16 22  1  0
 16 15  2  0
 17 16  1  0
 18 17  1  1
 19 18  1  0
 20 21  1  0
 20 18  1  0
 22 23  2  0
 23 13  1  0
 24 20  2  0
M  END
$$$$
