GTY.pdb
     RDKit          3D

 24 24  0  0  1  0  0  0  0  0999 V2000
    8.2143  -12.5260   17.6976 N   0  0  0  0  0  0  0  0  0  0  0  0
    9.0888  -13.2676   18.5651 C   0  0  0  0  0  0  0  0  0  0  0  0
    8.3036  -13.9532   19.6263 C   0  0  0  0  0  0  0  0  0  0  0  0
    7.0769  -13.6956   19.8221 O   0  0  0  0  0  0  0  0  0  0  0  0
    7.1614  -17.0711   19.7925 C   0  0  0  0  0  0  0  0  0  0  0  0
    8.0282  -17.0525   21.0314 C   0  0  1  0  0  0  0  0  0  0  0  0
    9.1838  -17.7652   20.7519 O   0  0  0  0  0  0  0  0  0  0  0  0
    8.3163  -15.6462   21.4888 C   0  0  2  0  0  0  0  0  0  0  0  0
    8.9582  -14.9220   20.4363 N   0  0  0  0  0  0  0  0  0  0  0  0
    9.1273  -15.6794   22.7336 C   0  0  0  0  0  0  0  0  0  0  0  0
   10.3442  -15.3955   22.6759 O   0  0  0  0  0  0  0  0  0  0  0  0
    5.9774  -10.5211   26.1991 O   0  0  0  0  0  0  0  0  0  0  0  0
    6.5272  -11.7937   26.2402 C   0  0  0  0  0  0  0  0  0  0  0  0
    5.7271  -12.9087   26.1841 C   0  0  0  0  0  0  0  0  0  0  0  0
    6.3027  -14.1509   26.2268 C   0  0  0  0  0  0  0  0  0  0  0  0
    7.6620  -14.3465   26.3249 C   0  0  0  0  0  0  0  0  0  0  0  0
    8.2089  -15.7044   26.3671 C   0  0  0  0  0  0  0  0  0  0  0  0
    9.1917  -15.9588   25.2228 C   0  0  2  0  0  0  0  0  0  0  0  0
    8.5063  -16.0316   23.9610 N   0  0  0  0  0  0  0  0  0  0  0  0
   10.0640  -17.1117   25.4909 C   0  0  0  0  0  0  0  0  0  0  0  0
   10.9370  -17.0189   26.5650 O   0  0  0  0  0  0  0  0  0  0  0  0
    8.4643  -13.2279   26.3811 C   0  0  0  0  0  0  0  0  0  0  0  0
    7.8951  -11.9585   26.3386 C   0  0  0  0  0  0  0  0  0  0  0  0
   10.0773  -18.1671   24.8245 O   0  0  0  0  0  0  0  0  0  0  0  0
  1  2  1  0
  3  2  1  0
  3  9  1  0
  4  3  2  0
  6  5  1  6
  7  6  1  0
  8  6  1  0
  8  9  1  6
  8 10  1  0
 10 19  1  0
 11 10  2  0
 13 12  1  0
 14 13  2  0
 15 14  1  0
 16 22  1  0
 16 15  2  0
 17 16  1  0
 18 17  1  1
 19 18  1  0
 20 21  1  0
 20 18  1  0
 22 23  2  0
 23 13  1  0
 24 20  2  0
M  END
$$$$
