GTY.pdb
     RDKit          3D

 24 24  0  0  1  0  0  0  0  0999 V2000
    8.3463  -13.8084   16.8702 N   0  0  0  0  0  0  0  0  0  0  0  0
    9.1092  -14.6161   17.7829 C   0  0  0  0  0  0  0  0  0  0  0  0
    8.3502  -14.8263   19.0449 C   0  0  0  0  0  0  0  0  0  0  0  0
    7.7086  -13.8853   19.6036 O   0  0  0  0  0  0  0  0  0  0  0  0
    6.3244  -17.9805   22.1665 C   0  0  0  0  0  0  0  0  0  0  0  0
    7.1037  -17.7361   20.8938 C   0  0  1  0  0  0  0  0  0  0  0  0
    6.2204  -17.8320   19.8299 O   0  0  0  0  0  0  0  0  0  0  0  0
    7.8232  -16.4128   20.9265 C   0  0  2  0  0  0  0  0  0  0  0  0
    8.3521  -16.1227   19.6302 N   0  0  0  0  0  0  0  0  0  0  0  0
    8.8739  -16.4384   21.9771 C   0  0  0  0  0  0  0  0  0  0  0  0
    9.9598  -17.0120   21.7391 O   0  0  0  0  0  0  0  0  0  0  0  0
    5.2981  -12.0257   27.1347 O   0  0  0  0  0  0  0  0  0  0  0  0
    6.4173  -12.5848   26.5365 C   0  0  0  0  0  0  0  0  0  0  0  0
    7.4019  -13.1712   27.2937 C   0  0  0  0  0  0  0  0  0  0  0  0
    8.4942  -13.7142   26.6708 C   0  0  0  0  0  0  0  0  0  0  0  0
    8.6625  -13.7041   25.3043 C   0  0  0  0  0  0  0  0  0  0  0  0
    9.8576  -14.3026   24.7056 C   0  0  0  0  0  0  0  0  0  0  0  0
    9.6133  -15.7483   24.2695 C   0  0  2  0  0  0  0  0  0  0  0  0
    8.6252  -15.8125   23.2271 N   0  0  0  0  0  0  0  0  0  0  0  0
    9.3275  -16.6284   25.4123 C   0  0  0  0  0  0  0  0  0  0  0  0
   10.3452  -16.8359   26.3318 O   0  0  0  0  0  0  0  0  0  0  0  0
    7.6748  -13.1159   24.5450 C   0  0  0  0  0  0  0  0  0  0  0  0
    6.5584  -12.5597   25.1626 C   0  0  0  0  0  0  0  0  0  0  0  0
    8.2378  -17.2020   25.6165 O   0  0  0  0  0  0  0  0  0  0  0  0
  1  2  1  0
  3  2  1  0
  3  9  1  0
  4  3  2  0
  6  5  1  1
  7  6  1  0
  8  6  1  0
  8  9  1  6
  8 10  1  0
 10 19  1  0
 11 10  2  0
 13 12  1  0
 14 13  2  0
 15 14  1  0
 16 22  1  0
 16 15  2  0
 17 16  1  0
 18 17  1  1
 19 18  1  0
 20 21  1  0
 20 18  1  0
 22 23  2  0
 23 13  1  0
 24 20  2  0
M  END
$$$$
