WQP.pdb
     RDKit          3D

 31 33  0  0  1  0  0  0  0  0999 V2000
   25.5537  -18.7017   -9.0587 N   0  0  0  0  0  0  0  0  0  0  0  0
   26.2669  -19.8761   -9.4242 C   0  0  1  0  0  0  0  0  0  0  0  0
   26.0821  -21.0615   -8.5315 C   0  0  0  0  0  0  0  0  0  0  0  0
   26.4601  -20.8148   -7.1168 C   0  0  0  0  0  0  0  0  0  0  0  0
   25.5919  -20.7598   -6.0234 C   0  0  0  0  0  0  0  0  0  0  0  0
   26.3062  -20.5334   -4.9105 N   0  0  0  0  0  0  0  0  0  0  0  0
   27.6290  -20.4320   -5.2077 C   0  0  0  0  0  0  0  0  0  0  0  0
   28.7355  -20.2017   -4.4155 C   0  0  0  0  0  0  0  0  0  0  0  0
   29.9891  -20.1377   -4.9783 C   0  0  0  0  0  0  0  0  0  0  0  0
   30.1068  -20.3084   -6.3404 C   0  0  0  0  0  0  0  0  0  0  0  0
   28.9759  -20.5401   -7.1219 C   0  0  0  0  0  0  0  0  0  0  0  0
   27.7106  -20.6079   -6.5753 C   0  0  0  0  0  0  0  0  0  0  0  0
   25.9164  -20.2972  -10.8049 C   0  0  0  0  0  0  0  0  0  0  0  0
   24.7718  -20.0226  -11.2372 O   0  0  0  0  0  0  0  0  0  0  0  0
   30.2277  -22.6532  -14.6980 N   0  0  0  0  0  0  0  0  0  0  0  0
   29.4442  -21.9564  -15.6389 C   0  0  0  0  0  0  0  0  0  0  0  0
   29.6905  -21.8850  -16.8636 O   0  0  0  0  0  0  0  0  0  0  0  0
   28.2354  -21.2571  -15.1191 C   0  0  0  0  0  0  0  0  0  0  0  0
   28.0983  -21.4707  -13.6243 C   0  0  0  0  0  0  0  0  0  0  0  0
   26.8819  -20.7562  -13.0981 C   0  0  2  0  0  0  0  0  0  0  0  0
   26.8036  -20.9944  -11.6668 N   0  0  0  0  0  0  0  0  0  0  0  0
   25.6180  -21.1700  -13.7146 C   0  0  0  0  0  0  0  0  0  0  0  0
   25.0798  -22.2819  -13.3662 O   0  0  0  0  0  0  0  0  0  0  0  0
   24.9554  -20.4022  -14.6781 N   0  0  0  0  0  0  0  0  0  0  0  0
   25.3643  -19.1279  -15.2470 C   0  0  0  0  0  0  0  0  0  0  0  0
   24.0354  -18.4209  -15.3268 C   0  0  0  0  0  0  0  0  0  0  0  0
   23.1024  -19.4746  -15.8447 C   0  0  0  0  0  0  0  0  0  0  0  0
   23.6755  -20.7569  -15.2986 C   0  0  1  0  0  0  0  0  0  0  0  0
   23.8517  -21.6735  -16.4485 C   0  0  0  0  0  0  0  0  0  0  0  0
   25.0297  -21.8687  -16.8424 O   0  0  0  0  0  0  0  0  0  0  0  0
   22.8381  -22.3218  -17.1160 O   0  0  0  0  0  0  0  0  0  0  0  0
  2 13  1  0
  2  1  1  1
  3  2  1  0
  4  3  1  0
  4  5  2  0
  6  5  1  0
  7  6  1  0
  8  7  2  0
  9  8  1  0
 10  9  2  0
 10 11  1  0
 11 12  2  0
 12  7  1  0
 12  4  1  0
 13 14  2  0
 16 15  1  0
 16 17  2  0
 18 16  1  0
 19 18  1  0
 20 19  1  6
 20 22  1  0
 21 20  1  0
 21 13  1  0
 22 23  2  0
 24 22  1  0
 24 28  1  0
 25 26  1  0
 25 24  1  0
 26 27  1  0
 27 28  1  0
 28 29  1  6
 29 30  2  0
 29 31  1  0
M  END
$$$$
