WQP.pdb
     RDKit          3D

 31 33  0  0  1  0  0  0  0  0999 V2000
   24.5096  -20.7307   -9.0451 N   0  0  0  0  0  0  0  0  0  0  0  0
   25.6674  -20.0546   -9.5182 C   0  0  1  0  0  0  0  0  0  0  0  0
   26.9755  -20.5309   -8.9720 C   0  0  0  0  0  0  0  0  0  0  0  0
   27.3963  -19.8388   -7.7274 C   0  0  0  0  0  0  0  0  0  0  0  0
   27.0001  -18.5650   -7.3116 C   0  0  0  0  0  0  0  0  0  0  0  0
   27.5763  -18.2929   -6.1310 N   0  0  0  0  0  0  0  0  0  0  0  0
   28.3506  -19.3356   -5.7291 C   0  0  0  0  0  0  0  0  0  0  0  0
   29.1321  -19.5230   -4.6069 C   0  0  0  0  0  0  0  0  0  0  0  0
   29.8359  -20.6931   -4.4405 C   0  0  0  0  0  0  0  0  0  0  0  0
   29.7392  -21.6618   -5.4155 C   0  0  0  0  0  0  0  0  0  0  0  0
   28.9439  -21.4519   -6.5410 C   0  0  0  0  0  0  0  0  0  0  0  0
   28.2306  -20.2850   -6.7251 C   0  0  0  0  0  0  0  0  0  0  0  0
   25.7497  -20.1241  -10.9998 C   0  0  0  0  0  0  0  0  0  0  0  0
   24.8220  -20.6960  -11.6201 O   0  0  0  0  0  0  0  0  0  0  0  0
   28.2227  -18.7819  -16.2744 N   0  0  0  0  0  0  0  0  0  0  0  0
   27.4810  -17.6571  -15.8632 C   0  0  0  0  0  0  0  0  0  0  0  0
   26.8488  -16.8965  -16.6298 O   0  0  0  0  0  0  0  0  0  0  0  0
   27.4589  -17.3655  -14.4021 C   0  0  0  0  0  0  0  0  0  0  0  0
   27.9448  -18.5651  -13.6123 C   0  0  0  0  0  0  0  0  0  0  0  0
   26.7846  -19.4329  -13.2026 C   0  0  2  0  0  0  0  0  0  0  0  0
   26.8199  -19.5794  -11.7574 N   0  0  0  0  0  0  0  0  0  0  0  0
   26.7766  -20.7663  -13.8115 C   0  0  0  0  0  0  0  0  0  0  0  0
   27.6059  -21.6543  -13.3979 O   0  0  0  0  0  0  0  0  0  0  0  0
   25.8957  -21.1285  -14.8360 N   0  0  0  0  0  0  0  0  0  0  0  0
   24.8528  -20.3221  -15.4499 C   0  0  0  0  0  0  0  0  0  0  0  0
   23.7661  -21.3537  -15.6154 C   0  0  0  0  0  0  0  0  0  0  0  0
   24.4972  -22.5631  -16.1172 C   0  0  0  0  0  0  0  0  0  0  0  0
   25.8610  -22.4412  -15.4877 C   0  0  1  0  0  0  0  0  0  0  0  0
   26.8515  -22.5426  -16.5840 C   0  0  0  0  0  0  0  0  0  0  0  0
   27.3542  -21.4659  -16.9950 O   0  0  0  0  0  0  0  0  0  0  0  0
   27.2612  -23.7105  -17.1851 O   0  0  0  0  0  0  0  0  0  0  0  0
  2 13  1  0
  2  1  1  1
  3  2  1  0
  4  3  1  0
  4  5  2  0
  6  5  1  0
  7  6  1  0
  8  7  2  0
  9  8  1  0
 10  9  2  0
 10 11  1  0
 11 12  2  0
 12  7  1  0
 12  4  1  0
 13 14  2  0
 16 15  1  0
 16 17  2  0
 18 16  1  0
 19 18  1  0
 20 19  1  6
 20 22  1  0
 21 20  1  0
 21 13  1  0
 22 23  2  0
 24 22  1  0
 24 28  1  0
 25 26  1  0
 25 24  1  0
 26 27  1  0
 27 28  1  0
 28 29  1  6
 29 30  2  0
 29 31  1  0
M  END
$$$$
