WQP.pdb
     RDKit          3D

 31 33  0  0  1  0  0  0  0  0999 V2000
   26.8628  -20.4012  -12.1884 N   0  0  0  0  0  0  0  0  0  0  0  0
   26.1208  -20.3388  -10.9773 C   0  0  1  0  0  0  0  0  0  0  0  0
   25.1248  -21.4330  -10.7598 C   0  0  0  0  0  0  0  0  0  0  0  0
   23.7926  -21.1620  -11.3571 C   0  0  0  0  0  0  0  0  0  0  0  0
   23.3585  -21.5486  -12.6277 C   0  0  0  0  0  0  0  0  0  0  0  0
   22.0936  -21.1363  -12.8005 N   0  0  0  0  0  0  0  0  0  0  0  0
   21.6518  -20.4826  -11.6933 C   0  0  0  0  0  0  0  0  0  0  0  0
   20.4442  -19.8825  -11.3991 C   0  0  0  0  0  0  0  0  0  0  0  0
   20.2530  -19.2710  -10.1819 C   0  0  0  0  0  0  0  0  0  0  0  0
   21.2903  -19.2749   -9.2750 C   0  0  0  0  0  0  0  0  0  0  0  0
   22.5018  -19.8870   -9.5927 C   0  0  0  0  0  0  0  0  0  0  0  0
   22.7120  -20.5056  -10.8082 C   0  0  0  0  0  0  0  0  0  0  0  0
   27.0298  -20.3219   -9.8025 C   0  0  0  0  0  0  0  0  0  0  0  0
   27.9405  -21.1819   -9.7437 O   0  0  0  0  0  0  0  0  0  0  0  0
   27.5055  -15.5926   -5.7456 N   0  0  0  0  0  0  0  0  0  0  0  0
   28.4513  -16.4595   -5.1639 C   0  0  0  0  0  0  0  0  0  0  0  0
   29.1436  -16.1923   -4.1564 O   0  0  0  0  0  0  0  0  0  0  0  0
   28.6282  -17.7905   -5.8101 C   0  0  0  0  0  0  0  0  0  0  0  0
   27.7049  -17.9292   -7.0048 C   0  0  0  0  0  0  0  0  0  0  0  0
   27.9308  -19.2473   -7.6966 C   0  0  2  0  0  0  0  0  0  0  0  0
   26.9282  -19.3865   -8.7392 N   0  0  0  0  0  0  0  0  0  0  0  0
   27.8608  -20.4172   -6.8161 C   0  0  0  0  0  0  0  0  0  0  0  0
   26.7923  -21.1278   -6.7941 O   0  0  0  0  0  0  0  0  0  0  0  0
   28.9169  -20.8075   -5.9860 N   0  0  0  0  0  0  0  0  0  0  0  0
   30.2838  -20.3114   -5.9790 C   0  0  0  0  0  0  0  0  0  0  0  0
   31.0422  -21.5918   -5.7384 C   0  0  0  0  0  0  0  0  0  0  0  0
   30.2424  -22.2845   -4.6756 C   0  0  0  0  0  0  0  0  0  0  0  0
   28.8292  -21.8349   -4.9438 C   0  0  1  0  0  0  0  0  0  0  0  0
   28.3020  -21.2908   -3.6714 C   0  0  0  0  0  0  0  0  0  0  0  0
   28.0031  -22.1245   -2.7790 O   0  0  0  0  0  0  0  0  0  0  0  0
   28.1129  -19.9571   -3.3903 O   0  0  0  0  0  0  0  0  0  0  0  0
  2 13  1  0
  2  1  1  6
  3  2  1  0
  4  3  1  0
  4  5  2  0
  6  5  1  0
  7  6  1  0
  8  7  2  0
  9  8  1  0
 10  9  2  0
 10 11  1  0
 11 12  2  0
 12  7  1  0
 12  4  1  0
 13 14  2  0
 16 15  1  0
 16 17  2  0
 18 16  1  0
 19 18  1  0
 20 19  1  1
 20 22  1  0
 21 20  1  0
 21 13  1  0
 22 23  2  0
 24 22  1  0
 24 28  1  0
 25 26  1  0
 25 24  1  0
 26 27  1  0
 27 28  1  0
 28 29  1  1
 29 30  2  0
 29 31  1  0
M  END
$$$$
