WQP.pdb
     RDKit          3D

 31 33  0  0  1  0  0  0  0  0999 V2000
   21.9498  -17.5995  -15.9276 N   0  0  0  0  0  0  0  0  0  0  0  0
   23.2952  -17.9099  -15.5890 C   0  0  1  0  0  0  0  0  0  0  0  0
   24.1639  -16.7504  -15.2188 C   0  0  0  0  0  0  0  0  0  0  0  0
   25.4950  -16.7608  -15.8769 C   0  0  0  0  0  0  0  0  0  0  0  0
   25.8788  -16.0013  -16.9851 C   0  0  0  0  0  0  0  0  0  0  0  0
   27.1598  -16.2726  -17.2771 N   0  0  0  0  0  0  0  0  0  0  0  0
   27.6611  -17.1898  -16.4077 C   0  0  0  0  0  0  0  0  0  0  0  0
   28.9055  -17.7780  -16.3061 C   0  0  0  0  0  0  0  0  0  0  0  0
   29.1567  -18.7011  -15.3176 C   0  0  0  0  0  0  0  0  0  0  0  0
   28.1415  -19.0177  -14.4415 C   0  0  0  0  0  0  0  0  0  0  0  0
   26.8920  -18.4115  -14.5621 C   0  0  0  0  0  0  0  0  0  0  0  0
   26.6214  -17.4833  -15.5469 C   0  0  0  0  0  0  0  0  0  0  0  0
   23.3454  -18.8822  -14.4670 C   0  0  0  0  0  0  0  0  0  0  0  0
   22.5407  -18.7345  -13.5166 O   0  0  0  0  0  0  0  0  0  0  0  0
   24.8510  -24.6547  -14.8927 N   0  0  0  0  0  0  0  0  0  0  0  0
   23.5123  -24.2290  -14.7863 C   0  0  0  0  0  0  0  0  0  0  0  0
   22.5164  -24.9049  -15.1284 O   0  0  0  0  0  0  0  0  0  0  0  0
   23.2836  -22.8688  -14.2225 C   0  0  0  0  0  0  0  0  0  0  0  0
   24.5924  -22.2546  -13.7659 C   0  0  0  0  0  0  0  0  0  0  0  0
   24.3702  -20.8546  -13.2583 C   0  0  2  0  0  0  0  0  0  0  0  0
   24.2533  -19.9722  -14.4069 N   0  0  0  0  0  0  0  0  0  0  0  0
   25.4307  -20.3491  -12.3816 C   0  0  0  0  0  0  0  0  0  0  0  0
   26.3027  -19.5329  -12.8514 O   0  0  0  0  0  0  0  0  0  0  0  0
   25.5426  -20.7145  -11.0360 N   0  0  0  0  0  0  0  0  0  0  0  0
   24.6352  -21.5355  -10.2503 C   0  0  0  0  0  0  0  0  0  0  0  0
   24.6598  -20.7965   -8.9367 C   0  0  0  0  0  0  0  0  0  0  0  0
   26.1101  -20.4695   -8.7396 C   0  0  0  0  0  0  0  0  0  0  0  0
   26.6324  -20.3072  -10.1439 C   0  0  1  0  0  0  0  0  0  0  0  0
   27.8123  -21.1932  -10.2692 C   0  0  0  0  0  0  0  0  0  0  0  0
   27.6293  -22.3056  -10.8260 O   0  0  0  0  0  0  0  0  0  0  0  0
   29.0820  -20.9002   -9.8272 O   0  0  0  0  0  0  0  0  0  0  0  0
  2 13  1  0
  2  1  1  1
  3  2  1  0
  4  3  1  0
  4  5  2  0
  6  5  1  0
  7  6  1  0
  8  7  2  0
  9  8  1  0
 10  9  2  0
 10 11  1  0
 11 12  2  0
 12  7  1  0
 12  4  1  0
 13 14  2  0
 16 15  1  0
 16 17  2  0
 18 16  1  0
 19 18  1  0
 20 19  1  6
 20 22  1  0
 21 20  1  0
 21 13  1  0
 22 23  2  0
 24 22  1  0
 24 28  1  0
 25 26  1  0
 25 24  1  0
 26 27  1  0
 27 28  1  0
 28 29  1  1
 29 30  2  0
 29 31  1  0
M  END
$$$$
