WQP.pdb
     RDKit          3D

 31 33  0  0  1  0  0  0  0  0999 V2000
   21.4199  -20.8378  -15.9605 N   0  0  0  0  0  0  0  0  0  0  0  0
   22.2024  -19.8186  -15.3520 C   0  0  1  0  0  0  0  0  0  0  0  0
   21.4508  -18.8018  -14.5536 C   0  0  0  0  0  0  0  0  0  0  0  0
   20.5125  -17.9783  -15.3576 C   0  0  0  0  0  0  0  0  0  0  0  0
   19.1179  -18.0641  -15.3506 C   0  0  0  0  0  0  0  0  0  0  0  0
   18.6204  -17.1480  -16.1951 N   0  0  0  0  0  0  0  0  0  0  0  0
   19.6266  -16.4424  -16.7767 C   0  0  0  0  0  0  0  0  0  0  0  0
   19.6175  -15.4176  -17.7012 C   0  0  0  0  0  0  0  0  0  0  0  0
   20.8006  -14.8702  -18.1401 C   0  0  0  0  0  0  0  0  0  0  0  0
   21.9819  -15.3688  -17.6356 C   0  0  0  0  0  0  0  0  0  0  0  0
   21.9682  -16.4043  -16.7024 C   0  0  0  0  0  0  0  0  0  0  0  0
   20.7914  -16.9657  -16.2502 C   0  0  0  0  0  0  0  0  0  0  0  0
   23.2374  -20.4080  -14.4644 C   0  0  0  0  0  0  0  0  0  0  0  0
   22.8933  -21.3182  -13.6734 O   0  0  0  0  0  0  0  0  0  0  0  0
   28.0602  -19.1142  -16.2636 N   0  0  0  0  0  0  0  0  0  0  0  0
   27.7395  -20.4623  -16.5177 C   0  0  0  0  0  0  0  0  0  0  0  0
   27.9346  -21.0526  -17.6037 O   0  0  0  0  0  0  0  0  0  0  0  0
   27.1218  -21.2276  -15.3983 C   0  0  0  0  0  0  0  0  0  0  0  0
   26.9512  -20.3429  -14.1789 C   0  0  0  0  0  0  0  0  0  0  0  0
   25.5954  -20.5539  -13.5588 C   0  0  2  0  0  0  0  0  0  0  0  0
   24.5976  -20.0006  -14.4586 N   0  0  0  0  0  0  0  0  0  0  0  0
   25.4285  -19.9429  -12.2369 C   0  0  0  0  0  0  0  0  0  0  0  0
   25.0900  -18.7079  -12.1503 O   0  0  0  0  0  0  0  0  0  0  0  0
   25.6202  -20.6483  -11.0442 N   0  0  0  0  0  0  0  0  0  0  0  0
   25.9052  -22.0642  -10.8746 C   0  0  0  0  0  0  0  0  0  0  0  0
   25.0619  -22.3736   -9.6640 C   0  0  0  0  0  0  0  0  0  0  0  0
   25.3038  -21.2063   -8.7542 C   0  0  0  0  0  0  0  0  0  0  0  0
   25.5528  -20.0616   -9.7024 C   0  0  1  0  0  0  0  0  0  0  0  0
   26.8375  -19.4432   -9.3022 C   0  0  0  0  0  0  0  0  0  0  0  0
   26.8101  -18.6704   -8.3107 O   0  0  0  0  0  0  0  0  0  0  0  0
   28.0485  -19.6431   -9.9244 O   0  0  0  0  0  0  0  0  0  0  0  0
  2 13  1  0
  2  1  1  1
  3  2  1  0
  4  3  1  0
  4  5  2  0
  6  5  1  0
  7  6  1  0
  8  7  2  0
  9  8  1  0
 10  9  2  0
 10 11  1  0
 11 12  2  0
 12  7  1  0
 12  4  1  0
 13 14  2  0
 16 15  1  0
 16 17  2  0
 18 16  1  0
 19 18  1  0
 20 19  1  6
 20 22  1  0
 21 20  1  0
 21 13  1  0
 22 23  2  0
 24 22  1  0
 24 28  1  0
 25 26  1  0
 25 24  1  0
 26 27  1  0
 27 28  1  0
 28 29  1  1
 29 30  2  0
 29 31  1  0
M  END
$$$$
