WQP.pdb
     RDKit          3D

 31 33  0  0  1  0  0  0  0  0999 V2000
   26.6797  -18.8425  -10.8612 N   0  0  0  0  0  0  0  0  0  0  0  0
   26.6338  -20.2556  -11.0114 C   0  0  1  0  0  0  0  0  0  0  0  0
   25.9907  -21.0144   -9.8947 C   0  0  0  0  0  0  0  0  0  0  0  0
   26.4365  -20.5903   -8.5433 C   0  0  0  0  0  0  0  0  0  0  0  0
   25.6210  -20.1251   -7.5084 C   0  0  0  0  0  0  0  0  0  0  0  0
   26.3847  -19.8564   -6.4387 N   0  0  0  0  0  0  0  0  0  0  0  0
   27.6905  -20.1217   -6.7087 C   0  0  0  0  0  0  0  0  0  0  0  0
   28.8319  -20.0020   -5.9421 C   0  0  0  0  0  0  0  0  0  0  0  0
   30.0578  -20.3388   -6.4675 C   0  0  0  0  0  0  0  0  0  0  0  0
   30.1125  -20.7943   -7.7667 C   0  0  0  0  0  0  0  0  0  0  0  0
   28.9472  -20.9076   -8.5234 C   0  0  0  0  0  0  0  0  0  0  0  0
   27.7089  -20.5749   -8.0135 C   0  0  0  0  0  0  0  0  0  0  0  0
   25.9340  -20.6295  -12.2672 C   0  0  0  0  0  0  0  0  0  0  0  0
   24.8243  -20.0983  -12.5097 O   0  0  0  0  0  0  0  0  0  0  0  0
   29.3848  -21.0554  -16.4462 N   0  0  0  0  0  0  0  0  0  0  0  0
   28.3238  -21.2769  -17.3461 C   0  0  0  0  0  0  0  0  0  0  0  0
   28.2780  -20.8454  -18.5197 O   0  0  0  0  0  0  0  0  0  0  0  0
   27.1779  -22.0875  -16.8459 C   0  0  0  0  0  0  0  0  0  0  0  0
   27.2718  -22.2723  -15.3439 C   0  0  0  0  0  0  0  0  0  0  0  0
   26.2248  -21.4475  -14.6437 C   0  0  2  0  0  0  0  0  0  0  0  0
   26.4490  -21.5557  -13.2121 N   0  0  0  0  0  0  0  0  0  0  0  0
   24.8433  -21.8416  -14.9355 C   0  0  0  0  0  0  0  0  0  0  0  0
   24.3090  -22.8048  -14.2769 O   0  0  0  0  0  0  0  0  0  0  0  0
   24.0629  -21.2103  -15.9098 N   0  0  0  0  0  0  0  0  0  0  0  0
   24.4215  -20.0830  -16.7556 C   0  0  0  0  0  0  0  0  0  0  0  0
   23.1243  -19.3152  -16.7588 C   0  0  0  0  0  0  0  0  0  0  0  0
   22.0815  -20.3794  -16.9292 C   0  0  0  0  0  0  0  0  0  0  0  0
   22.6872  -21.5826  -16.2536 C   0  0  1  0  0  0  0  0  0  0  0  0
   22.6413  -22.6937  -17.2317 C   0  0  0  0  0  0  0  0  0  0  0  0
   23.7350  -23.0432  -17.7443 O   0  0  0  0  0  0  0  0  0  0  0  0
   21.5071  -23.3676  -17.6226 O   0  0  0  0  0  0  0  0  0  0  0  0
  2 13  1  0
  2  1  1  1
  3  2  1  0
  4  3  1  0
  4  5  2  0
  6  5  1  0
  7  6  1  0
  8  7  2  0
  9  8  1  0
 10  9  2  0
 10 11  1  0
 11 12  2  0
 12  7  1  0
 12  4  1  0
 13 14  2  0
 16 15  1  0
 16 17  2  0
 18 16  1  0
 19 18  1  0
 20 19  1  6
 20 22  1  0
 21 20  1  0
 21 13  1  0
 22 23  2  0
 24 22  1  0
 24 28  1  0
 25 26  1  0
 25 24  1  0
 26 27  1  0
 27 28  1  0
 28 29  1  6
 29 30  2  0
 29 31  1  0
M  END
$$$$
