WQP.pdb
     RDKit          3D

 31 33  0  0  1  0  0  0  0  0999 V2000
   24.8376  -21.9165  -12.0566 N   0  0  0  0  0  0  0  0  0  0  0  0
   25.1275  -20.7267  -11.3343 C   0  0  1  0  0  0  0  0  0  0  0  0
   23.9561  -20.0296  -10.7193 C   0  0  0  0  0  0  0  0  0  0  0  0
   22.7555  -19.9850  -11.5920 C   0  0  0  0  0  0  0  0  0  0  0  0
   22.5650  -19.1546  -12.6994 C   0  0  0  0  0  0  0  0  0  0  0  0
   21.3648  -19.4160  -13.2391 N   0  0  0  0  0  0  0  0  0  0  0  0
   20.7320  -20.3941  -12.5382 C   0  0  0  0  0  0  0  0  0  0  0  0
   19.4979  -20.9910  -12.6996 C   0  0  0  0  0  0  0  0  0  0  0  0
   19.0844  -21.9731  -11.8298 C   0  0  0  0  0  0  0  0  0  0  0  0
   19.9285  -22.3398  -10.8043 C   0  0  0  0  0  0  0  0  0  0  0  0
   21.1707  -21.7239  -10.6596 C   0  0  0  0  0  0  0  0  0  0  0  0
   21.6027  -20.7373  -11.5224 C   0  0  0  0  0  0  0  0  0  0  0  0
   26.1082  -20.9935  -10.2510 C   0  0  0  0  0  0  0  0  0  0  0  0
   25.7207  -21.6299   -9.2423 O   0  0  0  0  0  0  0  0  0  0  0  0
   31.3704  -22.6248  -10.1429 N   0  0  0  0  0  0  0  0  0  0  0  0
   31.6758  -21.9230   -8.9602 C   0  0  0  0  0  0  0  0  0  0  0  0
   32.6020  -22.2169   -8.1717 O   0  0  0  0  0  0  0  0  0  0  0  0
   30.8213  -20.7453   -8.6392 C   0  0  0  0  0  0  0  0  0  0  0  0
   29.7901  -20.5230   -9.7282 C   0  0  0  0  0  0  0  0  0  0  0  0
   28.4041  -20.7947   -9.2065 C   0  0  2  0  0  0  0  0  0  0  0  0
   27.4627  -20.5694  -10.2903 N   0  0  0  0  0  0  0  0  0  0  0  0
   28.0113  -19.9681   -8.0615 C   0  0  0  0  0  0  0  0  0  0  0  0
   27.3480  -18.8875   -8.2608 O   0  0  0  0  0  0  0  0  0  0  0  0
   28.3252  -20.3023   -6.7399 N   0  0  0  0  0  0  0  0  0  0  0  0
   28.9671  -21.5109   -6.2479 C   0  0  0  0  0  0  0  0  0  0  0  0
   28.1785  -21.7493   -4.9855 C   0  0  0  0  0  0  0  0  0  0  0  0
   28.0576  -20.3834   -4.3783 C   0  0  0  0  0  0  0  0  0  0  0  0
   28.0396  -19.4636   -5.5719 C   0  0  1  0  0  0  0  0  0  0  0  0
   29.0931  -18.4473   -5.3478 C   0  0  0  0  0  0  0  0  0  0  0  0
   28.8275  -17.5250   -4.5355 O   0  0  0  0  0  0  0  0  0  0  0  0
   30.3285  -18.4302   -5.9536 O   0  0  0  0  0  0  0  0  0  0  0  0
  2 13  1  0
  2  1  1  1
  3  2  1  0
  4  3  1  0
  4  5  2  0
  6  5  1  0
  7  6  1  0
  8  7  2  0
  9  8  1  0
 10  9  2  0
 10 11  1  0
 11 12  2  0
 12  7  1  0
 12  4  1  0
 13 14  2  0
 16 15  1  0
 16 17  2  0
 18 16  1  0
 19 18  1  0
 20 19  1  6
 20 22  1  0
 21 20  1  0
 21 13  1  0
 22 23  2  0
 24 22  1  0
 24 28  1  0
 25 26  1  0
 25 24  1  0
 26 27  1  0
 27 28  1  0
 28 29  1  1
 29 30  2  0
 29 31  1  0
M  END
$$$$
