WQP.pdb
     RDKit          3D

 31 33  0  0  1  0  0  0  0  0999 V2000
   28.1754  -20.5012  -10.1263 N   0  0  0  0  0  0  0  0  0  0  0  0
   26.9381  -21.1886   -9.9929 C   0  0  1  0  0  0  0  0  0  0  0  0
   26.1589  -20.9034   -8.7487 C   0  0  0  0  0  0  0  0  0  0  0  0
   26.8398  -19.9745   -7.8114 C   0  0  0  0  0  0  0  0  0  0  0  0
   26.7028  -18.5845   -7.7747 C   0  0  0  0  0  0  0  0  0  0  0  0
   27.4627  -18.0976   -6.7820 N   0  0  0  0  0  0  0  0  0  0  0  0
   28.1120  -19.1064   -6.1424 C   0  0  0  0  0  0  0  0  0  0  0  0
   28.9942  -19.1063   -5.0809 C   0  0  0  0  0  0  0  0  0  0  0  0
   29.5242  -20.2893   -4.6206 C   0  0  0  0  0  0  0  0  0  0  0  0
   29.1528  -21.4613   -5.2429 C   0  0  0  0  0  0  0  0  0  0  0  0
   28.2602  -21.4386   -6.3134 C   0  0  0  0  0  0  0  0  0  0  0  0
   27.7182  -20.2619   -6.7887 C   0  0  0  0  0  0  0  0  0  0  0  0
   26.0510  -20.9064  -11.1504 C   0  0  0  0  0  0  0  0  0  0  0  0
   25.7979  -19.7098  -11.4272 O   0  0  0  0  0  0  0  0  0  0  0  0
   25.4413  -25.3584  -14.6278 N   0  0  0  0  0  0  0  0  0  0  0  0
   26.2402  -24.3585  -15.2166 C   0  0  0  0  0  0  0  0  0  0  0  0
   27.2378  -24.5729  -15.9409 O   0  0  0  0  0  0  0  0  0  0  0  0
   25.8541  -22.9451  -14.9457 C   0  0  0  0  0  0  0  0  0  0  0  0
   24.6698  -22.8884  -14.0007 C   0  0  0  0  0  0  0  0  0  0  0  0
   24.7145  -21.6316  -13.1727 C   0  0  2  0  0  0  0  0  0  0  0  0
   25.4708  -21.9146  -11.9647 N   0  0  0  0  0  0  0  0  0  0  0  0
   23.4001  -21.1051  -12.7933 C   0  0  0  0  0  0  0  0  0  0  0  0
   22.9184  -21.3831  -11.6366 O   0  0  0  0  0  0  0  0  0  0  0  0
   22.6309  -20.2999  -13.6401 N   0  0  0  0  0  0  0  0  0  0  0  0
   22.9747  -19.8030  -14.9628 C   0  0  0  0  0  0  0  0  0  0  0  0
   22.4050  -18.4091  -14.8918 C   0  0  0  0  0  0  0  0  0  0  0  0
   21.0734  -18.6023  -14.2297 C   0  0  0  0  0  0  0  0  0  0  0  0
   21.2948  -19.7861  -13.3238 C   0  0  1  0  0  0  0  0  0  0  0  0
   20.2337  -20.7710  -13.6356 C   0  0  0  0  0  0  0  0  0  0  0  0
   20.5378  -21.7009  -14.4254 O   0  0  0  0  0  0  0  0  0  0  0  0
   18.9517  -20.7493  -13.1361 O   0  0  0  0  0  0  0  0  0  0  0  0
  2 13  1  0
  2  1  1  6
  3  2  1  0
  4  3  1  0
  4  5  2  0
  6  5  1  0
  7  6  1  0
  8  7  2  0
  9  8  1  0
 10  9  2  0
 10 11  1  0
 11 12  2  0
 12  7  1  0
 12  4  1  0
 13 14  2  0
 16 15  1  0
 16 17  2  0
 18 16  1  0
 19 18  1  0
 20 19  1  1
 20 22  1  0
 21 20  1  0
 21 13  1  0
 22 23  2  0
 24 22  1  0
 24 28  1  0
 25 26  1  0
 25 24  1  0
 26 27  1  0
 27 28  1  0
 28 29  1  6
 29 30  2  0
 29 31  1  0
M  END
$$$$
