WQP.pdb
     RDKit          3D

 31 33  0  0  1  0  0  0  0  0999 V2000
   28.1291  -20.5378   -9.9841 N   0  0  0  0  0  0  0  0  0  0  0  0
   26.8224  -21.0603   -9.7822 C   0  0  1  0  0  0  0  0  0  0  0  0
   26.0764  -20.5262   -8.6014 C   0  0  0  0  0  0  0  0  0  0  0  0
   26.9072  -19.7035   -7.6860 C   0  0  0  0  0  0  0  0  0  0  0  0
   27.1068  -18.3226   -7.7618 C   0  0  0  0  0  0  0  0  0  0  0  0
   27.9048  -17.9414   -6.7530 N   0  0  0  0  0  0  0  0  0  0  0  0
   28.2556  -19.0134   -5.9939 C   0  0  0  0  0  0  0  0  0  0  0  0
   29.0512  -19.1259   -4.8717 C   0  0  0  0  0  0  0  0  0  0  0  0
   29.2545  -20.3544   -4.2871 C   0  0  0  0  0  0  0  0  0  0  0  0
   28.6476  -21.4569   -4.8479 C   0  0  0  0  0  0  0  0  0  0  0  0
   27.8479  -21.3207   -5.9816 C   0  0  0  0  0  0  0  0  0  0  0  0
   27.6321  -20.0968   -6.5816 C   0  0  0  0  0  0  0  0  0  0  0  0
   25.9756  -20.8404  -10.9827 C   0  0  0  0  0  0  0  0  0  0  0  0
   25.8396  -19.6683  -11.4072 O   0  0  0  0  0  0  0  0  0  0  0  0
   25.3384  -21.5135  -15.7791 N   0  0  0  0  0  0  0  0  0  0  0  0
   26.3146  -22.4208  -15.3225 C   0  0  0  0  0  0  0  0  0  0  0  0
   27.4537  -22.5586  -15.8218 O   0  0  0  0  0  0  0  0  0  0  0  0
   25.9460  -23.2728  -14.1570 C   0  0  0  0  0  0  0  0  0  0  0  0
   24.5428  -22.9485  -13.6830 C   0  0  0  0  0  0  0  0  0  0  0  0
   24.5355  -21.6677  -12.8915 C   0  0  2  0  0  0  0  0  0  0  0  0
   25.3091  -21.8822  -11.6803 N   0  0  0  0  0  0  0  0  0  0  0  0
   23.2008  -21.1890  -12.5197 C   0  0  0  0  0  0  0  0  0  0  0  0
   22.7269  -21.4760  -11.3620 O   0  0  0  0  0  0  0  0  0  0  0  0
   22.4037  -20.4208  -13.3749 N   0  0  0  0  0  0  0  0  0  0  0  0
   22.6732  -20.0398  -14.7522 C   0  0  0  0  0  0  0  0  0  0  0  0
   22.1579  -18.6232  -14.7537 C   0  0  0  0  0  0  0  0  0  0  0  0
   20.8687  -18.7128  -13.9928 C   0  0  0  0  0  0  0  0  0  0  0  0
   21.1107  -19.8322  -13.0132 C   0  0  1  0  0  0  0  0  0  0  0  0
   19.9976  -20.7952  -13.1767 C   0  0  0  0  0  0  0  0  0  0  0  0
   20.2032  -21.7753  -13.9371 O   0  0  0  0  0  0  0  0  0  0  0  0
   18.7661  -20.7035  -12.5699 O   0  0  0  0  0  0  0  0  0  0  0  0
  2 13  1  0
  2  1  1  6
  3  2  1  0
  4  3  1  0
  4  5  2  0
  6  5  1  0
  7  6  1  0
  8  7  2  0
  9  8  1  0
 10  9  2  0
 10 11  1  0
 11 12  2  0
 12  7  1  0
 12  4  1  0
 13 14  2  0
 16 15  1  0
 16 17  2  0
 18 16  1  0
 19 18  1  0
 20 19  1  1
 20 22  1  0
 21 20  1  0
 21 13  1  0
 22 23  2  0
 24 22  1  0
 24 28  1  0
 25 26  1  0
 25 24  1  0
 26 27  1  0
 27 28  1  0
 28 29  1  6
 29 30  2  0
 29 31  1  0
M  END
$$$$
