WQP.pdb
     RDKit          3D

 31 33  0  0  1  0  0  0  0  0999 V2000
   27.9639  -21.8625  -10.5225 N   0  0  0  0  0  0  0  0  0  0  0  0
   26.8230  -21.2132   -9.9767 C   0  0  1  0  0  0  0  0  0  0  0  0
   27.0887  -19.9709   -9.1877 C   0  0  0  0  0  0  0  0  0  0  0  0
   28.1639  -20.1197   -8.1743 C   0  0  0  0  0  0  0  0  0  0  0  0
   29.4198  -20.6981   -8.3755 C   0  0  0  0  0  0  0  0  0  0  0  0
   30.1175  -20.6344   -7.2314 N   0  0  0  0  0  0  0  0  0  0  0  0
   29.3813  -20.0338   -6.2590 C   0  0  0  0  0  0  0  0  0  0  0  0
   29.6592  -19.7490   -4.9374 C   0  0  0  0  0  0  0  0  0  0  0  0
   28.7180  -19.1273   -4.1501 C   0  0  0  0  0  0  0  0  0  0  0  0
   27.5034  -18.8007   -4.7128 C   0  0  0  0  0  0  0  0  0  0  0  0
   27.2436  -19.0975   -6.0498 C   0  0  0  0  0  0  0  0  0  0  0  0
   28.1753  -19.7204   -6.8550 C   0  0  0  0  0  0  0  0  0  0  0  0
   25.8530  -20.8644  -11.0463 C   0  0  0  0  0  0  0  0  0  0  0  0
   25.8368  -19.6849  -11.4719 O   0  0  0  0  0  0  0  0  0  0  0  0
   24.2171  -25.0599  -15.1056 N   0  0  0  0  0  0  0  0  0  0  0  0
   25.3836  -24.2817  -15.2417 C   0  0  0  0  0  0  0  0  0  0  0  0
   26.3687  -24.5856  -15.9509 O   0  0  0  0  0  0  0  0  0  0  0  0
   25.4310  -23.0043  -14.4761 C   0  0  0  0  0  0  0  0  0  0  0  0
   24.1831  -22.8439  -13.6300 C   0  0  0  0  0  0  0  0  0  0  0  0
   24.2290  -21.5501  -12.8612 C   0  0  2  0  0  0  0  0  0  0  0  0
   24.9405  -21.7903  -11.6172 N   0  0  0  0  0  0  0  0  0  0  0  0
   22.9150  -20.9797  -12.5500 C   0  0  0  0  0  0  0  0  0  0  0  0
   22.3709  -21.2298  -11.4148 O   0  0  0  0  0  0  0  0  0  0  0  0
   22.2120  -20.1610  -13.4402 N   0  0  0  0  0  0  0  0  0  0  0  0
   22.6064  -19.7400  -14.7751 C   0  0  0  0  0  0  0  0  0  0  0  0
   22.1272  -18.3108  -14.7677 C   0  0  0  0  0  0  0  0  0  0  0  0
   20.7764  -18.3918  -14.1215 C   0  0  0  0  0  0  0  0  0  0  0  0
   20.9075  -19.5505  -13.1669 C   0  0  1  0  0  0  0  0  0  0  0  0
   19.7895  -20.4769  -13.4585 C   0  0  0  0  0  0  0  0  0  0  0  0
   20.0472  -21.4618  -14.1963 O   0  0  0  0  0  0  0  0  0  0  0  0
   18.5014  -20.3464  -12.9923 O   0  0  0  0  0  0  0  0  0  0  0  0
  2 13  1  0
  2  1  1  6
  3  2  1  0
  4  3  1  0
  4  5  2  0
  6  5  1  0
  7  6  1  0
  8  7  2  0
  9  8  1  0
 10  9  2  0
 10 11  1  0
 11 12  2  0
 12  7  1  0
 12  4  1  0
 13 14  2  0
 16 15  1  0
 16 17  2  0
 18 16  1  0
 19 18  1  0
 20 19  1  1
 20 22  1  0
 21 20  1  0
 21 13  1  0
 22 23  2  0
 24 22  1  0
 24 28  1  0
 25 26  1  0
 25 24  1  0
 26 27  1  0
 27 28  1  0
 28 29  1  6
 29 30  2  0
 29 31  1  0
M  END
$$$$
