WQP.pdb
     RDKit          3D

 31 33  0  0  1  0  0  0  0  0999 V2000
   26.5034  -23.1880  -12.5613 N   0  0  0  0  0  0  0  0  0  0  0  0
   25.9609  -22.0132  -11.9724 C   0  0  1  0  0  0  0  0  0  0  0  0
   26.8414  -20.8045  -11.9860 C   0  0  0  0  0  0  0  0  0  0  0  0
   27.8800  -20.8041  -10.9247 C   0  0  0  0  0  0  0  0  0  0  0  0
   29.2195  -21.1724  -11.0742 C   0  0  0  0  0  0  0  0  0  0  0  0
   29.8463  -21.0247   -9.8972 N   0  0  0  0  0  0  0  0  0  0  0  0
   28.9811  -20.5697   -8.9523 C   0  0  0  0  0  0  0  0  0  0  0  0
   29.1507  -20.2739   -7.6149 C   0  0  0  0  0  0  0  0  0  0  0  0
   28.0883  -19.8262   -6.8644 C   0  0  0  0  0  0  0  0  0  0  0  0
   26.8638  -19.6831   -7.4796 C   0  0  0  0  0  0  0  0  0  0  0  0
   26.7147  -19.9875   -8.8318 C   0  0  0  0  0  0  0  0  0  0  0  0
   27.7686  -20.4374   -9.6007 C   0  0  0  0  0  0  0  0  0  0  0  0
   24.6795  -21.6401  -12.6248 C   0  0  0  0  0  0  0  0  0  0  0  0
   24.5012  -21.9767  -13.8195 O   0  0  0  0  0  0  0  0  0  0  0  0
   19.9311  -22.3706  -10.2980 N   0  0  0  0  0  0  0  0  0  0  0  0
   19.2036  -21.5306  -11.1640 C   0  0  0  0  0  0  0  0  0  0  0  0
   17.9981  -21.6820  -11.4634 O   0  0  0  0  0  0  0  0  0  0  0  0
   19.9407  -20.3808  -11.7595 C   0  0  0  0  0  0  0  0  0  0  0  0
   21.3947  -20.4005  -11.3302 C   0  0  0  0  0  0  0  0  0  0  0  0
   22.2712  -20.8835  -12.4552 C   0  0  2  0  0  0  0  0  0  0  0  0
   23.6416  -20.9228  -11.9736 N   0  0  0  0  0  0  0  0  0  0  0  0
   22.2202  -20.0572  -13.6649 C   0  0  0  0  0  0  0  0  0  0  0  0
   22.8876  -18.9619  -13.7099 O   0  0  0  0  0  0  0  0  0  0  0  0
   21.4708  -20.4073  -14.7930 N   0  0  0  0  0  0  0  0  0  0  0  0
   20.6492  -21.5903  -14.9932 C   0  0  0  0  0  0  0  0  0  0  0  0
   20.9627  -21.9049  -16.4338 C   0  0  0  0  0  0  0  0  0  0  0  0
   20.9355  -20.5640  -17.1048 C   0  0  0  0  0  0  0  0  0  0  0  0
   21.3894  -19.6162  -16.0246 C   0  0  1  0  0  0  0  0  0  0  0  0
   20.3672  -18.5487  -15.9316 C   0  0  0  0  0  0  0  0  0  0  0  0
   20.2671  -17.7724  -16.9156 O   0  0  0  0  0  0  0  0  0  0  0  0
   19.5265  -18.3386  -14.8627 O   0  0  0  0  0  0  0  0  0  0  0  0
  2 13  1  0
  2  1  1  6
  3  2  1  0
  4  3  1  0
  4  5  2  0
  6  5  1  0
  7  6  1  0
  8  7  2  0
  9  8  1  0
 10  9  2  0
 10 11  1  0
 11 12  2  0
 12  7  1  0
 12  4  1  0
 13 14  2  0
 16 15  1  0
 16 17  2  0
 18 16  1  0
 19 18  1  0
 20 19  1  1
 20 22  1  0
 21 20  1  0
 21 13  1  0
 22 23  2  0
 24 22  1  0
 24 28  1  0
 25 26  1  0
 25 24  1  0
 26 27  1  0
 27 28  1  0
 28 29  1  1
 29 30  2  0
 29 31  1  0
M  END
$$$$
