WQP.pdb
     RDKit          3D

 31 33  0  0  1  0  0  0  0  0999 V2000
   20.2917  -20.9890  -17.0984 N   0  0  0  0  0  0  0  0  0  0  0  0
   20.6909  -20.0022  -16.1559 C   0  0  1  0  0  0  0  0  0  0  0  0
   19.7998  -19.8301  -14.9674 C   0  0  0  0  0  0  0  0  0  0  0  0
   18.5154  -19.1495  -15.2712 C   0  0  0  0  0  0  0  0  0  0  0  0
   17.2425  -19.7245  -15.2341 C   0  0  0  0  0  0  0  0  0  0  0  0
   16.3332  -18.7915  -15.5545 N   0  0  0  0  0  0  0  0  0  0  0  0
   16.9420  -17.6027  -15.8087 C   0  0  0  0  0  0  0  0  0  0  0  0
   16.4392  -16.3709  -16.1763 C   0  0  0  0  0  0  0  0  0  0  0  0
   17.2892  -15.3093  -16.3825 C   0  0  0  0  0  0  0  0  0  0  0  0
   18.6420  -15.5089  -16.2133 C   0  0  0  0  0  0  0  0  0  0  0  0
   19.1285  -16.7613  -15.8416 C   0  0  0  0  0  0  0  0  0  0  0  0
   18.2913  -17.8377  -15.6300 C   0  0  0  0  0  0  0  0  0  0  0  0
   22.0604  -20.2788  -15.6515 C   0  0  0  0  0  0  0  0  0  0  0  0
   22.3490  -21.4563  -15.3311 O   0  0  0  0  0  0  0  0  0  0  0  0
   26.9370  -16.3512  -15.7806 N   0  0  0  0  0  0  0  0  0  0  0  0
   27.5640  -17.4614  -15.1815 C   0  0  0  0  0  0  0  0  0  0  0  0
   28.7741  -17.5181  -14.8683 O   0  0  0  0  0  0  0  0  0  0  0  0
   26.7068  -18.6491  -14.9077 C   0  0  0  0  0  0  0  0  0  0  0  0
   25.2745  -18.3798  -15.3258 C   0  0  0  0  0  0  0  0  0  0  0  0
   24.3994  -19.5624  -15.0052 C   0  0  2  0  0  0  0  0  0  0  0  0
   23.0653  -19.2856  -15.5102 N   0  0  0  0  0  0  0  0  0  0  0  0
   24.3061  -19.8820  -13.5777 C   0  0  0  0  0  0  0  0  0  0  0  0
   23.3504  -19.3843  -12.8804 O   0  0  0  0  0  0  0  0  0  0  0  0
   25.2190  -20.7171  -12.9248 N   0  0  0  0  0  0  0  0  0  0  0  0
   26.3442  -21.4385  -13.4977 C   0  0  0  0  0  0  0  0  0  0  0  0
   26.2561  -22.7376  -12.7380 C   0  0  0  0  0  0  0  0  0  0  0  0
   25.9792  -22.3073  -11.3284 C   0  0  0  0  0  0  0  0  0  0  0  0
   25.1922  -21.0327  -11.4934 C   0  0  1  0  0  0  0  0  0  0  0  0
   25.8754  -19.9974  -10.6843 C   0  0  0  0  0  0  0  0  0  0  0  0
   26.6762  -19.2411  -11.2907 O   0  0  0  0  0  0  0  0  0  0  0  0
   25.7069  -19.7994   -9.3331 O   0  0  0  0  0  0  0  0  0  0  0  0
  2 13  1  0
  2  1  1  6
  3  2  1  0
  4  3  1  0
  4  5  2  0
  6  5  1  0
  7  6  1  0
  8  7  2  0
  9  8  1  0
 10  9  2  0
 10 11  1  0
 11 12  2  0
 12  7  1  0
 12  4  1  0
 13 14  2  0
 16 15  1  0
 16 17  2  0
 18 16  1  0
 19 18  1  0
 20 19  1  1
 20 22  1  0
 21 20  1  0
 21 13  1  0
 22 23  2  0
 24 22  1  0
 24 28  1  0
 25 26  1  0
 25 24  1  0
 26 27  1  0
 27 28  1  0
 28 29  1  1
 29 30  2  0
 29 31  1  0
M  END
$$$$
