WQP.pdb
     RDKit          3D

 31 33  0  0  1  0  0  0  0  0999 V2000
   23.8438  -18.1311  -15.0005 N   0  0  0  0  0  0  0  0  0  0  0  0
   25.1271  -18.4094  -14.4553 C   0  0  1  0  0  0  0  0  0  0  0  0
   25.9963  -17.2235  -14.1825 C   0  0  0  0  0  0  0  0  0  0  0  0
   26.5727  -16.6057  -15.4036 C   0  0  0  0  0  0  0  0  0  0  0  0
   26.2925  -15.3297  -15.8994 C   0  0  0  0  0  0  0  0  0  0  0  0
   27.0171  -15.1247  -17.0098 N   0  0  0  0  0  0  0  0  0  0  0  0
   27.7796  -16.2155  -17.2874 C   0  0  0  0  0  0  0  0  0  0  0  0
   28.6699  -16.4809  -18.3082 C   0  0  0  0  0  0  0  0  0  0  0  0
   29.3198  -17.6920  -18.3632 C   0  0  0  0  0  0  0  0  0  0  0  0
   29.0594  -18.6220  -17.3806 C   0  0  0  0  0  0  0  0  0  0  0  0
   28.1565  -18.3333  -16.3584 C   0  0  0  0  0  0  0  0  0  0  0  0
   27.4955  -17.1241  -16.2866 C   0  0  0  0  0  0  0  0  0  0  0  0
   25.0065  -19.1761  -13.1887 C   0  0  0  0  0  0  0  0  0  0  0  0
   24.2039  -18.7630  -12.3183 O   0  0  0  0  0  0  0  0  0  0  0  0
   25.9650  -23.6849  -14.2555 N   0  0  0  0  0  0  0  0  0  0  0  0
   24.6116  -23.5095  -13.9060 C   0  0  0  0  0  0  0  0  0  0  0  0
   23.6387  -23.8491  -14.6159 O   0  0  0  0  0  0  0  0  0  0  0  0
   24.3362  -22.8696  -12.5889 C   0  0  0  0  0  0  0  0  0  0  0  0
   25.6329  -22.5174  -11.8865 C   0  0  0  0  0  0  0  0  0  0  0  0
   25.7057  -21.0367  -11.6232 C   0  0  2  0  0  0  0  0  0  0  0  0
   25.7486  -20.3528  -12.9045 N   0  0  0  0  0  0  0  0  0  0  0  0
   26.8613  -20.6160  -10.8254 C   0  0  0  0  0  0  0  0  0  0  0  0
   27.8896  -20.1233  -11.4146 O   0  0  0  0  0  0  0  0  0  0  0  0
   26.9017  -20.7234   -9.4313 N   0  0  0  0  0  0  0  0  0  0  0  0
   25.8663  -21.2195   -8.5388 C   0  0  0  0  0  0  0  0  0  0  0  0
   26.0015  -20.2506   -7.3919 C   0  0  0  0  0  0  0  0  0  0  0  0
   27.4841  -20.1260   -7.2043 C   0  0  0  0  0  0  0  0  0  0  0  0
   28.0366  -20.3274   -8.5919 C   0  0  1  0  0  0  0  0  0  0  0  0
   29.0566  -21.3969   -8.4978 C   0  0  0  0  0  0  0  0  0  0  0  0
   28.7611  -22.5084   -9.0060 O   0  0  0  0  0  0  0  0  0  0  0  0
   30.2909  -21.2736   -7.9022 O   0  0  0  0  0  0  0  0  0  0  0  0
  2 13  1  0
  2  1  1  1
  3  2  1  0
  4  3  1  0
  4  5  2  0
  6  5  1  0
  7  6  1  0
  8  7  2  0
  9  8  1  0
 10  9  2  0
 10 11  1  0
 11 12  2  0
 12  7  1  0
 12  4  1  0
 13 14  2  0
 16 15  1  0
 16 17  2  0
 18 16  1  0
 19 18  1  0
 20 19  1  6
 20 22  1  0
 21 20  1  0
 21 13  1  0
 22 23  2  0
 24 22  1  0
 24 28  1  0
 25 26  1  0
 25 24  1  0
 26 27  1  0
 27 28  1  0
 28 29  1  1
 29 30  2  0
 29 31  1  0
M  END
$$$$
