WQP.pdb
     RDKit          3D

 31 33  0  0  1  0  0  0  0  0999 V2000
   24.3830  -19.5071   -9.7420 N   0  0  0  0  0  0  0  0  0  0  0  0
   25.7118  -19.9144  -10.0412 C   0  0  1  0  0  0  0  0  0  0  0  0
   26.2070  -21.1250   -9.3162 C   0  0  0  0  0  0  0  0  0  0  0  0
   26.3827  -20.9224   -7.8557 C   0  0  0  0  0  0  0  0  0  0  0  0
   25.3793  -20.9709   -6.8845 C   0  0  0  0  0  0  0  0  0  0  0  0
   25.9280  -20.7541   -5.6796 N   0  0  0  0  0  0  0  0  0  0  0  0
   27.2685  -20.5594   -5.7963 C   0  0  0  0  0  0  0  0  0  0  0  0
   28.2463  -20.3000   -4.8573 C   0  0  0  0  0  0  0  0  0  0  0  0
   29.5549  -20.1344   -5.2477 C   0  0  0  0  0  0  0  0  0  0  0  0
   29.8579  -20.2339   -6.5881 C   0  0  0  0  0  0  0  0  0  0  0  0
   28.8547  -20.4966   -7.5197 C   0  0  0  0  0  0  0  0  0  0  0  0
   27.5368  -20.6660   -7.1471 C   0  0  0  0  0  0  0  0  0  0  0  0
   25.8700  -20.1688  -11.4962 C   0  0  0  0  0  0  0  0  0  0  0  0
   24.8404  -20.3964  -12.1748 O   0  0  0  0  0  0  0  0  0  0  0  0
   28.4303  -17.2878  -14.9289 N   0  0  0  0  0  0  0  0  0  0  0  0
   28.5509  -18.3044  -15.8967 C   0  0  0  0  0  0  0  0  0  0  0  0
   28.3605  -18.1513  -17.1239 O   0  0  0  0  0  0  0  0  0  0  0  0
   28.9341  -19.6575  -15.4043 C   0  0  0  0  0  0  0  0  0  0  0  0
   28.7140  -19.7617  -13.9078 C   0  0  0  0  0  0  0  0  0  0  0  0
   27.2609  -20.0132  -13.6039 C   0  0  2  0  0  0  0  0  0  0  0  0
   27.1220  -20.1695  -12.1660 N   0  0  0  0  0  0  0  0  0  0  0  0
   26.6964  -21.1945  -14.2632 C   0  0  0  0  0  0  0  0  0  0  0  0
   26.9448  -22.3611  -13.7895 O   0  0  0  0  0  0  0  0  0  0  0  0
   25.8852  -21.1151  -15.4001 N   0  0  0  0  0  0  0  0  0  0  0  0
   25.4721  -19.9251  -16.1267 C   0  0  0  0  0  0  0  0  0  0  0  0
   24.0439  -20.2810  -16.4523 C   0  0  0  0  0  0  0  0  0  0  0  0
   24.1237  -21.7160  -16.8804 C   0  0  0  0  0  0  0  0  0  0  0  0
   25.2758  -22.2634  -16.0777 C   0  0  1  0  0  0  0  0  0  0  0  0
   26.2065  -22.8983  -17.0388 C   0  0  0  0  0  0  0  0  0  0  0  0
   27.2863  -22.2951  -17.2650 O   0  0  0  0  0  0  0  0  0  0  0  0
   25.9856  -24.0846  -17.7001 O   0  0  0  0  0  0  0  0  0  0  0  0
  2 13  1  0
  2  1  1  6
  3  2  1  0
  4  3  1  0
  4  5  2  0
  6  5  1  0
  7  6  1  0
  8  7  2  0
  9  8  1  0
 10  9  2  0
 10 11  1  0
 11 12  2  0
 12  7  1  0
 12  4  1  0
 13 14  2  0
 16 15  1  0
 16 17  2  0
 18 16  1  0
 19 18  1  0
 20 19  1  1
 20 22  1  0
 21 20  1  0
 21 13  1  0
 22 23  2  0
 24 22  1  0
 24 28  1  0
 25 26  1  0
 25 24  1  0
 26 27  1  0
 27 28  1  0
 28 29  1  6
 29 30  2  0
 29 31  1  0
M  END
$$$$
