GHR.pdb
     RDKit          3D

 26 26  0  0  1  0  0  0  0  0999 V2000
   28.5755  -21.5519  -15.9060 N   0  0  0  0  0  0  0  0  0  0  0  0
   27.6675  -21.0295  -16.9030 C   0  0  0  0  0  0  0  0  0  0  0  0
   26.6957  -20.1420  -16.2140 C   0  0  0  0  0  0  0  0  0  0  0  0
   26.7250  -19.9956  -14.9477 O   0  0  0  0  0  0  0  0  0  0  0  0
   25.6930  -19.4157  -16.9138 N   0  0  0  0  0  0  0  0  0  0  0  0
   24.7783  -18.5279  -16.1806 C   0  0  1  0  0  0  0  0  0  0  0  0
   24.7639  -17.1590  -16.8107 C   0  0  0  0  0  0  0  0  0  0  0  0
   26.0359  -16.4724  -16.5244 C   0  0  0  0  0  0  0  0  0  0  0  0
   26.3112  -15.8079  -15.3451 C   0  0  0  0  0  0  0  0  0  0  0  0
   27.5315  -15.2931  -15.3830 N   0  0  0  0  0  0  0  0  0  0  0  0
   28.0570  -15.6139  -16.5748 C   0  0  0  0  0  0  0  0  0  0  0  0
   27.1470  -16.3299  -17.2660 N   0  0  0  0  0  0  0  0  0  0  0  0
   23.4604  -19.2024  -16.1929 C   0  0  0  0  0  0  0  0  0  0  0  0
   23.0866  -19.7569  -17.2593 O   0  0  0  0  0  0  0  0  0  0  0  0
   17.4138  -23.1528  -12.5850 N   0  0  0  0  0  0  0  0  0  0  0  0
   18.5748  -23.9092  -12.2535 C   0  0  0  0  0  0  0  0  0  0  0  0
   18.5392  -25.1774  -12.2481 N   0  0  0  0  0  0  0  0  0  0  0  0
   19.7797  -23.2378  -11.9273 N   0  0  0  0  0  0  0  0  0  0  0  0
   19.8784  -21.8003  -11.9249 C   0  0  0  0  0  0  0  0  0  0  0  0
   19.9750  -21.2640  -13.3340 C   0  0  0  0  0  0  0  0  0  0  0  0
   21.2013  -20.4504  -13.5783 C   0  0  0  0  0  0  0  0  0  0  0  0
   21.3612  -20.0175  -15.0280 C   0  0  2  0  0  0  0  0  0  0  0  0
   22.5980  -19.2637  -15.0873 N   0  0  0  0  0  0  0  0  0  0  0  0
   20.2101  -19.2664  -15.5274 C   0  0  0  0  0  0  0  0  0  0  0  0
   19.1500  -19.8588  -16.1553 O   0  0  0  0  0  0  0  0  0  0  0  0
   20.1783  -18.0163  -15.3809 O   0  0  0  0  0  0  0  0  0  0  0  0
  2  1  1  0
  3  2  1  0
  3  4  2  0
  5  3  1  0
  6  5  1  0
  6  7  1  6
  8  7  1  0
  8  9  2  0
 10  9  1  0
 11 10  1  0
 12 11  2  0
 12  8  1  0
 13  6  1  0
 14 13  2  0
 16 15  1  0
 17 16  2  0
 18 16  1  0
 19 20  1  0
 19 18  1  0
 20 21  1  0
 22 23  1  0
 22 21  1  1
 23 13  1  0
 24 22  1  0
 25 24  1  0
 26 24  2  0
M  END
$$$$
