GHR.pdb
     RDKit          3D

 26 26  0  0  1  0  0  0  0  0999 V2000
   28.6547  -28.6113  -16.5986 N   0  0  0  0  0  0  0  0  0  0  0  0
   27.6063  -27.8111  -17.1920 C   0  0  0  0  0  0  0  0  0  0  0  0
   27.8796  -26.3878  -16.8663 C   0  0  0  0  0  0  0  0  0  0  0  0
   28.8132  -26.0675  -16.0591 O   0  0  0  0  0  0  0  0  0  0  0  0
   27.1293  -25.3169  -17.4258 N   0  0  0  0  0  0  0  0  0  0  0  0
   27.4576  -23.9261  -17.0789 C   0  0  1  0  0  0  0  0  0  0  0  0
   27.7145  -23.1239  -18.3286 C   0  0  0  0  0  0  0  0  0  0  0  0
   26.4603  -22.9832  -19.0892 C   0  0  0  0  0  0  0  0  0  0  0  0
   25.2373  -23.4665  -18.6660 C   0  0  0  0  0  0  0  0  0  0  0  0
   24.3001  -23.1881  -19.5602 N   0  0  0  0  0  0  0  0  0  0  0  0
   24.8973  -22.5280  -20.5637 C   0  0  0  0  0  0  0  0  0  0  0  0
   26.2089  -22.4048  -20.2753 N   0  0  0  0  0  0  0  0  0  0  0  0
   26.3180  -23.4278  -16.2757 C   0  0  0  0  0  0  0  0  0  0  0  0
   25.1764  -23.9067  -16.5031 O   0  0  0  0  0  0  0  0  0  0  0  0
   23.3227  -19.9495   -9.3877 N   0  0  0  0  0  0  0  0  0  0  0  0
   24.4546  -20.6964   -8.9509 C   0  0  0  0  0  0  0  0  0  0  0  0
   24.4697  -21.2328   -7.8013 N   0  0  0  0  0  0  0  0  0  0  0  0
   25.5731  -20.8412   -9.8094 N   0  0  0  0  0  0  0  0  0  0  0  0
   25.6851  -20.1161  -11.0495 C   0  0  0  0  0  0  0  0  0  0  0  0
   25.0434  -20.8825  -12.1822 C   0  0  0  0  0  0  0  0  0  0  0  0
   26.0099  -21.3071  -13.2363 C   0  0  0  0  0  0  0  0  0  0  0  0
   25.3493  -21.9970  -14.4204 C   0  0  2  0  0  0  0  0  0  0  0  0
   26.4297  -22.4520  -15.2732 N   0  0  0  0  0  0  0  0  0  0  0  0
   24.3938  -21.1378  -15.1185 C   0  0  0  0  0  0  0  0  0  0  0  0
   24.7421  -20.3390  -16.1719 O   0  0  0  0  0  0  0  0  0  0  0  0
   23.1916  -21.1206  -14.7445 O   0  0  0  0  0  0  0  0  0  0  0  0
  2  1  1  0
  3  2  1  0
  3  4  2  0
  5  3  1  0
  6  5  1  0
  6  7  1  6
  8  7  1  0
  8  9  2  0
 10  9  1  0
 11 10  1  0
 12 11  2  0
 12  8  1  0
 13  6  1  0
 14 13  2  0
 16 15  1  0
 17 16  2  0
 18 16  1  0
 19 20  1  0
 19 18  1  0
 20 21  1  0
 22 23  1  0
 22 21  1  1
 23 13  1  0
 24 22  1  0
 25 24  1  0
 26 24  2  0
M  END
$$$$
