GHR.pdb
     RDKit          3D

 26 26  0  0  1  0  0  0  0  0999 V2000
   24.3187  -19.2928  -21.0400 N   0  0  0  0  0  0  0  0  0  0  0  0
   25.1119  -18.8548  -19.9129 C   0  0  0  0  0  0  0  0  0  0  0  0
   24.9599  -19.8606  -18.8302 C   0  0  0  0  0  0  0  0  0  0  0  0
   25.0169  -21.1091  -19.0826 O   0  0  0  0  0  0  0  0  0  0  0  0
   24.7458  -19.4967  -17.4721 N   0  0  0  0  0  0  0  0  0  0  0  0
   24.6375  -20.5370  -16.4382 C   0  0  1  0  0  0  0  0  0  0  0  0
   25.6947  -20.3354  -15.3834 C   0  0  0  0  0  0  0  0  0  0  0  0
   25.5300  -21.3452  -14.3228 C   0  0  0  0  0  0  0  0  0  0  0  0
   25.9592  -22.6543  -14.4240 C   0  0  0  0  0  0  0  0  0  0  0  0
   25.6710  -23.3183  -13.3141 N   0  0  0  0  0  0  0  0  0  0  0  0
   25.0577  -22.4571  -12.4885 C   0  0  0  0  0  0  0  0  0  0  0  0
   24.9733  -21.2598  -13.1032 N   0  0  0  0  0  0  0  0  0  0  0  0
   23.2539  -20.4504  -15.9182 C   0  0  0  0  0  0  0  0  0  0  0  0
   22.7771  -19.3092  -15.6850 O   0  0  0  0  0  0  0  0  0  0  0  0
   18.5664  -26.1368  -11.5894 N   0  0  0  0  0  0  0  0  0  0  0  0
   17.5267  -25.3007  -12.0890 C   0  0  0  0  0  0  0  0  0  0  0  0
   16.4536  -25.1420  -11.4311 N   0  0  0  0  0  0  0  0  0  0  0  0
   17.6939  -24.6406  -13.3321 N   0  0  0  0  0  0  0  0  0  0  0  0
   18.9750  -24.5525  -13.9856 C   0  0  0  0  0  0  0  0  0  0  0  0
   19.4446  -23.1185  -14.0608 C   0  0  0  0  0  0  0  0  0  0  0  0
   20.7884  -22.9645  -14.6900 C   0  0  0  0  0  0  0  0  0  0  0  0
   21.1339  -21.5234  -15.0339 C   0  0  2  0  0  0  0  0  0  0  0  0
   22.4368  -21.5638  -15.6680 N   0  0  0  0  0  0  0  0  0  0  0  0
   21.0913  -20.6359  -13.8724 C   0  0  0  0  0  0  0  0  0  0  0  0
   19.9981  -19.8797  -13.5528 O   0  0  0  0  0  0  0  0  0  0  0  0
   22.0993  -20.5521  -13.1225 O   0  0  0  0  0  0  0  0  0  0  0  0
  2  1  1  0
  3  2  1  0
  3  4  2  0
  5  3  1  0
  6  5  1  0
  6  7  1  1
  8  7  1  0
  8  9  2  0
 10  9  1  0
 11 10  1  0
 12 11  2  0
 12  8  1  0
 13  6  1  0
 14 13  2  0
 16 15  1  0
 17 16  2  0
 18 16  1  0
 19 20  1  0
 19 18  1  0
 20 21  1  0
 22 23  1  0
 22 21  1  1
 23 13  1  0
 24 22  1  0
 25 24  1  0
 26 24  2  0
M  END
$$$$
