GHR.pdb
     RDKit          3D

 26 26  0  0  1  0  0  0  0  0999 V2000
   24.9370  -17.6202  -18.8214 N   0  0  0  0  0  0  0  0  0  0  0  0
   25.4075  -17.2193  -17.5140 C   0  0  0  0  0  0  0  0  0  0  0  0
   25.7205  -18.4510  -16.7448 C   0  0  0  0  0  0  0  0  0  0  0  0
   24.9175  -19.4415  -16.7378 O   0  0  0  0  0  0  0  0  0  0  0  0
   26.9135  -18.5958  -15.9841 N   0  0  0  0  0  0  0  0  0  0  0  0
   27.1161  -19.7901  -15.1503 C   0  0  1  0  0  0  0  0  0  0  0  0
   28.5793  -20.1468  -15.0976 C   0  0  0  0  0  0  0  0  0  0  0  0
   29.0075  -20.6627  -16.4098 C   0  0  0  0  0  0  0  0  0  0  0  0
   28.1663  -20.8199  -17.4942 C   0  0  0  0  0  0  0  0  0  0  0  0
   28.8381  -21.3025  -18.5293 N   0  0  0  0  0  0  0  0  0  0  0  0
   30.1096  -21.4626  -18.1331 C   0  0  0  0  0  0  0  0  0  0  0  0
   30.2099  -21.0735  -16.8459 N   0  0  0  0  0  0  0  0  0  0  0  0
   26.5346  -19.4659  -13.8279 C   0  0  0  0  0  0  0  0  0  0  0  0
   26.2401  -18.2662  -13.5864 O   0  0  0  0  0  0  0  0  0  0  0  0
   18.9736  -18.9585  -11.4562 N   0  0  0  0  0  0  0  0  0  0  0  0
   19.3140  -20.0941  -10.6661 C   0  0  0  0  0  0  0  0  0  0  0  0
   18.4920  -20.5622   -9.8207 N   0  0  0  0  0  0  0  0  0  0  0  0
   20.5825  -20.7057  -10.8271 N   0  0  0  0  0  0  0  0  0  0  0  0
   21.6046  -20.1379  -11.6690 C   0  0  0  0  0  0  0  0  0  0  0  0
   22.8371  -21.0114  -11.6848 C   0  0  0  0  0  0  0  0  0  0  0  0
   23.9328  -20.4793  -12.5460 C   0  0  0  0  0  0  0  0  0  0  0  0
   25.2553  -20.3178  -11.8117 C   0  0  2  0  0  0  0  0  0  0  0  0
   26.2897  -20.4142  -12.8227 N   0  0  0  0  0  0  0  0  0  0  0  0
   25.4251  -21.2839  -10.7271 C   0  0  0  0  0  0  0  0  0  0  0  0
   24.9902  -21.0552   -9.4512 O   0  0  0  0  0  0  0  0  0  0  0  0
   25.9962  -22.3812  -10.9618 O   0  0  0  0  0  0  0  0  0  0  0  0
  2  1  1  0
  3  2  1  0
  3  4  2  0
  5  3  1  0
  6  5  1  0
  6  7  1  1
  8  7  1  0
  8  9  2  0
 10  9  1  0
 11 10  1  0
 12 11  2  0
 12  8  1  0
 13  6  1  0
 14 13  2  0
 16 15  1  0
 17 16  2  0
 18 16  1  0
 19 20  1  0
 19 18  1  0
 20 21  1  0
 22 23  1  0
 22 21  1  6
 23 13  1  0
 24 22  1  0
 25 24  1  0
 26 24  2  0
M  END
$$$$
