GHR.pdb
     RDKit          3D

 26 26  0  0  1  0  0  0  0  0999 V2000
   28.0425  -13.4518  -19.6562 N   0  0  0  0  0  0  0  0  0  0  0  0
   27.1117  -13.3165  -18.5577 C   0  0  0  0  0  0  0  0  0  0  0  0
   27.2235  -11.9309  -18.0337 C   0  0  0  0  0  0  0  0  0  0  0  0
   27.4466  -11.7136  -16.7972 O   0  0  0  0  0  0  0  0  0  0  0  0
   27.0908  -10.7850  -18.8656 N   0  0  0  0  0  0  0  0  0  0  0  0
   27.1635   -9.4373  -18.2816 C   0  0  1  0  0  0  0  0  0  0  0  0
   28.0464   -8.5518  -19.1227 C   0  0  0  0  0  0  0  0  0  0  0  0
   29.4399   -9.0236  -19.0379 C   0  0  0  0  0  0  0  0  0  0  0  0
   30.0845   -9.7242  -20.0389 C   0  0  0  0  0  0  0  0  0  0  0  0
   31.3253  -10.0098  -19.6724 N   0  0  0  0  0  0  0  0  0  0  0  0
   31.4988   -9.5035  -18.4424 C   0  0  0  0  0  0  0  0  0  0  0  0
   30.3526   -8.9052  -18.0594 N   0  0  0  0  0  0  0  0  0  0  0  0
   25.7650   -8.9614  -18.1825 C   0  0  0  0  0  0  0  0  0  0  0  0
   25.0062   -9.1369  -19.1712 O   0  0  0  0  0  0  0  0  0  0  0  0
   18.7456  -11.9236  -15.3591 N   0  0  0  0  0  0  0  0  0  0  0  0
   18.3567  -10.6264  -15.8017 C   0  0  0  0  0  0  0  0  0  0  0  0
   17.1327  -10.3458  -15.9821 N   0  0  0  0  0  0  0  0  0  0  0  0
   19.3471   -9.6413  -16.0420 N   0  0  0  0  0  0  0  0  0  0  0  0
   20.7550   -9.9318  -15.9449 C   0  0  0  0  0  0  0  0  0  0  0  0
   21.5819   -8.7399  -16.3668 C   0  0  0  0  0  0  0  0  0  0  0  0
   23.0428   -9.0295  -16.4529 C   0  0  0  0  0  0  0  0  0  0  0  0
   23.8681   -7.8425  -16.9266 C   0  0  2  0  0  0  0  0  0  0  0  0
   25.2292   -8.3250  -17.0521 N   0  0  0  0  0  0  0  0  0  0  0  0
   23.7526   -6.6816  -16.0448 C   0  0  0  0  0  0  0  0  0  0  0  0
   22.6792   -5.8352  -16.0646 O   0  0  0  0  0  0  0  0  0  0  0  0
   24.6755   -6.4358  -15.2243 O   0  0  0  0  0  0  0  0  0  0  0  0
  2  1  1  0
  3  2  1  0
  3  4  2  0
  5  3  1  0
  6  5  1  0
  6  7  1  6
  8  7  1  0
  8  9  2  0
 10  9  1  0
 11 10  1  0
 12 11  2  0
 12  8  1  0
 13  6  1  0
 14 13  2  0
 16 15  1  0
 17 16  2  0
 18 16  1  0
 19 20  1  0
 19 18  1  0
 20 21  1  0
 22 23  1  0
 22 21  1  1
 23 13  1  0
 24 22  1  0
 25 24  1  0
 26 24  2  0
M  END
$$$$
