GHR.pdb
     RDKit          3D

 26 26  0  0  1  0  0  0  0  0999 V2000
   19.0230  -16.7654  -18.9653 N   0  0  0  0  0  0  0  0  0  0  0  0
   17.7248  -16.1387  -18.8505 C   0  0  0  0  0  0  0  0  0  0  0  0
   17.6903  -15.3938  -17.5657 C   0  0  0  0  0  0  0  0  0  0  0  0
   16.5841  -15.1401  -16.9845 O   0  0  0  0  0  0  0  0  0  0  0  0
   18.8683  -14.9278  -16.9194 N   0  0  0  0  0  0  0  0  0  0  0  0
   18.7691  -14.1623  -15.6676 C   0  0  1  0  0  0  0  0  0  0  0  0
   19.8966  -14.5332  -14.7391 C   0  0  0  0  0  0  0  0  0  0  0  0
   19.6033  -15.8294  -14.1024 C   0  0  0  0  0  0  0  0  0  0  0  0
   18.4025  -16.5010  -14.2261 C   0  0  0  0  0  0  0  0  0  0  0  0
   18.4390  -17.6350  -13.5418 N   0  0  0  0  0  0  0  0  0  0  0  0
   19.6509  -17.7119  -12.9718 C   0  0  0  0  0  0  0  0  0  0  0  0
   20.3559  -16.6144  -13.3137 N   0  0  0  0  0  0  0  0  0  0  0  0
   18.7686  -12.7355  -16.0629 C   0  0  0  0  0  0  0  0  0  0  0  0
   19.6616  -12.3384  -16.8560 O   0  0  0  0  0  0  0  0  0  0  0  0
   12.1865   -6.6855  -15.7378 N   0  0  0  0  0  0  0  0  0  0  0  0
   13.2549   -6.0771  -16.4577 C   0  0  0  0  0  0  0  0  0  0  0  0
   13.1154   -4.9239  -16.9678 N   0  0  0  0  0  0  0  0  0  0  0  0
   14.4843   -6.7671  -16.6042 N   0  0  0  0  0  0  0  0  0  0  0  0
   14.6818   -8.0973  -16.0868 C   0  0  0  0  0  0  0  0  0  0  0  0
   16.1013   -8.5603  -16.3171 C   0  0  0  0  0  0  0  0  0  0  0  0
   16.3307   -9.9857  -15.9415 C   0  0  0  0  0  0  0  0  0  0  0  0
   17.7950  -10.3958  -15.9892 C   0  0  2  0  0  0  0  0  0  0  0  0
   17.8324  -11.7939  -15.6082 N   0  0  0  0  0  0  0  0  0  0  0  0
   18.6490   -9.5530  -15.1532 C   0  0  0  0  0  0  0  0  0  0  0  0
   19.2394   -8.4072  -15.6089 O   0  0  0  0  0  0  0  0  0  0  0  0
   18.8609   -9.8836  -13.9569 O   0  0  0  0  0  0  0  0  0  0  0  0
  2  1  1  0
  3  2  1  0
  3  4  2  0
  5  3  1  0
  6  5  1  0
  6  7  1  1
  8  7  1  0
  8  9  2  0
 10  9  1  0
 11 10  1  0
 12 11  2  0
 12  8  1  0
 13  6  1  0
 14 13  2  0
 16 15  1  0
 17 16  2  0
 18 16  1  0
 19 20  1  0
 19 18  1  0
 20 21  1  0
 22 23  1  0
 22 21  1  1
 23 13  1  0
 24 22  1  0
 25 24  1  0
 26 24  2  0
M  END
$$$$
