GHR.pdb
     RDKit          3D

 26 26  0  0  1  0  0  0  0  0999 V2000
   25.5844  -13.1680  -20.5807 N   0  0  0  0  0  0  0  0  0  0  0  0
   24.4919  -12.2226  -20.5177 C   0  0  0  0  0  0  0  0  0  0  0  0
   24.3120  -11.8279  -19.0969 C   0  0  0  0  0  0  0  0  0  0  0  0
   23.4844  -12.4417  -18.3458 O   0  0  0  0  0  0  0  0  0  0  0  0
   25.0394  -10.7610  -18.5010 N   0  0  0  0  0  0  0  0  0  0  0  0
   24.7526  -10.3554  -17.1169 C   0  0  1  0  0  0  0  0  0  0  0  0
   26.0227   -9.9356  -16.4229 C   0  0  0  0  0  0  0  0  0  0  0  0
   26.8585  -11.1219  -16.1668 C   0  0  0  0  0  0  0  0  0  0  0  0
   26.4865  -12.4154  -16.4777 C   0  0  0  0  0  0  0  0  0  0  0  0
   27.4428  -13.2637  -16.1292 N   0  0  0  0  0  0  0  0  0  0  0  0
   28.4360  -12.5386  -15.5936 C   0  0  0  0  0  0  0  0  0  0  0  0
   28.0789  -11.2384  -15.6175 N   0  0  0  0  0  0  0  0  0  0  0  0
   23.7416   -9.2779  -17.2104 C   0  0  0  0  0  0  0  0  0  0  0  0
   23.9359   -8.3511  -18.0396 O   0  0  0  0  0  0  0  0  0  0  0  0
   14.9705   -9.3560  -16.0331 N   0  0  0  0  0  0  0  0  0  0  0  0
   15.3005   -8.0216  -16.4077 C   0  0  0  0  0  0  0  0  0  0  0  0
   14.3880   -7.1652  -16.6163 N   0  0  0  0  0  0  0  0  0  0  0  0
   16.6607   -7.6486  -16.5480 N   0  0  0  0  0  0  0  0  0  0  0  0
   17.7350   -8.5937  -16.3778 C   0  0  0  0  0  0  0  0  0  0  0  0
   19.0774   -7.9168  -16.5265 C   0  0  0  0  0  0  0  0  0  0  0  0
   20.2298   -8.8627  -16.4756 C   0  0  0  0  0  0  0  0  0  0  0  0
   21.5833   -8.1681  -16.4771 C   0  0  2  0  0  0  0  0  0  0  0  0
   22.5757   -9.2236  -16.4308 N   0  0  0  0  0  0  0  0  0  0  0  0
   21.7270   -7.2009  -15.3897 C   0  0  0  0  0  0  0  0  0  0  0  0
   21.2959   -5.9068  -15.4822 O   0  0  0  0  0  0  0  0  0  0  0  0
   22.2710   -7.5599  -14.3124 O   0  0  0  0  0  0  0  0  0  0  0  0
  2  1  1  0
  3  2  1  0
  3  4  2  0
  5  3  1  0
  6  5  1  0
  6  7  1  6
  8  7  1  0
  8  9  2  0
 10  9  1  0
 11 10  1  0
 12 11  2  0
 12  8  1  0
 13  6  1  0
 14 13  2  0
 16 15  1  0
 17 16  2  0
 18 16  1  0
 19 20  1  0
 19 18  1  0
 20 21  1  0
 22 23  1  0
 22 21  1  1
 23 13  1  0
 24 22  1  0
 25 24  1  0
 26 24  2  0
M  END
$$$$
