GHR.pdb
     RDKit          3D

 26 26  0  0  1  0  0  0  0  0999 V2000
   22.4061  -19.3890  -13.2084 N   0  0  0  0  0  0  0  0  0  0  0  0
   22.2480  -20.0426  -14.4887 C   0  0  0  0  0  0  0  0  0  0  0  0
   22.8430  -19.1620  -15.5266 C   0  0  0  0  0  0  0  0  0  0  0  0
   24.0870  -19.2196  -15.8006 O   0  0  0  0  0  0  0  0  0  0  0  0
   22.0739  -18.2193  -16.2631 N   0  0  0  0  0  0  0  0  0  0  0  0
   22.6779  -17.4959  -17.3920 C   0  0  1  0  0  0  0  0  0  0  0  0
   21.6864  -17.3683  -18.5198 C   0  0  0  0  0  0  0  0  0  0  0  0
   22.3148  -16.6610  -19.6495 C   0  0  0  0  0  0  0  0  0  0  0  0
   23.1472  -17.2608  -20.5746 C   0  0  0  0  0  0  0  0  0  0  0  0
   23.5557  -16.3716  -21.4680 N   0  0  0  0  0  0  0  0  0  0  0  0
   22.9993  -15.1969  -21.1367 C   0  0  0  0  0  0  0  0  0  0  0  0
   22.2463  -15.3751  -20.0323 N   0  0  0  0  0  0  0  0  0  0  0  0
   23.1292  -16.1955  -16.8466 C   0  0  0  0  0  0  0  0  0  0  0  0
   22.4009  -15.6239  -15.9939 O   0  0  0  0  0  0  0  0  0  0  0  0
   30.9257  -11.8726  -18.0383 N   0  0  0  0  0  0  0  0  0  0  0  0
   30.0393  -10.9273  -17.4464 C   0  0  0  0  0  0  0  0  0  0  0  0
   30.4184   -9.7368  -17.2258 N   0  0  0  0  0  0  0  0  0  0  0  0
   28.7221  -11.3214  -17.1016 N   0  0  0  0  0  0  0  0  0  0  0  0
   28.2584  -12.6747  -17.2736 C   0  0  0  0  0  0  0  0  0  0  0  0
   26.8247  -12.8154  -16.8187 C   0  0  0  0  0  0  0  0  0  0  0  0
   26.2303  -14.1484  -17.1276 C   0  0  0  0  0  0  0  0  0  0  0  0
   24.7591  -14.2558  -16.7554 C   0  0  2  0  0  0  0  0  0  0  0  0
   24.3218  -15.5571  -17.2207 N   0  0  0  0  0  0  0  0  0  0  0  0
   23.9555  -13.1579  -17.2913 C   0  0  0  0  0  0  0  0  0  0  0  0
   23.4649  -12.1457  -16.5141 O   0  0  0  0  0  0  0  0  0  0  0  0
   23.6936  -13.1286  -18.5225 O   0  0  0  0  0  0  0  0  0  0  0  0
  2  1  1  0
  3  2  1  0
  3  4  2  0
  5  3  1  0
  6  5  1  0
  6  7  1  6
  8  7  1  0
  8  9  2  0
 10  9  1  0
 11 10  1  0
 12 11  2  0
 12  8  1  0
 13  6  1  0
 14 13  2  0
 16 15  1  0
 17 16  2  0
 18 16  1  0
 19 20  1  0
 19 18  1  0
 20 21  1  0
 22 23  1  0
 22 21  1  6
 23 13  1  0
 24 22  1  0
 25 24  1  0
 26 24  2  0
M  END
$$$$
