GHR.pdb
     RDKit          3D

 26 26  0  0  1  0  0  0  0  0999 V2000
   10.7329  -14.7870    1.6597 N   0  0  0  0  0  0  0  0  0  0  0  0
   11.1279  -14.2698    2.9512 C   0  0  0  0  0  0  0  0  0  0  0  0
   12.5073  -14.7455    3.2302 C   0  0  0  0  0  0  0  0  0  0  0  0
   13.0873  -15.5693    2.4487 O   0  0  0  0  0  0  0  0  0  0  0  0
   13.2495  -14.3175    4.3653 N   0  0  0  0  0  0  0  0  0  0  0  0
   14.6196  -14.8074    4.5782 C   0  0  1  0  0  0  0  0  0  0  0  0
   15.4823  -13.7115    5.1489 C   0  0  0  0  0  0  0  0  0  0  0  0
   16.6079  -13.4457    4.2358 C   0  0  0  0  0  0  0  0  0  0  0  0
   16.8725  -14.1793    3.0956 C   0  0  0  0  0  0  0  0  0  0  0  0
   17.9468  -13.7033    2.4833 N   0  0  0  0  0  0  0  0  0  0  0  0
   18.3875  -12.6663    3.2111 C   0  0  0  0  0  0  0  0  0  0  0  0
   17.5729  -12.5119    4.2747 N   0  0  0  0  0  0  0  0  0  0  0  0
   14.4960  -15.9887    5.4621 C   0  0  0  0  0  0  0  0  0  0  0  0
   13.7559  -15.8971    6.4761 O   0  0  0  0  0  0  0  0  0  0  0  0
   15.8973  -24.6438    3.7984 N   0  0  0  0  0  0  0  0  0  0  0  0
   15.3278  -24.5616    5.1018 C   0  0  0  0  0  0  0  0  0  0  0  0
   14.9426  -25.6090    5.7052 N   0  0  0  0  0  0  0  0  0  0  0  0
   15.1913  -23.2979    5.7290 N   0  0  0  0  0  0  0  0  0  0  0  0
   15.5382  -22.0699    5.0599 C   0  0  0  0  0  0  0  0  0  0  0  0
   15.2280  -20.8750    5.9308 C   0  0  0  0  0  0  0  0  0  0  0  0
   15.4186  -19.5678    5.2376 C   0  0  0  0  0  0  0  0  0  0  0  0
   15.0905  -18.3663    6.1112 C   0  0  2  0  0  0  0  0  0  0  0  0
   15.1535  -17.2087    5.2409 N   0  0  0  0  0  0  0  0  0  0  0  0
   15.9675  -18.2536    7.2759 C   0  0  0  0  0  0  0  0  0  0  0  0
   15.6648  -18.8006    8.4917 O   0  0  0  0  0  0  0  0  0  0  0  0
   17.0547  -17.6271    7.1714 O   0  0  0  0  0  0  0  0  0  0  0  0
  2  1  1  0
  3  2  1  0
  3  4  2  0
  5  3  1  0
  6  5  1  0
  6  7  1  1
  8  7  1  0
  8  9  2  0
 10  9  1  0
 11 10  1  0
 12 11  2  0
 12  8  1  0
 13  6  1  0
 14 13  2  0
 16 15  1  0
 17 16  2  0
 18 16  1  0
 19 20  1  0
 19 18  1  0
 20 21  1  0
 22 23  1  0
 22 21  1  6
 23 13  1  0
 24 22  1  0
 25 24  1  0
 26 24  2  0
M  END
$$$$
