GHR.pdb
     RDKit          3D

 26 26  0  0  1  0  0  0  0  0999 V2000
   29.8416  -20.3023  -20.7372 N   0  0  0  0  0  0  0  0  0  0  0  0
   30.7840  -19.2055  -20.7536 C   0  0  0  0  0  0  0  0  0  0  0  0
   30.1939  -18.0859  -19.9758 C   0  0  0  0  0  0  0  0  0  0  0  0
   30.3795  -17.9921  -18.7178 O   0  0  0  0  0  0  0  0  0  0  0  0
   29.4011  -17.0701  -20.5778 N   0  0  0  0  0  0  0  0  0  0  0  0
   28.8178  -16.0029  -19.7511 C   0  0  1  0  0  0  0  0  0  0  0  0
   29.3399  -14.6592  -20.1903 C   0  0  0  0  0  0  0  0  0  0  0  0
   30.7567  -14.5323  -19.8054 C   0  0  0  0  0  0  0  0  0  0  0  0
   31.8110  -14.5858  -20.6964 C   0  0  0  0  0  0  0  0  0  0  0  0
   32.9612  -14.4417  -20.0546 N   0  0  0  0  0  0  0  0  0  0  0  0
   32.6701  -14.2948  -18.7534 C   0  0  0  0  0  0  0  0  0  0  0  0
   31.3309  -14.3501  -18.6046 N   0  0  0  0  0  0  0  0  0  0  0  0
   27.3498  -16.1430  -19.8833 C   0  0  0  0  0  0  0  0  0  0  0  0
   26.8542  -16.1379  -21.0403 O   0  0  0  0  0  0  0  0  0  0  0  0
   21.7599  -19.6718  -13.9698 N   0  0  0  0  0  0  0  0  0  0  0  0
   21.3197  -19.9978  -15.2850 C   0  0  0  0  0  0  0  0  0  0  0  0
   20.3503  -20.7969  -15.4619 N   0  0  0  0  0  0  0  0  0  0  0  0
   21.9711  -19.4234  -16.4051 N   0  0  0  0  0  0  0  0  0  0  0  0
   23.0234  -18.4495  -16.2621 C   0  0  0  0  0  0  0  0  0  0  0  0
   23.5187  -17.9885  -17.6128 C   0  0  0  0  0  0  0  0  0  0  0  0
   24.5718  -16.9349  -17.5327 C   0  0  0  0  0  0  0  0  0  0  0  0
   25.0341  -16.4368  -18.8939 C   0  0  2  0  0  0  0  0  0  0  0  0
   26.4721  -16.2818  -18.7969 N   0  0  0  0  0  0  0  0  0  0  0  0
   24.3545  -15.2112  -19.3117 C   0  0  0  0  0  0  0  0  0  0  0  0
   23.3271  -15.1998  -20.2136 O   0  0  0  0  0  0  0  0  0  0  0  0
   24.7202  -14.1074  -18.8287 O   0  0  0  0  0  0  0  0  0  0  0  0
  2  1  1  0
  3  2  1  0
  3  4  2  0
  5  3  1  0
  6  5  1  0
  6  7  1  6
  8  7  1  0
  8  9  2  0
 10  9  1  0
 11 10  1  0
 12 11  2  0
 12  8  1  0
 13  6  1  0
 14 13  2  0
 16 15  1  0
 17 16  2  0
 18 16  1  0
 19 20  1  0
 19 18  1  0
 20 21  1  0
 22 23  1  0
 22 21  1  1
 23 13  1  0
 24 22  1  0
 25 24  1  0
 26 24  2  0
M  END
$$$$
