GHR.pdb
     RDKit          3D

 26 26  0  0  1  0  0  0  0  0999 V2000
   27.9951  -21.7742  -10.2681 N   0  0  0  0  0  0  0  0  0  0  0  0
   26.8127  -20.9940   -9.9770 C   0  0  0  0  0  0  0  0  0  0  0  0
   26.3539  -20.3713  -11.2452 C   0  0  0  0  0  0  0  0  0  0  0  0
   25.2662  -19.7077  -11.2938 O   0  0  0  0  0  0  0  0  0  0  0  0
   27.0879  -20.4765  -12.4588 N   0  0  0  0  0  0  0  0  0  0  0  0
   26.7781  -19.5862  -13.5876 C   0  0  1  0  0  0  0  0  0  0  0  0
   27.9814  -19.4424  -14.4835 C   0  0  0  0  0  0  0  0  0  0  0  0
   27.6697  -18.5082  -15.5797 C   0  0  0  0  0  0  0  0  0  0  0  0
   26.4344  -17.9202  -15.7708 C   0  0  0  0  0  0  0  0  0  0  0  0
   26.4617  -17.1321  -16.8356 N   0  0  0  0  0  0  0  0  0  0  0  0
   27.7017  -17.1988  -17.3427 C   0  0  0  0  0  0  0  0  0  0  0  0
   28.4333  -18.0350  -16.5785 N   0  0  0  0  0  0  0  0  0  0  0  0
   25.6015  -20.1798  -14.2623 C   0  0  0  0  0  0  0  0  0  0  0  0
   25.6916  -21.3629  -14.6823 O   0  0  0  0  0  0  0  0  0  0  0  0
   18.4635  -22.6875  -11.4995 N   0  0  0  0  0  0  0  0  0  0  0  0
   19.2972  -23.2894  -12.4857 C   0  0  0  0  0  0  0  0  0  0  0  0
   19.3598  -24.5518  -12.5950 N   0  0  0  0  0  0  0  0  0  0  0  0
   20.0629  -22.4694  -13.3520 N   0  0  0  0  0  0  0  0  0  0  0  0
   19.9721  -21.0317  -13.3236 C   0  0  0  0  0  0  0  0  0  0  0  0
   20.7651  -20.4189  -14.4540 C   0  0  0  0  0  0  0  0  0  0  0  0
   22.0822  -19.8648  -14.0252 C   0  0  0  0  0  0  0  0  0  0  0  0
   23.1913  -20.0844  -15.0431 C   0  0  2  0  0  0  0  0  0  0  0  0
   24.3874  -19.5052  -14.4640 N   0  0  0  0  0  0  0  0  0  0  0  0
   22.8710  -19.5355  -16.3602 C   0  0  0  0  0  0  0  0  0  0  0  0
   22.2839  -20.2721  -17.3511 O   0  0  0  0  0  0  0  0  0  0  0  0
   23.1423  -18.3316  -16.6096 O   0  0  0  0  0  0  0  0  0  0  0  0
  2  1  1  0
  3  2  1  0
  3  4  2  0
  5  3  1  0
  6  5  1  0
  6  7  1  6
  8  7  1  0
  8  9  2  0
 10  9  1  0
 11 10  1  0
 12 11  2  0
 12  8  1  0
 13  6  1  0
 14 13  2  0
 16 15  1  0
 17 16  2  0
 18 16  1  0
 19 20  1  0
 19 18  1  0
 20 21  1  0
 22 23  1  0
 22 21  1  1
 23 13  1  0
 24 22  1  0
 25 24  1  0
 26 24  2  0
M  END
$$$$
