GHR.pdb
     RDKit          3D

 26 26  0  0  1  0  0  0  0  0999 V2000
   26.8555  -20.2164  -18.1725 N   0  0  0  0  0  0  0  0  0  0  0  0
   26.2074  -19.7928  -16.9511 C   0  0  0  0  0  0  0  0  0  0  0  0
   25.0379  -20.6802  -16.7242 C   0  0  0  0  0  0  0  0  0  0  0  0
   24.4130  -21.2047  -17.7041 O   0  0  0  0  0  0  0  0  0  0  0  0
   24.5547  -20.9919  -15.4234 N   0  0  0  0  0  0  0  0  0  0  0  0
   23.4099  -21.9005  -15.2600 C   0  0  1  0  0  0  0  0  0  0  0  0
   23.8021  -23.0868  -14.4174 C   0  0  0  0  0  0  0  0  0  0  0  0
   24.5415  -24.0556  -15.2458 C   0  0  0  0  0  0  0  0  0  0  0  0
   25.9097  -24.2382  -15.1920 C   0  0  0  0  0  0  0  0  0  0  0  0
   26.2813  -25.1750  -16.0522 N   0  0  0  0  0  0  0  0  0  0  0  0
   25.1705  -25.6067  -16.6679 C   0  0  0  0  0  0  0  0  0  0  0  0
   24.1155  -24.9256  -16.1766 N   0  0  0  0  0  0  0  0  0  0  0  0
   22.3245  -21.0845  -14.6702 C   0  0  0  0  0  0  0  0  0  0  0  0
   22.5850  -20.3996  -13.6468 O   0  0  0  0  0  0  0  0  0  0  0  0
   20.2934  -14.9611  -17.5595 N   0  0  0  0  0  0  0  0  0  0  0  0
   19.4488  -15.3927  -16.4965 C   0  0  0  0  0  0  0  0  0  0  0  0
   19.0027  -14.5615  -15.6481 N   0  0  0  0  0  0  0  0  0  0  0  0
   19.1043  -16.7633  -16.3869 N   0  0  0  0  0  0  0  0  0  0  0  0
   18.2559  -17.2572  -15.3321 C   0  0  0  0  0  0  0  0  0  0  0  0
   18.0714  -18.7524  -15.4440 C   0  0  0  0  0  0  0  0  0  0  0  0
   19.3237  -19.4818  -15.7979 C   0  0  0  0  0  0  0  0  0  0  0  0
   19.9354  -20.2371  -14.6275 C   0  0  2  0  0  0  0  0  0  0  0  0
   21.0186  -21.0253  -15.1812 N   0  0  0  0  0  0  0  0  0  0  0  0
   18.9576  -21.0432  -13.8977 C   0  0  0  0  0  0  0  0  0  0  0  0
   18.1437  -20.5283  -12.9273 O   0  0  0  0  0  0  0  0  0  0  0  0
   18.8478  -22.2692  -14.1624 O   0  0  0  0  0  0  0  0  0  0  0  0
  2  1  1  0
  3  2  1  0
  3  4  2  0
  5  3  1  0
  6  5  1  0
  6  7  1  1
  8  7  1  0
  8  9  2  0
 10  9  1  0
 11 10  1  0
 12 11  2  0
 12  8  1  0
 13  6  1  0
 14 13  2  0
 16 15  1  0
 17 16  2  0
 18 16  1  0
 19 20  1  0
 19 18  1  0
 20 21  1  0
 22 23  1  0
 22 21  1  6
 23 13  1  0
 24 22  1  0
 25 24  1  0
 26 24  2  0
M  END
$$$$
