GHR.pdb
     RDKit          3D

 26 26  0  0  1  0  0  0  0  0999 V2000
   24.3910  -14.5135  -20.2431 N   0  0  0  0  0  0  0  0  0  0  0  0
   24.0671  -13.1175  -20.0494 C   0  0  0  0  0  0  0  0  0  0  0  0
   23.8180  -12.9042  -18.6005 C   0  0  0  0  0  0  0  0  0  0  0  0
   22.9424  -13.5907  -17.9778 O   0  0  0  0  0  0  0  0  0  0  0  0
   24.5291  -11.9387  -17.8357 N   0  0  0  0  0  0  0  0  0  0  0  0
   24.1763  -11.7086  -16.4267 C   0  0  1  0  0  0  0  0  0  0  0  0
   25.4201  -11.6780  -15.5763 C   0  0  0  0  0  0  0  0  0  0  0  0
   26.0313  -13.0186  -15.5505 C   0  0  0  0  0  0  0  0  0  0  0  0
   27.1958  -13.3537  -16.2138 C   0  0  0  0  0  0  0  0  0  0  0  0
   27.4935  -14.6274  -16.0024 N   0  0  0  0  0  0  0  0  0  0  0  0
   26.5358  -15.1287  -15.2080 C   0  0  0  0  0  0  0  0  0  0  0  0
   25.6492  -14.1500  -14.9350 N   0  0  0  0  0  0  0  0  0  0  0  0
   23.4072  -10.4437  -16.4018 C   0  0  0  0  0  0  0  0  0  0  0  0
   23.8005   -9.4948  -17.1292 O   0  0  0  0  0  0  0  0  0  0  0  0
   14.9107   -8.7716  -16.9102 N   0  0  0  0  0  0  0  0  0  0  0  0
   15.4890   -7.5071  -16.5992 C   0  0  0  0  0  0  0  0  0  0  0  0
   14.7926   -6.4480  -16.6528 N   0  0  0  0  0  0  0  0  0  0  0  0
   16.8545   -7.4331  -16.2264 N   0  0  0  0  0  0  0  0  0  0  0  0
   17.6908   -8.6037  -16.1472 C   0  0  0  0  0  0  0  0  0  0  0  0
   19.1242   -8.2239  -15.8585 C   0  0  0  0  0  0  0  0  0  0  0  0
   20.0563   -9.3885  -15.8398 C   0  0  0  0  0  0  0  0  0  0  0  0
   21.5003   -9.0033  -15.5553 C   0  0  2  0  0  0  0  0  0  0  0  0
   22.2632  -10.2344  -15.6161 N   0  0  0  0  0  0  0  0  0  0  0  0
   21.6601   -8.2945  -14.2862 C   0  0  0  0  0  0  0  0  0  0  0  0
   21.4708   -6.9467  -14.1570 O   0  0  0  0  0  0  0  0  0  0  0  0
   21.9872   -8.9400  -13.2558 O   0  0  0  0  0  0  0  0  0  0  0  0
  2  1  1  0
  3  2  1  0
  3  4  2  0
  5  3  1  0
  6  5  1  0
  6  7  1  1
  8  7  1  0
  8  9  2  0
 10  9  1  0
 11 10  1  0
 12 11  2  0
 12  8  1  0
 13  6  1  0
 14 13  2  0
 16 15  1  0
 17 16  2  0
 18 16  1  0
 19 20  1  0
 19 18  1  0
 20 21  1  0
 22 23  1  0
 22 21  1  1
 23 13  1  0
 24 22  1  0
 25 24  1  0
 26 24  2  0
M  END
$$$$
