GHR.pdb
     RDKit          3D

 26 26  0  0  1  0  0  0  0  0999 V2000
   29.6203  -19.7715  -19.3325 N   0  0  0  0  0  0  0  0  0  0  0  0
   28.7211  -19.0333  -18.4735 C   0  0  0  0  0  0  0  0  0  0  0  0
   27.7342  -19.9928  -17.9147 C   0  0  0  0  0  0  0  0  0  0  0  0
   26.9836  -20.6821  -18.6810 O   0  0  0  0  0  0  0  0  0  0  0  0
   27.5713  -20.1959  -16.5165 N   0  0  0  0  0  0  0  0  0  0  0  0
   26.5425  -21.1224  -16.0208 C   0  0  1  0  0  0  0  0  0  0  0  0
   27.1087  -21.9948  -14.9302 C   0  0  0  0  0  0  0  0  0  0  0  0
   27.9202  -23.0683  -15.5305 C   0  0  0  0  0  0  0  0  0  0  0  0
   29.2879  -22.9984  -15.7122 C   0  0  0  0  0  0  0  0  0  0  0  0
   29.7332  -24.1127  -16.2740 N   0  0  0  0  0  0  0  0  0  0  0  0
   28.6712  -24.9103  -16.4618 C   0  0  0  0  0  0  0  0  0  0  0  0
   27.5716  -24.2739  -16.0096 N   0  0  0  0  0  0  0  0  0  0  0  0
   25.4119  -20.2751  -15.5783 C   0  0  0  0  0  0  0  0  0  0  0  0
   25.6149  -19.4515  -14.6484 O   0  0  0  0  0  0  0  0  0  0  0  0
   20.5636  -14.2150  -17.2908 N   0  0  0  0  0  0  0  0  0  0  0  0
   19.5954  -14.9910  -16.5907 C   0  0  0  0  0  0  0  0  0  0  0  0
   18.5739  -14.4398  -16.0785 N   0  0  0  0  0  0  0  0  0  0  0  0
   19.7758  -16.3914  -16.4662 N   0  0  0  0  0  0  0  0  0  0  0  0
   20.9900  -17.0465  -16.8818 C   0  0  0  0  0  0  0  0  0  0  0  0
   20.8929  -18.5405  -16.6798 C   0  0  0  0  0  0  0  0  0  0  0  0
   22.1695  -19.2623  -16.9534 C   0  0  0  0  0  0  0  0  0  0  0  0
   22.9895  -19.5371  -15.7018 C   0  0  2  0  0  0  0  0  0  0  0  0
   24.1233  -20.3315  -16.1317 N   0  0  0  0  0  0  0  0  0  0  0  0
   22.2120  -20.1780  -14.6420 C   0  0  0  0  0  0  0  0  0  0  0  0
   21.6411  -19.4826  -13.6127 O   0  0  0  0  0  0  0  0  0  0  0  0
   22.0519  -21.4267  -14.6632 O   0  0  0  0  0  0  0  0  0  0  0  0
  2  1  1  0
  3  2  1  0
  3  4  2  0
  5  3  1  0
  6  5  1  0
  6  7  1  1
  8  7  1  0
  8  9  2  0
 10  9  1  0
 11 10  1  0
 12 11  2  0
 12  8  1  0
 13  6  1  0
 14 13  2  0
 16 15  1  0
 17 16  2  0
 18 16  1  0
 19 20  1  0
 19 18  1  0
 20 21  1  0
 22 23  1  0
 22 21  1  6
 23 13  1  0
 24 22  1  0
 25 24  1  0
 26 24  2  0
M  END
$$$$
