WMW.pdb
     RDKit          3D

 37 40  0  0  1  0  0  0  0  0999 V2000
    6.4021  -17.2057   24.5349 N   0  0  0  0  0  0  0  0  0  0  0  0
    7.5029  -16.2892   24.1654 C   0  0  1  0  0  0  0  0  0  0  0  0
    7.8948  -15.6185   25.4683 C   0  0  0  0  0  0  0  0  0  0  0  0
    6.8975  -14.6235   25.9332 C   0  0  0  0  0  0  0  0  0  0  0  0
    5.6314  -14.9342   26.4333 C   0  0  0  0  0  0  0  0  0  0  0  0
    5.0126  -13.7999   26.7897 N   0  0  0  0  0  0  0  0  0  0  0  0
    5.8215  -12.7524   26.5434 C   0  0  0  0  0  0  0  0  0  0  0  0
    5.6142  -11.3915   26.7408 C   0  0  0  0  0  0  0  0  0  0  0  0
    6.6056  -10.4984   26.3964 C   0  0  0  0  0  0  0  0  0  0  0  0
    7.7795  -10.9929   25.8627 C   0  0  0  0  0  0  0  0  0  0  0  0
    7.9687  -12.3516   25.6729 C   0  0  0  0  0  0  0  0  0  0  0  0
    6.9922  -13.2549   26.0116 C   0  0  0  0  0  0  0  0  0  0  0  0
    8.5604  -17.0990   23.5543 C   0  0  0  0  0  0  0  0  0  0  0  0
    8.4686  -18.3616   23.5123 O   0  0  0  0  0  0  0  0  0  0  0  0
    6.7078  -13.5207   19.3269 C   0  0  0  0  0  0  0  0  0  0  0  0
    8.4941  -13.7651   19.0453 S   0  0  0  0  0  0  0  0  0  0  0  0
    8.9042  -15.4996   19.4834 C   0  0  0  0  0  0  0  0  0  0  0  0
    8.8436  -15.5866   20.9750 C   0  0  0  0  0  0  0  0  0  0  0  0
    9.9613  -16.4661   21.5413 C   0  0  2  0  0  0  0  0  0  0  0  0
    9.7405  -16.5532   22.9706 N   0  0  0  0  0  0  0  0  0  0  0  0
   11.2861  -15.8930   21.2100 C   0  0  0  0  0  0  0  0  0  0  0  0
   11.6648  -15.9293   20.0087 O   0  0  0  0  0  0  0  0  0  0  0  0
   12.1474  -15.3105   22.1560 N   0  0  0  0  0  0  0  0  0  0  0  0
   12.3199  -15.9758   23.4655 C   0  0  1  0  0  0  0  0  0  0  0  0
   11.0122  -16.5389   23.9063 C   0  0  0  0  0  0  0  0  0  0  0  0
   10.8304  -16.7939   25.3318 C   0  0  0  0  0  0  0  0  0  0  0  0
   10.9547  -18.0597   25.9262 C   0  0  0  0  0  0  0  0  0  0  0  0
   10.6980  -17.9707   27.2419 N   0  0  0  0  0  0  0  0  0  0  0  0
   10.4098  -16.7133   27.5578 C   0  0  0  0  0  0  0  0  0  0  0  0
   10.0979  -16.1300   28.7630 C   0  0  0  0  0  0  0  0  0  0  0  0
    9.8583  -14.7612   28.7966 C   0  0  0  0  0  0  0  0  0  0  0  0
    9.9304  -13.9891   27.6385 C   0  0  0  0  0  0  0  0  0  0  0  0
   10.2445  -14.6286   26.4698 C   0  0  0  0  0  0  0  0  0  0  0  0
   10.4894  -15.9829   26.3886 C   0  0  0  0  0  0  0  0  0  0  0  0
   13.3668  -16.9868   23.2897 C   0  0  0  0  0  0  0  0  0  0  0  0
   13.9801  -17.1227   22.0555 O   0  0  0  0  0  0  0  0  0  0  0  0
   13.7720  -17.7710   24.1923 O   0  0  0  0  0  0  0  0  0  0  0  0
  2  1  1  1
  3  2  1  0
  4  5  2  0
  4  3  1  0
  6  5  1  0
  7 12  2  0
  7  6  1  0
  8  7  1  0
  9 10  1  0
  9  8  2  0
 10 11  2  0
 11 12  1  0
 12  4  1  0
 13  2  1  0
 14 13  2  0
 16 17  1  0
 16 15  1  0
 17 18  1  0
 19 18  1  6
 19 21  1  0
 19 20  1  0
 20 13  1  0
 21 22  2  0
 23 24  1  0
 23 21  1  0
 25 26  1  0
 24 25  1  6
 26 27  2  0
 27 28  1  0
 29 28  1  0
 30 29  2  0
 31 30  1  0
 32 33  1  0
 32 31  2  0
 33 34  2  0
 34 26  1  0
 34 29  1  0
 35 36  1  0
 35 24  1  0
 37 35  2  0
M  END
$$$$
