WMW.pdb
     RDKit          3D

 37 40  0  0  1  0  0  0  0  0999 V2000
    6.3072  -18.2766   24.7036 N   0  0  0  0  0  0  0  0  0  0  0  0
    6.7769  -16.9451   24.2623 C   0  0  1  0  0  0  0  0  0  0  0  0
    7.4219  -16.3401   25.4946 C   0  0  0  0  0  0  0  0  0  0  0  0
    6.6279  -15.2336   26.0829 C   0  0  0  0  0  0  0  0  0  0  0  0
    5.5327  -15.3996   26.9329 C   0  0  0  0  0  0  0  0  0  0  0  0
    5.0790  -14.1931   27.3007 N   0  0  0  0  0  0  0  0  0  0  0  0
    5.8324  -13.2373   26.7255 C   0  0  0  0  0  0  0  0  0  0  0  0
    5.7407  -11.8519   26.8052 C   0  0  0  0  0  0  0  0  0  0  0  0
    6.6370  -11.0724   26.1065 C   0  0  0  0  0  0  0  0  0  0  0  0
    7.6023  -11.7022   25.3456 C   0  0  0  0  0  0  0  0  0  0  0  0
    7.6787  -13.0833   25.2777 C   0  0  0  0  0  0  0  0  0  0  0  0
    6.7948  -13.8745   25.9682 C   0  0  0  0  0  0  0  0  0  0  0  0
    7.6910  -17.1544   23.1361 C   0  0  0  0  0  0  0  0  0  0  0  0
    8.6224  -18.0099   23.2066 O   0  0  0  0  0  0  0  0  0  0  0  0
    6.9486  -12.7076   18.9360 C   0  0  0  0  0  0  0  0  0  0  0  0
    8.7548  -12.7273   18.6771 S   0  0  0  0  0  0  0  0  0  0  0  0
    9.4330  -14.2041   19.5301 C   0  0  0  0  0  0  0  0  0  0  0  0
    8.3489  -14.7125   20.4259 C   0  0  0  0  0  0  0  0  0  0  0  0
    8.7689  -15.9859   21.1644 C   0  0  2  0  0  0  0  0  0  0  0  0
    7.6098  -16.4406   21.9051 N   0  0  0  0  0  0  0  0  0  0  0  0
    9.9282  -15.7126   22.0447 C   0  0  0  0  0  0  0  0  0  0  0  0
   10.2809  -14.5137   22.2066 O   0  0  0  0  0  0  0  0  0  0  0  0
   10.6593  -16.7112   22.7113 N   0  0  0  0  0  0  0  0  0  0  0  0
   12.0264  -16.3980   23.1806 C   0  0  1  0  0  0  0  0  0  0  0  0
   12.2110  -16.9442   24.5550 C   0  0  0  0  0  0  0  0  0  0  0  0
   11.1857  -16.6402   25.5482 C   0  0  0  0  0  0  0  0  0  0  0  0
   10.0585  -17.4427   25.7855 C   0  0  0  0  0  0  0  0  0  0  0  0
    9.2916  -16.8795   26.7340 N   0  0  0  0  0  0  0  0  0  0  0  0
    9.8470  -15.7446   27.1432 C   0  0  0  0  0  0  0  0  0  0  0  0
    9.4523  -14.8332   28.0939 C   0  0  0  0  0  0  0  0  0  0  0  0
   10.2587  -13.7255   28.3280 C   0  0  0  0  0  0  0  0  0  0  0  0
   11.4434  -13.5348   27.6190 C   0  0  0  0  0  0  0  0  0  0  0  0
   11.7810  -14.4770   26.6852 C   0  0  0  0  0  0  0  0  0  0  0  0
   11.0126  -15.5902   26.4191 C   0  0  0  0  0  0  0  0  0  0  0  0
   12.9506  -16.9638   22.1933 C   0  0  0  0  0  0  0  0  0  0  0  0
   14.3079  -16.7154   22.3122 O   0  0  0  0  0  0  0  0  0  0  0  0
   12.6086  -17.6800   21.2115 O   0  0  0  0  0  0  0  0  0  0  0  0
  2  1  1  1
  3  2  1  0
  4  5  2  0
  4  3  1  0
  6  5  1  0
  7 12  2  0
  7  6  1  0
  8  7  1  0
  9 10  1  0
  9  8  2  0
 10 11  2  0
 11 12  1  0
 12  4  1  0
 13  2  1  0
 14 13  2  0
 16 17  1  0
 16 15  1  0
 17 18  1  0
 19 18  1  1
 19 21  1  0
 19 20  1  0
 20 13  1  0
 21 22  2  0
 23 24  1  0
 23 21  1  0
 25 26  1  0
 24 25  1  1
 26 27  2  0
 27 28  1  0
 29 28  1  0
 30 29  2  0
 31 30  1  0
 32 33  1  0
 32 31  2  0
 33 34  2  0
 34 26  1  0
 34 29  1  0
 35 36  1  0
 35 24  1  0
 37 35  2  0
M  END
$$$$
