WMW.pdb
     RDKit          3D

 37 40  0  0  1  0  0  0  0  0999 V2000
    9.0708  -17.4834   20.5758 N   0  0  0  0  0  0  0  0  0  0  0  0
    8.7221  -16.5152   21.6385 C   0  0  1  0  0  0  0  0  0  0  0  0
    7.2609  -16.1899   21.3939 C   0  0  0  0  0  0  0  0  0  0  0  0
    7.0666  -14.9990   20.5309 C   0  0  0  0  0  0  0  0  0  0  0  0
    5.8633  -14.6432   19.9186 C   0  0  0  0  0  0  0  0  0  0  0  0
    6.0386  -13.4979   19.2447 N   0  0  0  0  0  0  0  0  0  0  0  0
    7.3116  -13.0845   19.3883 C   0  0  0  0  0  0  0  0  0  0  0  0
    7.9561  -11.9651   18.8728 C   0  0  0  0  0  0  0  0  0  0  0  0
    9.2886  -11.7595   19.1581 C   0  0  0  0  0  0  0  0  0  0  0  0
    9.9407  -12.6818   19.9528 C   0  0  0  0  0  0  0  0  0  0  0  0
    9.2830  -13.7912   20.4574 C   0  0  0  0  0  0  0  0  0  0  0  0
    7.9557  -14.0105   20.1842 C   0  0  0  0  0  0  0  0  0  0  0  0
    8.9961  -17.1601   22.9255 C   0  0  0  0  0  0  0  0  0  0  0  0
    8.0586  -17.4047   23.7414 O   0  0  0  0  0  0  0  0  0  0  0  0
   10.2668  -21.4751   27.1915 C   0  0  0  0  0  0  0  0  0  0  0  0
   11.3144  -21.4004   25.6993 S   0  0  0  0  0  0  0  0  0  0  0  0
   12.1794  -19.7818   25.6953 C   0  0  0  0  0  0  0  0  0  0  0  0
   11.7831  -19.0914   24.4294 C   0  0  0  0  0  0  0  0  0  0  0  0
   10.5621  -18.1898   24.6292 C   0  0  2  0  0  0  0  0  0  0  0  0
   10.2963  -17.5580   23.3527 N   0  0  0  0  0  0  0  0  0  0  0  0
   10.8201  -17.2030   25.7030 C   0  0  0  0  0  0  0  0  0  0  0  0
   11.7796  -16.4000   25.5532 O   0  0  0  0  0  0  0  0  0  0  0  0
   10.0582  -17.1082   26.8805 N   0  0  0  0  0  0  0  0  0  0  0  0
   10.5443  -16.2391   27.9740 C   0  0  1  0  0  0  0  0  0  0  0  0
    9.4483  -15.3214   28.3961 C   0  0  0  0  0  0  0  0  0  0  0  0
    8.4242  -14.9908   27.4103 C   0  0  0  0  0  0  0  0  0  0  0  0
    7.6068  -15.9404   26.7769 C   0  0  0  0  0  0  0  0  0  0  0  0
    6.7910  -15.3269   25.9035 N   0  0  0  0  0  0  0  0  0  0  0  0
    7.0192  -14.0187   25.9205 C   0  0  0  0  0  0  0  0  0  0  0  0
    6.4347  -12.9872   25.2244 C   0  0  0  0  0  0  0  0  0  0  0  0
    6.8721  -11.6902   25.4663 C   0  0  0  0  0  0  0  0  0  0  0  0
    7.8808  -11.4317   26.3927 C   0  0  0  0  0  0  0  0  0  0  0  0
    8.4234  -12.5011   27.0527 C   0  0  0  0  0  0  0  0  0  0  0  0
    8.0221  -13.8035   26.8451 C   0  0  0  0  0  0  0  0  0  0  0  0
   11.0121  -17.1277   29.0420 C   0  0  0  0  0  0  0  0  0  0  0  0
   10.8647  -18.4974   28.9000 O   0  0  0  0  0  0  0  0  0  0  0  0
   11.5542  -16.7433   30.1154 O   0  0  0  0  0  0  0  0  0  0  0  0
  2  1  1  6
  3  2  1  0
  4  5  2  0
  4  3  1  0
  6  5  1  0
  7 12  2  0
  7  6  1  0
  8  7  1  0
  9 10  1  0
  9  8  2  0
 10 11  2  0
 11 12  1  0
 12  4  1  0
 13  2  1  0
 14 13  2  0
 16 17  1  0
 16 15  1  0
 17 18  1  0
 19 18  1  6
 19 21  1  0
 19 20  1  0
 20 13  1  0
 21 22  2  0
 23 24  1  0
 23 21  1  0
 25 26  1  0
 24 25  1  1
 26 27  2  0
 27 28  1  0
 29 28  1  0
 30 29  2  0
 31 30  1  0
 32 33  1  0
 32 31  2  0
 33 34  2  0
 34 26  1  0
 34 29  1  0
 35 36  1  0
 35 24  1  0
 37 35  2  0
M  END
$$$$
