WMW.pdb
     RDKit          3D

 37 40  0  0  1  0  0  0  0  0999 V2000
    6.3329  -20.1826   21.4516 N   0  0  0  0  0  0  0  0  0  0  0  0
    6.9135  -19.2445   22.4371 C   0  0  1  0  0  0  0  0  0  0  0  0
    7.5587  -20.1375   23.4798 C   0  0  0  0  0  0  0  0  0  0  0  0
    6.7125  -20.3326   24.6825 C   0  0  0  0  0  0  0  0  0  0  0  0
    5.7351  -21.3201   24.8207 C   0  0  0  0  0  0  0  0  0  0  0  0
    5.1917  -21.2283   26.0426 N   0  0  0  0  0  0  0  0  0  0  0  0
    5.7725  -20.2176   26.7158 C   0  0  0  0  0  0  0  0  0  0  0  0
    5.5377  -19.7429   28.0018 C   0  0  0  0  0  0  0  0  0  0  0  0
    6.2665  -18.6719   28.4719 C   0  0  0  0  0  0  0  0  0  0  0  0
    7.2120  -18.1044   27.6405 C   0  0  0  0  0  0  0  0  0  0  0  0
    7.4324  -18.5902   26.3625 C   0  0  0  0  0  0  0  0  0  0  0  0
    6.7163  -19.6568   25.8789 C   0  0  0  0  0  0  0  0  0  0  0  0
    7.8475  -18.3751   21.7166 C   0  0  0  0  0  0  0  0  0  0  0  0
    8.7527  -18.8654   20.9786 O   0  0  0  0  0  0  0  0  0  0  0  0
    6.9717  -12.1150   20.5360 C   0  0  0  0  0  0  0  0  0  0  0  0
    7.0153  -13.3500   19.1933 S   0  0  0  0  0  0  0  0  0  0  0  0
    7.3449  -14.9917   19.9446 C   0  0  0  0  0  0  0  0  0  0  0  0
    8.4167  -14.7838   20.9665 C   0  0  0  0  0  0  0  0  0  0  0  0
    8.9620  -16.1110   21.4999 C   0  0  2  0  0  0  0  0  0  0  0  0
    7.8153  -16.9516   21.7789 N   0  0  0  0  0  0  0  0  0  0  0  0
    9.7964  -15.8799   22.7015 C   0  0  0  0  0  0  0  0  0  0  0  0
   10.7912  -15.1138   22.5948 O   0  0  0  0  0  0  0  0  0  0  0  0
    9.5451  -16.4642   23.9550 N   0  0  0  0  0  0  0  0  0  0  0  0
   10.4257  -16.1164   25.0912 C   0  0  1  0  0  0  0  0  0  0  0  0
    9.6192  -16.0783   26.3440 C   0  0  0  0  0  0  0  0  0  0  0  0
    8.2506  -15.5795   26.2538 C   0  0  0  0  0  0  0  0  0  0  0  0
    7.1434  -16.3767   25.9227 C   0  0  0  0  0  0  0  0  0  0  0  0
    6.0329  -15.6213   25.8917 N   0  0  0  0  0  0  0  0  0  0  0  0
    6.3393  -14.3627   26.1852 C   0  0  0  0  0  0  0  0  0  0  0  0
    5.5534  -13.2398   26.2928 C   0  0  0  0  0  0  0  0  0  0  0  0
    6.1571  -12.0370   26.6404 C   0  0  0  0  0  0  0  0  0  0  0  0
    7.5286  -11.9616   26.8765 C   0  0  0  0  0  0  0  0  0  0  0  0
    8.2566  -13.1142   26.7525 C   0  0  0  0  0  0  0  0  0  0  0  0
    7.7013  -14.3285   26.4097 C   0  0  0  0  0  0  0  0  0  0  0  0
   11.4996  -17.1140   25.1126 C   0  0  0  0  0  0  0  0  0  0  0  0
   12.5310  -16.9831   26.0276 O   0  0  0  0  0  0  0  0  0  0  0  0
   11.5713  -18.1142   24.3455 O   0  0  0  0  0  0  0  0  0  0  0  0
  2  1  1  6
  3  2  1  0
  4  5  2  0
  4  3  1  0
  6  5  1  0
  7 12  2  0
  7  6  1  0
  8  7  1  0
  9 10  1  0
  9  8  2  0
 10 11  2  0
 11 12  1  0
 12  4  1  0
 13  2  1  0
 14 13  2  0
 16 17  1  0
 16 15  1  0
 17 18  1  0
 19 18  1  1
 19 21  1  0
 19 20  1  0
 20 13  1  0
 21 22  2  0
 23 24  1  0
 23 21  1  0
 25 26  1  0
 24 25  1  1
 26 27  2  0
 27 28  1  0
 29 28  1  0
 30 29  2  0
 31 30  1  0
 32 33  1  0
 32 31  2  0
 33 34  2  0
 34 26  1  0
 34 29  1  0
 35 36  1  0
 35 24  1  0
 37 35  2  0
M  END
$$$$
