WMW.pdb
     RDKit          3D

 37 40  0  0  1  0  0  0  0  0999 V2000
    6.1945  -19.6488   26.0381 N   0  0  0  0  0  0  0  0  0  0  0  0
    6.5365  -19.3152   24.6381 C   0  0  1  0  0  0  0  0  0  0  0  0
    5.3521  -19.8072   23.8282 C   0  0  0  0  0  0  0  0  0  0  0  0
    5.3375  -21.2805   23.6550 C   0  0  0  0  0  0  0  0  0  0  0  0
    4.4513  -22.1515   24.2917 C   0  0  0  0  0  0  0  0  0  0  0  0
    4.6980  -23.4030   23.8800 N   0  0  0  0  0  0  0  0  0  0  0  0
    5.7135  -23.3914   22.9964 C   0  0  0  0  0  0  0  0  0  0  0  0
    6.3204  -24.4386   22.3116 C   0  0  0  0  0  0  0  0  0  0  0  0
    7.3651  -24.1715   21.4534 C   0  0  0  0  0  0  0  0  0  0  0  0
    7.7746  -22.8610   21.3041 C   0  0  0  0  0  0  0  0  0  0  0  0
    7.1586  -21.8305   21.9944 C   0  0  0  0  0  0  0  0  0  0  0  0
    6.1160  -22.0787   22.8520 C   0  0  0  0  0  0  0  0  0  0  0  0
    6.7598  -17.8683   24.5747 C   0  0  0  0  0  0  0  0  0  0  0  0
    6.2888  -17.1802   23.6213 O   0  0  0  0  0  0  0  0  0  0  0  0
    7.0799  -11.7594   27.0312 C   0  0  0  0  0  0  0  0  0  0  0  0
    6.4202  -13.2326   26.1802 S   0  0  0  0  0  0  0  0  0  0  0  0
    6.9118  -14.7128   27.1476 C   0  0  0  0  0  0  0  0  0  0  0  0
    8.2480  -15.1362   26.6266 C   0  0  0  0  0  0  0  0  0  0  0  0
    8.1332  -15.8617   25.2834 C   0  0  2  0  0  0  0  0  0  0  0  0
    7.4970  -17.1358   25.5500 N   0  0  0  0  0  0  0  0  0  0  0  0
    9.4702  -16.0180   24.6660 C   0  0  0  0  0  0  0  0  0  0  0  0
   10.3199  -16.7317   25.2632 O   0  0  0  0  0  0  0  0  0  0  0  0
    9.8488  -15.4176   23.4527 N   0  0  0  0  0  0  0  0  0  0  0  0
   10.9401  -16.0315   22.6655 C   0  0  1  0  0  0  0  0  0  0  0  0
   10.6699  -15.8329   21.2133 C   0  0  0  0  0  0  0  0  0  0  0  0
    9.2852  -15.6189   20.8049 C   0  0  0  0  0  0  0  0  0  0  0  0
    8.2986  -16.6176   20.8167 C   0  0  0  0  0  0  0  0  0  0  0  0
    7.1401  -16.1169   20.3562 N   0  0  0  0  0  0  0  0  0  0  0  0
    7.3002  -14.8373   20.0385 C   0  0  0  0  0  0  0  0  0  0  0  0
    6.4145  -13.9074   19.5476 C   0  0  0  0  0  0  0  0  0  0  0  0
    6.8668  -12.6122   19.3239 C   0  0  0  0  0  0  0  0  0  0  0  0
    8.1877  -12.2552   19.5886 C   0  0  0  0  0  0  0  0  0  0  0  0
    9.0207  -13.2263   20.0752 C   0  0  0  0  0  0  0  0  0  0  0  0
    8.6167  -14.5230   20.3118 C   0  0  0  0  0  0  0  0  0  0  0  0
   12.1883  -15.4128   23.1220 C   0  0  0  0  0  0  0  0  0  0  0  0
   13.3658  -15.6763   22.4424 O   0  0  0  0  0  0  0  0  0  0  0  0
   12.2892  -14.6365   24.1125 O   0  0  0  0  0  0  0  0  0  0  0  0
  2  1  1  1
  3  2  1  0
  4  5  2  0
  4  3  1  0
  6  5  1  0
  7 12  2  0
  7  6  1  0
  8  7  1  0
  9 10  1  0
  9  8  2  0
 10 11  2  0
 11 12  1  0
 12  4  1  0
 13  2  1  0
 14 13  2  0
 16 17  1  0
 16 15  1  0
 17 18  1  0
 19 18  1  1
 19 21  1  0
 19 20  1  0
 20 13  1  0
 21 22  2  0
 23 24  1  0
 23 21  1  0
 25 26  1  0
 24 25  1  6
 26 27  2  0
 27 28  1  0
 29 28  1  0
 30 29  2  0
 31 30  1  0
 32 33  1  0
 32 31  2  0
 33 34  2  0
 34 26  1  0
 34 29  1  0
 35 36  1  0
 35 24  1  0
 37 35  2  0
M  END
$$$$
