WMW.pdb
     RDKit          3D

 37 40  0  0  1  0  0  0  0  0999 V2000
    7.8721  -18.1986   24.9475 N   0  0  0  0  0  0  0  0  0  0  0  0
    6.9637  -18.4956   23.8184 C   0  0  1  0  0  0  0  0  0  0  0  0
    5.5897  -18.0903   24.3171 C   0  0  0  0  0  0  0  0  0  0  0  0
    5.5653  -16.7335   24.9165 C   0  0  0  0  0  0  0  0  0  0  0  0
    4.4775  -16.1777   25.5926 C   0  0  0  0  0  0  0  0  0  0  0  0
    4.8136  -14.9561   26.0303 N   0  0  0  0  0  0  0  0  0  0  0  0
    6.0813  -14.6843   25.6683 C   0  0  0  0  0  0  0  0  0  0  0  0
    6.8550  -13.5499   25.8894 C   0  0  0  0  0  0  0  0  0  0  0  0
    8.1443  -13.5045   25.4047 C   0  0  0  0  0  0  0  0  0  0  0  0
    8.6247  -14.5976   24.7107 C   0  0  0  0  0  0  0  0  0  0  0  0
    7.8399  -15.7190   24.4998 C   0  0  0  0  0  0  0  0  0  0  0  0
    6.5543  -15.7814   24.9767 C   0  0  0  0  0  0  0  0  0  0  0  0
    7.4411  -17.7347   22.6605 C   0  0  0  0  0  0  0  0  0  0  0  0
    7.3182  -18.1942   21.4866 O   0  0  0  0  0  0  0  0  0  0  0  0
    6.8717  -12.5824   19.5600 C   0  0  0  0  0  0  0  0  0  0  0  0
    8.6346  -12.3024   19.9390 S   0  0  0  0  0  0  0  0  0  0  0  0
    9.3910  -13.9245   20.3452 C   0  0  0  0  0  0  0  0  0  0  0  0
    8.5547  -14.5233   21.4306 C   0  0  0  0  0  0  0  0  0  0  0  0
    9.0013  -15.9462   21.7761 C   0  0  2  0  0  0  0  0  0  0  0  0
    8.0595  -16.4539   22.7530 N   0  0  0  0  0  0  0  0  0  0  0  0
   10.3922  -15.9408   22.2846 C   0  0  0  0  0  0  0  0  0  0  0  0
   11.2759  -15.3711   21.5900 O   0  0  0  0  0  0  0  0  0  0  0  0
   10.7863  -16.5336   23.4968 N   0  0  0  0  0  0  0  0  0  0  0  0
   12.2140  -16.4870   23.8801 C   0  0  1  0  0  0  0  0  0  0  0  0
   12.3537  -16.9006   25.3052 C   0  0  0  0  0  0  0  0  0  0  0  0
   11.3480  -16.4256   26.2502 C   0  0  0  0  0  0  0  0  0  0  0  0
   10.2640  -17.1968   26.6985 C   0  0  0  0  0  0  0  0  0  0  0  0
    9.5040  -16.4695   27.5341 N   0  0  0  0  0  0  0  0  0  0  0  0
   10.0230  -15.2543   27.6683 C   0  0  0  0  0  0  0  0  0  0  0  0
    9.6199  -14.1738   28.4167 C   0  0  0  0  0  0  0  0  0  0  0  0
   10.3853  -13.0143   28.3758 C   0  0  0  0  0  0  0  0  0  0  0  0
   11.5380  -12.9397   27.5958 C   0  0  0  0  0  0  0  0  0  0  0  0
   11.8860  -14.0487   26.8729 C   0  0  0  0  0  0  0  0  0  0  0  0
   11.1577  -15.2192   26.8821 C   0  0  0  0  0  0  0  0  0  0  0  0
   12.9306  -17.3562   22.9420 C   0  0  0  0  0  0  0  0  0  0  0  0
   14.3035  -17.4959   23.0579 O   0  0  0  0  0  0  0  0  0  0  0  0
   12.3904  -18.0095   22.0064 O   0  0  0  0  0  0  0  0  0  0  0  0
  2  1  1  1
  3  2  1  0
  4  5  2  0
  4  3  1  0
  6  5  1  0
  7 12  2  0
  7  6  1  0
  8  7  1  0
  9 10  1  0
  9  8  2  0
 10 11  2  0
 11 12  1  0
 12  4  1  0
 13  2  1  0
 14 13  2  0
 16 17  1  0
 16 15  1  0
 17 18  1  0
 19 18  1  1
 19 21  1  0
 19 20  1  0
 20 13  1  0
 21 22  2  0
 23 24  1  0
 23 21  1  0
 25 26  1  0
 24 25  1  1
 26 27  2  0
 27 28  1  0
 29 28  1  0
 30 29  2  0
 31 30  1  0
 32 33  1  0
 32 31  2  0
 33 34  2  0
 34 26  1  0
 34 29  1  0
 35 36  1  0
 35 24  1  0
 37 35  2  0
M  END
$$$$
