WMW.pdb
     RDKit          3D

 37 40  0  0  1  0  0  0  0  0999 V2000
    7.4109  -21.2010   23.0035 N   0  0  0  0  0  0  0  0  0  0  0  0
    7.6108  -19.9821   23.8175 C   0  0  1  0  0  0  0  0  0  0  0  0
    8.3893  -20.4561   25.0299 C   0  0  0  0  0  0  0  0  0  0  0  0
    8.1773  -19.6054   26.2265 C   0  0  0  0  0  0  0  0  0  0  0  0
    6.9431  -19.3821   26.8401 C   0  0  0  0  0  0  0  0  0  0  0  0
    7.1239  -18.5956   27.9104 N   0  0  0  0  0  0  0  0  0  0  0  0
    8.4299  -18.2908   28.0262 C   0  0  0  0  0  0  0  0  0  0  0  0
    9.0893  -17.5063   28.9664 C   0  0  0  0  0  0  0  0  0  0  0  0
   10.4529  -17.3332   28.8675 C   0  0  0  0  0  0  0  0  0  0  0  0
   11.1204  -17.9512   27.8283 C   0  0  0  0  0  0  0  0  0  0  0  0
   10.4474  -18.7289   26.9009 C   0  0  0  0  0  0  0  0  0  0  0  0
    9.0897  -18.9127   26.9852 C   0  0  0  0  0  0  0  0  0  0  0  0
    8.3178  -19.0082   22.9813 C   0  0  0  0  0  0  0  0  0  0  0  0
    9.3161  -19.3557   22.2834 O   0  0  0  0  0  0  0  0  0  0  0  0
    7.2006  -13.2275   19.8253 C   0  0  0  0  0  0  0  0  0  0  0  0
    5.9871  -14.5621   20.1009 S   0  0  0  0  0  0  0  0  0  0  0  0
    6.8916  -16.0276   20.7355 C   0  0  0  0  0  0  0  0  0  0  0  0
    7.8512  -15.5217   21.7647 C   0  0  0  0  0  0  0  0  0  0  0  0
    8.7877  -16.6252   22.2633 C   0  0  2  0  0  0  0  0  0  0  0  0
    7.9520  -17.6343   22.8816 N   0  0  0  0  0  0  0  0  0  0  0  0
    9.7867  -16.0677   23.2038 C   0  0  0  0  0  0  0  0  0  0  0  0
   10.5950  -15.2046   22.7682 O   0  0  0  0  0  0  0  0  0  0  0  0
    9.8875  -16.4437   24.5545 N   0  0  0  0  0  0  0  0  0  0  0  0
   10.8257  -15.7077   25.4295 C   0  0  1  0  0  0  0  0  0  0  0  0
   10.1310  -15.3409   26.6961 C   0  0  0  0  0  0  0  0  0  0  0  0
    8.7513  -14.8744   26.6015 C   0  0  0  0  0  0  0  0  0  0  0  0
    7.6382  -15.7250   26.5106 C   0  0  0  0  0  0  0  0  0  0  0  0
    6.5157  -14.9943   26.4055 N   0  0  0  0  0  0  0  0  0  0  0  0
    6.8198  -13.7016   26.4224 C   0  0  0  0  0  0  0  0  0  0  0  0
    6.0242  -12.5822   26.3581 C   0  0  0  0  0  0  0  0  0  0  0  0
    6.6294  -11.3323   26.4187 C   0  0  0  0  0  0  0  0  0  0  0  0
    8.0121  -11.2072   26.5420 C   0  0  0  0  0  0  0  0  0  0  0  0
    8.7493  -12.3591   26.6001 C   0  0  0  0  0  0  0  0  0  0  0  0
    8.1929  -13.6191   26.5431 C   0  0  0  0  0  0  0  0  0  0  0  0
   11.9886  -16.5782   25.6268 C   0  0  0  0  0  0  0  0  0  0  0  0
   13.0982  -16.0891   26.2958 O   0  0  0  0  0  0  0  0  0  0  0  0
   12.0722  -17.7729   25.2273 O   0  0  0  0  0  0  0  0  0  0  0  0
  2  1  1  6
  3  2  1  0
  4  5  2  0
  4  3  1  0
  6  5  1  0
  7 12  2  0
  7  6  1  0
  8  7  1  0
  9 10  1  0
  9  8  2  0
 10 11  2  0
 11 12  1  0
 12  4  1  0
 13  2  1  0
 14 13  2  0
 16 17  1  0
 16 15  1  0
 17 18  1  0
 19 18  1  1
 19 21  1  0
 19 20  1  0
 20 13  1  0
 21 22  2  0
 23 24  1  0
 23 21  1  0
 25 26  1  0
 24 25  1  1
 26 27  2  0
 27 28  1  0
 29 28  1  0
 30 29  2  0
 31 30  1  0
 32 33  1  0
 32 31  2  0
 33 34  2  0
 34 26  1  0
 34 29  1  0
 35 36  1  0
 35 24  1  0
 37 35  2  0
M  END
$$$$
