WMW.pdb
     RDKit          3D

 37 40  0  0  1  0  0  0  0  0999 V2000
    5.6421  -19.6205   23.9222 N   0  0  0  0  0  0  0  0  0  0  0  0
    6.8159  -18.7946   24.2806 C   0  0  1  0  0  0  0  0  0  0  0  0
    7.7464  -19.7481   25.0057 C   0  0  0  0  0  0  0  0  0  0  0  0
    7.6224  -19.6718   26.4820 C   0  0  0  0  0  0  0  0  0  0  0  0
    6.8712  -20.5483   27.2675 C   0  0  0  0  0  0  0  0  0  0  0  0
    7.0114  -20.2084   28.5565 N   0  0  0  0  0  0  0  0  0  0  0  0
    7.8258  -19.1409   28.6517 C   0  0  0  0  0  0  0  0  0  0  0  0
    8.2555  -18.4358   29.7708 C   0  0  0  0  0  0  0  0  0  0  0  0
    9.0946  -17.3547   29.6092 C   0  0  0  0  0  0  0  0  0  0  0  0
    9.4813  -17.0081   28.3295 C   0  0  0  0  0  0  0  0  0  0  0  0
    9.0434  -17.7216   27.2263 C   0  0  0  0  0  0  0  0  0  0  0  0
    8.2085  -18.8017   27.3694 C   0  0  0  0  0  0  0  0  0  0  0  0
    7.3581  -18.2412   23.0367 C   0  0  0  0  0  0  0  0  0  0  0  0
    7.8853  -18.9956   22.1664 O   0  0  0  0  0  0  0  0  0  0  0  0
    6.3652  -12.1192   21.0053 C   0  0  0  0  0  0  0  0  0  0  0  0
    5.9382  -13.5264   19.9250 S   0  0  0  0  0  0  0  0  0  0  0  0
    6.3403  -15.0741   20.8258 C   0  0  0  0  0  0  0  0  0  0  0  0
    7.7094  -14.8891   21.3979 C   0  0  0  0  0  0  0  0  0  0  0  0
    8.3193  -16.2153   21.8590 C   0  0  2  0  0  0  0  0  0  0  0  0
    7.3353  -16.8543   22.7090 N   0  0  0  0  0  0  0  0  0  0  0  0
    9.6007  -15.9766   22.5622 C   0  0  0  0  0  0  0  0  0  0  0  0
   10.5929  -15.6072   21.8787 O   0  0  0  0  0  0  0  0  0  0  0  0
    9.7770  -16.1374   23.9475 N   0  0  0  0  0  0  0  0  0  0  0  0
   11.0857  -15.7910   24.5428 C   0  0  1  0  0  0  0  0  0  0  0  0
   11.0256  -14.4055   25.0890 C   0  0  0  0  0  0  0  0  0  0  0  0
    9.9205  -14.0775   25.9840 C   0  0  0  0  0  0  0  0  0  0  0  0
    9.5383  -14.8639   27.0824 C   0  0  0  0  0  0  0  0  0  0  0  0
    8.4719  -14.3132   27.6860 N   0  0  0  0  0  0  0  0  0  0  0  0
    8.1222  -13.2010   27.0500 C   0  0  0  0  0  0  0  0  0  0  0  0
    7.1185  -12.2938   27.2949 C   0  0  0  0  0  0  0  0  0  0  0  0
    7.0006  -11.1909   26.4572 C   0  0  0  0  0  0  0  0  0  0  0  0
    7.8763  -11.0007   25.3898 C   0  0  0  0  0  0  0  0  0  0  0  0
    8.8538  -11.9395   25.1979 C   0  0  0  0  0  0  0  0  0  0  0  0
    9.0084  -13.0485   26.0020 C   0  0  0  0  0  0  0  0  0  0  0  0
   11.3709  -16.8113   25.5561 C   0  0  0  0  0  0  0  0  0  0  0  0
   12.6401  -16.8883   26.1049 O   0  0  0  0  0  0  0  0  0  0  0  0
   10.5356  -17.6544   25.9867 O   0  0  0  0  0  0  0  0  0  0  0  0
  2  1  1  6
  3  2  1  0
  4  5  2  0
  4  3  1  0
  6  5  1  0
  7 12  2  0
  7  6  1  0
  8  7  1  0
  9 10  1  0
  9  8  2  0
 10 11  2  0
 11 12  1  0
 12  4  1  0
 13  2  1  0
 14 13  2  0
 16 17  1  0
 16 15  1  0
 17 18  1  0
 19 18  1  1
 19 21  1  0
 19 20  1  0
 20 13  1  0
 21 22  2  0
 23 24  1  0
 23 21  1  0
 25 26  1  0
 24 25  1  1
 26 27  2  0
 27 28  1  0
 29 28  1  0
 30 29  2  0
 31 30  1  0
 32 33  1  0
 32 31  2  0
 33 34  2  0
 34 26  1  0
 34 29  1  0
 35 36  1  0
 35 24  1  0
 37 35  2  0
M  END
$$$$
