WMW.pdb
     RDKit          3D

 37 40  0  0  1  0  0  0  0  0999 V2000
    7.7504  -21.5352   21.6586 N   0  0  0  0  0  0  0  0  0  0  0  0
    7.7244  -20.4589   22.6731 C   0  0  1  0  0  0  0  0  0  0  0  0
    8.2759  -21.1054   23.9296 C   0  0  0  0  0  0  0  0  0  0  0  0
    8.0616  -20.2859   25.1475 C   0  0  0  0  0  0  0  0  0  0  0  0
    6.8248  -20.0699   25.7583 C   0  0  0  0  0  0  0  0  0  0  0  0
    7.0037  -19.3143   26.8509 N   0  0  0  0  0  0  0  0  0  0  0  0
    8.3111  -19.0229   26.9842 C   0  0  0  0  0  0  0  0  0  0  0  0
    8.9696  -18.2694   27.9501 C   0  0  0  0  0  0  0  0  0  0  0  0
   10.3352  -18.1043   27.8656 C   0  0  0  0  0  0  0  0  0  0  0  0
   11.0055  -18.6989   26.8146 C   0  0  0  0  0  0  0  0  0  0  0  0
   10.3334  -19.4458   25.8616 C   0  0  0  0  0  0  0  0  0  0  0  0
    8.9738  -19.6213   25.9313 C   0  0  0  0  0  0  0  0  0  0  0  0
    8.5289  -19.3491   22.1548 C   0  0  0  0  0  0  0  0  0  0  0  0
    9.6152  -19.5665   21.5408 O   0  0  0  0  0  0  0  0  0  0  0  0
    6.0817  -12.8724   20.4223 C   0  0  0  0  0  0  0  0  0  0  0  0
    7.6992  -13.7161   20.3837 S   0  0  0  0  0  0  0  0  0  0  0  0
    7.4741  -15.4033   21.0700 C   0  0  0  0  0  0  0  0  0  0  0  0
    8.8043  -16.0803   20.9779 C   0  0  0  0  0  0  0  0  0  0  0  0
    9.1221  -16.8882   22.2388 C   0  0  2  0  0  0  0  0  0  0  0  0
    8.1675  -17.9770   22.2887 N   0  0  0  0  0  0  0  0  0  0  0  0
    9.0512  -16.0218   23.4378 C   0  0  0  0  0  0  0  0  0  0  0  0
    8.1266  -16.2317   24.2679 O   0  0  0  0  0  0  0  0  0  0  0  0
    9.9542  -14.9784   23.7059 N   0  0  0  0  0  0  0  0  0  0  0  0
   10.8334  -15.0854   24.8903 C   0  0  1  0  0  0  0  0  0  0  0  0
    9.9942  -15.1615   26.1196 C   0  0  0  0  0  0  0  0  0  0  0  0
    8.6062  -14.7214   26.0208 C   0  0  0  0  0  0  0  0  0  0  0  0
    7.5186  -15.5876   25.8265 C   0  0  0  0  0  0  0  0  0  0  0  0
    6.3810  -14.8774   25.7467 N   0  0  0  0  0  0  0  0  0  0  0  0
    6.6508  -13.5837   25.8782 C   0  0  0  0  0  0  0  0  0  0  0  0
    5.8286  -12.4818   25.8807 C   0  0  0  0  0  0  0  0  0  0  0  0
    6.3991  -11.2272   26.0617 C   0  0  0  0  0  0  0  0  0  0  0  0
    7.7739  -11.0802   26.2374 C   0  0  0  0  0  0  0  0  0  0  0  0
    8.5388  -12.2153   26.2242 C   0  0  0  0  0  0  0  0  0  0  0  0
    8.0172  -13.4791   26.0476 C   0  0  0  0  0  0  0  0  0  0  0  0
   11.6798  -16.2639   24.6815 C   0  0  0  0  0  0  0  0  0  0  0  0
   12.6825  -16.5509   25.5927 O   0  0  0  0  0  0  0  0  0  0  0  0
   11.5737  -17.0666   23.7128 O   0  0  0  0  0  0  0  0  0  0  0  0
  2  1  1  6
  3  2  1  0
  4  5  2  0
  4  3  1  0
  6  5  1  0
  7 12  2  0
  7  6  1  0
  8  7  1  0
  9 10  1  0
  9  8  2  0
 10 11  2  0
 11 12  1  0
 12  4  1  0
 13  2  1  0
 14 13  2  0
 16 17  1  0
 16 15  1  0
 17 18  1  0
 19 18  1  6
 19 21  1  0
 19 20  1  0
 20 13  1  0
 21 22  2  0
 23 24  1  0
 23 21  1  0
 25 26  1  0
 24 25  1  1
 26 27  2  0
 27 28  1  0
 29 28  1  0
 30 29  2  0
 31 30  1  0
 32 33  1  0
 32 31  2  0
 33 34  2  0
 34 26  1  0
 34 29  1  0
 35 36  1  0
 35 24  1  0
 37 35  2  0
M  END
$$$$
