WMW.pdb
     RDKit          3D

 37 40  0  0  1  0  0  0  0  0999 V2000
    6.0791  -18.1964   22.8916 N   0  0  0  0  0  0  0  0  0  0  0  0
    6.8519  -16.9644   23.1623 C   0  0  1  0  0  0  0  0  0  0  0  0
    7.3406  -17.1261   24.5891 C   0  0  0  0  0  0  0  0  0  0  0  0
    6.8466  -16.0622   25.4972 C   0  0  0  0  0  0  0  0  0  0  0  0
    5.9235  -16.2550   26.5269 C   0  0  0  0  0  0  0  0  0  0  0  0
    5.7318  -15.0917   27.1646 N   0  0  0  0  0  0  0  0  0  0  0  0
    6.4925  -14.1384   26.5949 C   0  0  0  0  0  0  0  0  0  0  0  0
    6.6228  -12.7889   26.9045 C   0  0  0  0  0  0  0  0  0  0  0  0
    7.4724  -12.0016   26.1578 C   0  0  0  0  0  0  0  0  0  0  0  0
    8.1695  -12.5878   25.1195 C   0  0  0  0  0  0  0  0  0  0  0  0
    8.0272  -13.9335   24.8253 C   0  0  0  0  0  0  0  0  0  0  0  0
    7.1864  -14.7322   25.5597 C   0  0  0  0  0  0  0  0  0  0  0  0
    7.9165  -16.8859   22.1583 C   0  0  0  0  0  0  0  0  0  0  0  0
    8.3366  -17.9287   21.5749 O   0  0  0  0  0  0  0  0  0  0  0  0
    6.6271  -12.6898   18.6499 C   0  0  0  0  0  0  0  0  0  0  0  0
    8.0211  -13.8186   18.9854 S   0  0  0  0  0  0  0  0  0  0  0  0
    8.8388  -13.2642   20.5321 C   0  0  0  0  0  0  0  0  0  0  0  0
   10.0442  -14.1312   20.7097 C   0  0  0  0  0  0  0  0  0  0  0  0
    9.6689  -15.6088   20.8493 C   0  0  2  0  0  0  0  0  0  0  0  0
    8.5457  -15.6698   21.7626 N   0  0  0  0  0  0  0  0  0  0  0  0
   10.8297  -16.3922   21.3312 C   0  0  0  0  0  0  0  0  0  0  0  0
   11.8281  -16.5028   20.5703 O   0  0  0  0  0  0  0  0  0  0  0  0
   10.8848  -17.0204   22.5875 N   0  0  0  0  0  0  0  0  0  0  0  0
   12.0827  -16.8192   23.4312 C   0  0  1  0  0  0  0  0  0  0  0  0
   11.8679  -15.6390   24.3157 C   0  0  0  0  0  0  0  0  0  0  0  0
   11.4140  -15.8886   25.6802 C   0  0  0  0  0  0  0  0  0  0  0  0
   11.4649  -17.1429   26.3086 C   0  0  0  0  0  0  0  0  0  0  0  0
   10.9465  -17.0529   27.5448 N   0  0  0  0  0  0  0  0  0  0  0  0
   10.5532  -15.8054   27.7755 C   0  0  0  0  0  0  0  0  0  0  0  0
    9.9841  -15.2246   28.8841 C   0  0  0  0  0  0  0  0  0  0  0  0
    9.6906  -13.8665   28.8461 C   0  0  0  0  0  0  0  0  0  0  0  0
    9.9638  -13.1024   27.7130 C   0  0  0  0  0  0  0  0  0  0  0  0
   10.5300  -13.7390   26.6415 C   0  0  0  0  0  0  0  0  0  0  0  0
   10.8376  -15.0827   26.6337 C   0  0  0  0  0  0  0  0  0  0  0  0
   12.2980  -18.0714   24.1625 C   0  0  0  0  0  0  0  0  0  0  0  0
   13.5310  -18.3157   24.7439 O   0  0  0  0  0  0  0  0  0  0  0  0
   11.4317  -18.9772   24.3138 O   0  0  0  0  0  0  0  0  0  0  0  0
  2  1  1  6
  3  2  1  0
  4  5  2  0
  4  3  1  0
  6  5  1  0
  7 12  2  0
  7  6  1  0
  8  7  1  0
  9 10  1  0
  9  8  2  0
 10 11  2  0
 11 12  1  0
 12  4  1  0
 13  2  1  0
 14 13  2  0
 16 17  1  0
 16 15  1  0
 17 18  1  0
 19 18  1  1
 19 21  1  0
 19 20  1  0
 20 13  1  0
 21 22  2  0
 23 24  1  0
 23 21  1  0
 25 26  1  0
 24 25  1  1
 26 27  2  0
 27 28  1  0
 29 28  1  0
 30 29  2  0
 31 30  1  0
 32 33  1  0
 32 31  2  0
 33 34  2  0
 34 26  1  0
 34 29  1  0
 35 36  1  0
 35 24  1  0
 37 35  2  0
M  END
$$$$
