WMW.pdb
     RDKit          3D

 37 40  0  0  1  0  0  0  0  0999 V2000
    7.4559  -21.4746   21.2339 N   0  0  0  0  0  0  0  0  0  0  0  0
    7.1420  -20.3625   22.1574 C   0  0  1  0  0  0  0  0  0  0  0  0
    7.4535  -20.9120   23.5365 C   0  0  0  0  0  0  0  0  0  0  0  0
    7.2208  -19.9273   24.6213 C   0  0  0  0  0  0  0  0  0  0  0  0
    5.9776  -19.3890   24.9593 C   0  0  0  0  0  0  0  0  0  0  0  0
    6.1293  -18.5626   26.0036 N   0  0  0  0  0  0  0  0  0  0  0  0
    7.4250  -18.5342   26.3673 C   0  0  0  0  0  0  0  0  0  0  0  0
    8.0579  -17.8241   27.3819 C   0  0  0  0  0  0  0  0  0  0  0  0
    9.4188  -17.9564   27.5540 C   0  0  0  0  0  0  0  0  0  0  0  0
   10.1103  -18.7973   26.7042 C   0  0  0  0  0  0  0  0  0  0  0  0
    9.4636  -19.4967   25.6990 C   0  0  0  0  0  0  0  0  0  0  0  0
    8.1086  -19.3776   25.5145 C   0  0  0  0  0  0  0  0  0  0  0  0
    7.9632  -19.2164   21.7579 C   0  0  0  0  0  0  0  0  0  0  0  0
    9.1525  -19.3797   21.3541 O   0  0  0  0  0  0  0  0  0  0  0  0
    6.1754  -12.6123   20.3992 C   0  0  0  0  0  0  0  0  0  0  0  0
    7.4343  -13.4383   19.3683 S   0  0  0  0  0  0  0  0  0  0  0  0
    8.4531  -14.5024   20.4628 C   0  0  0  0  0  0  0  0  0  0  0  0
    7.6013  -15.6763   20.8268 C   0  0  0  0  0  0  0  0  0  0  0  0
    8.3821  -16.7219   21.6270 C   0  0  2  0  0  0  0  0  0  0  0  0
    7.5075  -17.8662   21.7842 N   0  0  0  0  0  0  0  0  0  0  0  0
    8.8129  -16.1596   22.9276 C   0  0  0  0  0  0  0  0  0  0  0  0
    8.1166  -15.2411   23.4370 O   0  0  0  0  0  0  0  0  0  0  0  0
    9.9530  -16.5892   23.6288 N   0  0  0  0  0  0  0  0  0  0  0  0
   10.7925  -15.5790   24.3085 C   0  0  1  0  0  0  0  0  0  0  0  0
   10.2544  -15.3331   25.6765 C   0  0  0  0  0  0  0  0  0  0  0  0
    8.8426  -14.9832   25.7963 C   0  0  0  0  0  0  0  0  0  0  0  0
    7.7872  -15.8590   25.4963 C   0  0  0  0  0  0  0  0  0  0  0  0
    6.6123  -15.2330   25.6768 N   0  0  0  0  0  0  0  0  0  0  0  0
    6.8268  -13.9865   26.0821 C   0  0  0  0  0  0  0  0  0  0  0  0
    5.9533  -12.9759   26.4073 C   0  0  0  0  0  0  0  0  0  0  0  0
    6.4735  -11.7571   26.8267 C   0  0  0  0  0  0  0  0  0  0  0  0
    7.8495  -11.5550   26.9185 C   0  0  0  0  0  0  0  0  0  0  0  0
    8.6667  -12.5996   26.5799 C   0  0  0  0  0  0  0  0  0  0  0  0
    8.1961  -13.8248   26.1585 C   0  0  0  0  0  0  0  0  0  0  0  0
   12.1641  -16.0963   24.2997 C   0  0  0  0  0  0  0  0  0  0  0  0
   13.1993  -15.2856   24.7347 O   0  0  0  0  0  0  0  0  0  0  0  0
   12.4973  -17.2526   23.9175 O   0  0  0  0  0  0  0  0  0  0  0  0
  2  1  1  6
  3  2  1  0
  4  5  2  0
  4  3  1  0
  6  5  1  0
  7 12  2  0
  7  6  1  0
  8  7  1  0
  9 10  1  0
  9  8  2  0
 10 11  2  0
 11 12  1  0
 12  4  1  0
 13  2  1  0
 14 13  2  0
 16 17  1  0
 16 15  1  0
 17 18  1  0
 19 18  1  1
 19 21  1  0
 19 20  1  0
 20 13  1  0
 21 22  2  0
 23 24  1  0
 23 21  1  0
 25 26  1  0
 24 25  1  1
 26 27  2  0
 27 28  1  0
 29 28  1  0
 30 29  2  0
 31 30  1  0
 32 33  1  0
 32 31  2  0
 33 34  2  0
 34 26  1  0
 34 29  1  0
 35 36  1  0
 35 24  1  0
 37 35  2  0
M  END
$$$$
