FMR.pdb
     RDKit          3D

 31 31  0  0  1  0  0  0  0  0999 V2000
    5.7913  -17.9132   25.6818 N   0  0  0  0  0  0  0  0  0  0  0  0
    6.3869  -16.6252   25.3859 C   0  0  1  0  0  0  0  0  0  0  0  0
    7.2381  -16.1169   26.5243 C   0  0  0  0  0  0  0  0  0  0  0  0
    7.2227  -14.6381   26.6153 C   0  0  0  0  0  0  0  0  0  0  0  0
    6.0119  -14.0039   26.4361 C   0  0  0  0  0  0  0  0  0  0  0  0
    5.9031  -12.6459   26.5021 C   0  0  0  0  0  0  0  0  0  0  0  0
    7.0291  -11.8866   26.7539 C   0  0  0  0  0  0  0  0  0  0  0  0
    8.2304  -12.5198   26.9314 C   0  0  0  0  0  0  0  0  0  0  0  0
    8.3495  -13.8867   26.8667 C   0  0  0  0  0  0  0  0  0  0  0  0
    7.2421  -16.6630   24.1863 C   0  0  0  0  0  0  0  0  0  0  0  0
    7.6939  -17.7574   23.8017 O   0  0  0  0  0  0  0  0  0  0  0  0
    6.7979  -12.3087   19.4464 C   0  0  0  0  0  0  0  0  0  0  0  0
    8.5295  -12.7904   19.2771 S   0  0  0  0  0  0  0  0  0  0  0  0
    8.8106  -14.3569   20.1511 C   0  0  0  0  0  0  0  0  0  0  0  0
    8.0394  -14.3438   21.4293 C   0  0  0  0  0  0  0  0  0  0  0  0
    8.2505  -15.6151   22.2053 C   0  0  2  0  0  0  0  0  0  0  0  0
    7.5450  -15.4994   23.4886 N   0  0  0  0  0  0  0  0  0  0  0  0
    9.6842  -15.7254   22.5716 C   0  0  0  0  0  0  0  0  0  0  0  0
   10.0883  -15.0629   23.5734 O   0  0  0  0  0  0  0  0  0  0  0  0
   12.7472  -23.0745   24.4170 N   0  0  0  0  0  0  0  0  0  0  0  0
   12.9320  -22.3037   23.2525 C   0  0  0  0  0  0  0  0  0  0  0  0
   12.4508  -22.6452   22.0985 N   0  0  0  0  0  0  0  0  0  0  0  0
   13.6814  -21.1020   23.3706 N   0  0  0  0  0  0  0  0  0  0  0  0
   13.7162  -20.2206   22.1845 C   0  0  0  0  0  0  0  0  0  0  0  0
   13.4300  -18.8567   22.6677 C   0  0  0  0  0  0  0  0  0  0  0  0
   12.1933  -18.2466   22.1961 C   0  0  0  0  0  0  0  0  0  0  0  0
   11.9119  -16.8317   22.5259 C   0  0  2  0  0  0  0  0  0  0  0  0
   10.5906  -16.5203   21.8760 N   0  0  0  0  0  0  0  0  0  0  0  0
   12.8084  -15.7700   22.1594 C   0  0  0  0  0  0  0  0  0  0  0  0
   13.6699  -15.2939   22.9235 O   0  0  0  0  0  0  0  0  0  0  0  0
   12.7606  -15.1967   20.8831 O   0  0  0  0  0  0  0  0  0  0  0  0
  2  1  1  1
  2  3  1  0
  3  4  1  0
  4  9  2  0
  4  5  1  0
  5  6  2  0
  6  7  1  0
  8  7  2  0
  9  8  1  0
 10  2  1  0
 10 17  1  0
 11 10  2  0
 12 13  1  0
 13 14  1  0
 16 15  1  6
 15 14  1  0
 16 17  1  0
 18 16  1  0
 19 18  2  0
 20 21  1  0
 21 22  2  0
 23 21  1  0
 24 23  1  0
 24 25  1  0
 25 26  1  0
 27 28  1  0
 27 26  1  6
 28 18  1  0
 29 27  1  0
 30 29  2  0
 31 29  1  0
M  END
$$$$
