FMR.pdb
     RDKit          3D

 31 31  0  0  1  0  0  0  0  0999 V2000
   10.6744  -16.6344   20.9354 N   0  0  0  0  0  0  0  0  0  0  0  0
    9.7014  -15.7292   21.5144 C   0  0  1  0  0  0  0  0  0  0  0  0
    8.3505  -15.8459   20.8510 C   0  0  0  0  0  0  0  0  0  0  0  0
    7.9014  -14.5592   20.2696 C   0  0  0  0  0  0  0  0  0  0  0  0
    6.6958  -14.5515   19.6010 C   0  0  0  0  0  0  0  0  0  0  0  0
    6.2039  -13.4128   19.0338 C   0  0  0  0  0  0  0  0  0  0  0  0
    6.9271  -12.2400   19.1297 C   0  0  0  0  0  0  0  0  0  0  0  0
    8.1244  -12.2512   19.7945 C   0  0  0  0  0  0  0  0  0  0  0  0
    8.6276  -13.3931   20.3688 C   0  0  0  0  0  0  0  0  0  0  0  0
    9.5007  -15.9654   22.9552 C   0  0  0  0  0  0  0  0  0  0  0  0
   10.3035  -16.6964   23.5643 O   0  0  0  0  0  0  0  0  0  0  0  0
    6.7491  -10.5144   26.9966 C   0  0  0  0  0  0  0  0  0  0  0  0
    6.4485  -12.2909   26.8825 S   0  0  0  0  0  0  0  0  0  0  0  0
    7.6249  -13.0303   25.7137 C   0  0  0  0  0  0  0  0  0  0  0  0
    7.3176  -14.4843   25.5717 C   0  0  0  0  0  0  0  0  0  0  0  0
    8.5202  -15.2504   25.0921 C   0  0  2  0  0  0  0  0  0  0  0  0
    8.4340  -15.3851   23.6318 N   0  0  0  0  0  0  0  0  0  0  0  0
    8.4435  -16.6409   25.6045 C   0  0  0  0  0  0  0  0  0  0  0  0
    7.6294  -17.4317   25.0407 O   0  0  0  0  0  0  0  0  0  0  0  0
   13.1858  -20.4595   21.3313 N   0  0  0  0  0  0  0  0  0  0  0  0
   13.1583  -21.4730   22.3093 C   0  0  0  0  0  0  0  0  0  0  0  0
   13.7478  -22.6167   22.1546 N   0  0  0  0  0  0  0  0  0  0  0  0
   12.4478  -21.2085   23.5113 N   0  0  0  0  0  0  0  0  0  0  0  0
   11.7515  -19.9076   23.5998 C   0  0  0  0  0  0  0  0  0  0  0  0
   11.1674  -19.8363   24.9523 C   0  0  0  0  0  0  0  0  0  0  0  0
   10.4338  -18.6203   25.2798 C   0  0  0  0  0  0  0  0  0  0  0  0
    9.7467  -18.5186   26.5865 C   0  0  2  0  0  0  0  0  0  0  0  0
    9.2220  -17.1098   26.6586 N   0  0  0  0  0  0  0  0  0  0  0  0
   10.4275  -18.7656   27.8278 C   0  0  0  0  0  0  0  0  0  0  0  0
   11.0746  -17.9007   28.4489 O   0  0  0  0  0  0  0  0  0  0  0  0
   10.3979  -20.0316   28.4248 O   0  0  0  0  0  0  0  0  0  0  0  0
  2  1  1  6
  2  3  1  0
  3  4  1  0
  4  9  2  0
  4  5  1  0
  5  6  2  0
  6  7  1  0
  8  7  2  0
  9  8  1  0
 10  2  1  0
 10 17  1  0
 11 10  2  0
 12 13  1  0
 13 14  1  0
 16 15  1  1
 15 14  1  0
 16 17  1  0
 18 16  1  0
 19 18  2  0
 20 21  1  0
 21 22  2  0
 23 21  1  0
 24 23  1  0
 24 25  1  0
 25 26  1  0
 27 28  1  0
 27 26  1  6
 28 18  1  0
 29 27  1  0
 30 29  2  0
 31 29  1  0
M  END
$$$$
