FMR.pdb
     RDKit          3D

 31 31  0  0  1  0  0  0  0  0999 V2000
    6.7754  -17.5878   21.2247 N   0  0  0  0  0  0  0  0  0  0  0  0
    7.2975  -16.2526   21.0105 C   0  0  1  0  0  0  0  0  0  0  0  0
    6.2636  -15.3254   20.4188 C   0  0  0  0  0  0  0  0  0  0  0  0
    6.8307  -13.9979   20.0848 C   0  0  0  0  0  0  0  0  0  0  0  0
    7.3465  -13.8290   18.8176 C   0  0  0  0  0  0  0  0  0  0  0  0
    7.8890  -12.6416   18.4224 C   0  0  0  0  0  0  0  0  0  0  0  0
    7.9237  -11.5832   19.3092 C   0  0  0  0  0  0  0  0  0  0  0  0
    7.4104  -11.7544   20.5673 C   0  0  0  0  0  0  0  0  0  0  0  0
    6.8622  -12.9464   20.9739 C   0  0  0  0  0  0  0  0  0  0  0  0
    7.7781  -15.6298   22.2569 C   0  0  0  0  0  0  0  0  0  0  0  0
    7.8058  -14.3879   22.3391 O   0  0  0  0  0  0  0  0  0  0  0  0
    7.1963  -12.3089   27.3793 C   0  0  0  0  0  0  0  0  0  0  0  0
    6.2295  -12.8515   25.9546 S   0  0  0  0  0  0  0  0  0  0  0  0
    7.3154  -13.7028   24.7744 C   0  0  0  0  0  0  0  0  0  0  0  0
    7.5455  -15.0997   25.2483 C   0  0  0  0  0  0  0  0  0  0  0  0
    8.7054  -15.7338   24.5303 C   0  0  2  0  0  0  0  0  0  0  0  0
    8.1960  -16.4093   23.3293 N   0  0  0  0  0  0  0  0  0  0  0  0
    9.2566  -16.8249   25.3716 C   0  0  0  0  0  0  0  0  0  0  0  0
    8.7128  -17.9663   25.2855 O   0  0  0  0  0  0  0  0  0  0  0  0
   12.0355  -14.5159   20.3075 N   0  0  0  0  0  0  0  0  0  0  0  0
   13.0808  -15.4467   20.4675 C   0  0  0  0  0  0  0  0  0  0  0  0
   14.1630  -15.4192   19.7548 N   0  0  0  0  0  0  0  0  0  0  0  0
   12.9215  -16.4511   21.4601 N   0  0  0  0  0  0  0  0  0  0  0  0
   13.1829  -16.0511   22.8589 C   0  0  0  0  0  0  0  0  0  0  0  0
   12.4481  -17.0044   23.7114 C   0  0  0  0  0  0  0  0  0  0  0  0
   12.4458  -16.7280   25.1425 C   0  0  0  0  0  0  0  0  0  0  0  0
   11.5559  -17.5094   26.0297 C   0  0  2  0  0  0  0  0  0  0  0  0
   10.3354  -16.6528   26.2340 N   0  0  0  0  0  0  0  0  0  0  0  0
   11.9717  -17.9468   27.3340 C   0  0  0  0  0  0  0  0  0  0  0  0
   11.7195  -17.3294   28.3865 O   0  0  0  0  0  0  0  0  0  0  0  0
   12.7047  -19.1285   27.4965 O   0  0  0  0  0  0  0  0  0  0  0  0
  2  1  1  1
  2  3  1  0
  3  4  1  0
  4  9  2  0
  4  5  1  0
  5  6  2  0
  6  7  1  0
  8  7  2  0
  9  8  1  0
 10  2  1  0
 10 17  1  0
 11 10  2  0
 12 13  1  0
 13 14  1  0
 16 15  1  1
 15 14  1  0
 16 17  1  0
 18 16  1  0
 19 18  2  0
 20 21  1  0
 21 22  2  0
 23 21  1  0
 24 23  1  0
 24 25  1  0
 25 26  1  0
 27 28  1  0
 27 26  1  1
 28 18  1  0
 29 27  1  0
 30 29  2  0
 31 29  1  0
M  END
$$$$
