FMR.pdb
     RDKit          3D

 31 31  0  0  1  0  0  0  0  0999 V2000
    9.6855  -17.5894   20.7675 N   0  0  0  0  0  0  0  0  0  0  0  0
    9.1692  -16.4026   21.4206 C   0  0  1  0  0  0  0  0  0  0  0  0
    7.7101  -16.1716   21.1102 C   0  0  0  0  0  0  0  0  0  0  0  0
    7.4774  -14.8556   20.4703 C   0  0  0  0  0  0  0  0  0  0  0  0
    8.5592  -14.0102   20.3464 C   0  0  0  0  0  0  0  0  0  0  0  0
    8.4384  -12.7795   19.7709 C   0  0  0  0  0  0  0  0  0  0  0  0
    7.2064  -12.3684   19.3009 C   0  0  0  0  0  0  0  0  0  0  0  0
    6.1339  -13.2107   19.4256 C   0  0  0  0  0  0  0  0  0  0  0  0
    6.2460  -14.4517   20.0036 C   0  0  0  0  0  0  0  0  0  0  0  0
    9.2973  -16.4668   22.8874 C   0  0  0  0  0  0  0  0  0  0  0  0
   10.2406  -17.1105   23.3831 O   0  0  0  0  0  0  0  0  0  0  0  0
    7.0589  -11.6542   27.3063 C   0  0  0  0  0  0  0  0  0  0  0  0
    6.3079  -12.2581   25.7797 S   0  0  0  0  0  0  0  0  0  0  0  0
    7.5038  -13.2885   24.8827 C   0  0  0  0  0  0  0  0  0  0  0  0
    7.7358  -14.5450   25.6547 C   0  0  0  0  0  0  0  0  0  0  0  0
    8.8319  -15.3692   25.0363 C   0  0  2  0  0  0  0  0  0  0  0  0
    8.3834  -15.8215   23.7125 N   0  0  0  0  0  0  0  0  0  0  0  0
    9.0021  -16.6156   25.8232 C   0  0  0  0  0  0  0  0  0  0  0  0
    7.9861  -17.3569   25.9785 O   0  0  0  0  0  0  0  0  0  0  0  0
   13.5010  -21.3634   23.6390 N   0  0  0  0  0  0  0  0  0  0  0  0
   12.6967  -20.7738   22.6440 C   0  0  0  0  0  0  0  0  0  0  0  0
   12.9814  -20.8347   21.3811 N   0  0  0  0  0  0  0  0  0  0  0  0
   11.5258  -20.0875   23.0654 N   0  0  0  0  0  0  0  0  0  0  0  0
   11.1524  -20.2217   24.4893 C   0  0  0  0  0  0  0  0  0  0  0  0
   11.7550  -19.0724   25.1904 C   0  0  0  0  0  0  0  0  0  0  0  0
   11.5087  -18.9842   26.6242 C   0  0  0  0  0  0  0  0  0  0  0  0
   10.2767  -18.3223   27.1081 C   0  0  2  0  0  0  0  0  0  0  0  0
   10.2151  -17.0042   26.3844 N   0  0  0  0  0  0  0  0  0  0  0  0
   10.0610  -18.0355   28.4998 C   0  0  0  0  0  0  0  0  0  0  0  0
    9.7175  -18.8894   29.3396 O   0  0  0  0  0  0  0  0  0  0  0  0
   10.2322  -16.7398   29.0019 O   0  0  0  0  0  0  0  0  0  0  0  0
  2  1  1  6
  2  3  1  0
  3  4  1  0
  4  9  2  0
  4  5  1  0
  5  6  2  0
  6  7  1  0
  8  7  2  0
  9  8  1  0
 10  2  1  0
 10 17  1  0
 11 10  2  0
 12 13  1  0
 13 14  1  0
 16 15  1  1
 15 14  1  0
 16 17  1  0
 18 16  1  0
 19 18  2  0
 20 21  1  0
 21 22  2  0
 23 21  1  0
 24 23  1  0
 24 25  1  0
 25 26  1  0
 27 28  1  0
 27 26  1  1
 28 18  1  0
 29 27  1  0
 30 29  2  0
 31 29  1  0
M  END
$$$$
