FMR.pdb
     RDKit          3D

 31 31  0  0  1  0  0  0  0  0999 V2000
    4.2844  -17.7691   23.8263 N   0  0  0  0  0  0  0  0  0  0  0  0
    5.2589  -17.6929   22.7558 C   0  0  1  0  0  0  0  0  0  0  0  0
    4.6370  -17.2598   21.4502 C   0  0  0  0  0  0  0  0  0  0  0  0
    3.5980  -18.2085   20.9854 C   0  0  0  0  0  0  0  0  0  0  0  0
    3.9050  -19.5520   21.0188 C   0  0  0  0  0  0  0  0  0  0  0  0
    3.0102  -20.4968   20.6101 C   0  0  0  0  0  0  0  0  0  0  0  0
    1.7684  -20.1020   20.1521 C   0  0  0  0  0  0  0  0  0  0  0  0
    1.4667  -18.7665   20.1202 C   0  0  0  0  0  0  0  0  0  0  0  0
    2.3614  -17.8080   20.5298 C   0  0  0  0  0  0  0  0  0  0  0  0
    6.3489  -16.7467   23.0536 C   0  0  0  0  0  0  0  0  0  0  0  0
    6.3916  -15.6634   22.4415 O   0  0  0  0  0  0  0  0  0  0  0  0
    7.2647  -11.4243   26.1836 C   0  0  0  0  0  0  0  0  0  0  0  0
    6.2760  -12.8716   26.6158 S   0  0  0  0  0  0  0  0  0  0  0  0
    7.3272  -14.3519   26.5932 C   0  0  0  0  0  0  0  0  0  0  0  0
    6.7843  -15.3163   25.5913 C   0  0  0  0  0  0  0  0  0  0  0  0
    7.8902  -15.9552   24.7963 C   0  0  2  0  0  0  0  0  0  0  0  0
    7.3189  -17.0508   24.0018 N   0  0  0  0  0  0  0  0  0  0  0  0
    8.8351  -16.6182   25.7288 C   0  0  0  0  0  0  0  0  0  0  0  0
    8.3462  -17.3534   26.6379 O   0  0  0  0  0  0  0  0  0  0  0  0
   14.7457  -19.7467   20.6046 N   0  0  0  0  0  0  0  0  0  0  0  0
   13.3567  -19.7774   20.3717 C   0  0  0  0  0  0  0  0  0  0  0  0
   12.8055  -20.5682   19.5053 N   0  0  0  0  0  0  0  0  0  0  0  0
   12.5423  -18.8949   21.1316 N   0  0  0  0  0  0  0  0  0  0  0  0
   13.2144  -18.1207   22.1964 C   0  0  0  0  0  0  0  0  0  0  0  0
   12.5378  -18.4708   23.4594 C   0  0  0  0  0  0  0  0  0  0  0  0
   11.7078  -17.4345   24.0607 C   0  0  0  0  0  0  0  0  0  0  0  0
   11.0446  -17.6990   25.3569 C   0  0  2  0  0  0  0  0  0  0  0  0
   10.2170  -16.4753   25.6445 N   0  0  0  0  0  0  0  0  0  0  0  0
   11.7910  -17.9785   26.5528 C   0  0  0  0  0  0  0  0  0  0  0  0
   11.9860  -17.1468   27.4599 O   0  0  0  0  0  0  0  0  0  0  0  0
   12.3557  -19.2412   26.7695 O   0  0  0  0  0  0  0  0  0  0  0  0
  2  1  1  1
  2  3  1  0
  3  4  1  0
  4  9  2  0
  4  5  1  0
  5  6  2  0
  6  7  1  0
  8  7  2  0
  9  8  1  0
 10  2  1  0
 10 17  1  0
 11 10  2  0
 12 13  1  0
 13 14  1  0
 16 15  1  1
 15 14  1  0
 16 17  1  0
 18 16  1  0
 19 18  2  0
 20 21  1  0
 21 22  2  0
 23 21  1  0
 24 23  1  0
 24 25  1  0
 25 26  1  0
 27 28  1  0
 27 26  1  6
 28 18  1  0
 29 27  1  0
 30 29  2  0
 31 29  1  0
M  END
$$$$
