FMR.pdb
     RDKit          3D

 31 31  0  0  1  0  0  0  0  0999 V2000
    6.1696  -17.3532   25.8555 N   0  0  0  0  0  0  0  0  0  0  0  0
    6.7125  -16.1405   25.2760 C   0  0  1  0  0  0  0  0  0  0  0  0
    7.6723  -15.4438   26.2100 C   0  0  0  0  0  0  0  0  0  0  0  0
    7.2915  -14.0322   26.4500 C   0  0  0  0  0  0  0  0  0  0  0  0
    8.1965  -13.2358   27.1186 C   0  0  0  0  0  0  0  0  0  0  0  0
    7.9308  -11.9245   27.3838 C   0  0  0  0  0  0  0  0  0  0  0  0
    6.7293  -11.3796   26.9747 C   0  0  0  0  0  0  0  0  0  0  0  0
    5.8326  -12.1736   26.3107 C   0  0  0  0  0  0  0  0  0  0  0  0
    6.0915  -13.4950   26.0393 C   0  0  0  0  0  0  0  0  0  0  0  0
    7.4364  -16.3935   24.0175 C   0  0  0  0  0  0  0  0  0  0  0  0
    7.8155  -17.5514   23.7618 O   0  0  0  0  0  0  0  0  0  0  0  0
    8.3448  -11.6913   19.7512 C   0  0  0  0  0  0  0  0  0  0  0  0
    7.0353  -12.8598   19.3283 S   0  0  0  0  0  0  0  0  0  0  0  0
    7.0187  -14.2144   20.5373 C   0  0  0  0  0  0  0  0  0  0  0  0
    8.4150  -14.4669   21.0012 C   0  0  0  0  0  0  0  0  0  0  0  0
    8.4773  -15.6597   21.9157 C   0  0  2  0  0  0  0  0  0  0  0  0
    7.6963  -15.3610   23.1236 N   0  0  0  0  0  0  0  0  0  0  0  0
    9.8704  -15.8262   22.3987 C   0  0  0  0  0  0  0  0  0  0  0  0
   10.3676  -14.8913   23.0949 O   0  0  0  0  0  0  0  0  0  0  0  0
   11.4463  -21.8146   25.7174 N   0  0  0  0  0  0  0  0  0  0  0  0
   12.2486  -21.3979   26.7978 C   0  0  0  0  0  0  0  0  0  0  0  0
   12.3169  -22.0495   27.9161 N   0  0  0  0  0  0  0  0  0  0  0  0
   13.0089  -20.2087   26.6329 N   0  0  0  0  0  0  0  0  0  0  0  0
   12.2735  -19.0053   26.1901 C   0  0  0  0  0  0  0  0  0  0  0  0
   12.5299  -18.8662   24.7443 C   0  0  0  0  0  0  0  0  0  0  0  0
   11.4911  -18.2097   23.9605 C   0  0  0  0  0  0  0  0  0  0  0  0
   11.8746  -17.1887   22.9604 C   0  0  2  0  0  0  0  0  0  0  0  0
   10.6417  -16.9532   22.1300 N   0  0  0  0  0  0  0  0  0  0  0  0
   12.9567  -17.3937   22.0371 C   0  0  0  0  0  0  0  0  0  0  0  0
   14.1537  -17.4663   22.3755 O   0  0  0  0  0  0  0  0  0  0  0  0
   12.7154  -17.5281   20.6646 O   0  0  0  0  0  0  0  0  0  0  0  0
  2  1  1  1
  2  3  1  0
  3  4  1  0
  4  9  2  0
  4  5  1  0
  5  6  2  0
  6  7  1  0
  8  7  2  0
  9  8  1  0
 10  2  1  0
 10 17  1  0
 11 10  2  0
 12 13  1  0
 13 14  1  0
 16 15  1  6
 15 14  1  0
 16 17  1  0
 18 16  1  0
 19 18  2  0
 20 21  1  0
 21 22  2  0
 23 21  1  0
 24 23  1  0
 24 25  1  0
 25 26  1  0
 27 28  1  0
 27 26  1  6
 28 18  1  0
 29 27  1  0
 30 29  2  0
 31 29  1  0
M  END
$$$$
