FMR.pdb
     RDKit          3D

 31 31  0  0  1  0  0  0  0  0999 V2000
    5.6604  -18.3214   25.0390 N   0  0  0  0  0  0  0  0  0  0  0  0
    6.1661  -16.9640   25.0943 C   0  0  1  0  0  0  0  0  0  0  0  0
    6.9600  -16.7032   26.3514 C   0  0  0  0  0  0  0  0  0  0  0  0
    7.1025  -15.2552   26.6310 C   0  0  0  0  0  0  0  0  0  0  0  0
    8.3815  -14.7461   26.7048 C   0  0  0  0  0  0  0  0  0  0  0  0
    8.6083  -13.4252   26.9581 C   0  0  0  0  0  0  0  0  0  0  0  0
    7.5349  -12.5764   27.1454 C   0  0  0  0  0  0  0  0  0  0  0  0
    6.2656  -13.0854   27.0714 C   0  0  0  0  0  0  0  0  0  0  0  0
    6.0277  -14.4141   26.8167 C   0  0  0  0  0  0  0  0  0  0  0  0
    7.0409  -16.6426   23.9526 C   0  0  0  0  0  0  0  0  0  0  0  0
    7.9038  -17.4688   23.6024 O   0  0  0  0  0  0  0  0  0  0  0  0
    8.6922  -11.6182   18.1308 C   0  0  0  0  0  0  0  0  0  0  0  0
    7.6172  -12.0614   19.5118 S   0  0  0  0  0  0  0  0  0  0  0  0
    8.2718  -13.5396   20.3385 C   0  0  0  0  0  0  0  0  0  0  0  0
    7.3986  -13.8697   21.5036 C   0  0  0  0  0  0  0  0  0  0  0  0
    7.7813  -15.1906   22.1134 C   0  0  2  0  0  0  0  0  0  0  0  0
    6.9118  -15.4377   23.2713 N   0  0  0  0  0  0  0  0  0  0  0  0
    9.1470  -15.0822   22.6834 C   0  0  0  0  0  0  0  0  0  0  0  0
    9.2531  -14.7121   23.8908 O   0  0  0  0  0  0  0  0  0  0  0  0
   13.7797  -18.7705   26.5621 N   0  0  0  0  0  0  0  0  0  0  0  0
   12.5273  -18.7907   27.2067 C   0  0  0  0  0  0  0  0  0  0  0  0
   12.3953  -18.9761   28.4827 N   0  0  0  0  0  0  0  0  0  0  0  0
   11.3708  -18.5963   26.4042 N   0  0  0  0  0  0  0  0  0  0  0  0
   11.4767  -18.9810   24.9809 C   0  0  0  0  0  0  0  0  0  0  0  0
   12.0042  -17.8031   24.2668 C   0  0  0  0  0  0  0  0  0  0  0  0
   11.0359  -17.0063   23.5239 C   0  0  0  0  0  0  0  0  0  0  0  0
   11.5090  -15.8624   22.7131 C   0  0  2  0  0  0  0  0  0  0  0  0
   10.3007  -15.3729   21.9611 N   0  0  0  0  0  0  0  0  0  0  0  0
   12.5652  -15.9965   21.7477 C   0  0  0  0  0  0  0  0  0  0  0  0
   13.7582  -16.1957   22.0470 O   0  0  0  0  0  0  0  0  0  0  0  0
   12.3009  -15.9086   20.3757 O   0  0  0  0  0  0  0  0  0  0  0  0
  2  1  1  6
  2  3  1  0
  3  4  1  0
  4  9  2  0
  4  5  1  0
  5  6  2  0
  6  7  1  0
  8  7  2  0
  9  8  1  0
 10  2  1  0
 10 17  1  0
 11 10  2  0
 12 13  1  0
 13 14  1  0
 16 15  1  1
 15 14  1  0
 16 17  1  0
 18 16  1  0
 19 18  2  0
 20 21  1  0
 21 22  2  0
 23 21  1  0
 24 23  1  0
 24 25  1  0
 25 26  1  0
 27 28  1  0
 27 26  1  6
 28 18  1  0
 29 27  1  0
 30 29  2  0
 31 29  1  0
M  END
$$$$
