TIK.pdb
     RDKit          3D

 25 24  0  0  1  0  0  0  0  0999 V2000
   20.1829  -12.8936  -18.5598 C   0  0  0  0  0  0  0  0  0  0  0  0
   20.0421  -14.0224  -17.5500 C   0  0  1  0  0  0  0  0  0  0  0  0
   19.5044  -15.1480  -18.1345 O   0  0  0  0  0  0  0  0  0  0  0  0
   21.3979  -14.2559  -16.9524 C   0  0  2  0  0  0  0  0  0  0  0  0
   21.4393  -15.4165  -16.1081 N   0  0  0  0  0  0  0  0  0  0  0  0
   21.9023  -13.0805  -16.1931 C   0  0  0  0  0  0  0  0  0  0  0  0
   21.3983  -12.7759  -15.0692 O   0  0  0  0  0  0  0  0  0  0  0  0
   27.2064  -11.7619  -15.6901 C   0  0  0  0  0  0  0  0  0  0  0  0
   25.7294  -11.9403  -15.5381 C   0  0  0  0  0  0  0  0  0  0  0  0
   24.8759  -10.8643  -16.0814 C   0  0  2  0  0  0  0  0  0  0  0  0
   25.2101   -9.5906  -15.2867 C   0  0  0  0  0  0  0  0  0  0  0  0
   23.4042  -11.0608  -15.9539 C   0  0  2  0  0  0  0  0  0  0  0  0
   22.9488  -12.2452  -16.6587 N   0  0  0  0  0  0  0  0  0  0  0  0
   22.6257   -9.8567  -16.3213 C   0  0  0  0  0  0  0  0  0  0  0  0
   22.7066   -9.4964  -17.5360 O   0  0  0  0  0  0  0  0  0  0  0  0
   21.8341   -9.1180  -15.4413 N   0  0  0  0  0  0  0  0  0  0  0  0
   21.1373   -7.9330  -15.9590 C   0  0  1  0  0  0  0  0  0  0  0  0
   19.6750   -7.9761  -15.5630 C   0  0  0  0  0  0  0  0  0  0  0  0
   18.8914   -6.8084  -16.0775 C   0  0  0  0  0  0  0  0  0  0  0  0
   17.4517   -6.8482  -15.6234 C   0  0  0  0  0  0  0  0  0  0  0  0
   16.7137   -7.9597  -16.3143 C   0  0  0  0  0  0  0  0  0  0  0  0
   15.2928   -7.8447  -16.0923 N   0  0  0  0  0  0  0  0  0  0  0  0
   21.8398   -6.7326  -15.4441 C   0  0  0  0  0  0  0  0  0  0  0  0
   21.7790   -5.4758  -16.0230 O   0  0  0  0  0  0  0  0  0  0  0  0
   22.5698   -6.7983  -14.3942 O   0  0  0  0  0  0  0  0  0  0  0  0
  2  1  1  6
  2  3  1  0
  4  5  1  1
  4  2  1  0
  6  4  1  0
  7  6  2  0
  8  9  1  0
 10 11  1  1
 10  9  1  0
 10 12  1  0
 12 13  1  6
 13  6  1  0
 14 12  1  0
 14 15  2  0
 16 14  1  0
 17 16  1  0
 17 18  1  1
 19 18  1  0
 20 19  1  0
 21 20  1  0
 22 21  1  0
 23 24  1  0
 23 17  1  0
 25 23  2  0
M  END
$$$$
