TIK.pdb
     RDKit          3D

 25 24  0  0  1  0  0  0  0  0999 V2000
   22.7789  -21.4093  -10.4812 C   0  0  0  0  0  0  0  0  0  0  0  0
   23.5715  -20.6837   -9.4047 C   0  0  1  0  0  0  0  0  0  0  0  0
   23.3289  -21.2228   -8.1604 O   0  0  0  0  0  0  0  0  0  0  0  0
   25.0167  -20.7400   -9.8026 C   0  0  2  0  0  0  0  0  0  0  0  0
   25.8861  -20.1631   -8.8164 N   0  0  0  0  0  0  0  0  0  0  0  0
   25.2763  -20.0982  -11.1191 C   0  0  0  0  0  0  0  0  0  0  0  0
   25.4185  -18.8402  -11.2049 O   0  0  0  0  0  0  0  0  0  0  0  0
   28.4326  -20.4567  -16.2323 C   0  0  0  0  0  0  0  0  0  0  0  0
   27.1510  -20.0348  -15.5871 C   0  0  0  0  0  0  0  0  0  0  0  0
   26.8670  -20.6006  -14.2527 C   0  0  2  0  0  0  0  0  0  0  0  0
   26.8089  -22.1282  -14.4232 C   0  0  0  0  0  0  0  0  0  0  0  0
   25.5745  -20.2016  -13.6276 C   0  0  2  0  0  0  0  0  0  0  0  0
   25.3797  -20.8255  -12.3316 N   0  0  0  0  0  0  0  0  0  0  0  0
   24.4131  -20.3985  -14.5239 C   0  0  0  0  0  0  0  0  0  0  0  0
   23.9263  -21.5707  -14.5474 O   0  0  0  0  0  0  0  0  0  0  0  0
   23.8401  -19.4052  -15.3188 N   0  0  0  0  0  0  0  0  0  0  0  0
   22.5462  -19.6836  -15.9561 C   0  0  1  0  0  0  0  0  0  0  0  0
   21.8223  -18.3850  -16.2506 C   0  0  0  0  0  0  0  0  0  0  0  0
   20.5083  -18.5872  -16.9397 C   0  0  0  0  0  0  0  0  0  0  0  0
   19.8901  -17.2799  -17.3750 C   0  0  0  0  0  0  0  0  0  0  0  0
   18.5435  -17.5175  -17.9976 C   0  0  0  0  0  0  0  0  0  0  0  0
   17.8934  -16.2661  -18.3017 N   0  0  0  0  0  0  0  0  0  0  0  0
   22.8044  -20.4898  -17.1738 C   0  0  0  0  0  0  0  0  0  0  0  0
   21.9570  -21.4695  -17.6639 O   0  0  0  0  0  0  0  0  0  0  0  0
   23.8687  -20.3153  -17.8640 O   0  0  0  0  0  0  0  0  0  0  0  0
  2  1  1  6
  2  3  1  0
  4  5  1  1
  4  2  1  0
  6  4  1  0
  7  6  2  0
  8  9  1  0
 10 11  1  6
 10  9  1  0
 10 12  1  0
 12 13  1  1
 13  6  1  0
 14 12  1  0
 14 15  2  0
 16 14  1  0
 17 16  1  0
 17 18  1  6
 19 18  1  0
 20 19  1  0
 21 20  1  0
 22 21  1  0
 23 24  1  0
 23 17  1  0
 25 23  2  0
M  END
$$$$
