TIK.pdb
     RDKit          3D

 25 24  0  0  1  0  0  0  0  0999 V2000
   21.4507   -8.0322  -19.9716 C   0  0  0  0  0  0  0  0  0  0  0  0
   21.5196   -9.5230  -20.2652 C   0  0  1  0  0  0  0  0  0  0  0  0
   22.1667   -9.7655  -21.4570 O   0  0  0  0  0  0  0  0  0  0  0  0
   22.1810  -10.1777  -19.0888 C   0  0  2  0  0  0  0  0  0  0  0  0
   22.4106  -11.5804  -19.2915 N   0  0  0  0  0  0  0  0  0  0  0  0
   21.4251   -9.9838  -17.8224 C   0  0  0  0  0  0  0  0  0  0  0  0
   20.3874  -10.6728  -17.5804 O   0  0  0  0  0  0  0  0  0  0  0  0
   23.2829  -10.3308  -12.9279 C   0  0  0  0  0  0  0  0  0  0  0  0
   22.3726  -10.2290  -14.1101 C   0  0  0  0  0  0  0  0  0  0  0  0
   21.8069   -8.8945  -14.3937 C   0  0  2  0  0  0  0  0  0  0  0  0
   20.8488   -8.5651  -13.2365 C   0  0  0  0  0  0  0  0  0  0  0  0
   21.0076   -8.7684  -15.6451 C   0  0  2  0  0  0  0  0  0  0  0  0
   21.8006   -9.0446  -16.8291 N   0  0  0  0  0  0  0  0  0  0  0  0
   20.2854   -7.4801  -15.7431 C   0  0  0  0  0  0  0  0  0  0  0  0
   21.0139   -6.4422  -15.8055 O   0  0  0  0  0  0  0  0  0  0  0  0
   18.8973   -7.3425  -15.7699 N   0  0  0  0  0  0  0  0  0  0  0  0
   18.3340   -5.9955  -15.9311 C   0  0  1  0  0  0  0  0  0  0  0  0
   17.1529   -6.0365  -16.8800 C   0  0  0  0  0  0  0  0  0  0  0  0
   16.4824   -4.7075  -17.0424 C   0  0  0  0  0  0  0  0  0  0  0  0
   15.2242   -4.8057  -17.8719 C   0  0  0  0  0  0  0  0  0  0  0  0
   14.5752   -3.4569  -18.0029 C   0  0  0  0  0  0  0  0  0  0  0  0
   13.3004   -3.5662  -18.6694 N   0  0  0  0  0  0  0  0  0  0  0  0
   17.9751   -5.4896  -14.5839 C   0  0  0  0  0  0  0  0  0  0  0  0
   17.9588   -4.1525  -14.2234 O   0  0  0  0  0  0  0  0  0  0  0  0
   17.6486   -6.2963  -13.6446 O   0  0  0  0  0  0  0  0  0  0  0  0
  2  1  1  1
  2  3  1  0
  4  5  1  6
  4  2  1  0
  6  4  1  0
  7  6  2  0
  8  9  1  0
 10 11  1  1
 10  9  1  0
 10 12  1  0
 12 13  1  6
 13  6  1  0
 14 12  1  0
 14 15  2  0
 16 14  1  0
 17 16  1  0
 17 18  1  6
 19 18  1  0
 20 19  1  0
 21 20  1  0
 22 21  1  0
 23 24  1  0
 23 17  1  0
 25 23  2  0
M  END
$$$$
