TIK.pdb
     RDKit          3D

 25 24  0  0  1  0  0  0  0  0999 V2000
   22.5856  -22.0125  -12.1153 C   0  0  0  0  0  0  0  0  0  0  0  0
   22.3776  -21.2300  -10.8277 C   0  0  1  0  0  0  0  0  0  0  0  0
   21.4338  -21.8339  -10.0261 O   0  0  0  0  0  0  0  0  0  0  0  0
   23.7176  -21.0968  -10.1669 C   0  0  2  0  0  0  0  0  0  0  0  0
   23.6300  -20.5569   -8.8395 N   0  0  0  0  0  0  0  0  0  0  0  0
   24.6737  -20.2825  -10.9640 C   0  0  0  0  0  0  0  0  0  0  0  0
   24.7099  -19.0210  -10.8328 O   0  0  0  0  0  0  0  0  0  0  0  0
   29.8922  -21.0112  -11.1996 C   0  0  0  0  0  0  0  0  0  0  0  0
   28.4876  -20.5075  -11.2992 C   0  0  0  0  0  0  0  0  0  0  0  0
   27.8806  -20.5086  -12.6456 C   0  0  2  0  0  0  0  0  0  0  0  0
   28.7030  -19.5313  -13.5025 C   0  0  0  0  0  0  0  0  0  0  0  0
   26.4654  -20.0498  -12.7326 C   0  0  2  0  0  0  0  0  0  0  0  0
   25.5825  -20.8428  -11.8967 N   0  0  0  0  0  0  0  0  0  0  0  0
   25.9750  -19.9469  -14.1253 C   0  0  0  0  0  0  0  0  0  0  0  0
   25.8173  -21.0477  -14.7378 O   0  0  0  0  0  0  0  0  0  0  0  0
   25.6852  -18.7515  -14.7839 N   0  0  0  0  0  0  0  0  0  0  0  0
   24.8756  -18.8096  -16.0082 C   0  0  1  0  0  0  0  0  0  0  0  0
   23.5404  -18.1295  -15.7807 C   0  0  0  0  0  0  0  0  0  0  0  0
   22.6786  -18.1009  -17.0049 C   0  0  0  0  0  0  0  0  0  0  0  0
   21.4126  -17.3066  -16.7877 C   0  0  0  0  0  0  0  0  0  0  0  0
   20.5661  -17.3182  -18.0291 C   0  0  0  0  0  0  0  0  0  0  0  0
   19.3108  -16.6460  -17.7975 N   0  0  0  0  0  0  0  0  0  0  0  0
   25.6614  -18.1880  -17.1016 C   0  0  0  0  0  0  0  0  0  0  0  0
   25.5181  -18.4917  -18.4453 O   0  0  0  0  0  0  0  0  0  0  0  0
   26.5506  -17.3017  -16.8500 O   0  0  0  0  0  0  0  0  0  0  0  0
  2  1  1  6
  2  3  1  0
  4  5  1  1
  4  2  1  0
  6  4  1  0
  7  6  2  0
  8  9  1  0
 10 11  1  6
 10  9  1  0
 10 12  1  0
 12 13  1  1
 13  6  1  0
 14 12  1  0
 14 15  2  0
 16 14  1  0
 17 16  1  0
 17 18  1  1
 19 18  1  0
 20 19  1  0
 21 20  1  0
 22 21  1  0
 23 24  1  0
 23 17  1  0
 25 23  2  0
M  END
$$$$
