TIK.pdb
     RDKit          3D

 25 24  0  0  1  0  0  0  0  0999 V2000
   28.5256  -18.5283  -15.9795 C   0  0  0  0  0  0  0  0  0  0  0  0
   27.2571  -19.1529  -15.4188 C   0  0  1  0  0  0  0  0  0  0  0  0
   26.3356  -19.3868  -16.4158 O   0  0  0  0  0  0  0  0  0  0  0  0
   27.6613  -20.3958  -14.6828 C   0  0  2  0  0  0  0  0  0  0  0  0
   28.1557  -21.4218  -15.5571 N   0  0  0  0  0  0  0  0  0  0  0  0
   26.5637  -20.9523  -13.8472 C   0  0  0  0  0  0  0  0  0  0  0  0
   25.9137  -21.9711  -14.2340 O   0  0  0  0  0  0  0  0  0  0  0  0
   26.6997  -20.5923   -8.3298 C   0  0  0  0  0  0  0  0  0  0  0  0
   26.3685  -21.1524   -9.6764 C   0  0  0  0  0  0  0  0  0  0  0  0
   25.2053  -20.5614  -10.3684 C   0  0  2  0  0  0  0  0  0  0  0  0
   23.9493  -21.1154   -9.6746 C   0  0  0  0  0  0  0  0  0  0  0  0
   25.0610  -20.8888  -11.8150 C   0  0  2  0  0  0  0  0  0  0  0  0
   26.1801  -20.3997  -12.5994 N   0  0  0  0  0  0  0  0  0  0  0  0
   23.7576  -20.4681  -12.3763 C   0  0  0  0  0  0  0  0  0  0  0  0
   23.5830  -19.2156  -12.4879 O   0  0  0  0  0  0  0  0  0  0  0  0
   22.7423  -21.3374  -12.7768 N   0  0  0  0  0  0  0  0  0  0  0  0
   21.5391  -20.7648  -13.3950 C   0  0  1  0  0  0  0  0  0  0  0  0
   20.9139  -21.7691  -14.3424 C   0  0  0  0  0  0  0  0  0  0  0  0
   19.6480  -21.2753  -14.9716 C   0  0  0  0  0  0  0  0  0  0  0  0
   19.0298  -22.3068  -15.8850 C   0  0  0  0  0  0  0  0  0  0  0  0
   17.8321  -21.7344  -16.5890 C   0  0  0  0  0  0  0  0  0  0  0  0
   17.2585  -22.7032  -17.4910 N   0  0  0  0  0  0  0  0  0  0  0  0
   20.6223  -20.3508  -12.3051 C   0  0  0  0  0  0  0  0  0  0  0  0
   19.8183  -19.2236  -12.3381 O   0  0  0  0  0  0  0  0  0  0  0  0
   20.5226  -21.0423  -11.2321 O   0  0  0  0  0  0  0  0  0  0  0  0
  2  1  1  6
  2  3  1  0
  4  5  1  6
  4  2  1  0
  6  4  1  0
  7  6  2  0
  8  9  1  0
 10 11  1  1
 10  9  1  0
 10 12  1  0
 12 13  1  6
 13  6  1  0
 14 12  1  0
 14 15  2  0
 16 14  1  0
 17 16  1  0
 17 18  1  6
 19 18  1  0
 20 19  1  0
 21 20  1  0
 22 21  1  0
 23 24  1  0
 23 17  1  0
 25 23  2  0
M  END
$$$$
