TIK.pdb
     RDKit          3D

 25 24  0  0  1  0  0  0  0  0999 V2000
   28.4205  -18.6025  -16.5333 C   0  0  0  0  0  0  0  0  0  0  0  0
   27.1903  -19.1966  -15.8646 C   0  0  1  0  0  0  0  0  0  0  0  0
   26.2341  -19.5375  -16.7958 O   0  0  0  0  0  0  0  0  0  0  0  0
   27.6520  -20.3595  -15.0373 C   0  0  2  0  0  0  0  0  0  0  0  0
   28.1795  -21.4316  -15.8334 N   0  0  0  0  0  0  0  0  0  0  0  0
   26.5862  -20.8907  -14.1459 C   0  0  0  0  0  0  0  0  0  0  0  0
   26.0012  -21.9823  -14.4221 O   0  0  0  0  0  0  0  0  0  0  0  0
   26.8528  -20.0627   -8.7897 C   0  0  0  0  0  0  0  0  0  0  0  0
   26.3930  -20.8263   -9.9906 C   0  0  0  0  0  0  0  0  0  0  0  0
   25.2246  -20.2811  -10.7111 C   0  0  2  0  0  0  0  0  0  0  0  0
   23.9738  -20.7877   -9.9731 C   0  0  0  0  0  0  0  0  0  0  0  0
   25.0694  -20.7025  -12.1321 C   0  0  2  0  0  0  0  0  0  0  0  0
   26.1637  -20.2341  -12.9627 N   0  0  0  0  0  0  0  0  0  0  0  0
   23.7473  -20.3526  -12.6982 C   0  0  0  0  0  0  0  0  0  0  0  0
   23.4984  -19.1113  -12.7932 O   0  0  0  0  0  0  0  0  0  0  0  0
   22.7893  -21.2752  -13.1199 N   0  0  0  0  0  0  0  0  0  0  0  0
   21.5388  -20.7655  -13.6980 C   0  0  1  0  0  0  0  0  0  0  0  0
   21.0493  -21.7021  -14.7844 C   0  0  0  0  0  0  0  0  0  0  0  0
   19.8403  -21.1884  -15.5032 C   0  0  0  0  0  0  0  0  0  0  0  0
   19.3893  -22.1281  -16.5960 C   0  0  0  0  0  0  0  0  0  0  0  0
   18.2744  -21.5111  -17.3921 C   0  0  0  0  0  0  0  0  0  0  0  0
   17.7755  -22.4397  -18.3770 N   0  0  0  0  0  0  0  0  0  0  0  0
   20.5623  -20.6014  -12.5939 C   0  0  0  0  0  0  0  0  0  0  0  0
   19.5727  -19.6333  -12.5553 O   0  0  0  0  0  0  0  0  0  0  0  0
   20.5845  -21.3782  -11.5762 O   0  0  0  0  0  0  0  0  0  0  0  0
  2  1  1  6
  2  3  1  0
  4  5  1  6
  4  2  1  0
  6  4  1  0
  7  6  2  0
  8  9  1  0
 10 11  1  1
 10  9  1  0
 10 12  1  0
 12 13  1  6
 13  6  1  0
 14 12  1  0
 14 15  2  0
 16 14  1  0
 17 16  1  0
 17 18  1  6
 19 18  1  0
 20 19  1  0
 21 20  1  0
 22 21  1  0
 23 24  1  0
 23 17  1  0
 25 23  2  0
M  END
$$$$
