TIK.pdb
     RDKit          3D

 25 24  0  0  1  0  0  0  0  0999 V2000
   26.1288  -19.2124  -16.3527 C   0  0  0  0  0  0  0  0  0  0  0  0
   27.0724  -20.3523  -16.7045 C   0  0  1  0  0  0  0  0  0  0  0  0
   28.0050  -19.9556  -17.6376 O   0  0  0  0  0  0  0  0  0  0  0  0
   27.6852  -20.8338  -15.4228 C   0  0  2  0  0  0  0  0  0  0  0  0
   28.6503  -21.8769  -15.6273 N   0  0  0  0  0  0  0  0  0  0  0  0
   26.6706  -21.2926  -14.4367 C   0  0  0  0  0  0  0  0  0  0  0  0
   26.2156  -22.4761  -14.4847 O   0  0  0  0  0  0  0  0  0  0  0  0
   26.9752  -20.2792   -9.1208 C   0  0  0  0  0  0  0  0  0  0  0  0
   26.5800  -20.9379  -10.4040 C   0  0  0  0  0  0  0  0  0  0  0  0
   25.3943  -20.3864  -11.0905 C   0  0  2  0  0  0  0  0  0  0  0  0
   24.1702  -20.7859  -10.2492 C   0  0  0  0  0  0  0  0  0  0  0  0
   25.1351  -20.8904  -12.4687 C   0  0  2  0  0  0  0  0  0  0  0  0
   26.1577  -20.4644  -13.4067 N   0  0  0  0  0  0  0  0  0  0  0  0
   23.7700  -20.5819  -12.9505 C   0  0  0  0  0  0  0  0  0  0  0  0
   23.4648  -19.3503  -12.9934 O   0  0  0  0  0  0  0  0  0  0  0  0
   22.8290  -21.5326  -13.3472 N   0  0  0  0  0  0  0  0  0  0  0  0
   21.5438  -21.0604  -13.8793 C   0  0  1  0  0  0  0  0  0  0  0  0
   20.9765  -22.0794  -14.8472 C   0  0  0  0  0  0  0  0  0  0  0  0
   20.3409  -23.2501  -14.1634 C   0  0  0  0  0  0  0  0  0  0  0  0
   21.0770  -24.5384  -14.4447 C   0  0  0  0  0  0  0  0  0  0  0  0
   20.4274  -25.2770  -15.5805 C   0  0  0  0  0  0  0  0  0  0  0  0
   21.1192  -26.5147  -15.8469 N   0  0  0  0  0  0  0  0  0  0  0  0
   20.6465  -20.7950  -12.7287 C   0  0  0  0  0  0  0  0  0  0  0  0
   19.5088  -20.0071  -12.7827 O   0  0  0  0  0  0  0  0  0  0  0  0
   20.8871  -21.3011  -11.5773 O   0  0  0  0  0  0  0  0  0  0  0  0
  2  1  1  1
  2  3  1  0
  4  5  1  6
  4  2  1  0
  6  4  1  0
  7  6  2  0
  8  9  1  0
 10 11  1  1
 10  9  1  0
 10 12  1  0
 12 13  1  6
 13  6  1  0
 14 12  1  0
 14 15  2  0
 16 14  1  0
 17 16  1  0
 17 18  1  6
 19 18  1  0
 20 19  1  0
 21 20  1  0
 22 21  1  0
 23 24  1  0
 23 17  1  0
 25 23  2  0
M  END
$$$$
