TIK.pdb
     RDKit          3D

 25 24  0  0  1  0  0  0  0  0999 V2000
   21.3532  -13.6567  -18.9931 C   0  0  0  0  0  0  0  0  0  0  0  0
   20.9630  -14.8581  -18.1458 C   0  0  1  0  0  0  0  0  0  0  0  0
   20.4966  -15.8896  -18.9309 O   0  0  0  0  0  0  0  0  0  0  0  0
   22.1627  -15.2332  -17.3271 C   0  0  2  0  0  0  0  0  0  0  0  0
   21.9581  -16.4292  -16.5595 N   0  0  0  0  0  0  0  0  0  0  0  0
   22.6054  -14.1400  -16.4208 C   0  0  0  0  0  0  0  0  0  0  0  0
   21.9610  -13.8847  -15.3579 O   0  0  0  0  0  0  0  0  0  0  0  0
   27.8566  -13.1588  -15.2532 C   0  0  0  0  0  0  0  0  0  0  0  0
   26.3640  -13.2505  -15.2317 C   0  0  0  0  0  0  0  0  0  0  0  0
   25.6241  -12.0827  -15.7514 C   0  0  2  0  0  0  0  0  0  0  0  0
   25.8961  -10.9196  -14.7824 C   0  0  0  0  0  0  0  0  0  0  0  0
   24.1425  -12.2214  -15.8305 C   0  0  2  0  0  0  0  0  0  0  0  0
   23.7429  -13.3328  -16.6743 N   0  0  0  0  0  0  0  0  0  0  0  0
   23.4625  -10.9612  -16.2053 C   0  0  0  0  0  0  0  0  0  0  0  0
   23.7047  -10.5299  -17.3745 O   0  0  0  0  0  0  0  0  0  0  0  0
   22.5996  -10.2424  -15.3774 N   0  0  0  0  0  0  0  0  0  0  0  0
   21.9815   -9.0206  -15.9092 C   0  0  1  0  0  0  0  0  0  0  0  0
   20.4852   -9.2152  -16.0518 C   0  0  0  0  0  0  0  0  0  0  0  0
   19.7713   -7.9784  -16.5021 C   0  0  0  0  0  0  0  0  0  0  0  0
   18.2748   -8.1748  -16.5520 C   0  0  0  0  0  0  0  0  0  0  0  0
   17.6014   -6.9444  -17.0907 C   0  0  0  0  0  0  0  0  0  0  0  0
   16.1680   -7.1077  -17.0966 N   0  0  0  0  0  0  0  0  0  0  0  0
   22.3343   -7.9017  -15.0019 C   0  0  0  0  0  0  0  0  0  0  0  0
   22.4654   -6.5803  -15.3953 O   0  0  0  0  0  0  0  0  0  0  0  0
   22.5456   -8.1077  -13.7559 O   0  0  0  0  0  0  0  0  0  0  0  0
  2  1  1  6
  2  3  1  0
  4  5  1  1
  4  2  1  0
  6  4  1  0
  7  6  2  0
  8  9  1  0
 10 11  1  1
 10  9  1  0
 10 12  1  0
 12 13  1  6
 13  6  1  0
 14 12  1  0
 14 15  2  0
 16 14  1  0
 17 16  1  0
 17 18  1  1
 19 18  1  0
 20 19  1  0
 21 20  1  0
 22 21  1  0
 23 24  1  0
 23 17  1  0
 25 23  2  0
M  END
$$$$
