DAH.pdb
     RDKit          3D

 24 24  0  0  1  0  0  0  0  0999 V2000
    9.4907  -14.7356   18.9710 N   0  0  0  0  0  0  0  0  0  0  0  0
    8.3411  -14.0654   19.5358 C   0  0  1  0  0  0  0  0  0  0  0  0
    7.2924  -13.9748   18.4603 C   0  0  0  0  0  0  0  0  0  0  0  0
    7.9586  -13.7242   17.1687 C   0  0  0  0  0  0  0  0  0  0  0  0
    8.1918  -14.6841   16.4040 O   0  0  0  0  0  0  0  0  0  0  0  0
    7.8626  -14.7764   20.7379 C   0  0  0  0  0  0  0  0  0  0  0  0
    6.8409  -14.3536   21.3375 O   0  0  0  0  0  0  0  0  0  0  0  0
    8.3401  -12.4563   16.7644 O   0  0  0  0  0  0  0  0  0  0  0  0
    8.4879  -18.1537   22.2448 C   0  0  0  0  0  0  0  0  0  0  0  0
    8.0828  -16.6912   22.3612 C   0  0  2  0  0  0  0  0  0  0  0  0
    8.5140  -15.9182   21.2397 N   0  0  0  0  0  0  0  0  0  0  0  0
    8.7494  -16.1657   23.5819 C   0  0  0  0  0  0  0  0  0  0  0  0
    9.9210  -15.7041   23.5333 O   0  0  0  0  0  0  0  0  0  0  0  0
    8.1174  -16.1536   24.8479 N   0  0  0  0  0  0  0  0  0  0  0  0
    8.7138  -15.5277   26.0328 C   0  0  1  0  0  0  0  0  0  0  0  0
    7.5494  -14.9037   26.7705 C   0  0  0  0  0  0  0  0  0  0  0  0
    7.2372  -13.5782   26.2233 C   0  0  0  0  0  0  0  0  0  0  0  0
    6.4497  -12.6601   26.8922 C   0  0  0  0  0  0  0  0  0  0  0  0
    6.3773  -11.5788   26.1112 N   0  0  0  0  0  0  0  0  0  0  0  0
    7.0889  -11.7988   24.9919 C   0  0  0  0  0  0  0  0  0  0  0  0
    7.6151  -13.0306   25.0674 N   0  0  0  0  0  0  0  0  0  0  0  0
    9.3399  -16.5219   26.9129 C   0  0  0  0  0  0  0  0  0  0  0  0
   10.1745  -16.2503   27.9572 O   0  0  0  0  0  0  0  0  0  0  0  0
    9.0856  -17.7511   26.6866 O   0  0  0  0  0  0  0  0  0  0  0  0
  2  1  1  6
  2  3  1  0
  3  4  1  0
  4  8  1  0
  5  4  2  0
  6 11  1  0
  6  2  1  0
  7  6  2  0
 10  9  1  6
 10 12  1  0
 10 11  1  0
 12 14  1  0
 13 12  2  0
 14 15  1  0
 15 22  1  0
 15 16  1  1
 17 16  1  0
 17 18  2  0
 19 18  1  0
 20 19  1  0
 21 20  2  0
 21 17  1  0
 22 23  1  0
 24 22  2  0
M  END
$$$$
