DAH.pdb
     RDKit          3D

 24 24  0  0  1  0  0  0  0  0999 V2000
    9.3594  -15.6440   14.1817 N   0  0  0  0  0  0  0  0  0  0  0  0
    9.0442  -16.1369   15.5036 C   0  0  1  0  0  0  0  0  0  0  0  0
    9.3428  -17.6117   15.5232 C   0  0  0  0  0  0  0  0  0  0  0  0
    8.2777  -18.3208   14.7901 C   0  0  0  0  0  0  0  0  0  0  0  0
    8.3010  -19.5685   14.7320 O   0  0  0  0  0  0  0  0  0  0  0  0
    9.7975  -15.3906   16.5308 C   0  0  0  0  0  0  0  0  0  0  0  0
   11.0151  -15.1391   16.3400 O   0  0  0  0  0  0  0  0  0  0  0  0
    7.2424  -17.6543   14.1573 O   0  0  0  0  0  0  0  0  0  0  0  0
    8.8495  -13.6357   19.7647 C   0  0  0  0  0  0  0  0  0  0  0  0
    9.8338  -14.1526   18.7252 C   0  0  2  0  0  0  0  0  0  0  0  0
    9.1969  -14.9478   17.7237 N   0  0  0  0  0  0  0  0  0  0  0  0
   10.8089  -15.0046   19.4559 C   0  0  0  0  0  0  0  0  0  0  0  0
   10.6350  -16.2487   19.5570 O   0  0  0  0  0  0  0  0  0  0  0  0
   11.9694  -14.4768   20.0700 N   0  0  0  0  0  0  0  0  0  0  0  0
   12.9569  -15.3113   20.7626 C   0  0  1  0  0  0  0  0  0  0  0  0
   14.1752  -14.4270   20.9146 C   0  0  0  0  0  0  0  0  0  0  0  0
   14.8854  -14.2960   19.6371 C   0  0  0  0  0  0  0  0  0  0  0  0
   14.6363  -15.1201   18.5557 C   0  0  0  0  0  0  0  0  0  0  0  0
   15.4522  -14.7213   17.5761 N   0  0  0  0  0  0  0  0  0  0  0  0
   16.1902  -13.6866   18.0150 C   0  0  0  0  0  0  0  0  0  0  0  0
   15.8363  -13.4304   19.2835 N   0  0  0  0  0  0  0  0  0  0  0  0
   12.4955  -15.6976   22.1016 C   0  0  0  0  0  0  0  0  0  0  0  0
   13.1176  -16.5785   22.9369 O   0  0  0  0  0  0  0  0  0  0  0  0
   11.4173  -15.1663   22.5284 O   0  0  0  0  0  0  0  0  0  0  0  0
  2  1  1  6
  2  3  1  0
  3  4  1  0
  4  8  1  0
  5  4  2  0
  6 11  1  0
  6  2  1  0
  7  6  2  0
 10  9  1  1
 10 12  1  0
 10 11  1  0
 12 14  1  0
 13 12  2  0
 14 15  1  0
 15 22  1  0
 15 16  1  1
 17 16  1  0
 17 18  2  0
 19 18  1  0
 20 19  1  0
 21 20  2  0
 21 17  1  0
 22 23  1  0
 24 22  2  0
M  END
$$$$
