DAH.pdb
     RDKit          3D

 24 24  0  0  1  0  0  0  0  0999 V2000
   12.0615  -15.4824   16.7478 N   0  0  0  0  0  0  0  0  0  0  0  0
   12.9338  -15.1019   17.8360 C   0  0  1  0  0  0  0  0  0  0  0  0
   13.9916  -14.1906   17.2747 C   0  0  0  0  0  0  0  0  0  0  0  0
   14.8241  -14.9568   16.3289 C   0  0  0  0  0  0  0  0  0  0  0  0
   15.1038  -16.1471   16.5851 O   0  0  0  0  0  0  0  0  0  0  0  0
   12.1620  -14.4734   18.9264 C   0  0  0  0  0  0  0  0  0  0  0  0
   12.7650  -14.0680   19.9531 O   0  0  0  0  0  0  0  0  0  0  0  0
   15.3135  -14.4061   15.1568 O   0  0  0  0  0  0  0  0  0  0  0  0
    8.7181  -13.0686   19.3763 C   0  0  0  0  0  0  0  0  0  0  0  0
    9.9380  -13.8082   19.9067 C   0  0  2  0  0  0  0  0  0  0  0  0
   10.7661  -14.3110   18.8566 N   0  0  0  0  0  0  0  0  0  0  0  0
    9.4229  -14.9590   20.6946 C   0  0  0  0  0  0  0  0  0  0  0  0
    8.8615  -15.9342   20.1271 O   0  0  0  0  0  0  0  0  0  0  0  0
    9.5312  -15.0248   22.1040 N   0  0  0  0  0  0  0  0  0  0  0  0
   10.1359  -16.1614   22.8068 C   0  0  1  0  0  0  0  0  0  0  0  0
   11.5996  -16.1198   22.4262 C   0  0  0  0  0  0  0  0  0  0  0  0
   12.3051  -17.2984   22.9428 C   0  0  0  0  0  0  0  0  0  0  0  0
   11.6574  -18.4778   23.2593 C   0  0  0  0  0  0  0  0  0  0  0  0
   12.5956  -19.3236   23.6941 N   0  0  0  0  0  0  0  0  0  0  0  0
   13.7907  -18.7087   23.6561 C   0  0  0  0  0  0  0  0  0  0  0  0
   13.6046  -17.4633   23.1931 N   0  0  0  0  0  0  0  0  0  0  0  0
   10.0322  -16.0143   24.2637 C   0  0  0  0  0  0  0  0  0  0  0  0
   10.2604  -14.8687   24.9684 O   0  0  0  0  0  0  0  0  0  0  0  0
    9.6999  -17.0453   24.9371 O   0  0  0  0  0  0  0  0  0  0  0  0
  2  1  1  6
  2  3  1  0
  3  4  1  0
  4  8  1  0
  5  4  2  0
  6 11  1  0
  6  2  1  0
  7  6  2  0
 10  9  1  6
 10 12  1  0
 10 11  1  0
 12 14  1  0
 13 12  2  0
 14 15  1  0
 15 22  1  0
 15 16  1  1
 17 16  1  0
 17 18  2  0
 19 18  1  0
 20 19  1  0
 21 20  2  0
 21 17  1  0
 22 23  1  0
 24 22  2  0
M  END
$$$$
