DAH.pdb
     RDKit          3D

 24 24  0  0  1  0  0  0  0  0999 V2000
    8.6767  -17.4782   16.9488 N   0  0  0  0  0  0  0  0  0  0  0  0
    7.7361  -17.0341   17.9526 C   0  0  1  0  0  0  0  0  0  0  0  0
    7.0701  -18.2560   18.5254 C   0  0  0  0  0  0  0  0  0  0  0  0
    6.3071  -18.9253   17.4557 C   0  0  0  0  0  0  0  0  0  0  0  0
    5.3968  -18.3009   16.8705 O   0  0  0  0  0  0  0  0  0  0  0  0
    8.4169  -16.2227   18.9812 C   0  0  0  0  0  0  0  0  0  0  0  0
    9.5587  -16.5673   19.3808 O   0  0  0  0  0  0  0  0  0  0  0  0
    6.5602  -20.2303   17.0689 O   0  0  0  0  0  0  0  0  0  0  0  0
    7.5145  -13.0805   20.9305 C   0  0  0  0  0  0  0  0  0  0  0  0
    8.3952  -14.2691   20.5725 C   0  0  2  0  0  0  0  0  0  0  0  0
    7.8291  -15.0699   19.5336 N   0  0  0  0  0  0  0  0  0  0  0  0
    8.5039  -15.0978   21.8021 C   0  0  0  0  0  0  0  0  0  0  0  0
    7.5256  -15.7762   22.2156 O   0  0  0  0  0  0  0  0  0  0  0  0
    9.6923  -15.1717   22.5667 N   0  0  0  0  0  0  0  0  0  0  0  0
    9.7770  -15.8858   23.8451 C   0  0  1  0  0  0  0  0  0  0  0  0
   11.2101  -16.3637   23.9293 C   0  0  0  0  0  0  0  0  0  0  0  0
   11.3981  -17.5858   23.1388 C   0  0  0  0  0  0  0  0  0  0  0  0
   10.3635  -18.2054   22.4633 C   0  0  0  0  0  0  0  0  0  0  0  0
   10.8886  -19.2749   21.8592 N   0  0  0  0  0  0  0  0  0  0  0  0
   12.2025  -19.3340   22.1381 C   0  0  0  0  0  0  0  0  0  0  0  0
   12.5091  -18.2920   22.9256 N   0  0  0  0  0  0  0  0  0  0  0  0
    9.5192  -14.9933   24.9818 C   0  0  0  0  0  0  0  0  0  0  0  0
    9.2959  -15.3848   26.2693 O   0  0  0  0  0  0  0  0  0  0  0  0
    9.5007  -13.7387   24.7524 O   0  0  0  0  0  0  0  0  0  0  0  0
  2  1  1  6
  2  3  1  0
  3  4  1  0
  4  8  1  0
  5  4  2  0
  6 11  1  0
  6  2  1  0
  7  6  2  0
 10  9  1  1
 10 12  1  0
 10 11  1  0
 12 14  1  0
 13 12  2  0
 14 15  1  0
 15 22  1  0
 15 16  1  1
 17 16  1  0
 17 18  2  0
 19 18  1  0
 20 19  1  0
 21 20  2  0
 21 17  1  0
 22 23  1  0
 24 22  2  0
M  END
$$$$
