DAH.pdb
     RDKit          3D

 24 24  0  0  1  0  0  0  0  0999 V2000
    9.7927  -12.8848   19.2146 N   0  0  0  0  0  0  0  0  0  0  0  0
    8.3920  -13.1908   19.4000 C   0  0  1  0  0  0  0  0  0  0  0  0
    7.7626  -13.2888   18.0366 C   0  0  0  0  0  0  0  0  0  0  0  0
    8.5591  -14.2168   17.2125 C   0  0  0  0  0  0  0  0  0  0  0  0
    9.5458  -14.7920   17.7187 O   0  0  0  0  0  0  0  0  0  0  0  0
    8.2294  -14.4264   20.1915 C   0  0  0  0  0  0  0  0  0  0  0  0
    7.0717  -14.8529   20.4361 O   0  0  0  0  0  0  0  0  0  0  0  0
    8.2556  -14.4797   15.8876 O   0  0  0  0  0  0  0  0  0  0  0  0
   10.3363  -17.3380   21.1371 C   0  0  0  0  0  0  0  0  0  0  0  0
    9.2563  -16.3255   21.4909 C   0  0  2  0  0  0  0  0  0  0  0  0
    9.3318  -15.1483   20.6849 N   0  0  0  0  0  0  0  0  0  0  0  0
    9.4863  -15.9430   22.9091 C   0  0  0  0  0  0  0  0  0  0  0  0
   10.3983  -15.1315   23.2222 O   0  0  0  0  0  0  0  0  0  0  0  0
    8.7076  -16.4592   23.9718 N   0  0  0  0  0  0  0  0  0  0  0  0
    8.9729  -16.1496   25.3808 C   0  0  1  0  0  0  0  0  0  0  0  0
    7.6072  -15.9352   25.9956 C   0  0  0  0  0  0  0  0  0  0  0  0
    7.1933  -14.5330   25.8671 C   0  0  0  0  0  0  0  0  0  0  0  0
    8.0294  -13.5494   25.3731 C   0  0  0  0  0  0  0  0  0  0  0  0
    7.3335  -12.4094   25.3975 N   0  0  0  0  0  0  0  0  0  0  0  0
    6.1056  -12.6566   25.8865 C   0  0  0  0  0  0  0  0  0  0  0  0
    6.0264  -13.9648   26.1733 N   0  0  0  0  0  0  0  0  0  0  0  0
    9.6193  -17.2734   26.0695 C   0  0  0  0  0  0  0  0  0  0  0  0
   10.1685  -17.2351   27.3177 O   0  0  0  0  0  0  0  0  0  0  0  0
    9.6763  -18.3878   25.4517 O   0  0  0  0  0  0  0  0  0  0  0  0
  2  1  1  6
  2  3  1  0
  3  4  1  0
  4  8  1  0
  5  4  2  0
  6 11  1  0
  6  2  1  0
  7  6  2  0
 10  9  1  6
 10 12  1  0
 10 11  1  0
 12 14  1  0
 13 12  2  0
 14 15  1  0
 15 22  1  0
 15 16  1  1
 17 16  1  0
 17 18  2  0
 19 18  1  0
 20 19  1  0
 21 20  2  0
 21 17  1  0
 22 23  1  0
 24 22  2  0
M  END
$$$$
