DAH.pdb
     RDKit          3D

 24 24  0  0  1  0  0  0  0  0999 V2000
   11.0201  -17.3674   19.0859 N   0  0  0  0  0  0  0  0  0  0  0  0
   11.4669  -18.1901   20.1874 C   0  0  1  0  0  0  0  0  0  0  0  0
   12.9406  -18.4342   20.0054 C   0  0  0  0  0  0  0  0  0  0  0  0
   13.3843  -19.4230   21.0054 C   0  0  0  0  0  0  0  0  0  0  0  0
   12.5298  -20.0660   21.6514 O   0  0  0  0  0  0  0  0  0  0  0  0
   11.1522  -17.5470   21.4786 C   0  0  0  0  0  0  0  0  0  0  0  0
   11.7169  -16.4645   21.7809 O   0  0  0  0  0  0  0  0  0  0  0  0
   14.7223  -19.6711   21.2605 O   0  0  0  0  0  0  0  0  0  0  0  0
    8.4351  -18.0762   24.0506 C   0  0  0  0  0  0  0  0  0  0  0  0
    9.7412  -17.4641   23.5646 C   0  0  2  0  0  0  0  0  0  0  0  0
   10.2366  -18.1066   22.3887 N   0  0  0  0  0  0  0  0  0  0  0  0
   10.7287  -17.6554   24.6595 C   0  0  0  0  0  0  0  0  0  0  0  0
   11.5828  -18.5807   24.6082 O   0  0  0  0  0  0  0  0  0  0  0  0
   10.7662  -16.8236   25.8036 N   0  0  0  0  0  0  0  0  0  0  0  0
   11.7793  -16.9570   26.8559 C   0  0  1  0  0  0  0  0  0  0  0  0
   12.0128  -15.5468   27.3519 C   0  0  0  0  0  0  0  0  0  0  0  0
   10.8129  -15.0236   28.0155 C   0  0  0  0  0  0  0  0  0  0  0  0
    9.8497  -14.2904   27.3482 C   0  0  0  0  0  0  0  0  0  0  0  0
    8.9129  -13.9818   28.2492 N   0  0  0  0  0  0  0  0  0  0  0  0
    9.2647  -14.4968   29.4403 C   0  0  0  0  0  0  0  0  0  0  0  0
   10.4344  -15.1362   29.2893 N   0  0  0  0  0  0  0  0  0  0  0  0
   11.2906  -17.7674   27.9782 C   0  0  0  0  0  0  0  0  0  0  0  0
   12.0364  -18.1972   29.0365 O   0  0  0  0  0  0  0  0  0  0  0  0
   10.0603  -18.1035   27.9694 O   0  0  0  0  0  0  0  0  0  0  0  0
  2  1  1  6
  2  3  1  0
  3  4  1  0
  4  8  1  0
  5  4  2  0
  6 11  1  0
  6  2  1  0
  7  6  2  0
 10  9  1  1
 10 12  1  0
 10 11  1  0
 12 14  1  0
 13 12  2  0
 14 15  1  0
 15 22  1  0
 15 16  1  1
 17 16  1  0
 17 18  2  0
 19 18  1  0
 20 19  1  0
 21 20  2  0
 21 17  1  0
 22 23  1  0
 24 22  2  0
M  END
$$$$
