DAH.pdb
     RDKit          3D

 24 24  0  0  1  0  0  0  0  0999 V2000
   10.4626  -18.3369   21.2137 N   0  0  0  0  0  0  0  0  0  0  0  0
   11.2703  -17.1508   21.3887 C   0  0  1  0  0  0  0  0  0  0  0  0
   11.7030  -16.6887   20.0235 C   0  0  0  0  0  0  0  0  0  0  0  0
   12.7005  -17.6380   19.4959 C   0  0  0  0  0  0  0  0  0  0  0  0
   12.7649  -17.8365   18.2641 O   0  0  0  0  0  0  0  0  0  0  0  0
   10.5215  -16.1156   22.1285 C   0  0  0  0  0  0  0  0  0  0  0  0
   11.1545  -15.2368   22.7681 O   0  0  0  0  0  0  0  0  0  0  0  0
   13.5777  -18.3253   20.3173 O   0  0  0  0  0  0  0  0  0  0  0  0
    6.9889  -14.8582   22.1735 C   0  0  0  0  0  0  0  0  0  0  0  0
    8.3203  -15.1305   22.8591 C   0  0  2  0  0  0  0  0  0  0  0  0
    9.1150  -16.0775   22.1432 N   0  0  0  0  0  0  0  0  0  0  0  0
    7.9976  -15.6979   24.1949 C   0  0  0  0  0  0  0  0  0  0  0  0
    7.1468  -15.1483   24.9447 O   0  0  0  0  0  0  0  0  0  0  0  0
    8.6167  -16.8686   24.6935 N   0  0  0  0  0  0  0  0  0  0  0  0
    8.3311  -17.4195   26.0225 C   0  0  1  0  0  0  0  0  0  0  0  0
    8.0966  -18.8960   25.7892 C   0  0  0  0  0  0  0  0  0  0  0  0
    6.9508  -19.1059   24.8965 C   0  0  0  0  0  0  0  0  0  0  0  0
    6.0031  -18.1291   24.6547 C   0  0  0  0  0  0  0  0  0  0  0  0
    5.1175  -18.6585   23.8062 N   0  0  0  0  0  0  0  0  0  0  0  0
    5.4856  -19.9195   23.5196 C   0  0  0  0  0  0  0  0  0  0  0  0
    6.6141  -20.1881   24.1937 N   0  0  0  0  0  0  0  0  0  0  0  0
    9.4769  -17.2704   26.9280 C   0  0  0  0  0  0  0  0  0  0  0  0
   10.6737  -16.6967   26.6129 O   0  0  0  0  0  0  0  0  0  0  0  0
    9.3492  -17.7148   28.1167 O   0  0  0  0  0  0  0  0  0  0  0  0
  2  1  1  6
  2  3  1  0
  3  4  1  0
  4  8  1  0
  5  4  2  0
  6 11  1  0
  6  2  1  0
  7  6  2  0
 10  9  1  6
 10 12  1  0
 10 11  1  0
 12 14  1  0
 13 12  2  0
 14 15  1  0
 15 22  1  0
 15 16  1  6
 17 16  1  0
 17 18  2  0
 19 18  1  0
 20 19  1  0
 21 20  2  0
 21 17  1  0
 22 23  1  0
 24 22  2  0
M  END
$$$$
