DAH.pdb
     RDKit          3D

 24 24  0  0  1  0  0  0  0  0999 V2000
   11.3489  -15.5983   17.9744 N   0  0  0  0  0  0  0  0  0  0  0  0
   11.7552  -15.5959   19.3617 C   0  0  1  0  0  0  0  0  0  0  0  0
   12.5673  -14.3510   19.5966 C   0  0  0  0  0  0  0  0  0  0  0  0
   13.9965  -14.6820   19.4465 C   0  0  0  0  0  0  0  0  0  0  0  0
   14.3910  -15.8333   19.7285 O   0  0  0  0  0  0  0  0  0  0  0  0
   10.5783  -15.6829   20.2489 C   0  0  0  0  0  0  0  0  0  0  0  0
    9.6338  -14.8655   20.1007 O   0  0  0  0  0  0  0  0  0  0  0  0
   14.9287  -13.7603   19.0013 O   0  0  0  0  0  0  0  0  0  0  0  0
    8.9297  -18.3850   22.0513 C   0  0  0  0  0  0  0  0  0  0  0  0
    9.3104  -16.9114   22.0469 C   0  0  2  0  0  0  0  0  0  0  0  0
   10.4757  -16.6548   21.2612 N   0  0  0  0  0  0  0  0  0  0  0  0
    9.6028  -16.5480   23.4586 C   0  0  0  0  0  0  0  0  0  0  0  0
   10.7884  -16.4953   23.8826 O   0  0  0  0  0  0  0  0  0  0  0  0
    8.5837  -16.2452   24.3925 N   0  0  0  0  0  0  0  0  0  0  0  0
    8.8582  -15.9039   25.7924 C   0  0  1  0  0  0  0  0  0  0  0  0
    7.5351  -15.4158   26.3403 C   0  0  0  0  0  0  0  0  0  0  0  0
    7.3029  -14.0153   25.9683 C   0  0  0  0  0  0  0  0  0  0  0  0
    8.2384  -13.2576   25.2890 C   0  0  0  0  0  0  0  0  0  0  0  0
    7.6991  -12.0472   25.1199 N   0  0  0  0  0  0  0  0  0  0  0  0
    6.4716  -12.0344   25.6685 C   0  0  0  0  0  0  0  0  0  0  0  0
    6.2344  -13.2482   26.1885 N   0  0  0  0  0  0  0  0  0  0  0  0
    9.2732  -17.0810   26.5652 C   0  0  0  0  0  0  0  0  0  0  0  0
    9.9730  -17.0609   27.7360 O   0  0  0  0  0  0  0  0  0  0  0  0
    8.9549  -18.2279   26.1069 O   0  0  0  0  0  0  0  0  0  0  0  0
  2  1  1  6
  2  3  1  0
  3  4  1  0
  4  8  1  0
  5  4  2  0
  6 11  1  0
  6  2  1  0
  7  6  2  0
 10  9  1  1
 10 12  1  0
 10 11  1  0
 12 14  1  0
 13 12  2  0
 14 15  1  0
 15 22  1  0
 15 16  1  1
 17 16  1  0
 17 18  2  0
 19 18  1  0
 20 19  1  0
 21 20  2  0
 21 17  1  0
 22 23  1  0
 24 22  2  0
M  END
$$$$
