DAH.pdb
     RDKit          3D

 24 24  0  0  1  0  0  0  0  0999 V2000
    8.8183  -15.4017   14.2494 N   0  0  0  0  0  0  0  0  0  0  0  0
    9.3628  -15.7922   15.5303 C   0  0  1  0  0  0  0  0  0  0  0  0
   10.6643  -16.5030   15.2747 C   0  0  0  0  0  0  0  0  0  0  0  0
   10.3831  -17.7679   14.5707 C   0  0  0  0  0  0  0  0  0  0  0  0
    9.3074  -18.3643   14.7898 O   0  0  0  0  0  0  0  0  0  0  0  0
    9.5202  -14.6164   16.4093 C   0  0  0  0  0  0  0  0  0  0  0  0
   10.4441  -13.7946   16.1786 O   0  0  0  0  0  0  0  0  0  0  0  0
   11.2708  -18.3277   13.6677 O   0  0  0  0  0  0  0  0  0  0  0  0
    7.5288  -13.1337   19.2795 C   0  0  0  0  0  0  0  0  0  0  0  0
    8.7711  -13.2852   18.4133 C   0  0  2  0  0  0  0  0  0  0  0  0
    8.6671  -14.3815   17.5032 N   0  0  0  0  0  0  0  0  0  0  0  0
    9.9022  -13.5474   19.3419 C   0  0  0  0  0  0  0  0  0  0  0  0
   10.1973  -12.7275   20.2524 O   0  0  0  0  0  0  0  0  0  0  0  0
   10.6998  -14.7133   19.2588 N   0  0  0  0  0  0  0  0  0  0  0  0
   11.7777  -15.0136   20.2071 C   0  0  1  0  0  0  0  0  0  0  0  0
   11.9071  -16.5209   20.1842 C   0  0  0  0  0  0  0  0  0  0  0  0
   10.8139  -17.1482   20.9361 C   0  0  0  0  0  0  0  0  0  0  0  0
    9.9335  -16.4246   21.7184 C   0  0  0  0  0  0  0  0  0  0  0  0
    9.0809  -17.3059   22.2483 N   0  0  0  0  0  0  0  0  0  0  0  0
    9.4046  -18.5391   21.8215 C   0  0  0  0  0  0  0  0  0  0  0  0
   10.4715  -18.4347   21.0147 N   0  0  0  0  0  0  0  0  0  0  0  0
   13.0552  -14.4328   19.7761 C   0  0  0  0  0  0  0  0  0  0  0  0
   13.2597  -13.7105   18.6371 O   0  0  0  0  0  0  0  0  0  0  0  0
   14.0686  -14.6164   20.5286 O   0  0  0  0  0  0  0  0  0  0  0  0
  2  1  1  6
  2  3  1  0
  3  4  1  0
  4  8  1  0
  5  4  2  0
  6 11  1  0
  6  2  1  0
  7  6  2  0
 10  9  1  1
 10 12  1  0
 10 11  1  0
 12 14  1  0
 13 12  2  0
 14 15  1  0
 15 22  1  0
 15 16  1  6
 17 16  1  0
 17 18  2  0
 19 18  1  0
 20 19  1  0
 21 20  2  0
 21 17  1  0
 22 23  1  0
 24 22  2  0
M  END
$$$$
