DAH.pdb
     RDKit          3D

 24 24  0  0  1  0  0  0  0  0999 V2000
    9.5331  -17.6469   17.2265 N   0  0  0  0  0  0  0  0  0  0  0  0
    8.6953  -17.7814   18.3969 C   0  0  1  0  0  0  0  0  0  0  0  0
    8.6712  -19.2378   18.7752 C   0  0  0  0  0  0  0  0  0  0  0  0
    8.0756  -20.0058   17.6661 C   0  0  0  0  0  0  0  0  0  0  0  0
    7.1135  -19.5211   17.0334 O   0  0  0  0  0  0  0  0  0  0  0  0
    9.1851  -16.9181   19.4898 C   0  0  0  0  0  0  0  0  0  0  0  0
   10.4239  -16.7628   19.6435 O   0  0  0  0  0  0  0  0  0  0  0  0
    8.5432  -21.2543   17.2930 O   0  0  0  0  0  0  0  0  0  0  0  0
    7.5212  -14.7126   22.1025 C   0  0  0  0  0  0  0  0  0  0  0  0
    8.7046  -15.4213   21.4590 C   0  0  2  0  0  0  0  0  0  0  0  0
    8.3089  -16.2587   20.3712 N   0  0  0  0  0  0  0  0  0  0  0  0
    9.3101  -16.2738   22.5159 C   0  0  0  0  0  0  0  0  0  0  0  0
    8.7993  -17.3834   22.8258 O   0  0  0  0  0  0  0  0  0  0  0  0
   10.4756  -15.8950   23.2234 N   0  0  0  0  0  0  0  0  0  0  0  0
   11.0663  -16.7141   24.2872 C   0  0  1  0  0  0  0  0  0  0  0  0
   12.4783  -16.1925   24.4408 C   0  0  0  0  0  0  0  0  0  0  0  0
   13.2752  -16.4890   23.2447 C   0  0  0  0  0  0  0  0  0  0  0  0
   13.9956  -17.6596   23.0979 C   0  0  0  0  0  0  0  0  0  0  0  0
   14.5921  -17.5935   21.9044 N   0  0  0  0  0  0  0  0  0  0  0  0
   14.2654  -16.4297   21.3157 C   0  0  0  0  0  0  0  0  0  0  0  0
   13.4552  -15.7553   22.1456 N   0  0  0  0  0  0  0  0  0  0  0  0
   10.3643  -16.5321   25.5635 C   0  0  0  0  0  0  0  0  0  0  0  0
    9.3033  -15.7022   25.7795 O   0  0  0  0  0  0  0  0  0  0  0  0
   10.7780  -17.2064   26.5640 O   0  0  0  0  0  0  0  0  0  0  0  0
  2  1  1  6
  2  3  1  0
  3  4  1  0
  4  8  1  0
  5  4  2  0
  6 11  1  0
  6  2  1  0
  7  6  2  0
 10  9  1  1
 10 12  1  0
 10 11  1  0
 12 14  1  0
 13 12  2  0
 14 15  1  0
 15 22  1  0
 15 16  1  1
 17 16  1  0
 17 18  2  0
 19 18  1  0
 20 19  1  0
 21 20  2  0
 21 17  1  0
 22 23  1  0
 24 22  2  0
M  END
$$$$
