DAH.pdb
     RDKit          3D

 24 24  0  0  1  0  0  0  0  0999 V2000
    7.8392  -18.1741   19.3052 N   0  0  0  0  0  0  0  0  0  0  0  0
    8.8793  -18.1367   20.3085 C   0  0  1  0  0  0  0  0  0  0  0  0
   10.1531  -18.6102   19.6621 C   0  0  0  0  0  0  0  0  0  0  0  0
    9.9218  -19.9456   19.0810 C   0  0  0  0  0  0  0  0  0  0  0  0
    9.2329  -20.7762   19.7107 O   0  0  0  0  0  0  0  0  0  0  0  0
    9.0019  -16.7814   20.8809 C   0  0  0  0  0  0  0  0  0  0  0  0
   10.1444  -16.2766   21.0290 O   0  0  0  0  0  0  0  0  0  0  0  0
   10.4417  -20.3211   17.8540 O   0  0  0  0  0  0  0  0  0  0  0  0
    6.5722  -14.0328   21.8318 C   0  0  0  0  0  0  0  0  0  0  0  0
    7.9164  -14.7443   21.8915 C   0  0  2  0  0  0  0  0  0  0  0  0
    7.8776  -16.0297   21.2693 N   0  0  0  0  0  0  0  0  0  0  0  0
    8.2326  -14.9261   23.3329 C   0  0  0  0  0  0  0  0  0  0  0  0
    8.3788  -13.9333   24.0951 O   0  0  0  0  0  0  0  0  0  0  0  0
    8.3852  -16.2034   23.9226 N   0  0  0  0  0  0  0  0  0  0  0  0
    8.7860  -16.3955   25.3204 C   0  0  1  0  0  0  0  0  0  0  0  0
    7.5458  -16.9178   26.0122 C   0  0  0  0  0  0  0  0  0  0  0  0
    7.1449  -18.2138   25.4524 C   0  0  0  0  0  0  0  0  0  0  0  0
    7.5741  -18.6587   24.2160 C   0  0  0  0  0  0  0  0  0  0  0  0
    7.0214  -19.8606   24.0301 N   0  0  0  0  0  0  0  0  0  0  0  0
    6.2716  -20.1683   25.1029 C   0  0  0  0  0  0  0  0  0  0  0  0
    6.3521  -19.1509   25.9738 N   0  0  0  0  0  0  0  0  0  0  0  0
    9.8454  -17.4039   25.4461 C   0  0  0  0  0  0  0  0  0  0  0  0
   10.4425  -18.0670   24.4143 O   0  0  0  0  0  0  0  0  0  0  0  0
   10.2481  -17.6908   26.6218 O   0  0  0  0  0  0  0  0  0  0  0  0
  2  1  1  6
  2  3  1  0
  3  4  1  0
  4  8  1  0
  5  4  2  0
  6 11  1  0
  6  2  1  0
  7  6  2  0
 10  9  1  1
 10 12  1  0
 10 11  1  0
 12 14  1  0
 13 12  2  0
 14 15  1  0
 15 22  1  0
 15 16  1  1
 17 16  1  0
 17 18  2  0
 19 18  1  0
 20 19  1  0
 21 20  2  0
 21 17  1  0
 22 23  1  0
 24 22  2  0
M  END
$$$$
