GYF.pdb
     RDKit          3D

 28 29  0  0  1  0  0  0  0  0999 V2000
   28.1696  -19.2799  -18.6786 N   0  0  0  0  0  0  0  0  0  0  0  0
   27.6743  -18.8865  -17.3851 C   0  0  0  0  0  0  0  0  0  0  0  0
   26.6962  -19.9112  -16.9344 C   0  0  0  0  0  0  0  0  0  0  0  0
   26.0126  -20.5930  -17.7641 O   0  0  0  0  0  0  0  0  0  0  0  0
   29.2604  -25.9456  -17.3365 O   0  0  0  0  0  0  0  0  0  0  0  0
   28.4857  -25.0493  -16.5923 C   0  0  0  0  0  0  0  0  0  0  0  0
   28.9696  -23.7995  -16.2722 C   0  0  0  0  0  0  0  0  0  0  0  0
   28.2005  -22.9000  -15.5292 C   0  0  0  0  0  0  0  0  0  0  0  0
   26.9377  -23.2201  -15.0888 C   0  0  0  0  0  0  0  0  0  0  0  0
   26.1382  -22.2770  -14.3159 C   0  0  0  0  0  0  0  0  0  0  0  0
   25.4854  -21.1747  -15.0900 C   0  0  2  0  0  0  0  0  0  0  0  0
   26.4620  -20.1943  -15.5614 N   0  0  0  0  0  0  0  0  0  0  0  0
   24.3857  -20.4824  -14.4061 C   0  0  0  0  0  0  0  0  0  0  0  0
   24.6415  -19.7421  -13.3929 O   0  0  0  0  0  0  0  0  0  0  0  0
   26.4656  -24.4822  -15.4196 C   0  0  0  0  0  0  0  0  0  0  0  0
   27.2208  -25.3739  -16.1528 C   0  0  0  0  0  0  0  0  0  0  0  0
   23.0141  -20.5442  -14.7606 N   0  0  0  0  0  0  0  0  0  0  0  0
   21.9782  -19.7760  -14.0770 C   0  0  1  0  0  0  0  0  0  0  0  0
   21.8145  -18.4171  -14.6742 C   0  0  0  0  0  0  0  0  0  0  0  0
   21.6354  -18.4854  -16.1334 C   0  0  0  0  0  0  0  0  0  0  0  0
   20.3434  -18.5979  -16.6155 C   0  0  0  0  0  0  0  0  0  0  0  0
   20.0464  -18.6489  -17.9517 C   0  0  0  0  0  0  0  0  0  0  0  0
   21.0623  -18.5872  -18.8823 C   0  0  0  0  0  0  0  0  0  0  0  0
   22.3679  -18.4743  -18.4394 C   0  0  0  0  0  0  0  0  0  0  0  0
   22.6393  -18.4247  -17.0707 C   0  0  0  0  0  0  0  0  0  0  0  0
   20.7002  -20.4773  -14.0267 C   0  0  0  0  0  0  0  0  0  0  0  0
   19.5924  -20.1157  -13.2869 O   0  0  0  0  0  0  0  0  0  0  0  0
   20.5546  -21.5337  -14.7193 O   0  0  0  0  0  0  0  0  0  0  0  0
  2  1  1  0
  3  2  1  0
  4  3  2  0
  6  5  1  0
  6 16  2  0
  7  6  1  0
  8  7  2  0
  8  9  1  0
  9 15  2  0
 11 10  1  1
 10  9  1  0
 11 12  1  0
 12  3  1  0
 13 17  1  0
 13 11  1  0
 14 13  2  0
 15 16  1  0
 18 17  1  0
 18 19  1  6
 20 21  2  0
 20 19  1  0
 22 21  1  0
 23 22  2  0
 24 25  2  0
 24 23  1  0
 25 20  1  0
 26 18  1  0
 27 26  1  0
 28 26  2  0
M  END
$$$$
