GYF.pdb
     RDKit          3D

 28 29  0  0  1  0  0  0  0  0999 V2000
   23.9773  -17.4542  -16.3540 N   0  0  0  0  0  0  0  0  0  0  0  0
   24.5323  -17.4191  -15.0258 C   0  0  0  0  0  0  0  0  0  0  0  0
   24.9530  -18.7985  -14.6650 C   0  0  0  0  0  0  0  0  0  0  0  0
   24.6883  -19.7948  -15.4119 O   0  0  0  0  0  0  0  0  0  0  0  0
   30.1044  -19.3841  -18.1373 O   0  0  0  0  0  0  0  0  0  0  0  0
   29.4955  -19.6743  -16.9117 C   0  0  0  0  0  0  0  0  0  0  0  0
   29.2209  -18.6709  -16.0081 C   0  0  0  0  0  0  0  0  0  0  0  0
   28.6129  -18.9546  -14.7824 C   0  0  0  0  0  0  0  0  0  0  0  0
   28.2650  -20.2368  -14.4273 C   0  0  0  0  0  0  0  0  0  0  0  0
   27.6285  -20.5272  -13.1481 C   0  0  0  0  0  0  0  0  0  0  0  0
   26.1350  -20.4325  -13.1167 C   0  0  2  0  0  0  0  0  0  0  0  0
   25.6713  -19.0931  -13.4745 N   0  0  0  0  0  0  0  0  0  0  0  0
   25.4974  -20.8540  -11.8628 C   0  0  0  0  0  0  0  0  0  0  0  0
   25.9298  -21.8956  -11.2560 O   0  0  0  0  0  0  0  0  0  0  0  0
   28.5485  -21.2351  -15.3482 C   0  0  0  0  0  0  0  0  0  0  0  0
   29.1486  -20.9604  -16.5596 C   0  0  0  0  0  0  0  0  0  0  0  0
   24.4114  -20.2058  -11.2216 N   0  0  0  0  0  0  0  0  0  0  0  0
   23.8158  -20.6878   -9.9792 C   0  0  1  0  0  0  0  0  0  0  0  0
   24.1042  -19.7703   -8.8369 C   0  0  0  0  0  0  0  0  0  0  0  0
   25.4800  -19.9386   -8.3418 C   0  0  0  0  0  0  0  0  0  0  0  0
   26.2822  -18.8128   -8.2844 C   0  0  0  0  0  0  0  0  0  0  0  0
   27.5715  -18.8370   -7.8228 C   0  0  0  0  0  0  0  0  0  0  0  0
   28.1218  -20.0247   -7.3887 C   0  0  0  0  0  0  0  0  0  0  0  0
   27.3510  -21.1726   -7.4304 C   0  0  0  0  0  0  0  0  0  0  0  0
   26.0395  -21.1164   -7.9062 C   0  0  0  0  0  0  0  0  0  0  0  0
   22.3823  -20.9294  -10.1005 C   0  0  0  0  0  0  0  0  0  0  0  0
   21.5700  -21.5421   -9.1678 O   0  0  0  0  0  0  0  0  0  0  0  0
   21.7862  -20.5537  -11.1591 O   0  0  0  0  0  0  0  0  0  0  0  0
  2  1  1  0
  3  2  1  0
  4  3  2  0
  6  5  1  0
  6 16  2  0
  7  6  1  0
  8  7  2  0
  8  9  1  0
  9 15  2  0
 11 10  1  1
 10  9  1  0
 11 12  1  0
 12  3  1  0
 13 17  1  0
 13 11  1  0
 14 13  2  0
 15 16  1  0
 18 17  1  0
 18 19  1  1
 20 21  2  0
 20 19  1  0
 22 21  1  0
 23 22  2  0
 24 25  2  0
 24 23  1  0
 25 20  1  0
 26 18  1  0
 27 26  1  0
 28 26  2  0
M  END
$$$$
