GYF.pdb
     RDKit          3D

 28 29  0  0  1  0  0  0  0  0999 V2000
   19.9141  -15.4461  -17.5194 N   0  0  0  0  0  0  0  0  0  0  0  0
   19.1975  -14.2975  -17.0289 C   0  0  0  0  0  0  0  0  0  0  0  0
   20.0010  -13.0857  -17.3383 C   0  0  0  0  0  0  0  0  0  0  0  0
   21.2451  -13.1573  -17.5983 O   0  0  0  0  0  0  0  0  0  0  0  0
   19.9673  -12.3659  -23.9301 O   0  0  0  0  0  0  0  0  0  0  0  0
   19.8808  -11.7399  -22.6819 C   0  0  0  0  0  0  0  0  0  0  0  0
   18.7967  -11.9579  -21.8598 C   0  0  0  0  0  0  0  0  0  0  0  0
   18.7047  -11.3355  -20.6121 C   0  0  0  0  0  0  0  0  0  0  0  0
   19.6838  -10.4855  -20.1540 C   0  0  0  0  0  0  0  0  0  0  0  0
   19.5842   -9.8404  -18.8502 C   0  0  0  0  0  0  0  0  0  0  0  0
   20.1973  -10.5768  -17.7003 C   0  0  2  0  0  0  0  0  0  0  0  0
   19.4390  -11.7805  -17.3641 N   0  0  0  0  0  0  0  0  0  0  0  0
   20.4233   -9.7836  -16.4853 C   0  0  0  0  0  0  0  0  0  0  0  0
   19.4726   -9.6446  -15.6385 O   0  0  0  0  0  0  0  0  0  0  0  0
   20.7683  -10.2769  -20.9939 C   0  0  0  0  0  0  0  0  0  0  0  0
   20.8640  -10.8888  -22.2266 C   0  0  0  0  0  0  0  0  0  0  0  0
   21.6301   -9.1292  -16.1304 N   0  0  0  0  0  0  0  0  0  0  0  0
   21.7892   -8.3623  -14.8986 C   0  0  1  0  0  0  0  0  0  0  0  0
   22.7427   -9.0218  -13.9575 C   0  0  0  0  0  0  0  0  0  0  0  0
   23.9851   -9.4217  -14.6378 C   0  0  0  0  0  0  0  0  0  0  0  0
   24.5949   -8.4889  -15.4577 C   0  0  0  0  0  0  0  0  0  0  0  0
   25.7644   -8.7340  -16.1273 C   0  0  0  0  0  0  0  0  0  0  0  0
   26.3850   -9.9586  -15.9968 C   0  0  0  0  0  0  0  0  0  0  0  0
   25.8059  -10.9178  -15.1856 C   0  0  0  0  0  0  0  0  0  0  0  0
   24.6132  -10.6384  -14.5156 C   0  0  0  0  0  0  0  0  0  0  0  0
   22.1784   -6.9783  -15.1451 C   0  0  0  0  0  0  0  0  0  0  0  0
   22.1870   -5.9502  -14.2242 O   0  0  0  0  0  0  0  0  0  0  0  0
   22.5511   -6.6469  -16.3148 O   0  0  0  0  0  0  0  0  0  0  0  0
  2  1  1  0
  3  2  1  0
  4  3  2  0
  6  5  1  0
  6 16  2  0
  7  6  1  0
  8  7  2  0
  8  9  1  0
  9 15  2  0
 11 10  1  6
 10  9  1  0
 11 12  1  0
 12  3  1  0
 13 17  1  0
 13 11  1  0
 14 13  2  0
 15 16  1  0
 18 17  1  0
 18 19  1  1
 20 21  2  0
 20 19  1  0
 22 21  1  0
 23 22  2  0
 24 25  2  0
 24 23  1  0
 25 20  1  0
 26 18  1  0
 27 26  1  0
 28 26  2  0
M  END
$$$$
