GYF.pdb
     RDKit          3D

 28 29  0  0  1  0  0  0  0  0999 V2000
   27.9080  -20.4495  -15.7846 N   0  0  0  0  0  0  0  0  0  0  0  0
   27.4666  -21.4575  -14.8560 C   0  0  0  0  0  0  0  0  0  0  0  0
   26.8104  -20.7740  -13.7105 C   0  0  0  0  0  0  0  0  0  0  0  0
   26.7989  -19.5052  -13.6070 O   0  0  0  0  0  0  0  0  0  0  0  0
   20.9640  -19.2726  -16.0528 O   0  0  0  0  0  0  0  0  0  0  0  0
   21.6996  -19.7436  -14.9599 C   0  0  0  0  0  0  0  0  0  0  0  0
   22.1363  -21.0498  -14.9168 C   0  0  0  0  0  0  0  0  0  0  0  0
   22.8713  -21.5259  -13.8280 C   0  0  0  0  0  0  0  0  0  0  0  0
   23.1884  -20.7185  -12.7609 C   0  0  0  0  0  0  0  0  0  0  0  0
   23.9578  -21.2195  -11.6282 C   0  0  0  0  0  0  0  0  0  0  0  0
   25.4051  -20.8393  -11.5928 C   0  0  2  0  0  0  0  0  0  0  0  0
   26.1593  -21.4846  -12.6659 N   0  0  0  0  0  0  0  0  0  0  0  0
   26.0888  -21.0584  -10.3118 C   0  0  0  0  0  0  0  0  0  0  0  0
   26.3399  -22.2545   -9.9289 O   0  0  0  0  0  0  0  0  0  0  0  0
   22.7412  -19.4064  -12.8201 C   0  0  0  0  0  0  0  0  0  0  0  0
   22.0152  -18.9314  -13.8926 C   0  0  0  0  0  0  0  0  0  0  0  0
   26.5220  -20.0487   -9.4154 N   0  0  0  0  0  0  0  0  0  0  0  0
   27.0616  -20.3366   -8.0901 C   0  0  1  0  0  0  0  0  0  0  0  0
   27.7501  -19.1478   -7.5046 C   0  0  0  0  0  0  0  0  0  0  0  0
   28.2983  -19.4424   -6.1709 C   0  0  0  0  0  0  0  0  0  0  0  0
   29.4187  -20.2514   -6.1033 C   0  0  0  0  0  0  0  0  0  0  0  0
   30.0330  -20.5798   -4.9240 C   0  0  0  0  0  0  0  0  0  0  0  0
   29.5333  -20.0960   -3.7331 C   0  0  0  0  0  0  0  0  0  0  0  0
   28.4140  -19.2836   -3.7593 C   0  0  0  0  0  0  0  0  0  0  0  0
   27.8097  -18.9662   -4.9773 C   0  0  0  0  0  0  0  0  0  0  0  0
   26.0522  -20.8543   -7.1732 C   0  0  0  0  0  0  0  0  0  0  0  0
   24.7008  -20.5741   -7.1948 O   0  0  0  0  0  0  0  0  0  0  0  0
   26.4161  -21.6447   -6.2459 O   0  0  0  0  0  0  0  0  0  0  0  0
  2  1  1  0
  3  2  1  0
  4  3  2  0
  6  5  1  0
  6 16  2  0
  7  6  1  0
  8  7  2  0
  8  9  1  0
  9 15  2  0
 11 10  1  1
 10  9  1  0
 11 12  1  0
 12  3  1  0
 13 17  1  0
 13 11  1  0
 14 13  2  0
 15 16  1  0
 18 17  1  0
 18 19  1  1
 20 21  2  0
 20 19  1  0
 22 21  1  0
 23 22  2  0
 24 25  2  0
 24 23  1  0
 25 20  1  0
 26 18  1  0
 27 26  1  0
 28 26  2  0
M  END
$$$$
