GYF.pdb
     RDKit          3D

 28 29  0  0  1  0  0  0  0  0999 V2000
   16.3910   -9.0356  -17.6849 N   0  0  0  0  0  0  0  0  0  0  0  0
   16.4741   -9.9395  -16.5671 C   0  0  0  0  0  0  0  0  0  0  0  0
   15.9860   -9.2248  -15.3585 C   0  0  0  0  0  0  0  0  0  0  0  0
   15.7984   -7.9657  -15.3569 O   0  0  0  0  0  0  0  0  0  0  0  0
   12.3718   -7.6018   -7.3499 O   0  0  0  0  0  0  0  0  0  0  0  0
   12.8147   -8.1669   -8.5507 C   0  0  0  0  0  0  0  0  0  0  0  0
   12.0760   -8.0315   -9.7059 C   0  0  0  0  0  0  0  0  0  0  0  0
   12.5132   -8.5937  -10.9082 C   0  0  0  0  0  0  0  0  0  0  0  0
   13.6899   -9.3006  -10.9902 C   0  0  0  0  0  0  0  0  0  0  0  0
   14.1429   -9.8832  -12.2477 C   0  0  0  0  0  0  0  0  0  0  0  0
   15.3020   -9.2060  -12.9098 C   0  0  2  0  0  0  0  0  0  0  0  0
   15.6996   -9.8932  -14.1373 N   0  0  0  0  0  0  0  0  0  0  0  0
   16.4822   -8.9924  -12.0625 C   0  0  0  0  0  0  0  0  0  0  0  0
   17.2582   -9.9780  -11.8041 O   0  0  0  0  0  0  0  0  0  0  0  0
   14.4214   -9.4277   -9.8181 C   0  0  0  0  0  0  0  0  0  0  0  0
   13.9943   -8.8747   -8.6287 C   0  0  0  0  0  0  0  0  0  0  0  0
   16.8751   -7.7625  -11.4762 N   0  0  0  0  0  0  0  0  0  0  0  0
   18.0713   -7.6178  -10.6524 C   0  0  1  0  0  0  0  0  0  0  0  0
   19.2969   -7.4374  -11.4863 C   0  0  0  0  0  0  0  0  0  0  0  0
   20.5179   -7.4555  -10.6648 C   0  0  0  0  0  0  0  0  0  0  0  0
   21.2191   -8.6456  -10.5859 C   0  0  0  0  0  0  0  0  0  0  0  0
   22.3797   -8.7829   -9.8717 C   0  0  0  0  0  0  0  0  0  0  0  0
   22.8966   -7.7015   -9.1895 C   0  0  0  0  0  0  0  0  0  0  0  0
   22.2241   -6.4939   -9.2441 C   0  0  0  0  0  0  0  0  0  0  0  0
   21.0430   -6.3848   -9.9808 C   0  0  0  0  0  0  0  0  0  0  0  0
   17.9505   -6.5459   -9.6704 C   0  0  0  0  0  0  0  0  0  0  0  0
   18.4506   -6.5492   -8.3839 O   0  0  0  0  0  0  0  0  0  0  0  0
   17.3263   -5.4866   -9.9950 O   0  0  0  0  0  0  0  0  0  0  0  0
  2  1  1  0
  3  2  1  0
  4  3  2  0
  6  5  1  0
  6 16  2  0
  7  6  1  0
  8  7  2  0
  8  9  1  0
  9 15  2  0
 11 10  1  1
 10  9  1  0
 11 12  1  0
 12  3  1  0
 13 17  1  0
 13 11  1  0
 14 13  2  0
 15 16  1  0
 18 17  1  0
 18 19  1  6
 20 21  2  0
 20 19  1  0
 22 21  1  0
 23 22  2  0
 24 25  2  0
 24 23  1  0
 25 20  1  0
 26 18  1  0
 27 26  1  0
 28 26  2  0
M  END
$$$$
