GYF.pdb
     RDKit          3D

 28 29  0  0  1  0  0  0  0  0999 V2000
   23.1369  -14.4548  -17.7111 N   0  0  0  0  0  0  0  0  0  0  0  0
   22.0470  -13.7996  -17.0356 C   0  0  0  0  0  0  0  0  0  0  0  0
   21.8094  -12.4928  -17.7032 C   0  0  0  0  0  0  0  0  0  0  0  0
   22.5084  -12.1133  -18.6972 O   0  0  0  0  0  0  0  0  0  0  0  0
   19.3582  -13.4425  -23.4190 O   0  0  0  0  0  0  0  0  0  0  0  0
   19.3471  -12.6655  -22.2556 C   0  0  0  0  0  0  0  0  0  0  0  0
   19.7773  -11.3567  -22.2802 C   0  0  0  0  0  0  0  0  0  0  0  0
   19.7686  -10.5758  -21.1215 C   0  0  0  0  0  0  0  0  0  0  0  0
   19.3339  -11.0751  -19.9162 C   0  0  0  0  0  0  0  0  0  0  0  0
   19.3244  -10.2552  -18.7105 C   0  0  0  0  0  0  0  0  0  0  0  0
   20.5735  -10.2784  -17.8860 C   0  0  2  0  0  0  0  0  0  0  0  0
   20.7963  -11.5901  -17.2803 N   0  0  0  0  0  0  0  0  0  0  0  0
   20.6740   -9.2379  -16.8547 C   0  0  0  0  0  0  0  0  0  0  0  0
   20.0075   -9.3622  -15.7682 O   0  0  0  0  0  0  0  0  0  0  0  0
   18.9042  -12.3943  -19.9088 C   0  0  0  0  0  0  0  0  0  0  0  0
   18.9109  -13.1696  -21.0498 C   0  0  0  0  0  0  0  0  0  0  0  0
   21.4630   -8.0622  -16.9318 N   0  0  0  0  0  0  0  0  0  0  0  0
   21.5772   -7.1050  -15.8357 C   0  0  1  0  0  0  0  0  0  0  0  0
   22.9905   -6.9586  -15.3763 C   0  0  0  0  0  0  0  0  0  0  0  0
   23.5747   -8.2562  -15.0008 C   0  0  0  0  0  0  0  0  0  0  0  0
   24.6529   -8.7107  -15.7390 C   0  0  0  0  0  0  0  0  0  0  0  0
   25.2952   -9.8911  -15.4741 C   0  0  0  0  0  0  0  0  0  0  0  0
   24.8690  -10.6837  -14.4291 C   0  0  0  0  0  0  0  0  0  0  0  0
   23.7936  -10.2633  -13.6674 C   0  0  0  0  0  0  0  0  0  0  0  0
   23.1591   -9.0549  -13.9618 C   0  0  0  0  0  0  0  0  0  0  0  0
   21.0014   -5.8053  -16.1630 C   0  0  0  0  0  0  0  0  0  0  0  0
   20.6403   -4.8175  -15.2691 O   0  0  0  0  0  0  0  0  0  0  0  0
   20.7947   -5.5181  -17.3843 O   0  0  0  0  0  0  0  0  0  0  0  0
  2  1  1  0
  3  2  1  0
  4  3  2  0
  6  5  1  0
  6 16  2  0
  7  6  1  0
  8  7  2  0
  8  9  1  0
  9 15  2  0
 11 10  1  1
 10  9  1  0
 11 12  1  0
 12  3  1  0
 13 17  1  0
 13 11  1  0
 14 13  2  0
 15 16  1  0
 18 17  1  0
 18 19  1  6
 20 21  2  0
 20 19  1  0
 22 21  1  0
 23 22  2  0
 24 25  2  0
 24 23  1  0
 25 20  1  0
 26 18  1  0
 27 26  1  0
 28 26  2  0
M  END
$$$$
