GYF.pdb
     RDKit          3D

 28 29  0  0  1  0  0  0  0  0999 V2000
   27.6721  -20.8836  -15.1968 N   0  0  0  0  0  0  0  0  0  0  0  0
   27.9684  -19.6457  -14.5237 C   0  0  0  0  0  0  0  0  0  0  0  0
   27.1006  -19.5556  -13.3202 C   0  0  0  0  0  0  0  0  0  0  0  0
   26.6689  -18.4381  -12.8897 O   0  0  0  0  0  0  0  0  0  0  0  0
   20.5076  -19.6335  -15.2204 O   0  0  0  0  0  0  0  0  0  0  0  0
   21.5030  -20.1112  -14.3612 C   0  0  0  0  0  0  0  0  0  0  0  0
   22.5459  -20.8697  -14.8465 C   0  0  0  0  0  0  0  0  0  0  0  0
   23.5430  -21.3497  -13.9932 C   0  0  0  0  0  0  0  0  0  0  0  0
   23.5272  -21.0880  -12.6432 C   0  0  0  0  0  0  0  0  0  0  0  0
   24.5714  -21.5890  -11.7575 C   0  0  0  0  0  0  0  0  0  0  0  0
   25.7171  -20.6619  -11.4963 C   0  0  2  0  0  0  0  0  0  0  0  0
   26.6996  -20.6996  -12.5781 N   0  0  0  0  0  0  0  0  0  0  0  0
   26.3985  -20.8406  -10.2079 C   0  0  0  0  0  0  0  0  0  0  0  0
   27.1747  -21.8454  -10.0404 O   0  0  0  0  0  0  0  0  0  0  0  0
   22.4704  -20.3230  -12.1710 C   0  0  0  0  0  0  0  0  0  0  0  0
   21.4835  -19.8468  -13.0090 C   0  0  0  0  0  0  0  0  0  0  0  0
   26.2890  -19.9854   -9.0821 N   0  0  0  0  0  0  0  0  0  0  0  0
   26.9825  -20.2331   -7.8218 C   0  0  1  0  0  0  0  0  0  0  0  0
   27.4846  -18.9667   -7.2102 C   0  0  0  0  0  0  0  0  0  0  0  0
   28.1997  -19.2211   -5.9493 C   0  0  0  0  0  0  0  0  0  0  0  0
   27.4587  -19.2183   -4.7809 C   0  0  0  0  0  0  0  0  0  0  0  0
   28.0052  -19.4627   -3.5490 C   0  0  0  0  0  0  0  0  0  0  0  0
   29.3542  -19.7267   -3.4380 C   0  0  0  0  0  0  0  0  0  0  0  0
   30.1290  -19.7384   -4.5839 C   0  0  0  0  0  0  0  0  0  0  0  0
   29.5432  -19.4856   -5.8258 C   0  0  0  0  0  0  0  0  0  0  0  0
   26.1680  -20.9807   -6.8702 C   0  0  0  0  0  0  0  0  0  0  0  0
   26.6229  -21.8797   -5.9268 O   0  0  0  0  0  0  0  0  0  0  0  0
   24.9072  -20.8156   -6.8823 O   0  0  0  0  0  0  0  0  0  0  0  0
  2  1  1  0
  3  2  1  0
  4  3  2  0
  6  5  1  0
  6 16  2  0
  7  6  1  0
  8  7  2  0
  8  9  1  0
  9 15  2  0
 11 10  1  6
 10  9  1  0
 11 12  1  0
 12  3  1  0
 13 17  1  0
 13 11  1  0
 14 13  2  0
 15 16  1  0
 18 17  1  0
 18 19  1  1
 20 21  2  0
 20 19  1  0
 22 21  1  0
 23 22  2  0
 24 25  2  0
 24 23  1  0
 25 20  1  0
 26 18  1  0
 27 26  1  0
 28 26  2  0
M  END
$$$$
