GYF.pdb
     RDKit          3D

 28 29  0  0  1  0  0  0  0  0999 V2000
   20.0169  -12.4724  -18.1718 N   0  0  0  0  0  0  0  0  0  0  0  0
   21.0344  -11.5713  -17.6965 C   0  0  0  0  0  0  0  0  0  0  0  0
   20.3612  -10.4228  -17.0349 C   0  0  0  0  0  0  0  0  0  0  0  0
   19.5117   -9.7014  -17.6502 O   0  0  0  0  0  0  0  0  0  0  0  0
   14.2741  -11.9904  -15.5965 O   0  0  0  0  0  0  0  0  0  0  0  0
   15.4457  -11.3468  -15.1838 C   0  0  0  0  0  0  0  0  0  0  0  0
   16.5834  -12.0710  -14.9012 C   0  0  0  0  0  0  0  0  0  0  0  0
   17.7565  -11.4337  -14.4886 C   0  0  0  0  0  0  0  0  0  0  0  0
   17.8263  -10.0676  -14.3477 C   0  0  0  0  0  0  0  0  0  0  0  0
   19.0536   -9.4073  -13.9192 C   0  0  0  0  0  0  0  0  0  0  0  0
   19.9666   -8.9385  -15.0088 C   0  0  2  0  0  0  0  0  0  0  0  0
   20.6189  -10.0581  -15.6856 N   0  0  0  0  0  0  0  0  0  0  0  0
   20.9767   -7.9499  -14.6104 C   0  0  0  0  0  0  0  0  0  0  0  0
   21.9512   -8.3120  -13.8624 O   0  0  0  0  0  0  0  0  0  0  0  0
   16.6722   -9.3535  -14.6361 C   0  0  0  0  0  0  0  0  0  0  0  0
   15.5115   -9.9776  -15.0438 C   0  0  0  0  0  0  0  0  0  0  0  0
   20.9939   -6.5811  -14.9804 N   0  0  0  0  0  0  0  0  0  0  0  0
   22.0259   -5.6482  -14.5384 C   0  0  1  0  0  0  0  0  0  0  0  0
   22.6111   -4.8897  -15.6838 C   0  0  0  0  0  0  0  0  0  0  0  0
   22.8581   -5.7638  -16.8419 C   0  0  0  0  0  0  0  0  0  0  0  0
   24.0540   -6.4586  -16.8764 C   0  0  0  0  0  0  0  0  0  0  0  0
   24.3898   -7.3179  -17.8887 C   0  0  0  0  0  0  0  0  0  0  0  0
   23.5145   -7.5195  -18.9351 C   0  0  0  0  0  0  0  0  0  0  0  0
   22.3081   -6.8428  -18.9365 C   0  0  0  0  0  0  0  0  0  0  0  0
   21.9938   -5.9731  -17.8903 C   0  0  0  0  0  0  0  0  0  0  0  0
   21.5527   -4.7377  -13.5016 C   0  0  0  0  0  0  0  0  0  0  0  0
   20.2491   -4.5837  -13.0750 O   0  0  0  0  0  0  0  0  0  0  0  0
   22.3968   -3.9929  -12.9102 O   0  0  0  0  0  0  0  0  0  0  0  0
  2  1  1  0
  3  2  1  0
  4  3  2  0
  6  5  1  0
  6 16  2  0
  7  6  1  0
  8  7  2  0
  8  9  1  0
  9 15  2  0
 11 10  1  1
 10  9  1  0
 11 12  1  0
 12  3  1  0
 13 17  1  0
 13 11  1  0
 14 13  2  0
 15 16  1  0
 18 17  1  0
 18 19  1  6
 20 21  2  0
 20 19  1  0
 22 21  1  0
 23 22  2  0
 24 25  2  0
 24 23  1  0
 25 20  1  0
 26 18  1  0
 27 26  1  0
 28 26  2  0
M  END
$$$$
