GYF.pdb
     RDKit          3D

 28 29  0  0  1  0  0  0  0  0999 V2000
   28.0428  -19.0844  -15.4207 N   0  0  0  0  0  0  0  0  0  0  0  0
   27.5779  -20.3085  -14.8218 C   0  0  0  0  0  0  0  0  0  0  0  0
   26.8331  -19.9622  -13.5828 C   0  0  0  0  0  0  0  0  0  0  0  0
   26.5798  -18.7542  -13.2710 O   0  0  0  0  0  0  0  0  0  0  0  0
   20.8035  -19.4359  -15.8891 O   0  0  0  0  0  0  0  0  0  0  0  0
   21.6237  -19.8968  -14.8536 C   0  0  0  0  0  0  0  0  0  0  0  0
   22.2872  -21.0993  -14.9647 C   0  0  0  0  0  0  0  0  0  0  0  0
   23.1078  -21.5648  -13.9338 C   0  0  0  0  0  0  0  0  0  0  0  0
   23.2875  -20.8492  -12.7734 C   0  0  0  0  0  0  0  0  0  0  0  0
   24.1467  -21.3382  -11.7017 C   0  0  0  0  0  0  0  0  0  0  0  0
   25.4696  -20.6541  -11.5515 C   0  0  2  0  0  0  0  0  0  0  0  0
   26.3593  -20.9468  -12.6738 N   0  0  0  0  0  0  0  0  0  0  0  0
   26.1747  -20.9041  -10.2878 C   0  0  0  0  0  0  0  0  0  0  0  0
   26.6696  -22.0635  -10.0620 O   0  0  0  0  0  0  0  0  0  0  0  0
   22.6123  -19.6408  -12.6777 C   0  0  0  0  0  0  0  0  0  0  0  0
   21.8011  -19.1768  -13.6923 C   0  0  0  0  0  0  0  0  0  0  0  0
   26.3787  -19.9625   -9.2474 N   0  0  0  0  0  0  0  0  0  0  0  0
   27.0163  -20.3012   -7.9788 C   0  0  1  0  0  0  0  0  0  0  0  0
   27.7456  -19.1342   -7.3991 C   0  0  0  0  0  0  0  0  0  0  0  0
   28.4113  -19.4860   -6.1344 C   0  0  0  0  0  0  0  0  0  0  0  0
   27.8733  -18.9790   -4.9649 C   0  0  0  0  0  0  0  0  0  0  0  0
   28.3892  -19.2516   -3.7257 C   0  0  0  0  0  0  0  0  0  0  0  0
   29.4958  -20.0662   -3.6081 C   0  0  0  0  0  0  0  0  0  0  0  0
   30.0625  -20.5927   -4.7549 C   0  0  0  0  0  0  0  0  0  0  0  0
   29.5140  -20.2967   -6.0043 C   0  0  0  0  0  0  0  0  0  0  0  0
   26.0789  -20.8594   -7.0106 C   0  0  0  0  0  0  0  0  0  0  0  0
   26.3807  -21.7252   -5.9788 O   0  0  0  0  0  0  0  0  0  0  0  0
   24.8507  -20.5410   -7.0949 O   0  0  0  0  0  0  0  0  0  0  0  0
  2  1  1  0
  3  2  1  0
  4  3  2  0
  6  5  1  0
  6 16  2  0
  7  6  1  0
  8  7  2  0
  8  9  1  0
  9 15  2  0
 11 10  1  6
 10  9  1  0
 11 12  1  0
 12  3  1  0
 13 17  1  0
 13 11  1  0
 14 13  2  0
 15 16  1  0
 18 17  1  0
 18 19  1  1
 20 21  2  0
 20 19  1  0
 22 21  1  0
 23 22  2  0
 24 25  2  0
 24 23  1  0
 25 20  1  0
 26 18  1  0
 27 26  1  0
 28 26  2  0
M  END
$$$$
