GYF.pdb
     RDKit          3D

 28 29  0  0  1  0  0  0  0  0999 V2000
   19.3617  -15.7306  -16.6194 N   0  0  0  0  0  0  0  0  0  0  0  0
   20.6982  -16.0253  -17.0671 C   0  0  0  0  0  0  0  0  0  0  0  0
   21.2695  -14.7876  -17.6601 C   0  0  0  0  0  0  0  0  0  0  0  0
   22.5194  -14.6603  -17.8652 O   0  0  0  0  0  0  0  0  0  0  0  0
   22.3151   -7.6611  -22.8069 O   0  0  0  0  0  0  0  0  0  0  0  0
   21.8410   -8.7822  -22.1172 C   0  0  0  0  0  0  0  0  0  0  0  0
   22.5533   -9.9618  -22.1191 C   0  0  0  0  0  0  0  0  0  0  0  0
   22.0849  -11.0848  -21.4321 C   0  0  0  0  0  0  0  0  0  0  0  0
   20.9027  -11.0621  -20.7300 C   0  0  0  0  0  0  0  0  0  0  0  0
   20.4196  -12.2360  -20.0127 C   0  0  0  0  0  0  0  0  0  0  0  0
   20.9971  -12.4618  -18.6503 C   0  0  2  0  0  0  0  0  0  0  0  0
   20.4663  -13.6761  -18.0333 N   0  0  0  0  0  0  0  0  0  0  0  0
   20.8710  -11.3390  -17.7123 C   0  0  0  0  0  0  0  0  0  0  0  0
   19.7758  -11.1765  -17.0688 O   0  0  0  0  0  0  0  0  0  0  0  0
   20.1980   -9.8670  -20.7383 C   0  0  0  0  0  0  0  0  0  0  0  0
   20.6559   -8.7554  -21.4149 C   0  0  0  0  0  0  0  0  0  0  0  0
   21.8717  -10.3757  -17.4269 N   0  0  0  0  0  0  0  0  0  0  0  0
   21.6380   -9.2096  -16.5806 C   0  0  1  0  0  0  0  0  0  0  0  0
   22.7448   -9.0103  -15.5981 C   0  0  0  0  0  0  0  0  0  0  0  0
   22.4872   -7.8583  -14.7191 C   0  0  0  0  0  0  0  0  0  0  0  0
   21.8928   -8.1072  -13.4948 C   0  0  0  0  0  0  0  0  0  0  0  0
   21.6218   -7.1226  -12.5820 C   0  0  0  0  0  0  0  0  0  0  0  0
   21.9456   -5.8133  -12.8699 C   0  0  0  0  0  0  0  0  0  0  0  0
   22.5415   -5.5242  -14.0843 C   0  0  0  0  0  0  0  0  0  0  0  0
   22.8054   -6.5495  -14.9945 C   0  0  0  0  0  0  0  0  0  0  0  0
   21.4049   -7.9937  -17.3521 C   0  0  0  0  0  0  0  0  0  0  0  0
   22.0923   -7.5906  -18.4790 O   0  0  0  0  0  0  0  0  0  0  0  0
   20.4853   -7.1991  -16.9780 O   0  0  0  0  0  0  0  0  0  0  0  0
  2  1  1  0
  3  2  1  0
  4  3  2  0
  6  5  1  0
  6 16  2  0
  7  6  1  0
  8  7  2  0
  8  9  1  0
  9 15  2  0
 11 10  1  6
 10  9  1  0
 11 12  1  0
 12  3  1  0
 13 17  1  0
 13 11  1  0
 14 13  2  0
 15 16  1  0
 18 17  1  0
 18 19  1  1
 20 21  2  0
 20 19  1  0
 22 21  1  0
 23 22  2  0
 24 25  2  0
 24 23  1  0
 25 20  1  0
 26 18  1  0
 27 26  1  0
 28 26  2  0
M  END
$$$$
