GYF.pdb
     RDKit          3D

 28 29  0  0  1  0  0  0  0  0999 V2000
   27.9810  -22.4709  -15.8473 N   0  0  0  0  0  0  0  0  0  0  0  0
   26.8756  -22.6282  -14.9381 C   0  0  0  0  0  0  0  0  0  0  0  0
   27.0885  -21.7089  -13.7894 C   0  0  0  0  0  0  0  0  0  0  0  0
   28.1937  -21.1016  -13.6155 O   0  0  0  0  0  0  0  0  0  0  0  0
   25.1707  -16.6608  -17.0547 O   0  0  0  0  0  0  0  0  0  0  0  0
   25.1597  -17.3161  -15.8187 C   0  0  0  0  0  0  0  0  0  0  0  0
   24.2404  -18.3087  -15.5575 C   0  0  0  0  0  0  0  0  0  0  0  0
   24.2245  -18.9668  -14.3249 C   0  0  0  0  0  0  0  0  0  0  0  0
   25.1180  -18.6551  -13.3272 C   0  0  0  0  0  0  0  0  0  0  0  0
   25.0988  -19.3465  -12.0436 C   0  0  0  0  0  0  0  0  0  0  0  0
   26.1649  -20.3756  -11.8315 C   0  0  2  0  0  0  0  0  0  0  0  0
   26.0824  -21.4499  -12.8194 N   0  0  0  0  0  0  0  0  0  0  0  0
   26.2320  -20.9528  -10.4830 C   0  0  0  0  0  0  0  0  0  0  0  0
   25.4127  -21.8806  -10.1539 O   0  0  0  0  0  0  0  0  0  0  0  0
   26.0367  -17.6536  -13.6064 C   0  0  0  0  0  0  0  0  0  0  0  0
   26.0567  -17.0008  -14.8215 C   0  0  0  0  0  0  0  0  0  0  0  0
   27.1443  -20.5821   -9.4627 N   0  0  0  0  0  0  0  0  0  0  0  0
   27.1911  -21.2358   -8.1584 C   0  0  1  0  0  0  0  0  0  0  0  0
   28.5120  -21.0395   -7.4900 C   0  0  0  0  0  0  0  0  0  0  0  0
   28.4176  -20.0829   -6.3755 C   0  0  0  0  0  0  0  0  0  0  0  0
   28.3369  -20.5985   -5.0941 C   0  0  0  0  0  0  0  0  0  0  0  0
   28.2664  -19.8115   -3.9753 C   0  0  0  0  0  0  0  0  0  0  0  0
   28.2743  -18.4383   -4.1018 C   0  0  0  0  0  0  0  0  0  0  0  0
   28.3540  -17.8845   -5.3669 C   0  0  0  0  0  0  0  0  0  0  0  0
   28.4248  -18.7128   -6.4887 C   0  0  0  0  0  0  0  0  0  0  0  0
   26.1006  -20.8207   -7.2829 C   0  0  0  0  0  0  0  0  0  0  0  0
   25.6477  -21.4862   -6.1617 O   0  0  0  0  0  0  0  0  0  0  0  0
   25.4794  -19.7435   -7.5485 O   0  0  0  0  0  0  0  0  0  0  0  0
  2  1  1  0
  3  2  1  0
  4  3  2  0
  6  5  1  0
  6 16  2  0
  7  6  1  0
  8  7  2  0
  8  9  1  0
  9 15  2  0
 11 10  1  1
 10  9  1  0
 11 12  1  0
 12  3  1  0
 13 17  1  0
 13 11  1  0
 14 13  2  0
 15 16  1  0
 18 17  1  0
 18 19  1  1
 20 21  2  0
 20 19  1  0
 22 21  1  0
 23 22  2  0
 24 25  2  0
 24 23  1  0
 25 20  1  0
 26 18  1  0
 27 26  1  0
 28 26  2  0
M  END
$$$$
