DGL.pdb
     RDKit          3D

 21 20  0  0  1  0  0  0  0  0999 V2000
    6.4580  -18.4671   21.5361 N   0  0  0  0  0  0  0  0  0  0  0  0
    7.1742  -18.3126   20.2898 C   0  0  1  0  0  0  0  0  0  0  0  0
    6.2148  -18.1152   19.1282 C   0  0  0  0  0  0  0  0  0  0  0  0
    5.9935  -19.3918   18.4255 C   0  0  0  0  0  0  0  0  0  0  0  0
    5.4839  -19.3893   17.2869 O   0  0  0  0  0  0  0  0  0  0  0  0
    8.0715  -17.1182   20.4291 C   0  0  0  0  0  0  0  0  0  0  0  0
    8.7275  -16.6762   19.4518 O   0  0  0  0  0  0  0  0  0  0  0  0
    6.3505  -20.5790   19.0300 O   0  0  0  0  0  0  0  0  0  0  0  0
    8.2132  -16.4407   21.6741 N   0  0  0  0  0  0  0  0  0  0  0  0
    9.0973  -15.3454   21.8924 C   0  0  0  0  0  0  0  0  0  0  0  0
    9.1273  -14.7969   23.2513 C   0  0  0  0  0  0  0  0  0  0  0  0
    9.9879  -13.8954   23.5562 O   0  0  0  0  0  0  0  0  0  0  0  0
    5.8513  -12.1602   26.8920 C   0  0  0  0  0  0  0  0  0  0  0  0
    7.1980  -12.6829   26.4741 C   0  0  2  0  0  0  0  0  0  0  0  0
    7.7799  -11.8114   25.4081 C   0  0  0  0  0  0  0  0  0  0  0  0
    7.2953  -14.1278   26.2499 C   0  0  0  0  0  0  0  0  0  0  0  0
    8.5230  -14.7374   25.7091 C   0  0  2  0  0  0  0  0  0  0  0  0
    8.2591  -15.1811   24.3044 N   0  0  0  0  0  0  0  0  0  0  0  0
    9.0599  -15.9167   26.3948 C   0  0  0  0  0  0  0  0  0  0  0  0
    8.8299  -17.1086   25.9630 O   0  0  0  0  0  0  0  0  0  0  0  0
    9.8529  -15.9058   27.5402 O   0  0  0  0  0  0  0  0  0  0  0  0
  2  1  1  1
  2  3  1  0
  3  4  1  0
  4  5  2  0
  4  8  1  0
  6  7  2  0
  6  2  1  0
  9  6  1  0
 10  9  1  0
 11 10  1  0
 11 18  1  0
 12 11  2  0
 14 13  1  6
 14 15  1  0
 16 14  1  0
 17 18  1  0
 17 16  1  1
 19 21  1  0
 19 17  1  0
 20 19  2  0
M  END
$$$$
