DGL.pdb
     RDKit          3D

 21 20  0  0  1  0  0  0  0  0999 V2000
   10.8424  -19.1144   20.3818 N   0  0  0  0  0  0  0  0  0  0  0  0
   10.7594  -17.8359   19.7120 C   0  0  1  0  0  0  0  0  0  0  0  0
   10.4133  -18.0094   18.2427 C   0  0  0  0  0  0  0  0  0  0  0  0
   11.6237  -18.3352   17.4675 C   0  0  0  0  0  0  0  0  0  0  0  0
   12.6899  -17.7331   17.7057 O   0  0  0  0  0  0  0  0  0  0  0  0
    9.6976  -17.0318   20.4027 C   0  0  0  0  0  0  0  0  0  0  0  0
    9.4497  -15.8472   20.0622 O   0  0  0  0  0  0  0  0  0  0  0  0
   11.5704  -19.3021   16.4853 O   0  0  0  0  0  0  0  0  0  0  0  0
    8.9308  -17.5812   21.4701 N   0  0  0  0  0  0  0  0  0  0  0  0
    7.8623  -16.8997   22.1205 C   0  0  0  0  0  0  0  0  0  0  0  0
    8.2352  -16.0198   23.2319 C   0  0  0  0  0  0  0  0  0  0  0  0
    9.4619  -15.9426   23.6001 O   0  0  0  0  0  0  0  0  0  0  0  0
    5.6858  -11.8228   27.1250 C   0  0  0  0  0  0  0  0  0  0  0  0
    6.9188  -12.5418   26.6515 C   0  0  2  0  0  0  0  0  0  0  0  0
    8.0617  -11.5849   26.5409 C   0  0  0  0  0  0  0  0  0  0  0  0
    6.7426  -13.4681   25.5298 C   0  0  0  0  0  0  0  0  0  0  0  0
    7.8141  -14.3968   25.1286 C   0  0  2  0  0  0  0  0  0  0  0  0
    7.3335  -15.2104   23.9682 N   0  0  0  0  0  0  0  0  0  0  0  0
    8.2806  -15.3711   26.1197 C   0  0  0  0  0  0  0  0  0  0  0  0
    7.6070  -16.4371   26.3837 O   0  0  0  0  0  0  0  0  0  0  0  0
    9.4550  -15.2816   26.8639 O   0  0  0  0  0  0  0  0  0  0  0  0
  2  1  1  1
  2  3  1  0
  3  4  1  0
  4  5  2  0
  4  8  1  0
  6  7  2  0
  6  2  1  0
  9  6  1  0
 10  9  1  0
 11 10  1  0
 11 18  1  0
 12 11  2  0
 14 13  1  6
 14 15  1  0
 16 14  1  0
 17 18  1  0
 17 16  1  1
 19 21  1  0
 19 17  1  0
 20 19  2  0
M  END
$$$$
