DGL.pdb
     RDKit          3D

 21 20  0  0  1  0  0  0  0  0999 V2000
   10.3297  -19.0304   20.5395 N   0  0  0  0  0  0  0  0  0  0  0  0
   10.3499  -17.7256   19.9171 C   0  0  1  0  0  0  0  0  0  0  0  0
    9.8349  -17.7925   18.4891 C   0  0  0  0  0  0  0  0  0  0  0  0
   10.8621  -18.3669   17.6018 C   0  0  0  0  0  0  0  0  0  0  0  0
   12.0695  -18.2155   17.8763 O   0  0  0  0  0  0  0  0  0  0  0  0
    9.4813  -16.8194   20.7389 C   0  0  0  0  0  0  0  0  0  0  0  0
    9.5070  -15.5720   20.5836 O   0  0  0  0  0  0  0  0  0  0  0  0
   10.4828  -19.0668   16.4755 O   0  0  0  0  0  0  0  0  0  0  0  0
    8.5952  -17.3390   21.7259 N   0  0  0  0  0  0  0  0  0  0  0  0
    7.6605  -16.5503   22.4561 C   0  0  0  0  0  0  0  0  0  0  0  0
    8.2011  -15.7766   23.5776 C   0  0  0  0  0  0  0  0  0  0  0  0
    9.4702  -15.6332   23.7003 O   0  0  0  0  0  0  0  0  0  0  0  0
    5.8165  -11.3552   26.6052 C   0  0  0  0  0  0  0  0  0  0  0  0
    6.9853  -12.0966   26.0172 C   0  0  2  0  0  0  0  0  0  0  0  0
    7.1545  -11.7316   24.5776 C   0  0  0  0  0  0  0  0  0  0  0  0
    7.0786  -13.5239   26.3357 C   0  0  0  0  0  0  0  0  0  0  0  0
    8.0833  -14.3879   25.6910 C   0  0  2  0  0  0  0  0  0  0  0  0
    7.4239  -15.1432   24.5801 N   0  0  0  0  0  0  0  0  0  0  0  0
    8.7403  -15.4057   26.5167 C   0  0  0  0  0  0  0  0  0  0  0  0
    8.2569  -16.5944   26.6302 O   0  0  0  0  0  0  0  0  0  0  0  0
    9.9156  -15.2336   27.2447 O   0  0  0  0  0  0  0  0  0  0  0  0
  2  1  1  1
  2  3  1  0
  3  4  1  0
  4  5  2  0
  4  8  1  0
  6  7  2  0
  6  2  1  0
  9  6  1  0
 10  9  1  0
 11 10  1  0
 11 18  1  0
 12 11  2  0
 14 13  1  6
 14 15  1  0
 16 14  1  0
 17 18  1  0
 17 16  1  1
 19 21  1  0
 19 17  1  0
 20 19  2  0
M  END
$$$$
