DGL.pdb
     RDKit          3D

 21 20  0  0  1  0  0  0  0  0999 V2000
    6.8364  -19.4067   22.3001 N   0  0  0  0  0  0  0  0  0  0  0  0
    6.0788  -18.4505   21.5244 C   0  0  1  0  0  0  0  0  0  0  0  0
    4.5855  -18.6960   21.6606 C   0  0  0  0  0  0  0  0  0  0  0  0
    4.1275  -19.6449   20.6300 C   0  0  0  0  0  0  0  0  0  0  0  0
    4.7634  -19.7506   19.5621 O   0  0  0  0  0  0  0  0  0  0  0  0
    6.4267  -17.0813   22.0300 C   0  0  0  0  0  0  0  0  0  0  0  0
    5.9039  -16.6184   23.0756 O   0  0  0  0  0  0  0  0  0  0  0  0
    3.0008  -20.4088   20.8522 O   0  0  0  0  0  0  0  0  0  0  0  0
    7.3624  -16.2551   21.3437 N   0  0  0  0  0  0  0  0  0  0  0  0
    7.6610  -14.9111   21.7091 C   0  0  0  0  0  0  0  0  0  0  0  0
    8.2544  -14.7160   23.0351 C   0  0  0  0  0  0  0  0  0  0  0  0
    9.5190  -14.5296   23.1466 O   0  0  0  0  0  0  0  0  0  0  0  0
    5.6463  -11.8156   26.8998 C   0  0  0  0  0  0  0  0  0  0  0  0
    7.0082  -12.2830   26.4660 C   0  0  2  0  0  0  0  0  0  0  0  0
    7.4466  -11.5323   25.2500 C   0  0  0  0  0  0  0  0  0  0  0  0
    7.2222  -13.7325   26.4406 C   0  0  0  0  0  0  0  0  0  0  0  0
    8.2144  -14.3441   25.5390 C   0  0  2  0  0  0  0  0  0  0  0  0
    7.5350  -14.7108   24.2569 N   0  0  0  0  0  0  0  0  0  0  0  0
    8.8832  -15.5687   25.9886 C   0  0  0  0  0  0  0  0  0  0  0  0
    8.5157  -16.7294   25.5670 O   0  0  0  0  0  0  0  0  0  0  0  0
    9.9522  -15.6363   26.8794 O   0  0  0  0  0  0  0  0  0  0  0  0
  2  1  1  1
  2  3  1  0
  3  4  1  0
  4  5  2  0
  4  8  1  0
  6  7  2  0
  6  2  1  0
  9  6  1  0
 10  9  1  0
 11 10  1  0
 11 18  1  0
 12 11  2  0
 14 13  1  6
 14 15  1  0
 16 14  1  0
 17 18  1  0
 17 16  1  1
 19 21  1  0
 19 17  1  0
 20 19  2  0
M  END
$$$$
