DGL.pdb
     RDKit          3D

 21 20  0  0  1  0  0  0  0  0999 V2000
    8.0856  -15.8052   20.7954 N   0  0  0  0  0  0  0  0  0  0  0  0
    7.9854  -17.2380   20.6305 C   0  0  1  0  0  0  0  0  0  0  0  0
    9.0344  -17.7515   19.6585 C   0  0  0  0  0  0  0  0  0  0  0  0
    9.0505  -16.9233   18.4394 C   0  0  0  0  0  0  0  0  0  0  0  0
    7.9945  -16.7462   17.7995 O   0  0  0  0  0  0  0  0  0  0  0  0
    8.1802  -17.8631   21.9804 C   0  0  0  0  0  0  0  0  0  0  0  0
    8.1382  -19.1101   22.1353 O   0  0  0  0  0  0  0  0  0  0  0  0
   10.2308  -16.3502   18.0144 O   0  0  0  0  0  0  0  0  0  0  0  0
    8.4199  -17.0665   23.1368 N   0  0  0  0  0  0  0  0  0  0  0  0
    8.5982  -17.5937   24.4480 C   0  0  0  0  0  0  0  0  0  0  0  0
    8.9045  -16.6218   25.5017 C   0  0  0  0  0  0  0  0  0  0  0  0
    9.1965  -17.0318   26.6820 O   0  0  0  0  0  0  0  0  0  0  0  0
    7.8088  -12.0761   24.8634 C   0  0  0  0  0  0  0  0  0  0  0  0
    7.1063  -12.9729   25.8451 C   0  0  2  0  0  0  0  0  0  0  0  0
    5.8602  -12.3144   26.3430 C   0  0  0  0  0  0  0  0  0  0  0  0
    7.9472  -13.6127   26.8605 C   0  0  0  0  0  0  0  0  0  0  0  0
    9.1922  -14.3107   26.4943 C   0  0  2  0  0  0  0  0  0  0  0  0
    8.9118  -15.2139   25.3344 N   0  0  0  0  0  0  0  0  0  0  0  0
    9.8213  -15.1632   27.5076 C   0  0  0  0  0  0  0  0  0  0  0  0
   10.2813  -14.6737   28.6069 O   0  0  0  0  0  0  0  0  0  0  0  0
    9.9909  -16.5435   27.4235 O   0  0  0  0  0  0  0  0  0  0  0  0
  2  1  1  1
  2  3  1  0
  3  4  1  0
  4  5  2  0
  4  8  1  0
  6  7  2  0
  6  2  1  0
  9  6  1  0
 10  9  1  0
 11 10  1  0
 11 18  1  0
 12 11  2  0
 14 13  1  1
 14 15  1  0
 16 14  1  0
 17 18  1  0
 17 16  1  1
 19 21  1  0
 19 17  1  0
 20 19  2  0
M  END
$$$$
