DGL.pdb
     RDKit          3D

 21 20  0  0  1  0  0  0  0  0999 V2000
    9.4965  -19.0721   20.4599 N   0  0  0  0  0  0  0  0  0  0  0  0
   10.4223  -17.9757   20.2841 C   0  0  1  0  0  0  0  0  0  0  0  0
   10.6687  -17.6986   18.8105 C   0  0  0  0  0  0  0  0  0  0  0  0
   11.6356  -18.6670   18.2632 C   0  0  0  0  0  0  0  0  0  0  0  0
   12.4857  -19.1833   19.0161 O   0  0  0  0  0  0  0  0  0  0  0  0
    9.8244  -16.7688   20.9450 C   0  0  0  0  0  0  0  0  0  0  0  0
   10.5383  -15.7955   21.2972 O   0  0  0  0  0  0  0  0  0  0  0  0
   11.5947  -18.9959   16.9244 O   0  0  0  0  0  0  0  0  0  0  0  0
    8.4253  -16.6809   21.1980 N   0  0  0  0  0  0  0  0  0  0  0  0
    7.8189  -15.6686   21.9958 C   0  0  0  0  0  0  0  0  0  0  0  0
    8.5442  -15.2767   23.2078 C   0  0  0  0  0  0  0  0  0  0  0  0
    9.5550  -14.4912   23.1201 O   0  0  0  0  0  0  0  0  0  0  0  0
    8.1793  -11.9881   26.6484 C   0  0  0  0  0  0  0  0  0  0  0  0
    6.9296  -12.6703   26.1645 C   0  0  2  0  0  0  0  0  0  0  0  0
    5.7572  -12.2386   26.9852 C   0  0  0  0  0  0  0  0  0  0  0  0
    7.0339  -14.1069   25.8950 C   0  0  0  0  0  0  0  0  0  0  0  0
    8.3408  -14.7516   25.6760 C   0  0  2  0  0  0  0  0  0  0  0  0
    8.2212  -15.6976   24.5226 N   0  0  0  0  0  0  0  0  0  0  0  0
    8.9038  -15.5450   26.7727 C   0  0  0  0  0  0  0  0  0  0  0  0
    9.9380  -15.1462   27.4294 O   0  0  0  0  0  0  0  0  0  0  0  0
    8.4177  -16.7678   27.2302 O   0  0  0  0  0  0  0  0  0  0  0  0
  2  1  1  6
  2  3  1  0
  3  4  1  0
  4  5  2  0
  4  8  1  0
  6  7  2  0
  6  2  1  0
  9  6  1  0
 10  9  1  0
 11 10  1  0
 11 18  1  0
 12 11  2  0
 14 13  1  1
 14 15  1  0
 16 14  1  0
 17 18  1  0
 17 16  1  1
 19 21  1  0
 19 17  1  0
 20 19  2  0
M  END
$$$$
