DGL.pdb
     RDKit          3D

 21 20  0  0  1  0  0  0  0  0999 V2000
   10.4582  -18.6455   19.8950 N   0  0  0  0  0  0  0  0  0  0  0  0
    9.6320  -17.5459   19.4496 C   0  0  1  0  0  0  0  0  0  0  0  0
    8.7646  -17.9556   18.2711 C   0  0  0  0  0  0  0  0  0  0  0  0
    9.6081  -18.3532   17.1297 C   0  0  0  0  0  0  0  0  0  0  0  0
   10.8204  -18.0596   17.1262 O   0  0  0  0  0  0  0  0  0  0  0  0
    8.7714  -17.1299   20.6060 C   0  0  0  0  0  0  0  0  0  0  0  0
    8.0589  -16.0953   20.5515 O   0  0  0  0  0  0  0  0  0  0  0  0
    9.0528  -19.0462   16.0744 O   0  0  0  0  0  0  0  0  0  0  0  0
    8.7296  -17.8919   21.8088 N   0  0  0  0  0  0  0  0  0  0  0  0
    7.8837  -17.5937   22.9154 C   0  0  0  0  0  0  0  0  0  0  0  0
    8.2707  -16.4424   23.7359 C   0  0  0  0  0  0  0  0  0  0  0  0
    9.5014  -16.0839   23.7915 O   0  0  0  0  0  0  0  0  0  0  0  0
    5.7801  -11.7055   26.9599 C   0  0  0  0  0  0  0  0  0  0  0  0
    7.0026  -12.4425   26.4868 C   0  0  2  0  0  0  0  0  0  0  0  0
    7.9206  -11.5077   25.7673 C   0  0  0  0  0  0  0  0  0  0  0  0
    6.7739  -13.7410   25.8473 C   0  0  0  0  0  0  0  0  0  0  0  0
    7.8983  -14.5961   25.4276 C   0  0  2  0  0  0  0  0  0  0  0  0
    7.3782  -15.6526   24.5041 N   0  0  0  0  0  0  0  0  0  0  0  0
    8.6336  -15.3187   26.4699 C   0  0  0  0  0  0  0  0  0  0  0  0
    8.1712  -16.4025   26.9908 O   0  0  0  0  0  0  0  0  0  0  0  0
    9.8674  -14.9522   27.0031 O   0  0  0  0  0  0  0  0  0  0  0  0
  2  1  1  1
  2  3  1  0
  3  4  1  0
  4  5  2  0
  4  8  1  0
  6  7  2  0
  6  2  1  0
  9  6  1  0
 10  9  1  0
 11 10  1  0
 11 18  1  0
 12 11  2  0
 14 13  1  6
 14 15  1  0
 16 14  1  0
 17 18  1  0
 17 16  1  1
 19 21  1  0
 19 17  1  0
 20 19  2  0
M  END
$$$$
