DGL.pdb
     RDKit          3D

 21 20  0  0  1  0  0  0  0  0999 V2000
    9.0073  -19.1292   20.6014 N   0  0  0  0  0  0  0  0  0  0  0  0
    9.0650  -18.0328   19.6608 C   0  0  1  0  0  0  0  0  0  0  0  0
    8.2590  -18.3416   18.4103 C   0  0  0  0  0  0  0  0  0  0  0  0
    8.9281  -19.3875   17.6163 C   0  0  0  0  0  0  0  0  0  0  0  0
   10.0686  -19.1784   17.1563 O   0  0  0  0  0  0  0  0  0  0  0  0
    8.5115  -16.8188   20.3471 C   0  0  0  0  0  0  0  0  0  0  0  0
    8.6338  -15.6721   19.8462 O   0  0  0  0  0  0  0  0  0  0  0  0
    8.2905  -20.5888   17.3871 O   0  0  0  0  0  0  0  0  0  0  0  0
    7.8266  -16.9207   21.5920 N   0  0  0  0  0  0  0  0  0  0  0  0
    7.2444  -15.8160   22.2772 C   0  0  0  0  0  0  0  0  0  0  0  0
    7.9920  -15.2987   23.4270 C   0  0  0  0  0  0  0  0  0  0  0  0
    9.2072  -14.9149   23.2770 O   0  0  0  0  0  0  0  0  0  0  0  0
    7.6901  -11.3307   25.5308 C   0  0  0  0  0  0  0  0  0  0  0  0
    6.7179  -12.3778   25.9998 C   0  0  2  0  0  0  0  0  0  0  0  0
    5.6221  -11.7434   26.7941 C   0  0  0  0  0  0  0  0  0  0  0  0
    7.2979  -13.6000   26.5629 C   0  0  0  0  0  0  0  0  0  0  0  0
    8.2427  -14.4255   25.7900 C   0  0  2  0  0  0  0  0  0  0  0  0
    7.4793  -15.1743   24.7430 N   0  0  0  0  0  0  0  0  0  0  0  0
    9.0112  -15.4432   26.5131 C   0  0  0  0  0  0  0  0  0  0  0  0
    9.8201  -15.1254   27.4642 O   0  0  0  0  0  0  0  0  0  0  0  0
    8.9669  -16.8167   26.2842 O   0  0  0  0  0  0  0  0  0  0  0  0
  2  1  1  1
  2  3  1  0
  3  4  1  0
  4  5  2  0
  4  8  1  0
  6  7  2  0
  6  2  1  0
  9  6  1  0
 10  9  1  0
 11 10  1  0
 11 18  1  0
 12 11  2  0
 14 13  1  1
 14 15  1  0
 16 14  1  0
 17 18  1  0
 17 16  1  1
 19 21  1  0
 19 17  1  0
 20 19  2  0
M  END
$$$$
