DGL.pdb
     RDKit          3D

 21 20  0  0  1  0  0  0  0  0999 V2000
    8.1702  -17.8132   20.5782 N   0  0  0  0  0  0  0  0  0  0  0  0
    9.1948  -16.9761   19.9955 C   0  0  1  0  0  0  0  0  0  0  0  0
    8.5824  -15.8347   19.2012 C   0  0  0  0  0  0  0  0  0  0  0  0
    7.7502  -16.3632   18.1056 C   0  0  0  0  0  0  0  0  0  0  0  0
    7.6897  -17.5945   17.9152 O   0  0  0  0  0  0  0  0  0  0  0  0
   10.0300  -16.4358   21.1187 C   0  0  0  0  0  0  0  0  0  0  0  0
   10.5299  -15.2833   21.0655 O   0  0  0  0  0  0  0  0  0  0  0  0
    7.0447  -15.4949   17.2990 O   0  0  0  0  0  0  0  0  0  0  0  0
   10.2876  -17.2088   22.2871 N   0  0  0  0  0  0  0  0  0  0  0  0
   11.2167  -16.8393   23.3016 C   0  0  0  0  0  0  0  0  0  0  0  0
   10.6924  -16.0095   24.3902 C   0  0  0  0  0  0  0  0  0  0  0  0
   11.4610  -15.6695   25.3597 O   0  0  0  0  0  0  0  0  0  0  0  0
    5.6200  -12.6980   25.9263 C   0  0  0  0  0  0  0  0  0  0  0  0
    7.0077  -13.1471   26.2922 C   0  0  2  0  0  0  0  0  0  0  0  0
    7.7899  -12.0005   26.8471 C   0  0  0  0  0  0  0  0  0  0  0  0
    7.7013  -13.9858   25.3109 C   0  0  0  0  0  0  0  0  0  0  0  0
    8.9153  -14.7398   25.6703 C   0  0  2  0  0  0  0  0  0  0  0  0
    9.3630  -15.5242   24.4771 N   0  0  0  0  0  0  0  0  0  0  0  0
    8.8168  -15.7140   26.7614 C   0  0  0  0  0  0  0  0  0  0  0  0
    8.2495  -16.8582   26.5922 O   0  0  0  0  0  0  0  0  0  0  0  0
    9.3031  -15.5434   28.0558 O   0  0  0  0  0  0  0  0  0  0  0  0
  2  1  1  1
  2  3  1  0
  3  4  1  0
  4  5  2  0
  4  8  1  0
  6  7  2  0
  6  2  1  0
  9  6  1  0
 10  9  1  0
 11 10  1  0
 11 18  1  0
 12 11  2  0
 14 13  1  6
 14 15  1  0
 16 14  1  0
 17 18  1  0
 17 16  1  6
 19 21  1  0
 19 17  1  0
 20 19  2  0
M  END
$$$$
