DGL.pdb
     RDKit          3D

 21 20  0  0  1  0  0  0  0  0999 V2000
    7.5320  -20.2262   23.7133 N   0  0  0  0  0  0  0  0  0  0  0  0
    6.3829  -19.5366   24.2555 C   0  0  1  0  0  0  0  0  0  0  0  0
    6.4001  -19.5555   25.7748 C   0  0  0  0  0  0  0  0  0  0  0  0
    7.7825  -19.4358   26.2718 C   0  0  0  0  0  0  0  0  0  0  0  0
    8.7217  -19.3125   25.4601 O   0  0  0  0  0  0  0  0  0  0  0  0
    6.4263  -18.1229   23.7548 C   0  0  0  0  0  0  0  0  0  0  0  0
    5.5508  -17.2844   24.0882 O   0  0  0  0  0  0  0  0  0  0  0  0
    8.0289  -19.4609   27.6285 O   0  0  0  0  0  0  0  0  0  0  0  0
    7.4613  -17.6785   22.8828 N   0  0  0  0  0  0  0  0  0  0  0  0
    7.5712  -16.3486   22.3847 C   0  0  0  0  0  0  0  0  0  0  0  0
    8.0208  -15.3328   23.3411 C   0  0  0  0  0  0  0  0  0  0  0  0
    8.4357  -14.1957   22.9155 O   0  0  0  0  0  0  0  0  0  0  0  0
    7.5144  -11.4799   25.2796 C   0  0  0  0  0  0  0  0  0  0  0  0
    6.7046  -12.6633   25.7327 C   0  0  2  0  0  0  0  0  0  0  0  0
    5.4936  -12.2029   26.4783 C   0  0  0  0  0  0  0  0  0  0  0  0
    7.4506  -13.7710   26.3358 C   0  0  0  0  0  0  0  0  0  0  0  0
    8.5771  -14.4085   25.6313 C   0  0  2  0  0  0  0  0  0  0  0  0
    8.0397  -15.4919   24.7499 N   0  0  0  0  0  0  0  0  0  0  0  0
    9.6170  -15.0478   26.4431 C   0  0  0  0  0  0  0  0  0  0  0  0
   10.3789  -14.3611   27.2227 O   0  0  0  0  0  0  0  0  0  0  0  0
    9.9006  -16.4113   26.4819 O   0  0  0  0  0  0  0  0  0  0  0  0
  2  1  1  6
  2  3  1  0
  3  4  1  0
  4  5  2  0
  4  8  1  0
  6  7  2  0
  6  2  1  0
  9  6  1  0
 10  9  1  0
 11 10  1  0
 11 18  1  0
 12 11  2  0
 14 13  1  1
 14 15  1  0
 16 14  1  0
 17 18  1  0
 17 16  1  1
 19 21  1  0
 19 17  1  0
 20 19  2  0
M  END
$$$$
