DGL.pdb
     RDKit          3D

 21 20  0  0  1  0  0  0  0  0999 V2000
    6.8942  -16.3725   19.8891 N   0  0  0  0  0  0  0  0  0  0  0  0
    7.7541  -17.5047   20.1511 C   0  0  1  0  0  0  0  0  0  0  0  0
    8.3268  -18.0669   18.8608 C   0  0  0  0  0  0  0  0  0  0  0  0
    7.2401  -18.5176   17.9730 C   0  0  0  0  0  0  0  0  0  0  0  0
    7.3998  -18.4848   16.7363 O   0  0  0  0  0  0  0  0  0  0  0  0
    8.8614  -17.0335   21.0471 C   0  0  0  0  0  0  0  0  0  0  0  0
    9.7245  -17.8311   21.4942 O   0  0  0  0  0  0  0  0  0  0  0  0
    6.0556  -18.9720   18.5139 O   0  0  0  0  0  0  0  0  0  0  0  0
    8.9759  -15.6647   21.4244 N   0  0  0  0  0  0  0  0  0  0  0  0
    9.9836  -15.1563   22.2933 C   0  0  0  0  0  0  0  0  0  0  0  0
    9.6371  -15.0833   23.7157 C   0  0  0  0  0  0  0  0  0  0  0  0
   10.5188  -14.7061   24.5682 O   0  0  0  0  0  0  0  0  0  0  0  0
    7.9658  -12.2316   26.6172 C   0  0  0  0  0  0  0  0  0  0  0  0
    6.9835  -12.9763   25.7557 C   0  0  2  0  0  0  0  0  0  0  0  0
    5.6692  -12.2646   25.7409 C   0  0  0  0  0  0  0  0  0  0  0  0
    6.9278  -14.4293   25.9378 C   0  0  0  0  0  0  0  0  0  0  0  0
    8.1187  -15.2726   25.7325 C   0  0  2  0  0  0  0  0  0  0  0  0
    8.3679  -15.4003   24.2625 N   0  0  0  0  0  0  0  0  0  0  0  0
    8.0787  -16.6471   26.2408 C   0  0  0  0  0  0  0  0  0  0  0  0
    7.7805  -17.6391   25.4748 O   0  0  0  0  0  0  0  0  0  0  0  0
    8.3494  -17.0430   27.5489 O   0  0  0  0  0  0  0  0  0  0  0  0
  2  1  1  6
  2  3  1  0
  3  4  1  0
  4  5  2  0
  4  8  1  0
  6  7  2  0
  6  2  1  0
  9  6  1  0
 10  9  1  0
 11 10  1  0
 11 18  1  0
 12 11  2  0
 14 13  1  1
 14 15  1  0
 16 14  1  0
 17 18  1  0
 17 16  1  6
 19 21  1  0
 19 17  1  0
 20 19  2  0
M  END
$$$$
