DGL.pdb
     RDKit          3D

 21 20  0  0  1  0  0  0  0  0999 V2000
    6.4701  -17.1047   20.8238 N   0  0  0  0  0  0  0  0  0  0  0  0
    7.6900  -17.7659   20.4179 C   0  0  1  0  0  0  0  0  0  0  0  0
    7.7690  -17.8879   18.9054 C   0  0  0  0  0  0  0  0  0  0  0  0
    6.7371  -18.8181   18.4131 C   0  0  0  0  0  0  0  0  0  0  0  0
    5.9859  -19.3931   19.2262 O   0  0  0  0  0  0  0  0  0  0  0  0
    8.8391  -16.9498   20.9323 C   0  0  0  0  0  0  0  0  0  0  0  0
   10.0261  -17.3490   20.8200 O   0  0  0  0  0  0  0  0  0  0  0  0
    6.6085  -19.0466   17.0591 O   0  0  0  0  0  0  0  0  0  0  0  0
    8.6277  -15.6923   21.5672 N   0  0  0  0  0  0  0  0  0  0  0  0
    9.6630  -14.9065   22.1498 C   0  0  0  0  0  0  0  0  0  0  0  0
    9.6306  -14.7699   23.6089 C   0  0  0  0  0  0  0  0  0  0  0  0
   10.5538  -14.1105   24.2082 O   0  0  0  0  0  0  0  0  0  0  0  0
    8.4858  -12.0343   26.4753 C   0  0  0  0  0  0  0  0  0  0  0  0
    7.3811  -12.9594   26.0449 C   0  0  2  0  0  0  0  0  0  0  0  0
    6.0512  -12.3539   26.3594 C   0  0  0  0  0  0  0  0  0  0  0  0
    7.5437  -14.3740   26.3914 C   0  0  0  0  0  0  0  0  0  0  0  0
    8.7173  -15.1425   25.9405 C   0  0  2  0  0  0  0  0  0  0  0  0
    8.6345  -15.3172   24.4565 N   0  0  0  0  0  0  0  0  0  0  0  0
    8.8990  -16.4929   26.4813 C   0  0  0  0  0  0  0  0  0  0  0  0
    8.5914  -17.5392   25.7954 O   0  0  0  0  0  0  0  0  0  0  0  0
    9.4070  -16.8078   27.7398 O   0  0  0  0  0  0  0  0  0  0  0  0
  2  1  1  6
  2  3  1  0
  3  4  1  0
  4  5  2  0
  4  8  1  0
  6  7  2  0
  6  2  1  0
  9  6  1  0
 10  9  1  0
 11 10  1  0
 11 18  1  0
 12 11  2  0
 14 13  1  1
 14 15  1  0
 16 14  1  0
 17 18  1  0
 17 16  1  1
 19 21  1  0
 19 17  1  0
 20 19  2  0
M  END
$$$$
