DGL.pdb
     RDKit          3D

 21 20  0  0  1  0  0  0  0  0999 V2000
    5.4430  -18.9554   23.2780 N   0  0  0  0  0  0  0  0  0  0  0  0
    5.7881  -18.3962   21.9902 C   0  0  1  0  0  0  0  0  0  0  0  0
    4.5711  -18.3179   21.0838 C   0  0  0  0  0  0  0  0  0  0  0  0
    4.0108  -19.6632   20.8633 C   0  0  0  0  0  0  0  0  0  0  0  0
    4.6516  -20.4962   20.1915 O   0  0  0  0  0  0  0  0  0  0  0  0
    6.3457  -17.0237   22.2282 C   0  0  0  0  0  0  0  0  0  0  0  0
    5.7553  -16.1981   22.9703 O   0  0  0  0  0  0  0  0  0  0  0  0
    2.7836  -19.9921   21.4001 O   0  0  0  0  0  0  0  0  0  0  0  0
    7.5649  -16.6053   21.6219 N   0  0  0  0  0  0  0  0  0  0  0  0
    8.1535  -15.3223   21.8123 C   0  0  0  0  0  0  0  0  0  0  0  0
    8.6558  -15.0323   23.1585 C   0  0  0  0  0  0  0  0  0  0  0  0
    9.8169  -14.5066   23.3064 O   0  0  0  0  0  0  0  0  0  0  0  0
    8.2295  -11.8052   25.7775 C   0  0  0  0  0  0  0  0  0  0  0  0
    7.1527  -12.8308   26.0010 C   0  0  2  0  0  0  0  0  0  0  0  0
    6.0095  -12.2222   26.7475 C   0  0  0  0  0  0  0  0  0  0  0  0
    7.5945  -14.1498   26.4620 C   0  0  0  0  0  0  0  0  0  0  0  0
    8.5615  -14.9471   25.6870 C   0  0  2  0  0  0  0  0  0  0  0  0
    7.9516  -15.2853   24.3629 N   0  0  0  0  0  0  0  0  0  0  0  0
    8.9998  -16.2272   26.2513 C   0  0  0  0  0  0  0  0  0  0  0  0
    9.5858  -16.2918   27.3968 O   0  0  0  0  0  0  0  0  0  0  0  0
    8.8440  -17.4781   25.6581 O   0  0  0  0  0  0  0  0  0  0  0  0
  2  1  1  1
  2  3  1  0
  3  4  1  0
  4  5  2  0
  4  8  1  0
  6  7  2  0
  6  2  1  0
  9  6  1  0
 10  9  1  0
 11 10  1  0
 11 18  1  0
 12 11  2  0
 14 13  1  1
 14 15  1  0
 16 14  1  0
 17 18  1  0
 17 16  1  1
 19 21  1  0
 19 17  1  0
 20 19  2  0
M  END
$$$$
