DGL.pdb
     RDKit          3D

 21 20  0  0  1  0  0  0  0  0999 V2000
    7.3930  -20.3221   23.8583 N   0  0  0  0  0  0  0  0  0  0  0  0
    6.3958  -19.4721   24.4692 C   0  0  1  0  0  0  0  0  0  0  0  0
    6.4886  -19.5220   25.9851 C   0  0  0  0  0  0  0  0  0  0  0  0
    7.3984  -20.6025   26.4061 C   0  0  0  0  0  0  0  0  0  0  0  0
    7.8133  -21.4234   25.5635 O   0  0  0  0  0  0  0  0  0  0  0  0
    6.6341  -18.0733   23.9816 C   0  0  0  0  0  0  0  0  0  0  0  0
    5.8650  -17.1307   24.2990 O   0  0  0  0  0  0  0  0  0  0  0  0
    7.7847  -20.6992   27.7265 O   0  0  0  0  0  0  0  0  0  0  0  0
    7.7409  -17.7615   23.1408 N   0  0  0  0  0  0  0  0  0  0  0  0
    8.0014  -16.4660   22.6092 C   0  0  0  0  0  0  0  0  0  0  0  0
    8.4096  -15.4396   23.5728 C   0  0  0  0  0  0  0  0  0  0  0  0
    9.0291  -14.3926   23.1649 O   0  0  0  0  0  0  0  0  0  0  0  0
    7.3788  -11.7036   25.1173 C   0  0  0  0  0  0  0  0  0  0  0  0
    6.7169  -12.8489   25.8326 C   0  0  2  0  0  0  0  0  0  0  0  0
    5.5198  -12.3631   26.5843 C   0  0  0  0  0  0  0  0  0  0  0  0
    7.6032  -13.7657   26.5547 C   0  0  0  0  0  0  0  0  0  0  0  0
    8.7252  -14.4386   25.8766 C   0  0  2  0  0  0  0  0  0  0  0  0
    8.1738  -15.4937   24.9698 N   0  0  0  0  0  0  0  0  0  0  0  0
    9.7170  -15.1231   26.7115 C   0  0  0  0  0  0  0  0  0  0  0  0
    9.7134  -16.4043   26.8463 O   0  0  0  0  0  0  0  0  0  0  0  0
   10.7443  -14.5121   27.4272 O   0  0  0  0  0  0  0  0  0  0  0  0
  2  1  1  6
  2  3  1  0
  3  4  1  0
  4  5  2  0
  4  8  1  0
  6  7  2  0
  6  2  1  0
  9  6  1  0
 10  9  1  0
 11 10  1  0
 11 18  1  0
 12 11  2  0
 14 13  1  1
 14 15  1  0
 16 14  1  0
 17 18  1  0
 17 16  1  1
 19 21  1  0
 19 17  1  0
 20 19  2  0
M  END
$$$$
