DGL.pdb
     RDKit          3D

 21 20  0  0  1  0  0  0  0  0999 V2000
   11.0184  -19.4060   20.9865 N   0  0  0  0  0  0  0  0  0  0  0  0
   10.9980  -18.1722   20.2333 C   0  0  1  0  0  0  0  0  0  0  0  0
   10.7267  -18.4343   18.7614 C   0  0  0  0  0  0  0  0  0  0  0  0
   11.9898  -18.6921   18.0469 C   0  0  0  0  0  0  0  0  0  0  0  0
   13.0571  -18.7682   18.6880 O   0  0  0  0  0  0  0  0  0  0  0  0
    9.9182  -17.3067   20.8128 C   0  0  0  0  0  0  0  0  0  0  0  0
    9.7592  -16.1184   20.4338 O   0  0  0  0  0  0  0  0  0  0  0  0
   11.9840  -18.8475   16.6765 O   0  0  0  0  0  0  0  0  0  0  0  0
    9.0328  -17.7994   21.8141 N   0  0  0  0  0  0  0  0  0  0  0  0
    7.9462  -17.0554   22.3571 C   0  0  0  0  0  0  0  0  0  0  0  0
    8.2866  -16.0641   23.3817 C   0  0  0  0  0  0  0  0  0  0  0  0
    9.5176  -15.8005   23.6298 O   0  0  0  0  0  0  0  0  0  0  0  0
    5.5131  -11.9121   27.1565 C   0  0  0  0  0  0  0  0  0  0  0  0
    6.7882  -12.4312   26.5512 C   0  0  2  0  0  0  0  0  0  0  0  0
    7.6758  -11.2919   26.1659 C   0  0  0  0  0  0  0  0  0  0  0  0
    6.6506  -13.5042   25.5627 C   0  0  0  0  0  0  0  0  0  0  0  0
    7.8069  -14.3212   25.1541 C   0  0  2  0  0  0  0  0  0  0  0  0
    7.3473  -15.3367   24.1555 N   0  0  0  0  0  0  0  0  0  0  0  0
    8.5049  -15.0854   26.1924 C   0  0  0  0  0  0  0  0  0  0  0  0
    8.0371  -16.2011   26.6354 O   0  0  0  0  0  0  0  0  0  0  0  0
    9.7061  -14.7287   26.8014 O   0  0  0  0  0  0  0  0  0  0  0  0
  2  1  1  1
  2  3  1  0
  3  4  1  0
  4  5  2  0
  4  8  1  0
  6  7  2  0
  6  2  1  0
  9  6  1  0
 10  9  1  0
 11 10  1  0
 11 18  1  0
 12 11  2  0
 14 13  1  6
 14 15  1  0
 16 14  1  0
 17 18  1  0
 17 16  1  1
 19 21  1  0
 19 17  1  0
 20 19  2  0
M  END
$$$$
