AVF.pdb
     RDKit          3D

 24 24  0  0  1  0  0  0  0  0999 V2000
    7.9315  -19.0692   20.5989 C   0  0  0  0  0  0  0  0  0  0  0  0
    8.2466  -17.9459   19.6550 C   0  0  2  0  0  0  0  0  0  0  0  0
    8.9960  -18.3876   18.5125 N   0  0  0  0  0  0  0  0  0  0  0  0
    8.8961  -16.7983   20.3451 C   0  0  0  0  0  0  0  0  0  0  0  0
   10.1324  -16.7482   20.4677 O   0  0  0  0  0  0  0  0  0  0  0  0
    6.3130  -13.5310   21.5757 C   0  0  0  0  0  0  0  0  0  0  0  0
    7.6834  -13.4363   20.9926 C   0  0  2  0  0  0  0  0  0  0  0  0
    7.6329  -13.3782   19.4631 C   0  0  0  0  0  0  0  0  0  0  0  0
    8.6445  -14.5054   21.3832 C   0  0  2  0  0  0  0  0  0  0  0  0
    8.0921  -15.7635   20.8610 N   0  0  0  0  0  0  0  0  0  0  0  0
    8.8946  -14.6230   22.8377 C   0  0  0  0  0  0  0  0  0  0  0  0
    9.0577  -13.5432   23.5129 O   0  0  0  0  0  0  0  0  0  0  0  0
    8.9646  -15.8453   23.5397 N   0  0  0  0  0  0  0  0  0  0  0  0
    8.9613  -15.9103   24.9995 C   0  0  1  0  0  0  0  0  0  0  0  0
    7.5819  -15.5174   25.4293 C   0  0  0  0  0  0  0  0  0  0  0  0
    7.4662  -14.1586   25.9931 C   0  0  0  0  0  0  0  0  0  0  0  0
    8.5313  -13.5084   26.5764 C   0  0  0  0  0  0  0  0  0  0  0  0
    8.4070  -12.2165   27.0997 C   0  0  0  0  0  0  0  0  0  0  0  0
    7.2049  -11.5439   27.0495 C   0  0  0  0  0  0  0  0  0  0  0  0
    6.1395  -12.1963   26.4654 C   0  0  0  0  0  0  0  0  0  0  0  0
    6.2598  -13.4695   25.9490 C   0  0  0  0  0  0  0  0  0  0  0  0
    9.2259  -17.3026   25.3980 C   0  0  0  0  0  0  0  0  0  0  0  0
    9.5726  -17.6055   26.7000 O   0  0  0  0  0  0  0  0  0  0  0  0
    9.1417  -18.2319   24.5670 O   0  0  0  0  0  0  0  0  0  0  0  0
  2  1  1  1
  2  4  1  0
  3  2  1  0
  4 10  1  0
  4  5  2  0
  7  6  1  6
  7  8  1  0
  9 11  1  0
  9  7  1  0
  9 10  1  1
 11 12  2  0
 13 14  1  0
 13 11  1  0
 14 15  1  6
 15 16  1  0
 16 21  2  0
 17 18  2  0
 17 16  1  0
 18 19  1  0
 19 20  2  0
 21 20  1  0
 22 14  1  0
 23 22  1  0
 24 22  2  0
M  END
$$$$
