AVF.pdb
     RDKit          3D

 24 24  0  0  1  0  0  0  0  0999 V2000
    8.3189  -12.1135   20.0732 C   0  0  0  0  0  0  0  0  0  0  0  0
    8.2188  -13.4669   19.4328 C   0  0  2  0  0  0  0  0  0  0  0  0
    7.3260  -13.4734   18.3082 N   0  0  0  0  0  0  0  0  0  0  0  0
    7.8897  -14.5317   20.4192 C   0  0  0  0  0  0  0  0  0  0  0  0
    6.7068  -14.8063   20.6863 O   0  0  0  0  0  0  0  0  0  0  0  0
    8.9987  -17.9374   19.9392 C   0  0  0  0  0  0  0  0  0  0  0  0
    9.4466  -17.5267   21.3021 C   0  0  2  0  0  0  0  0  0  0  0  0
    9.4105  -18.7070   22.2772 C   0  0  0  0  0  0  0  0  0  0  0  0
    8.7134  -16.3896   21.9254 C   0  0  2  0  0  0  0  0  0  0  0  0
    8.9374  -15.2294   21.0511 N   0  0  0  0  0  0  0  0  0  0  0  0
    9.1173  -16.0681   23.3130 C   0  0  0  0  0  0  0  0  0  0  0  0
   10.2681  -15.5301   23.4990 O   0  0  0  0  0  0  0  0  0  0  0  0
    8.3213  -16.3103   24.4529 N   0  0  0  0  0  0  0  0  0  0  0  0
    8.7979  -16.0499   25.8095 C   0  0  1  0  0  0  0  0  0  0  0  0
    7.6048  -15.5869   26.5867 C   0  0  0  0  0  0  0  0  0  0  0  0
    7.3105  -14.1448   26.4797 C   0  0  0  0  0  0  0  0  0  0  0  0
    8.2604  -13.1776   26.7242 C   0  0  0  0  0  0  0  0  0  0  0  0
    7.9673  -11.8140   26.6109 C   0  0  0  0  0  0  0  0  0  0  0  0
    6.7078  -11.3873   26.2480 C   0  0  0  0  0  0  0  0  0  0  0  0
    5.7579  -12.3569   26.0039 C   0  0  0  0  0  0  0  0  0  0  0  0
    6.0447  -13.7013   26.1148 C   0  0  0  0  0  0  0  0  0  0  0  0
    9.2943  -17.3162   26.3730 C   0  0  0  0  0  0  0  0  0  0  0  0
   10.1429  -17.3138   27.4625 O   0  0  0  0  0  0  0  0  0  0  0  0
    8.9574  -18.4121   25.8762 O   0  0  0  0  0  0  0  0  0  0  0  0
  2  1  1  1
  2  4  1  0
  3  2  1  0
  4 10  1  0
  4  5  2  0
  7  6  1  6
  7  8  1  0
  9 11  1  0
  9  7  1  0
  9 10  1  6
 11 12  2  0
 13 14  1  0
 13 11  1  0
 14 15  1  1
 15 16  1  0
 16 21  2  0
 17 18  2  0
 17 16  1  0
 18 19  1  0
 19 20  2  0
 21 20  1  0
 22 14  1  0
 23 22  1  0
 24 22  2  0
M  END
$$$$
