AVF.pdb
     RDKit          3D

 24 24  0  0  1  0  0  0  0  0999 V2000
    8.0978  -19.3582   20.9579 C   0  0  0  0  0  0  0  0  0  0  0  0
    7.9959  -18.2025   20.0060 C   0  0  2  0  0  0  0  0  0  0  0  0
    8.3162  -18.5770   18.6573 N   0  0  0  0  0  0  0  0  0  0  0  0
    8.7825  -17.0257   20.4657 C   0  0  0  0  0  0  0  0  0  0  0  0
   10.0192  -16.9998   20.3390 O   0  0  0  0  0  0  0  0  0  0  0  0
    6.6124  -13.4893   21.8699 C   0  0  0  0  0  0  0  0  0  0  0  0
    7.9112  -13.5787   21.1405 C   0  0  2  0  0  0  0  0  0  0  0  0
    7.6954  -13.6094   19.6247 C   0  0  0  0  0  0  0  0  0  0  0  0
    8.7978  -14.7193   21.5044 C   0  0  2  0  0  0  0  0  0  0  0  0
    8.1086  -15.9352   21.0492 N   0  0  0  0  0  0  0  0  0  0  0  0
    9.1227  -14.8262   22.9449 C   0  0  0  0  0  0  0  0  0  0  0  0
    9.8293  -13.8953   23.4765 O   0  0  0  0  0  0  0  0  0  0  0  0
    8.7065  -15.8842   23.7810 N   0  0  0  0  0  0  0  0  0  0  0  0
    8.9301  -15.8743   25.2251 C   0  0  1  0  0  0  0  0  0  0  0  0
    7.5878  -15.6556   25.8513 C   0  0  0  0  0  0  0  0  0  0  0  0
    7.2940  -14.2594   26.2281 C   0  0  0  0  0  0  0  0  0  0  0  0
    8.2436  -13.4288   26.7811 C   0  0  0  0  0  0  0  0  0  0  0  0
    7.9509  -12.1045   27.1259 C   0  0  0  0  0  0  0  0  0  0  0  0
    6.6922  -11.5805   26.9228 C   0  0  0  0  0  0  0  0  0  0  0  0
    5.7427  -12.4135   26.3693 C   0  0  0  0  0  0  0  0  0  0  0  0
    6.0289  -13.7189   26.0287 C   0  0  0  0  0  0  0  0  0  0  0  0
    9.4503  -17.1941   25.6184 C   0  0  0  0  0  0  0  0  0  0  0  0
    9.6170  -18.1910   24.6774 O   0  0  0  0  0  0  0  0  0  0  0  0
    9.7491  -17.4344   26.8077 O   0  0  0  0  0  0  0  0  0  0  0  0
  2  1  1  1
  2  4  1  0
  3  2  1  0
  4 10  1  0
  4  5  2  0
  7  6  1  1
  7  8  1  0
  9 11  1  0
  9  7  1  0
  9 10  1  1
 11 12  2  0
 13 14  1  0
 13 11  1  0
 14 15  1  1
 15 16  1  0
 16 21  2  0
 17 18  2  0
 17 16  1  0
 18 19  1  0
 19 20  2  0
 21 20  1  0
 22 14  1  0
 23 22  1  0
 24 22  2  0
M  END
$$$$
