AVF.pdb
     RDKit          3D

 24 24  0  0  1  0  0  0  0  0999 V2000
    9.4121  -19.2624   19.2155 C   0  0  0  0  0  0  0  0  0  0  0  0
    9.2672  -17.9809   18.4481 C   0  0  2  0  0  0  0  0  0  0  0  0
   10.0034  -17.9972   17.2154 N   0  0  0  0  0  0  0  0  0  0  0  0
    9.5879  -16.7892   19.2800 C   0  0  0  0  0  0  0  0  0  0  0  0
   10.7529  -16.3609   19.3533 O   0  0  0  0  0  0  0  0  0  0  0  0
    7.3394  -13.4376   19.5935 C   0  0  0  0  0  0  0  0  0  0  0  0
    7.5719  -14.1813   20.8662 C   0  0  2  0  0  0  0  0  0  0  0  0
    7.6047  -13.2307   22.0664 C   0  0  0  0  0  0  0  0  0  0  0  0
    8.7905  -15.0365   20.9203 C   0  0  2  0  0  0  0  0  0  0  0  0
    8.5530  -16.1475   19.9876 N   0  0  0  0  0  0  0  0  0  0  0  0
    9.1295  -15.5611   22.2627 C   0  0  0  0  0  0  0  0  0  0  0  0
    8.3732  -16.4680   22.7666 O   0  0  0  0  0  0  0  0  0  0  0  0
   10.2331  -15.1341   23.0317 N   0  0  0  0  0  0  0  0  0  0  0  0
   10.3587  -15.4375   24.4556 C   0  0  1  0  0  0  0  0  0  0  0  0
    9.8164  -14.2465   25.1830 C   0  0  0  0  0  0  0  0  0  0  0  0
    9.7639  -14.3817   26.6515 C   0  0  0  0  0  0  0  0  0  0  0  0
    8.5817  -14.3245   27.3562 C   0  0  0  0  0  0  0  0  0  0  0  0
    8.5481  -14.4623   28.7484 C   0  0  0  0  0  0  0  0  0  0  0  0
    9.7060  -14.6615   29.4692 C   0  0  0  0  0  0  0  0  0  0  0  0
   10.8887  -14.7183   28.7623 C   0  0  0  0  0  0  0  0  0  0  0  0
   10.9241  -14.5829   27.3903 C   0  0  0  0  0  0  0  0  0  0  0  0
    9.5278  -16.6169   24.7489 C   0  0  0  0  0  0  0  0  0  0  0  0
    8.1886  -16.6324   24.4124 O   0  0  0  0  0  0  0  0  0  0  0  0
   10.0190  -17.6216   25.3063 O   0  0  0  0  0  0  0  0  0  0  0  0
  2  1  1  1
  2  4  1  0
  3  2  1  0
  4 10  1  0
  4  5  2  0
  7  6  1  6
  7  8  1  0
  9 11  1  0
  9  7  1  0
  9 10  1  6
 11 12  2  0
 13 14  1  0
 13 11  1  0
 14 15  1  1
 15 16  1  0
 16 21  2  0
 17 18  2  0
 17 16  1  0
 18 19  1  0
 19 20  2  0
 21 20  1  0
 22 14  1  0
 23 22  1  0
 24 22  2  0
M  END
$$$$
