AVF.pdb
     RDKit          3D

 24 24  0  0  1  0  0  0  0  0999 V2000
    7.8073  -18.9402   19.0019 C   0  0  0  0  0  0  0  0  0  0  0  0
    7.9627  -18.7719   20.4850 C   0  0  2  0  0  0  0  0  0  0  0  0
    6.7129  -18.8926   21.1814 N   0  0  0  0  0  0  0  0  0  0  0  0
    8.6837  -17.5178   20.8350 C   0  0  0  0  0  0  0  0  0  0  0  0
    9.8747  -17.3595   20.5149 O   0  0  0  0  0  0  0  0  0  0  0  0
    6.6418  -14.1927   20.5076 C   0  0  0  0  0  0  0  0  0  0  0  0
    7.4502  -14.2152   21.7618 C   0  0  2  0  0  0  0  0  0  0  0  0
    8.0012  -12.8250   22.0919 C   0  0  0  0  0  0  0  0  0  0  0  0
    8.5821  -15.1829   21.8027 C   0  0  2  0  0  0  0  0  0  0  0  0
    7.9997  -16.5060   21.5365 N   0  0  0  0  0  0  0  0  0  0  0  0
    9.3417  -15.2062   23.0734 C   0  0  0  0  0  0  0  0  0  0  0  0
   10.5311  -14.7229   23.0763 O   0  0  0  0  0  0  0  0  0  0  0  0
    8.8472  -15.7232   24.2899 N   0  0  0  0  0  0  0  0  0  0  0  0
    9.7227  -16.0579   25.4109 C   0  0  1  0  0  0  0  0  0  0  0  0
    9.6731  -14.8854   26.3407 C   0  0  0  0  0  0  0  0  0  0  0  0
    8.4114  -14.1206   26.3153 C   0  0  0  0  0  0  0  0  0  0  0  0
    8.3829  -12.7465   26.2228 C   0  0  0  0  0  0  0  0  0  0  0  0
    7.1774  -12.0365   26.1921 C   0  0  0  0  0  0  0  0  0  0  0  0
    5.9666  -12.6922   26.2541 C   0  0  0  0  0  0  0  0  0  0  0  0
    5.9968  -14.0678   26.3469 C   0  0  0  0  0  0  0  0  0  0  0  0
    7.1836  -14.7696   26.3772 C   0  0  0  0  0  0  0  0  0  0  0  0
    9.1733  -17.2465   26.0839 C   0  0  0  0  0  0  0  0  0  0  0  0
    9.8201  -17.7977   27.1724 O   0  0  0  0  0  0  0  0  0  0  0  0
    8.1149  -17.7757   25.6825 O   0  0  0  0  0  0  0  0  0  0  0  0
  2  1  1  6
  2  4  1  0
  3  2  1  0
  4 10  1  0
  4  5  2  0
  7  6  1  6
  7  8  1  0
  9 11  1  0
  9  7  1  0
  9 10  1  1
 11 12  2  0
 13 14  1  0
 13 11  1  0
 14 15  1  1
 15 16  1  0
 16 21  2  0
 17 18  2  0
 17 16  1  0
 18 19  1  0
 19 20  2  0
 21 20  1  0
 22 14  1  0
 23 22  1  0
 24 22  2  0
M  END
$$$$
