AVF.pdb
     RDKit          3D

 24 24  0  0  1  0  0  0  0  0999 V2000
    8.6142  -19.2408   20.0664 C   0  0  0  0  0  0  0  0  0  0  0  0
    8.6767  -17.9647   19.2792 C   0  0  2  0  0  0  0  0  0  0  0  0
    9.3921  -18.1204   18.0440 N   0  0  0  0  0  0  0  0  0  0  0  0
    9.1944  -16.8295   20.0905 C   0  0  0  0  0  0  0  0  0  0  0  0
   10.4170  -16.6669   20.2478 O   0  0  0  0  0  0  0  0  0  0  0  0
    6.3503  -13.8954   21.3944 C   0  0  0  0  0  0  0  0  0  0  0  0
    7.8199  -13.6837   21.2445 C   0  0  2  0  0  0  0  0  0  0  0  0
    8.1714  -13.2131   19.8302 C   0  0  0  0  0  0  0  0  0  0  0  0
    8.6932  -14.8443   21.5759 C   0  0  2  0  0  0  0  0  0  0  0  0
    8.2806  -15.9358   20.6821 N   0  0  0  0  0  0  0  0  0  0  0  0
    8.6348  -15.2904   22.9865 C   0  0  0  0  0  0  0  0  0  0  0  0
    7.6590  -16.0451   23.3425 O   0  0  0  0  0  0  0  0  0  0  0  0
    9.5826  -14.9447   23.9733 N   0  0  0  0  0  0  0  0  0  0  0  0
    9.4253  -15.3235   25.3758 C   0  0  1  0  0  0  0  0  0  0  0  0
    7.9767  -15.1259   25.6990 C   0  0  0  0  0  0  0  0  0  0  0  0
    7.6110  -13.7596   26.1195 C   0  0  0  0  0  0  0  0  0  0  0  0
    8.5537  -12.7852   26.3634 C   0  0  0  0  0  0  0  0  0  0  0  0
    8.1899  -11.4916   26.7541 C   0  0  0  0  0  0  0  0  0  0  0  0
    6.8651  -11.1443   26.9101 C   0  0  0  0  0  0  0  0  0  0  0  0
    5.9227  -12.1210   26.6659 C   0  0  0  0  0  0  0  0  0  0  0  0
    6.2789  -13.3964   26.2806 C   0  0  0  0  0  0  0  0  0  0  0  0
    9.7719  -16.7482   25.5086 C   0  0  0  0  0  0  0  0  0  0  0  0
    9.1409  -17.6988   24.7307 O   0  0  0  0  0  0  0  0  0  0  0  0
   10.6409  -17.1207   26.3255 O   0  0  0  0  0  0  0  0  0  0  0  0
  2  1  1  1
  2  4  1  0
  3  2  1  0
  4 10  1  0
  4  5  2  0
  7  6  1  6
  7  8  1  0
  9 11  1  0
  9  7  1  0
  9 10  1  6
 11 12  2  0
 13 14  1  0
 13 11  1  0
 14 15  1  6
 15 16  1  0
 16 21  2  0
 17 18  2  0
 17 16  1  0
 18 19  1  0
 19 20  2  0
 21 20  1  0
 22 14  1  0
 23 22  1  0
 24 22  2  0
M  END
$$$$
