AVF.pdb
     RDKit          3D

 24 24  0  0  1  0  0  0  0  0999 V2000
    8.0322  -12.0367   20.0305 C   0  0  0  0  0  0  0  0  0  0  0  0
    8.2731  -13.3536   19.3525 C   0  0  2  0  0  0  0  0  0  0  0  0
    7.5562  -13.4684   18.1137 N   0  0  0  0  0  0  0  0  0  0  0  0
    8.0192  -14.5063   20.2591 C   0  0  0  0  0  0  0  0  0  0  0  0
    6.8898  -15.0216   20.3301 O   0  0  0  0  0  0  0  0  0  0  0  0
    9.7942  -18.5966   21.9056 C   0  0  0  0  0  0  0  0  0  0  0  0
    9.7838  -17.2604   21.2412 C   0  0  2  0  0  0  0  0  0  0  0  0
   11.2035  -16.7088   21.0817 C   0  0  0  0  0  0  0  0  0  0  0  0
    8.9483  -16.2078   21.8840 C   0  0  2  0  0  0  0  0  0  0  0  0
    9.0768  -15.0109   21.0404 N   0  0  0  0  0  0  0  0  0  0  0  0
    9.3109  -15.8869   23.2832 C   0  0  0  0  0  0  0  0  0  0  0  0
   10.3189  -15.1179   23.4859 O   0  0  0  0  0  0  0  0  0  0  0  0
    8.6216  -16.3674   24.4170 N   0  0  0  0  0  0  0  0  0  0  0  0
    9.0711  -16.0931   25.7802 C   0  0  1  0  0  0  0  0  0  0  0  0
    7.8488  -15.6955   26.5480 C   0  0  0  0  0  0  0  0  0  0  0  0
    7.4928  -14.2662   26.4598 C   0  0  0  0  0  0  0  0  0  0  0  0
    6.3470  -13.8282   25.8332 C   0  0  0  0  0  0  0  0  0  0  0  0
    6.0198  -12.4693   25.7649 C   0  0  0  0  0  0  0  0  0  0  0  0
    6.8392  -11.5137   26.3265 C   0  0  0  0  0  0  0  0  0  0  0  0
    7.9861  -11.9538   26.9532 C   0  0  0  0  0  0  0  0  0  0  0  0
    8.3104  -13.2925   27.0218 C   0  0  0  0  0  0  0  0  0  0  0  0
    9.6244  -17.3370   26.3405 C   0  0  0  0  0  0  0  0  0  0  0  0
   10.4107  -17.3059   27.4753 O   0  0  0  0  0  0  0  0  0  0  0  0
    9.3928  -18.4395   25.8000 O   0  0  0  0  0  0  0  0  0  0  0  0
  2  1  1  1
  2  4  1  0
  3  2  1  0
  4 10  1  0
  4  5  2  0
  7  6  1  1
  7  8  1  0
  9 11  1  0
  9  7  1  0
  9 10  1  6
 11 12  2  0
 13 14  1  0
 13 11  1  0
 14 15  1  1
 15 16  1  0
 16 21  2  0
 17 18  2  0
 17 16  1  0
 18 19  1  0
 19 20  2  0
 21 20  1  0
 22 14  1  0
 23 22  1  0
 24 22  2  0
M  END
$$$$
