AVF.pdb
     RDKit          3D

 24 24  0  0  1  0  0  0  0  0999 V2000
    6.9983  -19.7163   23.6083 C   0  0  0  0  0  0  0  0  0  0  0  0
    6.8365  -19.1297   22.2366 C   0  0  2  0  0  0  0  0  0  0  0  0
    6.9176  -20.1249   21.2047 N   0  0  0  0  0  0  0  0  0  0  0  0
    7.7686  -17.9941   21.9983 C   0  0  0  0  0  0  0  0  0  0  0  0
    8.9198  -18.1957   21.5741 O   0  0  0  0  0  0  0  0  0  0  0  0
    6.6711  -14.4456   20.4951 C   0  0  0  0  0  0  0  0  0  0  0  0
    7.3607  -14.3567   21.8155 C   0  0  2  0  0  0  0  0  0  0  0  0
    8.2052  -13.0831   21.9158 C   0  0  0  0  0  0  0  0  0  0  0  0
    8.2212  -15.5129   22.1923 C   0  0  2  0  0  0  0  0  0  0  0  0
    7.3314  -16.6810   22.2596 N   0  0  0  0  0  0  0  0  0  0  0  0
    8.9568  -15.3579   23.4678 C   0  0  0  0  0  0  0  0  0  0  0  0
    9.9177  -14.5074   23.5126 O   0  0  0  0  0  0  0  0  0  0  0  0
    8.6737  -16.0814   24.6459 N   0  0  0  0  0  0  0  0  0  0  0  0
    9.3070  -15.7710   25.9257 C   0  0  1  0  0  0  0  0  0  0  0  0
    8.1909  -15.4971   26.8854 C   0  0  0  0  0  0  0  0  0  0  0  0
    7.5566  -14.1722   26.7446 C   0  0  0  0  0  0  0  0  0  0  0  0
    6.2333  -14.0210   26.3933 C   0  0  0  0  0  0  0  0  0  0  0  0
    5.6446  -12.7574   26.2715 C   0  0  0  0  0  0  0  0  0  0  0  0
    6.3741  -11.6104   26.5003 C   0  0  0  0  0  0  0  0  0  0  0  0
    7.6988  -11.7634   26.8516 C   0  0  0  0  0  0  0  0  0  0  0  0
    8.2810  -13.0078   26.9724 C   0  0  0  0  0  0  0  0  0  0  0  0
   10.0583  -16.9579   26.3663 C   0  0  0  0  0  0  0  0  0  0  0  0
   10.0380  -18.1183   25.6179 O   0  0  0  0  0  0  0  0  0  0  0  0
   10.7255  -16.9358   27.4226 O   0  0  0  0  0  0  0  0  0  0  0  0
  2  1  1  1
  2  4  1  0
  3  2  1  0
  4 10  1  0
  4  5  2  0
  7  6  1  6
  7  8  1  0
  9 11  1  0
  9  7  1  0
  9 10  1  1
 11 12  2  0
 13 14  1  0
 13 11  1  0
 14 15  1  1
 15 16  1  0
 16 21  2  0
 17 18  2  0
 17 16  1  0
 18 19  1  0
 19 20  2  0
 21 20  1  0
 22 14  1  0
 23 22  1  0
 24 22  2  0
M  END
$$$$
