AVF.pdb
     RDKit          3D

 24 24  0  0  1  0  0  0  0  0999 V2000
    8.8382  -12.2756   19.3057 C   0  0  0  0  0  0  0  0  0  0  0  0
    8.4209  -13.6487   18.8665 C   0  0  2  0  0  0  0  0  0  0  0  0
    7.5007  -13.6127   17.7649 N   0  0  0  0  0  0  0  0  0  0  0  0
    7.9121  -14.4696   19.9989 C   0  0  0  0  0  0  0  0  0  0  0  0
    6.7135  -14.4260   20.3265 O   0  0  0  0  0  0  0  0  0  0  0  0
    9.7133  -18.1234   20.9100 C   0  0  0  0  0  0  0  0  0  0  0  0
    8.3874  -17.5542   21.2907 C   0  0  2  0  0  0  0  0  0  0  0  0
    7.4002  -17.6171   20.1216 C   0  0  0  0  0  0  0  0  0  0  0  0
    8.3916  -16.1609   21.8178 C   0  0  2  0  0  0  0  0  0  0  0  0
    8.8067  -15.3013   20.6999 N   0  0  0  0  0  0  0  0  0  0  0  0
    9.2703  -15.9357   22.9879 C   0  0  0  0  0  0  0  0  0  0  0  0
   10.5382  -15.8859   22.7918 O   0  0  0  0  0  0  0  0  0  0  0  0
    8.8103  -15.7685   24.3116 N   0  0  0  0  0  0  0  0  0  0  0  0
    9.7222  -15.6426   25.4465 C   0  0  1  0  0  0  0  0  0  0  0  0
    9.7896  -14.1811   25.7645 C   0  0  0  0  0  0  0  0  0  0  0  0
    8.4870  -13.5363   26.0196 C   0  0  0  0  0  0  0  0  0  0  0  0
    7.5560  -13.3343   25.0246 C   0  0  0  0  0  0  0  0  0  0  0  0
    6.3218  -12.7281   25.2845 C   0  0  0  0  0  0  0  0  0  0  0  0
    5.9918  -12.3083   26.5553 C   0  0  0  0  0  0  0  0  0  0  0  0
    6.9250  -12.5110   27.5502 C   0  0  0  0  0  0  0  0  0  0  0  0
    8.1419  -13.1083   27.2963 C   0  0  0  0  0  0  0  0  0  0  0  0
    9.1403  -16.3705   26.5862 C   0  0  0  0  0  0  0  0  0  0  0  0
    9.8176  -16.4499   27.7870 O   0  0  0  0  0  0  0  0  0  0  0  0
    8.0263  -16.9278   26.4867 O   0  0  0  0  0  0  0  0  0  0  0  0
  2  1  1  1
  2  4  1  0
  3  2  1  0
  4 10  1  0
  4  5  2  0
  7  6  1  6
  7  8  1  0
  9 11  1  0
  9  7  1  0
  9 10  1  6
 11 12  2  0
 13 14  1  0
 13 11  1  0
 14 15  1  1
 15 16  1  0
 16 21  2  0
 17 18  2  0
 17 16  1  0
 18 19  1  0
 19 20  2  0
 21 20  1  0
 22 14  1  0
 23 22  1  0
 24 22  2  0
M  END
$$$$
