AVF.pdb
     RDKit          3D

 24 24  0  0  1  0  0  0  0  0999 V2000
    8.6114  -12.0425   19.8396 C   0  0  0  0  0  0  0  0  0  0  0  0
    8.4881  -13.3608   19.1332 C   0  0  2  0  0  0  0  0  0  0  0  0
    7.8313  -13.2390   17.8621 N   0  0  0  0  0  0  0  0  0  0  0  0
    7.8622  -14.4019   19.9930 C   0  0  0  0  0  0  0  0  0  0  0  0
    6.8494  -15.0149   19.6128 O   0  0  0  0  0  0  0  0  0  0  0  0
    7.8923  -18.3780   21.6815 C   0  0  0  0  0  0  0  0  0  0  0  0
    8.3274  -17.0502   21.1574 C   0  0  2  0  0  0  0  0  0  0  0  0
    9.8144  -17.0583   20.7914 C   0  0  0  0  0  0  0  0  0  0  0  0
    8.0743  -15.8756   22.0380 C   0  0  2  0  0  0  0  0  0  0  0  0
    8.4315  -14.6878   21.2491 N   0  0  0  0  0  0  0  0  0  0  0  0
    8.8177  -15.8799   23.3184 C   0  0  0  0  0  0  0  0  0  0  0  0
   10.0820  -15.6588   23.2847 O   0  0  0  0  0  0  0  0  0  0  0  0
    8.2313  -16.1090   24.5814 N   0  0  0  0  0  0  0  0  0  0  0  0
    8.9593  -15.9005   25.8312 C   0  0  1  0  0  0  0  0  0  0  0  0
    7.9449  -15.4361   26.8298 C   0  0  0  0  0  0  0  0  0  0  0  0
    7.4507  -14.0609   26.6252 C   0  0  0  0  0  0  0  0  0  0  0  0
    8.2317  -12.9523   26.8670 C   0  0  0  0  0  0  0  0  0  0  0  0
    7.7504  -11.6546   26.6605 C   0  0  0  0  0  0  0  0  0  0  0  0
    6.4677  -11.4383   26.2045 C   0  0  0  0  0  0  0  0  0  0  0  0
    5.6870  -12.5492   25.9631 C   0  0  0  0  0  0  0  0  0  0  0  0
    6.1593  -13.8290   26.1658 C   0  0  0  0  0  0  0  0  0  0  0  0
    9.5182  -17.1937   26.2586 C   0  0  0  0  0  0  0  0  0  0  0  0
    9.1771  -18.3576   25.5982 O   0  0  0  0  0  0  0  0  0  0  0  0
   10.3088  -17.2602   27.2239 O   0  0  0  0  0  0  0  0  0  0  0  0
  2  1  1  1
  2  4  1  0
  3  2  1  0
  4 10  1  0
  4  5  2  0
  7  6  1  1
  7  8  1  0
  9 11  1  0
  9  7  1  0
  9 10  1  6
 11 12  2  0
 13 14  1  0
 13 11  1  0
 14 15  1  1
 15 16  1  0
 16 21  2  0
 17 18  2  0
 17 16  1  0
 18 19  1  0
 19 20  2  0
 21 20  1  0
 22 14  1  0
 23 22  1  0
 24 22  2  0
M  END
$$$$
