AVF.pdb
     RDKit          3D

 24 24  0  0  1  0  0  0  0  0999 V2000
   10.2460  -13.0472   19.1950 C   0  0  0  0  0  0  0  0  0  0  0  0
    8.9178  -13.6875   18.9155 C   0  0  2  0  0  0  0  0  0  0  0  0
    8.1015  -12.8913   18.0428 N   0  0  0  0  0  0  0  0  0  0  0  0
    8.2033  -14.0662   20.1650 C   0  0  0  0  0  0  0  0  0  0  0  0
    7.4806  -13.2457   20.7568 O   0  0  0  0  0  0  0  0  0  0  0  0
    7.9173  -18.2386   21.1108 C   0  0  0  0  0  0  0  0  0  0  0  0
    7.0160  -17.1250   21.5288 C   0  0  2  0  0  0  0  0  0  0  0  0
    5.9612  -16.8330   20.4576 C   0  0  0  0  0  0  0  0  0  0  0  0
    7.6760  -15.8393   21.8903 C   0  0  2  0  0  0  0  0  0  0  0  0
    8.3547  -15.3709   20.6735 N   0  0  0  0  0  0  0  0  0  0  0  0
    8.6392  -15.9223   23.0117 C   0  0  0  0  0  0  0  0  0  0  0  0
    9.8353  -16.3114   22.7543 O   0  0  0  0  0  0  0  0  0  0  0  0
    8.3346  -15.6001   24.3515 N   0  0  0  0  0  0  0  0  0  0  0  0
    9.3338  -15.6572   25.4163 C   0  0  1  0  0  0  0  0  0  0  0  0
    9.4886  -14.2543   25.9158 C   0  0  0  0  0  0  0  0  0  0  0  0
    8.2249  -13.5189   26.1154 C   0  0  0  0  0  0  0  0  0  0  0  0
    7.5013  -12.9966   25.0661 C   0  0  0  0  0  0  0  0  0  0  0  0
    6.3003  -12.3083   25.2717 C   0  0  0  0  0  0  0  0  0  0  0  0
    5.7954  -12.1271   26.5415 C   0  0  0  0  0  0  0  0  0  0  0  0
    6.5213  -12.6503   27.5908 C   0  0  0  0  0  0  0  0  0  0  0  0
    7.7050  -13.3291   27.3905 C   0  0  0  0  0  0  0  0  0  0  0  0
    8.8080  -16.5109   26.4943 C   0  0  0  0  0  0  0  0  0  0  0  0
    9.5920  -16.8225   27.5875 O   0  0  0  0  0  0  0  0  0  0  0  0
    7.6461  -16.9673   26.4385 O   0  0  0  0  0  0  0  0  0  0  0  0
  2  1  1  1
  2  4  1  0
  3  2  1  0
  4 10  1  0
  4  5  2  0
  7  6  1  6
  7  8  1  0
  9 11  1  0
  9  7  1  0
  9 10  1  6
 11 12  2  0
 13 14  1  0
 13 11  1  0
 14 15  1  1
 15 16  1  0
 16 21  2  0
 17 18  2  0
 17 16  1  0
 18 19  1  0
 19 20  2  0
 21 20  1  0
 22 14  1  0
 23 22  1  0
 24 22  2  0
M  END
$$$$
