AVF.pdb
     RDKit          3D

 24 24  0  0  1  0  0  0  0  0999 V2000
    8.6073  -12.0691   20.0026 C   0  0  0  0  0  0  0  0  0  0  0  0
    8.4816  -13.4368   19.3978 C   0  0  2  0  0  0  0  0  0  0  0  0
    7.6582  -13.4394   18.2215 N   0  0  0  0  0  0  0  0  0  0  0  0
    8.0442  -14.4527   20.3937 C   0  0  0  0  0  0  0  0  0  0  0  0
    6.8360  -14.6786   20.5816 O   0  0  0  0  0  0  0  0  0  0  0  0
   10.7259  -17.5326   21.2898 C   0  0  0  0  0  0  0  0  0  0  0  0
    9.2449  -17.4903   21.4687 C   0  0  2  0  0  0  0  0  0  0  0  0
    8.5185  -17.7564   20.1471 C   0  0  0  0  0  0  0  0  0  0  0  0
    8.6849  -16.2435   22.0613 C   0  0  2  0  0  0  0  0  0  0  0  0
    9.0178  -15.1599   21.1255 N   0  0  0  0  0  0  0  0  0  0  0  0
    9.1803  -15.9163   23.4176 C   0  0  0  0  0  0  0  0  0  0  0  0
   10.3061  -15.3074   23.5200 O   0  0  0  0  0  0  0  0  0  0  0  0
    8.4977  -16.2259   24.6133 N   0  0  0  0  0  0  0  0  0  0  0  0
    9.0041  -15.8344   25.9270 C   0  0  1  0  0  0  0  0  0  0  0  0
    7.8062  -15.4338   26.7310 C   0  0  0  0  0  0  0  0  0  0  0  0
    7.2740  -14.0903   26.4324 C   0  0  0  0  0  0  0  0  0  0  0  0
    8.0175  -12.9449   26.6136 C   0  0  0  0  0  0  0  0  0  0  0  0
    7.5007  -11.6784   26.3184 C   0  0  0  0  0  0  0  0  0  0  0  0
    6.2192  -11.5313   25.8323 C   0  0  0  0  0  0  0  0  0  0  0  0
    5.4761  -12.6789   25.6518 C   0  0  0  0  0  0  0  0  0  0  0  0
    5.9835  -13.9280   25.9420 C   0  0  0  0  0  0  0  0  0  0  0  0
    9.6423  -17.0097   26.5423 C   0  0  0  0  0  0  0  0  0  0  0  0
   10.4618  -16.8660   27.6444 O   0  0  0  0  0  0  0  0  0  0  0  0
    9.4540  -18.1547   26.0788 O   0  0  0  0  0  0  0  0  0  0  0  0
  2  1  1  1
  2  4  1  0
  3  2  1  0
  4 10  1  0
  4  5  2  0
  7  6  1  6
  7  8  1  0
  9 11  1  0
  9  7  1  0
  9 10  1  6
 11 12  2  0
 13 14  1  0
 13 11  1  0
 14 15  1  1
 15 16  1  0
 16 21  2  0
 17 18  2  0
 17 16  1  0
 18 19  1  0
 19 20  2  0
 21 20  1  0
 22 14  1  0
 23 22  1  0
 24 22  2  0
M  END
$$$$
