AVF.pdb
     RDKit          3D

 24 24  0  0  1  0  0  0  0  0999 V2000
    7.6477  -12.6218   18.7165 C   0  0  0  0  0  0  0  0  0  0  0  0
    8.4875  -13.7396   19.2618 C   0  0  2  0  0  0  0  0  0  0  0  0
    8.7217  -14.7700   18.2895 N   0  0  0  0  0  0  0  0  0  0  0  0
    7.9419  -14.2813   20.5362 C   0  0  0  0  0  0  0  0  0  0  0  0
    7.7508  -13.5358   21.5128 O   0  0  0  0  0  0  0  0  0  0  0  0
    5.4908  -17.6273   20.4937 C   0  0  0  0  0  0  0  0  0  0  0  0
    6.6288  -17.6239   21.4592 C   0  0  2  0  0  0  0  0  0  0  0  0
    6.2778  -18.3973   22.7334 C   0  0  0  0  0  0  0  0  0  0  0  0
    7.1540  -16.2883   21.8588 C   0  0  2  0  0  0  0  0  0  0  0  0
    7.6425  -15.6546   20.6258 N   0  0  0  0  0  0  0  0  0  0  0  0
    8.2276  -16.3159   22.8780 C   0  0  0  0  0  0  0  0  0  0  0  0
    9.3907  -16.7258   22.5207 O   0  0  0  0  0  0  0  0  0  0  0  0
    8.0629  -15.9192   24.2223 N   0  0  0  0  0  0  0  0  0  0  0  0
    9.1776  -15.8714   25.1660 C   0  0  1  0  0  0  0  0  0  0  0  0
    9.4593  -14.4201   25.4024 C   0  0  0  0  0  0  0  0  0  0  0  0
    8.3261  -13.6431   25.9407 C   0  0  0  0  0  0  0  0  0  0  0  0
    8.2153  -13.3290   27.2773 C   0  0  0  0  0  0  0  0  0  0  0  0
    7.1380  -12.5845   27.7708 C   0  0  0  0  0  0  0  0  0  0  0  0
    6.1418  -12.1361   26.9301 C   0  0  0  0  0  0  0  0  0  0  0  0
    6.2541  -12.4517   25.5924 C   0  0  0  0  0  0  0  0  0  0  0  0
    7.3150  -13.1851   25.1039 C   0  0  0  0  0  0  0  0  0  0  0  0
    8.7426  -16.5021   26.4231 C   0  0  0  0  0  0  0  0  0  0  0  0
    7.4519  -16.9732   26.5613 O   0  0  0  0  0  0  0  0  0  0  0  0
    9.5320  -16.6215   27.3843 O   0  0  0  0  0  0  0  0  0  0  0  0
  2  1  1  6
  2  4  1  0
  3  2  1  0
  4 10  1  0
  4  5  2  0
  7  6  1  6
  7  8  1  0
  9 11  1  0
  9  7  1  0
  9 10  1  6
 11 12  2  0
 13 14  1  0
 13 11  1  0
 14 15  1  1
 15 16  1  0
 16 21  2  0
 17 18  2  0
 17 16  1  0
 18 19  1  0
 19 20  2  0
 21 20  1  0
 22 14  1  0
 23 22  1  0
 24 22  2  0
M  END
$$$$
