KDW.pdb
     RDKit          3D

 32 33  0  0  1  0  0  0  0  0999 V2000
   29.4680  -19.9885  -17.1248 N   0  0  0  0  0  0  0  0  0  0  0  0
   28.5738  -18.9038  -16.7259 C   0  0  1  0  0  0  0  0  0  0  0  0
   28.2672  -18.0525  -17.8845 C   0  0  0  0  0  0  0  0  0  0  0  0
   29.0946  -18.2751  -19.0791 C   0  0  0  0  0  0  0  0  0  0  0  0
   29.8746  -17.2353  -19.7356 C   0  0  0  0  0  0  0  0  0  0  0  0
   29.6994  -16.8948  -21.1620 C   0  0  0  0  0  0  0  0  0  0  0  0
   30.7433  -15.8867  -21.5627 N   0  0  0  0  0  0  0  0  0  0  0  0
   27.3103  -19.5122  -16.1431 C   0  0  0  0  0  0  0  0  0  0  0  0
   26.3304  -18.7987  -15.8257 O   0  0  0  0  0  0  0  0  0  0  0  0
   27.2009  -20.9025  -15.9394 N   0  0  0  0  0  0  0  0  0  0  0  0
   25.9729  -21.5515  -15.4163 C   0  0  1  0  0  0  0  0  0  0  0  0
   25.8662  -22.9281  -15.9691 C   0  0  0  0  0  0  0  0  0  0  0  0
   24.6851  -23.6366  -15.4633 C   0  0  0  0  0  0  0  0  0  0  0  0
   23.5562  -23.0990  -15.3122 O   0  0  0  0  0  0  0  0  0  0  0  0
   26.0120  -21.5411  -13.9457 C   0  0  0  0  0  0  0  0  0  0  0  0
   27.0765  -21.9469  -13.3669 O   0  0  0  0  0  0  0  0  0  0  0  0
   24.8575  -24.9971  -15.1364 O   0  0  0  0  0  0  0  0  0  0  0  0
   24.9522  -21.1056  -13.1151 N   0  0  0  0  0  0  0  0  0  0  0  0
   25.0455  -21.1736  -11.6624 C   0  0  1  0  0  0  0  0  0  0  0  0
   26.3601  -20.5420  -11.1907 C   0  0  0  0  0  0  0  0  0  0  0  0
   26.3246  -20.3450   -9.7267 C   0  0  0  0  0  0  0  0  0  0  0  0
   25.2604  -20.2153   -8.8655 C   0  0  0  0  0  0  0  0  0  0  0  0
   25.6998  -20.0548   -7.6048 N   0  0  0  0  0  0  0  0  0  0  0  0
   27.0669  -20.0745   -7.6014 C   0  0  0  0  0  0  0  0  0  0  0  0
   28.0042  -19.9557   -6.5942 C   0  0  0  0  0  0  0  0  0  0  0  0
   29.3536  -20.0122   -6.8654 C   0  0  0  0  0  0  0  0  0  0  0  0
   29.7605  -20.1909   -8.1726 C   0  0  0  0  0  0  0  0  0  0  0  0
   28.8111  -20.3074   -9.1652 C   0  0  0  0  0  0  0  0  0  0  0  0
   27.4531  -20.2534   -8.9106 C   0  0  0  0  0  0  0  0  0  0  0  0
   23.8917  -20.6287  -10.9532 C   0  0  0  0  0  0  0  0  0  0  0  0
   23.0494  -19.8772  -11.4848 O   0  0  0  0  0  0  0  0  0  0  0  0
   23.6476  -20.9207   -9.5965 O   0  0  0  0  0  0  0  0  0  0  0  0
  2  3  1  0
  2  1  1  6
  3  4  1  0
  5  4  1  0
  6  5  1  0
  7  6  1  0
  8  2  1  0
  8  9  2  0
 10  8  1  0
 11 10  1  0
 12 13  1  0
 11 12  1  6
 13 14  2  0
 15 18  1  0
 15 11  1  0
 16 15  2  0
 17 13  1  0
 19 18  1  0
 19 30  1  0
 19 20  1  1
 21 20  1  0
 21 29  1  0
 22 23  1  0
 22 21  2  0
 23 24  1  0
 24 25  1  0
 24 29  2  0
 25 26  2  0
 26 27  1  0
 28 27  2  0
 29 28  1  0
 30 31  2  0
 30 32  1  0
M  END
$$$$
