KDW.pdb
     RDKit          3D

 32 33  0  0  1  0  0  0  0  0999 V2000
   21.4371  -20.1111  -15.7475 N   0  0  0  0  0  0  0  0  0  0  0  0
   22.3704  -19.3295  -14.9393 C   0  0  1  0  0  0  0  0  0  0  0  0
   21.6619  -18.2215  -14.2827 C   0  0  0  0  0  0  0  0  0  0  0  0
   21.2951  -17.0928  -15.1504 C   0  0  0  0  0  0  0  0  0  0  0  0
   19.9685  -16.8997  -15.7192 C   0  0  0  0  0  0  0  0  0  0  0  0
   19.6358  -15.7468  -16.5804 C   0  0  0  0  0  0  0  0  0  0  0  0
   18.2466  -15.9253  -17.1325 N   0  0  0  0  0  0  0  0  0  0  0  0
   23.0111  -20.2525  -13.9175 C   0  0  0  0  0  0  0  0  0  0  0  0
   22.3177  -20.8943  -13.0946 O   0  0  0  0  0  0  0  0  0  0  0  0
   24.4100  -20.4152  -13.8623 N   0  0  0  0  0  0  0  0  0  0  0  0
   25.0796  -21.3740  -12.9485 C   0  0  1  0  0  0  0  0  0  0  0  0
   25.9719  -22.2671  -13.7349 C   0  0  0  0  0  0  0  0  0  0  0  0
   25.2495  -23.4135  -14.2977 C   0  0  0  0  0  0  0  0  0  0  0  0
   24.0103  -23.5952  -14.1651 O   0  0  0  0  0  0  0  0  0  0  0  0
   25.8096  -20.6241  -11.9146 C   0  0  0  0  0  0  0  0  0  0  0  0
   26.4417  -19.5706  -12.2657 O   0  0  0  0  0  0  0  0  0  0  0  0
   26.0163  -24.3477  -15.0235 O   0  0  0  0  0  0  0  0  0  0  0  0
   25.8604  -20.9809  -10.5461 N   0  0  0  0  0  0  0  0  0  0  0  0
   26.7974  -20.3466   -9.6277 C   0  0  1  0  0  0  0  0  0  0  0  0
   26.2288  -20.3613   -8.2043 C   0  0  0  0  0  0  0  0  0  0  0  0
   27.0743  -19.5348   -7.3182 C   0  0  0  0  0  0  0  0  0  0  0  0
   27.3719  -18.1929   -7.3595 C   0  0  0  0  0  0  0  0  0  0  0  0
   28.1875  -17.8663   -6.3416 N   0  0  0  0  0  0  0  0  0  0  0  0
   28.4497  -18.9855   -5.6013 C   0  0  0  0  0  0  0  0  0  0  0  0
   29.2122  -19.2053   -4.4711 C   0  0  0  0  0  0  0  0  0  0  0  0
   29.3109  -20.4595   -3.9101 C   0  0  0  0  0  0  0  0  0  0  0  0
   28.6296  -21.5055   -4.5001 C   0  0  0  0  0  0  0  0  0  0  0  0
   27.8734  -21.2679   -5.6278 C   0  0  0  0  0  0  0  0  0  0  0  0
   27.7631  -20.0155   -6.2036 C   0  0  0  0  0  0  0  0  0  0  0  0
   28.1550  -20.8808   -9.6796 C   0  0  0  0  0  0  0  0  0  0  0  0
   28.4257  -22.0882   -9.5200 O   0  0  0  0  0  0  0  0  0  0  0  0
   29.2704  -20.0534   -9.9184 O   0  0  0  0  0  0  0  0  0  0  0  0
  2  3  1  0
  2  1  1  1
  3  4  1  0
  5  4  1  0
  6  5  1  0
  7  6  1  0
  8  2  1  0
  8  9  2  0
 10  8  1  0
 11 10  1  0
 12 13  1  0
 11 12  1  6
 13 14  2  0
 15 18  1  0
 15 11  1  0
 16 15  2  0
 17 13  1  0
 19 18  1  0
 19 30  1  0
 19 20  1  1
 21 20  1  0
 21 29  1  0
 22 23  1  0
 22 21  2  0
 23 24  1  0
 24 25  1  0
 24 29  2  0
 25 26  2  0
 26 27  1  0
 28 27  2  0
 29 28  1  0
 30 31  2  0
 30 32  1  0
M  END
$$$$
