KDW.pdb
     RDKit          3D

 32 33  0  0  1  0  0  0  0  0999 V2000
   28.4236  -20.4069  -15.4041 N   0  0  0  0  0  0  0  0  0  0  0  0
   28.4278  -19.1241  -14.7043 C   0  0  1  0  0  0  0  0  0  0  0  0
   28.2109  -18.0287  -15.6603 C   0  0  0  0  0  0  0  0  0  0  0  0
   28.8866  -18.1688  -16.9583 C   0  0  0  0  0  0  0  0  0  0  0  0
   28.6877  -19.2918  -17.8638 C   0  0  0  0  0  0  0  0  0  0  0  0
   29.3952  -19.4031  -19.1554 C   0  0  0  0  0  0  0  0  0  0  0  0
   29.0086  -20.6963  -19.8224 N   0  0  0  0  0  0  0  0  0  0  0  0
   27.3399  -19.1508  -13.6451 C   0  0  0  0  0  0  0  0  0  0  0  0
   27.0192  -18.1165  -13.0147 O   0  0  0  0  0  0  0  0  0  0  0  0
   26.6559  -20.3438  -13.3366 N   0  0  0  0  0  0  0  0  0  0  0  0
   25.5015  -20.3994  -12.4054 C   0  0  1  0  0  0  0  0  0  0  0  0
   24.3585  -21.0775  -13.0731 C   0  0  0  0  0  0  0  0  0  0  0  0
   23.6934  -20.2070  -14.0492 C   0  0  0  0  0  0  0  0  0  0  0  0
   23.5510  -20.4986  -15.2662 O   0  0  0  0  0  0  0  0  0  0  0  0
   25.9125  -21.0834  -11.1694 C   0  0  0  0  0  0  0  0  0  0  0  0
   26.8036  -21.9955  -11.2516 O   0  0  0  0  0  0  0  0  0  0  0  0
   23.1961  -18.9801  -13.5645 O   0  0  0  0  0  0  0  0  0  0  0  0
   25.3955  -20.8007   -9.8827 N   0  0  0  0  0  0  0  0  0  0  0  0
   25.8142  -21.5581   -8.7102 C   0  0  1  0  0  0  0  0  0  0  0  0
   27.3110  -21.3466   -8.4556 C   0  0  0  0  0  0  0  0  0  0  0  0
   27.5105  -20.1621   -7.5953 C   0  0  0  0  0  0  0  0  0  0  0  0
   26.9438  -18.9102   -7.6484 C   0  0  0  0  0  0  0  0  0  0  0  0
   27.4217  -18.1413   -6.6542 N   0  0  0  0  0  0  0  0  0  0  0  0
   28.3172  -18.8665   -5.9184 C   0  0  0  0  0  0  0  0  0  0  0  0
   29.0823  -18.5648   -4.8089 C   0  0  0  0  0  0  0  0  0  0  0  0
   29.9242  -19.4994   -4.2475 C   0  0  0  0  0  0  0  0  0  0  0  0
   29.9936  -20.7559   -4.8157 C   0  0  0  0  0  0  0  0  0  0  0  0
   29.2230  -21.0395   -5.9229 C   0  0  0  0  0  0  0  0  0  0  0  0
   28.3726  -20.1136   -6.4988 C   0  0  0  0  0  0  0  0  0  0  0  0
   25.0161  -21.3144   -7.5125 C   0  0  0  0  0  0  0  0  0  0  0  0
   24.1823  -20.3911   -7.4176 O   0  0  0  0  0  0  0  0  0  0  0  0
   25.1360  -22.1205   -6.3629 O   0  0  0  0  0  0  0  0  0  0  0  0
  2  3  1  0
  2  1  1  6
  3  4  1  0
  5  4  1  0
  6  5  1  0
  7  6  1  0
  8  2  1  0
  8  9  2  0
 10  8  1  0
 11 10  1  0
 12 13  1  0
 11 12  1  6
 13 14  2  0
 15 18  1  0
 15 11  1  0
 16 15  2  0
 17 13  1  0
 19 18  1  0
 19 30  1  0
 19 20  1  1
 21 20  1  0
 21 29  1  0
 22 23  1  0
 22 21  2  0
 23 24  1  0
 24 25  1  0
 24 29  2  0
 25 26  2  0
 26 27  1  0
 28 27  2  0
 29 28  1  0
 30 31  2  0
 30 32  1  0
M  END
$$$$
