KDW.pdb
     RDKit          3D

 32 33  0  0  1  0  0  0  0  0999 V2000
   29.8698  -21.7501  -17.8273 N   0  0  0  0  0  0  0  0  0  0  0  0
   28.6290  -22.3417  -17.3318 C   0  0  1  0  0  0  0  0  0  0  0  0
   28.8230  -23.7760  -17.0746 C   0  0  0  0  0  0  0  0  0  0  0  0
   30.1774  -24.2925  -17.3188 C   0  0  0  0  0  0  0  0  0  0  0  0
   31.1369  -24.5940  -16.2656 C   0  0  0  0  0  0  0  0  0  0  0  0
   32.4892  -25.1146  -16.5511 C   0  0  0  0  0  0  0  0  0  0  0  0
   33.2914  -25.1352  -15.2773 N   0  0  0  0  0  0  0  0  0  0  0  0
   28.2185  -21.6086  -16.0667 C   0  0  0  0  0  0  0  0  0  0  0  0
   28.8566  -20.6117  -15.6556 O   0  0  0  0  0  0  0  0  0  0  0  0
   27.1044  -22.0290  -15.3128 N   0  0  0  0  0  0  0  0  0  0  0  0
   26.3842  -21.1417  -14.3658 C   0  0  1  0  0  0  0  0  0  0  0  0
   25.1613  -20.6061  -15.0212 C   0  0  0  0  0  0  0  0  0  0  0  0
   24.5036  -19.5776  -14.2073 C   0  0  0  0  0  0  0  0  0  0  0  0
   25.0543  -18.9926  -13.2374 O   0  0  0  0  0  0  0  0  0  0  0  0
   26.0773  -21.8943  -13.1396 C   0  0  0  0  0  0  0  0  0  0  0  0
   24.9996  -22.5801  -13.1056 O   0  0  0  0  0  0  0  0  0  0  0  0
   23.1782  -19.2483  -14.5573 O   0  0  0  0  0  0  0  0  0  0  0  0
   26.8960  -21.9218  -11.9856 N   0  0  0  0  0  0  0  0  0  0  0  0
   26.4012  -21.4749  -10.6897 C   0  0  1  0  0  0  0  0  0  0  0  0
   27.4282  -20.5504  -10.0261 C   0  0  0  0  0  0  0  0  0  0  0  0
   26.9727  -20.1884   -8.6680 C   0  0  0  0  0  0  0  0  0  0  0  0
   25.7210  -19.8653   -8.1988 C   0  0  0  0  0  0  0  0  0  0  0  0
   25.7716  -19.6060   -6.8804 N   0  0  0  0  0  0  0  0  0  0  0  0
   27.0593  -19.7513   -6.4447 C   0  0  0  0  0  0  0  0  0  0  0  0
   27.6524  -19.6076   -5.2059 C   0  0  0  0  0  0  0  0  0  0  0  0
   29.0026  -19.8184   -5.0326 C   0  0  0  0  0  0  0  0  0  0  0  0
   29.7634  -20.1792   -6.1270 C   0  0  0  0  0  0  0  0  0  0  0  0
   29.1548  -20.3179   -7.3560 C   0  0  0  0  0  0  0  0  0  0  0  0
   27.8011  -20.1105   -7.5474 C   0  0  0  0  0  0  0  0  0  0  0  0
   25.0688  -20.8793  -10.7205 C   0  0  0  0  0  0  0  0  0  0  0  0
   24.0300  -21.5016  -10.4201 O   0  0  0  0  0  0  0  0  0  0  0  0
   24.8634  -19.5373  -11.0979 O   0  0  0  0  0  0  0  0  0  0  0  0
  2  3  1  0
  2  1  1  1
  3  4  1  0
  5  4  1  0
  6  5  1  0
  7  6  1  0
  8  2  1  0
  8  9  2  0
 10  8  1  0
 11 10  1  0
 12 13  1  0
 11 12  1  6
 13 14  2  0
 15 18  1  0
 15 11  1  0
 16 15  2  0
 17 13  1  0
 19 18  1  0
 19 30  1  0
 19 20  1  6
 21 20  1  0
 21 29  1  0
 22 23  1  0
 22 21  2  0
 23 24  1  0
 24 25  1  0
 24 29  2  0
 25 26  2  0
 26 27  1  0
 28 27  2  0
 29 28  1  0
 30 31  2  0
 30 32  1  0
M  END
$$$$
