KDW.pdb
     RDKit          3D

 32 33  0  0  1  0  0  0  0  0999 V2000
   24.0319  -33.9844  -10.4929 N   0  0  0  0  0  0  0  0  0  0  0  0
   25.3332  -34.6461  -10.4297 C   0  0  1  0  0  0  0  0  0  0  0  0
   26.3212  -33.8889  -11.2118 C   0  0  0  0  0  0  0  0  0  0  0  0
   26.1565  -33.9395  -12.6718 C   0  0  0  0  0  0  0  0  0  0  0  0
   26.9139  -33.1186  -13.6063 C   0  0  0  0  0  0  0  0  0  0  0  0
   26.7002  -33.1783  -15.0664 C   0  0  0  0  0  0  0  0  0  0  0  0
   27.5937  -32.1707  -15.7395 N   0  0  0  0  0  0  0  0  0  0  0  0
   25.7499  -34.7492   -8.9730 C   0  0  0  0  0  0  0  0  0  0  0  0
   26.7981  -35.3474   -8.6362 O   0  0  0  0  0  0  0  0  0  0  0  0
   24.9672  -34.1746   -7.9515 N   0  0  0  0  0  0  0  0  0  0  0  0
   25.3494  -34.2132   -6.5178 C   0  0  1  0  0  0  0  0  0  0  0  0
   25.2437  -32.8468   -5.9399 C   0  0  0  0  0  0  0  0  0  0  0  0
   25.4995  -32.8366   -4.4952 C   0  0  0  0  0  0  0  0  0  0  0  0
   24.5925  -32.8754   -3.6222 O   0  0  0  0  0  0  0  0  0  0  0  0
   24.4941  -35.1840   -5.8176 C   0  0  0  0  0  0  0  0  0  0  0  0
   23.2745  -35.2893   -6.1842 O   0  0  0  0  0  0  0  0  0  0  0  0
   26.8498  -32.7793   -4.0940 O   0  0  0  0  0  0  0  0  0  0  0  0
   24.9253  -36.0230   -4.7626 N   0  0  0  0  0  0  0  0  0  0  0  0
   24.0208  -36.9715   -4.1255 C   0  0  1  0  0  0  0  0  0  0  0  0
   23.3699  -37.8686   -5.1843 C   0  0  0  0  0  0  0  0  0  0  0  0
   22.4421  -38.8179   -4.5353 C   0  0  0  0  0  0  0  0  0  0  0  0
   22.5328  -39.4795   -3.3331 C   0  0  0  0  0  0  0  0  0  0  0  0
   21.4461  -40.2482   -3.1427 N   0  0  0  0  0  0  0  0  0  0  0  0
   20.6091  -40.1138   -4.2154 C   0  0  0  0  0  0  0  0  0  0  0  0
   19.3826  -40.6685   -4.5236 C   0  0  0  0  0  0  0  0  0  0  0  0
   18.7345  -40.3582   -5.6988 C   0  0  0  0  0  0  0  0  0  0  0  0
   19.3349  -39.4753   -6.5743 C   0  0  0  0  0  0  0  0  0  0  0  0
   20.5593  -38.9312   -6.2504 C   0  0  0  0  0  0  0  0  0  0  0  0
   21.2234  -39.2314   -5.0753 C   0  0  0  0  0  0  0  0  0  0  0  0
   24.6185  -37.7482   -3.0435 C   0  0  0  0  0  0  0  0  0  0  0  0
   25.8484  -37.8193   -2.8457 O   0  0  0  0  0  0  0  0  0  0  0  0
   23.8320  -38.4823   -2.1334 O   0  0  0  0  0  0  0  0  0  0  0  0
  2  3  1  0
  2  1  1  1
  3  4  1  0
  5  4  1  0
  6  5  1  0
  7  6  1  0
  8  2  1  0
  8  9  2  0
 10  8  1  0
 11 10  1  0
 12 13  1  0
 11 12  1  1
 13 14  2  0
 15 18  1  0
 15 11  1  0
 16 15  2  0
 17 13  1  0
 19 18  1  0
 19 30  1  0
 19 20  1  6
 21 20  1  0
 21 29  1  0
 22 23  1  0
 22 21  2  0
 23 24  1  0
 24 25  1  0
 24 29  2  0
 25 26  2  0
 26 27  1  0
 28 27  2  0
 29 28  1  0
 30 31  2  0
 30 32  1  0
M  END
$$$$
