KDW.pdb
     RDKit          3D

 32 33  0  0  1  0  0  0  0  0999 V2000
   27.9648  -22.3331  -15.7115 N   0  0  0  0  0  0  0  0  0  0  0  0
   28.2270  -20.9041  -15.5552 C   0  0  1  0  0  0  0  0  0  0  0  0
   28.1592  -20.2342  -16.8620 C   0  0  0  0  0  0  0  0  0  0  0  0
   28.4463  -21.0793  -18.0301 C   0  0  0  0  0  0  0  0  0  0  0  0
   29.4288  -20.7493  -19.0531 C   0  0  0  0  0  0  0  0  0  0  0  0
   29.2860  -21.1824  -20.4578 C   0  0  0  0  0  0  0  0  0  0  0  0
   30.4509  -20.6626  -21.2575 N   0  0  0  0  0  0  0  0  0  0  0  0
   27.2034  -20.3301  -14.5913 C   0  0  0  0  0  0  0  0  0  0  0  0
   27.2199  -19.1196  -14.2685 O   0  0  0  0  0  0  0  0  0  0  0  0
   26.2007  -21.1443  -14.0273 N   0  0  0  0  0  0  0  0  0  0  0  0
   25.1660  -20.6292  -13.0963 C   0  0  1  0  0  0  0  0  0  0  0  0
   23.8237  -21.0861  -13.5454 C   0  0  0  0  0  0  0  0  0  0  0  0
   22.7478  -20.5533  -12.7020 C   0  0  0  0  0  0  0  0  0  0  0  0
   22.9229  -19.6829  -11.8086 O   0  0  0  0  0  0  0  0  0  0  0  0
   25.4809  -21.0772  -11.7308 C   0  0  0  0  0  0  0  0  0  0  0  0
   25.6856  -22.3233  -11.5362 O   0  0  0  0  0  0  0  0  0  0  0  0
   21.4547  -21.0664  -12.9300 O   0  0  0  0  0  0  0  0  0  0  0  0
   25.5817  -20.2236  -10.6066 N   0  0  0  0  0  0  0  0  0  0  0  0
   25.8445  -20.7484   -9.2727 C   0  0  1  0  0  0  0  0  0  0  0  0
   26.5437  -19.6849   -8.4184 C   0  0  0  0  0  0  0  0  0  0  0  0
   27.7677  -20.2516   -7.8153 C   0  0  0  0  0  0  0  0  0  0  0  0
   28.6331  -21.2138   -8.2802 C   0  0  0  0  0  0  0  0  0  0  0  0
   29.6229  -21.4164   -7.3929 N   0  0  0  0  0  0  0  0  0  0  0  0
   29.4363  -20.5921   -6.3182 C   0  0  0  0  0  0  0  0  0  0  0  0
   30.1461  -20.3992   -5.1494 C   0  0  0  0  0  0  0  0  0  0  0  0
   29.7333  -19.4832   -4.2071 C   0  0  0  0  0  0  0  0  0  0  0  0
   28.5871  -18.7526   -4.4498 C   0  0  0  0  0  0  0  0  0  0  0  0
   27.8910  -18.9583   -5.6217 C   0  0  0  0  0  0  0  0  0  0  0  0
   28.2914  -19.8732   -6.5781 C   0  0  0  0  0  0  0  0  0  0  0  0
   24.6771  -21.3097   -8.5996 C   0  0  0  0  0  0  0  0  0  0  0  0
   23.5049  -21.1206   -8.9830 O   0  0  0  0  0  0  0  0  0  0  0  0
   24.7983  -22.1174   -7.4513 O   0  0  0  0  0  0  0  0  0  0  0  0
  2  3  1  0
  2  1  1  6
  3  4  1  0
  5  4  1  0
  6  5  1  0
  7  6  1  0
  8  2  1  0
  8  9  2  0
 10  8  1  0
 11 10  1  0
 12 13  1  0
 11 12  1  6
 13 14  2  0
 15 18  1  0
 15 11  1  0
 16 15  2  0
 17 13  1  0
 19 18  1  0
 19 30  1  0
 19 20  1  1
 21 20  1  0
 21 29  1  0
 22 23  1  0
 22 21  2  0
 23 24  1  0
 24 25  1  0
 24 29  2  0
 25 26  2  0
 26 27  1  0
 28 27  2  0
 29 28  1  0
 30 31  2  0
 30 32  1  0
M  END
$$$$
