KDW.pdb
     RDKit          3D

 32 33  0  0  1  0  0  0  0  0999 V2000
   27.6470  -17.6274  -16.8237 N   0  0  0  0  0  0  0  0  0  0  0  0
   27.1263  -16.5122  -16.0360 C   0  0  1  0  0  0  0  0  0  0  0  0
   26.3000  -15.6402  -16.8832 C   0  0  0  0  0  0  0  0  0  0  0  0
   25.9472  -16.1794  -18.2045 C   0  0  0  0  0  0  0  0  0  0  0  0
   26.7086  -15.9231  -19.4192 C   0  0  0  0  0  0  0  0  0  0  0  0
   26.1569  -16.1694  -20.7669 C   0  0  0  0  0  0  0  0  0  0  0  0
   27.2208  -15.8937  -21.7958 N   0  0  0  0  0  0  0  0  0  0  0  0
   26.3202  -17.0759  -14.8789 C   0  0  0  0  0  0  0  0  0  0  0  0
   25.8009  -16.3255  -14.0203 O   0  0  0  0  0  0  0  0  0  0  0  0
   26.1317  -18.4651  -14.7340 N   0  0  0  0  0  0  0  0  0  0  0  0
   25.2915  -19.0626  -13.6664 C   0  0  1  0  0  0  0  0  0  0  0  0
   24.2256  -19.8965  -14.2832 C   0  0  0  0  0  0  0  0  0  0  0  0
   23.1281  -20.1705  -13.3488 C   0  0  0  0  0  0  0  0  0  0  0  0
   23.2980  -20.5176  -12.1500 O   0  0  0  0  0  0  0  0  0  0  0  0
   26.1491  -19.8360  -12.7550 C   0  0  0  0  0  0  0  0  0  0  0  0
   27.3963  -19.9157  -13.0213 O   0  0  0  0  0  0  0  0  0  0  0  0
   21.8195  -20.0281  -13.8535 O   0  0  0  0  0  0  0  0  0  0  0  0
   25.6944  -20.4998  -11.5908 N   0  0  0  0  0  0  0  0  0  0  0  0
   26.6125  -21.2164  -10.7148 C   0  0  1  0  0  0  0  0  0  0  0  0
   27.5464  -20.2261  -10.0099 C   0  0  0  0  0  0  0  0  0  0  0  0
   27.0720  -19.9839   -8.6318 C   0  0  0  0  0  0  0  0  0  0  0  0
   25.8073  -19.7419   -8.1488 C   0  0  0  0  0  0  0  0  0  0  0  0
   25.8426  -19.5810   -6.8143 N   0  0  0  0  0  0  0  0  0  0  0  0
   27.1327  -19.7127   -6.3814 C   0  0  0  0  0  0  0  0  0  0  0  0
   27.7146  -19.6417   -5.1310 C   0  0  0  0  0  0  0  0  0  0  0  0
   29.0707  -19.8167   -4.9644 C   0  0  0  0  0  0  0  0  0  0  0  0
   29.8490  -20.0666   -6.0771 C   0  0  0  0  0  0  0  0  0  0  0  0
   29.2514  -20.1340   -7.3175 C   0  0  0  0  0  0  0  0  0  0  0  0
   27.8920  -19.9611   -7.5026 C   0  0  0  0  0  0  0  0  0  0  0  0
   25.9678  -22.1257   -9.7721 C   0  0  0  0  0  0  0  0  0  0  0  0
   26.5538  -23.0858   -9.2322 O   0  0  0  0  0  0  0  0  0  0  0  0
   24.6164  -21.9766   -9.4018 O   0  0  0  0  0  0  0  0  0  0  0  0
  2  3  1  0
  2  1  1  6
  3  4  1  0
  5  4  1  0
  6  5  1  0
  7  6  1  0
  8  2  1  0
  8  9  2  0
 10  8  1  0
 11 10  1  0
 12 13  1  0
 11 12  1  6
 13 14  2  0
 15 18  1  0
 15 11  1  0
 16 15  2  0
 17 13  1  0
 19 18  1  0
 19 30  1  0
 19 20  1  1
 21 20  1  0
 21 29  1  0
 22 23  1  0
 22 21  2  0
 23 24  1  0
 24 25  1  0
 24 29  2  0
 25 26  2  0
 26 27  1  0
 28 27  2  0
 29 28  1  0
 30 31  2  0
 30 32  1  0
M  END
$$$$
