KDW.pdb
     RDKit          3D

 32 33  0  0  1  0  0  0  0  0999 V2000
   29.2351  -25.5216  -17.2099 N   0  0  0  0  0  0  0  0  0  0  0  0
   29.8178  -24.1900  -17.0591 C   0  0  1  0  0  0  0  0  0  0  0  0
   30.8978  -23.9996  -18.0380 C   0  0  0  0  0  0  0  0  0  0  0  0
   31.9034  -25.0702  -18.0979 C   0  0  0  0  0  0  0  0  0  0  0  0
   33.3412  -24.8388  -18.0969 C   0  0  0  0  0  0  0  0  0  0  0  0
   34.1173  -24.6697  -19.3420 C   0  0  0  0  0  0  0  0  0  0  0  0
   35.1047  -25.7992  -19.4678 N   0  0  0  0  0  0  0  0  0  0  0  0
   28.7182  -23.1599  -17.2487 C   0  0  0  0  0  0  0  0  0  0  0  0
   28.9451  -21.9342  -17.1217 O   0  0  0  0  0  0  0  0  0  0  0  0
   27.4039  -23.5520  -17.5732 N   0  0  0  0  0  0  0  0  0  0  0  0
   26.2910  -22.5870  -17.7552 C   0  0  1  0  0  0  0  0  0  0  0  0
   25.3016  -23.1468  -18.7142 C   0  0  0  0  0  0  0  0  0  0  0  0
   24.1011  -22.3101  -18.8211 C   0  0  0  0  0  0  0  0  0  0  0  0
   24.0991  -21.1443  -19.2978 O   0  0  0  0  0  0  0  0  0  0  0  0
   25.6926  -22.2896  -16.4445 C   0  0  0  0  0  0  0  0  0  0  0  0
   25.4882  -23.2607  -15.6396 O   0  0  0  0  0  0  0  0  0  0  0  0
   22.8961  -22.8732  -18.3538 O   0  0  0  0  0  0  0  0  0  0  0  0
   25.3283  -20.9962  -16.0006 N   0  0  0  0  0  0  0  0  0  0  0  0
   24.7322  -20.7809  -14.6884 C   0  0  1  0  0  0  0  0  0  0  0  0
   25.4360  -19.6203  -13.9760 C   0  0  0  0  0  0  0  0  0  0  0  0
   25.3640  -18.4028  -14.8101 C   0  0  0  0  0  0  0  0  0  0  0  0
   24.3265  -17.5274  -15.0303 C   0  0  0  0  0  0  0  0  0  0  0  0
   24.7137  -16.5494  -15.8679 N   0  0  0  0  0  0  0  0  0  0  0  0
   26.0181  -16.7541  -16.2226 C   0  0  0  0  0  0  0  0  0  0  0  0
   26.8872  -16.0614  -17.0423 C   0  0  0  0  0  0  0  0  0  0  0  0
   28.1820  -16.4908  -17.2340 C   0  0  0  0  0  0  0  0  0  0  0  0
   28.6035  -17.6361  -16.5884 C   0  0  0  0  0  0  0  0  0  0  0  0
   27.7225  -18.3150  -15.7740 C   0  0  0  0  0  0  0  0  0  0  0  0
   26.4200  -17.8979  -15.5702 C   0  0  0  0  0  0  0  0  0  0  0  0
   23.2817  -20.6167  -14.6994 C   0  0  0  0  0  0  0  0  0  0  0  0
   22.6147  -20.4623  -15.7424 O   0  0  0  0  0  0  0  0  0  0  0  0
   22.5243  -20.6222  -13.5111 O   0  0  0  0  0  0  0  0  0  0  0  0
  2  3  1  0
  2  1  1  6
  3  4  1  0
  5  4  1  0
  6  5  1  0
  7  6  1  0
  8  2  1  0
  8  9  2  0
 10  8  1  0
 11 10  1  0
 12 13  1  0
 11 12  1  6
 13 14  2  0
 15 18  1  0
 15 11  1  0
 16 15  2  0
 17 13  1  0
 19 18  1  0
 19 30  1  0
 19 20  1  6
 21 20  1  0
 21 29  1  0
 22 23  1  0
 22 21  2  0
 23 24  1  0
 24 25  1  0
 24 29  2  0
 25 26  2  0
 26 27  1  0
 28 27  2  0
 29 28  1  0
 30 31  2  0
 30 32  1  0
M  END
$$$$
