KDW.pdb
     RDKit          3D

 32 33  0  0  1  0  0  0  0  0999 V2000
   27.5769  -22.0734  -18.4957 N   0  0  0  0  0  0  0  0  0  0  0  0
   28.2770  -21.2770  -17.4902 C   0  0  1  0  0  0  0  0  0  0  0  0
   29.2566  -20.3943  -18.1401 C   0  0  0  0  0  0  0  0  0  0  0  0
   29.7461  -20.8385  -19.4532 C   0  0  0  0  0  0  0  0  0  0  0  0
   28.9788  -21.6693  -20.3707 C   0  0  0  0  0  0  0  0  0  0  0  0
   29.4893  -22.0617  -21.6998 C   0  0  0  0  0  0  0  0  0  0  0  0
   28.4758  -22.9436  -22.3793 N   0  0  0  0  0  0  0  0  0  0  0  0
   27.2492  -20.4753  -16.7109 C   0  0  0  0  0  0  0  0  0  0  0  0
   27.5833  -19.7563  -15.7407 O   0  0  0  0  0  0  0  0  0  0  0  0
   25.8832  -20.5164  -17.0553 N   0  0  0  0  0  0  0  0  0  0  0  0
   24.8325  -19.7970  -16.2928 C   0  0  1  0  0  0  0  0  0  0  0  0
   23.8313  -19.2351  -17.2383 C   0  0  0  0  0  0  0  0  0  0  0  0
   22.7133  -18.5902  -16.5404 C   0  0  0  0  0  0  0  0  0  0  0  0
   21.5030  -18.7697  -16.8390 O   0  0  0  0  0  0  0  0  0  0  0  0
   24.2265  -20.7196  -15.3202 C   0  0  0  0  0  0  0  0  0  0  0  0
   23.6865  -21.7912  -15.7595 O   0  0  0  0  0  0  0  0  0  0  0  0
   23.0474  -17.7249  -15.4786 O   0  0  0  0  0  0  0  0  0  0  0  0
   24.2016  -20.5116  -13.9206 N   0  0  0  0  0  0  0  0  0  0  0  0
   23.4884  -21.4168  -13.0285 C   0  0  1  0  0  0  0  0  0  0  0  0
   24.4866  -22.2798  -12.2485 C   0  0  0  0  0  0  0  0  0  0  0  0
   25.3806  -21.4151  -11.4509 C   0  0  0  0  0  0  0  0  0  0  0  0
   25.1414  -20.6939  -10.3046 C   0  0  0  0  0  0  0  0  0  0  0  0
   26.2564  -20.0474   -9.9213 N   0  0  0  0  0  0  0  0  0  0  0  0
   27.2615  -20.3255  -10.8056 C   0  0  0  0  0  0  0  0  0  0  0  0
   28.5825  -19.9300  -10.8790 C   0  0  0  0  0  0  0  0  0  0  0  0
   29.4020  -20.3655  -11.8969 C   0  0  0  0  0  0  0  0  0  0  0  0
   28.8785  -21.2122  -12.8537 C   0  0  0  0  0  0  0  0  0  0  0  0
   27.5577  -21.5967  -12.7648 C   0  0  0  0  0  0  0  0  0  0  0  0
   26.7215  -21.1694  -11.7498 C   0  0  0  0  0  0  0  0  0  0  0  0
   22.5230  -20.7663  -12.1477 C   0  0  0  0  0  0  0  0  0  0  0  0
   21.6895  -21.3904  -11.4602 O   0  0  0  0  0  0  0  0  0  0  0  0
   22.4673  -19.3648  -12.0122 O   0  0  0  0  0  0  0  0  0  0  0  0
  2  3  1  0
  2  1  1  6
  3  4  1  0
  5  4  1  0
  6  5  1  0
  7  6  1  0
  8  2  1  0
  8  9  2  0
 10  8  1  0
 11 10  1  0
 12 13  1  0
 11 12  1  6
 13 14  2  0
 15 18  1  0
 15 11  1  0
 16 15  2  0
 17 13  1  0
 19 18  1  0
 19 30  1  0
 19 20  1  1
 21 20  1  0
 21 29  1  0
 22 23  1  0
 22 21  2  0
 23 24  1  0
 24 25  1  0
 24 29  2  0
 25 26  2  0
 26 27  1  0
 28 27  2  0
 29 28  1  0
 30 31  2  0
 30 32  1  0
M  END
$$$$
