KDW.pdb
     RDKit          3D

 32 33  0  0  1  0  0  0  0  0999 V2000
   21.8521  -19.4797  -15.8471 N   0  0  0  0  0  0  0  0  0  0  0  0
   23.1191  -19.8686  -15.2316 C   0  0  1  0  0  0  0  0  0  0  0  0
   24.2357  -19.1935  -15.9087 C   0  0  0  0  0  0  0  0  0  0  0  0
   24.8408  -19.9258  -17.0305 C   0  0  0  0  0  0  0  0  0  0  0  0
   25.3158  -21.2998  -16.9454 C   0  0  0  0  0  0  0  0  0  0  0  0
   25.9156  -22.0036  -18.0970 C   0  0  0  0  0  0  0  0  0  0  0  0
   26.1848  -23.4354  -17.7173 N   0  0  0  0  0  0  0  0  0  0  0  0
   23.0699  -19.5033  -13.7584 C   0  0  0  0  0  0  0  0  0  0  0  0
   23.3022  -18.3353  -13.3689 O   0  0  0  0  0  0  0  0  0  0  0  0
   22.7619  -20.4702  -12.7803 N   0  0  0  0  0  0  0  0  0  0  0  0
   22.7663  -20.1815  -11.3245 C   0  0  1  0  0  0  0  0  0  0  0  0
   21.6938  -20.9690  -10.6599 C   0  0  0  0  0  0  0  0  0  0  0  0
   20.3563  -20.5804  -11.1211 C   0  0  0  0  0  0  0  0  0  0  0  0
   19.5473  -21.3723  -11.6732 O   0  0  0  0  0  0  0  0  0  0  0  0
   24.0993  -20.4802  -10.7785 C   0  0  0  0  0  0  0  0  0  0  0  0
   24.3849  -21.6974  -10.5146 O   0  0  0  0  0  0  0  0  0  0  0  0
   19.9859  -19.2351  -10.9201 O   0  0  0  0  0  0  0  0  0  0  0  0
   25.1015  -19.5133  -10.5267 N   0  0  0  0  0  0  0  0  0  0  0  0
   26.3357  -19.8583   -9.8328 C   0  0  1  0  0  0  0  0  0  0  0  0
   26.0372  -20.1979   -8.3682 C   0  0  0  0  0  0  0  0  0  0  0  0
   26.9874  -19.4898   -7.4857 C   0  0  0  0  0  0  0  0  0  0  0  0
   27.5831  -18.2572   -7.6158 C   0  0  0  0  0  0  0  0  0  0  0  0
   28.3824  -18.0140   -6.5622 N   0  0  0  0  0  0  0  0  0  0  0  0
   28.3350  -19.0809   -5.7086 C   0  0  0  0  0  0  0  0  0  0  0  0
   28.9515  -19.3445   -4.5013 C   0  0  0  0  0  0  0  0  0  0  0  0
   28.7264  -20.5252   -3.8283 C   0  0  0  0  0  0  0  0  0  0  0  0
   27.8665  -21.4517   -4.3837 C   0  0  0  0  0  0  0  0  0  0  0  0
   27.2600  -21.1719   -5.5895 C   0  0  0  0  0  0  0  0  0  0  0  0
   27.4743  -19.9921   -6.2780 C   0  0  0  0  0  0  0  0  0  0  0  0
   27.1291  -20.8963  -10.4840 C   0  0  0  0  0  0  0  0  0  0  0  0
   28.3597  -20.8067  -10.6695 O   0  0  0  0  0  0  0  0  0  0  0  0
   26.5477  -22.0905  -10.9546 O   0  0  0  0  0  0  0  0  0  0  0  0
  2  3  1  0
  2  1  1  6
  3  4  1  0
  5  4  1  0
  6  5  1  0
  7  6  1  0
  8  2  1  0
  8  9  2  0
 10  8  1  0
 11 10  1  0
 12 13  1  0
 11 12  1  1
 13 14  2  0
 15 18  1  0
 15 11  1  0
 16 15  2  0
 17 13  1  0
 19 18  1  0
 19 30  1  0
 19 20  1  1
 21 20  1  0
 21 29  1  0
 22 23  1  0
 22 21  2  0
 23 24  1  0
 24 25  1  0
 24 29  2  0
 25 26  2  0
 26 27  1  0
 28 27  2  0
 29 28  1  0
 30 31  2  0
 30 32  1  0
M  END
$$$$
