KDW.pdb
     RDKit          3D

 32 33  0  0  1  0  0  0  0  0999 V2000
   29.0606  -18.1696  -16.1345 N   0  0  0  0  0  0  0  0  0  0  0  0
   27.7843  -18.8723  -16.2465 C   0  0  1  0  0  0  0  0  0  0  0  0
   28.0012  -20.2293  -16.7686 C   0  0  0  0  0  0  0  0  0  0  0  0
   29.3958  -20.6940  -16.7836 C   0  0  0  0  0  0  0  0  0  0  0  0
   29.8194  -22.0153  -16.3416 C   0  0  0  0  0  0  0  0  0  0  0  0
   29.4444  -23.2495  -17.0610 C   0  0  0  0  0  0  0  0  0  0  0  0
   30.0818  -24.4322  -16.3817 N   0  0  0  0  0  0  0  0  0  0  0  0
   27.1344  -18.9102  -14.8745 C   0  0  0  0  0  0  0  0  0  0  0  0
   27.5675  -18.2113  -13.9291 O   0  0  0  0  0  0  0  0  0  0  0  0
   26.0210  -19.7364  -14.6211 N   0  0  0  0  0  0  0  0  0  0  0  0
   25.1842  -19.6182  -13.4010 C   0  0  1  0  0  0  0  0  0  0  0  0
   23.7517  -19.7847  -13.7647 C   0  0  0  0  0  0  0  0  0  0  0  0
   22.8689  -19.6736  -12.5981 C   0  0  0  0  0  0  0  0  0  0  0  0
   23.2759  -19.4298  -11.4314 O   0  0  0  0  0  0  0  0  0  0  0  0
   25.6295  -20.6135  -12.4134 C   0  0  0  0  0  0  0  0  0  0  0  0
   25.5952  -21.8478  -12.7422 O   0  0  0  0  0  0  0  0  0  0  0  0
   21.4904  -19.8560  -12.8305 O   0  0  0  0  0  0  0  0  0  0  0  0
   26.1037  -20.3045  -11.1164 N   0  0  0  0  0  0  0  0  0  0  0  0
   26.3111  -21.3416  -10.1139 C   0  0  1  0  0  0  0  0  0  0  0  0
   27.6836  -21.1670   -9.4540 C   0  0  0  0  0  0  0  0  0  0  0  0
   27.5918  -20.1775   -8.3606 C   0  0  0  0  0  0  0  0  0  0  0  0
   26.8775  -19.0059   -8.2698 C   0  0  0  0  0  0  0  0  0  0  0  0
   27.0937  -18.4211   -7.0784 N   0  0  0  0  0  0  0  0  0  0  0  0
   27.9571  -19.1924   -6.3512 C   0  0  0  0  0  0  0  0  0  0  0  0
   28.4996  -19.0575   -5.0884 C   0  0  0  0  0  0  0  0  0  0  0  0
   29.3646  -20.0009   -4.5792 C   0  0  0  0  0  0  0  0  0  0  0  0
   29.6857  -21.0952   -5.3576 C   0  0  0  0  0  0  0  0  0  0  0  0
   29.1351  -21.2135   -6.6157 C   0  0  0  0  0  0  0  0  0  0  0  0
   28.2650  -20.2764   -7.1420 C   0  0  0  0  0  0  0  0  0  0  0  0
   25.2410  -21.4563   -9.1277 C   0  0  0  0  0  0  0  0  0  0  0  0
   25.1922  -22.3584   -8.2672 O   0  0  0  0  0  0  0  0  0  0  0  0
   24.1726  -20.5386   -9.0805 O   0  0  0  0  0  0  0  0  0  0  0  0
  2  3  1  0
  2  1  1  1
  3  4  1  0
  5  4  1  0
  6  5  1  0
  7  6  1  0
  8  2  1  0
  8  9  2  0
 10  8  1  0
 11 10  1  0
 12 13  1  0
 11 12  1  6
 13 14  2  0
 15 18  1  0
 15 11  1  0
 16 15  2  0
 17 13  1  0
 19 18  1  0
 19 30  1  0
 19 20  1  1
 21 20  1  0
 21 29  1  0
 22 23  1  0
 22 21  2  0
 23 24  1  0
 24 25  1  0
 24 29  2  0
 25 26  2  0
 26 27  1  0
 28 27  2  0
 29 28  1  0
 30 31  2  0
 30 32  1  0
M  END
$$$$
