KDW.pdb
     RDKit          3D

 32 33  0  0  1  0  0  0  0  0999 V2000
   27.8041  -17.4571  -20.6026 N   0  0  0  0  0  0  0  0  0  0  0  0
   27.5490  -17.4541  -19.1637 C   0  0  1  0  0  0  0  0  0  0  0  0
   26.5235  -16.4529  -18.8366 C   0  0  0  0  0  0  0  0  0  0  0  0
   26.7414  -15.1089  -19.3909 C   0  0  0  0  0  0  0  0  0  0  0  0
   28.0241  -14.4196  -19.3769 C   0  0  0  0  0  0  0  0  0  0  0  0
   28.1983  -13.0589  -19.9241 C   0  0  0  0  0  0  0  0  0  0  0  0
   27.0220  -12.2092  -19.5230 N   0  0  0  0  0  0  0  0  0  0  0  0
   27.1066  -18.8470  -18.7510 C   0  0  0  0  0  0  0  0  0  0  0  0
   25.9193  -19.2217  -18.8921 O   0  0  0  0  0  0  0  0  0  0  0  0
   28.0204  -19.7638  -18.1935 N   0  0  0  0  0  0  0  0  0  0  0  0
   27.6010  -21.0062  -17.4984 C   0  0  1  0  0  0  0  0  0  0  0  0
   28.7966  -21.8456  -17.2192 C   0  0  0  0  0  0  0  0  0  0  0  0
   28.4330  -23.2088  -16.8168 C   0  0  0  0  0  0  0  0  0  0  0  0
   27.2475  -23.6300  -16.7582 O   0  0  0  0  0  0  0  0  0  0  0  0
   26.8702  -20.6489  -16.2726 C   0  0  0  0  0  0  0  0  0  0  0  0
   27.5470  -20.3086  -15.2435 O   0  0  0  0  0  0  0  0  0  0  0  0
   29.4959  -24.0725  -16.4823 O   0  0  0  0  0  0  0  0  0  0  0  0
   25.4606  -20.6473  -16.1471 N   0  0  0  0  0  0  0  0  0  0  0  0
   24.8110  -20.8023  -14.8519 C   0  0  1  0  0  0  0  0  0  0  0  0
   24.6694  -19.4373  -14.1688 C   0  0  0  0  0  0  0  0  0  0  0  0
   25.5766  -19.3629  -13.0049 C   0  0  0  0  0  0  0  0  0  0  0  0
   26.8707  -18.9085  -12.9049 C   0  0  0  0  0  0  0  0  0  0  0  0
   27.3080  -19.0267  -11.6389 N   0  0  0  0  0  0  0  0  0  0  0  0
   26.3129  -19.5627  -10.8697 C   0  0  0  0  0  0  0  0  0  0  0  0
   26.2343  -19.8864   -9.5295 C   0  0  0  0  0  0  0  0  0  0  0  0
   25.0866  -20.4266   -8.9923 C   0  0  0  0  0  0  0  0  0  0  0  0
   24.0040  -20.6427   -9.8215 C   0  0  0  0  0  0  0  0  0  0  0  0
   24.1003  -20.3138  -11.1567 C   0  0  0  0  0  0  0  0  0  0  0  0
   25.2442  -19.7706  -11.7121 C   0  0  0  0  0  0  0  0  0  0  0  0
   23.5451  -21.5284  -14.8900 C   0  0  0  0  0  0  0  0  0  0  0  0
   22.8311  -21.7195  -13.8848 O   0  0  0  0  0  0  0  0  0  0  0  0
   23.0356  -22.0713  -16.0864 O   0  0  0  0  0  0  0  0  0  0  0  0
  2  3  1  0
  2  1  1  6
  3  4  1  0
  5  4  1  0
  6  5  1  0
  7  6  1  0
  8  2  1  0
  8  9  2  0
 10  8  1  0
 11 10  1  0
 12 13  1  0
 11 12  1  1
 13 14  2  0
 15 18  1  0
 15 11  1  0
 16 15  2  0
 17 13  1  0
 19 18  1  0
 19 30  1  0
 19 20  1  6
 21 20  1  0
 21 29  1  0
 22 23  1  0
 22 21  2  0
 23 24  1  0
 24 25  1  0
 24 29  2  0
 25 26  2  0
 26 27  1  0
 28 27  2  0
 29 28  1  0
 30 31  2  0
 30 32  1  0
M  END
$$$$
