KDW.pdb
     RDKit          3D

 32 33  0  0  1  0  0  0  0  0999 V2000
   29.5543  -24.3084  -16.8008 N   0  0  0  0  0  0  0  0  0  0  0  0
   29.0906  -23.0296  -17.3347 C   0  0  1  0  0  0  0  0  0  0  0  0
   28.0428  -23.2546  -18.3409 C   0  0  0  0  0  0  0  0  0  0  0  0
   27.1811  -24.4245  -18.1170 C   0  0  0  0  0  0  0  0  0  0  0  0
   26.1575  -24.4970  -17.0838 C   0  0  0  0  0  0  0  0  0  0  0  0
   25.2749  -25.6703  -16.9238 C   0  0  0  0  0  0  0  0  0  0  0  0
   24.4832  -25.5251  -15.6516 N   0  0  0  0  0  0  0  0  0  0  0  0
   28.5722  -22.1872  -16.1824 C   0  0  0  0  0  0  0  0  0  0  0  0
   28.9895  -22.3557  -15.0131 O   0  0  0  0  0  0  0  0  0  0  0  0
   27.6015  -21.1872  -16.3932 N   0  0  0  0  0  0  0  0  0  0  0  0
   27.1888  -20.2232  -15.3429 C   0  0  1  0  0  0  0  0  0  0  0  0
   26.5907  -19.0206  -15.9817 C   0  0  0  0  0  0  0  0  0  0  0  0
   26.1663  -18.0231  -14.9930 C   0  0  0  0  0  0  0  0  0  0  0  0
   25.6490  -16.9145  -15.2928 O   0  0  0  0  0  0  0  0  0  0  0  0
   26.2563  -20.8876  -14.4191 C   0  0  0  0  0  0  0  0  0  0  0  0
   25.1464  -21.3156  -14.8855 O   0  0  0  0  0  0  0  0  0  0  0  0
   26.3630  -18.3554  -13.6371 O   0  0  0  0  0  0  0  0  0  0  0  0
   26.5003  -21.0963  -13.0408 N   0  0  0  0  0  0  0  0  0  0  0  0
   25.5559  -21.8224  -12.2015 C   0  0  1  0  0  0  0  0  0  0  0  0
   26.2527  -22.3069  -10.9250 C   0  0  0  0  0  0  0  0  0  0  0  0
   26.3465  -21.1978   -9.9533 C   0  0  0  0  0  0  0  0  0  0  0  0
   25.3748  -20.3703   -9.4413 C   0  0  0  0  0  0  0  0  0  0  0  0
   25.9178  -19.4961   -8.5758 N   0  0  0  0  0  0  0  0  0  0  0  0
   27.2633  -19.7242   -8.4940 C   0  0  0  0  0  0  0  0  0  0  0  0
   28.2740  -19.1255   -7.7679 C   0  0  0  0  0  0  0  0  0  0  0  0
   29.5779  -19.5578   -7.8697 C   0  0  0  0  0  0  0  0  0  0  0  0
   29.8638  -20.6096   -8.7173 C   0  0  0  0  0  0  0  0  0  0  0  0
   28.8426  -21.1952   -9.4345 C   0  0  0  0  0  0  0  0  0  0  0  0
   27.5286  -20.7742   -9.3441 C   0  0  0  0  0  0  0  0  0  0  0  0
   24.3216  -21.0994  -11.9098 C   0  0  0  0  0  0  0  0  0  0  0  0
   24.2110  -19.8604  -12.0061 O   0  0  0  0  0  0  0  0  0  0  0  0
   23.1515  -21.7648  -11.4930 O   0  0  0  0  0  0  0  0  0  0  0  0
  2  3  1  0
  2  1  1  1
  3  4  1  0
  5  4  1  0
  6  5  1  0
  7  6  1  0
  8  2  1  0
  8  9  2  0
 10  8  1  0
 11 10  1  0
 12 13  1  0
 11 12  1  6
 13 14  2  0
 15 18  1  0
 15 11  1  0
 16 15  2  0
 17 13  1  0
 19 18  1  0
 19 30  1  0
 19 20  1  1
 21 20  1  0
 21 29  1  0
 22 23  1  0
 22 21  2  0
 23 24  1  0
 24 25  1  0
 24 29  2  0
 25 26  2  0
 26 27  1  0
 28 27  2  0
 29 28  1  0
 30 31  2  0
 30 32  1  0
M  END
$$$$
