KDW.pdb
     RDKit          3D

 32 33  0  0  1  0  0  0  0  0999 V2000
   16.6042   -7.3334  -20.3131 N   0  0  0  0  0  0  0  0  0  0  0  0
   16.3721   -6.7784  -18.9814 C   0  0  1  0  0  0  0  0  0  0  0  0
   15.9338   -7.8396  -18.0634 C   0  0  0  0  0  0  0  0  0  0  0  0
   16.8443   -8.9859  -17.9288 C   0  0  0  0  0  0  0  0  0  0  0  0
   16.6259  -10.0972  -17.0133 C   0  0  0  0  0  0  0  0  0  0  0  0
   17.4897  -11.2950  -17.0010 C   0  0  0  0  0  0  0  0  0  0  0  0
   17.0166  -12.2361  -15.9253 N   0  0  0  0  0  0  0  0  0  0  0  0
   17.6592   -6.1331  -18.4985 C   0  0  0  0  0  0  0  0  0  0  0  0
   18.7788   -6.5544  -18.8714 O   0  0  0  0  0  0  0  0  0  0  0  0
   17.6342   -5.0376  -17.6121 N   0  0  0  0  0  0  0  0  0  0  0  0
   18.8557   -4.3081  -17.1894 C   0  0  1  0  0  0  0  0  0  0  0  0
   18.4673   -3.0415  -16.5135 C   0  0  0  0  0  0  0  0  0  0  0  0
   19.6242   -2.1782  -16.2506 C   0  0  0  0  0  0  0  0  0  0  0  0
   20.8129   -2.4981  -16.5174 O   0  0  0  0  0  0  0  0  0  0  0  0
   19.6614   -5.1807  -16.3213 C   0  0  0  0  0  0  0  0  0  0  0  0
   19.0701   -5.8038  -15.3753 O   0  0  0  0  0  0  0  0  0  0  0  0
   19.3556   -0.9244  -15.6646 O   0  0  0  0  0  0  0  0  0  0  0  0
   21.0543   -5.3895  -16.4595 N   0  0  0  0  0  0  0  0  0  0  0  0
   21.7864   -6.2673  -15.5555 C   0  0  1  0  0  0  0  0  0  0  0  0
   22.3821   -7.4450  -16.3351 C   0  0  0  0  0  0  0  0  0  0  0  0
   23.0699   -8.3648  -15.4057 C   0  0  0  0  0  0  0  0  0  0  0  0
   22.6141   -9.0048  -14.2771 C   0  0  0  0  0  0  0  0  0  0  0  0
   23.5931   -9.7543  -13.7405 N   0  0  0  0  0  0  0  0  0  0  0  0
   24.7217   -9.6282  -14.5019 C   0  0  0  0  0  0  0  0  0  0  0  0
   25.9869  -10.1725  -14.4013 C   0  0  0  0  0  0  0  0  0  0  0  0
   26.9662   -9.8763  -15.3236 C   0  0  0  0  0  0  0  0  0  0  0  0
   26.6622   -9.0179  -16.3615 C   0  0  0  0  0  0  0  0  0  0  0  0
   25.3943   -8.4838  -16.4462 C   0  0  0  0  0  0  0  0  0  0  0  0
   24.3995   -8.7707  -15.5296 C   0  0  0  0  0  0  0  0  0  0  0  0
   22.7870   -5.5942  -14.7328 C   0  0  0  0  0  0  0  0  0  0  0  0
   22.9516   -5.8308  -13.5188 O   0  0  0  0  0  0  0  0  0  0  0  0
   23.6497   -4.6151  -15.2645 O   0  0  0  0  0  0  0  0  0  0  0  0
  2  3  1  0
  2  1  1  6
  3  4  1  0
  5  4  1  0
  6  5  1  0
  7  6  1  0
  8  2  1  0
  8  9  2  0
 10  8  1  0
 11 10  1  0
 12 13  1  0
 11 12  1  1
 13 14  2  0
 15 18  1  0
 15 11  1  0
 16 15  2  0
 17 13  1  0
 19 18  1  0
 19 30  1  0
 19 20  1  6
 21 20  1  0
 21 29  1  0
 22 23  1  0
 22 21  2  0
 23 24  1  0
 24 25  1  0
 24 29  2  0
 25 26  2  0
 26 27  1  0
 28 27  2  0
 29 28  1  0
 30 31  2  0
 30 32  1  0
M  END
$$$$
