KDW.pdb
     RDKit          3D

 32 33  0  0  1  0  0  0  0  0999 V2000
   26.9100  -17.7973  -18.6408 N   0  0  0  0  0  0  0  0  0  0  0  0
   25.5571  -18.2507  -18.9561 C   0  0  1  0  0  0  0  0  0  0  0  0
   25.5018  -18.7458  -20.3391 C   0  0  0  0  0  0  0  0  0  0  0  0
   26.1924  -17.9220  -21.3419 C   0  0  0  0  0  0  0  0  0  0  0  0
   27.4377  -18.3042  -21.9930 C   0  0  0  0  0  0  0  0  0  0  0  0
   28.1367  -17.4198  -22.9473 C   0  0  0  0  0  0  0  0  0  0  0  0
   29.4584  -18.0377  -23.3186 N   0  0  0  0  0  0  0  0  0  0  0  0
   25.1723  -19.3385  -17.9687 C   0  0  0  0  0  0  0  0  0  0  0  0
   24.1421  -20.0324  -18.1330 O   0  0  0  0  0  0  0  0  0  0  0  0
   25.9641  -19.6011  -16.8327 N   0  0  0  0  0  0  0  0  0  0  0  0
   25.6753  -20.7014  -15.8795 C   0  0  1  0  0  0  0  0  0  0  0  0
   26.9243  -21.0795  -15.1660 C   0  0  0  0  0  0  0  0  0  0  0  0
   27.7794  -21.9551  -15.9751 C   0  0  0  0  0  0  0  0  0  0  0  0
   27.4448  -22.4206  -17.0966 O   0  0  0  0  0  0  0  0  0  0  0  0
   24.6124  -20.2727  -14.9570 C   0  0  0  0  0  0  0  0  0  0  0  0
   24.8714  -19.3307  -14.1333 O   0  0  0  0  0  0  0  0  0  0  0  0
   29.0427  -22.2753  -15.4374 O   0  0  0  0  0  0  0  0  0  0  0  0
   23.3103  -20.8254  -14.9163 N   0  0  0  0  0  0  0  0  0  0  0  0
   22.2677  -20.2573  -14.0713 C   0  0  1  0  0  0  0  0  0  0  0  0
   22.1659  -18.7462  -14.3073 C   0  0  0  0  0  0  0  0  0  0  0  0
   21.5901  -18.4851  -15.6428 C   0  0  0  0  0  0  0  0  0  0  0  0
   20.4811  -19.0147  -16.2597 C   0  0  0  0  0  0  0  0  0  0  0  0
   20.3308  -18.4801  -17.4843 N   0  0  0  0  0  0  0  0  0  0  0  0
   21.3379  -17.5828  -17.7077 C   0  0  0  0  0  0  0  0  0  0  0  0
   21.6500  -16.7706  -18.7800 C   0  0  0  0  0  0  0  0  0  0  0  0
   22.7470  -15.9380  -18.7487 C   0  0  0  0  0  0  0  0  0  0  0  0
   23.5393  -15.9270  -17.6180 C   0  0  0  0  0  0  0  0  0  0  0  0
   23.2129  -16.7444  -16.5571 C   0  0  0  0  0  0  0  0  0  0  0  0
   22.1155  -17.5856  -16.5716 C   0  0  0  0  0  0  0  0  0  0  0  0
   20.9699  -20.9165  -14.1815 C   0  0  0  0  0  0  0  0  0  0  0  0
   20.0034  -20.6620  -13.4346 O   0  0  0  0  0  0  0  0  0  0  0  0
   20.7173  -21.9017  -15.1569 O   0  0  0  0  0  0  0  0  0  0  0  0
  2  3  1  0
  2  1  1  1
  3  4  1  0
  5  4  1  0
  6  5  1  0
  7  6  1  0
  8  2  1  0
  8  9  2  0
 10  8  1  0
 11 10  1  0
 12 13  1  0
 11 12  1  1
 13 14  2  0
 15 18  1  0
 15 11  1  0
 16 15  2  0
 17 13  1  0
 19 18  1  0
 19 30  1  0
 19 20  1  6
 21 20  1  0
 21 29  1  0
 22 23  1  0
 22 21  2  0
 23 24  1  0
 24 25  1  0
 24 29  2  0
 25 26  2  0
 26 27  1  0
 28 27  2  0
 29 28  1  0
 30 31  2  0
 30 32  1  0
M  END
$$$$
