KDW.pdb
     RDKit          3D

 32 33  0  0  1  0  0  0  0  0999 V2000
   25.1063  -19.3036  -16.3926 N   0  0  0  0  0  0  0  0  0  0  0  0
   26.0804  -19.6989  -15.3777 C   0  0  1  0  0  0  0  0  0  0  0  0
   27.3235  -18.9329  -15.5480 C   0  0  0  0  0  0  0  0  0  0  0  0
   28.4069  -19.6220  -16.2639 C   0  0  0  0  0  0  0  0  0  0  0  0
   28.2396  -20.8778  -16.9819 C   0  0  0  0  0  0  0  0  0  0  0  0
   29.3428  -21.5175  -17.7269 C   0  0  0  0  0  0  0  0  0  0  0  0
   28.8763  -22.8464  -18.2589 N   0  0  0  0  0  0  0  0  0  0  0  0
   25.4716  -19.4581  -14.0074 C   0  0  0  0  0  0  0  0  0  0  0  0
   25.4125  -18.3079  -13.5140 O   0  0  0  0  0  0  0  0  0  0  0  0
   24.9537  -20.5246  -13.2453 N   0  0  0  0  0  0  0  0  0  0  0  0
   24.2979  -20.3362  -11.9273 C   0  0  1  0  0  0  0  0  0  0  0  0
   22.9951  -21.0536  -11.9150 C   0  0  0  0  0  0  0  0  0  0  0  0
   21.9400  -20.2949  -12.5960 C   0  0  0  0  0  0  0  0  0  0  0  0
   21.5321  -19.1654  -12.2163 O   0  0  0  0  0  0  0  0  0  0  0  0
   25.2041  -20.8049  -10.8673 C   0  0  0  0  0  0  0  0  0  0  0  0
   25.5991  -22.0196  -10.9037 O   0  0  0  0  0  0  0  0  0  0  0  0
   21.3701  -20.8929  -13.7384 O   0  0  0  0  0  0  0  0  0  0  0  0
   25.6815  -20.0030   -9.8034 N   0  0  0  0  0  0  0  0  0  0  0  0
   26.5312  -20.5544   -8.7557 C   0  0  1  0  0  0  0  0  0  0  0  0
   27.5859  -19.5234   -8.3382 C   0  0  0  0  0  0  0  0  0  0  0  0
   28.4631  -20.0972   -7.2969 C   0  0  0  0  0  0  0  0  0  0  0  0
   29.3429  -21.1530   -7.3482 C   0  0  0  0  0  0  0  0  0  0  0  0
   29.9363  -21.3217   -6.1535 N   0  0  0  0  0  0  0  0  0  0  0  0
   29.4631  -20.3807   -5.2817 C   0  0  0  0  0  0  0  0  0  0  0  0
   29.7339  -20.1107   -3.9548 C   0  0  0  0  0  0  0  0  0  0  0  0
   29.1048  -19.0787   -3.2940 C   0  0  0  0  0  0  0  0  0  0  0  0
   28.1893  -18.3095   -3.9843 C   0  0  0  0  0  0  0  0  0  0  0  0
   27.9312  -18.5932   -5.3083 C   0  0  0  0  0  0  0  0  0  0  0  0
   28.5538  -19.6248   -5.9868 C   0  0  0  0  0  0  0  0  0  0  0  0
   25.8082  -21.0927   -7.6074 C   0  0  0  0  0  0  0  0  0  0  0  0
   24.7731  -20.5745   -7.1417 O   0  0  0  0  0  0  0  0  0  0  0  0
   26.2387  -22.2547   -6.9364 O   0  0  0  0  0  0  0  0  0  0  0  0
  2  3  1  0
  2  1  1  6
  3  4  1  0
  5  4  1  0
  6  5  1  0
  7  6  1  0
  8  2  1  0
  8  9  2  0
 10  8  1  0
 11 10  1  0
 12 13  1  0
 11 12  1  6
 13 14  2  0
 15 18  1  0
 15 11  1  0
 16 15  2  0
 17 13  1  0
 19 18  1  0
 19 30  1  0
 19 20  1  1
 21 20  1  0
 21 29  1  0
 22 23  1  0
 22 21  2  0
 23 24  1  0
 24 25  1  0
 24 29  2  0
 25 26  2  0
 26 27  1  0
 28 27  2  0
 29 28  1  0
 30 31  2  0
 30 32  1  0
M  END
$$$$
