IIP.pdb
     RDKit          3D

 24 24  0  0  1  0  0  0  0  0999 V2000
   25.0111  -16.8812  -16.8498 C   0  0  0  0  0  0  0  0  0  0  0  0
   26.0278  -17.7736  -16.2331 C   0  0  0  0  0  0  0  0  0  0  0  0
   26.7366  -17.1643  -15.0284 C   0  0  2  0  0  0  0  0  0  0  0  0
   27.5534  -15.9856  -15.5157 C   0  0  0  0  0  0  0  0  0  0  0  0
   27.6912  -18.1918  -14.4385 C   0  0  2  0  0  0  0  0  0  0  0  0
   28.4840  -18.7473  -15.5804 N   0  0  0  0  0  0  0  0  0  0  0  0
   26.9820  -19.3557  -13.8943 C   0  0  0  0  0  0  0  0  0  0  0  0
   26.8312  -20.3750  -14.6251 O   0  0  0  0  0  0  0  0  0  0  0  0
   26.6105  -20.3109   -8.5387 C   0  0  0  0  0  0  0  0  0  0  0  0
   26.8126  -20.6979  -10.0230 C   0  0  0  0  0  0  0  0  0  0  0  0
   25.4792  -20.5114  -10.6612 C   0  0  2  0  0  0  0  0  0  0  0  0
   24.5600  -21.6323  -10.1849 C   0  0  0  0  0  0  0  0  0  0  0  0
   25.5152  -20.4745  -12.1969 C   0  0  2  0  0  0  0  0  0  0  0  0
   26.4426  -19.4351  -12.5700 N   0  0  0  0  0  0  0  0  0  0  0  0
   24.2122  -20.5281  -12.7934 C   0  0  0  0  0  0  0  0  0  0  0  0
   23.5829  -19.3739  -12.8957 O   0  0  0  0  0  0  0  0  0  0  0  0
   23.4402  -21.5907  -13.3121 N   0  0  0  0  0  0  0  0  0  0  0  0
   23.8231  -23.0278  -13.1865 C   0  0  0  0  0  0  0  0  0  0  0  0
   23.7113  -23.4346  -14.6491 C   0  0  0  0  0  0  0  0  0  0  0  0
   22.4147  -22.8086  -15.0340 C   0  0  0  0  0  0  0  0  0  0  0  0
   22.1935  -21.6635  -14.0287 C   0  0  1  0  0  0  0  0  0  0  0  0
   21.0838  -22.0281  -13.1021 C   0  0  0  0  0  0  0  0  0  0  0  0
   19.7451  -21.8350  -13.3936 O   0  0  0  0  0  0  0  0  0  0  0  0
   21.3751  -22.5383  -11.9960 O   0  0  0  0  0  0  0  0  0  0  0  0
  2  3  1  0
  2  1  1  0
  3  4  1  6
  5  6  1  6
  5  3  1  0
  7  5  1  0
  8  7  2  0
  9 10  1  0
 11 13  1  0
 11 12  1  6
 11 10  1  0
 13 14  1  1
 14  7  1  0
 15 13  1  0
 15 16  2  0
 17 15  1  0
 18 17  1  0
 19 18  1  0
 20 19  1  0
 20 21  1  0
 21 17  1  0
 21 22  1  1
 22 23  1  0
 24 22  2  0
M  END
$$$$
