IIP.pdb
     RDKit          3D

 24 24  0  0  1  0  0  0  0  0999 V2000
   18.0684  -20.0098  -16.4070 C   0  0  0  0  0  0  0  0  0  0  0  0
   18.7908  -20.5915  -15.2449 C   0  0  0  0  0  0  0  0  0  0  0  0
   20.1727  -19.9907  -15.0117 C   0  0  2  0  0  0  0  0  0  0  0  0
   21.0416  -20.3461  -16.2003 C   0  0  0  0  0  0  0  0  0  0  0  0
   20.7872  -20.6193  -13.7698 C   0  0  2  0  0  0  0  0  0  0  0  0
   20.0429  -20.0657  -12.5948 N   0  0  0  0  0  0  0  0  0  0  0  0
   22.1714  -20.1811  -13.5565 C   0  0  0  0  0  0  0  0  0  0  0  0
   22.3905  -18.9720  -13.2637 O   0  0  0  0  0  0  0  0  0  0  0  0
   27.0881  -21.0588  -10.6853 C   0  0  0  0  0  0  0  0  0  0  0  0
   26.6624  -20.4571  -12.0457 C   0  0  0  0  0  0  0  0  0  0  0  0
   25.3059  -21.0129  -12.3122 C   0  0  2  0  0  0  0  0  0  0  0  0
   25.4106  -22.5346  -12.3464 C   0  0  0  0  0  0  0  0  0  0  0  0
   24.6576  -20.4988  -13.6070 C   0  0  2  0  0  0  0  0  0  0  0  0
   23.3188  -21.0334  -13.6470 N   0  0  0  0  0  0  0  0  0  0  0  0
   25.5150  -20.6122  -14.7510 C   0  0  0  0  0  0  0  0  0  0  0  0
   25.2593  -21.6228  -15.5584 O   0  0  0  0  0  0  0  0  0  0  0  0
   26.6071  -19.8427  -15.2083 N   0  0  0  0  0  0  0  0  0  0  0  0
   27.3316  -18.8511  -14.3600 C   0  0  0  0  0  0  0  0  0  0  0  0
   27.2636  -17.6464  -15.2880 C   0  0  0  0  0  0  0  0  0  0  0  0
   27.6361  -18.2566  -16.5958 C   0  0  0  0  0  0  0  0  0  0  0  0
   27.3147  -19.7562  -16.4593 C   0  0  1  0  0  0  0  0  0  0  0  0
   28.5877  -20.5291  -16.3889 C   0  0  0  0  0  0  0  0  0  0  0  0
   29.4009  -20.7707  -17.4821 O   0  0  0  0  0  0  0  0  0  0  0  0
   28.9454  -20.9877  -15.2797 O   0  0  0  0  0  0  0  0  0  0  0  0
  2  3  1  0
  2  1  1  0
  3  4  1  6
  5  6  1  1
  5  3  1  0
  7  5  1  0
  8  7  2  0
  9 10  1  0
 11 13  1  0
 11 12  1  6
 11 10  1  0
 13 14  1  6
 14  7  1  0
 15 13  1  0
 15 16  2  0
 17 15  1  0
 18 17  1  0
 19 18  1  0
 20 19  1  0
 20 21  1  0
 21 17  1  0
 21 22  1  1
 22 23  1  0
 24 22  2  0
M  END
$$$$
