IIP.pdb
     RDKit          3D

 24 24  0  0  1  0  0  0  0  0999 V2000
   20.4035  -18.8837  -15.4811 C   0  0  0  0  0  0  0  0  0  0  0  0
   21.7377  -19.4727  -15.7702 C   0  0  0  0  0  0  0  0  0  0  0  0
   22.4862  -19.9478  -14.5296 C   0  0  2  0  0  0  0  0  0  0  0  0
   22.7772  -18.7361  -13.6687 C   0  0  0  0  0  0  0  0  0  0  0  0
   23.8137  -20.5601  -14.9515 C   0  0  2  0  0  0  0  0  0  0  0  0
   23.4900  -21.8226  -15.6878 N   0  0  0  0  0  0  0  0  0  0  0  0
   24.6053  -21.0091  -13.8002 C   0  0  0  0  0  0  0  0  0  0  0  0
   24.1204  -21.8858  -13.0309 O   0  0  0  0  0  0  0  0  0  0  0  0
   29.8896  -21.9960  -13.7640 C   0  0  0  0  0  0  0  0  0  0  0  0
   28.3526  -22.0378  -13.5919 C   0  0  0  0  0  0  0  0  0  0  0  0
   28.0510  -21.0433  -12.5242 C   0  0  2  0  0  0  0  0  0  0  0  0
   28.7914  -21.4620  -11.2575 C   0  0  0  0  0  0  0  0  0  0  0  0
   26.5531  -20.8713  -12.2281 C   0  0  2  0  0  0  0  0  0  0  0  0
   25.9153  -20.5298  -13.4756 N   0  0  0  0  0  0  0  0  0  0  0  0
   26.2962  -20.0957  -11.0495 C   0  0  0  0  0  0  0  0  0  0  0  0
   26.2341  -18.7906  -11.2269 O   0  0  0  0  0  0  0  0  0  0  0  0
   26.0871  -20.4489   -9.6983 N   0  0  0  0  0  0  0  0  0  0  0  0
   26.0852  -21.8570   -9.2034 C   0  0  0  0  0  0  0  0  0  0  0  0
   24.7560  -21.8489   -8.4618 C   0  0  0  0  0  0  0  0  0  0  0  0
   24.8389  -20.5611   -7.7161 C   0  0  0  0  0  0  0  0  0  0  0  0
   25.8480  -19.6967   -8.4941 C   0  0  1  0  0  0  0  0  0  0  0  0
   27.1053  -19.5731   -7.7022 C   0  0  0  0  0  0  0  0  0  0  0  0
   27.2836  -18.6548   -6.6827 O   0  0  0  0  0  0  0  0  0  0  0  0
   28.0566  -20.3419   -7.9715 O   0  0  0  0  0  0  0  0  0  0  0  0
  2  3  1  0
  2  1  1  0
  3  4  1  1
  5  6  1  6
  5  3  1  0
  7  5  1  0
  8  7  2  0
  9 10  1  0
 11 13  1  0
 11 12  1  1
 11 10  1  0
 13 14  1  6
 14  7  1  0
 15 13  1  0
 15 16  2  0
 17 15  1  0
 18 17  1  0
 19 18  1  0
 20 19  1  0
 20 21  1  0
 21 17  1  0
 21 22  1  1
 22 23  1  0
 24 22  2  0
M  END
$$$$
