IIP.pdb
     RDKit          3D

 24 24  0  0  1  0  0  0  0  0999 V2000
   22.6510  -20.0869  -14.1497 C   0  0  0  0  0  0  0  0  0  0  0  0
   23.9526  -19.7943  -13.4934 C   0  0  0  0  0  0  0  0  0  0  0  0
   24.1195  -20.4538  -12.1287 C   0  0  2  0  0  0  0  0  0  0  0  0
   22.9629  -20.0149  -11.2548 C   0  0  0  0  0  0  0  0  0  0  0  0
   25.4100  -19.9612  -11.4907 C   0  0  2  0  0  0  0  0  0  0  0  0
   26.5298  -20.4399  -12.3613 N   0  0  0  0  0  0  0  0  0  0  0  0
   25.6644  -20.6011  -10.1948 C   0  0  0  0  0  0  0  0  0  0  0  0
   25.8490  -21.8502  -10.1566 O   0  0  0  0  0  0  0  0  0  0  0  0
   28.2134  -18.2706   -6.0379 C   0  0  0  0  0  0  0  0  0  0  0  0
   27.8027  -19.3920   -7.0217 C   0  0  0  0  0  0  0  0  0  0  0  0
   26.4030  -19.7441   -6.6516 C   0  0  2  0  0  0  0  0  0  0  0  0
   26.4289  -20.4490   -5.2987 C   0  0  0  0  0  0  0  0  0  0  0  0
   25.6777  -20.6164   -7.6879 C   0  0  2  0  0  0  0  0  0  0  0  0
   25.7304  -19.9082   -8.9431 N   0  0  0  0  0  0  0  0  0  0  0  0
   24.4338  -21.1453   -7.2088 C   0  0  0  0  0  0  0  0  0  0  0  0
   23.3697  -20.4022   -7.4414 O   0  0  0  0  0  0  0  0  0  0  0  0
   24.1004  -22.3330   -6.5215 N   0  0  0  0  0  0  0  0  0  0  0  0
   25.1129  -23.2659   -5.9452 C   0  0  0  0  0  0  0  0  0  0  0  0
   24.6246  -24.5654   -6.5696 C   0  0  0  0  0  0  0  0  0  0  0  0
   23.1548  -24.4715   -6.3414 C   0  0  0  0  0  0  0  0  0  0  0  0
   22.8574  -22.9702   -6.1721 C   0  0  1  0  0  0  0  0  0  0  0  0
   22.5153  -22.6927   -4.7477 C   0  0  0  0  0  0  0  0  0  0  0  0
   21.2403  -22.8191   -4.2254 O   0  0  0  0  0  0  0  0  0  0  0  0
   23.4306  -22.3239   -3.9765 O   0  0  0  0  0  0  0  0  0  0  0  0
  2  3  1  0
  2  1  1  0
  3  4  1  1
  5  6  1  6
  5  3  1  0
  7  5  1  0
  8  7  2  0
  9 10  1  0
 11 13  1  0
 11 12  1  1
 11 10  1  0
 13 14  1  6
 14  7  1  0
 15 13  1  0
 15 16  2  0
 17 15  1  0
 18 17  1  0
 19 18  1  0
 20 19  1  0
 20 21  1  0
 21 17  1  0
 21 22  1  1
 22 23  1  0
 24 22  2  0
M  END
$$$$
