IIP.pdb
     RDKit          3D

 24 24  0  0  1  0  0  0  0  0999 V2000
   25.5519  -14.5639  -17.9870 C   0  0  0  0  0  0  0  0  0  0  0  0
   24.7608  -15.4050  -17.0504 C   0  0  0  0  0  0  0  0  0  0  0  0
   25.5086  -16.6310  -16.5376 C   0  0  2  0  0  0  0  0  0  0  0  0
   25.8963  -17.4743  -17.7345 C   0  0  0  0  0  0  0  0  0  0  0  0
   24.5767  -17.4530  -15.6596 C   0  0  2  0  0  0  0  0  0  0  0  0
   24.2299  -16.5970  -14.4815 N   0  0  0  0  0  0  0  0  0  0  0  0
   25.2539  -18.6148  -15.0719 C   0  0  0  0  0  0  0  0  0  0  0  0
   26.2068  -19.1504  -15.7049 O   0  0  0  0  0  0  0  0  0  0  0  0
   25.6196  -20.1012   -9.7826 C   0  0  0  0  0  0  0  0  0  0  0  0
   25.9639  -19.8697  -11.2731 C   0  0  0  0  0  0  0  0  0  0  0  0
   25.0724  -20.7937  -12.0290 C   0  0  2  0  0  0  0  0  0  0  0  0
   25.4517  -22.2267  -11.6674 C   0  0  0  0  0  0  0  0  0  0  0  0
   25.1155  -20.6045  -13.5532 C   0  0  2  0  0  0  0  0  0  0  0  0
   24.9206  -19.1984  -13.8072 N   0  0  0  0  0  0  0  0  0  0  0  0
   24.3431  -21.5809  -14.2652 C   0  0  0  0  0  0  0  0  0  0  0  0
   23.0514  -21.3321  -14.3555 O   0  0  0  0  0  0  0  0  0  0  0  0
   24.6881  -22.7881  -14.9113 N   0  0  0  0  0  0  0  0  0  0  0  0
   26.0495  -23.3971  -14.8518 C   0  0  0  0  0  0  0  0  0  0  0  0
   26.2924  -23.5877  -16.3423 C   0  0  0  0  0  0  0  0  0  0  0  0
   24.9919  -24.1663  -16.7843 C   0  0  0  0  0  0  0  0  0  0  0  0
   23.9631  -23.7286  -15.7257 C   0  0  1  0  0  0  0  0  0  0  0  0
   23.5569  -24.9114  -14.9140 C   0  0  0  0  0  0  0  0  0  0  0  0
   22.5458  -25.7826  -15.2790 O   0  0  0  0  0  0  0  0  0  0  0  0
   24.1622  -25.1330  -13.8402 O   0  0  0  0  0  0  0  0  0  0  0  0
  2  3  1  0
  2  1  1  0
  3  4  1  6
  5  6  1  1
  5  3  1  0
  7  5  1  0
  8  7  2  0
  9 10  1  0
 11 13  1  0
 11 12  1  6
 11 10  1  0
 13 14  1  1
 14  7  1  0
 15 13  1  0
 15 16  2  0
 17 15  1  0
 18 17  1  0
 19 18  1  0
 20 19  1  0
 20 21  1  0
 21 17  1  0
 21 22  1  1
 22 23  1  0
 24 22  2  0
M  END
$$$$
