IIP.pdb
     RDKit          3D

 24 24  0  0  1  0  0  0  0  0999 V2000
   16.7826  -16.4406  -16.1442 C   0  0  0  0  0  0  0  0  0  0  0  0
   17.9012  -16.2540  -17.1057 C   0  0  0  0  0  0  0  0  0  0  0  0
   18.9016  -15.1808  -16.6904 C   0  0  2  0  0  0  0  0  0  0  0  0
   18.1617  -13.8620  -16.6060 C   0  0  0  0  0  0  0  0  0  0  0  0
   19.9737  -15.0559  -17.7629 C   0  0  2  0  0  0  0  0  0  0  0  0
   20.7751  -16.3195  -17.7187 N   0  0  0  0  0  0  0  0  0  0  0  0
   20.9468  -14.0027  -17.4505 C   0  0  0  0  0  0  0  0  0  0  0  0
   21.7963  -14.2078  -16.5384 O   0  0  0  0  0  0  0  0  0  0  0  0
   24.1252  -11.4573  -20.7265 C   0  0  0  0  0  0  0  0  0  0  0  0
   23.5435  -12.1606  -19.4772 C   0  0  0  0  0  0  0  0  0  0  0  0
   22.6596  -11.1481  -18.8340 C   0  0  2  0  0  0  0  0  0  0  0  0
   23.5195   -9.9594  -18.4154 C   0  0  0  0  0  0  0  0  0  0  0  0
   21.8679  -11.6779  -17.6284 C   0  0  2  0  0  0  0  0  0  0  0  0
   21.0190  -12.7367  -18.1163 N   0  0  0  0  0  0  0  0  0  0  0  0
   21.3229  -10.6350  -16.8087 C   0  0  0  0  0  0  0  0  0  0  0  0
   20.1206  -10.2121  -17.1469 O   0  0  0  0  0  0  0  0  0  0  0  0
   21.8191   -9.9475  -15.6795 N   0  0  0  0  0  0  0  0  0  0  0  0
   23.2237  -10.0692  -15.1896 C   0  0  0  0  0  0  0  0  0  0  0  0
   22.9412  -10.4028  -13.7315 C   0  0  0  0  0  0  0  0  0  0  0  0
   21.8828   -9.4078  -13.3981 C   0  0  0  0  0  0  0  0  0  0  0  0
   21.2438   -9.0169  -14.7434 C   0  0  1  0  0  0  0  0  0  0  0  0
   21.6392   -7.6219  -15.0904 C   0  0  0  0  0  0  0  0  0  0  0  0
   21.0493   -6.4973  -14.5409 O   0  0  0  0  0  0  0  0  0  0  0  0
   22.5567   -7.4534  -15.9261 O   0  0  0  0  0  0  0  0  0  0  0  0
  2  3  1  0
  2  1  1  0
  3  4  1  6
  5  6  1  1
  5  3  1  0
  7  5  1  0
  8  7  2  0
  9 10  1  0
 11 13  1  0
 11 12  1  1
 11 10  1  0
 13 14  1  6
 14  7  1  0
 15 13  1  0
 15 16  2  0
 17 15  1  0
 18 17  1  0
 19 18  1  0
 20 19  1  0
 20 21  1  0
 21 17  1  0
 21 22  1  6
 22 23  1  0
 24 22  2  0
M  END
$$$$
