IIP.pdb
     RDKit          3D

 24 24  0  0  1  0  0  0  0  0999 V2000
   18.7387  -21.0316  -16.3204 C   0  0  0  0  0  0  0  0  0  0  0  0
   19.2745  -21.1192  -14.9363 C   0  0  0  0  0  0  0  0  0  0  0  0
   20.6540  -20.4924  -14.7660 C   0  0  2  0  0  0  0  0  0  0  0  0
   21.5972  -21.1713  -15.7373 C   0  0  0  0  0  0  0  0  0  0  0  0
   21.1532  -20.7603  -13.3539 C   0  0  2  0  0  0  0  0  0  0  0  0
   20.2932  -19.9517  -12.4333 N   0  0  0  0  0  0  0  0  0  0  0  0
   22.5055  -20.2330  -13.1371 C   0  0  0  0  0  0  0  0  0  0  0  0
   22.7065  -18.9935  -13.2746 O   0  0  0  0  0  0  0  0  0  0  0  0
   25.8948  -20.9709   -9.1674 C   0  0  0  0  0  0  0  0  0  0  0  0
   25.0887  -20.3529  -10.3345 C   0  0  0  0  0  0  0  0  0  0  0  0
   25.7108  -20.9001  -11.5729 C   0  0  2  0  0  0  0  0  0  0  0  0
   27.1620  -20.4320  -11.6262 C   0  0  0  0  0  0  0  0  0  0  0  0
   24.9824  -20.5112  -12.8687 C   0  0  2  0  0  0  0  0  0  0  0  0
   23.6391  -21.0255  -12.7656 N   0  0  0  0  0  0  0  0  0  0  0  0
   25.7606  -20.7550  -14.0484 C   0  0  0  0  0  0  0  0  0  0  0  0
   25.6556  -21.9650  -14.5619 O   0  0  0  0  0  0  0  0  0  0  0  0
   26.6402  -19.9445  -14.7990 N   0  0  0  0  0  0  0  0  0  0  0  0
   27.3583  -18.7634  -14.2359 C   0  0  0  0  0  0  0  0  0  0  0  0
   26.9649  -17.7248  -15.2768 C   0  0  0  0  0  0  0  0  0  0  0  0
   27.1841  -18.4764  -16.5450 C   0  0  0  0  0  0  0  0  0  0  0  0
   27.1003  -19.9657  -16.1632 C   0  0  1  0  0  0  0  0  0  0  0  0
   28.4600  -20.5724  -16.2419 C   0  0  0  0  0  0  0  0  0  0  0  0
   29.1037  -20.8624  -17.4319 O   0  0  0  0  0  0  0  0  0  0  0  0
   29.0571  -20.8361  -15.1731 O   0  0  0  0  0  0  0  0  0  0  0  0
  2  3  1  0
  2  1  1  0
  3  4  1  6
  5  6  1  1
  5  3  1  0
  7  5  1  0
  8  7  2  0
  9 10  1  0
 11 13  1  0
 11 12  1  6
 11 10  1  0
 13 14  1  6
 14  7  1  0
 15 13  1  0
 15 16  2  0
 17 15  1  0
 18 17  1  0
 19 18  1  0
 20 19  1  0
 20 21  1  0
 21 17  1  0
 21 22  1  1
 22 23  1  0
 24 22  2  0
M  END
$$$$
