KQI.pdb
     RDKit          3D

 27 26  0  0  1  0  0  0  0  0999 V2000
    4.8417  -19.1716   20.6335 N   0  0  0  0  0  0  0  0  0  0  0  0
    5.9998  -18.4072   21.0316 C   0  0  1  0  0  0  0  0  0  0  0  0
    6.2537  -17.2345   20.1447 C   0  0  0  0  0  0  0  0  0  0  0  0
    7.1086  -17.4152   18.9555 C   0  0  0  0  0  0  0  0  0  0  0  0
    8.5394  -17.7045   19.0568 C   0  0  0  0  0  0  0  0  0  0  0  0
    9.3691  -17.8782   17.8505 C   0  0  0  0  0  0  0  0  0  0  0  0
   10.7662  -18.1314   18.1301 N   0  0  0  0  0  0  0  0  0  0  0  0
    5.8379  -17.9050   22.4436 C   0  0  0  0  0  0  0  0  0  0  0  0
    4.8843  -17.1167   22.6290 O   0  0  0  0  0  0  0  0  0  0  0  0
    7.3448  -20.0426   28.3949 N   0  0  0  0  0  0  0  0  0  0  0  0
    8.1128  -20.1784   27.2082 C   0  0  0  0  0  0  0  0  0  0  0  0
    9.1297  -20.9327   27.2430 O   0  0  0  0  0  0  0  0  0  0  0  0
    7.7836  -19.4977   25.9561 C   0  0  0  0  0  0  0  0  0  0  0  0
    6.5873  -18.6241   25.9726 C   0  0  0  0  0  0  0  0  0  0  0  0
    6.5363  -17.6745   24.8181 C   0  0  2  0  0  0  0  0  0  0  0  0
    6.6637  -18.2590   23.5148 N   0  0  0  0  0  0  0  0  0  0  0  0
    7.4909  -16.5728   25.0368 C   0  0  0  0  0  0  0  0  0  0  0  0
    8.5931  -16.4863   24.4269 O   0  0  0  0  0  0  0  0  0  0  0  0
    5.5539  -11.7738   26.2642 C   0  0  0  0  0  0  0  0  0  0  0  0
    6.4933  -12.8332   25.7478 C   0  0  0  0  0  0  0  0  0  0  0  0
    7.4097  -13.3571   26.8430 C   0  0  2  0  0  0  0  0  0  0  0  0
    8.2771  -12.2285   27.3300 C   0  0  0  0  0  0  0  0  0  0  0  0
    8.1809  -14.5021   26.2704 C   0  0  2  0  0  0  0  0  0  0  0  0
    7.2046  -15.5509   25.9534 N   0  0  0  0  0  0  0  0  0  0  0  0
    9.2484  -15.0118   27.1482 C   0  0  0  0  0  0  0  0  0  0  0  0
   10.5657  -14.6186   27.1048 O   0  0  0  0  0  0  0  0  0  0  0  0
    8.9294  -15.8751   28.0052 O   0  0  0  0  0  0  0  0  0  0  0  0
  2  1  1  6
  3  2  1  0
  4  3  1  0
  5  4  1  0
  6  5  1  0
  7  6  1  0
  8  9  2  0
  8  2  1  0
 10 11  1  0
 11 12  2  0
 11 13  1  0
 13 14  1  0
 15 14  1  1
 15 16  1  0
 16  8  1  0
 17 15  1  0
 18 17  2  0
 19 20  1  0
 20 21  1  0
 21 23  1  0
 21 22  1  6
 23 25  1  0
 23 24  1  1
 24 17  1  0
 25 26  1  0
 27 25  2  0
M  END
$$$$
