KQI.pdb
     RDKit          3D

 27 26  0  0  1  0  0  0  0  0999 V2000
    9.9514  -15.7036   18.7993 N   0  0  0  0  0  0  0  0  0  0  0  0
    9.1951  -14.5987   19.3390 C   0  0  1  0  0  0  0  0  0  0  0  0
    8.1228  -14.1243   18.4163 C   0  0  0  0  0  0  0  0  0  0  0  0
    8.4652  -13.8610   17.0052 C   0  0  0  0  0  0  0  0  0  0  0  0
    7.4665  -13.4368   16.0235 C   0  0  0  0  0  0  0  0  0  0  0  0
    7.8483  -13.1240   14.6343 C   0  0  0  0  0  0  0  0  0  0  0  0
    7.6400  -14.2161   13.7078 N   0  0  0  0  0  0  0  0  0  0  0  0
    8.5544  -14.9894   20.6462 C   0  0  0  0  0  0  0  0  0  0  0  0
    7.5612  -14.3078   20.9844 O   0  0  0  0  0  0  0  0  0  0  0  0
    8.4442  -20.6840   23.5668 N   0  0  0  0  0  0  0  0  0  0  0  0
    9.5392  -19.9940   22.9826 C   0  0  0  0  0  0  0  0  0  0  0  0
   10.5748  -20.6630   22.6921 O   0  0  0  0  0  0  0  0  0  0  0  0
    9.5250  -18.5594   22.6978 C   0  0  0  0  0  0  0  0  0  0  0  0
    8.2767  -17.8321   23.0257 C   0  0  0  0  0  0  0  0  0  0  0  0
    8.3425  -16.3738   22.7000 C   0  0  2  0  0  0  0  0  0  0  0  0
    8.9930  -16.0316   21.4686 N   0  0  0  0  0  0  0  0  0  0  0  0
    8.8879  -15.6307   23.8503 C   0  0  0  0  0  0  0  0  0  0  0  0
   10.1182  -15.3818   23.9878 O   0  0  0  0  0  0  0  0  0  0  0  0
    6.2209  -11.5366   25.4204 C   0  0  0  0  0  0  0  0  0  0  0  0
    7.2830  -12.5767   25.1726 C   0  0  0  0  0  0  0  0  0  0  0  0
    7.5422  -13.4242   26.4090 C   0  0  2  0  0  0  0  0  0  0  0  0
    7.9753  -12.5222   27.5325 C   0  0  0  0  0  0  0  0  0  0  0  0
    8.5610  -14.4534   26.0395 C   0  0  2  0  0  0  0  0  0  0  0  0
    8.0400  -15.1579   24.8622 N   0  0  0  0  0  0  0  0  0  0  0  0
    8.8914  -15.3941   27.1238 C   0  0  0  0  0  0  0  0  0  0  0  0
    9.8749  -15.2036   28.0662 O   0  0  0  0  0  0  0  0  0  0  0  0
    8.2206  -16.4556   27.1929 O   0  0  0  0  0  0  0  0  0  0  0  0
  2  1  1  6
  3  2  1  0
  4  3  1  0
  5  4  1  0
  6  5  1  0
  7  6  1  0
  8  9  2  0
  8  2  1  0
 10 11  1  0
 11 12  2  0
 11 13  1  0
 13 14  1  0
 15 14  1  1
 15 16  1  0
 16  8  1  0
 17 15  1  0
 18 17  2  0
 19 20  1  0
 20 21  1  0
 21 23  1  0
 21 22  1  1
 23 25  1  0
 23 24  1  6
 24 17  1  0
 25 26  1  0
 27 25  2  0
M  END
$$$$
