KQI.pdb
     RDKit          3D

 27 26  0  0  1  0  0  0  0  0999 V2000
   11.5406  -18.9475   20.6867 N   0  0  0  0  0  0  0  0  0  0  0  0
   10.2500  -18.8732   21.3291 C   0  0  1  0  0  0  0  0  0  0  0  0
   10.1810  -19.6740   22.5862 C   0  0  0  0  0  0  0  0  0  0  0  0
   11.3285  -20.5284   22.9481 C   0  0  0  0  0  0  0  0  0  0  0  0
   12.1869  -20.2406   24.0977 C   0  0  0  0  0  0  0  0  0  0  0  0
   13.2162  -21.1994   24.5391 C   0  0  0  0  0  0  0  0  0  0  0  0
   12.6805  -22.4469   25.0401 N   0  0  0  0  0  0  0  0  0  0  0  0
    9.9099  -17.4428   21.6612 C   0  0  0  0  0  0  0  0  0  0  0  0
   10.8881  -16.6892   21.8623 O   0  0  0  0  0  0  0  0  0  0  0  0
    8.3317  -13.0083   19.2291 N   0  0  0  0  0  0  0  0  0  0  0  0
    7.6608  -12.5677   20.4005 C   0  0  0  0  0  0  0  0  0  0  0  0
    7.5484  -11.3197   20.5855 O   0  0  0  0  0  0  0  0  0  0  0  0
    7.0931  -13.4804   21.3924 C   0  0  0  0  0  0  0  0  0  0  0  0
    7.2750  -14.9287   21.1395 C   0  0  0  0  0  0  0  0  0  0  0  0
    8.3378  -15.5459   21.9919 C   0  0  2  0  0  0  0  0  0  0  0  0
    8.6112  -16.9332   21.7529 N   0  0  0  0  0  0  0  0  0  0  0  0
    8.0639  -15.2626   23.4124 C   0  0  0  0  0  0  0  0  0  0  0  0
    7.2107  -15.9016   24.0892 O   0  0  0  0  0  0  0  0  0  0  0  0
    6.0224  -11.5320   25.2409 C   0  0  0  0  0  0  0  0  0  0  0  0
    7.3059  -12.2767   24.9773 C   0  0  0  0  0  0  0  0  0  0  0  0
    7.4792  -13.4548   25.9237 C   0  0  2  0  0  0  0  0  0  0  0  0
    7.4633  -12.9456   27.3393 C   0  0  0  0  0  0  0  0  0  0  0  0
    8.7506  -14.1454   25.5491 C   0  0  2  0  0  0  0  0  0  0  0  0
    8.7589  -14.2474   24.0852 N   0  0  0  0  0  0  0  0  0  0  0  0
    8.9306  -15.4648   26.1788 C   0  0  0  0  0  0  0  0  0  0  0  0
    9.7682  -15.7305   27.2370 O   0  0  0  0  0  0  0  0  0  0  0  0
    8.2654  -16.4243   25.7114 O   0  0  0  0  0  0  0  0  0  0  0  0
  2  1  1  1
  3  2  1  0
  4  3  1  0
  5  4  1  0
  6  5  1  0
  7  6  1  0
  8  9  2  0
  8  2  1  0
 10 11  1  0
 11 12  2  0
 11 13  1  0
 13 14  1  0
 15 14  1  6
 15 16  1  0
 16  8  1  0
 17 15  1  0
 18 17  2  0
 19 20  1  0
 20 21  1  0
 21 23  1  0
 21 22  1  1
 23 25  1  0
 23 24  1  6
 24 17  1  0
 25 26  1  0
 27 25  2  0
M  END
$$$$
