KQI.pdb
     RDKit          3D

 27 26  0  0  1  0  0  0  0  0999 V2000
    8.8557  -17.8368   18.7950 N   0  0  0  0  0  0  0  0  0  0  0  0
    9.3540  -18.0182   20.1378 C   0  0  1  0  0  0  0  0  0  0  0  0
   10.7696  -17.5738   20.2960 C   0  0  0  0  0  0  0  0  0  0  0  0
   11.8446  -18.4124   19.7313 C   0  0  0  0  0  0  0  0  0  0  0  0
   13.2576  -18.0453   19.8306 C   0  0  0  0  0  0  0  0  0  0  0  0
   14.3131  -18.9255   19.2968 C   0  0  0  0  0  0  0  0  0  0  0  0
   15.6448  -18.3660   19.3855 N   0  0  0  0  0  0  0  0  0  0  0  0
    8.5061  -17.2523   21.1208 C   0  0  0  0  0  0  0  0  0  0  0  0
    7.9979  -16.1953   20.6851 O   0  0  0  0  0  0  0  0  0  0  0  0
    5.8409  -20.6660   23.7268 N   0  0  0  0  0  0  0  0  0  0  0  0
    6.6601  -20.1910   24.7850 C   0  0  0  0  0  0  0  0  0  0  0  0
    7.1034  -21.0368   25.6171 O   0  0  0  0  0  0  0  0  0  0  0  0
    7.0176  -18.7828   24.9542 C   0  0  0  0  0  0  0  0  0  0  0  0
    6.3670  -17.8200   24.0353 C   0  0  0  0  0  0  0  0  0  0  0  0
    7.3428  -16.9591   23.2980 C   0  0  2  0  0  0  0  0  0  0  0  0
    8.2665  -17.6443   22.4413 N   0  0  0  0  0  0  0  0  0  0  0  0
    8.0184  -16.0508   24.2423 C   0  0  0  0  0  0  0  0  0  0  0  0
    9.1820  -16.2605   24.6853 O   0  0  0  0  0  0  0  0  0  0  0  0
    6.8089  -10.7003   27.1018 C   0  0  0  0  0  0  0  0  0  0  0  0
    7.6805  -11.9096   26.8800 C   0  0  0  0  0  0  0  0  0  0  0  0
    6.9855  -12.9565   26.0228 C   0  0  2  0  0  0  0  0  0  0  0  0
    5.7889  -13.4783   26.7706 C   0  0  0  0  0  0  0  0  0  0  0  0
    7.9951  -14.0093   25.6972 C   0  0  2  0  0  0  0  0  0  0  0  0
    7.3793  -14.8880   24.6961 N   0  0  0  0  0  0  0  0  0  0  0  0
    8.4682  -14.7749   26.8633 C   0  0  0  0  0  0  0  0  0  0  0  0
    7.9677  -15.9897   27.2701 O   0  0  0  0  0  0  0  0  0  0  0  0
    9.4044  -14.2780   27.5403 O   0  0  0  0  0  0  0  0  0  0  0  0
  2  1  1  6
  3  2  1  0
  4  3  1  0
  5  4  1  0
  6  5  1  0
  7  6  1  0
  8  9  2  0
  8  2  1  0
 10 11  1  0
 11 12  2  0
 11 13  1  0
 13 14  1  0
 15 14  1  1
 15 16  1  0
 16  8  1  0
 17 15  1  0
 18 17  2  0
 19 20  1  0
 20 21  1  0
 21 23  1  0
 21 22  1  1
 23 25  1  0
 23 24  1  6
 24 17  1  0
 25 26  1  0
 27 25  2  0
M  END
$$$$
