KQI.pdb
     RDKit          3D

 27 26  0  0  1  0  0  0  0  0999 V2000
    6.1383  -17.3952   20.3528 N   0  0  0  0  0  0  0  0  0  0  0  0
    5.4146  -17.1784   21.5830 C   0  0  1  0  0  0  0  0  0  0  0  0
    4.3399  -18.1884   21.8092 C   0  0  0  0  0  0  0  0  0  0  0  0
    3.9194  -19.0429   20.6820 C   0  0  0  0  0  0  0  0  0  0  0  0
    2.5206  -19.4086   20.4563 C   0  0  0  0  0  0  0  0  0  0  0  0
    2.1439  -20.3644   19.3989 C   0  0  0  0  0  0  0  0  0  0  0  0
    0.7160  -20.5554   19.2615 N   0  0  0  0  0  0  0  0  0  0  0  0
    6.3554  -17.2183   22.7600 C   0  0  0  0  0  0  0  0  0  0  0  0
    5.8201  -17.0804   23.8824 O   0  0  0  0  0  0  0  0  0  0  0  0
   12.3062  -19.8076   23.6914 N   0  0  0  0  0  0  0  0  0  0  0  0
   11.9022  -19.0748   24.8386 C   0  0  0  0  0  0  0  0  0  0  0  0
   12.6657  -19.0870   25.8492 O   0  0  0  0  0  0  0  0  0  0  0  0
   10.6583  -18.3082   24.9052 C   0  0  0  0  0  0  0  0  0  0  0  0
    9.8467  -18.2552   23.6671 C   0  0  0  0  0  0  0  0  0  0  0  0
    8.5908  -17.4575   23.8205 C   0  0  2  0  0  0  0  0  0  0  0  0
    7.7393  -17.3942   22.6683 N   0  0  0  0  0  0  0  0  0  0  0  0
    8.9112  -16.1227   24.3578 C   0  0  0  0  0  0  0  0  0  0  0  0
    9.6233  -15.2844   23.7378 O   0  0  0  0  0  0  0  0  0  0  0  0
    5.8034  -12.4511   25.5557 C   0  0  0  0  0  0  0  0  0  0  0  0
    7.0493  -13.2646   25.3166 C   0  0  0  0  0  0  0  0  0  0  0  0
    7.7003  -13.6965   26.6218 C   0  0  2  0  0  0  0  0  0  0  0  0
    8.0089  -12.4711   27.4381 C   0  0  0  0  0  0  0  0  0  0  0  0
    8.9083  -14.5043   26.2725 C   0  0  2  0  0  0  0  0  0  0  0  0
    8.4242  -15.7210   25.6099 N   0  0  0  0  0  0  0  0  0  0  0  0
    9.7725  -14.8276   27.4207 C   0  0  0  0  0  0  0  0  0  0  0  0
   10.7876  -14.0315   27.8977 O   0  0  0  0  0  0  0  0  0  0  0  0
    9.5654  -15.9184   28.0114 O   0  0  0  0  0  0  0  0  0  0  0  0
  2  1  1  6
  3  2  1  0
  4  3  1  0
  5  4  1  0
  6  5  1  0
  7  6  1  0
  8  9  2  0
  8  2  1  0
 10 11  1  0
 11 12  2  0
 11 13  1  0
 13 14  1  0
 15 14  1  6
 15 16  1  0
 16  8  1  0
 17 15  1  0
 18 17  2  0
 19 20  1  0
 20 21  1  0
 21 23  1  0
 21 22  1  6
 23 25  1  0
 23 24  1  1
 24 17  1  0
 25 26  1  0
 27 25  2  0
M  END
$$$$
