KQI.pdb
     RDKit          3D

 27 26  0  0  1  0  0  0  0  0999 V2000
    8.0349  -16.3794   18.8484 N   0  0  0  0  0  0  0  0  0  0  0  0
    8.4492  -15.4285   19.8524 C   0  0  1  0  0  0  0  0  0  0  0  0
    7.9042  -14.0600   19.6150 C   0  0  0  0  0  0  0  0  0  0  0  0
    7.4044  -13.7180   18.2693 C   0  0  0  0  0  0  0  0  0  0  0  0
    8.2925  -13.5908   17.1133 C   0  0  0  0  0  0  0  0  0  0  0  0
    7.7676  -13.2223   15.7858 C   0  0  0  0  0  0  0  0  0  0  0  0
    8.7349  -13.3466   14.7166 N   0  0  0  0  0  0  0  0  0  0  0  0
    8.0068  -15.8821   21.2201 C   0  0  0  0  0  0  0  0  0  0  0  0
    6.9722  -16.5851   21.2461 O   0  0  0  0  0  0  0  0  0  0  0  0
   13.2604  -18.5186   24.4978 N   0  0  0  0  0  0  0  0  0  0  0  0
   12.3737  -18.5833   23.3906 C   0  0  0  0  0  0  0  0  0  0  0  0
   12.8687  -18.8097   22.2469 O   0  0  0  0  0  0  0  0  0  0  0  0
   10.9264  -18.4079   23.5091 C   0  0  0  0  0  0  0  0  0  0  0  0
   10.2995  -17.4369   22.5825 C   0  0  0  0  0  0  0  0  0  0  0  0
    9.2769  -16.5684   23.2437 C   0  0  2  0  0  0  0  0  0  0  0  0
    8.6647  -15.5717   22.4141 N   0  0  0  0  0  0  0  0  0  0  0  0
    9.8325  -16.0028   24.4865 C   0  0  0  0  0  0  0  0  0  0  0  0
   11.0364  -15.6392   24.5987 O   0  0  0  0  0  0  0  0  0  0  0  0
    6.7786  -11.5779   26.3971 C   0  0  0  0  0  0  0  0  0  0  0  0
    7.9193  -12.4893   26.7704 C   0  0  0  0  0  0  0  0  0  0  0  0
    7.8643  -13.8039   26.0070 C   0  0  2  0  0  0  0  0  0  0  0  0
    6.5493  -14.4761   26.2939 C   0  0  0  0  0  0  0  0  0  0  0  0
    9.0528  -14.6104   26.4200 C   0  0  2  0  0  0  0  0  0  0  0  0
    9.0247  -15.8412   25.6213 N   0  0  0  0  0  0  0  0  0  0  0  0
    9.1103  -14.9086   27.8614 C   0  0  0  0  0  0  0  0  0  0  0  0
    8.9439  -16.1542   28.4205 O   0  0  0  0  0  0  0  0  0  0  0  0
    9.3290  -13.9475   28.6425 O   0  0  0  0  0  0  0  0  0  0  0  0
  2  1  1  6
  3  2  1  0
  4  3  1  0
  5  4  1  0
  6  5  1  0
  7  6  1  0
  8  9  2  0
  8  2  1  0
 10 11  1  0
 11 12  2  0
 11 13  1  0
 13 14  1  0
 15 14  1  6
 15 16  1  0
 16  8  1  0
 17 15  1  0
 18 17  2  0
 19 20  1  0
 20 21  1  0
 21 23  1  0
 21 22  1  1
 23 25  1  0
 23 24  1  6
 24 17  1  0
 25 26  1  0
 27 25  2  0
M  END
$$$$
