KQI.pdb
     RDKit          3D

 27 26  0  0  1  0  0  0  0  0999 V2000
    9.0607  -14.8415   18.7230 N   0  0  0  0  0  0  0  0  0  0  0  0
    8.4615  -13.9923   19.7250 C   0  0  1  0  0  0  0  0  0  0  0  0
    7.0936  -13.5293   19.3502 C   0  0  0  0  0  0  0  0  0  0  0  0
    6.7269  -13.4801   17.9216 C   0  0  0  0  0  0  0  0  0  0  0  0
    7.6838  -13.7836   16.8570 C   0  0  0  0  0  0  0  0  0  0  0  0
    7.3127  -13.6461   15.4368 C   0  0  0  0  0  0  0  0  0  0  0  0
    8.3865  -13.9543   14.5167 N   0  0  0  0  0  0  0  0  0  0  0  0
    8.3697  -14.7187   21.0426 C   0  0  0  0  0  0  0  0  0  0  0  0
    7.4827  -14.3080   21.8235 O   0  0  0  0  0  0  0  0  0  0  0  0
   10.8505  -20.4299   23.2664 N   0  0  0  0  0  0  0  0  0  0  0  0
   10.0469  -19.8003   24.2534 C   0  0  0  0  0  0  0  0  0  0  0  0
    9.8499  -20.4191   25.3409 O   0  0  0  0  0  0  0  0  0  0  0  0
    9.4454  -18.4787   24.0764 C   0  0  0  0  0  0  0  0  0  0  0  0
    9.6589  -17.8250   22.7643 C   0  0  0  0  0  0  0  0  0  0  0  0
    9.0469  -16.4629   22.6791 C   0  0  2  0  0  0  0  0  0  0  0  0
    9.1901  -15.7847   21.4237 N   0  0  0  0  0  0  0  0  0  0  0  0
    9.4985  -15.6420   23.8172 C   0  0  0  0  0  0  0  0  0  0  0  0
   10.6675  -15.1732   23.9063 O   0  0  0  0  0  0  0  0  0  0  0  0
    6.0162  -12.2298   25.5771 C   0  0  0  0  0  0  0  0  0  0  0  0
    7.2913  -12.9632   25.2492 C   0  0  0  0  0  0  0  0  0  0  0  0
    7.8103  -13.7531   26.4410 C   0  0  2  0  0  0  0  0  0  0  0  0
    8.0598  -12.8030   27.5805 C   0  0  0  0  0  0  0  0  0  0  0  0
    9.0332  -14.4862   25.9928 C   0  0  2  0  0  0  0  0  0  0  0  0
    8.6247  -15.3407   24.8718 N   0  0  0  0  0  0  0  0  0  0  0  0
    9.6908  -15.2705   27.0521 C   0  0  0  0  0  0  0  0  0  0  0  0
   10.7299  -14.8279   27.8370 O   0  0  0  0  0  0  0  0  0  0  0  0
    9.2681  -16.4375   27.2546 O   0  0  0  0  0  0  0  0  0  0  0  0
  2  1  1  6
  3  2  1  0
  4  3  1  0
  5  4  1  0
  6  5  1  0
  7  6  1  0
  8  9  2  0
  8  2  1  0
 10 11  1  0
 11 12  2  0
 11 13  1  0
 13 14  1  0
 15 14  1  6
 15 16  1  0
 16  8  1  0
 17 15  1  0
 18 17  2  0
 19 20  1  0
 20 21  1  0
 21 23  1  0
 21 22  1  1
 23 25  1  0
 23 24  1  6
 24 17  1  0
 25 26  1  0
 27 25  2  0
M  END
$$$$
