KQI.pdb
     RDKit          3D

 27 26  0  0  1  0  0  0  0  0999 V2000
    6.9549  -19.9402   21.1547 N   0  0  0  0  0  0  0  0  0  0  0  0
    6.4383  -18.7895   21.8569 C   0  0  1  0  0  0  0  0  0  0  0  0
    5.8451  -19.1363   23.1813 C   0  0  0  0  0  0  0  0  0  0  0  0
    4.8689  -20.2406   23.2551 C   0  0  0  0  0  0  0  0  0  0  0  0
    5.0810  -21.4177   24.0981 C   0  0  0  0  0  0  0  0  0  0  0  0
    4.0580  -22.4741   24.2032 C   0  0  0  0  0  0  0  0  0  0  0  0
    4.5004  -23.6507   24.9202 N   0  0  0  0  0  0  0  0  0  0  0  0
    7.5314  -17.7758   22.0800 C   0  0  0  0  0  0  0  0  0  0  0  0
    8.6217  -18.2390   22.4826 O   0  0  0  0  0  0  0  0  0  0  0  0
    7.6305  -11.8829   19.0867 N   0  0  0  0  0  0  0  0  0  0  0  0
    7.7775  -13.2947   19.0457 C   0  0  0  0  0  0  0  0  0  0  0  0
    8.1206  -13.8235   17.9471 O   0  0  0  0  0  0  0  0  0  0  0  0
    7.5583  -14.1591   20.2051 C   0  0  0  0  0  0  0  0  0  0  0  0
    8.7539  -14.5026   21.0097 C   0  0  0  0  0  0  0  0  0  0  0  0
    8.4631  -15.4715   22.1115 C   0  0  2  0  0  0  0  0  0  0  0  0
    7.3975  -16.4002   21.8695 N   0  0  0  0  0  0  0  0  0  0  0  0
    8.2985  -14.7446   23.3833 C   0  0  0  0  0  0  0  0  0  0  0  0
    8.0407  -13.5100   23.4416 O   0  0  0  0  0  0  0  0  0  0  0  0
    6.4480  -11.8365   25.4673 C   0  0  0  0  0  0  0  0  0  0  0  0
    7.6058  -12.7561   25.1754 C   0  0  0  0  0  0  0  0  0  0  0  0
    7.7625  -13.8238   26.2473 C   0  0  2  0  0  0  0  0  0  0  0  0
    8.0012  -13.1500   27.5711 C   0  0  0  0  0  0  0  0  0  0  0  0
    8.8781  -14.7231   25.8224 C   0  0  2  0  0  0  0  0  0  0  0  0
    8.4239  -15.4133   24.6095 N   0  0  0  0  0  0  0  0  0  0  0  0
    9.3091  -15.6816   26.8544 C   0  0  0  0  0  0  0  0  0  0  0  0
    9.1473  -17.0458   26.7864 O   0  0  0  0  0  0  0  0  0  0  0  0
    9.8695  -15.2151   27.8791 O   0  0  0  0  0  0  0  0  0  0  0  0
  2  1  1  1
  3  2  1  0
  4  3  1  0
  5  4  1  0
  6  5  1  0
  7  6  1  0
  8  9  2  0
  8  2  1  0
 10 11  1  0
 11 12  2  0
 11 13  1  0
 13 14  1  0
 15 14  1  6
 15 16  1  0
 16  8  1  0
 17 15  1  0
 18 17  2  0
 19 20  1  0
 20 21  1  0
 21 23  1  0
 21 22  1  1
 23 25  1  0
 23 24  1  6
 24 17  1  0
 25 26  1  0
 27 25  2  0
M  END
$$$$
