KQI.pdb
     RDKit          3D

 27 26  0  0  1  0  0  0  0  0999 V2000
    5.1187  -17.3614   20.1928 N   0  0  0  0  0  0  0  0  0  0  0  0
    6.3679  -16.8679   20.7220 C   0  0  1  0  0  0  0  0  0  0  0  0
    6.6868  -15.4849   20.2616 C   0  0  0  0  0  0  0  0  0  0  0  0
    7.3316  -15.3049   18.9465 C   0  0  0  0  0  0  0  0  0  0  0  0
    7.6927  -13.9860   18.4257 C   0  0  0  0  0  0  0  0  0  0  0  0
    8.2263  -13.8255   17.0608 C   0  0  0  0  0  0  0  0  0  0  0  0
    8.2561  -12.4542   16.5993 N   0  0  0  0  0  0  0  0  0  0  0  0
    6.3370  -16.8686   22.2290 C   0  0  0  0  0  0  0  0  0  0  0  0
    5.3012  -16.3950   22.7468 O   0  0  0  0  0  0  0  0  0  0  0  0
    8.1272  -21.1958   26.5489 N   0  0  0  0  0  0  0  0  0  0  0  0
    7.6880  -20.0320   27.2339 C   0  0  0  0  0  0  0  0  0  0  0  0
    7.5872  -20.0890   28.4952 O   0  0  0  0  0  0  0  0  0  0  0  0
    7.3549  -18.7790   26.5568 C   0  0  0  0  0  0  0  0  0  0  0  0
    7.4448  -18.7818   25.0781 C   0  0  0  0  0  0  0  0  0  0  0  0
    7.2458  -17.4281   24.4740 C   0  0  2  0  0  0  0  0  0  0  0  0
    7.3632  -17.3511   23.0468 N   0  0  0  0  0  0  0  0  0  0  0  0
    8.1008  -16.4447   25.1631 C   0  0  0  0  0  0  0  0  0  0  0  0
    9.3212  -16.2794   24.8845 O   0  0  0  0  0  0  0  0  0  0  0  0
    5.6102  -12.0902   27.0633 C   0  0  0  0  0  0  0  0  0  0  0  0
    6.6633  -12.9956   26.4780 C   0  0  0  0  0  0  0  0  0  0  0  0
    7.4652  -13.7019   27.5605 C   0  0  2  0  0  0  0  0  0  0  0  0
    8.1544  -12.6662   28.4064 C   0  0  0  0  0  0  0  0  0  0  0  0
    8.4059  -14.6417   26.8781 C   0  0  2  0  0  0  0  0  0  0  0  0
    7.5786  -15.6326   26.1801 N   0  0  0  0  0  0  0  0  0  0  0  0
    9.3726  -15.2910   27.7801 C   0  0  0  0  0  0  0  0  0  0  0  0
   10.6218  -14.8038   28.0866 O   0  0  0  0  0  0  0  0  0  0  0  0
    9.0279  -16.3773   28.3120 O   0  0  0  0  0  0  0  0  0  0  0  0
  2  1  1  6
  3  2  1  0
  4  3  1  0
  5  4  1  0
  6  5  1  0
  7  6  1  0
  8  9  2  0
  8  2  1  0
 10 11  1  0
 11 12  2  0
 11 13  1  0
 13 14  1  0
 15 14  1  1
 15 16  1  0
 16  8  1  0
 17 15  1  0
 18 17  2  0
 19 20  1  0
 20 21  1  0
 21 23  1  0
 21 22  1  6
 23 25  1  0
 23 24  1  1
 24 17  1  0
 25 26  1  0
 27 25  2  0
M  END
$$$$
