KQI.pdb
     RDKit          3D

 27 26  0  0  1  0  0  0  0  0999 V2000
   10.1595  -16.7243   19.4177 N   0  0  0  0  0  0  0  0  0  0  0  0
    9.0887  -17.0190   20.3400 C   0  0  1  0  0  0  0  0  0  0  0  0
    9.0130  -18.4656   20.6976 C   0  0  0  0  0  0  0  0  0  0  0  0
   10.2448  -19.1571   21.1245 C   0  0  0  0  0  0  0  0  0  0  0  0
   10.3061  -20.6083   21.3025 C   0  0  0  0  0  0  0  0  0  0  0  0
    9.2301  -21.4835   20.8028 C   0  0  0  0  0  0  0  0  0  0  0  0
    9.4583  -22.8918   21.0453 N   0  0  0  0  0  0  0  0  0  0  0  0
    9.2571  -16.2265   21.6111 C   0  0  0  0  0  0  0  0  0  0  0  0
   10.4274  -15.8702   21.8728 O   0  0  0  0  0  0  0  0  0  0  0  0
    4.9450  -13.2964   25.7071 N   0  0  0  0  0  0  0  0  0  0  0  0
    6.2859  -12.9437   26.0139 C   0  0  0  0  0  0  0  0  0  0  0  0
    6.4780  -12.0453   26.8859 O   0  0  0  0  0  0  0  0  0  0  0  0
    7.4462  -13.5683   25.3791 C   0  0  0  0  0  0  0  0  0  0  0  0
    7.1694  -14.4751   24.2408 C   0  0  0  0  0  0  0  0  0  0  0  0
    8.4091  -15.0421   23.6253 C   0  0  2  0  0  0  0  0  0  0  0  0
    8.2165  -15.8819   22.4789 N   0  0  0  0  0  0  0  0  0  0  0  0
    9.2306  -15.6881   24.6649 C   0  0  0  0  0  0  0  0  0  0  0  0
    9.3361  -16.9413   24.7782 O   0  0  0  0  0  0  0  0  0  0  0  0
   11.1218  -14.3407   30.2925 C   0  0  0  0  0  0  0  0  0  0  0  0
   11.3187  -15.1448   29.0332 C   0  0  0  0  0  0  0  0  0  0  0  0
   10.5532  -14.5523   27.8599 C   0  0  2  0  0  0  0  0  0  0  0  0
    9.1432  -14.2631   28.2977 C   0  0  0  0  0  0  0  0  0  0  0  0
   10.6425  -15.5268   26.7303 C   0  0  2  0  0  0  0  0  0  0  0  0
    9.9464  -14.9166   25.5916 N   0  0  0  0  0  0  0  0  0  0  0  0
   10.0988  -16.8608   27.0378 C   0  0  0  0  0  0  0  0  0  0  0  0
   10.8243  -17.9161   27.5396 O   0  0  0  0  0  0  0  0  0  0  0  0
    8.8738  -17.0494   26.8245 O   0  0  0  0  0  0  0  0  0  0  0  0
  2  1  1  6
  3  2  1  0
  4  3  1  0
  5  4  1  0
  6  5  1  0
  7  6  1  0
  8  9  2  0
  8  2  1  0
 10 11  1  0
 11 12  2  0
 11 13  1  0
 13 14  1  0
 15 14  1  1
 15 16  1  0
 16  8  1  0
 17 15  1  0
 18 17  2  0
 19 20  1  0
 20 21  1  0
 21 23  1  0
 21 22  1  1
 23 25  1  0
 23 24  1  6
 24 17  1  0
 25 26  1  0
 27 25  2  0
M  END
$$$$
