KQI.pdb
     RDKit          3D

 27 26  0  0  1  0  0  0  0  0999 V2000
    5.6165  -15.8188   21.8655 N   0  0  0  0  0  0  0  0  0  0  0  0
    6.3558  -16.7063   20.9995 C   0  0  1  0  0  0  0  0  0  0  0  0
    6.3277  -16.2784   19.5704 C   0  0  0  0  0  0  0  0  0  0  0  0
    7.2172  -15.1826   19.1393 C   0  0  0  0  0  0  0  0  0  0  0  0
    7.2457  -14.6941   17.7603 C   0  0  0  0  0  0  0  0  0  0  0  0
    8.1941  -13.6454   17.3427 C   0  0  0  0  0  0  0  0  0  0  0  0
    8.0643  -13.2548   15.9553 N   0  0  0  0  0  0  0  0  0  0  0  0
    7.7951  -16.7908   21.4389 C   0  0  0  0  0  0  0  0  0  0  0  0
    8.4258  -17.7905   21.0290 O   0  0  0  0  0  0  0  0  0  0  0  0
   13.0122  -14.5300   19.7806 N   0  0  0  0  0  0  0  0  0  0  0  0
   13.1576  -14.6466   21.1883 C   0  0  0  0  0  0  0  0  0  0  0  0
   14.1815  -14.1277   21.7238 O   0  0  0  0  0  0  0  0  0  0  0  0
   12.1851  -15.3277   22.0426 C   0  0  0  0  0  0  0  0  0  0  0  0
   10.7564  -15.1408   21.6981 C   0  0  0  0  0  0  0  0  0  0  0  0
    9.8326  -15.9282   22.5720 C   0  0  2  0  0  0  0  0  0  0  0  0
    8.4379  -15.8490   22.2481 N   0  0  0  0  0  0  0  0  0  0  0  0
   10.1004  -15.6170   23.9878 C   0  0  0  0  0  0  0  0  0  0  0  0
   11.2503  -15.6944   24.5035 O   0  0  0  0  0  0  0  0  0  0  0  0
    6.6085  -12.2706   25.7809 C   0  0  0  0  0  0  0  0  0  0  0  0
    7.8280  -13.1108   25.5014 C   0  0  0  0  0  0  0  0  0  0  0  0
    8.1846  -13.9986   26.6840 C   0  0  2  0  0  0  0  0  0  0  0  0
    8.5313  -13.1248   27.8586 C   0  0  0  0  0  0  0  0  0  0  0  0
    9.3016  -14.8922   26.2509 C   0  0  2  0  0  0  0  0  0  0  0  0
    9.0622  -15.2113   24.8387 N   0  0  0  0  0  0  0  0  0  0  0  0
    9.4461  -16.1151   27.0592 C   0  0  0  0  0  0  0  0  0  0  0  0
   10.2244  -16.2325   28.1871 O   0  0  0  0  0  0  0  0  0  0  0  0
    8.8068  -17.1326   26.6880 O   0  0  0  0  0  0  0  0  0  0  0  0
  2  1  1  1
  3  2  1  0
  4  3  1  0
  5  4  1  0
  6  5  1  0
  7  6  1  0
  8  9  2  0
  8  2  1  0
 10 11  1  0
 11 12  2  0
 11 13  1  0
 13 14  1  0
 15 14  1  6
 15 16  1  0
 16  8  1  0
 17 15  1  0
 18 17  2  0
 19 20  1  0
 20 21  1  0
 21 23  1  0
 21 22  1  1
 23 25  1  0
 23 24  1  6
 24 17  1  0
 25 26  1  0
 27 25  2  0
M  END
$$$$
