KQI.pdb
     RDKit          3D

 27 26  0  0  1  0  0  0  0  0999 V2000
    8.3106  -16.8740   18.4885 N   0  0  0  0  0  0  0  0  0  0  0  0
    8.4212  -15.7902   19.4358 C   0  0  1  0  0  0  0  0  0  0  0  0
    7.4606  -14.6815   19.1633 C   0  0  0  0  0  0  0  0  0  0  0  0
    7.3209  -14.1864   17.7802 C   0  0  0  0  0  0  0  0  0  0  0  0
    8.4474  -13.6290   17.0309 C   0  0  0  0  0  0  0  0  0  0  0  0
    8.2850  -13.1714   15.6388 C   0  0  0  0  0  0  0  0  0  0  0  0
    9.4815  -12.5909   15.0680 N   0  0  0  0  0  0  0  0  0  0  0  0
    8.1798  -16.2905   20.8370 C   0  0  0  0  0  0  0  0  0  0  0  0
    7.3588  -17.2288   20.9401 O   0  0  0  0  0  0  0  0  0  0  0  0
   12.2083  -19.7494   22.3918 N   0  0  0  0  0  0  0  0  0  0  0  0
   11.0832  -19.3126   23.1401 C   0  0  0  0  0  0  0  0  0  0  0  0
   10.5242  -20.1470   23.9118 O   0  0  0  0  0  0  0  0  0  0  0  0
   10.5476  -17.9535   23.0660 C   0  0  0  0  0  0  0  0  0  0  0  0
    9.1190  -17.7851   23.4199 C   0  0  0  0  0  0  0  0  0  0  0  0
    8.6400  -16.3752   23.2784 C   0  0  2  0  0  0  0  0  0  0  0  0
    8.7998  -15.7822   21.9825 N   0  0  0  0  0  0  0  0  0  0  0  0
    9.2136  -15.5443   24.3524 C   0  0  0  0  0  0  0  0  0  0  0  0
   10.4123  -15.1476   24.3495 O   0  0  0  0  0  0  0  0  0  0  0  0
    6.0484  -11.8702   25.8112 C   0  0  0  0  0  0  0  0  0  0  0  0
    7.2409  -12.7548   25.5529 C   0  0  0  0  0  0  0  0  0  0  0  0
    7.8053  -13.3318   26.8422 C   0  0  2  0  0  0  0  0  0  0  0  0
    8.2052  -12.1977   27.7462 C   0  0  0  0  0  0  0  0  0  0  0  0
    8.9397  -14.2308   26.4703 C   0  0  2  0  0  0  0  0  0  0  0  0
    8.4300  -15.1506   25.4467 N   0  0  0  0  0  0  0  0  0  0  0  0
    9.5274  -14.9643   27.6045 C   0  0  0  0  0  0  0  0  0  0  0  0
   10.5404  -14.4990   28.4101 O   0  0  0  0  0  0  0  0  0  0  0  0
    9.0657  -16.1068   27.8559 O   0  0  0  0  0  0  0  0  0  0  0  0
  2  1  1  6
  3  2  1  0
  4  3  1  0
  5  4  1  0
  6  5  1  0
  7  6  1  0
  8  9  2  0
  8  2  1  0
 10 11  1  0
 11 12  2  0
 11 13  1  0
 13 14  1  0
 15 14  1  6
 15 16  1  0
 16  8  1  0
 17 15  1  0
 18 17  2  0
 19 20  1  0
 20 21  1  0
 21 23  1  0
 21 22  1  1
 23 25  1  0
 23 24  1  6
 24 17  1  0
 25 26  1  0
 27 25  2  0
M  END
$$$$
