KQI.pdb
     RDKit          3D

 27 26  0  0  1  0  0  0  0  0999 V2000
    8.8905  -16.3208   19.1380 N   0  0  0  0  0  0  0  0  0  0  0  0
    8.7656  -15.0160   19.7429 C   0  0  1  0  0  0  0  0  0  0  0  0
    7.9933  -14.0573   18.8998 C   0  0  0  0  0  0  0  0  0  0  0  0
    8.3374  -13.9318   17.4703 C   0  0  0  0  0  0  0  0  0  0  0  0
    7.6242  -14.6680   16.4260 C   0  0  0  0  0  0  0  0  0  0  0  0
    7.9306  -14.4561   14.9995 C   0  0  0  0  0  0  0  0  0  0  0  0
    7.6011  -13.1316   14.5184 N   0  0  0  0  0  0  0  0  0  0  0  0
    8.0840  -15.1213   21.0832 C   0  0  0  0  0  0  0  0  0  0  0  0
    7.6845  -14.0406   21.5709 O   0  0  0  0  0  0  0  0  0  0  0  0
    5.8654  -20.4646   23.9353 N   0  0  0  0  0  0  0  0  0  0  0  0
    7.2067  -20.0365   24.1198 C   0  0  0  0  0  0  0  0  0  0  0  0
    8.0386  -20.8740   24.5791 O   0  0  0  0  0  0  0  0  0  0  0  0
    7.6700  -18.6862   23.8013 C   0  0  0  0  0  0  0  0  0  0  0  0
    6.6297  -17.7020   23.4220 C   0  0  0  0  0  0  0  0  0  0  0  0
    7.1918  -16.3700   23.0386 C   0  0  2  0  0  0  0  0  0  0  0  0
    7.8822  -16.3148   21.7829 N   0  0  0  0  0  0  0  0  0  0  0  0
    7.9984  -15.8317   24.1488 C   0  0  0  0  0  0  0  0  0  0  0  0
    9.2605  -15.8669   24.1622 O   0  0  0  0  0  0  0  0  0  0  0  0
    5.6891  -11.6120   25.9802 C   0  0  0  0  0  0  0  0  0  0  0  0
    6.7112  -12.6435   25.5771 C   0  0  0  0  0  0  0  0  0  0  0  0
    7.2336  -13.4191   26.7769 C   0  0  2  0  0  0  0  0  0  0  0  0
    7.9045  -12.4581   27.7202 C   0  0  0  0  0  0  0  0  0  0  0  0
    8.1443  -14.4845   26.2581 C   0  0  2  0  0  0  0  0  0  0  0  0
    7.3799  -15.2432   25.2613 N   0  0  0  0  0  0  0  0  0  0  0  0
    8.6942  -15.3700   27.2989 C   0  0  0  0  0  0  0  0  0  0  0  0
    8.3353  -16.6835   27.4927 O   0  0  0  0  0  0  0  0  0  0  0  0
    9.5606  -14.8861   28.0714 O   0  0  0  0  0  0  0  0  0  0  0  0
  2  1  1  6
  3  2  1  0
  4  3  1  0
  5  4  1  0
  6  5  1  0
  7  6  1  0
  8  9  2  0
  8  2  1  0
 10 11  1  0
 11 12  2  0
 11 13  1  0
 13 14  1  0
 15 14  1  1
 15 16  1  0
 16  8  1  0
 17 15  1  0
 18 17  2  0
 19 20  1  0
 20 21  1  0
 21 23  1  0
 21 22  1  1
 23 25  1  0
 23 24  1  6
 24 17  1  0
 25 26  1  0
 27 25  2  0
M  END
$$$$
