KQI.pdb
     RDKit          3D

 27 26  0  0  1  0  0  0  0  0999 V2000
    5.8320  -17.3321   19.2640 N   0  0  0  0  0  0  0  0  0  0  0  0
    6.5085  -16.3858   20.1190 C   0  0  1  0  0  0  0  0  0  0  0  0
    6.1000  -14.9744   19.8592 C   0  0  0  0  0  0  0  0  0  0  0  0
    7.1379  -13.9897   19.4973 C   0  0  0  0  0  0  0  0  0  0  0  0
    8.1618  -14.2664   18.4892 C   0  0  0  0  0  0  0  0  0  0  0  0
    9.1721  -13.2540   18.1313 C   0  0  0  0  0  0  0  0  0  0  0  0
   10.2183  -13.7498   17.2629 N   0  0  0  0  0  0  0  0  0  0  0  0
    6.2344  -16.6976   21.5680 C   0  0  0  0  0  0  0  0  0  0  0  0
    5.1510  -17.2792   21.7984 O   0  0  0  0  0  0  0  0  0  0  0  0
    6.3434  -20.1074   26.4382 N   0  0  0  0  0  0  0  0  0  0  0  0
    7.6431  -19.6749   26.0636 C   0  0  0  0  0  0  0  0  0  0  0  0
    8.6208  -20.0486   26.7768 O   0  0  0  0  0  0  0  0  0  0  0  0
    7.9037  -18.8294   24.8988 C   0  0  0  0  0  0  0  0  0  0  0  0
    6.7189  -18.2562   24.2189 C   0  0  0  0  0  0  0  0  0  0  0  0
    6.8331  -16.7843   23.9790 C   0  0  2  0  0  0  0  0  0  0  0  0
    7.0923  -16.3841   22.6266 N   0  0  0  0  0  0  0  0  0  0  0  0
    7.7909  -16.1970   24.9334 C   0  0  0  0  0  0  0  0  0  0  0  0
    9.0236  -16.4703   24.9269 O   0  0  0  0  0  0  0  0  0  0  0  0
    5.5821  -11.8340   27.0008 C   0  0  0  0  0  0  0  0  0  0  0  0
    6.5286  -12.8139   26.3564 C   0  0  0  0  0  0  0  0  0  0  0  0
    7.4923  -13.4160   27.3678 C   0  0  2  0  0  0  0  0  0  0  0  0
    8.3145  -12.3101   27.9714 C   0  0  0  0  0  0  0  0  0  0  0  0
    8.3053  -14.4457   26.6520 C   0  0  2  0  0  0  0  0  0  0  0  0
    7.3598  -15.2876   25.9099 N   0  0  0  0  0  0  0  0  0  0  0  0
    9.1668  -15.2548   27.5312 C   0  0  0  0  0  0  0  0  0  0  0  0
   10.4698  -14.9575   27.8561 O   0  0  0  0  0  0  0  0  0  0  0  0
    8.6710  -16.3003   28.0238 O   0  0  0  0  0  0  0  0  0  0  0  0
  2  1  1  6
  3  2  1  0
  4  3  1  0
  5  4  1  0
  6  5  1  0
  7  6  1  0
  8  9  2  0
  8  2  1  0
 10 11  1  0
 11 12  2  0
 11 13  1  0
 13 14  1  0
 15 14  1  6
 15 16  1  0
 16  8  1  0
 17 15  1  0
 18 17  2  0
 19 20  1  0
 20 21  1  0
 21 23  1  0
 21 22  1  6
 23 25  1  0
 23 24  1  1
 24 17  1  0
 25 26  1  0
 27 25  2  0
M  END
$$$$
