HNC.pdb
     RDKit          3D

 25 25  0  0  1  0  0  0  0  0999 V2000
   25.4733  -12.9108  -17.7596 N   0  0  0  0  0  0  0  0  0  0  0  0
   25.3312  -11.8251  -16.8274 C   0  0  1  0  0  0  0  0  0  0  0  0
   26.5790  -10.9451  -16.9772 C   0  0  0  0  0  0  0  0  0  0  0  0
   27.7479  -11.8418  -16.7453 C   0  0  0  0  0  0  0  0  0  0  0  0
   27.7273  -13.2121  -16.4659 C   0  0  0  0  0  0  0  0  0  0  0  0
   28.9837  -13.6500  -16.3242 N   0  0  0  0  0  0  0  0  0  0  0  0
   29.8091  -12.6146  -16.5018 C   0  0  0  0  0  0  0  0  0  0  0  0
   29.0603  -11.5221  -16.7563 N   0  0  0  0  0  0  0  0  0  0  0  0
   24.1232  -11.0155  -17.0636 C   0  0  0  0  0  0  0  0  0  0  0  0
   23.4501  -11.2605  -18.0971 O   0  0  0  0  0  0  0  0  0  0  0  0
   19.4258   -9.4524  -17.8974 N   0  0  0  0  0  0  0  0  0  0  0  0
   19.9670   -9.5559  -16.6011 C   0  0  0  0  0  0  0  0  0  0  0  0
   19.3147   -9.0745  -15.6411 O   0  0  0  0  0  0  0  0  0  0  0  0
   21.2681  -10.2205  -16.4235 C   0  0  0  0  0  0  0  0  0  0  0  0
   22.4350   -9.2710  -16.4129 C   0  0  2  0  0  0  0  0  0  0  0  0
   23.6800   -9.9771  -16.1898 N   0  0  0  0  0  0  0  0  0  0  0  0
   22.2537   -8.2057  -15.3766 C   0  0  0  0  0  0  0  0  0  0  0  0
   22.3755   -8.4541  -14.1505 O   0  0  0  0  0  0  0  0  0  0  0  0
   21.9370   -6.8753  -15.7464 N   0  0  0  0  0  0  0  0  0  0  0  0
   21.7551   -5.8132  -14.7476 C   0  0  1  0  0  0  0  0  0  0  0  0
   22.5689   -4.5936  -15.1078 C   0  0  0  0  0  0  0  0  0  0  0  0
   22.2477   -3.3380  -13.8384 S   0  0  0  0  0  0  0  0  0  0  0  0
   20.3205   -5.4355  -14.7461 C   0  0  0  0  0  0  0  0  0  0  0  0
   19.6423   -5.3258  -15.8096 O   0  0  0  0  0  0  0  0  0  0  0  0
   19.6481   -5.1817  -13.5605 O   0  0  0  0  0  0  0  0  0  0  0  0
  2  1  1  6
  3  2  1  0
  4  3  1  0
  4  8  1  0
  5  4  2  0
  6  5  1  0
  6  7  1  0
  7  8  2  0
  9  2  1  0
 10  9  2  0
 11 12  1  0
 12 14  1  0
 12 13  2  0
 15 14  1  1
 15 16  1  0
 15 17  1  0
 16  9  1  0
 17 18  2  0
 17 19  1  0
 19 20  1  0
 20 21  1  6
 20 23  1  0
 22 21  1  0
 23 25  1  0
 24 23  2  0
M  END
$$$$
