HNC.pdb
     RDKit          3D

 25 25  0  0  1  0  0  0  0  0999 V2000
   20.7645  -14.5568  -17.8442 N   0  0  0  0  0  0  0  0  0  0  0  0
   20.2041  -13.6588  -18.8175 C   0  0  1  0  0  0  0  0  0  0  0  0
   19.3248  -14.5047  -19.7475 C   0  0  0  0  0  0  0  0  0  0  0  0
   20.2354  -15.4967  -20.3887 C   0  0  0  0  0  0  0  0  0  0  0  0
   20.9540  -15.3473  -21.5792 C   0  0  0  0  0  0  0  0  0  0  0  0
   21.6541  -16.4636  -21.8123 N   0  0  0  0  0  0  0  0  0  0  0  0
   21.4127  -17.3228  -20.8181 C   0  0  0  0  0  0  0  0  0  0  0  0
   20.5547  -16.7367  -19.9583 N   0  0  0  0  0  0  0  0  0  0  0  0
   19.3963  -12.5845  -18.2144 C   0  0  0  0  0  0  0  0  0  0  0  0
   18.9566  -11.6870  -18.9778 O   0  0  0  0  0  0  0  0  0  0  0  0
   16.6997   -9.4725  -15.1647 N   0  0  0  0  0  0  0  0  0  0  0  0
   16.4900  -10.7919  -14.7186 C   0  0  0  0  0  0  0  0  0  0  0  0
   15.5802  -11.0008  -13.8775 O   0  0  0  0  0  0  0  0  0  0  0  0
   17.3405  -11.8679  -15.2526 C   0  0  0  0  0  0  0  0  0  0  0  0
   18.3494  -11.3951  -16.2634 C   0  0  2  0  0  0  0  0  0  0  0  0
   19.0888  -12.5083  -16.8223 N   0  0  0  0  0  0  0  0  0  0  0  0
   19.2923  -10.4011  -15.6597 C   0  0  0  0  0  0  0  0  0  0  0  0
   20.3961  -10.7539  -15.1730 O   0  0  0  0  0  0  0  0  0  0  0  0
   18.9691   -9.0224  -15.6171 N   0  0  0  0  0  0  0  0  0  0  0  0
   19.9241   -8.0145  -15.1365 C   0  0  1  0  0  0  0  0  0  0  0  0
   21.1519   -7.9779  -16.0143 C   0  0  0  0  0  0  0  0  0  0  0  0
   22.1810   -6.5973  -15.4430 S   0  0  0  0  0  0  0  0  0  0  0  0
   19.2578   -6.6910  -15.2072 C   0  0  0  0  0  0  0  0  0  0  0  0
   18.4635   -6.3756  -16.1413 O   0  0  0  0  0  0  0  0  0  0  0  0
   19.4791   -5.7250  -14.2377 O   0  0  0  0  0  0  0  0  0  0  0  0
  2  1  1  1
  3  2  1  0
  4  3  1  0
  4  8  1  0
  5  4  2  0
  6  5  1  0
  6  7  1  0
  7  8  2  0
  9  2  1  0
 10  9  2  0
 11 12  1  0
 12 14  1  0
 12 13  2  0
 15 14  1  1
 15 16  1  0
 15 17  1  0
 16  9  1  0
 17 18  2  0
 17 19  1  0
 19 20  1  0
 20 21  1  6
 20 23  1  0
 22 21  1  0
 23 25  1  0
 24 23  2  0
M  END
$$$$
