HNC.pdb
     RDKit          3D

 25 25  0  0  1  0  0  0  0  0999 V2000
   26.1460  -18.9592  -16.4161 N   0  0  0  0  0  0  0  0  0  0  0  0
   25.4292  -18.4742  -15.2677 C   0  0  1  0  0  0  0  0  0  0  0  0
   24.5500  -17.3134  -15.7507 C   0  0  0  0  0  0  0  0  0  0  0  0
   25.4762  -16.1745  -16.0138 C   0  0  0  0  0  0  0  0  0  0  0  0
   26.3020  -15.5191  -15.0948 C   0  0  0  0  0  0  0  0  0  0  0  0
   26.9781  -14.5512  -15.7246 N   0  0  0  0  0  0  0  0  0  0  0  0
   26.6184  -14.5603  -17.0113 C   0  0  0  0  0  0  0  0  0  0  0  0
   25.7103  -15.5423  -17.1844 N   0  0  0  0  0  0  0  0  0  0  0  0
   24.5863  -19.5040  -14.6357 C   0  0  0  0  0  0  0  0  0  0  0  0
   23.9517  -20.2828  -15.3922 O   0  0  0  0  0  0  0  0  0  0  0  0
   26.1100  -21.9122  -12.2328 N   0  0  0  0  0  0  0  0  0  0  0  0
   25.3815  -21.5818  -11.0735 C   0  0  0  0  0  0  0  0  0  0  0  0
   25.9042  -21.8105   -9.9540 O   0  0  0  0  0  0  0  0  0  0  0  0
   24.0440  -20.9850  -11.2188 C   0  0  0  0  0  0  0  0  0  0  0  0
   23.6509  -20.7239  -12.6473 C   0  0  2  0  0  0  0  0  0  0  0  0
   24.4525  -19.6638  -13.2234 N   0  0  0  0  0  0  0  0  0  0  0  0
   22.1963  -20.3859  -12.7529 C   0  0  0  0  0  0  0  0  0  0  0  0
   21.7028  -19.4069  -12.1383 O   0  0  0  0  0  0  0  0  0  0  0  0
   21.3235  -21.1630  -13.5537 N   0  0  0  0  0  0  0  0  0  0  0  0
   19.9129  -20.7992  -13.7447 C   0  0  1  0  0  0  0  0  0  0  0  0
   19.4892  -21.0283  -15.1756 C   0  0  0  0  0  0  0  0  0  0  0  0
   20.5553  -20.0004  -16.2237 S   0  0  0  0  0  0  0  0  0  0  0  0
   19.0977  -21.6758  -12.8686 C   0  0  0  0  0  0  0  0  0  0  0  0
   19.5436  -22.7537  -12.3762 O   0  0  0  0  0  0  0  0  0  0  0  0
   17.7900  -21.3482  -12.5449 O   0  0  0  0  0  0  0  0  0  0  0  0
  2  1  1  6
  3  2  1  0
  4  3  1  0
  4  8  1  0
  5  4  2  0
  6  5  1  0
  6  7  1  0
  7  8  2  0
  9  2  1  0
 10  9  2  0
 11 12  1  0
 12 14  1  0
 12 13  2  0
 15 14  1  1
 15 16  1  0
 15 17  1  0
 16  9  1  0
 17 18  2  0
 17 19  1  0
 19 20  1  0
 20 21  1  6
 20 23  1  0
 22 21  1  0
 23 25  1  0
 24 23  2  0
M  END
$$$$
