HNC.pdb
     RDKit          3D

 25 25  0  0  1  0  0  0  0  0999 V2000
   20.3030  -11.6067  -17.3462 N   0  0  0  0  0  0  0  0  0  0  0  0
   19.2012  -10.6953  -17.4994 C   0  0  1  0  0  0  0  0  0  0  0  0
   17.9335  -11.4594  -17.0958 C   0  0  0  0  0  0  0  0  0  0  0  0
   17.8278  -12.6116  -18.0369 C   0  0  0  0  0  0  0  0  0  0  0  0
   17.6434  -13.9600  -17.7142 C   0  0  0  0  0  0  0  0  0  0  0  0
   17.6003  -14.6791  -18.8419 N   0  0  0  0  0  0  0  0  0  0  0  0
   17.7498  -13.8449  -19.8747 C   0  0  0  0  0  0  0  0  0  0  0  0
   17.8871  -12.5953  -19.3863 N   0  0  0  0  0  0  0  0  0  0  0  0
   19.3341   -9.4843  -16.6710 C   0  0  0  0  0  0  0  0  0  0  0  0
   18.4222   -8.6218  -16.7487 O   0  0  0  0  0  0  0  0  0  0  0  0
   21.2031   -5.6997  -13.6628 N   0  0  0  0  0  0  0  0  0  0  0  0
   21.5204   -6.9227  -13.0404 C   0  0  0  0  0  0  0  0  0  0  0  0
   22.0222   -6.8946  -11.8889 O   0  0  0  0  0  0  0  0  0  0  0  0
   21.2528   -8.1785  -13.7600 C   0  0  0  0  0  0  0  0  0  0  0  0
   20.5857   -7.9802  -15.0937 C   0  0  2  0  0  0  0  0  0  0  0  0
   20.4327   -9.2396  -15.7927 N   0  0  0  0  0  0  0  0  0  0  0  0
   21.3506   -7.0105  -15.9401 C   0  0  0  0  0  0  0  0  0  0  0  0
   22.5223   -7.2548  -16.3236 O   0  0  0  0  0  0  0  0  0  0  0  0
   20.7751   -5.7788  -16.3385 N   0  0  0  0  0  0  0  0  0  0  0  0
   21.4810   -4.8405  -17.2217 C   0  0  1  0  0  0  0  0  0  0  0  0
   20.6442   -4.5134  -18.4349 C   0  0  0  0  0  0  0  0  0  0  0  0
   21.5622   -3.2876  -19.4075 S   0  0  0  0  0  0  0  0  0  0  0  0
   21.7106   -3.5886  -16.4595 C   0  0  0  0  0  0  0  0  0  0  0  0
   20.7964   -3.0149  -15.7976 O   0  0  0  0  0  0  0  0  0  0  0  0
   22.9569   -2.9817  -16.4380 O   0  0  0  0  0  0  0  0  0  0  0  0
  2  1  1  1
  3  2  1  0
  4  3  1  0
  4  8  1  0
  5  4  2  0
  6  5  1  0
  6  7  1  0
  7  8  2  0
  9  2  1  0
 10  9  2  0
 11 12  1  0
 12 14  1  0
 12 13  2  0
 15 14  1  1
 15 16  1  0
 15 17  1  0
 16  9  1  0
 17 18  2  0
 17 19  1  0
 19 20  1  0
 20 21  1  6
 20 23  1  0
 22 21  1  0
 23 25  1  0
 24 23  2  0
M  END
$$$$
