HNC.pdb
     RDKit          3D

 25 25  0  0  1  0  0  0  0  0999 V2000
   18.8585  -11.7710  -18.3613 N   0  0  0  0  0  0  0  0  0  0  0  0
   19.5682  -10.6910  -17.7306 C   0  0  1  0  0  0  0  0  0  0  0  0
   20.6843  -10.2699  -18.6954 C   0  0  0  0  0  0  0  0  0  0  0  0
   21.5150  -11.4873  -18.9236 C   0  0  0  0  0  0  0  0  0  0  0  0
   21.8598  -12.4699  -17.9898 C   0  0  0  0  0  0  0  0  0  0  0  0
   22.6163  -13.3975  -18.5879 N   0  0  0  0  0  0  0  0  0  0  0  0
   22.7702  -13.0485  -19.8683 C   0  0  0  0  0  0  0  0  0  0  0  0
   22.1037  -11.8933  -20.0696 N   0  0  0  0  0  0  0  0  0  0  0  0
   18.7091   -9.5322  -17.4315 C   0  0  0  0  0  0  0  0  0  0  0  0
   17.5591   -9.5124  -17.9400 O   0  0  0  0  0  0  0  0  0  0  0  0
   15.1221   -6.5736  -15.6372 N   0  0  0  0  0  0  0  0  0  0  0  0
   16.0636   -7.1882  -14.7888 C   0  0  0  0  0  0  0  0  0  0  0  0
   16.0396   -6.9049  -13.5650 O   0  0  0  0  0  0  0  0  0  0  0  0
   17.0330   -8.1329  -15.3667 C   0  0  0  0  0  0  0  0  0  0  0  0
   18.1561   -7.4654  -16.1127 C   0  0  2  0  0  0  0  0  0  0  0  0
   19.1085   -8.4404  -16.6029 N   0  0  0  0  0  0  0  0  0  0  0  0
   18.8491   -6.4550  -15.2523 C   0  0  0  0  0  0  0  0  0  0  0  0
   18.2146   -5.5332  -14.6802 O   0  0  0  0  0  0  0  0  0  0  0  0
   20.2509   -6.5054  -15.0537 N   0  0  0  0  0  0  0  0  0  0  0  0
   20.9501   -5.5374  -14.1977 C   0  0  1  0  0  0  0  0  0  0  0  0
   22.3072   -6.0612  -13.7938 C   0  0  0  0  0  0  0  0  0  0  0  0
   22.0711   -7.7529  -13.1825 S   0  0  0  0  0  0  0  0  0  0  0  0
   21.1427   -4.2948  -14.9850 C   0  0  0  0  0  0  0  0  0  0  0  0
   20.8417   -4.2104  -16.2119 O   0  0  0  0  0  0  0  0  0  0  0  0
   21.6696   -3.1524  -14.4024 O   0  0  0  0  0  0  0  0  0  0  0  0
  2  1  1  6
  3  2  1  0
  4  3  1  0
  4  8  1  0
  5  4  2  0
  6  5  1  0
  6  7  1  0
  7  8  2  0
  9  2  1  0
 10  9  2  0
 11 12  1  0
 12 14  1  0
 12 13  2  0
 15 14  1  1
 15 16  1  0
 15 17  1  0
 16  9  1  0
 17 18  2  0
 17 19  1  0
 19 20  1  0
 20 21  1  6
 20 23  1  0
 22 21  1  0
 23 25  1  0
 24 23  2  0
M  END
$$$$
