HNC.pdb
     RDKit          3D

 25 25  0  0  1  0  0  0  0  0999 V2000
   24.2239  -11.4109  -17.5602 N   0  0  0  0  0  0  0  0  0  0  0  0
   24.1810  -10.6028  -16.3715 C   0  0  1  0  0  0  0  0  0  0  0  0
   25.5362   -9.8908  -16.2695 C   0  0  0  0  0  0  0  0  0  0  0  0
   26.5546  -10.9644  -16.0831 C   0  0  0  0  0  0  0  0  0  0  0  0
   26.3623  -12.2324  -15.5252 C   0  0  0  0  0  0  0  0  0  0  0  0
   27.5230  -12.8981  -15.5379 N   0  0  0  0  0  0  0  0  0  0  0  0
   28.4519  -12.1068  -16.0819 C   0  0  0  0  0  0  0  0  0  0  0  0
   27.8647  -10.9380  -16.4110 N   0  0  0  0  0  0  0  0  0  0  0  0
   23.0976   -9.6047  -16.3904 C   0  0  0  0  0  0  0  0  0  0  0  0
   22.9286   -8.9477  -17.4494 O   0  0  0  0  0  0  0  0  0  0  0  0
   19.6800  -10.3959  -16.6543 N   0  0  0  0  0  0  0  0  0  0  0  0
   19.2089  -10.0120  -15.3836 C   0  0  0  0  0  0  0  0  0  0  0  0
   18.1962  -10.5943  -14.9209 O   0  0  0  0  0  0  0  0  0  0  0  0
   19.9180   -8.9496  -14.6523 C   0  0  0  0  0  0  0  0  0  0  0  0
   21.1262   -8.4209  -15.3761 C   0  0  2  0  0  0  0  0  0  0  0  0
   22.2371   -9.3456  -15.2811 N   0  0  0  0  0  0  0  0  0  0  0  0
   21.5263   -7.0784  -14.8477 C   0  0  0  0  0  0  0  0  0  0  0  0
   22.0312   -6.9459  -13.7044 O   0  0  0  0  0  0  0  0  0  0  0  0
   21.3477   -5.9067  -15.6239 N   0  0  0  0  0  0  0  0  0  0  0  0
   21.7829   -4.5860  -15.1494 C   0  0  1  0  0  0  0  0  0  0  0  0
   22.7514   -3.9590  -16.1231 C   0  0  0  0  0  0  0  0  0  0  0  0
   23.1707   -2.3146  -15.4815 S   0  0  0  0  0  0  0  0  0  0  0  0
   20.5818   -3.7200  -15.0599 C   0  0  0  0  0  0  0  0  0  0  0  0
   19.6383   -3.7719  -15.9026 O   0  0  0  0  0  0  0  0  0  0  0  0
   20.4369   -2.8004  -14.0325 O   0  0  0  0  0  0  0  0  0  0  0  0
  2  1  1  6
  3  2  1  0
  4  3  1  0
  4  8  1  0
  5  4  2  0
  6  5  1  0
  6  7  1  0
  7  8  2  0
  9  2  1  0
 10  9  2  0
 11 12  1  0
 12 14  1  0
 12 13  2  0
 15 14  1  1
 15 16  1  0
 15 17  1  0
 16  9  1  0
 17 18  2  0
 17 19  1  0
 19 20  1  0
 20 21  1  6
 20 23  1  0
 22 21  1  0
 23 25  1  0
 24 23  2  0
M  END
$$$$
