HNC.pdb
     RDKit          3D

 25 25  0  0  1  0  0  0  0  0999 V2000
   15.1289  -10.6593  -14.9553 N   0  0  0  0  0  0  0  0  0  0  0  0
   16.4228  -10.5435  -14.3388 C   0  0  1  0  0  0  0  0  0  0  0  0
   17.4569  -10.9466  -15.3979 C   0  0  0  0  0  0  0  0  0  0  0  0
   17.3359  -12.4251  -15.5527 C   0  0  0  0  0  0  0  0  0  0  0  0
   16.8949  -13.1299  -16.6773 C   0  0  0  0  0  0  0  0  0  0  0  0
   16.9330  -14.4417  -16.4158 N   0  0  0  0  0  0  0  0  0  0  0  0
   17.3811  -14.6056  -15.1679 C   0  0  0  0  0  0  0  0  0  0  0  0
   17.6243  -13.3854  -14.6475 N   0  0  0  0  0  0  0  0  0  0  0  0
   16.7131   -9.1821  -13.8565 C   0  0  0  0  0  0  0  0  0  0  0  0
   16.4869   -8.2252  -14.6406 O   0  0  0  0  0  0  0  0  0  0  0  0
   16.4625   -4.9254  -10.1912 N   0  0  0  0  0  0  0  0  0  0  0  0
   17.3656   -6.0060  -10.1636 C   0  0  0  0  0  0  0  0  0  0  0  0
   18.4948   -5.8277   -9.6423 O   0  0  0  0  0  0  0  0  0  0  0  0
   16.9526   -7.2942  -10.7434 C   0  0  0  0  0  0  0  0  0  0  0  0
   17.4951   -7.5363  -12.1255 C   0  0  2  0  0  0  0  0  0  0  0  0
   17.2326   -8.8934  -12.5585 N   0  0  0  0  0  0  0  0  0  0  0  0
   18.9636   -7.2508  -12.1858 C   0  0  0  0  0  0  0  0  0  0  0  0
   19.7974   -7.9638  -11.5726 O   0  0  0  0  0  0  0  0  0  0  0  0
   19.4640   -6.1612  -12.9404 N   0  0  0  0  0  0  0  0  0  0  0  0
   20.9037   -5.9592  -13.1535 C   0  0  1  0  0  0  0  0  0  0  0  0
   21.4003   -6.8077  -14.2992 C   0  0  0  0  0  0  0  0  0  0  0  0
   21.5883   -8.5002  -13.6735 S   0  0  0  0  0  0  0  0  0  0  0  0
   21.1128   -4.5324  -13.5020 C   0  0  0  0  0  0  0  0  0  0  0  0
   20.1591   -3.7568  -13.8052 O   0  0  0  0  0  0  0  0  0  0  0  0
   22.3827   -3.9762  -13.5113 O   0  0  0  0  0  0  0  0  0  0  0  0
  2  1  1  6
  3  2  1  0
  4  3  1  0
  4  8  1  0
  5  4  2  0
  6  5  1  0
  6  7  1  0
  7  8  2  0
  9  2  1  0
 10  9  2  0
 11 12  1  0
 12 14  1  0
 12 13  2  0
 15 14  1  1
 15 16  1  0
 15 17  1  0
 16  9  1  0
 17 18  2  0
 17 19  1  0
 19 20  1  0
 20 21  1  6
 20 23  1  0
 22 21  1  0
 23 25  1  0
 24 23  2  0
M  END
$$$$
