HNC.pdb
     RDKit          3D

 25 25  0  0  1  0  0  0  0  0999 V2000
   16.2712  -16.9867  -18.2484 N   0  0  0  0  0  0  0  0  0  0  0  0
   16.4934  -15.9082  -17.3235 C   0  0  1  0  0  0  0  0  0  0  0  0
   17.3526  -16.4707  -16.1838 C   0  0  0  0  0  0  0  0  0  0  0  0
   16.5098  -17.4901  -15.4946 C   0  0  0  0  0  0  0  0  0  0  0  0
   15.1418  -17.4143  -15.2135 C   0  0  0  0  0  0  0  0  0  0  0  0
   14.7606  -18.5319  -14.5841 N   0  0  0  0  0  0  0  0  0  0  0  0
   15.8302  -19.3212  -14.4506 C   0  0  0  0  0  0  0  0  0  0  0  0
   16.8870  -18.6898  -15.0016 N   0  0  0  0  0  0  0  0  0  0  0  0
   17.1758  -14.7545  -17.9349 C   0  0  0  0  0  0  0  0  0  0  0  0
   17.6935  -14.9174  -19.0693 O   0  0  0  0  0  0  0  0  0  0  0  0
   17.1901  -10.4263  -21.1283 N   0  0  0  0  0  0  0  0  0  0  0  0
   17.9462  -11.0825  -20.1375 C   0  0  0  0  0  0  0  0  0  0  0  0
   19.1288  -10.7062  -19.9413 O   0  0  0  0  0  0  0  0  0  0  0  0
   17.3240  -12.1773  -19.3755 C   0  0  0  0  0  0  0  0  0  0  0  0
   17.8856  -12.3441  -17.9898 C   0  0  2  0  0  0  0  0  0  0  0  0
   17.2799  -13.4731  -17.3141 N   0  0  0  0  0  0  0  0  0  0  0  0
   17.7009  -11.0987  -17.1798 C   0  0  0  0  0  0  0  0  0  0  0  0
   16.5670  -10.7432  -16.7704 O   0  0  0  0  0  0  0  0  0  0  0  0
   18.8046  -10.2754  -16.8464 N   0  0  0  0  0  0  0  0  0  0  0  0
   18.6508   -9.0598  -16.0357 C   0  0  1  0  0  0  0  0  0  0  0  0
   19.9901   -8.5788  -15.5314 C   0  0  0  0  0  0  0  0  0  0  0  0
   20.4710   -9.6657  -14.1606 S   0  0  0  0  0  0  0  0  0  0  0  0
   18.0721   -8.0068  -16.9057 C   0  0  0  0  0  0  0  0  0  0  0  0
   18.0649   -8.0927  -18.1689 O   0  0  0  0  0  0  0  0  0  0  0  0
   17.5043   -6.8633  -16.3652 O   0  0  0  0  0  0  0  0  0  0  0  0
  2  1  1  6
  3  2  1  0
  4  3  1  0
  4  8  1  0
  5  4  2  0
  6  5  1  0
  6  7  1  0
  7  8  2  0
  9  2  1  0
 10  9  2  0
 11 12  1  0
 12 14  1  0
 12 13  2  0
 15 14  1  6
 15 16  1  0
 15 17  1  0
 16  9  1  0
 17 18  2  0
 17 19  1  0
 19 20  1  0
 20 21  1  6
 20 23  1  0
 22 21  1  0
 23 25  1  0
 24 23  2  0
M  END
$$$$
