HNC.pdb
     RDKit          3D

 25 25  0  0  1  0  0  0  0  0999 V2000
   23.3735  -18.6656  -19.6643 N   0  0  0  0  0  0  0  0  0  0  0  0
   23.7565  -17.2796  -19.6469 C   0  0  1  0  0  0  0  0  0  0  0  0
   24.5354  -17.0179  -20.9425 C   0  0  0  0  0  0  0  0  0  0  0  0
   25.6884  -17.9639  -20.9302 C   0  0  0  0  0  0  0  0  0  0  0  0
   25.8754  -19.0884  -21.7407 C   0  0  0  0  0  0  0  0  0  0  0  0
   27.0360  -19.6722  -21.4201 N   0  0  0  0  0  0  0  0  0  0  0  0
   27.6004  -18.9665  -20.4361 C   0  0  0  0  0  0  0  0  0  0  0  0
   26.7843  -17.9340  -20.1411 N   0  0  0  0  0  0  0  0  0  0  0  0
   22.6055  -16.3634  -19.5677 C   0  0  0  0  0  0  0  0  0  0  0  0
   21.6041  -16.7411  -18.9075 O   0  0  0  0  0  0  0  0  0  0  0  0
   19.3298  -12.4994  -19.4588 N   0  0  0  0  0  0  0  0  0  0  0  0
   20.1171  -12.8971  -18.3606 C   0  0  0  0  0  0  0  0  0  0  0  0
   19.8087  -12.4719  -17.2192 O   0  0  0  0  0  0  0  0  0  0  0  0
   21.2636  -13.7903  -18.5927 C   0  0  0  0  0  0  0  0  0  0  0  0
   21.4390  -14.1864  -20.0334 C   0  0  2  0  0  0  0  0  0  0  0  0
   22.5665  -15.0813  -20.1946 N   0  0  0  0  0  0  0  0  0  0  0  0
   21.6076  -12.9821  -20.9068 C   0  0  0  0  0  0  0  0  0  0  0  0
   22.3716  -12.0378  -20.5838 O   0  0  0  0  0  0  0  0  0  0  0  0
   20.9074  -12.8671  -22.1329 N   0  0  0  0  0  0  0  0  0  0  0  0
   21.4790  -12.1682  -23.2921 C   0  0  1  0  0  0  0  0  0  0  0  0
   20.7988  -12.6016  -24.5683 C   0  0  0  0  0  0  0  0  0  0  0  0
   21.1170  -14.3761  -24.7720 S   0  0  0  0  0  0  0  0  0  0  0  0
   21.2429  -10.7156  -23.1052 C   0  0  0  0  0  0  0  0  0  0  0  0
   21.6578   -9.8454  -23.9259 O   0  0  0  0  0  0  0  0  0  0  0  0
   20.5461  -10.2390  -22.0055 O   0  0  0  0  0  0  0  0  0  0  0  0
  2  1  1  6
  3  2  1  0
  4  3  1  0
  4  8  1  0
  5  4  2  0
  6  5  1  0
  6  7  1  0
  7  8  2  0
  9  2  1  0
 10  9  2  0
 11 12  1  0
 12 14  1  0
 12 13  2  0
 15 14  1  1
 15 16  1  0
 15 17  1  0
 16  9  1  0
 17 18  2  0
 17 19  1  0
 19 20  1  0
 20 21  1  6
 20 23  1  0
 22 21  1  0
 23 25  1  0
 24 23  2  0
M  END
$$$$
