HNC.pdb
     RDKit          3D

 25 25  0  0  1  0  0  0  0  0999 V2000
   22.2150  -12.6169  -17.5740 N   0  0  0  0  0  0  0  0  0  0  0  0
   22.8944  -11.4905  -16.9930 C   0  0  1  0  0  0  0  0  0  0  0  0
   24.1031  -11.1906  -17.8890 C   0  0  0  0  0  0  0  0  0  0  0  0
   25.0707  -12.3031  -17.6644 C   0  0  0  0  0  0  0  0  0  0  0  0
   25.0950  -13.2078  -16.5980 C   0  0  0  0  0  0  0  0  0  0  0  0
   26.1192  -14.0530  -16.7628 N   0  0  0  0  0  0  0  0  0  0  0  0
   26.7526  -13.7258  -17.8927 C   0  0  0  0  0  0  0  0  0  0  0  0
   26.1173  -12.6677  -18.4366 N   0  0  0  0  0  0  0  0  0  0  0  0
   22.0435  -10.2921  -16.8922 C   0  0  0  0  0  0  0  0  0  0  0  0
   21.7560   -9.6898  -17.9580 O   0  0  0  0  0  0  0  0  0  0  0  0
   17.9590  -10.7993  -15.0456 N   0  0  0  0  0  0  0  0  0  0  0  0
   18.5177   -9.6743  -15.6828 C   0  0  0  0  0  0  0  0  0  0  0  0
   18.2157   -9.4559  -16.8827 O   0  0  0  0  0  0  0  0  0  0  0  0
   19.4284   -8.8038  -14.9217 C   0  0  0  0  0  0  0  0  0  0  0  0
   20.7479   -8.5661  -15.6040 C   0  0  2  0  0  0  0  0  0  0  0  0
   21.5325   -9.7824  -15.6604 N   0  0  0  0  0  0  0  0  0  0  0  0
   21.5224   -7.4842  -14.9177 C   0  0  0  0  0  0  0  0  0  0  0  0
   22.0955   -7.6834  -13.8169 O   0  0  0  0  0  0  0  0  0  0  0  0
   21.6353   -6.1932  -15.4899 N   0  0  0  0  0  0  0  0  0  0  0  0
   22.5083   -5.1612  -14.9140 C   0  0  1  0  0  0  0  0  0  0  0  0
   23.0090   -4.2234  -15.9859 C   0  0  0  0  0  0  0  0  0  0  0  0
   23.8756   -5.2310  -17.2208 S   0  0  0  0  0  0  0  0  0  0  0  0
   21.7032   -4.3780  -13.9449 C   0  0  0  0  0  0  0  0  0  0  0  0
   20.4543   -4.5358  -13.8098 O   0  0  0  0  0  0  0  0  0  0  0  0
   22.2926   -3.4228  -13.1309 O   0  0  0  0  0  0  0  0  0  0  0  0
  2  1  1  6
  3  2  1  0
  4  3  1  0
  4  8  1  0
  5  4  2  0
  6  5  1  0
  6  7  1  0
  7  8  2  0
  9  2  1  0
 10  9  2  0
 11 12  1  0
 12 14  1  0
 12 13  2  0
 15 14  1  1
 15 16  1  0
 15 17  1  0
 16  9  1  0
 17 18  2  0
 17 19  1  0
 19 20  1  0
 20 21  1  6
 20 23  1  0
 22 21  1  0
 23 25  1  0
 24 23  2  0
M  END
$$$$
