HNC.pdb
     RDKit          3D

 25 25  0  0  1  0  0  0  0  0999 V2000
   28.9274  -21.1921  -17.9652 N   0  0  0  0  0  0  0  0  0  0  0  0
   28.1415  -21.9202  -17.0059 C   0  0  1  0  0  0  0  0  0  0  0  0
   29.1262  -22.7048  -16.1293 C   0  0  0  0  0  0  0  0  0  0  0  0
   29.7313  -23.7423  -17.0135 C   0  0  0  0  0  0  0  0  0  0  0  0
   29.0726  -24.7762  -17.6869 C   0  0  0  0  0  0  0  0  0  0  0  0
   29.9688  -25.4921  -18.3759 N   0  0  0  0  0  0  0  0  0  0  0  0
   31.1761  -24.9580  -18.1709 C   0  0  0  0  0  0  0  0  0  0  0  0
   31.0307  -23.9001  -17.3469 N   0  0  0  0  0  0  0  0  0  0  0  0
   27.3110  -21.0474  -16.1581 C   0  0  0  0  0  0  0  0  0  0  0  0
   27.8968  -20.1671  -15.4774 O   0  0  0  0  0  0  0  0  0  0  0  0
   23.5671  -18.3824  -13.9145 N   0  0  0  0  0  0  0  0  0  0  0  0
   23.2336  -18.6114  -15.2637 C   0  0  0  0  0  0  0  0  0  0  0  0
   22.2790  -17.9635  -15.7614 O   0  0  0  0  0  0  0  0  0  0  0  0
   24.0125  -19.5954  -16.0327 C   0  0  0  0  0  0  0  0  0  0  0  0
   25.1120  -20.2481  -15.2402 C   0  0  2  0  0  0  0  0  0  0  0  0
   25.8896  -21.1465  -16.0688 N   0  0  0  0  0  0  0  0  0  0  0  0
   24.5610  -20.9838  -14.0584 C   0  0  0  0  0  0  0  0  0  0  0  0
   23.8673  -22.0228  -14.1960 O   0  0  0  0  0  0  0  0  0  0  0  0
   24.8050  -20.5301  -12.7386 N   0  0  0  0  0  0  0  0  0  0  0  0
   24.2573  -21.2232  -11.5646 C   0  0  1  0  0  0  0  0  0  0  0  0
   24.9508  -20.7698  -10.3026 C   0  0  0  0  0  0  0  0  0  0  0  0
   26.7178  -21.1306  -10.5001 S   0  0  0  0  0  0  0  0  0  0  0  0
   22.8199  -20.8708  -11.4618 C   0  0  0  0  0  0  0  0  0  0  0  0
   22.2685  -20.0238  -12.2244 O   0  0  0  0  0  0  0  0  0  0  0  0
   22.0036  -21.4630  -10.5105 O   0  0  0  0  0  0  0  0  0  0  0  0
  2  1  1  6
  3  2  1  0
  4  3  1  0
  4  8  1  0
  5  4  2  0
  6  5  1  0
  6  7  1  0
  7  8  2  0
  9  2  1  0
 10  9  2  0
 11 12  1  0
 12 14  1  0
 12 13  2  0
 15 14  1  6
 15 16  1  0
 15 17  1  0
 16  9  1  0
 17 18  2  0
 17 19  1  0
 19 20  1  0
 20 21  1  1
 20 23  1  0
 22 21  1  0
 23 25  1  0
 24 23  2  0
M  END
$$$$
