HNC.pdb
     RDKit          3D

 25 25  0  0  1  0  0  0  0  0999 V2000
   18.8838  -11.9389  -18.1713 N   0  0  0  0  0  0  0  0  0  0  0  0
   20.2480  -11.7648  -17.7512 C   0  0  1  0  0  0  0  0  0  0  0  0
   21.1194  -12.5612  -18.7309 C   0  0  0  0  0  0  0  0  0  0  0  0
   20.6590  -13.9768  -18.6374 C   0  0  0  0  0  0  0  0  0  0  0  0
   20.2948  -14.8245  -19.6886 C   0  0  0  0  0  0  0  0  0  0  0  0
   19.9413  -16.0149  -19.1899 N   0  0  0  0  0  0  0  0  0  0  0  0
   20.0645  -15.9637  -17.8606 C   0  0  0  0  0  0  0  0  0  0  0  0
   20.4985  -14.7307  -17.5282 N   0  0  0  0  0  0  0  0  0  0  0  0
   20.6742  -10.3546  -17.7433 C   0  0  0  0  0  0  0  0  0  0  0  0
   21.8680  -10.1081  -17.4342 O   0  0  0  0  0  0  0  0  0  0  0  0
   20.8482   -8.2081  -20.7546 N   0  0  0  0  0  0  0  0  0  0  0  0
   19.8211   -7.2960  -20.4433 C   0  0  0  0  0  0  0  0  0  0  0  0
   19.2228   -6.7243  -21.3888 O   0  0  0  0  0  0  0  0  0  0  0  0
   19.4912   -7.0502  -19.0302 C   0  0  0  0  0  0  0  0  0  0  0  0
   20.2842   -7.8932  -18.0691 C   0  0  2  0  0  0  0  0  0  0  0  0
   19.8125   -9.2627  -18.0648 N   0  0  0  0  0  0  0  0  0  0  0  0
   20.2323   -7.3256  -16.6847 C   0  0  0  0  0  0  0  0  0  0  0  0
   19.1636   -7.3024  -16.0236 O   0  0  0  0  0  0  0  0  0  0  0  0
   21.3929   -6.7931  -16.0711 N   0  0  0  0  0  0  0  0  0  0  0  0
   21.3679   -6.2371  -14.7113 C   0  0  1  0  0  0  0  0  0  0  0  0
   22.2037   -7.0751  -13.7741 C   0  0  0  0  0  0  0  0  0  0  0  0
   22.2250   -6.2290  -12.1694 S   0  0  0  0  0  0  0  0  0  0  0  0
   21.9526   -4.8749  -14.7695 C   0  0  0  0  0  0  0  0  0  0  0  0
   22.9115   -4.5760  -15.5404 O   0  0  0  0  0  0  0  0  0  0  0  0
   21.4669   -3.8523  -13.9693 O   0  0  0  0  0  0  0  0  0  0  0  0
  2  1  1  6
  3  2  1  0
  4  3  1  0
  4  8  1  0
  5  4  2  0
  6  5  1  0
  6  7  1  0
  7  8  2  0
  9  2  1  0
 10  9  2  0
 11 12  1  0
 12 14  1  0
 12 13  2  0
 15 14  1  6
 15 16  1  0
 15 17  1  0
 16  9  1  0
 17 18  2  0
 17 19  1  0
 19 20  1  0
 20 21  1  1
 20 23  1  0
 22 21  1  0
 23 25  1  0
 24 23  2  0
M  END
$$$$
