HNC.pdb
     RDKit          3D

 25 25  0  0  1  0  0  0  0  0999 V2000
   17.4044  -14.1465  -18.5992 N   0  0  0  0  0  0  0  0  0  0  0  0
   17.9174  -13.4169  -17.4713 C   0  0  1  0  0  0  0  0  0  0  0  0
   18.9787  -14.3074  -16.8120 C   0  0  0  0  0  0  0  0  0  0  0  0
   18.2689  -15.5458  -16.3796 C   0  0  0  0  0  0  0  0  0  0  0  0
   17.2815  -15.6614  -15.3959 C   0  0  0  0  0  0  0  0  0  0  0  0
   16.8980  -16.9403  -15.3072 N   0  0  0  0  0  0  0  0  0  0  0  0
   17.6007  -17.6492  -16.1953 C   0  0  0  0  0  0  0  0  0  0  0  0
   18.4291  -16.8045  -16.8428 N   0  0  0  0  0  0  0  0  0  0  0  0
   18.5181  -12.1244  -17.8442 C   0  0  0  0  0  0  0  0  0  0  0  0
   18.8311  -11.9533  -19.0501 O   0  0  0  0  0  0  0  0  0  0  0  0
   17.7095   -6.8609  -19.2000 N   0  0  0  0  0  0  0  0  0  0  0  0
   18.6732   -7.7874  -18.7565 C   0  0  0  0  0  0  0  0  0  0  0  0
   19.8861   -7.4668  -18.8248 O   0  0  0  0  0  0  0  0  0  0  0  0
   18.2233   -9.0875  -18.2334 C   0  0  0  0  0  0  0  0  0  0  0  0
   19.2351   -9.7665  -17.3511 C   0  0  2  0  0  0  0  0  0  0  0  0
   18.7616  -11.0653  -16.9184 N   0  0  0  0  0  0  0  0  0  0  0  0
   19.5705   -8.9183  -16.1639 C   0  0  0  0  0  0  0  0  0  0  0  0
   18.6812   -8.5126  -15.3738 O   0  0  0  0  0  0  0  0  0  0  0  0
   20.9090   -8.5431  -15.8908 N   0  0  0  0  0  0  0  0  0  0  0  0
   21.2737   -7.7862  -14.6854 C   0  0  1  0  0  0  0  0  0  0  0  0
   22.7502   -7.9152  -14.3978 C   0  0  0  0  0  0  0  0  0  0  0  0
   23.0415   -9.6135  -13.8301 S   0  0  0  0  0  0  0  0  0  0  0  0
   20.9691   -6.3569  -14.9403 C   0  0  0  0  0  0  0  0  0  0  0  0
   21.1484   -5.8113  -16.0686 O   0  0  0  0  0  0  0  0  0  0  0  0
   20.4665   -5.5420  -13.9376 O   0  0  0  0  0  0  0  0  0  0  0  0
  2  1  1  6
  3  2  1  0
  4  3  1  0
  4  8  1  0
  5  4  2  0
  6  5  1  0
  6  7  1  0
  7  8  2  0
  9  2  1  0
 10  9  2  0
 11 12  1  0
 12 14  1  0
 12 13  2  0
 15 14  1  1
 15 16  1  0
 15 17  1  0
 16  9  1  0
 17 18  2  0
 17 19  1  0
 19 20  1  0
 20 21  1  6
 20 23  1  0
 22 21  1  0
 23 25  1  0
 24 23  2  0
M  END
$$$$
