GYR.pdb
     RDKit          3D

 28 28  0  0  1  0  0  0  0  0999 V2000
    9.6138  -14.8837   17.9285 N   0  0  0  0  0  0  0  0  0  0  0  0
    8.7800  -15.4271   18.9400 C   0  0  0  0  0  0  0  0  0  0  0  0
    8.9521  -14.7791   20.2679 C   0  0  0  0  0  0  0  0  0  0  0  0
   10.1049  -14.4610   20.6530 O   0  0  0  0  0  0  0  0  0  0  0  0
    7.0112  -12.3225   28.6759 O   0  0  0  0  0  0  0  0  0  0  0  0
    6.9668  -12.5861   27.3008 C   0  0  0  0  0  0  0  0  0  0  0  0
    7.6460  -11.7858   26.4121 C   0  0  0  0  0  0  0  0  0  0  0  0
    7.6068  -12.0402   25.0572 C   0  0  0  0  0  0  0  0  0  0  0  0
    6.8931  -13.0987   24.5224 C   0  0  0  0  0  0  0  0  0  0  0  0
    6.8737  -13.3561   23.0650 C   0  0  0  0  0  0  0  0  0  0  0  0
    8.0602  -14.0761   22.5294 C   0  0  2  0  0  0  0  0  0  0  0  0
    7.8766  -14.4943   21.1390 N   0  0  0  0  0  0  0  0  0  0  0  0
    8.5348  -15.2152   23.3444 C   0  0  0  0  0  0  0  0  0  0  0  0
    7.8375  -16.2845   23.4577 O   0  0  0  0  0  0  0  0  0  0  0  0
    6.2181  -13.8914   25.4211 C   0  0  0  0  0  0  0  0  0  0  0  0
    6.2492  -13.6461   26.7899 C   0  0  0  0  0  0  0  0  0  0  0  0
   13.5634  -14.2249   19.4316 N   0  0  0  0  0  0  0  0  0  0  0  0
   13.7631  -14.7886   20.7161 C   0  0  0  0  0  0  0  0  0  0  0  0
   14.9244  -14.6364   21.2733 N   0  0  0  0  0  0  0  0  0  0  0  0
   12.7055  -15.4933   21.3500 N   0  0  0  0  0  0  0  0  0  0  0  0
   13.0217  -16.5612   22.2738 C   0  0  0  0  0  0  0  0  0  0  0  0
   11.7474  -17.1565   22.8793 C   0  0  0  0  0  0  0  0  0  0  0  0
   11.6245  -16.6920   24.2850 C   0  0  0  0  0  0  0  0  0  0  0  0
   10.2069  -16.4441   24.7557 C   0  0  2  0  0  0  0  0  0  0  0  0
    9.7719  -15.2202   24.0469 N   0  0  0  0  0  0  0  0  0  0  0  0
   10.2436  -16.1988   26.2151 C   0  0  0  0  0  0  0  0  0  0  0  0
   10.3994  -17.3047   27.0559 O   0  0  0  0  0  0  0  0  0  0  0  0
   10.1446  -15.0732   26.7483 O   0  0  0  0  0  0  0  0  0  0  0  0
  2  1  1  0
  3  2  1  0
  4  3  2  0
  6 16  2  0
  6  5  1  0
  7  6  1  0
  8  9  1  0
  8  7  2  0
  9 15  2  0
 10  9  1  0
 11 10  1  1
 11 12  1  0
 12  3  1  0
 13 25  1  0
 13 11  1  0
 14 13  2  0
 15 16  1  0
 18 19  2  0
 18 17  1  0
 20 18  1  0
 21 20  1  0
 22 21  1  0
 23 22  1  0
 24 23  1  6
 24 25  1  0
 26 27  1  0
 26 24  1  0
 28 26  2  0
M  END
$$$$
