GYR.pdb
     RDKit          3D

 28 28  0  0  1  0  0  0  0  0999 V2000
    7.0718  -19.0401   26.7139 N   0  0  0  0  0  0  0  0  0  0  0  0
    6.2068  -18.5994   25.6789 C   0  0  0  0  0  0  0  0  0  0  0  0
    6.6480  -17.3361   25.0291 C   0  0  0  0  0  0  0  0  0  0  0  0
    5.9066  -16.7926   24.1728 O   0  0  0  0  0  0  0  0  0  0  0  0
    4.9302  -11.3375   28.0293 O   0  0  0  0  0  0  0  0  0  0  0  0
    5.9113  -12.1156   27.4015 C   0  0  0  0  0  0  0  0  0  0  0  0
    6.0288  -12.1226   26.0312 C   0  0  0  0  0  0  0  0  0  0  0  0
    6.9929  -12.8861   25.4070 C   0  0  0  0  0  0  0  0  0  0  0  0
    7.8835  -13.6766   26.1125 C   0  0  0  0  0  0  0  0  0  0  0  0
    8.9153  -14.4806   25.4198 C   0  0  0  0  0  0  0  0  0  0  0  0
    8.3962  -15.5702   24.5501 C   0  0  2  0  0  0  0  0  0  0  0  0
    7.8742  -16.6982   25.3226 N   0  0  0  0  0  0  0  0  0  0  0  0
    9.3304  -16.0547   23.5109 C   0  0  0  0  0  0  0  0  0  0  0  0
   10.0331  -17.1109   23.6927 O   0  0  0  0  0  0  0  0  0  0  0  0
    7.7558  -13.6613   27.4818 C   0  0  0  0  0  0  0  0  0  0  0  0
    6.7881  -12.8959   28.1240 C   0  0  0  0  0  0  0  0  0  0  0  0
    8.1989  -15.6814   16.8536 N   0  0  0  0  0  0  0  0  0  0  0  0
    8.0613  -14.2951   17.1124 C   0  0  0  0  0  0  0  0  0  0  0  0
    8.4689  -13.4634   16.2046 N   0  0  0  0  0  0  0  0  0  0  0  0
    7.4904  -13.8591   18.3376 N   0  0  0  0  0  0  0  0  0  0  0  0
    7.9746  -14.4182   19.5813 C   0  0  0  0  0  0  0  0  0  0  0  0
    8.9901  -15.5345   19.3210 C   0  0  0  0  0  0  0  0  0  0  0  0
   10.2618  -15.1930   20.0088 C   0  0  0  0  0  0  0  0  0  0  0  0
   10.5126  -15.9427   21.3001 C   0  0  2  0  0  0  0  0  0  0  0  0
    9.5179  -15.4093   22.2571 N   0  0  0  0  0  0  0  0  0  0  0  0
   11.8822  -15.6202   21.7601 C   0  0  0  0  0  0  0  0  0  0  0  0
   12.9525  -16.0907   20.9937 O   0  0  0  0  0  0  0  0  0  0  0  0
   12.1491  -14.9578   22.7853 O   0  0  0  0  0  0  0  0  0  0  0  0
  2  1  1  0
  3  2  1  0
  4  3  2  0
  6 16  2  0
  6  5  1  0
  7  6  1  0
  8  9  1  0
  8  7  2  0
  9 15  2  0
 10  9  1  0
 11 10  1  1
 11 12  1  0
 12  3  1  0
 13 25  1  0
 13 11  1  0
 14 13  2  0
 15 16  1  0
 18 19  2  0
 18 17  1  0
 20 18  1  0
 21 20  1  0
 22 21  1  0
 23 22  1  0
 24 23  1  6
 24 25  1  0
 26 27  1  0
 26 24  1  0
 28 26  2  0
M  END
$$$$
