GYR.pdb
     RDKit          3D

 28 28  0  0  1  0  0  0  0  0999 V2000
    5.4824  -22.8403   26.4334 N   0  0  0  0  0  0  0  0  0  0  0  0
    5.7798  -21.5400   26.9176 C   0  0  0  0  0  0  0  0  0  0  0  0
    6.7985  -20.8195   26.1076 C   0  0  0  0  0  0  0  0  0  0  0  0
    7.7453  -21.4654   25.5929 O   0  0  0  0  0  0  0  0  0  0  0  0
    3.8171  -19.0514   19.9972 O   0  0  0  0  0  0  0  0  0  0  0  0
    4.6440  -18.6931   21.0697 C   0  0  0  0  0  0  0  0  0  0  0  0
    6.0007  -18.5537   20.8918 C   0  0  0  0  0  0  0  0  0  0  0  0
    6.8201  -18.2006   21.9434 C   0  0  0  0  0  0  0  0  0  0  0  0
    6.3321  -17.9700   23.2179 C   0  0  0  0  0  0  0  0  0  0  0  0
    7.2312  -17.5836   24.3284 C   0  0  0  0  0  0  0  0  0  0  0  0
    7.7922  -18.7137   25.1165 C   0  0  2  0  0  0  0  0  0  0  0  0
    6.7648  -19.4258   25.8775 N   0  0  0  0  0  0  0  0  0  0  0  0
    8.9314  -18.3728   25.9959 C   0  0  0  0  0  0  0  0  0  0  0  0
    8.7829  -17.5866   26.9970 O   0  0  0  0  0  0  0  0  0  0  0  0
    4.9742  -18.1128   23.3831 C   0  0  0  0  0  0  0  0  0  0  0  0
    4.1364  -18.4682   22.3311 C   0  0  0  0  0  0  0  0  0  0  0  0
   12.3049  -21.2522   31.8609 N   0  0  0  0  0  0  0  0  0  0  0  0
   13.4791  -20.5353   31.5217 C   0  0  0  0  0  0  0  0  0  0  0  0
   14.6243  -21.0900   31.7725 N   0  0  0  0  0  0  0  0  0  0  0  0
   13.3742  -19.2503   30.9260 N   0  0  0  0  0  0  0  0  0  0  0  0
   12.2161  -18.9393   30.1162 C   0  0  0  0  0  0  0  0  0  0  0  0
   12.2505  -19.7094   28.7930 C   0  0  0  0  0  0  0  0  0  0  0  0
   11.0456  -19.3520   28.0010 C   0  0  0  0  0  0  0  0  0  0  0  0
   11.3145  -18.5126   26.7699 C   0  0  2  0  0  0  0  0  0  0  0  0
   10.2483  -18.8783   25.8112 N   0  0  0  0  0  0  0  0  0  0  0  0
   12.6370  -18.9002   26.2294 C   0  0  0  0  0  0  0  0  0  0  0  0
   13.7660  -18.2702   26.7610 O   0  0  0  0  0  0  0  0  0  0  0  0
   12.8152  -19.7502   25.3311 O   0  0  0  0  0  0  0  0  0  0  0  0
  2  1  1  0
  3  2  1  0
  4  3  2  0
  6 16  2  0
  6  5  1  0
  7  6  1  0
  8  9  1  0
  8  7  2  0
  9 15  2  0
 10  9  1  0
 11 10  1  1
 11 12  1  0
 12  3  1  0
 13 25  1  0
 13 11  1  0
 14 13  2  0
 15 16  1  0
 18 19  2  0
 18 17  1  0
 20 18  1  0
 21 20  1  0
 22 21  1  0
 23 22  1  0
 24 23  1  1
 24 25  1  0
 26 27  1  0
 26 24  1  0
 28 26  2  0
M  END
$$$$
