GYR.pdb
     RDKit          3D

 28 28  0  0  1  0  0  0  0  0999 V2000
    4.5668  -20.4830   22.2002 N   0  0  0  0  0  0  0  0  0  0  0  0
    5.3837  -20.2805   23.3427 C   0  0  0  0  0  0  0  0  0  0  0  0
    5.8553  -18.8783   23.4989 C   0  0  0  0  0  0  0  0  0  0  0  0
    5.6702  -18.0588   22.5648 O   0  0  0  0  0  0  0  0  0  0  0  0
    7.6605  -10.8522   26.6868 O   0  0  0  0  0  0  0  0  0  0  0  0
    7.3665  -12.2133   26.5339 C   0  0  0  0  0  0  0  0  0  0  0  0
    8.3487  -13.1636   26.6879 C   0  0  0  0  0  0  0  0  0  0  0  0
    8.0657  -14.5051   26.5392 C   0  0  0  0  0  0  0  0  0  0  0  0
    6.7970  -14.9649   26.2313 C   0  0  0  0  0  0  0  0  0  0  0  0
    6.5165  -16.4109   26.0854 C   0  0  0  0  0  0  0  0  0  0  0  0
    6.9716  -17.0224   24.8079 C   0  0  2  0  0  0  0  0  0  0  0  0
    6.5113  -18.4034   24.6568 N   0  0  0  0  0  0  0  0  0  0  0  0
    8.4245  -16.9392   24.5445 C   0  0  0  0  0  0  0  0  0  0  0  0
    9.2484  -17.7345   25.1200 O   0  0  0  0  0  0  0  0  0  0  0  0
    5.8236  -14.0052   26.0797 C   0  0  0  0  0  0  0  0  0  0  0  0
    6.0955  -12.6490   26.2270 C   0  0  0  0  0  0  0  0  0  0  0  0
    7.6823  -12.5793   19.8217 N   0  0  0  0  0  0  0  0  0  0  0  0
    8.0337  -13.4604   18.7691 C   0  0  0  0  0  0  0  0  0  0  0  0
    7.2281  -13.5506   17.7567 N   0  0  0  0  0  0  0  0  0  0  0  0
    9.2380  -14.2092   18.8479 N   0  0  0  0  0  0  0  0  0  0  0  0
   10.0608  -14.1015   20.0334 C   0  0  0  0  0  0  0  0  0  0  0  0
    9.7400  -15.2225   21.0259 C   0  0  0  0  0  0  0  0  0  0  0  0
   10.6595  -15.1096   22.1873 C   0  0  0  0  0  0  0  0  0  0  0  0
   10.4373  -16.1323   23.2815 C   0  0  2  0  0  0  0  0  0  0  0  0
    9.0111  -15.9990   23.6526 N   0  0  0  0  0  0  0  0  0  0  0  0
   11.2963  -15.7691   24.4311 C   0  0  0  0  0  0  0  0  0  0  0  0
   12.6773  -15.9307   24.2867 O   0  0  0  0  0  0  0  0  0  0  0  0
   10.8740  -15.3290   25.5216 O   0  0  0  0  0  0  0  0  0  0  0  0
  2  1  1  0
  3  2  1  0
  4  3  2  0
  6 16  2  0
  6  5  1  0
  7  6  1  0
  8  9  1  0
  8  7  2  0
  9 15  2  0
 10  9  1  0
 11 10  1  1
 11 12  1  0
 12  3  1  0
 13 25  1  0
 13 11  1  0
 14 13  2  0
 15 16  1  0
 18 19  2  0
 18 17  1  0
 20 18  1  0
 21 20  1  0
 22 21  1  0
 23 22  1  0
 24 23  1  6
 24 25  1  0
 26 27  1  0
 26 24  1  0
 28 26  2  0
M  END
$$$$
