GYR.pdb
     RDKit          3D

 28 28  0  0  1  0  0  0  0  0999 V2000
    4.2252  -17.7678   22.4491 N   0  0  0  0  0  0  0  0  0  0  0  0
    4.9676  -17.7758   23.6584 C   0  0  0  0  0  0  0  0  0  0  0  0
    6.2006  -16.9451   23.6077 C   0  0  0  0  0  0  0  0  0  0  0  0
    6.4758  -16.3149   22.5562 O   0  0  0  0  0  0  0  0  0  0  0  0
    5.7032  -10.6314   26.9468 O   0  0  0  0  0  0  0  0  0  0  0  0
    6.4236  -11.8049   26.6889 C   0  0  0  0  0  0  0  0  0  0  0  0
    7.6574  -11.7504   26.0837 C   0  0  0  0  0  0  0  0  0  0  0  0
    8.3718  -12.9019   25.8275 C   0  0  0  0  0  0  0  0  0  0  0  0
    7.8958  -14.1585   26.1594 C   0  0  0  0  0  0  0  0  0  0  0  0
    8.6856  -15.3791   25.8818 C   0  0  0  0  0  0  0  0  0  0  0  0
    8.3558  -16.0756   24.6093 C   0  0  2  0  0  0  0  0  0  0  0  0
    7.0983  -16.8196   24.6917 N   0  0  0  0  0  0  0  0  0  0  0  0
    9.4233  -16.9406   24.0619 C   0  0  0  0  0  0  0  0  0  0  0  0
    9.3314  -18.2179   24.1123 O   0  0  0  0  0  0  0  0  0  0  0  0
    6.6611  -14.1998   26.7638 C   0  0  0  0  0  0  0  0  0  0  0  0
    5.9301  -13.0462   27.0280 C   0  0  0  0  0  0  0  0  0  0  0  0
    8.7173  -12.8312   17.9029 N   0  0  0  0  0  0  0  0  0  0  0  0
    8.6854  -14.0384   17.1617 C   0  0  0  0  0  0  0  0  0  0  0  0
    8.7269  -13.9591   15.8678 N   0  0  0  0  0  0  0  0  0  0  0  0
    8.6104  -15.2827   17.8422 N   0  0  0  0  0  0  0  0  0  0  0  0
    8.5531  -15.2950   19.2881 C   0  0  0  0  0  0  0  0  0  0  0  0
    9.9525  -15.4511   19.8899 C   0  0  0  0  0  0  0  0  0  0  0  0
    9.8246  -15.6076   21.3617 C   0  0  0  0  0  0  0  0  0  0  0  0
   10.7914  -16.5906   21.9874 C   0  0  2  0  0  0  0  0  0  0  0  0
   10.6051  -16.4408   23.4478 N   0  0  0  0  0  0  0  0  0  0  0  0
   12.1647  -16.1892   21.6078 C   0  0  0  0  0  0  0  0  0  0  0  0
   12.6037  -16.5129   20.3207 O   0  0  0  0  0  0  0  0  0  0  0  0
   12.9595  -15.5822   22.3568 O   0  0  0  0  0  0  0  0  0  0  0  0
  2  1  1  0
  3  2  1  0
  4  3  2  0
  6 16  2  0
  6  5  1  0
  7  6  1  0
  8  9  1  0
  8  7  2  0
  9 15  2  0
 10  9  1  0
 11 10  1  1
 11 12  1  0
 12  3  1  0
 13 25  1  0
 13 11  1  0
 14 13  2  0
 15 16  1  0
 18 19  2  0
 18 17  1  0
 20 18  1  0
 21 20  1  0
 22 21  1  0
 23 22  1  0
 24 23  1  6
 24 25  1  0
 26 27  1  0
 26 24  1  0
 28 26  2  0
M  END
$$$$
