GYR.pdb
     RDKit          3D

 28 28  0  0  1  0  0  0  0  0999 V2000
    8.9959  -17.0877   18.0206 N   0  0  0  0  0  0  0  0  0  0  0  0
    7.9413  -16.8854   18.9483 C   0  0  0  0  0  0  0  0  0  0  0  0
    8.3278  -16.0551   20.1205 C   0  0  0  0  0  0  0  0  0  0  0  0
    9.5451  -15.8958   20.3876 O   0  0  0  0  0  0  0  0  0  0  0  0
    7.5488  -11.7809   27.9854 O   0  0  0  0  0  0  0  0  0  0  0  0
    7.3463  -12.2943   26.6978 C   0  0  0  0  0  0  0  0  0  0  0  0
    6.5599  -13.4056   26.5027 C   0  0  0  0  0  0  0  0  0  0  0  0
    6.3562  -13.9157   25.2376 C   0  0  0  0  0  0  0  0  0  0  0  0
    6.9225  -13.3476   24.1097 C   0  0  0  0  0  0  0  0  0  0  0  0
    6.6817  -13.9088   22.7613 C   0  0  0  0  0  0  0  0  0  0  0  0
    7.7537  -14.7995   22.2413 C   0  0  2  0  0  0  0  0  0  0  0  0
    7.3906  -15.4227   20.9679 N   0  0  0  0  0  0  0  0  0  0  0  0
    8.2439  -15.8251   23.1875 C   0  0  0  0  0  0  0  0  0  0  0  0
    7.5684  -16.8893   23.4190 O   0  0  0  0  0  0  0  0  0  0  0  0
    7.7069  -12.2372   24.3178 C   0  0  0  0  0  0  0  0  0  0  0  0
    7.9205  -11.7125   25.5882 C   0  0  0  0  0  0  0  0  0  0  0  0
   14.8262  -20.6927   24.6218 N   0  0  0  0  0  0  0  0  0  0  0  0
   13.5530  -21.3068   24.7196 C   0  0  0  0  0  0  0  0  0  0  0  0
   13.4566  -22.5609   24.4030 N   0  0  0  0  0  0  0  0  0  0  0  0
   12.4345  -20.5471   25.1542 N   0  0  0  0  0  0  0  0  0  0  0  0
   11.9499  -19.4650   24.3247 C   0  0  0  0  0  0  0  0  0  0  0  0
   12.1325  -18.1151   25.0242 C   0  0  0  0  0  0  0  0  0  0  0  0
   11.3909  -17.0780   24.2618 C   0  0  0  0  0  0  0  0  0  0  0  0
    9.9564  -16.8662   24.6977 C   0  0  2  0  0  0  0  0  0  0  0  0
    9.4730  -15.7203   23.8959 N   0  0  0  0  0  0  0  0  0  0  0  0
    9.9605  -16.5132   26.1354 C   0  0  0  0  0  0  0  0  0  0  0  0
   10.3258  -15.2094   26.4830 O   0  0  0  0  0  0  0  0  0  0  0  0
    9.6611  -17.2984   27.0599 O   0  0  0  0  0  0  0  0  0  0  0  0
  2  1  1  0
  3  2  1  0
  4  3  2  0
  6 16  2  0
  6  5  1  0
  7  6  1  0
  8  9  1  0
  8  7  2  0
  9 15  2  0
 10  9  1  0
 11 10  1  1
 11 12  1  0
 12  3  1  0
 13 25  1  0
 13 11  1  0
 14 13  2  0
 15 16  1  0
 18 19  2  0
 18 17  1  0
 20 18  1  0
 21 20  1  0
 22 21  1  0
 23 22  1  0
 24 23  1  6
 24 25  1  0
 26 27  1  0
 26 24  1  0
 28 26  2  0
M  END
$$$$
