GYR.pdb
     RDKit          3D

 28 28  0  0  1  0  0  0  0  0999 V2000
    6.2759  -17.1820   22.1463 N   0  0  0  0  0  0  0  0  0  0  0  0
    6.6395  -17.2156   23.5175 C   0  0  0  0  0  0  0  0  0  0  0  0
    7.7722  -16.3131   23.8574 C   0  0  0  0  0  0  0  0  0  0  0  0
    8.4514  -15.8022   22.9322 O   0  0  0  0  0  0  0  0  0  0  0  0
    4.5720  -10.7227   25.7854 O   0  0  0  0  0  0  0  0  0  0  0  0
    5.6530  -11.5883   25.9969 C   0  0  0  0  0  0  0  0  0  0  0  0
    6.8872  -11.3125   25.4562 C   0  0  0  0  0  0  0  0  0  0  0  0
    7.9554  -12.1604   25.6610 C   0  0  0  0  0  0  0  0  0  0  0  0
    7.8486  -13.3190   26.4105 C   0  0  0  0  0  0  0  0  0  0  0  0
    9.0125  -14.2085   26.6232 C   0  0  0  0  0  0  0  0  0  0  0  0
    9.2968  -15.1612   25.5166 C   0  0  2  0  0  0  0  0  0  0  0  0
    8.1372  -15.9896   25.1836 N   0  0  0  0  0  0  0  0  0  0  0  0
   10.4929  -16.0114   25.7001 C   0  0  0  0  0  0  0  0  0  0  0  0
   11.6492  -15.4944   25.8949 O   0  0  0  0  0  0  0  0  0  0  0  0
    6.6097  -13.5839   26.9456 C   0  0  0  0  0  0  0  0  0  0  0  0
    5.5240  -12.7373   26.7469 C   0  0  0  0  0  0  0  0  0  0  0  0
   14.3275  -20.2916   30.2073 N   0  0  0  0  0  0  0  0  0  0  0  0
   13.2751  -21.1315   30.6485 C   0  0  0  0  0  0  0  0  0  0  0  0
   13.2900  -21.5276   31.8834 N   0  0  0  0  0  0  0  0  0  0  0  0
   12.2486  -21.5114   29.7435 N   0  0  0  0  0  0  0  0  0  0  0  0
   11.4188  -20.4876   29.1460 C   0  0  0  0  0  0  0  0  0  0  0  0
   12.2010  -19.6921   28.0970 C   0  0  0  0  0  0  0  0  0  0  0  0
   11.3186  -18.6313   27.5465 C   0  0  0  0  0  0  0  0  0  0  0  0
   11.6419  -18.2004   26.1314 C   0  0  2  0  0  0  0  0  0  0  0  0
   10.4594  -17.4335   25.6804 N   0  0  0  0  0  0  0  0  0  0  0  0
   11.8013  -19.4183   25.3053 C   0  0  0  0  0  0  0  0  0  0  0  0
   13.0701  -20.0024   25.2474 O   0  0  0  0  0  0  0  0  0  0  0  0
   10.8822  -19.9607   24.6556 O   0  0  0  0  0  0  0  0  0  0  0  0
  2  1  1  0
  3  2  1  0
  4  3  2  0
  6 16  2  0
  6  5  1  0
  7  6  1  0
  8  9  1  0
  8  7  2  0
  9 15  2  0
 10  9  1  0
 11 10  1  1
 11 12  1  0
 12  3  1  0
 13 25  1  0
 13 11  1  0
 14 13  2  0
 15 16  1  0
 18 19  2  0
 18 17  1  0
 20 18  1  0
 21 20  1  0
 22 21  1  0
 23 22  1  0
 24 23  1  1
 24 25  1  0
 26 27  1  0
 26 24  1  0
 28 26  2  0
M  END
$$$$
