VIT.pdb
     RDKit          3D

 23 22  0  0  1  0  0  0  0  0999 V2000
   23.5026  -19.2573  -17.1082 C   0  0  0  0  0  0  0  0  0  0  0  0
   24.8097  -18.7777  -16.5883 C   0  0  2  0  0  0  0  0  0  0  0  0
   25.5630  -18.1096  -17.7175 C   0  0  0  0  0  0  0  0  0  0  0  0
   25.6530  -19.8260  -15.9028 C   0  0  2  0  0  0  0  0  0  0  0  0
   25.9869  -20.8039  -16.9510 N   0  0  0  0  0  0  0  0  0  0  0  0
   24.9409  -20.5657  -14.8394 C   0  0  0  0  0  0  0  0  0  0  0  0
   24.4106  -21.6649  -15.0669 O   0  0  0  0  0  0  0  0  0  0  0  0
   26.7899  -20.7103   -9.7636 C   0  0  0  0  0  0  0  0  0  0  0  0
   26.2022  -21.1538  -11.1094 C   0  0  0  0  0  0  0  0  0  0  0  0
   24.8044  -20.6498  -11.1549 C   0  0  2  0  0  0  0  0  0  0  0  0
   23.9732  -21.2605  -10.0570 C   0  0  0  0  0  0  0  0  0  0  0  0
   24.1397  -20.7686  -12.4973 C   0  0  2  0  0  0  0  0  0  0  0  0
   24.8484  -20.0370  -13.5344 N   0  0  0  0  0  0  0  0  0  0  0  0
   22.7054  -20.3597  -12.4420 C   0  0  0  0  0  0  0  0  0  0  0  0
   22.3769  -19.1638  -12.1471 O   0  0  0  0  0  0  0  0  0  0  0  0
   20.4500  -20.1508  -15.1707 C   0  0  0  0  0  0  0  0  0  0  0  0
   19.7039  -21.0320  -14.1901 C   0  0  1  0  0  0  0  0  0  0  0  0
   19.8243  -22.3682  -14.5703 O   0  0  0  0  0  0  0  0  0  0  0  0
   20.2433  -20.7960  -12.8000 C   0  0  2  0  0  0  0  0  0  0  0  0
   21.6420  -21.2466  -12.7057 N   0  0  0  0  0  0  0  0  0  0  0  0
   19.4090  -21.4456  -11.7852 C   0  0  0  0  0  0  0  0  0  0  0  0
   18.0837  -21.0833  -11.5271 O   0  0  0  0  0  0  0  0  0  0  0  0
   19.8854  -22.3798  -11.0974 O   0  0  0  0  0  0  0  0  0  0  0  0
  2  1  1  6
  2  3  1  0
  4  2  1  0
  4  5  1  6
  6  4  1  0
  6 13  1  0
  7  6  2  0
  9 10  1  0
  9  8  1  0
 10 12  1  0
 10 11  1  1
 12 13  1  6
 14 12  1  0
 15 14  2  0
 17 16  1  6
 17 18  1  0
 17 19  1  0
 19 21  1  0
 19 20  1  6
 20 14  1  0
 21 22  1  0
 23 21  2  0
M  END
$$$$
