VIT.pdb
     RDKit          3D

 23 22  0  0  1  0  0  0  0  0999 V2000
   16.6791   -9.3758  -19.5561 C   0  0  0  0  0  0  0  0  0  0  0  0
   17.4367   -9.0676  -18.3152 C   0  0  2  0  0  0  0  0  0  0  0  0
   18.2630   -7.8222  -18.5504 C   0  0  0  0  0  0  0  0  0  0  0  0
   18.2798  -10.1995  -17.7784 C   0  0  2  0  0  0  0  0  0  0  0  0
   17.3224  -11.2474  -17.3885 N   0  0  0  0  0  0  0  0  0  0  0  0
   19.0486   -9.8501  -16.5652 C   0  0  0  0  0  0  0  0  0  0  0  0
   18.5037   -9.8056  -15.4507 O   0  0  0  0  0  0  0  0  0  0  0  0
   23.3271  -12.2832  -14.8831 C   0  0  0  0  0  0  0  0  0  0  0  0
   22.0038  -11.5299  -15.0693 C   0  0  0  0  0  0  0  0  0  0  0  0
   22.3449  -10.0894  -15.2048 C   0  0  2  0  0  0  0  0  0  0  0  0
   23.1810   -9.6199  -14.0430 C   0  0  0  0  0  0  0  0  0  0  0  0
   21.1681   -9.1884  -15.4525 C   0  0  2  0  0  0  0  0  0  0  0  0
   20.4269   -9.5590  -16.6469 N   0  0  0  0  0  0  0  0  0  0  0  0
   21.5719   -7.7523  -15.5002 C   0  0  0  0  0  0  0  0  0  0  0  0
   22.3594   -7.3238  -16.4064 O   0  0  0  0  0  0  0  0  0  0  0  0
   19.6283   -4.9402  -16.2489 C   0  0  0  0  0  0  0  0  0  0  0  0
   20.2390   -4.5362  -14.9227 C   0  0  1  0  0  0  0  0  0  0  0  0
   19.2979   -4.6857  -13.9047 O   0  0  0  0  0  0  0  0  0  0  0  0
   21.4727   -5.3688  -14.6696 C   0  0  2  0  0  0  0  0  0  0  0  0
   21.1208   -6.7952  -14.5688 N   0  0  0  0  0  0  0  0  0  0  0  0
   22.1881   -4.9150  -13.4738 C   0  0  0  0  0  0  0  0  0  0  0  0
   22.8340   -3.6784  -13.3828 O   0  0  0  0  0  0  0  0  0  0  0  0
   22.2389   -5.6567  -12.4638 O   0  0  0  0  0  0  0  0  0  0  0  0
  2  1  1  6
  2  3  1  0
  4  2  1  0
  4  5  1  1
  6  4  1  0
  6 13  1  0
  7  6  2  0
  9 10  1  0
  9  8  1  0
 10 12  1  0
 10 11  1  1
 12 13  1  6
 14 12  1  0
 15 14  2  0
 17 16  1  6
 17 18  1  0
 17 19  1  0
 19 21  1  0
 19 20  1  1
 20 14  1  0
 21 22  1  0
 23 21  2  0
M  END
$$$$
