VIT.pdb
     RDKit          3D

 23 22  0  0  1  0  0  0  0  0999 V2000
   17.0456  -13.5210  -19.3638 C   0  0  0  0  0  0  0  0  0  0  0  0
   17.5085  -12.5838  -18.3073 C   0  0  2  0  0  0  0  0  0  0  0  0
   17.6547  -11.2056  -18.9144 C   0  0  0  0  0  0  0  0  0  0  0  0
   18.7620  -13.0047  -17.5783 C   0  0  2  0  0  0  0  0  0  0  0  0
   18.4049  -14.2473  -16.8747 N   0  0  0  0  0  0  0  0  0  0  0  0
   19.2067  -12.0428  -16.5478 C   0  0  0  0  0  0  0  0  0  0  0  0
   18.6370  -11.9722  -15.4471 O   0  0  0  0  0  0  0  0  0  0  0  0
   24.0731  -11.8427  -14.7559 C   0  0  0  0  0  0  0  0  0  0  0  0
   22.5532  -11.8229  -14.9627 C   0  0  0  0  0  0  0  0  0  0  0  0
   22.1995  -10.4530  -15.4190 C   0  0  2  0  0  0  0  0  0  0  0  0
   22.6924   -9.4145  -14.4455 C   0  0  0  0  0  0  0  0  0  0  0  0
   20.7484  -10.2622  -15.7598 C   0  0  2  0  0  0  0  0  0  0  0  0
   20.2955  -11.1793  -16.7928 N   0  0  0  0  0  0  0  0  0  0  0  0
   20.4500   -8.8486  -16.1342 C   0  0  0  0  0  0  0  0  0  0  0  0
   20.9800   -8.3188  -17.1654 O   0  0  0  0  0  0  0  0  0  0  0  0
   17.8214   -4.6833  -15.5017 C   0  0  0  0  0  0  0  0  0  0  0  0
   18.0383   -6.1370  -15.1349 C   0  0  1  0  0  0  0  0  0  0  0  0
   16.9511   -6.8986  -15.5616 O   0  0  0  0  0  0  0  0  0  0  0  0
   19.3315   -6.6167  -15.7487 C   0  0  2  0  0  0  0  0  0  0  0  0
   19.5824   -8.0228  -15.3907 N   0  0  0  0  0  0  0  0  0  0  0  0
   20.4573   -5.7630  -15.3592 C   0  0  0  0  0  0  0  0  0  0  0  0
   20.9335   -4.7074  -16.1424 O   0  0  0  0  0  0  0  0  0  0  0  0
   21.0426   -5.9691  -14.2694 O   0  0  0  0  0  0  0  0  0  0  0  0
  2  1  1  6
  2  3  1  0
  4  2  1  0
  4  5  1  1
  6  4  1  0
  6 13  1  0
  7  6  2  0
  9 10  1  0
  9  8  1  0
 10 12  1  0
 10 11  1  1
 12 13  1  6
 14 12  1  0
 15 14  2  0
 17 16  1  6
 17 18  1  0
 17 19  1  0
 19 21  1  0
 19 20  1  1
 20 14  1  0
 21 22  1  0
 23 21  2  0
M  END
$$$$
