VIT.pdb
     RDKit          3D

 23 22  0  0  1  0  0  0  0  0999 V2000
   17.9196  -24.1849   -9.6581 C   0  0  0  0  0  0  0  0  0  0  0  0
   19.0590  -24.6925   -8.8501 C   0  0  2  0  0  0  0  0  0  0  0  0
   18.6195  -25.9492   -8.1312 C   0  0  0  0  0  0  0  0  0  0  0  0
   19.6675  -23.6921   -7.8967 C   0  0  2  0  0  0  0  0  0  0  0  0
   18.5656  -23.2744   -7.0147 N   0  0  0  0  0  0  0  0  0  0  0  0
   20.1748  -22.4697   -8.5551 C   0  0  0  0  0  0  0  0  0  0  0  0
   19.4991  -21.4287   -8.5839 O   0  0  0  0  0  0  0  0  0  0  0  0
   25.1472  -20.6889   -7.8144 C   0  0  0  0  0  0  0  0  0  0  0  0
   23.6291  -20.8283   -7.9850 C   0  0  0  0  0  0  0  0  0  0  0  0
   23.3704  -20.9548   -9.4434 C   0  0  2  0  0  0  0  0  0  0  0  0
   23.9088  -19.7646  -10.1935 C   0  0  0  0  0  0  0  0  0  0  0  0
   21.9408  -21.2475   -9.8023 C   0  0  2  0  0  0  0  0  0  0  0  0
   21.4459  -22.4581   -9.1677 N   0  0  0  0  0  0  0  0  0  0  0  0
   21.7420  -21.3012  -11.2805 C   0  0  0  0  0  0  0  0  0  0  0  0
   22.4176  -22.1054  -12.0029 O   0  0  0  0  0  0  0  0  0  0  0  0
   19.4511  -22.7407  -13.3926 C   0  0  0  0  0  0  0  0  0  0  0  0
   19.3174  -21.2711  -13.7351 C   0  0  1  0  0  0  0  0  0  0  0  0
   18.2463  -20.7186  -13.0338 O   0  0  0  0  0  0  0  0  0  0  0  0
   20.6149  -20.5671  -13.4186 C   0  0  2  0  0  0  0  0  0  0  0  0
   20.8159  -20.4858  -11.9621 N   0  0  0  0  0  0  0  0  0  0  0  0
   20.6663  -19.2382  -14.0344 C   0  0  0  0  0  0  0  0  0  0  0  0
   20.6399  -19.0253  -15.4158 O   0  0  0  0  0  0  0  0  0  0  0  0
   20.7381  -18.2203  -13.3053 O   0  0  0  0  0  0  0  0  0  0  0  0
  2  1  1  1
  2  3  1  0
  4  2  1  0
  4  5  1  1
  6  4  1  0
  6 13  1  0
  7  6  2  0
  9 10  1  0
  9  8  1  0
 10 12  1  0
 10 11  1  6
 12 13  1  1
 14 12  1  0
 15 14  2  0
 17 16  1  1
 17 18  1  0
 17 19  1  0
 19 21  1  0
 19 20  1  1
 20 14  1  0
 21 22  1  0
 23 21  2  0
M  END
$$$$
