VIT.pdb
     RDKit          3D

 23 22  0  0  1  0  0  0  0  0999 V2000
   28.9173  -19.0752  -16.4121 C   0  0  0  0  0  0  0  0  0  0  0  0
   27.7419  -19.5558  -15.6400 C   0  0  2  0  0  0  0  0  0  0  0  0
   26.9601  -18.3554  -15.1530 C   0  0  0  0  0  0  0  0  0  0  0  0
   28.0591  -20.5066  -14.5107 C   0  0  2  0  0  0  0  0  0  0  0  0
   28.6313  -21.6998  -15.1552 N   0  0  0  0  0  0  0  0  0  0  0  0
   26.8709  -20.9570  -13.7557 C   0  0  0  0  0  0  0  0  0  0  0  0
   26.1427  -21.8652  -14.1869 O   0  0  0  0  0  0  0  0  0  0  0  0
   26.8416  -20.4859   -8.2562 C   0  0  0  0  0  0  0  0  0  0  0  0
   26.7481  -21.1114   -9.6538 C   0  0  0  0  0  0  0  0  0  0  0  0
   25.5231  -20.5599  -10.2902 C   0  0  2  0  0  0  0  0  0  0  0  0
   24.2885  -20.9638   -9.5274 C   0  0  0  0  0  0  0  0  0  0  0  0
   25.3971  -20.8486  -11.7596 C   0  0  2  0  0  0  0  0  0  0  0  0
   26.5363  -20.3624  -12.5205 N   0  0  0  0  0  0  0  0  0  0  0  0
   24.1182  -20.3204  -12.3189 C   0  0  0  0  0  0  0  0  0  0  0  0
   23.8824  -19.0679  -12.3431 O   0  0  0  0  0  0  0  0  0  0  0  0
   22.7769  -20.6625  -15.6962 C   0  0  0  0  0  0  0  0  0  0  0  0
   21.6422  -21.1328  -14.8096 C   0  0  1  0  0  0  0  0  0  0  0  0
   21.5673  -22.5248  -14.8376 O   0  0  0  0  0  0  0  0  0  0  0  0
   21.8582  -20.6131  -13.4087 C   0  0  2  0  0  0  0  0  0  0  0  0
   23.1081  -21.1508  -12.8458 N   0  0  0  0  0  0  0  0  0  0  0  0
   20.7150  -20.9169  -12.5434 C   0  0  0  0  0  0  0  0  0  0  0  0
   19.4327  -20.3984  -12.7469 O   0  0  0  0  0  0  0  0  0  0  0  0
   20.8681  -21.6805  -11.5605 O   0  0  0  0  0  0  0  0  0  0  0  0
  2  1  1  1
  2  3  1  0
  4  2  1  0
  4  5  1  6
  6  4  1  0
  6 13  1  0
  7  6  2  0
  9 10  1  0
  9  8  1  0
 10 12  1  0
 10 11  1  1
 12 13  1  6
 14 12  1  0
 15 14  2  0
 17 16  1  6
 17 18  1  0
 17 19  1  0
 19 21  1  0
 19 20  1  1
 20 14  1  0
 21 22  1  0
 23 21  2  0
M  END
$$$$
