VIT.pdb
     RDKit          3D

 23 22  0  0  1  0  0  0  0  0999 V2000
   26.5036  -20.3075  -17.2721 C   0  0  0  0  0  0  0  0  0  0  0  0
   27.4642  -19.7640  -16.2768 C   0  0  2  0  0  0  0  0  0  0  0  0
   28.6953  -19.2773  -17.0095 C   0  0  0  0  0  0  0  0  0  0  0  0
   27.8240  -20.7033  -15.1507 C   0  0  2  0  0  0  0  0  0  0  0  0
   28.4122  -21.8851  -15.8020 N   0  0  0  0  0  0  0  0  0  0  0  0
   26.6604  -21.1788  -14.3729 C   0  0  0  0  0  0  0  0  0  0  0  0
   26.0580  -22.2172  -14.6891 O   0  0  0  0  0  0  0  0  0  0  0  0
   26.3398  -20.5719   -8.9402 C   0  0  0  0  0  0  0  0  0  0  0  0
   26.3058  -21.1821  -10.3472 C   0  0  0  0  0  0  0  0  0  0  0  0
   25.1297  -20.5953  -11.0417 C   0  0  2  0  0  0  0  0  0  0  0  0
   23.8523  -20.9234  -10.3138 C   0  0  0  0  0  0  0  0  0  0  0  0
   25.0425  -20.9188  -12.5066 C   0  0  2  0  0  0  0  0  0  0  0  0
   26.2064  -20.4599  -13.2467 N   0  0  0  0  0  0  0  0  0  0  0  0
   23.7840  -20.3949  -13.1143 C   0  0  0  0  0  0  0  0  0  0  0  0
   23.5137  -19.1494  -13.0878 O   0  0  0  0  0  0  0  0  0  0  0  0
   22.5468  -20.6583  -16.6017 C   0  0  0  0  0  0  0  0  0  0  0  0
   21.4163  -21.1890  -15.7442 C   0  0  1  0  0  0  0  0  0  0  0  0
   21.3948  -22.5820  -15.8013 O   0  0  0  0  0  0  0  0  0  0  0  0
   21.5895  -20.6905  -14.3297 C   0  0  2  0  0  0  0  0  0  0  0  0
   22.8315  -21.2218  -13.7437 N   0  0  0  0  0  0  0  0  0  0  0  0
   20.4286  -21.0235  -13.4995 C   0  0  0  0  0  0  0  0  0  0  0  0
   19.1660  -20.4481  -13.6704 O   0  0  0  0  0  0  0  0  0  0  0  0
   20.5471  -21.8672  -12.5792 O   0  0  0  0  0  0  0  0  0  0  0  0
  2  1  1  6
  2  3  1  0
  4  2  1  0
  4  5  1  6
  6  4  1  0
  6 13  1  0
  7  6  2  0
  9 10  1  0
  9  8  1  0
 10 12  1  0
 10 11  1  1
 12 13  1  6
 14 12  1  0
 15 14  2  0
 17 16  1  6
 17 18  1  0
 17 19  1  0
 19 21  1  0
 19 20  1  1
 20 14  1  0
 21 22  1  0
 23 21  2  0
M  END
$$$$
