VIT.pdb
     RDKit          3D

 23 22  0  0  1  0  0  0  0  0999 V2000
   18.5298  -15.1496  -19.5041 C   0  0  0  0  0  0  0  0  0  0  0  0
   18.3859  -14.0194  -18.5498 C   0  0  2  0  0  0  0  0  0  0  0  0
   16.9346  -13.5925  -18.5218 C   0  0  0  0  0  0  0  0  0  0  0  0
   19.3043  -12.8468  -18.7983 C   0  0  2  0  0  0  0  0  0  0  0  0
   20.5441  -13.4302  -19.3360 N   0  0  0  0  0  0  0  0  0  0  0  0
   19.6760  -12.1075  -17.5735 C   0  0  0  0  0  0  0  0  0  0  0  0
   18.8427  -11.8841  -16.6809 O   0  0  0  0  0  0  0  0  0  0  0  0
   24.4547  -12.6701  -15.0719 C   0  0  0  0  0  0  0  0  0  0  0  0
   22.9555  -12.5413  -15.3702 C   0  0  0  0  0  0  0  0  0  0  0  0
   22.7052  -11.1148  -15.7052 C   0  0  2  0  0  0  0  0  0  0  0  0
   23.0696  -10.2163  -14.5524 C   0  0  0  0  0  0  0  0  0  0  0  0
   21.3263  -10.8278  -16.2292 C   0  0  2  0  0  0  0  0  0  0  0  0
   20.9938  -11.6375  -17.3898 N   0  0  0  0  0  0  0  0  0  0  0  0
   21.1367   -9.3763  -16.5202 C   0  0  0  0  0  0  0  0  0  0  0  0
   21.7449   -8.8188  -17.4921 O   0  0  0  0  0  0  0  0  0  0  0  0
   18.4791   -5.2613  -16.2080 C   0  0  0  0  0  0  0  0  0  0  0  0
   18.6371   -6.7469  -15.9570 C   0  0  1  0  0  0  0  0  0  0  0  0
   17.8481   -7.4638  -16.8558 O   0  0  0  0  0  0  0  0  0  0  0  0
   20.0957   -7.1183  -16.0746 C   0  0  2  0  0  0  0  0  0  0  0  0
   20.2926   -8.5429  -15.7585 N   0  0  0  0  0  0  0  0  0  0  0  0
   20.9343   -6.2675  -15.2257 C   0  0  0  0  0  0  0  0  0  0  0  0
   21.5092   -5.0696  -15.6603 O   0  0  0  0  0  0  0  0  0  0  0  0
   21.1643   -6.6096  -14.0412 O   0  0  0  0  0  0  0  0  0  0  0  0
  2  1  1  6
  2  3  1  0
  4  2  1  0
  4  5  1  1
  6  4  1  0
  6 13  1  0
  7  6  2  0
  9 10  1  0
  9  8  1  0
 10 12  1  0
 10 11  1  1
 12 13  1  6
 14 12  1  0
 15 14  2  0
 17 16  1  6
 17 18  1  0
 17 19  1  0
 19 21  1  0
 19 20  1  1
 20 14  1  0
 21 22  1  0
 23 21  2  0
M  END
$$$$
