VIT.pdb
     RDKit          3D

 23 22  0  0  1  0  0  0  0  0999 V2000
   29.3068  -20.3320  -13.4624 C   0  0  0  0  0  0  0  0  0  0  0  0
   28.8713  -20.3237  -14.8833 C   0  0  2  0  0  0  0  0  0  0  0  0
   29.8402  -19.4782  -15.6805 C   0  0  0  0  0  0  0  0  0  0  0  0
   27.4416  -19.8969  -15.1154 C   0  0  2  0  0  0  0  0  0  0  0  0
   27.3871  -18.4823  -14.7123 N   0  0  0  0  0  0  0  0  0  0  0  0
   26.4585  -20.6177  -14.2794 C   0  0  0  0  0  0  0  0  0  0  0  0
   26.2422  -21.8290  -14.4433 O   0  0  0  0  0  0  0  0  0  0  0  0
   26.0861  -20.2674   -8.9678 C   0  0  0  0  0  0  0  0  0  0  0  0
   26.0916  -20.8045  -10.4047 C   0  0  0  0  0  0  0  0  0  0  0  0
   24.8174  -20.3660  -11.0322 C   0  0  2  0  0  0  0  0  0  0  0  0
   23.6296  -20.9036  -10.2777 C   0  0  0  0  0  0  0  0  0  0  0  0
   24.7193  -20.6396  -12.5066 C   0  0  2  0  0  0  0  0  0  0  0  0
   25.7407  -19.9417  -13.2700 N   0  0  0  0  0  0  0  0  0  0  0  0
   23.3573  -20.3352  -13.0358 C   0  0  0  0  0  0  0  0  0  0  0  0
   22.8642  -19.1636  -12.9383 O   0  0  0  0  0  0  0  0  0  0  0  0
   21.1768  -23.2251  -15.2657 C   0  0  0  0  0  0  0  0  0  0  0  0
   21.0871  -21.7467  -15.5840 C   0  0  1  0  0  0  0  0  0  0  0  0
   19.8657  -21.4693  -16.1968 O   0  0  0  0  0  0  0  0  0  0  0  0
   21.2671  -20.9529  -14.3125 C   0  0  2  0  0  0  0  0  0  0  0  0
   22.5431  -21.2991  -13.6643 N   0  0  0  0  0  0  0  0  0  0  0  0
   20.1393  -21.1466  -13.3969 C   0  0  0  0  0  0  0  0  0  0  0  0
   18.8863  -20.5536  -13.5782 O   0  0  0  0  0  0  0  0  0  0  0  0
   20.2791  -21.8791  -12.3886 O   0  0  0  0  0  0  0  0  0  0  0  0
  2  1  1  1
  2  3  1  0
  4  2  1  0
  4  5  1  1
  6  4  1  0
  6 13  1  0
  7  6  2  0
  9 10  1  0
  9  8  1  0
 10 12  1  0
 10 11  1  1
 12 13  1  6
 14 12  1  0
 15 14  2  0
 17 16  1  1
 17 18  1  0
 17 19  1  0
 19 21  1  0
 19 20  1  1
 20 14  1  0
 21 22  1  0
 23 21  2  0
M  END
$$$$
