VIT.pdb
     RDKit          3D

 23 22  0  0  1  0  0  0  0  0999 V2000
   18.4664  -12.6719  -16.6250 C   0  0  0  0  0  0  0  0  0  0  0  0
   17.3364  -11.7193  -16.7813 C   0  0  2  0  0  0  0  0  0  0  0  0
   16.5118  -12.1401  -17.9780 C   0  0  0  0  0  0  0  0  0  0  0  0
   17.7289  -10.2635  -16.8622 C   0  0  2  0  0  0  0  0  0  0  0  0
   18.3934  -10.1112  -18.1667 N   0  0  0  0  0  0  0  0  0  0  0  0
   18.7062   -9.8489  -15.8337 C   0  0  0  0  0  0  0  0  0  0  0  0
   18.4256   -9.8969  -14.6254 O   0  0  0  0  0  0  0  0  0  0  0  0
   23.3947  -11.8548  -14.9868 C   0  0  0  0  0  0  0  0  0  0  0  0
   22.0054  -11.2072  -14.9262 C   0  0  0  0  0  0  0  0  0  0  0  0
   22.1957   -9.7567  -15.1906 C   0  0  2  0  0  0  0  0  0  0  0  0
   23.2407   -9.1726  -14.2762 C   0  0  0  0  0  0  0  0  0  0  0  0
   20.9287   -8.9486  -15.1872 C   0  0  2  0  0  0  0  0  0  0  0  0
   19.9874   -9.3879  -16.2041 N   0  0  0  0  0  0  0  0  0  0  0  0
   21.2050   -7.4873  -15.3125 C   0  0  0  0  0  0  0  0  0  0  0  0
   21.6597   -6.9980  -16.3983 O   0  0  0  0  0  0  0  0  0  0  0  0
   20.2887   -2.8634  -14.0913 C   0  0  0  0  0  0  0  0  0  0  0  0
   19.9976   -4.3462  -13.9845 C   0  0  1  0  0  0  0  0  0  0  0  0
   18.8799   -4.6644  -14.7551 O   0  0  0  0  0  0  0  0  0  0  0  0
   21.2159   -5.1243  -14.4196 C   0  0  2  0  0  0  0  0  0  0  0  0
   20.9873   -6.5707  -14.2639 N   0  0  0  0  0  0  0  0  0  0  0  0
   22.4125   -4.6966  -13.6896 C   0  0  0  0  0  0  0  0  0  0  0  0
   23.2941   -3.7175  -14.1573 O   0  0  0  0  0  0  0  0  0  0  0  0
   22.6834   -5.2212  -12.5832 O   0  0  0  0  0  0  0  0  0  0  0  0
  2  1  1  6
  2  3  1  0
  4  2  1  0
  4  5  1  6
  6  4  1  0
  6 13  1  0
  7  6  2  0
  9 10  1  0
  9  8  1  0
 10 12  1  0
 10 11  1  1
 12 13  1  6
 14 12  1  0
 15 14  2  0
 17 16  1  6
 17 18  1  0
 17 19  1  0
 19 21  1  0
 19 20  1  1
 20 14  1  0
 21 22  1  0
 23 21  2  0
M  END
$$$$
