VIT.pdb
     RDKit          3D

 23 22  0  0  1  0  0  0  0  0999 V2000
   17.1375   -9.4938  -17.5554 C   0  0  0  0  0  0  0  0  0  0  0  0
   18.0015  -10.3491  -18.4102 C   0  0  2  0  0  0  0  0  0  0  0  0
   17.1587  -10.9223  -19.5284 C   0  0  0  0  0  0  0  0  0  0  0  0
   18.7620  -11.4294  -17.6790 C   0  0  2  0  0  0  0  0  0  0  0  0
   17.7337  -12.3424  -17.1541 N   0  0  0  0  0  0  0  0  0  0  0  0
   19.5309  -10.9378  -16.5162 C   0  0  0  0  0  0  0  0  0  0  0  0
   19.0243  -10.8942  -15.3838 O   0  0  0  0  0  0  0  0  0  0  0  0
   24.2484  -12.5634  -14.8962 C   0  0  0  0  0  0  0  0  0  0  0  0
   22.8092  -12.0508  -15.0342 C   0  0  0  0  0  0  0  0  0  0  0  0
   22.8963  -10.5883  -15.2861 C   0  0  2  0  0  0  0  0  0  0  0  0
   23.6773   -9.8977  -14.1987 C   0  0  0  0  0  0  0  0  0  0  0  0
   21.5763   -9.9182  -15.5442 C   0  0  2  0  0  0  0  0  0  0  0  0
   20.8657  -10.5059  -16.6679 N   0  0  0  0  0  0  0  0  0  0  0  0
   21.7304   -8.4444  -15.7230 C   0  0  0  0  0  0  0  0  0  0  0  0
   22.4608   -7.9711  -16.6545 O   0  0  0  0  0  0  0  0  0  0  0  0
   19.0427   -5.7276  -14.0486 C   0  0  0  0  0  0  0  0  0  0  0  0
   19.9142   -5.3780  -15.2374 C   0  0  1  0  0  0  0  0  0  0  0  0
   20.0363   -3.9929  -15.3418 O   0  0  0  0  0  0  0  0  0  0  0  0
   21.2585   -6.0471  -15.0819 C   0  0  2  0  0  0  0  0  0  0  0  0
   21.0940   -7.4984  -14.8941 N   0  0  0  0  0  0  0  0  0  0  0  0
   22.0264   -5.4555  -13.9827 C   0  0  0  0  0  0  0  0  0  0  0  0
   22.7526   -4.2667  -14.0999 O   0  0  0  0  0  0  0  0  0  0  0  0
   22.0500   -6.0264  -12.8663 O   0  0  0  0  0  0  0  0  0  0  0  0
  2  1  1  1
  2  3  1  0
  4  2  1  0
  4  5  1  1
  6  4  1  0
  6 13  1  0
  7  6  2  0
  9 10  1  0
  9  8  1  0
 10 12  1  0
 10 11  1  1
 12 13  1  6
 14 12  1  0
 15 14  2  0
 17 16  1  1
 17 18  1  0
 17 19  1  0
 19 21  1  0
 19 20  1  1
 20 14  1  0
 21 22  1  0
 23 21  2  0
M  END
$$$$
