HGY.pdb
     RDKit          3D

 27 28  0  0  1  0  0  0  0  0999 V2000
   10.2098  -16.0347   18.7827 N   0  0  0  0  0  0  0  0  0  0  0  0
    9.1444  -15.4884   19.5609 C   0  0  1  0  0  0  0  0  0  0  0  0
    7.9183  -15.3589   18.6559 C   0  0  0  0  0  0  0  0  0  0  0  0
    8.2785  -14.5840   17.4400 C   0  0  0  0  0  0  0  0  0  0  0  0
    9.0705  -13.4622   17.3137 C   0  0  0  0  0  0  0  0  0  0  0  0
    9.1303  -13.0817   16.0099 N   0  0  0  0  0  0  0  0  0  0  0  0
    8.3734  -13.9687   15.3215 C   0  0  0  0  0  0  0  0  0  0  0  0
    7.8632  -14.8696   16.1826 N   0  0  0  0  0  0  0  0  0  0  0  0
    8.8350  -16.2804   20.7693 C   0  0  0  0  0  0  0  0  0  0  0  0
    9.0810  -17.5090   20.8448 O   0  0  0  0  0  0  0  0  0  0  0  0
    8.2361  -15.6433   21.8981 N   0  0  0  0  0  0  0  0  0  0  0  0
    7.9421  -16.4382   23.0509 C   0  0  0  0  0  0  0  0  0  0  0  0
    8.7467  -16.1277   24.2499 C   0  0  0  0  0  0  0  0  0  0  0  0
    9.8037  -15.4214   24.1319 O   0  0  0  0  0  0  0  0  0  0  0  0
    5.5216  -11.0915   25.7804 O   0  0  0  0  0  0  0  0  0  0  0  0
    6.2511  -12.1609   26.2726 C   0  0  0  0  0  0  0  0  0  0  0  0
    7.5738  -12.0173   26.6031 C   0  0  0  0  0  0  0  0  0  0  0  0
    8.2639  -13.0941   27.0863 C   0  0  0  0  0  0  0  0  0  0  0  0
    7.6825  -14.3431   27.2605 C   0  0  0  0  0  0  0  0  0  0  0  0
    8.3969  -15.5250   27.7695 C   0  0  0  0  0  0  0  0  0  0  0  0
    9.2693  -16.1346   26.7203 C   0  0  2  0  0  0  0  0  0  0  0  0
    8.4564  -16.5485   25.5685 N   0  0  0  0  0  0  0  0  0  0  0  0
   10.0656  -17.2728   27.2228 C   0  0  0  0  0  0  0  0  0  0  0  0
    9.8705  -18.5227   26.6903 O   0  0  0  0  0  0  0  0  0  0  0  0
    6.3326  -14.4754   26.9195 C   0  0  0  0  0  0  0  0  0  0  0  0
    5.6548  -13.3884   26.4372 C   0  0  0  0  0  0  0  0  0  0  0  0
   10.9237  -17.1220   28.1368 O   0  0  0  0  0  0  0  0  0  0  0  0
  2  1  1  6
  2  3  1  0
  4  3  1  0
  4  8  1  0
  5  4  2  0
  6  5  1  0
  6  7  1  0
  7  8  2  0
  9  2  1  0
 10  9  2  0
 11  9  1  0
 12 11  1  0
 13 22  1  0
 13 12  1  0
 14 13  2  0
 16 15  1  0
 17 16  2  0
 18 17  1  0
 19 25  1  0
 19 18  2  0
 21 20  1  1
 20 19  1  0
 21 23  1  0
 21 22  1  0
 23 24  1  0
 25 26  2  0
 26 16  1  0
 27 23  2  0
M  END
$$$$
