HGY.pdb
     RDKit          3D

 27 28  0  0  1  0  0  0  0  0999 V2000
    9.4420  -15.9641   20.4530 N   0  0  0  0  0  0  0  0  0  0  0  0
    8.6959  -15.2882   21.4655 C   0  0  1  0  0  0  0  0  0  0  0  0
    7.3261  -14.9343   20.8845 C   0  0  0  0  0  0  0  0  0  0  0  0
    7.5032  -14.2498   19.5772 C   0  0  0  0  0  0  0  0  0  0  0  0
    8.0058  -12.9956   19.3014 C   0  0  0  0  0  0  0  0  0  0  0  0
    7.9863  -12.7735   17.9603 N   0  0  0  0  0  0  0  0  0  0  0  0
    7.4702  -13.8922   17.3986 C   0  0  0  0  0  0  0  0  0  0  0  0
    7.1811  -14.7770   18.3718 N   0  0  0  0  0  0  0  0  0  0  0  0
    8.5613  -16.0676   22.7136 C   0  0  0  0  0  0  0  0  0  0  0  0
    7.6240  -15.8733   23.5256 O   0  0  0  0  0  0  0  0  0  0  0  0
    9.5204  -17.0794   23.0223 N   0  0  0  0  0  0  0  0  0  0  0  0
   10.7761  -16.6789   23.5791 C   0  0  0  0  0  0  0  0  0  0  0  0
   10.7443  -16.3292   25.0137 C   0  0  0  0  0  0  0  0  0  0  0  0
   11.7385  -15.7205   25.5345 O   0  0  0  0  0  0  0  0  0  0  0  0
    6.4946  -11.0822   25.4386 O   0  0  0  0  0  0  0  0  0  0  0  0
    6.9326  -12.2719   25.9961 C   0  0  0  0  0  0  0  0  0  0  0  0
    6.4452  -13.4758   25.5573 C   0  0  0  0  0  0  0  0  0  0  0  0
    6.8997  -14.6309   26.1301 C   0  0  0  0  0  0  0  0  0  0  0  0
    7.8435  -14.6444   27.1487 C   0  0  0  0  0  0  0  0  0  0  0  0
    8.3483  -15.8675   27.7934 C   0  0  0  0  0  0  0  0  0  0  0  0
    9.7237  -16.2112   27.3203 C   0  0  2  0  0  0  0  0  0  0  0  0
    9.6842  -16.6099   25.9067 N   0  0  0  0  0  0  0  0  0  0  0  0
   10.3666  -17.2637   28.1334 C   0  0  0  0  0  0  0  0  0  0  0  0
   10.7378  -18.4446   27.5407 O   0  0  0  0  0  0  0  0  0  0  0  0
    8.3322  -13.4093   27.5865 C   0  0  0  0  0  0  0  0  0  0  0  0
    7.8679  -12.2613   27.0034 C   0  0  0  0  0  0  0  0  0  0  0  0
   10.5812  -17.1019   29.3671 O   0  0  0  0  0  0  0  0  0  0  0  0
  2  1  1  6
  2  3  1  0
  4  3  1  0
  4  8  1  0
  5  4  2  0
  6  5  1  0
  6  7  1  0
  7  8  2  0
  9  2  1  0
 10  9  2  0
 11  9  1  0
 12 11  1  0
 13 22  1  0
 13 12  1  0
 14 13  2  0
 16 15  1  0
 17 16  2  0
 18 17  1  0
 19 25  1  0
 19 18  2  0
 21 20  1  1
 20 19  1  0
 21 23  1  0
 21 22  1  0
 23 24  1  0
 25 26  2  0
 26 16  1  0
 27 23  2  0
M  END
$$$$
