HGY.pdb
     RDKit          3D

 27 28  0  0  1  0  0  0  0  0999 V2000
    8.2952  -15.8604   19.2726 N   0  0  0  0  0  0  0  0  0  0  0  0
    9.5272  -15.1386   19.2724 C   0  0  1  0  0  0  0  0  0  0  0  0
    9.2275  -13.6951   18.8652 C   0  0  0  0  0  0  0  0  0  0  0  0
    8.4912  -13.6863   17.5743 C   0  0  0  0  0  0  0  0  0  0  0  0
    7.2579  -13.1507   17.2681 C   0  0  0  0  0  0  0  0  0  0  0  0
    6.9688  -13.3724   15.9584 N   0  0  0  0  0  0  0  0  0  0  0  0
    8.0247  -14.0481   15.4466 C   0  0  0  0  0  0  0  0  0  0  0  0
    8.9373  -14.2351   16.4190 N   0  0  0  0  0  0  0  0  0  0  0  0
   10.2382  -15.1917   20.5665 C   0  0  0  0  0  0  0  0  0  0  0  0
   11.2703  -14.5135   20.7909 O   0  0  0  0  0  0  0  0  0  0  0  0
    9.7489  -16.0372   21.6080 N   0  0  0  0  0  0  0  0  0  0  0  0
   10.4870  -16.1051   22.8319 C   0  0  0  0  0  0  0  0  0  0  0  0
    9.6929  -16.4606   24.0254 C   0  0  0  0  0  0  0  0  0  0  0  0
    8.6550  -17.1926   23.8947 O   0  0  0  0  0  0  0  0  0  0  0  0
    6.7119  -10.6528   26.4214 O   0  0  0  0  0  0  0  0  0  0  0  0
    6.9462  -12.0157   26.3454 C   0  0  0  0  0  0  0  0  0  0  0  0
    6.5432  -12.7388   25.2526 C   0  0  0  0  0  0  0  0  0  0  0  0
    6.7908  -14.0827   25.2108 C   0  0  0  0  0  0  0  0  0  0  0  0
    7.4390  -14.7601   26.2352 C   0  0  0  0  0  0  0  0  0  0  0  0
    7.7140  -16.2060   26.2273 C   0  0  0  0  0  0  0  0  0  0  0  0
    9.1566  -16.4930   26.4926 C   0  0  2  0  0  0  0  0  0  0  0  0
    9.9739  -16.0583   25.3518 N   0  0  0  0  0  0  0  0  0  0  0  0
    9.4145  -17.9153   26.7973 C   0  0  0  0  0  0  0  0  0  0  0  0
    8.8371  -18.4859   27.9040 O   0  0  0  0  0  0  0  0  0  0  0  0
    7.8447  -14.0101   27.3438 C   0  0  0  0  0  0  0  0  0  0  0  0
    7.5900  -12.6656   27.3714 C   0  0  0  0  0  0  0  0  0  0  0  0
   10.1593  -18.6205   26.0609 O   0  0  0  0  0  0  0  0  0  0  0  0
  2  1  1  1
  2  3  1  0
  4  3  1  0
  4  8  1  0
  5  4  2  0
  6  5  1  0
  6  7  1  0
  7  8  2  0
  9  2  1  0
 10  9  2  0
 11  9  1  0
 12 11  1  0
 13 22  1  0
 13 12  1  0
 14 13  2  0
 16 15  1  0
 17 16  2  0
 18 17  1  0
 19 25  1  0
 19 18  2  0
 21 20  1  6
 20 19  1  0
 21 23  1  0
 21 22  1  0
 23 24  1  0
 25 26  2  0
 26 16  1  0
 27 23  2  0
M  END
$$$$
