HGY.pdb
     RDKit          3D

 27 28  0  0  1  0  0  0  0  0999 V2000
   10.1357  -17.0075   18.7696 N   0  0  0  0  0  0  0  0  0  0  0  0
    9.2169  -16.1439   19.4395 C   0  0  1  0  0  0  0  0  0  0  0  0
    7.9642  -16.0232   18.5703 C   0  0  0  0  0  0  0  0  0  0  0  0
    8.1583  -14.9440   17.5671 C   0  0  0  0  0  0  0  0  0  0  0  0
    9.2907  -14.2181   17.2632 C   0  0  0  0  0  0  0  0  0  0  0  0
    9.0177  -13.3265   16.2739 N   0  0  0  0  0  0  0  0  0  0  0  0
    7.7116  -13.4970   15.9602 C   0  0  0  0  0  0  0  0  0  0  0  0
    7.1981  -14.4688   16.7382 N   0  0  0  0  0  0  0  0  0  0  0  0
    8.8778  -16.5944   20.8052 C   0  0  0  0  0  0  0  0  0  0  0  0
    7.8682  -17.3007   21.0451 O   0  0  0  0  0  0  0  0  0  0  0  0
    9.7153  -16.2234   21.9006 N   0  0  0  0  0  0  0  0  0  0  0  0
    9.3319  -16.6299   23.2178 C   0  0  0  0  0  0  0  0  0  0  0  0
   10.1507  -16.0690   24.3116 C   0  0  0  0  0  0  0  0  0  0  0  0
   11.4191  -16.2130   24.2847 O   0  0  0  0  0  0  0  0  0  0  0  0
    5.7543  -10.9915   26.0520 O   0  0  0  0  0  0  0  0  0  0  0  0
    6.3563  -12.2007   26.3578 C   0  0  0  0  0  0  0  0  0  0  0  0
    5.8541  -13.3796   25.8706 C   0  0  0  0  0  0  0  0  0  0  0  0
    6.4735  -14.5550   26.1926 C   0  0  0  0  0  0  0  0  0  0  0  0
    7.6017  -14.6139   27.0002 C   0  0  0  0  0  0  0  0  0  0  0  0
    8.2883  -15.8610   27.3736 C   0  0  0  0  0  0  0  0  0  0  0  0
    9.6602  -15.9314   26.7847 C   0  0  2  0  0  0  0  0  0  0  0  0
    9.6561  -15.3603   25.4310 N   0  0  0  0  0  0  0  0  0  0  0  0
   10.2079  -17.3031   26.7621 C   0  0  0  0  0  0  0  0  0  0  0  0
   11.1451  -17.6422   25.8184 O   0  0  0  0  0  0  0  0  0  0  0  0
    8.1035  -13.4038   27.4901 C   0  0  0  0  0  0  0  0  0  0  0  0
    7.4727  -12.2350   27.1591 C   0  0  0  0  0  0  0  0  0  0  0  0
    9.8302  -18.1754   27.5933 O   0  0  0  0  0  0  0  0  0  0  0  0
  2  1  1  6
  2  3  1  0
  4  3  1  0
  4  8  1  0
  5  4  2  0
  6  5  1  0
  6  7  1  0
  7  8  2  0
  9  2  1  0
 10  9  2  0
 11  9  1  0
 12 11  1  0
 13 22  1  0
 13 12  1  0
 14 13  2  0
 16 15  1  0
 17 16  2  0
 18 17  1  0
 19 25  1  0
 19 18  2  0
 21 20  1  6
 20 19  1  0
 21 23  1  0
 21 22  1  0
 23 24  1  0
 25 26  2  0
 26 16  1  0
 27 23  2  0
M  END
$$$$
