HGY.pdb
     RDKit          3D

 27 28  0  0  1  0  0  0  0  0999 V2000
   10.7940  -13.7128   19.3046 N   0  0  0  0  0  0  0  0  0  0  0  0
    9.9692  -14.7620   19.8122 C   0  0  1  0  0  0  0  0  0  0  0  0
    9.4232  -15.5504   18.6208 C   0  0  0  0  0  0  0  0  0  0  0  0
    8.7283  -14.6242   17.6891 C   0  0  0  0  0  0  0  0  0  0  0  0
    8.4413  -13.2830   17.8326 C   0  0  0  0  0  0  0  0  0  0  0  0
    7.7892  -12.8284   16.7298 N   0  0  0  0  0  0  0  0  0  0  0  0
    7.6692  -13.8889   15.8966 C   0  0  0  0  0  0  0  0  0  0  0  0
    8.2340  -14.9659   16.4752 N   0  0  0  0  0  0  0  0  0  0  0  0
   10.6688  -15.6494   20.7642 C   0  0  0  0  0  0  0  0  0  0  0  0
   11.8310  -16.0737   20.5527 O   0  0  0  0  0  0  0  0  0  0  0  0
   10.0161  -16.0476   21.9702 N   0  0  0  0  0  0  0  0  0  0  0  0
   10.8022  -16.1744   23.1590 C   0  0  0  0  0  0  0  0  0  0  0  0
   10.0308  -16.3425   24.4072 C   0  0  0  0  0  0  0  0  0  0  0  0
   10.6474  -16.4059   25.5234 O   0  0  0  0  0  0  0  0  0  0  0  0
    7.3707  -10.4886   26.7143 O   0  0  0  0  0  0  0  0  0  0  0  0
    7.1798  -11.8468   26.5225 C   0  0  0  0  0  0  0  0  0  0  0  0
    6.8294  -12.6623   27.5673 C   0  0  0  0  0  0  0  0  0  0  0  0
    6.6490  -13.9986   27.3422 C   0  0  0  0  0  0  0  0  0  0  0  0
    6.8060  -14.5781   26.0899 C   0  0  0  0  0  0  0  0  0  0  0  0
    6.6284  -16.0128   25.8135 C   0  0  0  0  0  0  0  0  0  0  0  0
    7.9386  -16.7304   25.7666 C   0  0  2  0  0  0  0  0  0  0  0  0
    8.6232  -16.4446   24.4984 N   0  0  0  0  0  0  0  0  0  0  0  0
    7.8043  -18.1885   25.9609 C   0  0  0  0  0  0  0  0  0  0  0  0
    7.3607  -18.6727   27.1662 O   0  0  0  0  0  0  0  0  0  0  0  0
    7.1634  -13.7346   25.0332 C   0  0  0  0  0  0  0  0  0  0  0  0
    7.3404  -12.3988   25.2739 C   0  0  0  0  0  0  0  0  0  0  0  0
    8.0918  -19.0035   25.0403 O   0  0  0  0  0  0  0  0  0  0  0  0
  2  1  1  6
  2  3  1  0
  4  3  1  0
  4  8  1  0
  5  4  2  0
  6  5  1  0
  6  7  1  0
  7  8  2  0
  9  2  1  0
 10  9  2  0
 11  9  1  0
 12 11  1  0
 13 22  1  0
 13 12  1  0
 14 13  2  0
 16 15  1  0
 17 16  2  0
 18 17  1  0
 19 25  1  0
 19 18  2  0
 21 20  1  6
 20 19  1  0
 21 23  1  0
 21 22  1  0
 23 24  1  0
 25 26  2  0
 26 16  1  0
 27 23  2  0
M  END
$$$$
