HGY.pdb
     RDKit          3D

 27 28  0  0  1  0  0  0  0  0999 V2000
    9.8281  -18.1047   21.9376 N   0  0  0  0  0  0  0  0  0  0  0  0
    8.9676  -17.0976   21.4046 C   0  0  1  0  0  0  0  0  0  0  0  0
    8.7561  -17.3961   19.9196 C   0  0  0  0  0  0  0  0  0  0  0  0
   10.0216  -17.1530   19.1793 C   0  0  0  0  0  0  0  0  0  0  0  0
   10.9908  -16.1937   19.3843 C   0  0  0  0  0  0  0  0  0  0  0  0
   11.9853  -16.3370   18.4686 N   0  0  0  0  0  0  0  0  0  0  0  0
   11.6352  -17.3884   17.6906 C   0  0  0  0  0  0  0  0  0  0  0  0
   10.4556  -17.8764   18.1195 N   0  0  0  0  0  0  0  0  0  0  0  0
    7.6775  -16.9915   22.1171 C   0  0  0  0  0  0  0  0  0  0  0  0
    6.7920  -16.1689   21.7781 O   0  0  0  0  0  0  0  0  0  0  0  0
    7.4122  -17.8453   23.2304 N   0  0  0  0  0  0  0  0  0  0  0  0
    6.2140  -17.6298   23.9823 C   0  0  0  0  0  0  0  0  0  0  0  0
    6.1978  -16.3995   24.7993 C   0  0  0  0  0  0  0  0  0  0  0  0
    5.1603  -16.1154   25.4871 O   0  0  0  0  0  0  0  0  0  0  0  0
   11.6137  -16.3657   29.3915 O   0  0  0  0  0  0  0  0  0  0  0  0
   10.4542  -15.8902   28.8019 C   0  0  0  0  0  0  0  0  0  0  0  0
    9.5718  -16.7460   28.1950 C   0  0  0  0  0  0  0  0  0  0  0  0
    8.4369  -16.2424   27.6228 C   0  0  0  0  0  0  0  0  0  0  0  0
    8.1304  -14.8879   27.6263 C   0  0  0  0  0  0  0  0  0  0  0  0
    6.9233  -14.3107   27.0131 C   0  0  0  0  0  0  0  0  0  0  0  0
    7.0796  -14.1509   25.5354 C   0  0  2  0  0  0  0  0  0  0  0  0
    7.2546  -15.4655   24.9031 N   0  0  0  0  0  0  0  0  0  0  0  0
    8.1922  -13.2515   25.1675 C   0  0  0  0  0  0  0  0  0  0  0  0
    9.1758  -13.7021   24.3230 O   0  0  0  0  0  0  0  0  0  0  0  0
    9.0393  -14.0264   28.2490 C   0  0  0  0  0  0  0  0  0  0  0  0
   10.1711  -14.5453   28.8176 C   0  0  0  0  0  0  0  0  0  0  0  0
    8.2607  -12.0732   25.6162 O   0  0  0  0  0  0  0  0  0  0  0  0
  2  1  1  1
  2  3  1  0
  4  3  1  0
  4  8  1  0
  5  4  2  0
  6  5  1  0
  6  7  1  0
  7  8  2  0
  9  2  1  0
 10  9  2  0
 11  9  1  0
 12 11  1  0
 13 22  1  0
 13 12  1  0
 14 13  2  0
 16 15  1  0
 17 16  2  0
 18 17  1  0
 19 25  1  0
 19 18  2  0
 21 20  1  1
 20 19  1  0
 21 23  1  0
 21 22  1  0
 23 24  1  0
 25 26  2  0
 26 16  1  0
 27 23  2  0
M  END
$$$$
