HGY.pdb
     RDKit          3D

 27 28  0  0  1  0  0  0  0  0999 V2000
    9.0082  -15.9627   18.9411 N   0  0  0  0  0  0  0  0  0  0  0  0
    8.1131  -15.2335   19.7813 C   0  0  1  0  0  0  0  0  0  0  0  0
    6.9932  -14.6734   18.9030 C   0  0  0  0  0  0  0  0  0  0  0  0
    7.5840  -13.9398   17.7533 C   0  0  0  0  0  0  0  0  0  0  0  0
    8.1608  -12.6879   17.7107 C   0  0  0  0  0  0  0  0  0  0  0  0
    8.5712  -12.4100   16.4448 N   0  0  0  0  0  0  0  0  0  0  0  0
    8.2494  -13.4915   15.6963 C   0  0  0  0  0  0  0  0  0  0  0  0
    7.6568  -14.4085   16.4845 N   0  0  0  0  0  0  0  0  0  0  0  0
    7.5673  -16.0376   20.8942 C   0  0  0  0  0  0  0  0  0  0  0  0
    6.8384  -15.5379   21.7857 O   0  0  0  0  0  0  0  0  0  0  0  0
    7.8687  -17.4310   20.9741 N   0  0  0  0  0  0  0  0  0  0  0  0
    7.4288  -18.1570   22.1260 C   0  0  0  0  0  0  0  0  0  0  0  0
    8.1746  -17.8748   23.3691 C   0  0  0  0  0  0  0  0  0  0  0  0
    9.1048  -18.6678   23.7379 O   0  0  0  0  0  0  0  0  0  0  0  0
   11.3561  -14.5264   30.8261 O   0  0  0  0  0  0  0  0  0  0  0  0
   10.6425  -14.6691   29.6478 C   0  0  0  0  0  0  0  0  0  0  0  0
    9.4986  -13.9466   29.4264 C   0  0  0  0  0  0  0  0  0  0  0  0
    8.8189  -14.1123   28.2518 C   0  0  0  0  0  0  0  0  0  0  0  0
    9.2363  -14.9888   27.2588 C   0  0  0  0  0  0  0  0  0  0  0  0
    8.5252  -15.1984   25.9872 C   0  0  0  0  0  0  0  0  0  0  0  0
    8.7114  -16.5903   25.4758 C   0  0  2  0  0  0  0  0  0  0  0  0
    7.9568  -16.7728   24.2284 N   0  0  0  0  0  0  0  0  0  0  0  0
    8.3312  -17.6223   26.4620 C   0  0  0  0  0  0  0  0  0  0  0  0
    9.3105  -18.3403   27.1018 O   0  0  0  0  0  0  0  0  0  0  0  0
   10.4047  -15.7193   27.4978 C   0  0  0  0  0  0  0  0  0  0  0  0
   11.0745  -15.5426   28.6783 C   0  0  0  0  0  0  0  0  0  0  0  0
    7.1206  -17.8617   26.7293 O   0  0  0  0  0  0  0  0  0  0  0  0
  2  1  1  6
  2  3  1  0
  4  3  1  0
  4  8  1  0
  5  4  2  0
  6  5  1  0
  6  7  1  0
  7  8  2  0
  9  2  1  0
 10  9  2  0
 11  9  1  0
 12 11  1  0
 13 22  1  0
 13 12  1  0
 14 13  2  0
 16 15  1  0
 17 16  2  0
 18 17  1  0
 19 25  1  0
 19 18  2  0
 21 20  1  1
 20 19  1  0
 21 23  1  0
 21 22  1  0
 23 24  1  0
 25 26  2  0
 26 16  1  0
 27 23  2  0
M  END
$$$$
