HGY.pdb
     RDKit          3D

 27 28  0  0  1  0  0  0  0  0999 V2000
    8.5401  -16.0350   20.1351 N   0  0  0  0  0  0  0  0  0  0  0  0
    9.8952  -15.9434   19.6943 C   0  0  1  0  0  0  0  0  0  0  0  0
   10.0324  -14.6732   18.8536 C   0  0  0  0  0  0  0  0  0  0  0  0
    9.0525  -14.7088   17.7368 C   0  0  0  0  0  0  0  0  0  0  0  0
    8.2233  -15.7312   17.3257 C   0  0  0  0  0  0  0  0  0  0  0  0
    7.4872  -15.3288   16.2559 N   0  0  0  0  0  0  0  0  0  0  0  0
    7.8585  -14.0522   15.9994 C   0  0  0  0  0  0  0  0  0  0  0  0
    8.7984  -13.6825   16.8901 N   0  0  0  0  0  0  0  0  0  0  0  0
   10.8741  -15.9597   20.8009 C   0  0  0  0  0  0  0  0  0  0  0  0
   12.1073  -15.8317   20.6048 O   0  0  0  0  0  0  0  0  0  0  0  0
   10.4200  -16.1256   22.1444 N   0  0  0  0  0  0  0  0  0  0  0  0
   11.3951  -16.1789   23.1902 C   0  0  0  0  0  0  0  0  0  0  0  0
   10.8462  -16.1826   24.5614 C   0  0  0  0  0  0  0  0  0  0  0  0
   11.6438  -16.2241   25.5576 O   0  0  0  0  0  0  0  0  0  0  0  0
    6.9120  -10.8389   26.8727 O   0  0  0  0  0  0  0  0  0  0  0  0
    7.0457  -12.2071   26.7044 C   0  0  0  0  0  0  0  0  0  0  0  0
    6.5399  -12.8319   25.5938 C   0  0  0  0  0  0  0  0  0  0  0  0
    6.6898  -14.1841   25.4599 C   0  0  0  0  0  0  0  0  0  0  0  0
    7.3379  -14.9663   26.4068 C   0  0  0  0  0  0  0  0  0  0  0  0
    7.5097  -16.4241   26.2992 C   0  0  0  0  0  0  0  0  0  0  0  0
    8.9440  -16.7961   26.1044 C   0  0  2  0  0  0  0  0  0  0  0  0
    9.4736  -16.1432   24.8994 N   0  0  0  0  0  0  0  0  0  0  0  0
    9.1560  -18.2563   26.0330 C   0  0  0  0  0  0  0  0  0  0  0  0
    9.2337  -18.9863   27.1927 O   0  0  0  0  0  0  0  0  0  0  0  0
    7.8490  -14.3159   27.5346 C   0  0  0  0  0  0  0  0  0  0  0  0
    7.6914  -12.9616   27.6547 C   0  0  0  0  0  0  0  0  0  0  0  0
    9.2703  -18.8504   24.9247 O   0  0  0  0  0  0  0  0  0  0  0  0
  2  1  1  1
  2  3  1  0
  4  3  1  0
  4  8  1  0
  5  4  2  0
  6  5  1  0
  6  7  1  0
  7  8  2  0
  9  2  1  0
 10  9  2  0
 11  9  1  0
 12 11  1  0
 13 22  1  0
 13 12  1  0
 14 13  2  0
 16 15  1  0
 17 16  2  0
 18 17  1  0
 19 25  1  0
 19 18  2  0
 21 20  1  6
 20 19  1  0
 21 23  1  0
 21 22  1  0
 23 24  1  0
 25 26  2  0
 26 16  1  0
 27 23  2  0
M  END
$$$$
