HGY.pdb
     RDKit          3D

 27 28  0  0  1  0  0  0  0  0999 V2000
    8.6941  -15.7561   22.0501 N   0  0  0  0  0  0  0  0  0  0  0  0
    7.3178  -15.4692   22.2997 C   0  0  1  0  0  0  0  0  0  0  0  0
    6.6250  -15.2733   20.9504 C   0  0  0  0  0  0  0  0  0  0  0  0
    7.3482  -14.2380   20.1668 C   0  0  0  0  0  0  0  0  0  0  0  0
    7.5304  -12.8979   20.4361 C   0  0  0  0  0  0  0  0  0  0  0  0
    8.2595  -12.3211   19.4443 N   0  0  0  0  0  0  0  0  0  0  0  0
    8.5326  -13.3042   18.5542 C   0  0  0  0  0  0  0  0  0  0  0  0
    7.9842  -14.4541   18.9906 N   0  0  0  0  0  0  0  0  0  0  0  0
    6.6387  -16.5070   23.1029 C   0  0  0  0  0  0  0  0  0  0  0  0
    6.0688  -17.4937   22.5764 O   0  0  0  0  0  0  0  0  0  0  0  0
    6.6204  -16.3999   24.5267 N   0  0  0  0  0  0  0  0  0  0  0  0
    7.2706  -17.4179   25.2936 C   0  0  0  0  0  0  0  0  0  0  0  0
    8.5401  -17.0110   25.9293 C   0  0  0  0  0  0  0  0  0  0  0  0
    9.6213  -17.0428   25.2509 O   0  0  0  0  0  0  0  0  0  0  0  0
    6.1858  -11.7764   24.8378 O   0  0  0  0  0  0  0  0  0  0  0  0
    7.0190  -12.4702   25.6994 C   0  0  0  0  0  0  0  0  0  0  0  0
    6.5835  -12.8549   26.9412 C   0  0  0  0  0  0  0  0  0  0  0  0
    7.4326  -13.5385   27.7662 C   0  0  0  0  0  0  0  0  0  0  0  0
    8.7323  -13.8664   27.4030 C   0  0  0  0  0  0  0  0  0  0  0  0
    9.6753  -14.5932   28.2684 C   0  0  0  0  0  0  0  0  0  0  0  0
    9.9365  -15.9740   27.7598 C   0  0  2  0  0  0  0  0  0  0  0  0
    8.6888  -16.5721   27.2655 N   0  0  0  0  0  0  0  0  0  0  0  0
   10.5620  -16.8515   28.7702 C   0  0  0  0  0  0  0  0  0  0  0  0
   11.8090  -16.5444   29.2544 O   0  0  0  0  0  0  0  0  0  0  0  0
    9.1633  -13.4680   26.1336 C   0  0  0  0  0  0  0  0  0  0  0  0
    8.3019  -12.7844   25.3186 C   0  0  0  0  0  0  0  0  0  0  0  0
    9.9741  -17.8836   29.1987 O   0  0  0  0  0  0  0  0  0  0  0  0
  2  1  1  6
  2  3  1  0
  4  3  1  0
  4  8  1  0
  5  4  2  0
  6  5  1  0
  6  7  1  0
  7  8  2  0
  9  2  1  0
 10  9  2  0
 11  9  1  0
 12 11  1  0
 13 22  1  0
 13 12  1  0
 14 13  2  0
 16 15  1  0
 17 16  2  0
 18 17  1  0
 19 25  1  0
 19 18  2  0
 21 20  1  1
 20 19  1  0
 21 23  1  0
 21 22  1  0
 23 24  1  0
 25 26  2  0
 26 16  1  0
 27 23  2  0
M  END
$$$$
