HGY.pdb
     RDKit          3D

 27 28  0  0  1  0  0  0  0  0999 V2000
    9.1060  -15.2056   21.2928 N   0  0  0  0  0  0  0  0  0  0  0  0
    7.7746  -14.9822   21.7579 C   0  0  1  0  0  0  0  0  0  0  0  0
    6.8300  -15.1092   20.5618 C   0  0  0  0  0  0  0  0  0  0  0  0
    7.3658  -14.3223   19.4205 C   0  0  0  0  0  0  0  0  0  0  0  0
    7.6572  -12.9769   19.3387 C   0  0  0  0  0  0  0  0  0  0  0  0
    8.1297  -12.6798   18.0991 N   0  0  0  0  0  0  0  0  0  0  0  0
    8.1329  -13.8431   17.4062 C   0  0  0  0  0  0  0  0  0  0  0  0
    7.6737  -14.8276   18.2020 N   0  0  0  0  0  0  0  0  0  0  0  0
    7.3755  -15.8911   22.8523 C   0  0  0  0  0  0  0  0  0  0  0  0
    6.2506  -16.4472   22.8832 O   0  0  0  0  0  0  0  0  0  0  0  0
    8.2873  -16.1573   23.9185 N   0  0  0  0  0  0  0  0  0  0  0  0
    7.8772  -17.0527   24.9564 C   0  0  0  0  0  0  0  0  0  0  0  0
    8.8315  -17.1978   26.0743 C   0  0  0  0  0  0  0  0  0  0  0  0
    9.8598  -17.9409   25.9306 O   0  0  0  0  0  0  0  0  0  0  0  0
    6.4884  -11.7423   24.6249 O   0  0  0  0  0  0  0  0  0  0  0  0
    7.1916  -12.4399   25.5928 C   0  0  0  0  0  0  0  0  0  0  0  0
    6.5872  -12.8230   26.7622 C   0  0  0  0  0  0  0  0  0  0  0  0
    7.3113  -13.5104   27.6961 C   0  0  0  0  0  0  0  0  0  0  0  0
    8.6472  -13.8439   27.5155 C   0  0  0  0  0  0  0  0  0  0  0  0
    9.4587  -14.5749   28.5022 C   0  0  0  0  0  0  0  0  0  0  0  0
    9.8620  -15.9212   27.9937 C   0  0  2  0  0  0  0  0  0  0  0  0
    8.7203  -16.5740   27.3386 N   0  0  0  0  0  0  0  0  0  0  0  0
   10.4165  -16.7934   29.0491 C   0  0  0  0  0  0  0  0  0  0  0  0
    9.8022  -17.9878   29.3321 O   0  0  0  0  0  0  0  0  0  0  0  0
    9.2511  -13.4471   26.3180 C   0  0  0  0  0  0  0  0  0  0  0  0
    8.5134  -12.7596   25.3925 C   0  0  0  0  0  0  0  0  0  0  0  0
   11.4458  -16.4628   29.7014 O   0  0  0  0  0  0  0  0  0  0  0  0
  2  1  1  6
  2  3  1  0
  4  3  1  0
  4  8  1  0
  5  4  2  0
  6  5  1  0
  6  7  1  0
  7  8  2  0
  9  2  1  0
 10  9  2  0
 11  9  1  0
 12 11  1  0
 13 22  1  0
 13 12  1  0
 14 13  2  0
 16 15  1  0
 17 16  2  0
 18 17  1  0
 19 25  1  0
 19 18  2  0
 21 20  1  1
 20 19  1  0
 21 23  1  0
 21 22  1  0
 23 24  1  0
 25 26  2  0
 26 16  1  0
 27 23  2  0
M  END
$$$$
