ETL.pdb
     RDKit          3D

 25 24  0  0  1  0  0  0  0  0999 V2000
   11.9525  -18.4082   20.5450 N   0  0  0  0  0  0  0  0  0  0  0  0
   11.0704  -17.5935   19.7871 C   0  0  1  0  0  0  0  0  0  0  0  0
   10.7246  -18.1085   18.4116 C   0  0  0  0  0  0  0  0  0  0  0  0
   11.8710  -18.2005   17.4830 C   0  0  0  0  0  0  0  0  0  0  0  0
   11.4892  -18.6107   16.1297 C   0  0  0  0  0  0  0  0  0  0  0  0
   12.2816  -18.7745   15.1721 O   0  0  0  0  0  0  0  0  0  0  0  0
    9.7915  -17.2752   20.5174 C   0  0  0  0  0  0  0  0  0  0  0  0
    8.8460  -16.6754   19.9254 O   0  0  0  0  0  0  0  0  0  0  0  0
   10.1311  -18.8541   15.8502 O   0  0  0  0  0  0  0  0  0  0  0  0
    7.2972  -19.5764   22.2253 C   0  0  0  0  0  0  0  0  0  0  0  0
    7.7638  -18.5360   23.2138 C   0  0  1  0  0  0  0  0  0  0  0  0
    8.8040  -19.1737   23.9299 O   0  0  0  0  0  0  0  0  0  0  0  0
    8.3060  -17.2763   22.5381 C   0  0  2  0  0  0  0  0  0  0  0  0
    9.5683  -17.6152   21.8679 N   0  0  0  0  0  0  0  0  0  0  0  0
    8.5240  -16.2641   23.5761 C   0  0  0  0  0  0  0  0  0  0  0  0
    9.7529  -16.0494   23.9008 O   0  0  0  0  0  0  0  0  0  0  0  0
    5.7579  -11.9123   27.0749 C   0  0  0  0  0  0  0  0  0  0  0  0
    7.0777  -12.6306   26.7513 C   0  0  2  0  0  0  0  0  0  0  0  0
    8.0654  -11.5460   26.4400 C   0  0  0  0  0  0  0  0  0  0  0  0
    6.8418  -13.5616   25.6277 C   0  0  0  0  0  0  0  0  0  0  0  0
    7.9660  -14.5028   25.2915 C   0  0  2  0  0  0  0  0  0  0  0  0
    7.5978  -15.4894   24.2714 N   0  0  0  0  0  0  0  0  0  0  0  0
    8.2515  -15.3007   26.5115 C   0  0  0  0  0  0  0  0  0  0  0  0
    9.2963  -14.9242   27.3888 O   0  0  0  0  0  0  0  0  0  0  0  0
    7.6239  -16.3257   26.8619 O   0  0  0  0  0  0  0  0  0  0  0  0
  2  1  1  1
  3  2  1  0
  4  3  1  0
  5  4  1  0
  6  5  2  0
  7 14  1  0
  7  2  1  0
  8  7  2  0
  9  5  1  0
 11 10  1  6
 11 13  1  0
 12 11  1  0
 13 15  1  0
 13 14  1  1
 15 22  1  0
 16 15  2  0
 18 20  1  0
 18 17  1  6
 19 18  1  0
 21 23  1  0
 21 20  1  1
 22 21  1  0
 23 24  1  0
 25 23  2  0
M  END
$$$$
