ETL.pdb
     RDKit          3D

 25 24  0  0  1  0  0  0  0  0999 V2000
    8.2246  -14.6257   17.8315 N   0  0  0  0  0  0  0  0  0  0  0  0
    8.9590  -14.5303   19.0430 C   0  0  1  0  0  0  0  0  0  0  0  0
    9.5517  -13.1755   19.3431 C   0  0  0  0  0  0  0  0  0  0  0  0
   10.8383  -12.9037   18.6680 C   0  0  0  0  0  0  0  0  0  0  0  0
   11.9151  -13.8032   19.0889 C   0  0  0  0  0  0  0  0  0  0  0  0
   12.2925  -13.9769   20.2717 O   0  0  0  0  0  0  0  0  0  0  0  0
    8.1729  -14.9884   20.2440 C   0  0  0  0  0  0  0  0  0  0  0  0
    6.9435  -14.7039   20.3537 O   0  0  0  0  0  0  0  0  0  0  0  0
   12.5974  -14.5517   18.1113 O   0  0  0  0  0  0  0  0  0  0  0  0
    7.2770  -18.3762   21.3373 C   0  0  0  0  0  0  0  0  0  0  0  0
    7.9758  -17.7138   22.4994 C   0  0  1  0  0  0  0  0  0  0  0  0
    9.3190  -18.1448   22.3931 O   0  0  0  0  0  0  0  0  0  0  0  0
    7.9218  -16.1874   22.4325 C   0  0  2  0  0  0  0  0  0  0  0  0
    8.7364  -15.7431   21.2938 N   0  0  0  0  0  0  0  0  0  0  0  0
    8.4568  -15.6600   23.6915 C   0  0  0  0  0  0  0  0  0  0  0  0
    9.7268  -15.4405   23.7129 O   0  0  0  0  0  0  0  0  0  0  0  0
    8.0453  -11.6695   25.7850 C   0  0  0  0  0  0  0  0  0  0  0  0
    6.9501  -12.7122   26.0606 C   0  0  2  0  0  0  0  0  0  0  0  0
    5.8747  -11.9842   26.8105 C   0  0  0  0  0  0  0  0  0  0  0  0
    7.5488  -13.8327   26.8162 C   0  0  0  0  0  0  0  0  0  0  0  0
    8.4542  -14.7525   26.0436 C   0  0  2  0  0  0  0  0  0  0  0  0
    7.7966  -15.3548   24.8799 N   0  0  0  0  0  0  0  0  0  0  0  0
    8.7825  -15.8959   26.9332 C   0  0  0  0  0  0  0  0  0  0  0  0
    9.6478  -15.7210   28.0394 O   0  0  0  0  0  0  0  0  0  0  0  0
    8.3436  -17.0604   26.7970 O   0  0  0  0  0  0  0  0  0  0  0  0
  2  1  1  6
  3  2  1  0
  4  3  1  0
  5  4  1  0
  6  5  2  0
  7 14  1  0
  7  2  1  0
  8  7  2  0
  9  5  1  0
 11 10  1  6
 11 13  1  0
 12 11  1  0
 13 15  1  0
 13 14  1  6
 15 22  1  0
 16 15  2  0
 18 20  1  0
 18 17  1  1
 19 18  1  0
 21 23  1  0
 21 20  1  1
 22 21  1  0
 23 24  1  0
 25 23  2  0
M  END
$$$$
