ETL.pdb
     RDKit          3D

 25 24  0  0  1  0  0  0  0  0999 V2000
   11.7982  -14.7007   18.2817 N   0  0  0  0  0  0  0  0  0  0  0  0
   11.8407  -15.1037   19.6426 C   0  0  1  0  0  0  0  0  0  0  0  0
   13.0027  -14.5727   20.4454 C   0  0  0  0  0  0  0  0  0  0  0  0
   14.3314  -14.8400   19.8554 C   0  0  0  0  0  0  0  0  0  0  0  0
   15.4398  -14.3443   20.6747 C   0  0  0  0  0  0  0  0  0  0  0  0
   16.6162  -14.1758   20.2757 O   0  0  0  0  0  0  0  0  0  0  0  0
   10.5648  -14.8013   20.3848 C   0  0  0  0  0  0  0  0  0  0  0  0
    9.9424  -13.7178   20.1776 O   0  0  0  0  0  0  0  0  0  0  0  0
   15.1964  -14.0162   22.0218 O   0  0  0  0  0  0  0  0  0  0  0  0
    7.3427  -16.6322   20.3025 C   0  0  0  0  0  0  0  0  0  0  0  0
    7.7469  -16.5067   21.7510 C   0  0  1  0  0  0  0  0  0  0  0  0
    8.3779  -17.7377   22.0473 O   0  0  0  0  0  0  0  0  0  0  0  0
    8.7258  -15.3583   21.9966 C   0  0  2  0  0  0  0  0  0  0  0  0
    9.9949  -15.6790   21.3303 N   0  0  0  0  0  0  0  0  0  0  0  0
    8.9171  -15.2284   23.4443 C   0  0  0  0  0  0  0  0  0  0  0  0
   10.0778  -15.5694   23.8895 O   0  0  0  0  0  0  0  0  0  0  0  0
    8.2274  -11.6444   26.5609 C   0  0  0  0  0  0  0  0  0  0  0  0
    7.0668  -12.5675   26.1568 C   0  0  2  0  0  0  0  0  0  0  0  0
    5.8351  -11.9602   26.7594 C   0  0  0  0  0  0  0  0  0  0  0  0
    7.3594  -13.9309   26.6469 C   0  0  0  0  0  0  0  0  0  0  0  0
    8.3557  -14.7286   25.8508 C   0  0  2  0  0  0  0  0  0  0  0  0
    8.0288  -14.7869   24.4228 N   0  0  0  0  0  0  0  0  0  0  0  0
    8.2702  -16.1348   26.3217 C   0  0  0  0  0  0  0  0  0  0  0  0
    7.7502  -17.1453   25.4781 O   0  0  0  0  0  0  0  0  0  0  0  0
    8.6352  -16.5376   27.4494 O   0  0  0  0  0  0  0  0  0  0  0  0
  2  1  1  6
  3  2  1  0
  4  3  1  0
  5  4  1  0
  6  5  2  0
  7 14  1  0
  7  2  1  0
  8  7  2  0
  9  5  1  0
 11 10  1  6
 11 13  1  0
 12 11  1  0
 13 15  1  0
 13 14  1  6
 15 22  1  0
 16 15  2  0
 18 20  1  0
 18 17  1  1
 19 18  1  0
 21 23  1  0
 21 20  1  1
 22 21  1  0
 23 24  1  0
 25 23  2  0
M  END
$$$$
