ETL.pdb
     RDKit          3D

 25 24  0  0  1  0  0  0  0  0999 V2000
   13.1121  -17.2189   19.9167 N   0  0  0  0  0  0  0  0  0  0  0  0
   12.6212  -17.4072   21.2357 C   0  0  1  0  0  0  0  0  0  0  0  0
   13.6595  -17.3760   22.3301 C   0  0  0  0  0  0  0  0  0  0  0  0
   15.0529  -17.2524   21.8527 C   0  0  0  0  0  0  0  0  0  0  0  0
   15.8748  -16.3709   22.6853 C   0  0  0  0  0  0  0  0  0  0  0  0
   15.7851  -15.1211   22.7244 O   0  0  0  0  0  0  0  0  0  0  0  0
   11.5158  -16.4479   21.5935 C   0  0  0  0  0  0  0  0  0  0  0  0
   11.5640  -15.2410   21.2120 O   0  0  0  0  0  0  0  0  0  0  0  0
   16.8495  -16.9422   23.5250 O   0  0  0  0  0  0  0  0  0  0  0  0
    8.0597  -16.5436   20.4104 C   0  0  0  0  0  0  0  0  0  0  0  0
    8.0125  -16.5204   21.9186 C   0  0  1  0  0  0  0  0  0  0  0  0
    7.9312  -17.8835   22.2882 O   0  0  0  0  0  0  0  0  0  0  0  0
    9.2607  -15.8952   22.5419 C   0  0  2  0  0  0  0  0  0  0  0  0
   10.3869  -16.8191   22.3531 N   0  0  0  0  0  0  0  0  0  0  0  0
    8.9964  -15.6826   23.9682 C   0  0  0  0  0  0  0  0  0  0  0  0
    9.8175  -16.2529   24.7819 O   0  0  0  0  0  0  0  0  0  0  0  0
    5.9265  -11.7290   26.2104 C   0  0  0  0  0  0  0  0  0  0  0  0
    6.9091  -12.6987   26.8862 C   0  0  2  0  0  0  0  0  0  0  0  0
    8.2783  -12.2312   26.4915 C   0  0  0  0  0  0  0  0  0  0  0  0
    6.5963  -14.0718   26.4374 C   0  0  0  0  0  0  0  0  0  0  0  0
    7.7666  -14.9271   26.0354 C   0  0  2  0  0  0  0  0  0  0  0  0
    7.9848  -14.9500   24.5857 N   0  0  0  0  0  0  0  0  0  0  0  0
    7.4312  -16.3288   26.3950 C   0  0  0  0  0  0  0  0  0  0  0  0
    6.8728  -17.2040   25.4331 O   0  0  0  0  0  0  0  0  0  0  0  0
    7.6060  -16.8417   27.5235 O   0  0  0  0  0  0  0  0  0  0  0  0
  2  1  1  6
  3  2  1  0
  4  3  1  0
  5  4  1  0
  6  5  2  0
  7 14  1  0
  7  2  1  0
  8  7  2  0
  9  5  1  0
 11 10  1  6
 11 13  1  0
 12 11  1  0
 13 15  1  0
 13 14  1  1
 15 22  1  0
 16 15  2  0
 18 20  1  0
 18 17  1  6
 19 18  1  0
 21 23  1  0
 21 20  1  6
 22 21  1  0
 23 24  1  0
 25 23  2  0
M  END
$$$$
