ETL.pdb
     RDKit          3D

 25 24  0  0  1  0  0  0  0  0999 V2000
   13.5061  -18.1774   19.9906 N   0  0  0  0  0  0  0  0  0  0  0  0
   13.3063  -17.4842   21.2136 C   0  0  1  0  0  0  0  0  0  0  0  0
   14.2909  -16.3790   21.5068 C   0  0  0  0  0  0  0  0  0  0  0  0
   15.4593  -16.7936   22.3117 C   0  0  0  0  0  0  0  0  0  0  0  0
   16.4413  -15.7234   22.5019 C   0  0  0  0  0  0  0  0  0  0  0  0
   16.9335  -15.3797   23.6025 O   0  0  0  0  0  0  0  0  0  0  0  0
   11.9103  -16.9355   21.3564 C   0  0  0  0  0  0  0  0  0  0  0  0
   11.5162  -15.9827   20.6207 O   0  0  0  0  0  0  0  0  0  0  0  0
   16.8937  -15.0074   21.3776 O   0  0  0  0  0  0  0  0  0  0  0  0
    8.5700  -18.8098   21.0385 C   0  0  0  0  0  0  0  0  0  0  0  0
    8.6362  -18.0887   22.3625 C   0  0  1  0  0  0  0  0  0  0  0  0
    9.0979  -19.0682   23.2729 O   0  0  0  0  0  0  0  0  0  0  0  0
    9.6064  -16.9073   22.3471 C   0  0  2  0  0  0  0  0  0  0  0  0
   10.9771  -17.4324   22.2897 N   0  0  0  0  0  0  0  0  0  0  0  0
    9.3971  -16.1337   23.5747 C   0  0  0  0  0  0  0  0  0  0  0  0
   10.2618  -16.3238   24.5117 O   0  0  0  0  0  0  0  0  0  0  0  0
    5.5984  -12.1114   26.4617 C   0  0  0  0  0  0  0  0  0  0  0  0
    6.9078  -12.9115   26.5494 C   0  0  2  0  0  0  0  0  0  0  0  0
    7.9672  -11.9183   26.9239 C   0  0  0  0  0  0  0  0  0  0  0  0
    7.1429  -13.5704   25.2474 C   0  0  0  0  0  0  0  0  0  0  0  0
    8.2774  -14.5567   25.1919 C   0  0  2  0  0  0  0  0  0  0  0  0
    8.3982  -15.2139   23.8869 N   0  0  0  0  0  0  0  0  0  0  0  0
    7.9561  -15.6507   26.1440 C   0  0  0  0  0  0  0  0  0  0  0  0
    7.2702  -16.8081   25.7047 O   0  0  0  0  0  0  0  0  0  0  0  0
    8.2507  -15.6529   27.3608 O   0  0  0  0  0  0  0  0  0  0  0  0
  2  1  1  6
  3  2  1  0
  4  3  1  0
  5  4  1  0
  6  5  2  0
  7 14  1  0
  7  2  1  0
  8  7  2  0
  9  5  1  0
 11 10  1  6
 11 13  1  0
 12 11  1  0
 13 15  1  0
 13 14  1  1
 15 22  1  0
 16 15  2  0
 18 20  1  0
 18 17  1  6
 19 18  1  0
 21 23  1  0
 21 20  1  6
 22 21  1  0
 23 24  1  0
 25 23  2  0
M  END
$$$$
