ETL.pdb
     RDKit          3D

 25 24  0  0  1  0  0  0  0  0999 V2000
   11.7284  -17.0164   18.1609 N   0  0  0  0  0  0  0  0  0  0  0  0
   11.9445  -16.2887   19.3609 C   0  0  1  0  0  0  0  0  0  0  0  0
   12.9295  -15.1495   19.2661 C   0  0  0  0  0  0  0  0  0  0  0  0
   14.3018  -15.5523   18.8926 C   0  0  0  0  0  0  0  0  0  0  0  0
   15.2101  -14.4173   18.7120 C   0  0  0  0  0  0  0  0  0  0  0  0
   15.3549  -13.7678   17.6496 O   0  0  0  0  0  0  0  0  0  0  0  0
   10.6682  -15.7717   19.9723 C   0  0  0  0  0  0  0  0  0  0  0  0
   10.1262  -14.7154   19.5308 O   0  0  0  0  0  0  0  0  0  0  0  0
   15.9935  -13.9929   19.8018 O   0  0  0  0  0  0  0  0  0  0  0  0
    7.4780  -17.6231   20.0138 C   0  0  0  0  0  0  0  0  0  0  0  0
    7.7266  -17.1540   21.4265 C   0  0  1  0  0  0  0  0  0  0  0  0
    8.3086  -18.2714   22.0700 O   0  0  0  0  0  0  0  0  0  0  0  0
    8.6864  -15.9661   21.4971 C   0  0  2  0  0  0  0  0  0  0  0  0
   10.0108  -16.4113   21.0437 N   0  0  0  0  0  0  0  0  0  0  0  0
    8.7399  -15.5097   22.8893 C   0  0  0  0  0  0  0  0  0  0  0  0
    9.8282  -15.7778   23.5260 O   0  0  0  0  0  0  0  0  0  0  0  0
    5.5651  -12.6109   27.3671 C   0  0  0  0  0  0  0  0  0  0  0  0
    6.9439  -13.1643   26.9730 C   0  0  2  0  0  0  0  0  0  0  0  0
    7.9324  -12.1029   27.3543 C   0  0  0  0  0  0  0  0  0  0  0  0
    6.9297  -13.4731   25.5277 C   0  0  0  0  0  0  0  0  0  0  0  0
    7.9752  -14.4381   25.0394 C   0  0  2  0  0  0  0  0  0  0  0  0
    7.7864  -14.8221   23.6372 N   0  0  0  0  0  0  0  0  0  0  0  0
    7.8048  -15.6976   25.8083 C   0  0  0  0  0  0  0  0  0  0  0  0
    8.6675  -16.0034   26.8878 O   0  0  0  0  0  0  0  0  0  0  0  0
    6.9245  -16.5599   25.5874 O   0  0  0  0  0  0  0  0  0  0  0  0
  2  1  1  6
  3  2  1  0
  4  3  1  0
  5  4  1  0
  6  5  2  0
  7 14  1  0
  7  2  1  0
  8  7  2  0
  9  5  1  0
 11 10  1  6
 11 13  1  0
 12 11  1  0
 13 15  1  0
 13 14  1  1
 15 22  1  0
 16 15  2  0
 18 20  1  0
 18 17  1  6
 19 18  1  0
 21 23  1  0
 21 20  1  1
 22 21  1  0
 23 24  1  0
 25 23  2  0
M  END
$$$$
