ETL.pdb
     RDKit          3D

 25 24  0  0  1  0  0  0  0  0999 V2000
   13.2465  -16.5023   19.3566 N   0  0  0  0  0  0  0  0  0  0  0  0
   12.8766  -16.7479   20.7053 C   0  0  1  0  0  0  0  0  0  0  0  0
   13.8250  -16.2144   21.7506 C   0  0  0  0  0  0  0  0  0  0  0  0
   15.1729  -15.8795   21.2448 C   0  0  0  0  0  0  0  0  0  0  0  0
   16.0426  -15.2846   22.2623 C   0  0  0  0  0  0  0  0  0  0  0  0
   15.7331  -15.1046   23.4638 O   0  0  0  0  0  0  0  0  0  0  0  0
   11.4850  -16.2696   21.0291 C   0  0  0  0  0  0  0  0  0  0  0  0
   10.9331  -15.3742   20.3234 O   0  0  0  0  0  0  0  0  0  0  0  0
   17.3390  -14.8767   21.8953 O   0  0  0  0  0  0  0  0  0  0  0  0
    8.4860  -18.4163   20.9633 C   0  0  0  0  0  0  0  0  0  0  0  0
    8.4856  -17.7002   22.2917 C   0  0  1  0  0  0  0  0  0  0  0  0
    9.0698  -18.6247   23.1891 O   0  0  0  0  0  0  0  0  0  0  0  0
    9.3119  -16.4141   22.2729 C   0  0  2  0  0  0  0  0  0  0  0  0
   10.7265  -16.7730   22.1062 N   0  0  0  0  0  0  0  0  0  0  0  0
    9.0983  -15.7201   23.5465 C   0  0  0  0  0  0  0  0  0  0  0  0
   10.0612  -15.8042   24.3994 O   0  0  0  0  0  0  0  0  0  0  0  0
    5.7731  -11.4475   26.4414 C   0  0  0  0  0  0  0  0  0  0  0  0
    6.5662  -12.7335   26.7238 C   0  0  2  0  0  0  0  0  0  0  0  0
    7.8839  -12.2845   27.2815 C   0  0  0  0  0  0  0  0  0  0  0  0
    6.6822  -13.4990   25.4648 C   0  0  0  0  0  0  0  0  0  0  0  0
    7.9635  -14.2601   25.2602 C   0  0  2  0  0  0  0  0  0  0  0  0
    8.0041  -14.9747   23.9807 N   0  0  0  0  0  0  0  0  0  0  0  0
    8.0133  -15.3241   26.2956 C   0  0  0  0  0  0  0  0  0  0  0  0
    7.3869  -16.5736   26.0733 O   0  0  0  0  0  0  0  0  0  0  0  0
    8.5880  -15.2217   27.4030 O   0  0  0  0  0  0  0  0  0  0  0  0
  2  1  1  6
  3  2  1  0
  4  3  1  0
  5  4  1  0
  6  5  2  0
  7 14  1  0
  7  2  1  0
  8  7  2  0
  9  5  1  0
 11 10  1  6
 11 13  1  0
 12 11  1  0
 13 15  1  0
 13 14  1  1
 15 22  1  0
 16 15  2  0
 18 20  1  0
 18 17  1  6
 19 18  1  0
 21 23  1  0
 21 20  1  6
 22 21  1  0
 23 24  1  0
 25 23  2  0
M  END
$$$$
