ETL.pdb
     RDKit          3D

 25 24  0  0  1  0  0  0  0  0999 V2000
   10.4192  -19.0918   19.1890 N   0  0  0  0  0  0  0  0  0  0  0  0
   10.8678  -18.6150   20.4491 C   0  0  1  0  0  0  0  0  0  0  0  0
   12.1901  -17.8881   20.4398 C   0  0  0  0  0  0  0  0  0  0  0  0
   13.2831  -18.6082   19.7529 C   0  0  0  0  0  0  0  0  0  0  0  0
   14.5267  -17.8378   19.6769 C   0  0  0  0  0  0  0  0  0  0  0  0
   14.9049  -17.1695   18.6859 O   0  0  0  0  0  0  0  0  0  0  0  0
    9.8490  -17.7518   21.1470 C   0  0  0  0  0  0  0  0  0  0  0  0
    9.1245  -16.9507   20.4854 O   0  0  0  0  0  0  0  0  0  0  0  0
   15.3860  -17.8213   20.7917 O   0  0  0  0  0  0  0  0  0  0  0  0
    6.8245  -18.8606   22.4397 C   0  0  0  0  0  0  0  0  0  0  0  0
    7.4806  -18.1500   23.5981 C   0  0  1  0  0  0  0  0  0  0  0  0
    8.1498  -19.1760   24.3058 O   0  0  0  0  0  0  0  0  0  0  0  0
    8.4917  -17.0941   23.1508 C   0  0  2  0  0  0  0  0  0  0  0  0
    9.6396  -17.7787   22.5415 N   0  0  0  0  0  0  0  0  0  0  0  0
    8.9073  -16.3354   24.3345 C   0  0  0  0  0  0  0  0  0  0  0  0
   10.1397  -16.4749   24.6858 O   0  0  0  0  0  0  0  0  0  0  0  0
    7.9621  -11.8583   25.4958 C   0  0  0  0  0  0  0  0  0  0  0  0
    6.9931  -12.9215   26.0372 C   0  0  2  0  0  0  0  0  0  0  0  0
    5.8951  -12.1615   26.7195 C   0  0  0  0  0  0  0  0  0  0  0  0
    7.7417  -13.8234   26.9377 C   0  0  0  0  0  0  0  0  0  0  0  0
    8.7327  -14.7483   26.2856 C   0  0  2  0  0  0  0  0  0  0  0  0
    8.1681  -15.4766   25.1453 N   0  0  0  0  0  0  0  0  0  0  0  0
    9.0750  -15.7977   27.2796 C   0  0  0  0  0  0  0  0  0  0  0  0
    9.8673  -15.4862   28.4102 O   0  0  0  0  0  0  0  0  0  0  0  0
    8.7097  -16.9934   27.2157 O   0  0  0  0  0  0  0  0  0  0  0  0
  2  1  1  6
  3  2  1  0
  4  3  1  0
  5  4  1  0
  6  5  2  0
  7 14  1  0
  7  2  1  0
  8  7  2  0
  9  5  1  0
 11 10  1  6
 11 13  1  0
 12 11  1  0
 13 15  1  0
 13 14  1  1
 15 22  1  0
 16 15  2  0
 18 20  1  0
 18 17  1  1
 19 18  1  0
 21 23  1  0
 21 20  1  1
 22 21  1  0
 23 24  1  0
 25 23  2  0
M  END
$$$$
