ETL.pdb
     RDKit          3D

 25 24  0  0  1  0  0  0  0  0999 V2000
   10.4522  -13.6621   18.9540 N   0  0  0  0  0  0  0  0  0  0  0  0
    9.0402  -13.5385   18.8693 C   0  0  1  0  0  0  0  0  0  0  0  0
    8.4370  -13.8459   17.5208 C   0  0  0  0  0  0  0  0  0  0  0  0
    8.8993  -15.1122   16.9143 C   0  0  0  0  0  0  0  0  0  0  0  0
    8.2661  -15.4028   15.6258 C   0  0  0  0  0  0  0  0  0  0  0  0
    7.5775  -16.4188   15.3703 O   0  0  0  0  0  0  0  0  0  0  0  0
    8.3161  -14.3453   19.9156 C   0  0  0  0  0  0  0  0  0  0  0  0
    7.0503  -14.3515   19.9598 O   0  0  0  0  0  0  0  0  0  0  0  0
    8.4190  -14.4844   14.5700 O   0  0  0  0  0  0  0  0  0  0  0  0
    8.1969  -18.0725   20.6843 C   0  0  0  0  0  0  0  0  0  0  0  0
    8.6881  -17.3183   21.8957 C   0  0  1  0  0  0  0  0  0  0  0  0
   10.0981  -17.3699   21.7934 O   0  0  0  0  0  0  0  0  0  0  0  0
    8.2298  -15.8599   21.9128 C   0  0  2  0  0  0  0  0  0  0  0  0
    8.9797  -15.1251   20.8855 N   0  0  0  0  0  0  0  0  0  0  0  0
    8.5040  -15.3149   23.2460 C   0  0  0  0  0  0  0  0  0  0  0  0
    9.7158  -14.9285   23.4555 O   0  0  0  0  0  0  0  0  0  0  0  0
    5.4351  -12.0261   26.6148 C   0  0  0  0  0  0  0  0  0  0  0  0
    6.8935  -12.5103   26.5799 C   0  0  2  0  0  0  0  0  0  0  0  0
    7.5493  -11.7462   25.4685 C   0  0  0  0  0  0  0  0  0  0  0  0
    6.8969  -13.9746   26.3787 C   0  0  0  0  0  0  0  0  0  0  0  0
    8.0546  -14.5406   25.6028 C   0  0  2  0  0  0  0  0  0  0  0  0
    7.6471  -15.1472   24.3318 N   0  0  0  0  0  0  0  0  0  0  0  0
    8.6131  -15.6618   26.4013 C   0  0  0  0  0  0  0  0  0  0  0  0
    8.3896  -17.0038   26.0111 O   0  0  0  0  0  0  0  0  0  0  0  0
    9.3019  -15.5311   27.4384 O   0  0  0  0  0  0  0  0  0  0  0  0
  2  1  1  6
  3  2  1  0
  4  3  1  0
  5  4  1  0
  6  5  2  0
  7 14  1  0
  7  2  1  0
  8  7  2  0
  9  5  1  0
 11 10  1  6
 11 13  1  0
 12 11  1  0
 13 15  1  0
 13 14  1  6
 15 22  1  0
 16 15  2  0
 18 20  1  0
 18 17  1  6
 19 18  1  0
 21 23  1  0
 21 20  1  1
 22 21  1  0
 23 24  1  0
 25 23  2  0
M  END
$$$$
