ETL.pdb
     RDKit          3D

 25 24  0  0  1  0  0  0  0  0999 V2000
   14.0245  -19.1994   21.3851 N   0  0  0  0  0  0  0  0  0  0  0  0
   14.0839  -17.7809   21.3627 C   0  0  1  0  0  0  0  0  0  0  0  0
   14.3589  -17.1594   20.0155 C   0  0  0  0  0  0  0  0  0  0  0  0
   14.6058  -18.1305   18.9289 C   0  0  0  0  0  0  0  0  0  0  0  0
   14.5242  -17.5376   17.5920 C   0  0  0  0  0  0  0  0  0  0  0  0
   13.4623  -17.2490   16.9915 O   0  0  0  0  0  0  0  0  0  0  0  0
   12.8576  -17.1323   21.9507 C   0  0  0  0  0  0  0  0  0  0  0  0
   12.6647  -15.8872   21.8211 O   0  0  0  0  0  0  0  0  0  0  0  0
   15.7167  -17.2510   16.9009 O   0  0  0  0  0  0  0  0  0  0  0  0
    9.0143  -18.0450   21.6107 C   0  0  0  0  0  0  0  0  0  0  0  0
    9.4769  -18.0274   23.0471 C   0  0  1  0  0  0  0  0  0  0  0  0
    9.7871  -19.3777   23.3325 O   0  0  0  0  0  0  0  0  0  0  0  0
   10.7187  -17.1615   23.2601 C   0  0  2  0  0  0  0  0  0  0  0  0
   11.8716  -17.8473   22.6618 N   0  0  0  0  0  0  0  0  0  0  0  0
   10.9081  -16.9891   24.7036 C   0  0  0  0  0  0  0  0  0  0  0  0
   11.9280  -17.5922   25.2114 O   0  0  0  0  0  0  0  0  0  0  0  0
   10.9162  -13.3277   28.4886 C   0  0  0  0  0  0  0  0  0  0  0  0
    9.8721  -13.8465   27.4869 C   0  0  2  0  0  0  0  0  0  0  0  0
    8.6895  -12.9344   27.6229 C   0  0  0  0  0  0  0  0  0  0  0  0
    9.5752  -15.2584   27.8078 C   0  0  0  0  0  0  0  0  0  0  0  0
   10.3757  -16.2952   27.0682 C   0  0  2  0  0  0  0  0  0  0  0  0
   10.1485  -16.2649   25.6201 N   0  0  0  0  0  0  0  0  0  0  0  0
    9.8828  -17.6263   27.5060 C   0  0  0  0  0  0  0  0  0  0  0  0
    9.1064  -18.4276   26.6353 O   0  0  0  0  0  0  0  0  0  0  0  0
   10.1005  -18.1392   28.6271 O   0  0  0  0  0  0  0  0  0  0  0  0
  2  1  1  6
  3  2  1  0
  4  3  1  0
  5  4  1  0
  6  5  2  0
  7 14  1  0
  7  2  1  0
  8  7  2  0
  9  5  1  0
 11 10  1  6
 11 13  1  0
 12 11  1  0
 13 15  1  0
 13 14  1  1
 15 22  1  0
 16 15  2  0
 18 20  1  0
 18 17  1  1
 19 18  1  0
 21 23  1  0
 21 20  1  1
 22 21  1  0
 23 24  1  0
 25 23  2  0
M  END
$$$$
