ETL.pdb
     RDKit          3D

 25 24  0  0  1  0  0  0  0  0999 V2000
   11.3335  -19.8898   20.5502 N   0  0  0  0  0  0  0  0  0  0  0  0
   11.7866  -18.5712   20.8192 C   0  0  1  0  0  0  0  0  0  0  0  0
   12.4108  -17.8441   19.6536 C   0  0  0  0  0  0  0  0  0  0  0  0
   13.7714  -18.3014   19.3007 C   0  0  0  0  0  0  0  0  0  0  0  0
   14.3658  -17.5507   18.1921 C   0  0  0  0  0  0  0  0  0  0  0  0
   15.0722  -16.5219   18.3109 O   0  0  0  0  0  0  0  0  0  0  0  0
   10.7179  -17.6935   21.4174 C   0  0  0  0  0  0  0  0  0  0  0  0
   10.2317  -16.7305   20.7537 O   0  0  0  0  0  0  0  0  0  0  0  0
   14.1501  -17.9977   16.8748 O   0  0  0  0  0  0  0  0  0  0  0  0
    7.4389  -19.0239   22.3228 C   0  0  0  0  0  0  0  0  0  0  0  0
    7.9372  -18.2535   23.5209 C   0  0  1  0  0  0  0  0  0  0  0  0
    8.5305  -19.2359   24.3480 O   0  0  0  0  0  0  0  0  0  0  0  0
    8.9792  -17.1962   23.1551 C   0  0  2  0  0  0  0  0  0  0  0  0
   10.2023  -17.8812   22.7166 N   0  0  0  0  0  0  0  0  0  0  0  0
    9.2376  -16.3837   24.3478 C   0  0  0  0  0  0  0  0  0  0  0  0
   10.4404  -16.4311   24.8088 O   0  0  0  0  0  0  0  0  0  0  0  0
    8.6038  -11.8248   25.9512 C   0  0  0  0  0  0  0  0  0  0  0  0
    7.4094  -12.7912   25.9064 C   0  0  2  0  0  0  0  0  0  0  0  0
    6.2159  -11.9823   26.3187 C   0  0  0  0  0  0  0  0  0  0  0  0
    7.6947  -13.9312   26.8029 C   0  0  0  0  0  0  0  0  0  0  0  0
    8.7347  -14.9099   26.3305 C   0  0  2  0  0  0  0  0  0  0  0  0
    8.3746  -15.5585   25.0659 N   0  0  0  0  0  0  0  0  0  0  0  0
    8.7862  -16.0116   27.3256 C   0  0  0  0  0  0  0  0  0  0  0  0
    9.4342  -15.8268   28.5702 O   0  0  0  0  0  0  0  0  0  0  0  0
    8.2833  -17.1469   27.1661 O   0  0  0  0  0  0  0  0  0  0  0  0
  2  1  1  6
  3  2  1  0
  4  3  1  0
  5  4  1  0
  6  5  2  0
  7 14  1  0
  7  2  1  0
  8  7  2  0
  9  5  1  0
 11 10  1  6
 11 13  1  0
 12 11  1  0
 13 15  1  0
 13 14  1  1
 15 22  1  0
 16 15  2  0
 18 20  1  0
 18 17  1  1
 19 18  1  0
 21 23  1  0
 21 20  1  1
 22 21  1  0
 23 24  1  0
 25 23  2  0
M  END
$$$$
