ETL.pdb
     RDKit          3D

 25 24  0  0  1  0  0  0  0  0999 V2000
   11.1970  -18.2897   18.7875 N   0  0  0  0  0  0  0  0  0  0  0  0
   11.5949  -17.9200   20.0994 C   0  0  1  0  0  0  0  0  0  0  0  0
   13.0213  -17.4486   20.2412 C   0  0  0  0  0  0  0  0  0  0  0  0
   14.0072  -18.2288   19.4640 C   0  0  0  0  0  0  0  0  0  0  0  0
   15.3752  -17.7191   19.5854 C   0  0  0  0  0  0  0  0  0  0  0  0
   16.0707  -17.7533   20.6279 O   0  0  0  0  0  0  0  0  0  0  0  0
   10.6846  -16.8935   20.7220 C   0  0  0  0  0  0  0  0  0  0  0  0
   10.7261  -15.6850   20.3448 O   0  0  0  0  0  0  0  0  0  0  0  0
   15.9894  -17.1436   18.4571 O   0  0  0  0  0  0  0  0  0  0  0  0
    7.0276  -17.1083   20.4558 C   0  0  0  0  0  0  0  0  0  0  0  0
    7.3472  -16.8872   21.9140 C   0  0  1  0  0  0  0  0  0  0  0  0
    7.3452  -18.1860   22.4747 O   0  0  0  0  0  0  0  0  0  0  0  0
    8.7150  -16.2392   22.1301 C   0  0  2  0  0  0  0  0  0  0  0  0
    9.7525  -17.2010   21.7348 N   0  0  0  0  0  0  0  0  0  0  0  0
    8.8354  -15.8996   23.5512 C   0  0  0  0  0  0  0  0  0  0  0  0
    9.8657  -16.3816   24.1577 O   0  0  0  0  0  0  0  0  0  0  0  0
    8.4588  -11.9865   26.6674 C   0  0  0  0  0  0  0  0  0  0  0  0
    7.2504  -12.6430   25.9809 C   0  0  2  0  0  0  0  0  0  0  0  0
    6.0619  -11.8161   26.3714 C   0  0  0  0  0  0  0  0  0  0  0  0
    7.1674  -14.0509   26.4231 C   0  0  0  0  0  0  0  0  0  0  0  0
    8.1546  -15.0047   25.8077 C   0  0  2  0  0  0  0  0  0  0  0  0
    8.0000  -15.1266   24.3549 N   0  0  0  0  0  0  0  0  0  0  0  0
    7.8501  -16.3574   26.3407 C   0  0  0  0  0  0  0  0  0  0  0  0
    7.1603  -17.3046   25.5469 O   0  0  0  0  0  0  0  0  0  0  0  0
    8.1630  -16.7664   27.4818 O   0  0  0  0  0  0  0  0  0  0  0  0
  2  1  1  6
  3  2  1  0
  4  3  1  0
  5  4  1  0
  6  5  2  0
  7 14  1  0
  7  2  1  0
  8  7  2  0
  9  5  1  0
 11 10  1  6
 11 13  1  0
 12 11  1  0
 13 15  1  0
 13 14  1  1
 15 22  1  0
 16 15  2  0
 18 20  1  0
 18 17  1  1
 19 18  1  0
 21 23  1  0
 21 20  1  1
 22 21  1  0
 23 24  1  0
 25 23  2  0
M  END
$$$$
