ETL.pdb
     RDKit          3D

 25 24  0  0  1  0  0  0  0  0999 V2000
   12.7338  -17.9487   19.5505 N   0  0  0  0  0  0  0  0  0  0  0  0
   12.5261  -17.5891   20.9084 C   0  0  1  0  0  0  0  0  0  0  0  0
   13.6006  -16.7306   21.5289 C   0  0  0  0  0  0  0  0  0  0  0  0
   14.9391  -17.3562   21.5725 C   0  0  0  0  0  0  0  0  0  0  0  0
   15.9222  -16.5700   22.3216 C   0  0  0  0  0  0  0  0  0  0  0  0
   16.9963  -16.1209   21.8564 O   0  0  0  0  0  0  0  0  0  0  0  0
   11.1901  -16.9336   21.1445 C   0  0  0  0  0  0  0  0  0  0  0  0
   10.7977  -15.9881   20.3987 O   0  0  0  0  0  0  0  0  0  0  0  0
   15.6677  -16.2723   23.6737 O   0  0  0  0  0  0  0  0  0  0  0  0
    7.8240  -18.5905   21.0159 C   0  0  0  0  0  0  0  0  0  0  0  0
    7.9494  -17.8695   22.3357 C   0  0  1  0  0  0  0  0  0  0  0  0
    8.3850  -18.8663   23.2401 O   0  0  0  0  0  0  0  0  0  0  0  0
    8.9713  -16.7330   22.2964 C   0  0  2  0  0  0  0  0  0  0  0  0
   10.3133  -17.3187   22.1799 N   0  0  0  0  0  0  0  0  0  0  0  0
    8.8445  -15.9671   23.5401 C   0  0  0  0  0  0  0  0  0  0  0  0
    9.7807  -16.1474   24.4076 O   0  0  0  0  0  0  0  0  0  0  0  0
    5.1759  -12.0811   26.7666 C   0  0  0  0  0  0  0  0  0  0  0  0
    6.5198  -12.8260   26.7274 C   0  0  2  0  0  0  0  0  0  0  0  0
    7.5700  -11.7835   26.9707 C   0  0  0  0  0  0  0  0  0  0  0  0
    6.6435  -13.5017   25.4186 C   0  0  0  0  0  0  0  0  0  0  0  0
    7.8122  -14.4346   25.2551 C   0  0  2  0  0  0  0  0  0  0  0  0
    7.8586  -15.0639   23.9318 N   0  0  0  0  0  0  0  0  0  0  0  0
    7.6151  -15.5576   26.2073 C   0  0  0  0  0  0  0  0  0  0  0  0
    6.6976  -16.5950   25.9157 O   0  0  0  0  0  0  0  0  0  0  0  0
    8.2147  -15.6870   27.2986 O   0  0  0  0  0  0  0  0  0  0  0  0
  2  1  1  6
  3  2  1  0
  4  3  1  0
  5  4  1  0
  6  5  2  0
  7 14  1  0
  7  2  1  0
  8  7  2  0
  9  5  1  0
 11 10  1  6
 11 13  1  0
 12 11  1  0
 13 15  1  0
 13 14  1  1
 15 22  1  0
 16 15  2  0
 18 20  1  0
 18 17  1  6
 19 18  1  0
 21 23  1  0
 21 20  1  6
 22 21  1  0
 23 24  1  0
 25 23  2  0
M  END
$$$$
