ETL.pdb
     RDKit          3D

 25 24  0  0  1  0  0  0  0  0999 V2000
   11.5803  -19.4397   15.0726 N   0  0  0  0  0  0  0  0  0  0  0  0
   11.1662  -18.0850   15.1702 C   0  0  1  0  0  0  0  0  0  0  0  0
   10.5979  -17.4828   13.9087 C   0  0  0  0  0  0  0  0  0  0  0  0
   10.5103  -18.4169   12.7665 C   0  0  0  0  0  0  0  0  0  0  0  0
    9.8923  -17.8232   11.5784 C   0  0  0  0  0  0  0  0  0  0  0  0
    9.6424  -16.6044   11.4248 O   0  0  0  0  0  0  0  0  0  0  0  0
   10.1945  -17.8476   16.2970 C   0  0  0  0  0  0  0  0  0  0  0  0
    9.1089  -17.2288   16.0894 O   0  0  0  0  0  0  0  0  0  0  0  0
    9.5442  -18.6609   10.5020 O   0  0  0  0  0  0  0  0  0  0  0  0
    8.9061  -20.6577   18.6527 C   0  0  0  0  0  0  0  0  0  0  0  0
    9.3578  -19.4655   19.4603 C   0  0  1  0  0  0  0  0  0  0  0  0
   10.6737  -19.7929   19.8635 O   0  0  0  0  0  0  0  0  0  0  0  0
    9.3795  -18.1713   18.6467 C   0  0  2  0  0  0  0  0  0  0  0  0
   10.4215  -18.2867   17.6178 N   0  0  0  0  0  0  0  0  0  0  0  0
    9.6740  -17.0655   19.5631 C   0  0  0  0  0  0  0  0  0  0  0  0
   10.9082  -16.6979   19.6201 O   0  0  0  0  0  0  0  0  0  0  0  0
    8.9224  -12.4909   19.7791 C   0  0  0  0  0  0  0  0  0  0  0  0
    7.7977  -13.4596   20.1783 C   0  0  2  0  0  0  0  0  0  0  0  0
    6.5723  -12.6120   20.3487 C   0  0  0  0  0  0  0  0  0  0  0  0
    8.2056  -14.1706   21.4082 C   0  0  0  0  0  0  0  0  0  0  0  0
    9.2537  -15.2376   21.2478 C   0  0  2  0  0  0  0  0  0  0  0  0
    8.8160  -16.3422   20.3890 N   0  0  0  0  0  0  0  0  0  0  0  0
    9.4651  -15.8510   22.5840 C   0  0  0  0  0  0  0  0  0  0  0  0
   10.2291  -15.1819   23.5697 O   0  0  0  0  0  0  0  0  0  0  0  0
    9.0071  -16.9585   22.9459 O   0  0  0  0  0  0  0  0  0  0  0  0
  2  1  1  6
  3  2  1  0
  4  3  1  0
  5  4  1  0
  6  5  2  0
  7 14  1  0
  7  2  1  0
  8  7  2  0
  9  5  1  0
 11 10  1  6
 11 13  1  0
 12 11  1  0
 13 15  1  0
 13 14  1  6
 15 22  1  0
 16 15  2  0
 18 20  1  0
 18 17  1  1
 19 18  1  0
 21 23  1  0
 21 20  1  1
 22 21  1  0
 23 24  1  0
 25 23  2  0
M  END
$$$$
