ETL.pdb
     RDKit          3D

 25 24  0  0  1  0  0  0  0  0999 V2000
   11.7265  -18.6149   19.1012 N   0  0  0  0  0  0  0  0  0  0  0  0
   12.5078  -18.3104   20.2470 C   0  0  1  0  0  0  0  0  0  0  0  0
   13.9335  -17.8975   19.9751 C   0  0  0  0  0  0  0  0  0  0  0  0
   14.4700  -18.3571   18.6767 C   0  0  0  0  0  0  0  0  0  0  0  0
   15.8620  -17.9603   18.4516 C   0  0  0  0  0  0  0  0  0  0  0  0
   16.8417  -18.7419   18.4214 O   0  0  0  0  0  0  0  0  0  0  0  0
   11.8683  -17.2756   21.1360 C   0  0  0  0  0  0  0  0  0  0  0  0
   12.4394  -16.1638   21.3414 O   0  0  0  0  0  0  0  0  0  0  0  0
   16.1564  -16.5996   18.2433 O   0  0  0  0  0  0  0  0  0  0  0  0
    7.9618  -16.3893   20.8474 C   0  0  0  0  0  0  0  0  0  0  0  0
    8.4251  -16.5643   22.2729 C   0  0  1  0  0  0  0  0  0  0  0  0
    8.0948  -17.9034   22.5875 O   0  0  0  0  0  0  0  0  0  0  0  0
    9.9309  -16.3570   22.4371 C   0  0  2  0  0  0  0  0  0  0  0  0
   10.6277  -17.4696   21.7781 N   0  0  0  0  0  0  0  0  0  0  0  0
   10.2306  -16.3330   23.8720 C   0  0  0  0  0  0  0  0  0  0  0  0
   10.8905  -17.3439   24.3242 O   0  0  0  0  0  0  0  0  0  0  0  0
    9.3532  -13.2139   29.2089 C   0  0  0  0  0  0  0  0  0  0  0  0
   10.0629  -14.3919   28.5226 C   0  0  2  0  0  0  0  0  0  0  0  0
   11.5186  -14.2346   28.8468 C   0  0  0  0  0  0  0  0  0  0  0  0
    9.7661  -14.3398   27.0756 C   0  0  0  0  0  0  0  0  0  0  0  0
   10.1913  -15.5314   26.2620 C   0  0  2  0  0  0  0  0  0  0  0  0
    9.9101  -15.3750   24.8317 N   0  0  0  0  0  0  0  0  0  0  0  0
    9.3546  -16.6802   26.6941 C   0  0  0  0  0  0  0  0  0  0  0  0
    9.8900  -17.6830   27.5373 O   0  0  0  0  0  0  0  0  0  0  0  0
    8.1577  -16.8574   26.3727 O   0  0  0  0  0  0  0  0  0  0  0  0
  2  1  1  6
  3  2  1  0
  4  3  1  0
  5  4  1  0
  6  5  2  0
  7 14  1  0
  7  2  1  0
  8  7  2  0
  9  5  1  0
 11 10  1  6
 11 13  1  0
 12 11  1  0
 13 15  1  0
 13 14  1  6
 15 22  1  0
 16 15  2  0
 18 20  1  0
 18 17  1  1
 19 18  1  0
 21 23  1  0
 21 20  1  1
 22 21  1  0
 23 24  1  0
 25 23  2  0
M  END
$$$$
