ETL.pdb
     RDKit          3D

 25 24  0  0  1  0  0  0  0  0999 V2000
   12.1437  -19.0058   19.3864 N   0  0  0  0  0  0  0  0  0  0  0  0
   12.7514  -18.3891   20.5118 C   0  0  1  0  0  0  0  0  0  0  0  0
   13.9222  -17.4865   20.2095 C   0  0  0  0  0  0  0  0  0  0  0  0
   14.9461  -18.0823   19.3254 C   0  0  0  0  0  0  0  0  0  0  0  0
   16.1349  -17.2413   19.1664 C   0  0  0  0  0  0  0  0  0  0  0  0
   16.5399  -16.7577   18.0830 O   0  0  0  0  0  0  0  0  0  0  0  0
   11.7695  -17.6330   21.3688 C   0  0  0  0  0  0  0  0  0  0  0  0
   11.2965  -16.5248   20.9785 O   0  0  0  0  0  0  0  0  0  0  0  0
   16.9032  -16.9274   20.3034 O   0  0  0  0  0  0  0  0  0  0  0  0
    8.3815  -18.4185   21.9934 C   0  0  0  0  0  0  0  0  0  0  0  0
    9.0132  -18.2906   23.3579 C   0  0  1  0  0  0  0  0  0  0  0  0
    9.3791  -19.6135   23.7007 O   0  0  0  0  0  0  0  0  0  0  0  0
   10.2563  -17.4007   23.3553 C   0  0  2  0  0  0  0  0  0  0  0  0
   11.3239  -18.0960   22.6243 N   0  0  0  0  0  0  0  0  0  0  0  0
   10.6479  -17.1662   24.7486 C   0  0  0  0  0  0  0  0  0  0  0  0
   11.7370  -17.7411   25.1294 O   0  0  0  0  0  0  0  0  0  0  0  0
   10.9785  -13.2045   28.1622 C   0  0  0  0  0  0  0  0  0  0  0  0
    9.7681  -13.8814   27.4994 C   0  0  2  0  0  0  0  0  0  0  0  0
    8.5712  -13.0876   27.9308 C   0  0  0  0  0  0  0  0  0  0  0  0
    9.7299  -15.2960   27.9263 C   0  0  0  0  0  0  0  0  0  0  0  0
   10.5298  -16.2659   27.1005 C   0  0  2  0  0  0  0  0  0  0  0  0
   10.0185  -16.4083   25.7338 N   0  0  0  0  0  0  0  0  0  0  0  0
   10.3629  -17.6083   27.7143 C   0  0  0  0  0  0  0  0  0  0  0  0
   11.1169  -17.9767   28.8540 O   0  0  0  0  0  0  0  0  0  0  0  0
    9.5769  -18.4923   27.3044 O   0  0  0  0  0  0  0  0  0  0  0  0
  2  1  1  6
  3  2  1  0
  4  3  1  0
  5  4  1  0
  6  5  2  0
  7 14  1  0
  7  2  1  0
  8  7  2  0
  9  5  1  0
 11 10  1  6
 11 13  1  0
 12 11  1  0
 13 15  1  0
 13 14  1  6
 15 22  1  0
 16 15  2  0
 18 20  1  0
 18 17  1  1
 19 18  1  0
 21 23  1  0
 21 20  1  1
 22 21  1  0
 23 24  1  0
 25 23  2  0
M  END
$$$$
