RPH.pdb
     RDKit          3D

 29 30  0  0  1  0  0  0  0  0999 V2000
    7.4255  -18.6698   11.8150 N   0  0  0  0  0  0  0  0  0  0  0  0
    6.6299  -19.0849   12.9376 C   0  0  0  0  0  0  0  0  0  0  0  0
    6.2642  -20.3017   12.9867 N   0  0  0  0  0  0  0  0  0  0  0  0
    6.2610  -18.1738   13.9608 N   0  0  0  0  0  0  0  0  0  0  0  0
    7.0276  -18.1530   15.1833 C   0  0  0  0  0  0  0  0  0  0  0  0
    7.8877  -16.9046   15.2815 C   0  0  0  0  0  0  0  0  0  0  0  0
    8.3293  -16.6754   16.6978 C   0  0  0  0  0  0  0  0  0  0  0  0
    9.2539  -15.4553   16.8410 C   0  0  2  0  0  0  0  0  0  0  0  0
   10.4931  -15.7553   16.0949 N   0  0  0  0  0  0  0  0  0  0  0  0
    9.6654  -15.2828   18.2738 C   0  0  0  0  0  0  0  0  0  0  0  0
   10.5282  -16.1455   18.6353 O   0  0  0  0  0  0  0  0  0  0  0  0
    5.7870  -20.7125   13.7962 N   0  0  0  0  0  0  0  0  0  0  0  0
    9.1461  -14.2781   19.0986 C   0  0  0  0  0  0  0  0  0  0  0  0
    8.8588  -12.9161   18.6240 C   0  0  0  0  0  0  0  0  0  0  0  0
    7.5062  -12.6740   19.2434 C   0  0  0  0  0  0  0  0  0  0  0  0
    7.3805  -13.6618   20.3823 C   0  0  2  0  0  0  0  0  0  0  0  0
    8.8268  -14.2108   20.4676 C   0  0  0  0  0  0  0  0  0  0  0  0
    8.8750  -15.3930   21.3049 O   0  0  0  0  0  0  0  0  0  0  0  0
    8.1375  -16.3761   21.2923 N   0  0  0  0  0  0  0  0  0  0  0  0
    9.9281  -15.4300   22.2895 C   0  0  1  0  0  0  0  0  0  0  0  0
   10.1165  -16.5801   23.1653 C   0  0  0  0  0  0  0  0  0  0  0  0
   11.5147  -17.0943   23.0853 C   0  0  0  0  0  0  0  0  0  0  0  0
   11.8200  -17.8331   21.8443 C   0  0  0  0  0  0  0  0  0  0  0  0
   10.8832  -18.2756   20.8920 N   0  0  0  0  0  0  0  0  0  0  0  0
   11.4815  -18.9046   19.8984 C   0  0  0  0  0  0  0  0  0  0  0  0
   12.8099  -18.8800   20.1894 N   0  0  0  0  0  0  0  0  0  0  0  0
   13.0013  -18.2421   21.3459 C   0  0  0  0  0  0  0  0  0  0  0  0
    9.8688  -16.0694   24.5284 O   0  0  0  0  0  0  0  0  0  0  0  0
    9.5756  -14.7366   24.7281 O   0  0  0  0  0  0  0  0  0  0  0  0
  1  2  1  0
  2  3  2  0
  4  5  1  0
  4  2  1  0
  6  5  1  0
  7  6  1  0
  8  7  1  0
  8  9  1  6
 10 12  1  0
 10  8  1  0
 11 10  2  0
 12 16  1  0
 13 14  1  0
 13 12  1  0
 14 15  1  0
 15 16  1  0
 16 17  1  1
 17 18  2  0
 19 20  1  0
 19 17  1  0
 20 27  1  0
 20 21  1  1
 22 21  1  0
 23 22  2  0
 24 25  1  0
 24 23  1  0
 25 26  2  0
 26 22  1  0
 27 29  2  0
 27 28  1  0
M  END
$$$$
