RPH.pdb
     RDKit          3D

 29 30  0  0  1  0  0  0  0  0999 V2000
    7.8925  -14.2359   17.0983 N   0  0  0  0  0  0  0  0  0  0  0  0
    7.9939  -13.4505   18.2976 C   0  0  0  0  0  0  0  0  0  0  0  0
    8.3094  -12.2245   18.1777 N   0  0  0  0  0  0  0  0  0  0  0  0
    7.7517  -14.0164   19.5759 N   0  0  0  0  0  0  0  0  0  0  0  0
    6.4243  -14.4894   19.8871 C   0  0  0  0  0  0  0  0  0  0  0  0
    6.3497  -15.0570   21.2943 C   0  0  0  0  0  0  0  0  0  0  0  0
    5.9636  -16.5073   21.2608 C   0  0  0  0  0  0  0  0  0  0  0  0
    7.1169  -17.4180   20.8085 C   0  0  2  0  0  0  0  0  0  0  0  0
    6.6062  -18.8042   20.8094 N   0  0  0  0  0  0  0  0  0  0  0  0
    8.2279  -17.3861   21.8169 C   0  0  0  0  0  0  0  0  0  0  0  0
    7.7985  -17.4799   23.0111 O   0  0  0  0  0  0  0  0  0  0  0  0
    8.4797  -11.6075   18.9790 N   0  0  0  0  0  0  0  0  0  0  0  0
    9.5761  -17.2675   21.4596 C   0  0  0  0  0  0  0  0  0  0  0  0
   10.1186  -17.7689   20.1879 C   0  0  0  0  0  0  0  0  0  0  0  0
   10.9854  -16.6099   19.7669 C   0  0  0  0  0  0  0  0  0  0  0  0
   11.2561  -15.8080   21.0208 C   0  0  2  0  0  0  0  0  0  0  0  0
   10.7159  -16.7639   22.1139 C   0  0  0  0  0  0  0  0  0  0  0  0
   10.6045  -16.0748   23.3842 O   0  0  0  0  0  0  0  0  0  0  0  0
   10.1588  -14.9530   23.6153 N   0  0  0  0  0  0  0  0  0  0  0  0
   11.0783  -16.7956   24.5400 C   0  0  1  0  0  0  0  0  0  0  0  0
   11.2316  -16.1467   25.8364 C   0  0  0  0  0  0  0  0  0  0  0  0
   10.0529  -16.4094   26.7125 C   0  0  0  0  0  0  0  0  0  0  0  0
   10.1536  -15.8157   28.0602 C   0  0  0  0  0  0  0  0  0  0  0  0
   10.5333  -14.4934   28.3566 N   0  0  0  0  0  0  0  0  0  0  0  0
   10.5224  -14.2799   29.6585 C   0  0  0  0  0  0  0  0  0  0  0  0
   10.1371  -15.4552   30.2246 N   0  0  0  0  0  0  0  0  0  0  0  0
    9.9205  -16.3607   29.2684 C   0  0  0  0  0  0  0  0  0  0  0  0
   12.4273  -16.7695   26.4387 O   0  0  0  0  0  0  0  0  0  0  0  0
   13.0288  -17.8506   25.8292 O   0  0  0  0  0  0  0  0  0  0  0  0
  1  2  1  0
  2  3  2  0
  4  5  1  0
  4  2  1  0
  6  5  1  0
  7  6  1  0
  8  7  1  0
  8  9  1  1
 10 12  1  0
 10  8  1  0
 11 10  2  0
 12 16  1  0
 13 14  1  0
 13 12  1  0
 14 15  1  0
 15 16  1  0
 16 17  1  6
 17 18  2  0
 19 20  1  0
 19 17  1  0
 20 27  1  0
 20 21  1  1
 22 21  1  0
 23 22  2  0
 24 25  1  0
 24 23  1  0
 25 26  2  0
 26 22  1  0
 27 29  2  0
 27 28  1  0
M  END
$$$$
