RPH.pdb
     RDKit          3D

 29 30  0  0  1  0  0  0  0  0999 V2000
    8.5339  -20.5051   16.4571 N   0  0  0  0  0  0  0  0  0  0  0  0
    7.2063  -20.5013   15.9067 C   0  0  0  0  0  0  0  0  0  0  0  0
    6.9634  -21.2917   14.9407 N   0  0  0  0  0  0  0  0  0  0  0  0
    6.1952  -19.6475   16.4183 N   0  0  0  0  0  0  0  0  0  0  0  0
    6.4035  -18.2200   16.3770 C   0  0  0  0  0  0  0  0  0  0  0  0
    7.7874  -17.8433   16.8779 C   0  0  0  0  0  0  0  0  0  0  0  0
    8.4840  -16.9527   15.8905 C   0  0  0  0  0  0  0  0  0  0  0  0
    8.5029  -15.4796   16.3304 C   0  0  2  0  0  0  0  0  0  0  0  0
    9.3328  -14.7423   15.3557 N   0  0  0  0  0  0  0  0  0  0  0  0
    9.1990  -15.3430   17.6529 C   0  0  0  0  0  0  0  0  0  0  0  0
   10.1210  -16.2068   17.8044 O   0  0  0  0  0  0  0  0  0  0  0  0
    6.0570  -21.3323   14.4626 N   0  0  0  0  0  0  0  0  0  0  0  0
    8.8559  -14.3669   18.5957 C   0  0  0  0  0  0  0  0  0  0  0  0
    8.5422  -12.9758   18.2359 C   0  0  0  0  0  0  0  0  0  0  0  0
    7.3177  -12.7287   19.0794 C   0  0  0  0  0  0  0  0  0  0  0  0
    7.3453  -13.7680   20.1783 C   0  0  2  0  0  0  0  0  0  0  0  0
    8.7664  -14.3590   20.0002 C   0  0  0  0  0  0  0  0  0  0  0  0
    8.9095  -15.5822   20.7646 O   0  0  0  0  0  0  0  0  0  0  0  0
    8.3981  -16.6813   20.5619 N   0  0  0  0  0  0  0  0  0  0  0  0
    9.7665  -15.5096   21.9223 C   0  0  1  0  0  0  0  0  0  0  0  0
   10.1697  -16.7056   22.6517 C   0  0  0  0  0  0  0  0  0  0  0  0
   11.0259  -17.5883   21.8069 C   0  0  0  0  0  0  0  0  0  0  0  0
   11.4863  -18.8164   22.4842 C   0  0  0  0  0  0  0  0  0  0  0  0
   12.2717  -18.8745   23.6505 N   0  0  0  0  0  0  0  0  0  0  0  0
   12.5097  -20.1250   23.9974 C   0  0  0  0  0  0  0  0  0  0  0  0
   11.8851  -20.8944   23.0656 N   0  0  0  0  0  0  0  0  0  0  0  0
   11.2805  -20.1092   22.1717 C   0  0  0  0  0  0  0  0  0  0  0  0
   10.9668  -16.2099   23.7915 O   0  0  0  0  0  0  0  0  0  0  0  0
   11.9847  -15.3025   23.5847 O   0  0  0  0  0  0  0  0  0  0  0  0
  1  2  1  0
  2  3  2  0
  4  5  1  0
  4  2  1  0
  6  5  1  0
  7  6  1  0
  8  7  1  0
  8  9  1  6
 10 12  1  0
 10  8  1  0
 11 10  2  0
 12 16  1  0
 13 14  1  0
 13 12  1  0
 14 15  1  0
 15 16  1  0
 16 17  1  1
 17 18  2  0
 19 20  1  0
 19 17  1  0
 20 27  1  0
 20 21  1  1
 22 21  1  0
 23 22  2  0
 24 25  1  0
 24 23  1  0
 25 26  2  0
 26 22  1  0
 27 29  2  0
 27 28  1  0
M  END
$$$$
