RPH.pdb
     RDKit          3D

 29 30  0  0  1  0  0  0  0  0999 V2000
    6.5105  -20.4557   14.5006 N   0  0  0  0  0  0  0  0  0  0  0  0
    5.8188  -19.4025   15.1917 C   0  0  0  0  0  0  0  0  0  0  0  0
    4.5619  -19.3095   15.0234 N   0  0  0  0  0  0  0  0  0  0  0  0
    6.5078  -18.4931   16.0351 N   0  0  0  0  0  0  0  0  0  0  0  0
    7.8368  -18.0703   15.6637 C   0  0  0  0  0  0  0  0  0  0  0  0
    8.4780  -17.2256   16.7515 C   0  0  0  0  0  0  0  0  0  0  0  0
    9.8362  -16.7514   16.3225 C   0  0  0  0  0  0  0  0  0  0  0  0
   10.1335  -15.3130   16.7774 C   0  0  2  0  0  0  0  0  0  0  0  0
   11.5355  -15.0204   16.4153 N   0  0  0  0  0  0  0  0  0  0  0  0
   10.0645  -15.2183   18.2735 C   0  0  0  0  0  0  0  0  0  0  0  0
   10.7893  -16.0934   18.8463 O   0  0  0  0  0  0  0  0  0  0  0  0
    3.9858  -18.5934   15.4785 N   0  0  0  0  0  0  0  0  0  0  0  0
    9.2852  -14.2657   18.9401 C   0  0  0  0  0  0  0  0  0  0  0  0
    9.0362  -12.9165   18.4104 C   0  0  0  0  0  0  0  0  0  0  0  0
    7.5572  -12.7751   18.6643 C   0  0  0  0  0  0  0  0  0  0  0  0
    7.2131  -13.7906   19.7315 C   0  0  2  0  0  0  0  0  0  0  0  0
    8.6239  -14.2456   20.1823 C   0  0  0  0  0  0  0  0  0  0  0  0
    8.5375  -15.4380   21.0019 O   0  0  0  0  0  0  0  0  0  0  0  0
    7.8284  -16.4297   20.8461 N   0  0  0  0  0  0  0  0  0  0  0  0
    9.3966  -15.4750   22.1596 C   0  0  1  0  0  0  0  0  0  0  0  0
    9.7694  -16.7327   22.7957 C   0  0  0  0  0  0  0  0  0  0  0  0
   10.4939  -17.6235   21.8432 C   0  0  0  0  0  0  0  0  0  0  0  0
   10.9754  -18.8855   22.4386 C   0  0  0  0  0  0  0  0  0  0  0  0
   10.6012  -19.4063   23.6912 N   0  0  0  0  0  0  0  0  0  0  0  0
   11.2114  -20.5520   23.9274 C   0  0  0  0  0  0  0  0  0  0  0  0
   11.9877  -20.7913   22.8364 N   0  0  0  0  0  0  0  0  0  0  0  0
   11.8412  -19.7971   21.9582 C   0  0  0  0  0  0  0  0  0  0  0  0
   10.6845  -16.3529   23.8905 O   0  0  0  0  0  0  0  0  0  0  0  0
   11.0241  -15.0304   24.0846 O   0  0  0  0  0  0  0  0  0  0  0  0
  1  2  1  0
  2  3  2  0
  4  5  1  0
  4  2  1  0
  6  5  1  0
  7  6  1  0
  8  7  1  0
  8  9  1  1
 10 12  1  0
 10  8  1  0
 11 10  2  0
 12 16  1  0
 13 14  1  0
 13 12  1  0
 14 15  1  0
 15 16  1  0
 16 17  1  1
 17 18  2  0
 19 20  1  0
 19 17  1  0
 20 27  1  0
 20 21  1  1
 22 21  1  0
 23 22  2  0
 24 25  1  0
 24 23  1  0
 25 26  2  0
 26 22  1  0
 27 29  2  0
 27 28  1  0
M  END
$$$$
