RPH.pdb
     RDKit          3D

 29 30  0  0  1  0  0  0  0  0999 V2000
    8.6305  -16.5466   14.7390 N   0  0  0  0  0  0  0  0  0  0  0  0
    9.9992  -16.5057   15.1755 C   0  0  0  0  0  0  0  0  0  0  0  0
   10.6765  -17.5793   15.1022 N   0  0  0  0  0  0  0  0  0  0  0  0
   10.5823  -15.3117   15.6728 N   0  0  0  0  0  0  0  0  0  0  0  0
    9.7159  -14.2594   16.1469 C   0  0  0  0  0  0  0  0  0  0  0  0
    8.8099  -14.7442   17.2658 C   0  0  0  0  0  0  0  0  0  0  0  0
    9.5689  -14.8425   18.5572 C   0  0  0  0  0  0  0  0  0  0  0  0
    9.4731  -13.5606   19.4008 C   0  0  2  0  0  0  0  0  0  0  0  0
   10.6710  -12.7493   19.1018 N   0  0  0  0  0  0  0  0  0  0  0  0
    9.5541  -13.8947   20.8616 C   0  0  0  0  0  0  0  0  0  0  0  0
   10.7489  -13.8628   21.2983 O   0  0  0  0  0  0  0  0  0  0  0  0
   11.6676  -17.6368   15.3596 N   0  0  0  0  0  0  0  0  0  0  0  0
    8.4287  -14.2017   21.6351 C   0  0  0  0  0  0  0  0  0  0  0  0
    7.1099  -13.5890   21.4154 C   0  0  0  0  0  0  0  0  0  0  0  0
    6.2115  -14.7953   21.5123 C   0  0  0  0  0  0  0  0  0  0  0  0
    7.0000  -15.8502   22.2567 C   0  0  2  0  0  0  0  0  0  0  0  0
    8.2128  -15.0254   22.7557 C   0  0  0  0  0  0  0  0  0  0  0  0
    9.2562  -15.9013   23.2509 O   0  0  0  0  0  0  0  0  0  0  0  0
    9.9687  -16.6817   22.6234 N   0  0  0  0  0  0  0  0  0  0  0  0
    9.4986  -15.8581   24.6719 C   0  0  1  0  0  0  0  0  0  0  0  0
   10.4818  -16.7271   25.3070 C   0  0  0  0  0  0  0  0  0  0  0  0
   11.4672  -15.9357   26.0998 C   0  0  0  0  0  0  0  0  0  0  0  0
   10.8621  -15.0736   27.1341 C   0  0  0  0  0  0  0  0  0  0  0  0
    9.7413  -14.2395   26.9655 N   0  0  0  0  0  0  0  0  0  0  0  0
    9.4552  -13.6016   28.0844 C   0  0  0  0  0  0  0  0  0  0  0  0
   10.3819  -14.0102   28.9924 N   0  0  0  0  0  0  0  0  0  0  0  0
   11.2126  -14.8836   28.4195 C   0  0  0  0  0  0  0  0  0  0  0  0
    9.7027  -17.5829   26.2240 O   0  0  0  0  0  0  0  0  0  0  0  0
   10.3249  -18.5910   26.9301 O   0  0  0  0  0  0  0  0  0  0  0  0
  1  2  1  0
  2  3  2  0
  4  5  1  0
  4  2  1  0
  6  5  1  0
  7  6  1  0
  8  7  1  0
  8  9  1  6
 10 12  1  0
 10  8  1  0
 11 10  2  0
 12 16  1  0
 13 14  1  0
 13 12  1  0
 14 15  1  0
 15 16  1  0
 16 17  1  6
 17 18  2  0
 19 20  1  0
 19 17  1  0
 20 27  1  0
 20 21  1  1
 22 21  1  0
 23 22  2  0
 24 25  1  0
 24 23  1  0
 25 26  2  0
 26 22  1  0
 27 29  2  0
 27 28  1  0
M  END
$$$$
