RPH.pdb
     RDKit          3D

 29 30  0  0  1  0  0  0  0  0999 V2000
    6.9452  -15.9430   21.4240 N   0  0  0  0  0  0  0  0  0  0  0  0
    6.2642  -16.0644   20.1642 C   0  0  0  0  0  0  0  0  0  0  0  0
    5.9984  -17.2351   19.7451 N   0  0  0  0  0  0  0  0  0  0  0  0
    5.8975  -14.9215   19.4076 N   0  0  0  0  0  0  0  0  0  0  0  0
    6.5651  -13.6694   19.6710 C   0  0  0  0  0  0  0  0  0  0  0  0
    7.9143  -13.5994   18.9763 C   0  0  0  0  0  0  0  0  0  0  0  0
    7.8653  -14.3038   17.6515 C   0  0  0  0  0  0  0  0  0  0  0  0
    9.2214  -14.2999   16.9269 C   0  0  2  0  0  0  0  0  0  0  0  0
    9.0402  -15.0291   15.6550 N   0  0  0  0  0  0  0  0  0  0  0  0
   10.2308  -15.0842   17.7130 C   0  0  0  0  0  0  0  0  0  0  0  0
   10.6296  -14.4583   18.7467 O   0  0  0  0  0  0  0  0  0  0  0  0
    5.5625  -17.4204   18.8354 N   0  0  0  0  0  0  0  0  0  0  0  0
   10.6673  -16.3587   17.3329 C   0  0  0  0  0  0  0  0  0  0  0  0
   10.1158  -17.0875   16.1806 C   0  0  0  0  0  0  0  0  0  0  0  0
   11.3763  -17.6069   15.5376 C   0  0  0  0  0  0  0  0  0  0  0  0
   12.4429  -17.5710   16.6098 C   0  0  1  0  0  0  0  0  0  0  0  0
   11.5943  -17.2709   17.8709 C   0  0  0  0  0  0  0  0  0  0  0  0
   12.4469  -16.9008   18.9831 O   0  0  0  0  0  0  0  0  0  0  0  0
   13.2003  -15.9355   19.0879 N   0  0  0  0  0  0  0  0  0  0  0  0
   12.4133  -17.7786   20.1269 C   0  0  1  0  0  0  0  0  0  0  0  0
   12.2440  -17.2649   21.4807 C   0  0  0  0  0  0  0  0  0  0  0  0
   10.9030  -16.6341   21.6532 C   0  0  0  0  0  0  0  0  0  0  0  0
   10.6073  -16.2039   23.0339 C   0  0  0  0  0  0  0  0  0  0  0  0
   11.4535  -16.3558   24.1480 N   0  0  0  0  0  0  0  0  0  0  0  0
   10.8925  -15.8657   25.2370 C   0  0  0  0  0  0  0  0  0  0  0  0
    9.6789  -15.3902   24.8480 N   0  0  0  0  0  0  0  0  0  0  0  0
    9.5184  -15.5953   23.5390 C   0  0  0  0  0  0  0  0  0  0  0  0
   12.3340  -18.4510   22.3556 O   0  0  0  0  0  0  0  0  0  0  0  0
   13.1455  -18.4315   23.4705 O   0  0  0  0  0  0  0  0  0  0  0  0
  1  2  1  0
  2  3  2  0
  4  5  1  0
  4  2  1  0
  6  5  1  0
  7  6  1  0
  8  7  1  0
  8  9  1  6
 10 12  1  0
 10  8  1  0
 11 10  2  0
 12 16  1  0
 13 14  1  0
 13 12  1  0
 14 15  1  0
 15 16  1  0
 16 17  1  6
 17 18  2  0
 19 20  1  0
 19 17  1  0
 20 27  1  0
 20 21  1  1
 22 21  1  0
 23 22  2  0
 24 25  1  0
 24 23  1  0
 25 26  2  0
 26 22  1  0
 27 29  2  0
 27 28  1  0
M  END
$$$$
