RPH.pdb
     RDKit          3D

 29 30  0  0  1  0  0  0  0  0999 V2000
    9.0629  -15.5844   15.0070 N   0  0  0  0  0  0  0  0  0  0  0  0
    8.0512  -14.7898   15.6477 C   0  0  0  0  0  0  0  0  0  0  0  0
    7.8035  -13.6416   15.1609 N   0  0  0  0  0  0  0  0  0  0  0  0
    7.3480  -15.2633   16.7854 N   0  0  0  0  0  0  0  0  0  0  0  0
    7.4852  -16.6501   17.1605 C   0  0  0  0  0  0  0  0  0  0  0  0
    8.0006  -16.7953   18.5822 C   0  0  0  0  0  0  0  0  0  0  0  0
    9.5012  -16.7641   18.6076 C   0  0  0  0  0  0  0  0  0  0  0  0
   10.0566  -15.5674   19.3972 C   0  0  2  0  0  0  0  0  0  0  0  0
   11.5302  -15.6390   19.3216 N   0  0  0  0  0  0  0  0  0  0  0  0
    9.7102  -15.7007   20.8513 C   0  0  0  0  0  0  0  0  0  0  0  0
    9.9994  -16.8508   21.3127 O   0  0  0  0  0  0  0  0  0  0  0  0
    7.0765  -13.0197   15.5305 N   0  0  0  0  0  0  0  0  0  0  0  0
    9.1362  -14.6629   21.5947 C   0  0  0  0  0  0  0  0  0  0  0  0
    9.0800  -13.2710   21.1230 C   0  0  0  0  0  0  0  0  0  0  0  0
    7.6609  -12.9043   21.4745 C   0  0  0  0  0  0  0  0  0  0  0  0
    7.2184  -13.8934   22.5302 C   0  0  2  0  0  0  0  0  0  0  0  0
    8.5600  -14.5868   22.8765 C   0  0  0  0  0  0  0  0  0  0  0  0
    8.3282  -15.7818   23.6633 O   0  0  0  0  0  0  0  0  0  0  0  0
    7.5975  -16.7382   23.4142 N   0  0  0  0  0  0  0  0  0  0  0  0
    9.0486  -15.8698   24.9096 C   0  0  1  0  0  0  0  0  0  0  0  0
    9.0705  -17.0973   25.6956 C   0  0  0  0  0  0  0  0  0  0  0  0
    9.6787  -18.2199   24.9236 C   0  0  0  0  0  0  0  0  0  0  0  0
    8.7019  -19.1908   24.3923 C   0  0  0  0  0  0  0  0  0  0  0  0
    7.3603  -18.9211   24.0644 N   0  0  0  0  0  0  0  0  0  0  0  0
    6.7572  -20.0050   23.6148 C   0  0  0  0  0  0  0  0  0  0  0  0
    7.6942  -20.9906   23.6439 N   0  0  0  0  0  0  0  0  0  0  0  0
    8.8451  -20.4982   24.1067 C   0  0  0  0  0  0  0  0  0  0  0  0
    9.9275  -16.7933   26.8589 O   0  0  0  0  0  0  0  0  0  0  0  0
   11.0960  -16.0796   26.6931 O   0  0  0  0  0  0  0  0  0  0  0  0
  1  2  1  0
  2  3  2  0
  4  5  1  0
  4  2  1  0
  6  5  1  0
  7  6  1  0
  8  7  1  0
  8  9  1  1
 10 12  1  0
 10  8  1  0
 11 10  2  0
 12 16  1  0
 13 14  1  0
 13 12  1  0
 14 15  1  0
 15 16  1  0
 16 17  1  1
 17 18  2  0
 19 20  1  0
 19 17  1  0
 20 27  1  0
 20 21  1  1
 22 21  1  0
 23 22  2  0
 24 25  1  0
 24 23  1  0
 25 26  2  0
 26 22  1  0
 27 29  2  0
 27 28  1  0
M  END
$$$$
