RPH.pdb
     RDKit          3D

 29 30  0  0  1  0  0  0  0  0999 V2000
    4.9453  -22.1359   21.5247 N   0  0  0  0  0  0  0  0  0  0  0  0
    5.3371  -21.4957   22.7503 C   0  0  0  0  0  0  0  0  0  0  0  0
    5.5542  -22.2352   23.7617 N   0  0  0  0  0  0  0  0  0  0  0  0
    5.4792  -20.0867   22.8371 N   0  0  0  0  0  0  0  0  0  0  0  0
    5.1248  -19.2801   21.6941 C   0  0  0  0  0  0  0  0  0  0  0  0
    6.3565  -18.7238   21.0002 C   0  0  0  0  0  0  0  0  0  0  0  0
    5.9639  -17.8371   19.8542 C   0  0  0  0  0  0  0  0  0  0  0  0
    7.1752  -17.1902   19.1626 C   0  0  2  0  0  0  0  0  0  0  0  0
    7.9906  -18.2835   18.5949 N   0  0  0  0  0  0  0  0  0  0  0  0
    8.0466  -16.5077   20.1759 C   0  0  0  0  0  0  0  0  0  0  0  0
    8.6427  -17.3362   20.9359 O   0  0  0  0  0  0  0  0  0  0  0  0
    5.7611  -21.8638   24.6950 N   0  0  0  0  0  0  0  0  0  0  0  0
    8.1742  -15.1160   20.2553 C   0  0  0  0  0  0  0  0  0  0  0  0
    8.2431  -14.2456   19.0718 C   0  0  0  0  0  0  0  0  0  0  0  0
    7.3057  -13.1361   19.4747 C   0  0  0  0  0  0  0  0  0  0  0  0
    7.1953  -13.2032   20.9820 C   0  0  2  0  0  0  0  0  0  0  0  0
    8.3212  -14.2113   21.3232 C   0  0  0  0  0  0  0  0  0  0  0  0
    8.2090  -14.6547   22.6987 O   0  0  0  0  0  0  0  0  0  0  0  0
    7.2157  -14.6762   23.4222 N   0  0  0  0  0  0  0  0  0  0  0  0
    9.4225  -15.1384   23.3098 C   0  0  1  0  0  0  0  0  0  0  0  0
    9.4259  -15.7240   24.6447 C   0  0  0  0  0  0  0  0  0  0  0  0
    8.5219  -16.9088   24.7150 C   0  0  0  0  0  0  0  0  0  0  0  0
    8.5046  -17.5824   26.0284 C   0  0  0  0  0  0  0  0  0  0  0  0
    9.1771  -17.1541   27.1880 N   0  0  0  0  0  0  0  0  0  0  0  0
    8.9560  -17.9790   28.1936 C   0  0  0  0  0  0  0  0  0  0  0  0
    8.1401  -18.9512   27.7043 N   0  0  0  0  0  0  0  0  0  0  0  0
    7.8776  -18.7075   26.4186 C   0  0  0  0  0  0  0  0  0  0  0  0
   10.8171  -16.1664   24.8665 O   0  0  0  0  0  0  0  0  0  0  0  0
   11.7120  -16.1959   23.8175 O   0  0  0  0  0  0  0  0  0  0  0  0
  1  2  1  0
  2  3  2  0
  4  5  1  0
  4  2  1  0
  6  5  1  0
  7  6  1  0
  8  7  1  0
  8  9  1  1
 10 12  1  0
 10  8  1  0
 11 10  2  0
 12 16  1  0
 13 14  1  0
 13 12  1  0
 14 15  1  0
 15 16  1  0
 16 17  1  6
 17 18  2  0
 19 20  1  0
 19 17  1  0
 20 27  1  0
 20 21  1  1
 22 21  1  0
 23 22  2  0
 24 25  1  0
 24 23  1  0
 25 26  2  0
 26 22  1  0
 27 29  2  0
 27 28  1  0
M  END
$$$$
