RPH.pdb
     RDKit          3D

 29 30  0  0  1  0  0  0  0  0999 V2000
    6.1354  -21.1278   17.4271 N   0  0  0  0  0  0  0  0  0  0  0  0
    7.5675  -21.2428   17.3909 C   0  0  0  0  0  0  0  0  0  0  0  0
    8.0674  -22.4118   17.3701 N   0  0  0  0  0  0  0  0  0  0  0  0
    8.4024  -20.0957   17.3787 N   0  0  0  0  0  0  0  0  0  0  0  0
    7.8129  -18.8093   17.0951 C   0  0  0  0  0  0  0  0  0  0  0  0
    8.8468  -17.6975   17.1495 C   0  0  0  0  0  0  0  0  0  0  0  0
    8.2492  -16.3960   16.6995 C   0  0  0  0  0  0  0  0  0  0  0  0
    9.2343  -15.2207   16.8113 C   0  0  2  0  0  0  0  0  0  0  0  0
   10.4453  -15.5907   16.0504 N   0  0  0  0  0  0  0  0  0  0  0  0
    9.6768  -15.0496   18.2350 C   0  0  0  0  0  0  0  0  0  0  0  0
   10.5715  -15.8916   18.5667 O   0  0  0  0  0  0  0  0  0  0  0  0
    9.0745  -22.5908   17.2956 N   0  0  0  0  0  0  0  0  0  0  0  0
    9.1513  -14.0669   19.0819 C   0  0  0  0  0  0  0  0  0  0  0  0
    8.9744  -12.6648   18.6749 C   0  0  0  0  0  0  0  0  0  0  0  0
    7.5937  -12.3813   19.2089 C   0  0  0  0  0  0  0  0  0  0  0  0
    7.3292  -13.4256   20.2710 C   0  0  2  0  0  0  0  0  0  0  0  0
    8.7333  -14.0621   20.4258 C   0  0  0  0  0  0  0  0  0  0  0  0
    8.6542  -15.2925   21.1879 O   0  0  0  0  0  0  0  0  0  0  0  0
    7.7603  -16.1359   21.1981 N   0  0  0  0  0  0  0  0  0  0  0  0
    9.7718  -15.5741   22.0548 C   0  0  1  0  0  0  0  0  0  0  0  0
    9.7599  -16.7041   22.9757 C   0  0  0  0  0  0  0  0  0  0  0  0
    9.7133  -17.9997   22.2374 C   0  0  0  0  0  0  0  0  0  0  0  0
   10.8398  -18.2093   21.3069 C   0  0  0  0  0  0  0  0  0  0  0  0
   11.8948  -17.3093   21.0672 N   0  0  0  0  0  0  0  0  0  0  0  0
   12.7392  -17.7977   20.1789 C   0  0  0  0  0  0  0  0  0  0  0  0
   12.2474  -19.0169   19.8299 N   0  0  0  0  0  0  0  0  0  0  0  0
   11.1201  -19.2527   20.5043 C   0  0  0  0  0  0  0  0  0  0  0  0
   11.0377  -16.6145   23.7102 O   0  0  0  0  0  0  0  0  0  0  0  0
   11.8921  -15.5543   23.4906 O   0  0  0  0  0  0  0  0  0  0  0  0
  1  2  1  0
  2  3  2  0
  4  5  1  0
  4  2  1  0
  6  5  1  0
  7  6  1  0
  8  7  1  0
  8  9  1  6
 10 12  1  0
 10  8  1  0
 11 10  2  0
 12 16  1  0
 13 14  1  0
 13 12  1  0
 14 15  1  0
 15 16  1  0
 16 17  1  6
 17 18  2  0
 19 20  1  0
 19 17  1  0
 20 27  1  0
 20 21  1  1
 22 21  1  0
 23 22  2  0
 24 25  1  0
 24 23  1  0
 25 26  2  0
 26 22  1  0
 27 29  2  0
 27 28  1  0
M  END
$$$$
