RPH.pdb
     RDKit          3D

 29 30  0  0  1  0  0  0  0  0999 V2000
    6.2994  -20.3814   15.8601 N   0  0  0  0  0  0  0  0  0  0  0  0
    7.4210  -20.8165   16.6462 C   0  0  0  0  0  0  0  0  0  0  0  0
    7.7423  -22.0455   16.5902 N   0  0  0  0  0  0  0  0  0  0  0  0
    8.1504  -19.9116   17.4600 N   0  0  0  0  0  0  0  0  0  0  0  0
    7.6748  -18.5553   17.5908 C   0  0  0  0  0  0  0  0  0  0  0  0
    8.2659  -17.6512   16.5226 C   0  0  0  0  0  0  0  0  0  0  0  0
    7.7058  -16.2629   16.6343 C   0  0  0  0  0  0  0  0  0  0  0  0
    8.8004  -15.1877   16.7343 C   0  0  2  0  0  0  0  0  0  0  0  0
    9.9146  -15.6151   15.8636 N   0  0  0  0  0  0  0  0  0  0  0  0
    9.3575  -15.1440   18.1271 C   0  0  0  0  0  0  0  0  0  0  0  0
   10.2061  -16.0688   18.3366 O   0  0  0  0  0  0  0  0  0  0  0  0
    8.5121  -22.4501   17.1338 N   0  0  0  0  0  0  0  0  0  0  0  0
    8.9728  -14.1839   19.0703 C   0  0  0  0  0  0  0  0  0  0  0  0
    8.7701  -12.7657   18.7381 C   0  0  0  0  0  0  0  0  0  0  0  0
    7.4815  -12.4801   19.4660 C   0  0  0  0  0  0  0  0  0  0  0  0
    7.3440  -13.5573   20.5192 C   0  0  2  0  0  0  0  0  0  0  0  0
    8.7429  -14.2204   20.4583 C   0  0  0  0  0  0  0  0  0  0  0  0
    8.7441  -15.4758   21.1829 O   0  0  0  0  0  0  0  0  0  0  0  0
    7.9302  -16.3953   21.1316 N   0  0  0  0  0  0  0  0  0  0  0  0
    9.8463  -15.6834   22.0895 C   0  0  1  0  0  0  0  0  0  0  0  0
    9.9149  -16.8545   22.9549 C   0  0  0  0  0  0  0  0  0  0  0  0
   10.0117  -18.1100   22.1548 C   0  0  0  0  0  0  0  0  0  0  0  0
   11.1245  -18.1278   21.1850 C   0  0  0  0  0  0  0  0  0  0  0  0
   12.0316  -17.0789   20.9457 N   0  0  0  0  0  0  0  0  0  0  0  0
   12.9064  -17.4143   20.0167 C   0  0  0  0  0  0  0  0  0  0  0  0
   12.5819  -18.6805   19.6405 N   0  0  0  0  0  0  0  0  0  0  0  0
   11.5232  -19.0956   20.3391 C   0  0  0  0  0  0  0  0  0  0  0  0
   11.1571  -16.6836   23.7346 O   0  0  0  0  0  0  0  0  0  0  0  0
   11.4940  -17.5955   24.7129 O   0  0  0  0  0  0  0  0  0  0  0  0
  1  2  1  0
  2  3  2  0
  4  5  1  0
  4  2  1  0
  6  5  1  0
  7  6  1  0
  8  7  1  0
  8  9  1  6
 10 12  1  0
 10  8  1  0
 11 10  2  0
 12 16  1  0
 13 14  1  0
 13 12  1  0
 14 15  1  0
 15 16  1  0
 16 17  1  6
 17 18  2  0
 19 20  1  0
 19 17  1  0
 20 27  1  0
 20 21  1  1
 22 21  1  0
 23 22  2  0
 24 25  1  0
 24 23  1  0
 25 26  2  0
 26 22  1  0
 27 29  2  0
 27 28  1  0
M  END
$$$$
