RPH.pdb
     RDKit          3D

 29 30  0  0  1  0  0  0  0  0999 V2000
   15.6739  -13.4531   17.1781 N   0  0  0  0  0  0  0  0  0  0  0  0
   14.6852  -13.9503   18.0950 C   0  0  0  0  0  0  0  0  0  0  0  0
   14.6166  -13.4081   19.2432 N   0  0  0  0  0  0  0  0  0  0  0  0
   13.8114  -15.0099   17.7389 N   0  0  0  0  0  0  0  0  0  0  0  0
   12.8610  -15.4857   18.7151 C   0  0  0  0  0  0  0  0  0  0  0  0
   11.5869  -14.6583   18.7029 C   0  0  0  0  0  0  0  0  0  0  0  0
   10.4028  -15.5140   18.3580 C   0  0  0  0  0  0  0  0  0  0  0  0
    9.0649  -14.7810   18.5502 C   0  0  2  0  0  0  0  0  0  0  0  0
    9.3604  -13.3342   18.5905 N   0  0  0  0  0  0  0  0  0  0  0  0
    8.4761  -15.1202   19.8882 C   0  0  0  0  0  0  0  0  0  0  0  0
    8.8267  -14.2964   20.7925 O   0  0  0  0  0  0  0  0  0  0  0  0
   13.8943  -13.6422   19.9325 N   0  0  0  0  0  0  0  0  0  0  0  0
    7.6378  -16.2223   20.0930 C   0  0  0  0  0  0  0  0  0  0  0  0
    6.5839  -16.6183   19.1467 C   0  0  0  0  0  0  0  0  0  0  0  0
    6.7933  -18.1099   19.0893 C   0  0  0  0  0  0  0  0  0  0  0  0
    7.5653  -18.4762   20.3377 C   0  0  2  0  0  0  0  0  0  0  0  0
    7.4905  -17.1523   21.1390 C   0  0  0  0  0  0  0  0  0  0  0  0
    8.4181  -17.1771   22.2525 O   0  0  0  0  0  0  0  0  0  0  0  0
    9.6435  -17.2700   22.2321 N   0  0  0  0  0  0  0  0  0  0  0  0
    7.8331  -17.0800   23.5672 C   0  0  1  0  0  0  0  0  0  0  0  0
    8.6555  -16.9260   24.7609 C   0  0  0  0  0  0  0  0  0  0  0  0
    8.2056  -15.7614   25.5778 C   0  0  0  0  0  0  0  0  0  0  0  0
    8.0134  -14.5172   24.8072 C   0  0  0  0  0  0  0  0  0  0  0  0
    9.0329  -13.6757   24.3247 N   0  0  0  0  0  0  0  0  0  0  0  0
    8.5263  -12.6453   23.6748 C   0  0  0  0  0  0  0  0  0  0  0  0
    7.1760  -12.8016   23.7253 N   0  0  0  0  0  0  0  0  0  0  0  0
    6.8810  -13.9151   24.3993 C   0  0  0  0  0  0  0  0  0  0  0  0
    8.4458  -18.1662   25.5344 O   0  0  0  0  0  0  0  0  0  0  0  0
    7.6054  -19.1494   25.0558 O   0  0  0  0  0  0  0  0  0  0  0  0
  1  2  1  0
  2  3  2  0
  4  5  1  0
  4  2  1  0
  6  5  1  0
  7  6  1  0
  8  7  1  0
  8  9  1  1
 10 12  1  0
 10  8  1  0
 11 10  2  0
 12 16  1  0
 13 14  1  0
 13 12  1  0
 14 15  1  0
 15 16  1  0
 16 17  1  6
 17 18  2  0
 19 20  1  0
 19 17  1  0
 20 27  1  0
 20 21  1  1
 22 21  1  0
 23 22  2  0
 24 25  1  0
 24 23  1  0
 25 26  2  0
 26 22  1  0
 27 29  2  0
 27 28  1  0
M  END
$$$$
