RPH.pdb
     RDKit          3D

 29 30  0  0  1  0  0  0  0  0999 V2000
   14.0854  -15.8731   21.2604 N   0  0  0  0  0  0  0  0  0  0  0  0
   14.1006  -15.1240   20.0339 C   0  0  0  0  0  0  0  0  0  0  0  0
   14.7517  -14.0320   20.0151 N   0  0  0  0  0  0  0  0  0  0  0  0
   13.4150  -15.5808   18.8788 N   0  0  0  0  0  0  0  0  0  0  0  0
   12.4309  -14.7198   18.2681 C   0  0  0  0  0  0  0  0  0  0  0  0
   11.2145  -14.5416   19.1605 C   0  0  0  0  0  0  0  0  0  0  0  0
    9.9832  -15.0801   18.4916 C   0  0  0  0  0  0  0  0  0  0  0  0
    8.7347  -14.2274   18.7718 C   0  0  2  0  0  0  0  0  0  0  0  0
    9.1292  -12.8116   18.6227 N   0  0  0  0  0  0  0  0  0  0  0  0
    8.3072  -14.3892   20.2012 C   0  0  0  0  0  0  0  0  0  0  0  0
    8.8241  -13.5097   20.9619 O   0  0  0  0  0  0  0  0  0  0  0  0
   14.7429  -13.3866   19.2181 N   0  0  0  0  0  0  0  0  0  0  0  0
    7.4365  -15.3999   20.6249 C   0  0  0  0  0  0  0  0  0  0  0  0
    6.2985  -15.8707   19.8210 C   0  0  0  0  0  0  0  0  0  0  0  0
    6.4342  -17.3639   19.9756 C   0  0  0  0  0  0  0  0  0  0  0  0
    7.2785  -17.5854   21.2112 C   0  0  2  0  0  0  0  0  0  0  0  0
    7.3241  -16.1558   21.8067 C   0  0  0  0  0  0  0  0  0  0  0  0
    8.3293  -16.0687   22.8474 O   0  0  0  0  0  0  0  0  0  0  0  0
    9.5524  -16.1307   22.7438 N   0  0  0  0  0  0  0  0  0  0  0  0
    7.8369  -15.8842   24.1904 C   0  0  1  0  0  0  0  0  0  0  0  0
    8.7419  -15.7009   25.3185 C   0  0  0  0  0  0  0  0  0  0  0  0
    8.0271  -15.1223   26.4933 C   0  0  0  0  0  0  0  0  0  0  0  0
    7.3474  -13.8409   26.2199 C   0  0  0  0  0  0  0  0  0  0  0  0
    7.5199  -13.0391   25.0763 N   0  0  0  0  0  0  0  0  0  0  0  0
    6.7658  -11.9583   25.1395 C   0  0  0  0  0  0  0  0  0  0  0  0
    6.0952  -12.0417   26.3200 N   0  0  0  0  0  0  0  0  0  0  0  0
    6.4467  -13.1621   26.9543 C   0  0  0  0  0  0  0  0  0  0  0  0
    9.2093  -17.0591   25.6605 O   0  0  0  0  0  0  0  0  0  0  0  0
   10.2910  -17.2307   26.4988 O   0  0  0  0  0  0  0  0  0  0  0  0
  1  2  1  0
  2  3  2  0
  4  5  1  0
  4  2  1  0
  6  5  1  0
  7  6  1  0
  8  7  1  0
  8  9  1  1
 10 12  1  0
 10  8  1  0
 11 10  2  0
 12 16  1  0
 13 14  1  0
 13 12  1  0
 14 15  1  0
 15 16  1  0
 16 17  1  6
 17 18  2  0
 19 20  1  0
 19 17  1  0
 20 27  1  0
 20 21  1  1
 22 21  1  0
 23 22  2  0
 24 25  1  0
 24 23  1  0
 25 26  2  0
 26 22  1  0
 27 29  2  0
 27 28  1  0
M  END
$$$$
