RPH.pdb
     RDKit          3D

 29 30  0  0  1  0  0  0  0  0999 V2000
    6.9691  -15.5365   13.1840 N   0  0  0  0  0  0  0  0  0  0  0  0
    8.1952  -16.2844   13.2346 C   0  0  0  0  0  0  0  0  0  0  0  0
    8.6547  -16.7432   12.1413 N   0  0  0  0  0  0  0  0  0  0  0  0
    8.8762  -16.5078   14.4591 N   0  0  0  0  0  0  0  0  0  0  0  0
    8.3049  -15.9872   15.6778 C   0  0  0  0  0  0  0  0  0  0  0  0
    9.0602  -16.4764   16.9018 C   0  0  0  0  0  0  0  0  0  0  0  0
   10.5145  -16.1167   16.8057 C   0  0  0  0  0  0  0  0  0  0  0  0
   10.8523  -14.8096   17.5415 C   0  0  2  0  0  0  0  0  0  0  0  0
   12.3225  -14.6662   17.5266 N   0  0  0  0  0  0  0  0  0  0  0  0
   10.4617  -14.9131   18.9868 C   0  0  0  0  0  0  0  0  0  0  0  0
   10.9722  -15.9320   19.5529 O   0  0  0  0  0  0  0  0  0  0  0  0
    9.5350  -17.2653   12.0772 N   0  0  0  0  0  0  0  0  0  0  0  0
    9.6300  -13.9811   19.6185 C   0  0  0  0  0  0  0  0  0  0  0  0
    9.4775  -12.5940   19.1542 C   0  0  0  0  0  0  0  0  0  0  0  0
    7.9824  -12.4237   19.2400 C   0  0  0  0  0  0  0  0  0  0  0  0
    7.4893  -13.4937   20.1889 C   0  0  2  0  0  0  0  0  0  0  0  0
    8.8249  -14.0195   20.7722 C   0  0  0  0  0  0  0  0  0  0  0  0
    8.6133  -15.2583   21.4945 O   0  0  0  0  0  0  0  0  0  0  0  0
    7.8687  -16.1953   21.2148 N   0  0  0  0  0  0  0  0  0  0  0  0
    9.3758  -15.4231   22.7075 C   0  0  1  0  0  0  0  0  0  0  0  0
    9.2738  -16.6310   23.5171 C   0  0  0  0  0  0  0  0  0  0  0  0
    9.6145  -17.8444   22.7188 C   0  0  0  0  0  0  0  0  0  0  0  0
   11.0179  -17.8979   22.2642 C   0  0  0  0  0  0  0  0  0  0  0  0
   12.0090  -16.9324   22.5204 N   0  0  0  0  0  0  0  0  0  0  0  0
   13.1585  -17.2794   21.9737 C   0  0  0  0  0  0  0  0  0  0  0  0
   12.9320  -18.4704   21.3568 N   0  0  0  0  0  0  0  0  0  0  0  0
   11.6590  -18.8295   21.5345 C   0  0  0  0  0  0  0  0  0  0  0  0
   10.2767  -16.4618   24.5875 O   0  0  0  0  0  0  0  0  0  0  0  0
   10.9910  -15.2865   24.6905 O   0  0  0  0  0  0  0  0  0  0  0  0
  1  2  1  0
  2  3  2  0
  4  5  1  0
  4  2  1  0
  6  5  1  0
  7  6  1  0
  8  7  1  0
  8  9  1  1
 10 12  1  0
 10  8  1  0
 11 10  2  0
 12 16  1  0
 13 14  1  0
 13 12  1  0
 14 15  1  0
 15 16  1  0
 16 17  1  6
 17 18  2  0
 19 20  1  0
 19 17  1  0
 20 27  1  0
 20 21  1  1
 22 21  1  0
 23 22  2  0
 24 25  1  0
 24 23  1  0
 25 26  2  0
 26 22  1  0
 27 29  2  0
 27 28  1  0
M  END
$$$$
