RPH.pdb
     RDKit          3D

 29 30  0  0  1  0  0  0  0  0999 V2000
   12.9118  -17.1187   18.8123 N   0  0  0  0  0  0  0  0  0  0  0  0
   13.8251  -16.0228   18.9861 C   0  0  0  0  0  0  0  0  0  0  0  0
   15.0389  -16.2989   19.2459 N   0  0  0  0  0  0  0  0  0  0  0  0
   13.3950  -14.6755   18.8733 N   0  0  0  0  0  0  0  0  0  0  0  0
   12.0736  -14.4080   18.3584 C   0  0  0  0  0  0  0  0  0  0  0  0
   11.0645  -14.2250   19.4792 C   0  0  0  0  0  0  0  0  0  0  0  0
   10.0703  -13.1565   19.1278 C   0  0  0  0  0  0  0  0  0  0  0  0
    8.6146  -13.6320   19.2656 C   0  0  2  0  0  0  0  0  0  0  0  0
    7.7462  -12.4697   18.9874 N   0  0  0  0  0  0  0  0  0  0  0  0
    8.3317  -14.0291   20.6849 C   0  0  0  0  0  0  0  0  0  0  0  0
    8.6528  -13.1185   21.5139 O   0  0  0  0  0  0  0  0  0  0  0  0
   15.7716  -15.5862   19.3287 N   0  0  0  0  0  0  0  0  0  0  0  0
    7.7759  -15.2658   21.0323 C   0  0  0  0  0  0  0  0  0  0  0  0
    6.6101  -15.8448   20.3477 C   0  0  0  0  0  0  0  0  0  0  0  0
    7.0584  -17.2731   20.1723 C   0  0  0  0  0  0  0  0  0  0  0  0
    8.1629  -17.4959   21.1818 C   0  0  2  0  0  0  0  0  0  0  0  0
    8.0536  -16.2097   22.0387 C   0  0  0  0  0  0  0  0  0  0  0  0
    9.2137  -16.0680   22.8960 O   0  0  0  0  0  0  0  0  0  0  0  0
   10.1850  -15.3270   22.7612 N   0  0  0  0  0  0  0  0  0  0  0  0
    9.2410  -16.9062   24.0693 C   0  0  1  0  0  0  0  0  0  0  0  0
    9.6872  -16.3994   25.3613 C   0  0  0  0  0  0  0  0  0  0  0  0
    8.8120  -15.2878   25.8347 C   0  0  0  0  0  0  0  0  0  0  0  0
    9.2251  -14.6961   27.1225 C   0  0  0  0  0  0  0  0  0  0  0  0
   10.3306  -15.0905   27.8987 N   0  0  0  0  0  0  0  0  0  0  0  0
   10.4231  -14.3603   28.9937 C   0  0  0  0  0  0  0  0  0  0  0  0
    9.3834  -13.4846   28.9452 N   0  0  0  0  0  0  0  0  0  0  0  0
    8.6779  -13.6913   27.8312 C   0  0  0  0  0  0  0  0  0  0  0  0
    9.5576  -17.5420   26.2876 O   0  0  0  0  0  0  0  0  0  0  0  0
   10.6457  -17.9700   27.0189 O   0  0  0  0  0  0  0  0  0  0  0  0
  1  2  1  0
  2  3  2  0
  4  5  1  0
  4  2  1  0
  6  5  1  0
  7  6  1  0
  8  7  1  0
  8  9  1  1
 10 12  1  0
 10  8  1  0
 11 10  2  0
 12 16  1  0
 13 14  1  0
 13 12  1  0
 14 15  1  0
 15 16  1  0
 16 17  1  6
 17 18  2  0
 19 20  1  0
 19 17  1  0
 20 27  1  0
 20 21  1  1
 22 21  1  0
 23 22  2  0
 24 25  1  0
 24 23  1  0
 25 26  2  0
 26 22  1  0
 27 29  2  0
 27 28  1  0
M  END
$$$$
