RPH.pdb
     RDKit          3D

 29 30  0  0  1  0  0  0  0  0999 V2000
    9.4856  -19.5582   14.9311 N   0  0  0  0  0  0  0  0  0  0  0  0
   10.0425  -18.2820   14.5751 C   0  0  0  0  0  0  0  0  0  0  0  0
   10.0502  -17.9618   13.3446 N   0  0  0  0  0  0  0  0  0  0  0  0
   10.5680  -17.4035   15.5575 N   0  0  0  0  0  0  0  0  0  0  0  0
   10.6809  -17.8696   16.9186 C   0  0  0  0  0  0  0  0  0  0  0  0
   11.2085  -16.7821   17.8389 C   0  0  0  0  0  0  0  0  0  0  0  0
   10.8487  -15.4227   17.3134 C   0  0  0  0  0  0  0  0  0  0  0  0
   11.2998  -14.2873   18.2470 C   0  0  2  0  0  0  0  0  0  0  0  0
   12.7652  -14.3994   18.3963 N   0  0  0  0  0  0  0  0  0  0  0  0
   10.7278  -14.4875   19.6198 C   0  0  0  0  0  0  0  0  0  0  0  0
   11.4125  -15.3059   20.3132 O   0  0  0  0  0  0  0  0  0  0  0  0
   10.4311  -17.0751   12.9973 N   0  0  0  0  0  0  0  0  0  0  0  0
    9.5719  -13.8354   20.0647 C   0  0  0  0  0  0  0  0  0  0  0  0
    9.0832  -12.5768   19.4816 C   0  0  0  0  0  0  0  0  0  0  0  0
    7.6099  -12.8696   19.3566 C   0  0  0  0  0  0  0  0  0  0  0  0
    7.3235  -14.0089   20.3098 C   0  0  2  0  0  0  0  0  0  0  0  0
    8.6530  -14.0822   21.1018 C   0  0  0  0  0  0  0  0  0  0  0  0
    8.7160  -15.3030   21.8807 O   0  0  0  0  0  0  0  0  0  0  0  0
    8.6650  -16.4679   21.4921 N   0  0  0  0  0  0  0  0  0  0  0  0
    8.8577  -15.1386   23.3065 C   0  0  1  0  0  0  0  0  0  0  0  0
    8.8842  -16.2827   24.2095 C   0  0  0  0  0  0  0  0  0  0  0  0
    9.7088  -15.9947   25.4191 C   0  0  0  0  0  0  0  0  0  0  0  0
    9.7060  -17.0733   26.4269 C   0  0  0  0  0  0  0  0  0  0  0  0
    9.4862  -18.4405   26.1764 N   0  0  0  0  0  0  0  0  0  0  0  0
    9.5497  -19.1410   27.2927 C   0  0  0  0  0  0  0  0  0  0  0  0
    9.8106  -18.2430   28.2805 N   0  0  0  0  0  0  0  0  0  0  0  0
    9.9017  -17.0186   27.7573 C   0  0  0  0  0  0  0  0  0  0  0  0
    7.4798  -16.4804   24.6204 O   0  0  0  0  0  0  0  0  0  0  0  0
    7.0814  -17.6769   25.1786 O   0  0  0  0  0  0  0  0  0  0  0  0
  1  2  1  0
  2  3  2  0
  4  5  1  0
  4  2  1  0
  6  5  1  0
  7  6  1  0
  8  7  1  0
  8  9  1  1
 10 12  1  0
 10  8  1  0
 11 10  2  0
 12 16  1  0
 13 14  1  0
 13 12  1  0
 14 15  1  0
 15 16  1  0
 16 17  1  6
 17 18  2  0
 19 20  1  0
 19 17  1  0
 20 27  1  0
 20 21  1  1
 22 21  1  0
 23 22  2  0
 24 25  1  0
 24 23  1  0
 25 26  2  0
 26 22  1  0
 27 29  2  0
 27 28  1  0
M  END
$$$$
