WIQ.pdb
     RDKit          3D

 32 33  0  0  1  0  0  0  0  0999 V2000
    6.6135  -17.1969   25.2516 N   0  0  0  0  0  0  0  0  0  0  0  0
    7.3223  -16.0678   24.7068 C   0  0  1  0  0  0  0  0  0  0  0  0
    8.5437  -15.8117   25.5499 C   0  0  0  0  0  0  0  0  0  0  0  0
    8.2328  -14.8611   26.6195 C   0  0  0  0  0  0  0  0  0  0  0  0
    8.7756  -14.9393   27.9066 C   0  0  0  0  0  0  0  0  0  0  0  0
    8.3173  -13.9061   28.6342 N   0  0  0  0  0  0  0  0  0  0  0  0
    7.4989  -13.1403   27.9104 C   0  0  0  0  0  0  0  0  0  0  0  0
    6.7988  -11.9994   28.2291 C   0  0  0  0  0  0  0  0  0  0  0  0
    5.9970  -11.4036   27.2645 C   0  0  0  0  0  0  0  0  0  0  0  0
    5.9466  -11.9946   26.0297 C   0  0  0  0  0  0  0  0  0  0  0  0
    6.6564  -13.1514   25.7059 C   0  0  0  0  0  0  0  0  0  0  0  0
    7.4471  -13.7363   26.6578 C   0  0  0  0  0  0  0  0  0  0  0  0
    7.6746  -16.2785   23.2759 C   0  0  0  0  0  0  0  0  0  0  0  0
    7.5111  -17.4039   22.7532 O   0  0  0  0  0  0  0  0  0  0  0  0
    7.1694  -11.9889   20.8802 C   0  0  0  0  0  0  0  0  0  0  0  0
    6.9403  -13.4577   20.7454 C   0  0  0  0  0  0  0  0  0  0  0  0
    8.1895  -14.1443   20.2690 C   0  0  2  0  0  0  0  0  0  0  0  0
    8.1639  -14.3904   18.7961 C   0  0  0  0  0  0  0  0  0  0  0  0
    8.4425  -15.4330   21.0535 C   0  0  2  0  0  0  0  0  0  0  0  0
    8.1990  -15.2402   22.4600 N   0  0  0  0  0  0  0  0  0  0  0  0
    9.8121  -15.9447   20.7873 C   0  0  0  0  0  0  0  0  0  0  0  0
   10.7278  -15.1289   20.5048 O   0  0  0  0  0  0  0  0  0  0  0  0
   13.3871  -16.6866   24.9477 N   0  0  0  0  0  0  0  0  0  0  0  0
   13.9400  -16.2673   23.7188 C   0  0  0  0  0  0  0  0  0  0  0  0
   15.1133  -15.7518   23.7551 O   0  0  0  0  0  0  0  0  0  0  0  0
   13.2315  -16.4112   22.4527 C   0  0  0  0  0  0  0  0  0  0  0  0
   11.8641  -16.9920   22.4958 C   0  0  0  0  0  0  0  0  0  0  0  0
   11.4828  -17.7927   21.3115 C   0  0  2  0  0  0  0  0  0  0  0  0
   10.1474  -17.3176   20.8353 N   0  0  0  0  0  0  0  0  0  0  0  0
   11.4688  -19.2476   21.3965 C   0  0  0  0  0  0  0  0  0  0  0  0
   12.5268  -19.9585   20.8011 O   0  0  0  0  0  0  0  0  0  0  0  0
   10.6013  -19.9485   21.9519 O   0  0  0  0  0  0  0  0  0  0  0  0
  2 13  1  0
  2  1  1  1
  3  2  1  0
  4  5  2  0
  4  3  1  0
  6  5  1  0
  7 12  2  0
  7  6  1  0
  8  7  1  0
  9 10  1  0
  9  8  2  0
 10 11  2  0
 11 12  1  0
 12  4  1  0
 13 14  2  0
 15 16  1  0
 17 19  1  0
 17 16  1  0
 17 18  1  6
 19 20  1  1
 20 13  1  0
 21 22  2  0
 21 19  1  0
 23 24  1  0
 24 25  2  0
 24 26  1  0
 26 27  1  0
 28 27  1  1
 28 30  1  0
 28 29  1  0
 29 21  1  0
 30 31  1  0
 32 30  2  0
M  END
$$$$
