WIQ.pdb
     RDKit          3D

 32 33  0  0  1  0  0  0  0  0999 V2000
    5.6902  -18.6255   24.7968 N   0  0  0  0  0  0  0  0  0  0  0  0
    6.2544  -17.3014   24.7486 C   0  0  1  0  0  0  0  0  0  0  0  0
    6.7893  -16.9543   26.1130 C   0  0  0  0  0  0  0  0  0  0  0  0
    6.7735  -15.5036   26.3113 C   0  0  0  0  0  0  0  0  0  0  0  0
    5.6305  -14.7128   26.1514 C   0  0  0  0  0  0  0  0  0  0  0  0
    5.9423  -13.4368   26.4370 N   0  0  0  0  0  0  0  0  0  0  0  0
    7.2273  -13.3260   26.7785 C   0  0  0  0  0  0  0  0  0  0  0  0
    7.9839  -12.2343   27.1378 C   0  0  0  0  0  0  0  0  0  0  0  0
    9.3285  -12.4095   27.4372 C   0  0  0  0  0  0  0  0  0  0  0  0
    9.8349  -13.6797   27.3566 C   0  0  0  0  0  0  0  0  0  0  0  0
    9.0681  -14.7872   26.9925 C   0  0  0  0  0  0  0  0  0  0  0  0
    7.7427  -14.6124   26.6990 C   0  0  0  0  0  0  0  0  0  0  0  0
    7.3049  -17.1895   23.6999 C   0  0  0  0  0  0  0  0  0  0  0  0
    8.0214  -18.1790   23.4276 O   0  0  0  0  0  0  0  0  0  0  0  0
    7.0823  -12.8721   20.1935 C   0  0  0  0  0  0  0  0  0  0  0  0
    7.1783  -14.2738   20.6977 C   0  0  0  0  0  0  0  0  0  0  0  0
    8.5385  -14.5312   21.2828 C   0  0  2  0  0  0  0  0  0  0  0  0
    9.6187  -14.4106   20.2583 C   0  0  0  0  0  0  0  0  0  0  0  0
    8.5838  -15.8840   21.9959 C   0  0  2  0  0  0  0  0  0  0  0  0
    7.5368  -15.9869   22.9796 N   0  0  0  0  0  0  0  0  0  0  0  0
    9.9287  -16.1188   22.5828 C   0  0  0  0  0  0  0  0  0  0  0  0
   10.3103  -15.4060   23.5473 O   0  0  0  0  0  0  0  0  0  0  0  0
   14.4690  -20.7507   23.2554 N   0  0  0  0  0  0  0  0  0  0  0  0
   13.9943  -20.4753   21.9552 C   0  0  0  0  0  0  0  0  0  0  0  0
   14.5160  -21.1423   20.9925 O   0  0  0  0  0  0  0  0  0  0  0  0
   12.9535  -19.4878   21.6953 C   0  0  0  0  0  0  0  0  0  0  0  0
   12.3152  -18.8407   22.8712 C   0  0  0  0  0  0  0  0  0  0  0  0
   12.1350  -17.3762   22.7629 C   0  0  2  0  0  0  0  0  0  0  0  0
   10.8154  -17.1138   22.1104 N   0  0  0  0  0  0  0  0  0  0  0  0
   13.1581  -16.5681   22.1115 C   0  0  0  0  0  0  0  0  0  0  0  0
   12.9745  -16.2266   20.7592 O   0  0  0  0  0  0  0  0  0  0  0  0
   14.2037  -16.1359   22.6335 O   0  0  0  0  0  0  0  0  0  0  0  0
  2 13  1  0
  2  1  1  1
  3  2  1  0
  4  5  2  0
  4  3  1  0
  6  5  1  0
  7 12  2  0
  7  6  1  0
  8  7  1  0
  9 10  1  0
  9  8  2  0
 10 11  2  0
 11 12  1  0
 12  4  1  0
 13 14  2  0
 15 16  1  0
 17 19  1  0
 17 16  1  0
 17 18  1  6
 19 20  1  1
 20 13  1  0
 21 22  2  0
 21 19  1  0
 23 24  1  0
 24 25  2  0
 24 26  1  0
 26 27  1  0
 28 27  1  6
 28 30  1  0
 28 29  1  0
 29 21  1  0
 30 31  1  0
 32 30  2  0
M  END
$$$$
