WIQ.pdb
     RDKit          3D

 32 33  0  0  1  0  0  0  0  0999 V2000
    5.6344  -17.8681   24.2438 N   0  0  0  0  0  0  0  0  0  0  0  0
    6.3803  -16.6439   24.1057 C   0  0  1  0  0  0  0  0  0  0  0  0
    7.0882  -16.3605   25.4044 C   0  0  0  0  0  0  0  0  0  0  0  0
    6.5958  -15.1120   25.9898 C   0  0  0  0  0  0  0  0  0  0  0  0
    5.3458  -14.9857   26.6055 C   0  0  0  0  0  0  0  0  0  0  0  0
    5.2130  -13.7292   27.0641 N   0  0  0  0  0  0  0  0  0  0  0  0
    6.3005  -13.0057   26.7916 C   0  0  0  0  0  0  0  0  0  0  0  0
    6.6103  -11.6913   27.0553 C   0  0  0  0  0  0  0  0  0  0  0  0
    7.8349  -11.1861   26.6389 C   0  0  0  0  0  0  0  0  0  0  0  0
    8.6797  -12.0381   25.9779 C   0  0  0  0  0  0  0  0  0  0  0  0
    8.3661  -13.3712   25.7104 C   0  0  0  0  0  0  0  0  0  0  0  0
    7.1590  -13.8674   26.1228 C   0  0  0  0  0  0  0  0  0  0  0  0
    7.3309  -16.7058   22.9618 C   0  0  0  0  0  0  0  0  0  0  0  0
    7.8112  -17.8066   22.6096 O   0  0  0  0  0  0  0  0  0  0  0  0
    7.3917  -12.3366   19.7275 C   0  0  0  0  0  0  0  0  0  0  0  0
    7.3705  -13.8069   19.9847 C   0  0  0  0  0  0  0  0  0  0  0  0
    8.7338  -14.2901   20.3929 C   0  0  2  0  0  0  0  0  0  0  0  0
    9.6715  -14.3605   19.2325 C   0  0  0  0  0  0  0  0  0  0  0  0
    8.6455  -15.6273   21.1309 C   0  0  2  0  0  0  0  0  0  0  0  0
    7.7265  -15.5493   22.2372 N   0  0  0  0  0  0  0  0  0  0  0  0
    9.9963  -16.0781   21.5557 C   0  0  0  0  0  0  0  0  0  0  0  0
   10.5330  -15.5451   22.5616 O   0  0  0  0  0  0  0  0  0  0  0  0
   13.0101  -22.1406   21.6636 N   0  0  0  0  0  0  0  0  0  0  0  0
   13.6096  -21.0649   20.9743 C   0  0  0  0  0  0  0  0  0  0  0  0
   14.3280  -21.3569   19.9534 O   0  0  0  0  0  0  0  0  0  0  0  0
   13.4277  -19.6767   21.3811 C   0  0  0  0  0  0  0  0  0  0  0  0
   12.1153  -19.0439   21.0876 C   0  0  0  0  0  0  0  0  0  0  0  0
   12.0319  -17.5981   21.3908 C   0  0  2  0  0  0  0  0  0  0  0  0
   10.7217  -17.0879   20.8821 N   0  0  0  0  0  0  0  0  0  0  0  0
   13.0953  -16.7045   20.9498 C   0  0  0  0  0  0  0  0  0  0  0  0
   14.1962  -16.5089   21.8037 O   0  0  0  0  0  0  0  0  0  0  0  0
   13.1377  -16.0788   19.8732 O   0  0  0  0  0  0  0  0  0  0  0  0
  2 13  1  0
  2  1  1  1
  3  2  1  0
  4  5  2  0
  4  3  1  0
  6  5  1  0
  7 12  2  0
  7  6  1  0
  8  7  1  0
  9 10  1  0
  9  8  2  0
 10 11  2  0
 11 12  1  0
 12  4  1  0
 13 14  2  0
 15 16  1  0
 17 19  1  0
 17 16  1  0
 17 18  1  6
 19 20  1  1
 20 13  1  0
 21 22  2  0
 21 19  1  0
 23 24  1  0
 24 25  2  0
 24 26  1  0
 26 27  1  0
 28 27  1  6
 28 30  1  0
 28 29  1  0
 29 21  1  0
 30 31  1  0
 32 30  2  0
M  END
$$$$
