WIQ.pdb
     RDKit          3D

 32 33  0  0  1  0  0  0  0  0999 V2000
    6.0082  -18.2840   24.4293 N   0  0  0  0  0  0  0  0  0  0  0  0
    6.5729  -16.9642   24.3129 C   0  0  1  0  0  0  0  0  0  0  0  0
    7.2016  -16.5900   25.6293 C   0  0  0  0  0  0  0  0  0  0  0  0
    6.6546  -15.3200   26.1110 C   0  0  0  0  0  0  0  0  0  0  0  0
    5.3748  -15.1869   26.6603 C   0  0  0  0  0  0  0  0  0  0  0  0
    5.1928  -13.9078   27.0313 N   0  0  0  0  0  0  0  0  0  0  0  0
    6.2753  -13.1757   26.7624 C   0  0  0  0  0  0  0  0  0  0  0  0
    6.5431  -11.8399   26.9553 C   0  0  0  0  0  0  0  0  0  0  0  0
    7.7742  -11.3311   26.5631 C   0  0  0  0  0  0  0  0  0  0  0  0
    8.6677  -12.2013   25.9966 C   0  0  0  0  0  0  0  0  0  0  0  0
    8.3968  -13.5560   25.8010 C   0  0  0  0  0  0  0  0  0  0  0  0
    7.1832  -14.0557   26.1894 C   0  0  0  0  0  0  0  0  0  0  0  0
    7.5494  -16.8812   23.1923 C   0  0  0  0  0  0  0  0  0  0  0  0
    8.0959  -17.9224   22.7637 O   0  0  0  0  0  0  0  0  0  0  0  0
    6.9868  -12.7870   19.5343 C   0  0  0  0  0  0  0  0  0  0  0  0
    7.1749  -14.1265   20.1657 C   0  0  0  0  0  0  0  0  0  0  0  0
    8.5847  -14.2813   20.6628 C   0  0  2  0  0  0  0  0  0  0  0  0
    9.5833  -14.1431   19.5608 C   0  0  0  0  0  0  0  0  0  0  0  0
    8.7590  -15.5978   21.4223 C   0  0  2  0  0  0  0  0  0  0  0  0
    7.8969  -15.6496   22.5749 N   0  0  0  0  0  0  0  0  0  0  0  0
   10.1860  -15.8079   21.7803 C   0  0  0  0  0  0  0  0  0  0  0  0
   11.0413  -15.9033   20.8621 O   0  0  0  0  0  0  0  0  0  0  0  0
   11.2302  -14.5086   27.2685 N   0  0  0  0  0  0  0  0  0  0  0  0
   10.7458  -15.7891   26.9258 C   0  0  0  0  0  0  0  0  0  0  0  0
    9.8602  -16.3015   27.6985 O   0  0  0  0  0  0  0  0  0  0  0  0
   11.2103  -16.5116   25.7477 C   0  0  0  0  0  0  0  0  0  0  0  0
   12.2498  -15.8584   24.9101 C   0  0  0  0  0  0  0  0  0  0  0  0
   12.0920  -16.0461   23.4510 C   0  0  2  0  0  0  0  0  0  0  0  0
   10.6416  -15.9071   23.1153 N   0  0  0  0  0  0  0  0  0  0  0  0
   12.6153  -17.2491   22.8161 C   0  0  0  0  0  0  0  0  0  0  0  0
   13.9951  -17.5058   22.9137 O   0  0  0  0  0  0  0  0  0  0  0  0
   11.9589  -18.0960   22.1804 O   0  0  0  0  0  0  0  0  0  0  0  0
  2 13  1  0
  2  1  1  1
  3  2  1  0
  4  5  2  0
  4  3  1  0
  6  5  1  0
  7 12  2  0
  7  6  1  0
  8  7  1  0
  9 10  1  0
  9  8  2  0
 10 11  2  0
 11 12  1  0
 12  4  1  0
 13 14  2  0
 15 16  1  0
 17 19  1  0
 17 16  1  0
 17 18  1  6
 19 20  1  1
 20 13  1  0
 21 22  2  0
 21 19  1  0
 23 24  1  0
 24 25  2  0
 24 26  1  0
 26 27  1  0
 28 27  1  1
 28 30  1  0
 28 29  1  0
 29 21  1  0
 30 31  1  0
 32 30  2  0
M  END
$$$$
