WIQ.pdb
     RDKit          3D

 32 33  0  0  1  0  0  0  0  0999 V2000
    6.9419  -19.2078   26.5726 N   0  0  0  0  0  0  0  0  0  0  0  0
    7.6999  -17.9913   26.7123 C   0  0  1  0  0  0  0  0  0  0  0  0
    9.1296  -18.3463   27.0253 C   0  0  0  0  0  0  0  0  0  0  0  0
    9.5543  -17.6971   28.2672 C   0  0  0  0  0  0  0  0  0  0  0  0
    9.8257  -18.3922   29.4506 C   0  0  0  0  0  0  0  0  0  0  0  0
   10.2204  -17.5143   30.3888 N   0  0  0  0  0  0  0  0  0  0  0  0
   10.2291  -16.2713   29.9037 C   0  0  0  0  0  0  0  0  0  0  0  0
   10.5489  -15.0673   30.4879 C   0  0  0  0  0  0  0  0  0  0  0  0
   10.4564  -13.9029   29.7369 C   0  0  0  0  0  0  0  0  0  0  0  0
   10.0451  -14.0198   28.4355 C   0  0  0  0  0  0  0  0  0  0  0  0
    9.7208  -15.2406   27.8425 C   0  0  0  0  0  0  0  0  0  0  0  0
    9.8138  -16.3871   28.5843 C   0  0  0  0  0  0  0  0  0  0  0  0
    7.5974  -17.1374   25.4971 C   0  0  0  0  0  0  0  0  0  0  0  0
    7.7460  -17.6466   24.3635 O   0  0  0  0  0  0  0  0  0  0  0  0
    7.5432  -11.4292   26.0877 C   0  0  0  0  0  0  0  0  0  0  0  0
    7.9629  -12.8355   25.8150 C   0  0  0  0  0  0  0  0  0  0  0  0
    7.0984  -13.4460   24.7480 C   0  0  2  0  0  0  0  0  0  0  0  0
    5.6481  -13.3795   25.0990 C   0  0  0  0  0  0  0  0  0  0  0  0
    7.5393  -14.8769   24.4341 C   0  0  2  0  0  0  0  0  0  0  0  0
    7.3338  -15.7430   25.5665 N   0  0  0  0  0  0  0  0  0  0  0  0
    8.9485  -14.8962   23.9627 C   0  0  0  0  0  0  0  0  0  0  0  0
    9.8787  -14.9224   24.8100 O   0  0  0  0  0  0  0  0  0  0  0  0
   10.9513  -19.6220   23.6239 N   0  0  0  0  0  0  0  0  0  0  0  0
   11.9055  -19.0684   22.7438 C   0  0  0  0  0  0  0  0  0  0  0  0
   12.8939  -19.8152   22.4136 O   0  0  0  0  0  0  0  0  0  0  0  0
   11.7893  -17.7145   22.2152 C   0  0  0  0  0  0  0  0  0  0  0  0
   10.6009  -16.9205   22.6227 C   0  0  0  0  0  0  0  0  0  0  0  0
   10.5569  -15.5383   22.0968 C   0  0  2  0  0  0  0  0  0  0  0  0
    9.3063  -14.8873   22.5947 N   0  0  0  0  0  0  0  0  0  0  0  0
   10.6770  -15.3062   20.6629 C   0  0  0  0  0  0  0  0  0  0  0  0
   11.9322  -15.5063   20.0599 O   0  0  0  0  0  0  0  0  0  0  0  0
    9.7679  -14.9406   19.8935 O   0  0  0  0  0  0  0  0  0  0  0  0
  2 13  1  0
  2  1  1  6
  3  2  1  0
  4  5  2  0
  4  3  1  0
  6  5  1  0
  7 12  2  0
  7  6  1  0
  8  7  1  0
  9 10  1  0
  9  8  2  0
 10 11  2  0
 11 12  1  0
 12  4  1  0
 13 14  2  0
 15 16  1  0
 17 19  1  0
 17 16  1  0
 17 18  1  1
 19 20  1  1
 20 13  1  0
 21 22  2  0
 21 19  1  0
 23 24  1  0
 24 25  2  0
 24 26  1  0
 26 27  1  0
 28 27  1  6
 28 30  1  0
 28 29  1  0
 29 21  1  0
 30 31  1  0
 32 30  2  0
M  END
$$$$
