WIQ.pdb
     RDKit          3D

 32 33  0  0  1  0  0  0  0  0999 V2000
    8.6297  -16.7030   23.8792 N   0  0  0  0  0  0  0  0  0  0  0  0
    7.7006  -16.5629   24.9706 C   0  0  1  0  0  0  0  0  0  0  0  0
    6.4742  -15.8451   24.4718 C   0  0  0  0  0  0  0  0  0  0  0  0
    6.7732  -14.4312   24.2365 C   0  0  0  0  0  0  0  0  0  0  0  0
    7.4525  -13.9610   23.1073 C   0  0  0  0  0  0  0  0  0  0  0  0
    7.5360  -12.6213   23.1778 N   0  0  0  0  0  0  0  0  0  0  0  0
    6.9528  -12.1659   24.2881 C   0  0  0  0  0  0  0  0  0  0  0  0
    6.8020  -10.8901   24.7808 C   0  0  0  0  0  0  0  0  0  0  0  0
    6.1490  -10.7032   25.9920 C   0  0  0  0  0  0  0  0  0  0  0  0
    5.6844  -11.8174   26.6394 C   0  0  0  0  0  0  0  0  0  0  0  0
    5.8369  -13.1114   26.1402 C   0  0  0  0  0  0  0  0  0  0  0  0
    6.4797  -13.2932   24.9456 C   0  0  0  0  0  0  0  0  0  0  0  0
    7.3607  -17.8800   25.5754 C   0  0  0  0  0  0  0  0  0  0  0  0
    6.5157  -17.9431   26.4966 O   0  0  0  0  0  0  0  0  0  0  0  0
    5.5162  -22.1218   23.6029 C   0  0  0  0  0  0  0  0  0  0  0  0
    6.5887  -21.0958   23.7616 C   0  0  0  0  0  0  0  0  0  0  0  0
    7.5346  -21.4881   24.8617 C   0  0  2  0  0  0  0  0  0  0  0  0
    7.0941  -22.7334   25.5587 C   0  0  0  0  0  0  0  0  0  0  0  0
    7.7451  -20.3343   25.8440 C   0  0  2  0  0  0  0  0  0  0  0  0
    7.9637  -19.0930   25.1468 N   0  0  0  0  0  0  0  0  0  0  0  0
    8.8490  -20.6485   26.7878 C   0  0  0  0  0  0  0  0  0  0  0  0
    8.6308  -21.4316   27.7486 O   0  0  0  0  0  0  0  0  0  0  0  0
   13.3011  -19.5976   24.0781 N   0  0  0  0  0  0  0  0  0  0  0  0
   13.4550  -18.6958   25.1527 C   0  0  0  0  0  0  0  0  0  0  0  0
   14.1390  -17.6350   24.9278 O   0  0  0  0  0  0  0  0  0  0  0  0
   12.8656  -18.9345   26.4647 C   0  0  0  0  0  0  0  0  0  0  0  0
   12.5438  -20.3401   26.8248 C   0  0  0  0  0  0  0  0  0  0  0  0
   11.2724  -20.5266   27.5582 C   0  0  2  0  0  0  0  0  0  0  0  0
   10.1499  -20.1084   26.6633 N   0  0  0  0  0  0  0  0  0  0  0  0
   11.0950  -19.9088   28.8662 C   0  0  0  0  0  0  0  0  0  0  0  0
   11.9828  -20.2675   29.8969 O   0  0  0  0  0  0  0  0  0  0  0  0
   10.2216  -19.0774   29.1800 O   0  0  0  0  0  0  0  0  0  0  0  0
  2 13  1  0
  2  1  1  6
  3  2  1  0
  4  5  2  0
  4  3  1  0
  6  5  1  0
  7 12  2  0
  7  6  1  0
  8  7  1  0
  9 10  1  0
  9  8  2  0
 10 11  2  0
 11 12  1  0
 12  4  1  0
 13 14  2  0
 15 16  1  0
 17 19  1  0
 17 16  1  0
 17 18  1  1
 19 20  1  6
 20 13  1  0
 21 22  2  0
 21 19  1  0
 23 24  1  0
 24 25  2  0
 24 26  1  0
 26 27  1  0
 28 27  1  6
 28 30  1  0
 28 29  1  0
 29 21  1  0
 30 31  1  0
 32 30  2  0
M  END
$$$$
