WIQ.pdb
     RDKit          3D

 32 33  0  0  1  0  0  0  0  0999 V2000
    5.7821  -18.3779   24.5562 N   0  0  0  0  0  0  0  0  0  0  0  0
    6.3266  -17.0471   24.4752 C   0  0  1  0  0  0  0  0  0  0  0  0
    6.8599  -16.6602   25.8295 C   0  0  0  0  0  0  0  0  0  0  0  0
    6.5382  -15.2619   26.1218 C   0  0  0  0  0  0  0  0  0  0  0  0
    5.2313  -14.7719   26.2184 C   0  0  0  0  0  0  0  0  0  0  0  0
    5.2798  -13.4646   26.5272 N   0  0  0  0  0  0  0  0  0  0  0  0
    6.5425  -13.0495   26.6429 C   0  0  0  0  0  0  0  0  0  0  0  0
    7.0724  -11.8134   26.9336 C   0  0  0  0  0  0  0  0  0  0  0  0
    8.4518  -11.6601   26.9788 C   0  0  0  0  0  0  0  0  0  0  0  0
    9.2204  -12.7657   26.7272 C   0  0  0  0  0  0  0  0  0  0  0  0
    8.6836  -14.0195   26.4326 C   0  0  0  0  0  0  0  0  0  0  0  0
    7.3237  -14.1686   26.3897 C   0  0  0  0  0  0  0  0  0  0  0  0
    7.3727  -16.9446   23.4210 C   0  0  0  0  0  0  0  0  0  0  0  0
    8.1770  -17.8878   23.2476 O   0  0  0  0  0  0  0  0  0  0  0  0
    7.0827  -12.7167   19.7546 C   0  0  0  0  0  0  0  0  0  0  0  0
    7.1878  -14.1029   20.2984 C   0  0  0  0  0  0  0  0  0  0  0  0
    8.5340  -14.3206   20.9300 C   0  0  2  0  0  0  0  0  0  0  0  0
    9.6442  -14.1763   19.9413 C   0  0  0  0  0  0  0  0  0  0  0  0
    8.5916  -15.6677   21.6526 C   0  0  2  0  0  0  0  0  0  0  0  0
    7.5031  -15.8023   22.5863 N   0  0  0  0  0  0  0  0  0  0  0  0
    9.9144  -15.8535   22.3039 C   0  0  0  0  0  0  0  0  0  0  0  0
   10.2205  -15.1315   23.2882 O   0  0  0  0  0  0  0  0  0  0  0  0
   12.2503  -20.6949   24.9089 N   0  0  0  0  0  0  0  0  0  0  0  0
   13.4199  -19.9356   24.6914 C   0  0  0  0  0  0  0  0  0  0  0  0
   14.5039  -20.3745   25.2168 O   0  0  0  0  0  0  0  0  0  0  0  0
   13.4211  -18.7096   23.9023 C   0  0  0  0  0  0  0  0  0  0  0  0
   12.1373  -18.2967   23.2775 C   0  0  0  0  0  0  0  0  0  0  0  0
   12.1722  -17.0002   22.5656 C   0  0  2  0  0  0  0  0  0  0  0  0
   10.8610  -16.8112   21.8723 N   0  0  0  0  0  0  0  0  0  0  0  0
   13.2522  -16.7189   21.6283 C   0  0  0  0  0  0  0  0  0  0  0  0
   14.4926  -16.3056   22.1477 O   0  0  0  0  0  0  0  0  0  0  0  0
   13.1963  -16.8060   20.3867 O   0  0  0  0  0  0  0  0  0  0  0  0
  2 13  1  0
  2  1  1  1
  3  2  1  0
  4  5  2  0
  4  3  1  0
  6  5  1  0
  7 12  2  0
  7  6  1  0
  8  7  1  0
  9 10  1  0
  9  8  2  0
 10 11  2  0
 11 12  1  0
 12  4  1  0
 13 14  2  0
 15 16  1  0
 17 19  1  0
 17 16  1  0
 17 18  1  6
 19 20  1  1
 20 13  1  0
 21 22  2  0
 21 19  1  0
 23 24  1  0
 24 25  2  0
 24 26  1  0
 26 27  1  0
 28 27  1  6
 28 30  1  0
 28 29  1  0
 29 21  1  0
 30 31  1  0
 32 30  2  0
M  END
$$$$
