WIQ.pdb
     RDKit          3D

 32 33  0  0  1  0  0  0  0  0999 V2000
    7.1292  -19.3671   26.7428 N   0  0  0  0  0  0  0  0  0  0  0  0
    7.7700  -18.0780   26.7832 C   0  0  1  0  0  0  0  0  0  0  0  0
    9.2525  -18.2807   26.9545 C   0  0  0  0  0  0  0  0  0  0  0  0
    9.7262  -17.5820   28.1510 C   0  0  0  0  0  0  0  0  0  0  0  0
   10.1335  -18.2357   29.3189 C   0  0  0  0  0  0  0  0  0  0  0  0
   10.5387  -17.3163   30.2119 N   0  0  0  0  0  0  0  0  0  0  0  0
   10.4265  -16.0847   29.7111 C   0  0  0  0  0  0  0  0  0  0  0  0
   10.7081  -14.8516   30.2527 C   0  0  0  0  0  0  0  0  0  0  0  0
   10.4802  -13.7100   29.4957 C   0  0  0  0  0  0  0  0  0  0  0  0
    9.9794  -13.8778   28.2318 C   0  0  0  0  0  0  0  0  0  0  0  0
    9.6938  -15.1281   27.6820 C   0  0  0  0  0  0  0  0  0  0  0  0
    9.9203  -16.2520   28.4295 C   0  0  0  0  0  0  0  0  0  0  0  0
    7.4604  -17.2721   25.5704 C   0  0  0  0  0  0  0  0  0  0  0  0
    6.9375  -17.8209   24.5745 O   0  0  0  0  0  0  0  0  0  0  0  0
    6.4327  -11.8933   26.1412 C   0  0  0  0  0  0  0  0  0  0  0  0
    6.2679  -13.2805   25.6152 C   0  0  0  0  0  0  0  0  0  0  0  0
    7.3681  -13.6107   24.6461 C   0  0  2  0  0  0  0  0  0  0  0  0
    7.2871  -12.7818   23.4062 C   0  0  0  0  0  0  0  0  0  0  0  0
    7.3891  -15.1065   24.3261 C   0  0  2  0  0  0  0  0  0  0  0  0
    7.7371  -15.8808   25.4897 N   0  0  0  0  0  0  0  0  0  0  0  0
    8.2935  -15.3814   23.1794 C   0  0  0  0  0  0  0  0  0  0  0  0
    7.9589  -14.9981   22.0283 O   0  0  0  0  0  0  0  0  0  0  0  0
   13.8114  -14.0881   21.2416 N   0  0  0  0  0  0  0  0  0  0  0  0
   12.8460  -14.3150   20.2375 C   0  0  0  0  0  0  0  0  0  0  0  0
   12.9370  -13.6063   19.1730 O   0  0  0  0  0  0  0  0  0  0  0  0
   11.7896  -15.3099   20.3787 C   0  0  0  0  0  0  0  0  0  0  0  0
   10.8408  -15.1445   21.5106 C   0  0  0  0  0  0  0  0  0  0  0  0
   10.3757  -16.4046   22.1312 C   0  0  2  0  0  0  0  0  0  0  0  0
    9.5274  -16.0592   23.3130 N   0  0  0  0  0  0  0  0  0  0  0  0
   11.3462  -17.4196   22.5211 C   0  0  0  0  0  0  0  0  0  0  0  0
   11.3919  -17.8118   23.8714 O   0  0  0  0  0  0  0  0  0  0  0  0
   12.1602  -17.9922   21.7716 O   0  0  0  0  0  0  0  0  0  0  0  0
  2 13  1  0
  2  1  1  6
  3  2  1  0
  4  5  2  0
  4  3  1  0
  6  5  1  0
  7 12  2  0
  7  6  1  0
  8  7  1  0
  9 10  1  0
  9  8  2  0
 10 11  2  0
 11 12  1  0
 12  4  1  0
 13 14  2  0
 15 16  1  0
 17 19  1  0
 17 16  1  0
 17 18  1  6
 19 20  1  1
 20 13  1  0
 21 22  2  0
 21 19  1  0
 23 24  1  0
 24 25  2  0
 24 26  1  0
 26 27  1  0
 28 27  1  1
 28 30  1  0
 28 29  1  0
 29 21  1  0
 30 31  1  0
 32 30  2  0
M  END
$$$$
