WIQ.pdb
     RDKit          3D

 32 33  0  0  1  0  0  0  0  0999 V2000
    6.5482  -19.3122   26.6969 N   0  0  0  0  0  0  0  0  0  0  0  0
    7.4332  -18.1855   26.8434 C   0  0  1  0  0  0  0  0  0  0  0  0
    8.7956  -18.6899   27.2404 C   0  0  0  0  0  0  0  0  0  0  0  0
    9.3137  -17.9178   28.3716 C   0  0  0  0  0  0  0  0  0  0  0  0
    9.7388  -18.4951   29.5730 C   0  0  0  0  0  0  0  0  0  0  0  0
   10.1848  -17.5232   30.3874 N   0  0  0  0  0  0  0  0  0  0  0  0
   10.0831  -16.3283   29.8026 C   0  0  0  0  0  0  0  0  0  0  0  0
   10.4023  -15.0659   30.2472 C   0  0  0  0  0  0  0  0  0  0  0  0
   10.1765  -13.9765   29.4161 C   0  0  0  0  0  0  0  0  0  0  0  0
    9.6397  -14.2234   28.1803 C   0  0  0  0  0  0  0  0  0  0  0  0
    9.3159  -15.5034   27.7288 C   0  0  0  0  0  0  0  0  0  0  0  0
    9.5404  -16.5758   28.5491 C   0  0  0  0  0  0  0  0  0  0  0  0
    7.4891  -17.3656   25.6021 C   0  0  0  0  0  0  0  0  0  0  0  0
    7.4492  -17.9254   24.4833 O   0  0  0  0  0  0  0  0  0  0  0  0
    6.3405  -12.0150   26.0820 C   0  0  0  0  0  0  0  0  0  0  0  0
    6.2924  -13.3936   25.5114 C   0  0  0  0  0  0  0  0  0  0  0  0
    7.5340  -13.6771   24.7133 C   0  0  2  0  0  0  0  0  0  0  0  0
    7.5929  -12.8607   23.4640 C   0  0  0  0  0  0  0  0  0  0  0  0
    7.6696  -15.1722   24.4190 C   0  0  2  0  0  0  0  0  0  0  0  0
    7.5882  -15.9485   25.6295 N   0  0  0  0  0  0  0  0  0  0  0  0
    8.9199  -15.4431   23.6629 C   0  0  0  0  0  0  0  0  0  0  0  0
   10.0299  -15.2667   24.2292 O   0  0  0  0  0  0  0  0  0  0  0  0
   11.0470  -19.6450   20.2024 N   0  0  0  0  0  0  0  0  0  0  0  0
    9.6853  -19.5092   20.5475 C   0  0  0  0  0  0  0  0  0  0  0  0
    9.0399  -20.5873   20.8020 O   0  0  0  0  0  0  0  0  0  0  0  0
    9.0237  -18.2122   20.6253 C   0  0  0  0  0  0  0  0  0  0  0  0
    9.8573  -17.0038   20.3936 C   0  0  0  0  0  0  0  0  0  0  0  0
   10.2003  -16.2334   21.6093 C   0  0  2  0  0  0  0  0  0  0  0  0
    8.9307  -15.8953   22.3232 N   0  0  0  0  0  0  0  0  0  0  0  0
   11.0188  -15.0327   21.4974 C   0  0  0  0  0  0  0  0  0  0  0  0
   12.4162  -15.1838   21.4390 O   0  0  0  0  0  0  0  0  0  0  0  0
   10.6067  -13.8580   21.4468 O   0  0  0  0  0  0  0  0  0  0  0  0
  2 13  1  0
  2  1  1  6
  3  2  1  0
  4  5  2  0
  4  3  1  0
  6  5  1  0
  7 12  2  0
  7  6  1  0
  8  7  1  0
  9 10  1  0
  9  8  2  0
 10 11  2  0
 11 12  1  0
 12  4  1  0
 13 14  2  0
 15 16  1  0
 17 19  1  0
 17 16  1  0
 17 18  1  6
 19 20  1  1
 20 13  1  0
 21 22  2  0
 21 19  1  0
 23 24  1  0
 24 25  2  0
 24 26  1  0
 26 27  1  0
 28 27  1  6
 28 30  1  0
 28 29  1  0
 29 21  1  0
 30 31  1  0
 32 30  2  0
M  END
$$$$
