WIQ.pdb
     RDKit          3D

 32 33  0  0  1  0  0  0  0  0999 V2000
    6.2488  -17.3892   25.7018 N   0  0  0  0  0  0  0  0  0  0  0  0
    7.0481  -16.3172   25.1669 C   0  0  1  0  0  0  0  0  0  0  0  0
    8.2638  -16.1400   26.0380 C   0  0  0  0  0  0  0  0  0  0  0  0
    8.1290  -14.9356   26.8599 C   0  0  0  0  0  0  0  0  0  0  0  0
    8.7344  -14.7808   28.1116 C   0  0  0  0  0  0  0  0  0  0  0  0
    8.4427  -13.5576   28.5864 N   0  0  0  0  0  0  0  0  0  0  0  0
    7.6770  -12.8835   27.7264 C   0  0  0  0  0  0  0  0  0  0  0  0
    7.1339  -11.6207   27.7859 C   0  0  0  0  0  0  0  0  0  0  0  0
    6.3506  -11.1686   26.7321 C   0  0  0  0  0  0  0  0  0  0  0  0
    6.1591  -12.0188   25.6753 C   0  0  0  0  0  0  0  0  0  0  0  0
    6.7098  -13.2995   25.6143 C   0  0  0  0  0  0  0  0  0  0  0  0
    7.4824  -13.7426   26.6535 C   0  0  0  0  0  0  0  0  0  0  0  0
    7.4190  -16.5644   23.7465 C   0  0  0  0  0  0  0  0  0  0  0  0
    7.5436  -17.7381   23.3303 O   0  0  0  0  0  0  0  0  0  0  0  0
    8.3589  -12.1814   20.1555 C   0  0  0  0  0  0  0  0  0  0  0  0
    8.6692  -13.3462   21.0360 C   0  0  0  0  0  0  0  0  0  0  0  0
    7.9207  -14.5666   20.5786 C   0  0  2  0  0  0  0  0  0  0  0  0
    6.4599  -14.2985   20.4202 C   0  0  0  0  0  0  0  0  0  0  0  0
    8.1804  -15.7525   21.5094 C   0  0  2  0  0  0  0  0  0  0  0  0
    7.6432  -15.5079   22.8233 N   0  0  0  0  0  0  0  0  0  0  0  0
    9.6303  -16.0762   21.5486 C   0  0  0  0  0  0  0  0  0  0  0  0
   10.3829  -15.4290   22.3223 O   0  0  0  0  0  0  0  0  0  0  0  0
   11.9684  -21.7602   21.4095 N   0  0  0  0  0  0  0  0  0  0  0  0
   11.2728  -20.9438   22.3268 C   0  0  0  0  0  0  0  0  0  0  0  0
   10.7448  -21.5266   23.3394 O   0  0  0  0  0  0  0  0  0  0  0  0
   11.1538  -19.5008   22.1557 C   0  0  0  0  0  0  0  0  0  0  0  0
   11.7950  -18.8986   20.9577 C   0  0  0  0  0  0  0  0  0  0  0  0
   11.6712  -17.4282   20.8498 C   0  0  2  0  0  0  0  0  0  0  0  0
   10.2187  -17.0865   20.7532 N   0  0  0  0  0  0  0  0  0  0  0  0
   12.3990  -16.7159   19.8072 C   0  0  0  0  0  0  0  0  0  0  0  0
   11.6739  -16.2290   18.7043 O   0  0  0  0  0  0  0  0  0  0  0  0
   13.6232  -16.4854   19.7845 O   0  0  0  0  0  0  0  0  0  0  0  0
  2 13  1  0
  2  1  1  1
  3  2  1  0
  4  5  2  0
  4  3  1  0
  6  5  1  0
  7 12  2  0
  7  6  1  0
  8  7  1  0
  9 10  1  0
  9  8  2  0
 10 11  2  0
 11 12  1  0
 12  4  1  0
 13 14  2  0
 15 16  1  0
 17 19  1  0
 17 16  1  0
 17 18  1  1
 19 20  1  1
 20 13  1  0
 21 22  2  0
 21 19  1  0
 23 24  1  0
 24 25  2  0
 24 26  1  0
 26 27  1  0
 28 27  1  6
 28 30  1  0
 28 29  1  0
 29 21  1  0
 30 31  1  0
 32 30  2  0
M  END
$$$$
