WIQ.pdb
     RDKit          3D

 32 33  0  0  1  0  0  0  0  0999 V2000
    6.3145  -18.4108   25.2194 N   0  0  0  0  0  0  0  0  0  0  0  0
    6.6756  -17.0775   24.8121 C   0  0  1  0  0  0  0  0  0  0  0  0
    7.4144  -16.4106   25.9424 C   0  0  0  0  0  0  0  0  0  0  0  0
    6.7556  -15.1555   26.3097 C   0  0  0  0  0  0  0  0  0  0  0  0
    5.3671  -15.0061   26.3953 C   0  0  0  0  0  0  0  0  0  0  0  0
    5.0891  -13.7501   26.7850 N   0  0  0  0  0  0  0  0  0  0  0  0
    6.2097  -13.0487   26.9652 C   0  0  0  0  0  0  0  0  0  0  0  0
    6.4161  -11.7432   27.3474 C   0  0  0  0  0  0  0  0  0  0  0  0
    7.7151  -11.2620   27.4450 C   0  0  0  0  0  0  0  0  0  0  0  0
    8.7349  -12.1278   27.1502 C   0  0  0  0  0  0  0  0  0  0  0  0
    8.5261  -13.4519   26.7628 C   0  0  0  0  0  0  0  0  0  0  0  0
    7.2451  -13.9244   26.6685 C   0  0  0  0  0  0  0  0  0  0  0  0
    7.4774  -17.0843   23.5578 C   0  0  0  0  0  0  0  0  0  0  0  0
    8.1701  -18.0852   23.2666 O   0  0  0  0  0  0  0  0  0  0  0  0
    8.0582  -12.3914   20.2087 C   0  0  0  0  0  0  0  0  0  0  0  0
    8.3921  -13.5187   21.1285 C   0  0  0  0  0  0  0  0  0  0  0  0
    7.9371  -14.8270   20.5454 C   0  0  2  0  0  0  0  0  0  0  0  0
    6.4803  -14.8146   20.2160 C   0  0  0  0  0  0  0  0  0  0  0  0
    8.2992  -15.9949   21.4647 C   0  0  2  0  0  0  0  0  0  0  0  0
    7.4930  -15.9846   22.6582 N   0  0  0  0  0  0  0  0  0  0  0  0
    9.7534  -15.9854   21.7710 C   0  0  0  0  0  0  0  0  0  0  0  0
   10.1788  -15.2580   22.7058 O   0  0  0  0  0  0  0  0  0  0  0  0
   12.3503  -20.7275   23.1675 N   0  0  0  0  0  0  0  0  0  0  0  0
   11.9779  -19.6059   23.9389 C   0  0  0  0  0  0  0  0  0  0  0  0
   11.5769  -19.8308   25.1357 O   0  0  0  0  0  0  0  0  0  0  0  0
   12.0454  -18.2441   23.4225 C   0  0  0  0  0  0  0  0  0  0  0  0
   12.4849  -18.0675   22.0138 C   0  0  0  0  0  0  0  0  0  0  0  0
   12.1520  -16.7583   21.4101 C   0  0  2  0  0  0  0  0  0  0  0  0
   10.6984  -16.7603   21.0597 N   0  0  0  0  0  0  0  0  0  0  0  0
   12.9170  -16.2731   20.2685 C   0  0  0  0  0  0  0  0  0  0  0  0
   14.3007  -16.0769   20.4304 O   0  0  0  0  0  0  0  0  0  0  0  0
   12.4693  -16.0060   19.1369 O   0  0  0  0  0  0  0  0  0  0  0  0
  2 13  1  0
  2  1  1  1
  3  2  1  0
  4  5  2  0
  4  3  1  0
  6  5  1  0
  7 12  2  0
  7  6  1  0
  8  7  1  0
  9 10  1  0
  9  8  2  0
 10 11  2  0
 11 12  1  0
 12  4  1  0
 13 14  2  0
 15 16  1  0
 17 19  1  0
 17 16  1  0
 17 18  1  1
 19 20  1  1
 20 13  1  0
 21 22  2  0
 21 19  1  0
 23 24  1  0
 24 25  2  0
 24 26  1  0
 26 27  1  0
 28 27  1  6
 28 30  1  0
 28 29  1  0
 29 21  1  0
 30 31  1  0
 32 30  2  0
M  END
$$$$
