WIQ.pdb
     RDKit          3D

 32 33  0  0  1  0  0  0  0  0999 V2000
    6.6619  -16.9437   25.1754 N   0  0  0  0  0  0  0  0  0  0  0  0
    7.3037  -15.8354   24.5166 C   0  0  1  0  0  0  0  0  0  0  0  0
    8.5249  -15.4452   25.3068 C   0  0  0  0  0  0  0  0  0  0  0  0
    8.1443  -14.6267   26.4597 C   0  0  0  0  0  0  0  0  0  0  0  0
    8.4215  -14.9794   27.7849 C   0  0  0  0  0  0  0  0  0  0  0  0
    7.9721  -14.0063   28.5960 N   0  0  0  0  0  0  0  0  0  0  0  0
    7.4095  -13.0222   27.8922 C   0  0  0  0  0  0  0  0  0  0  0  0
    6.8151  -11.8452   28.2853 C   0  0  0  0  0  0  0  0  0  0  0  0
    6.2919  -10.9940   27.3209 C   0  0  0  0  0  0  0  0  0  0  0  0
    6.3980  -11.3801   26.0109 C   0  0  0  0  0  0  0  0  0  0  0  0
    7.0008  -12.5735   25.6116 C   0  0  0  0  0  0  0  0  0  0  0  0
    7.5170  -13.4103   26.5637 C   0  0  0  0  0  0  0  0  0  0  0  0
    7.6414  -16.1573   23.1029 C   0  0  0  0  0  0  0  0  0  0  0  0
    7.6317  -17.3473   22.7154 O   0  0  0  0  0  0  0  0  0  0  0  0
    8.7539  -11.9950   19.2927 C   0  0  0  0  0  0  0  0  0  0  0  0
    9.0949  -13.2485   20.0281 C   0  0  0  0  0  0  0  0  0  0  0  0
    7.9993  -14.2654   19.8722 C   0  0  2  0  0  0  0  0  0  0  0  0
    6.6484  -13.6693   20.0974 C   0  0  0  0  0  0  0  0  0  0  0  0
    8.2405  -15.4770   20.7745 C   0  0  2  0  0  0  0  0  0  0  0  0
    7.9817  -15.1556   22.1544 N   0  0  0  0  0  0  0  0  0  0  0  0
    9.6118  -16.0127   20.5719 C   0  0  0  0  0  0  0  0  0  0  0  0
    9.9181  -16.5094   19.4569 O   0  0  0  0  0  0  0  0  0  0  0  0
   14.7564  -13.6452   19.6502 N   0  0  0  0  0  0  0  0  0  0  0  0
   13.5871  -14.1137   19.0139 C   0  0  0  0  0  0  0  0  0  0  0  0
   13.1790  -13.4570   17.9912 O   0  0  0  0  0  0  0  0  0  0  0  0
   12.8643  -15.2927   19.4756 C   0  0  0  0  0  0  0  0  0  0  0  0
   12.8918  -15.5854   20.9324 C   0  0  0  0  0  0  0  0  0  0  0  0
   11.9450  -16.6293   21.3827 C   0  0  2  0  0  0  0  0  0  0  0  0
   10.6055  -15.9940   21.5778 N   0  0  0  0  0  0  0  0  0  0  0  0
   12.2637  -17.4388   22.5520 C   0  0  0  0  0  0  0  0  0  0  0  0
   13.4917  -18.1250   22.5708 O   0  0  0  0  0  0  0  0  0  0  0  0
   11.5504  -17.5940   23.5617 O   0  0  0  0  0  0  0  0  0  0  0  0
  2 13  1  0
  2  1  1  1
  3  2  1  0
  4  5  2  0
  4  3  1  0
  6  5  1  0
  7 12  2  0
  7  6  1  0
  8  7  1  0
  9 10  1  0
  9  8  2  0
 10 11  2  0
 11 12  1  0
 12  4  1  0
 13 14  2  0
 15 16  1  0
 17 19  1  0
 17 16  1  0
 17 18  1  1
 19 20  1  1
 20 13  1  0
 21 22  2  0
 21 19  1  0
 23 24  1  0
 24 25  2  0
 24 26  1  0
 26 27  1  0
 28 27  1  1
 28 30  1  0
 28 29  1  0
 29 21  1  0
 30 31  1  0
 32 30  2  0
M  END
$$$$
