WIQ.pdb
     RDKit          3D

 32 33  0  0  1  0  0  0  0  0999 V2000
    6.5775  -18.2419   22.9494 N   0  0  0  0  0  0  0  0  0  0  0  0
    7.0557  -16.9262   22.6116 C   0  0  1  0  0  0  0  0  0  0  0  0
    6.1793  -16.3575   21.5269 C   0  0  0  0  0  0  0  0  0  0  0  0
    6.9569  -15.4733   20.6565 C   0  0  0  0  0  0  0  0  0  0  0  0
    7.4859  -15.8701   19.4236 C   0  0  0  0  0  0  0  0  0  0  0  0
    8.1135  -14.8219   18.8631 N   0  0  0  0  0  0  0  0  0  0  0  0
    8.0366  -13.7458   19.6482 C   0  0  0  0  0  0  0  0  0  0  0  0
    8.5287  -12.4699   19.4965 C   0  0  0  0  0  0  0  0  0  0  0  0
    8.3055  -11.5331   20.4969 C   0  0  0  0  0  0  0  0  0  0  0  0
    7.5968  -11.9381   21.5970 C   0  0  0  0  0  0  0  0  0  0  0  0
    7.0973  -13.2318   21.7513 C   0  0  0  0  0  0  0  0  0  0  0  0
    7.3174  -14.1532   20.7634 C   0  0  0  0  0  0  0  0  0  0  0  0
    7.1045  -16.0363   23.8040 C   0  0  0  0  0  0  0  0  0  0  0  0
    6.5284  -14.9255   23.7765 O   0  0  0  0  0  0  0  0  0  0  0  0
    6.2640  -12.3737   25.2232 C   0  0  0  0  0  0  0  0  0  0  0  0
    7.1299  -13.5392   24.8768 C   0  0  0  0  0  0  0  0  0  0  0  0
    7.6074  -14.2297   26.1234 C   0  0  2  0  0  0  0  0  0  0  0  0
    8.2827  -13.2838   27.0615 C   0  0  0  0  0  0  0  0  0  0  0  0
    8.5012  -15.4237   25.7832 C   0  0  2  0  0  0  0  0  0  0  0  0
    7.7890  -16.3969   24.9958 N   0  0  0  0  0  0  0  0  0  0  0  0
    9.0740  -16.0151   27.0205 C   0  0  0  0  0  0  0  0  0  0  0  0
    9.4801  -15.2513   27.9345 O   0  0  0  0  0  0  0  0  0  0  0  0
   11.4291  -19.4091   22.5231 N   0  0  0  0  0  0  0  0  0  0  0  0
   12.1447  -18.6922   23.5058 C   0  0  0  0  0  0  0  0  0  0  0  0
   13.0820  -17.9201   23.0947 O   0  0  0  0  0  0  0  0  0  0  0  0
   11.8443  -18.8025   24.9283 C   0  0  0  0  0  0  0  0  0  0  0  0
   10.6848  -18.0294   25.4447 C   0  0  0  0  0  0  0  0  0  0  0  0
   10.4369  -18.1618   26.8974 C   0  0  2  0  0  0  0  0  0  0  0  0
    9.1886  -17.4088   27.2298 N   0  0  0  0  0  0  0  0  0  0  0  0
   11.4815  -17.7956   27.8454 C   0  0  0  0  0  0  0  0  0  0  0  0
   12.1320  -18.8258   28.5487 O   0  0  0  0  0  0  0  0  0  0  0  0
   11.8713  -16.6418   28.1083 O   0  0  0  0  0  0  0  0  0  0  0  0
  2 13  1  0
  2  1  1  1
  3  2  1  0
  4  5  2  0
  4  3  1  0
  6  5  1  0
  7 12  2  0
  7  6  1  0
  8  7  1  0
  9 10  1  0
  9  8  2  0
 10 11  2  0
 11 12  1  0
 12  4  1  0
 13 14  2  0
 15 16  1  0
 17 19  1  0
 17 16  1  0
 17 18  1  1
 19 20  1  1
 20 13  1  0
 21 22  2  0
 21 19  1  0
 23 24  1  0
 24 25  2  0
 24 26  1  0
 26 27  1  0
 28 27  1  6
 28 30  1  0
 28 29  1  0
 29 21  1  0
 30 31  1  0
 32 30  2  0
M  END
$$$$
