WIQ.pdb
     RDKit          3D

 32 33  0  0  1  0  0  0  0  0999 V2000
    8.1693  -19.3355   25.5035 N   0  0  0  0  0  0  0  0  0  0  0  0
    8.3249  -18.0976   26.2227 C   0  0  1  0  0  0  0  0  0  0  0  0
    9.7927  -17.8577   26.4595 C   0  0  0  0  0  0  0  0  0  0  0  0
    9.9990  -17.2072   27.7550 C   0  0  0  0  0  0  0  0  0  0  0  0
   10.1425  -17.9064   28.9583 C   0  0  0  0  0  0  0  0  0  0  0  0
   10.3482  -17.0239   29.9511 N   0  0  0  0  0  0  0  0  0  0  0  0
   10.3505  -15.7741   29.4839 C   0  0  0  0  0  0  0  0  0  0  0  0
   10.5124  -14.5642   30.1187 C   0  0  0  0  0  0  0  0  0  0  0  0
   10.4569  -13.3939   29.3733 C   0  0  0  0  0  0  0  0  0  0  0  0
   10.2403  -13.5112   28.0257 C   0  0  0  0  0  0  0  0  0  0  0  0
   10.0763  -14.7380   27.3814 C   0  0  0  0  0  0  0  0  0  0  0  0
   10.1325  -15.8902   28.1179 C   0  0  0  0  0  0  0  0  0  0  0  0
    7.6896  -16.9600   25.5026 C   0  0  0  0  0  0  0  0  0  0  0  0
    6.9389  -16.1723   26.1211 O   0  0  0  0  0  0  0  0  0  0  0  0
    7.2080  -12.8035   26.0793 C   0  0  0  0  0  0  0  0  0  0  0  0
    6.9000  -14.1125   25.4313 C   0  0  0  0  0  0  0  0  0  0  0  0
    7.7074  -14.2814   24.1749 C   0  0  2  0  0  0  0  0  0  0  0  0
    7.5940  -13.0947   23.2751 C   0  0  0  0  0  0  0  0  0  0  0  0
    7.3355  -15.5772   23.4518 C   0  0  2  0  0  0  0  0  0  0  0  0
    7.9001  -16.7229   24.1176 N   0  0  0  0  0  0  0  0  0  0  0  0
    7.7332  -15.5083   22.0216 C   0  0  0  0  0  0  0  0  0  0  0  0
    7.9908  -14.3879   21.5096 O   0  0  0  0  0  0  0  0  0  0  0  0
   12.3235  -14.1883   21.4412 N   0  0  0  0  0  0  0  0  0  0  0  0
   12.5465  -15.3187   20.6262 C   0  0  0  0  0  0  0  0  0  0  0  0
   13.7494  -15.5234   20.2327 O   0  0  0  0  0  0  0  0  0  0  0  0
   11.4751  -16.2304   20.2431 C   0  0  0  0  0  0  0  0  0  0  0  0
   10.1322  -15.9952   20.8348 C   0  0  0  0  0  0  0  0  0  0  0  0
    9.0903  -16.9677   20.4374 C   0  0  2  0  0  0  0  0  0  0  0  0
    7.8399  -16.6492   21.1930 N   0  0  0  0  0  0  0  0  0  0  0  0
    9.3583  -18.3966   20.5395 C   0  0  0  0  0  0  0  0  0  0  0  0
    8.9425  -19.0695   21.7028 O   0  0  0  0  0  0  0  0  0  0  0  0
    9.9298  -19.1052   19.6888 O   0  0  0  0  0  0  0  0  0  0  0  0
  2 13  1  0
  2  1  1  6
  3  2  1  0
  4  5  2  0
  4  3  1  0
  6  5  1  0
  7 12  2  0
  7  6  1  0
  8  7  1  0
  9 10  1  0
  9  8  2  0
 10 11  2  0
 11 12  1  0
 12  4  1  0
 13 14  2  0
 15 16  1  0
 17 19  1  0
 17 16  1  0
 17 18  1  6
 19 20  1  1
 20 13  1  0
 21 22  2  0
 21 19  1  0
 23 24  1  0
 24 25  2  0
 24 26  1  0
 26 27  1  0
 28 27  1  1
 28 30  1  0
 28 29  1  0
 29 21  1  0
 30 31  1  0
 32 30  2  0
M  END
$$$$
