RSG.pdb
     RDKit          3D

 22 21  0  0  1  0  0  0  0  0999 V2000
    7.8234  -12.3779   18.7653 N   0  0  0  0  0  0  0  0  0  0  0  0
    9.0237  -12.9688   19.2889 C   0  0  0  0  0  0  0  0  0  0  0  0
    9.8692  -12.2162   19.8893 N   0  0  0  0  0  0  0  0  0  0  0  0
    9.3030  -14.3442   19.1656 N   0  0  0  0  0  0  0  0  0  0  0  0
    8.3707  -15.3628   19.5925 C   0  0  0  0  0  0  0  0  0  0  0  0
    8.4013  -15.4696   21.0753 C   0  0  0  0  0  0  0  0  0  0  0  0
    7.0392  -15.6113   21.7009 C   0  0  0  0  0  0  0  0  0  0  0  0
    6.8062  -17.0014   22.2544 C   0  0  2  0  0  0  0  0  0  0  0  0
    5.6086  -17.5080   21.6509 N   0  0  0  0  0  0  0  0  0  0  0  0
    6.5689  -16.8469   23.7046 C   0  0  0  0  0  0  0  0  0  0  0  0
    5.5965  -16.2100   24.1841 O   0  0  0  0  0  0  0  0  0  0  0  0
   10.7931  -12.5663   20.2121 O   0  0  0  0  0  0  0  0  0  0  0  0
    7.4372  -19.6626   26.1100 C   0  0  0  0  0  0  0  0  0  0  0  0
    6.6810  -18.5682   26.5525 C   0  0  1  0  0  0  0  0  0  0  0  0
    7.3906  -17.3063   26.0410 N   0  0  0  0  0  0  0  0  0  0  0  0
    7.4717  -17.4394   24.6117 C   0  0  0  0  0  0  0  0  0  0  0  0
    8.7564  -17.3444   26.5958 O   0  0  0  0  0  0  0  0  0  0  0  0
    9.7264  -17.6032   25.8420 N   0  0  0  0  0  0  0  0  0  0  0  0
    9.0441  -17.0991   27.9677 C   0  0  0  0  0  0  0  0  0  0  0  0
   10.4138  -17.1295   28.4062 C   0  0  0  0  0  0  0  0  0  0  0  0
   10.7657  -18.4680   28.9493 O   0  0  0  0  0  0  0  0  0  0  0  0
    9.9070  -19.3805   28.9157 O   0  0  0  0  0  0  0  0  0  0  0  0
  1  2  1  0
  2  3  2  0
  4  5  1  0
  4  2  1  0
  5  6  1  0
  6  7  1  0
  7  8  1  0
  8  9  1  6
  8 10  1  0
 10 15  1  0
 10 11  2  0
 12 13  1  0
 14 13  1  6
 14 16  1  0
 15 14  1  0
 16 18  1  0
 17 16  2  0
 18 19  1  0
 20 22  1  0
 20 19  1  0
 21 20  2  0
M  END
$$$$
