RSG.pdb
     RDKit          3D

 22 21  0  0  1  0  0  0  0  0999 V2000
    8.3562  -12.8695   15.4588 N   0  0  0  0  0  0  0  0  0  0  0  0
    8.3742  -14.2373   15.0196 C   0  0  0  0  0  0  0  0  0  0  0  0
    7.6146  -14.5816   14.0468 N   0  0  0  0  0  0  0  0  0  0  0  0
    9.1962  -15.2113   15.6199 N   0  0  0  0  0  0  0  0  0  0  0  0
    9.7604  -15.0388   16.9394 C   0  0  0  0  0  0  0  0  0  0  0  0
    8.6832  -14.6565   17.8905 C   0  0  0  0  0  0  0  0  0  0  0  0
    9.1556  -14.5057   19.3121 C   0  0  0  0  0  0  0  0  0  0  0  0
    8.0045  -14.3464   20.2830 C   0  0  2  0  0  0  0  0  0  0  0  0
    7.3775  -13.0882   20.0019 N   0  0  0  0  0  0  0  0  0  0  0  0
    8.5956  -14.2816   21.6357 C   0  0  0  0  0  0  0  0  0  0  0  0
    9.5397  -13.5103   21.9436 O   0  0  0  0  0  0  0  0  0  0  0  0
    7.5998  -15.5500   13.6698 O   0  0  0  0  0  0  0  0  0  0  0  0
    6.5968  -14.3675   24.8407 C   0  0  0  0  0  0  0  0  0  0  0  0
    7.4309  -15.4924   24.9046 C   0  0  2  0  0  0  0  0  0  0  0  0
    8.6215  -15.2117   23.9765 N   0  0  0  0  0  0  0  0  0  0  0  0
    8.0846  -15.1229   22.6457 C   0  0  0  0  0  0  0  0  0  0  0  0
    9.4962  -16.3965   24.0533 O   0  0  0  0  0  0  0  0  0  0  0  0
    9.7102  -17.0790   23.0216 N   0  0  0  0  0  0  0  0  0  0  0  0
   10.1256  -16.8198   25.2574 C   0  0  0  0  0  0  0  0  0  0  0  0
   10.9079  -18.0270   25.2447 C   0  0  0  0  0  0  0  0  0  0  0  0
   11.5360  -18.2642   26.5711 O   0  0  0  0  0  0  0  0  0  0  0  0
   11.3055  -17.4589   27.5036 O   0  0  0  0  0  0  0  0  0  0  0  0
  1  2  1  0
  2  3  2  0
  4  5  1  0
  4  2  1  0
  5  6  1  0
  6  7  1  0
  7  8  1  0
  8  9  1  6
  8 10  1  0
 10 15  1  0
 10 11  2  0
 12 13  1  0
 14 13  1  1
 14 16  1  0
 15 14  1  0
 16 18  1  0
 17 16  2  0
 18 19  1  0
 20 22  1  0
 20 19  1  0
 21 20  2  0
M  END
$$$$
