RSG.pdb
     RDKit          3D

 22 21  0  0  1  0  0  0  0  0999 V2000
    8.0351  -13.9091   15.2626 N   0  0  0  0  0  0  0  0  0  0  0  0
    8.2128  -13.5407   16.6398 C   0  0  0  0  0  0  0  0  0  0  0  0
    7.8741  -12.3617   17.0104 N   0  0  0  0  0  0  0  0  0  0  0  0
    8.7453  -14.4285   17.5953 N   0  0  0  0  0  0  0  0  0  0  0  0
    7.9104  -15.3079   18.3820 C   0  0  0  0  0  0  0  0  0  0  0  0
    7.2512  -14.5269   19.4621 C   0  0  0  0  0  0  0  0  0  0  0  0
    8.0420  -14.4765   20.7424 C   0  0  0  0  0  0  0  0  0  0  0  0
    8.1028  -15.8244   21.4299 C   0  0  2  0  0  0  0  0  0  0  0  0
    6.9642  -16.5792   20.9952 N   0  0  0  0  0  0  0  0  0  0  0  0
    7.9676  -15.5685   22.8790 C   0  0  0  0  0  0  0  0  0  0  0  0
    7.5855  -14.4699   23.3565 O   0  0  0  0  0  0  0  0  0  0  0  0
    7.9944  -12.0312   17.9885 O   0  0  0  0  0  0  0  0  0  0  0  0
    6.8220  -18.1918   25.2629 C   0  0  0  0  0  0  0  0  0  0  0  0
    7.0566  -16.9200   25.8041 C   0  0  1  0  0  0  0  0  0  0  0  0
    8.3838  -16.4263   25.2105 N   0  0  0  0  0  0  0  0  0  0  0  0
    8.2800  -16.6012   23.7872 C   0  0  0  0  0  0  0  0  0  0  0  0
    9.4294  -17.3320   25.7213 O   0  0  0  0  0  0  0  0  0  0  0  0
   10.0466  -18.0807   24.9247 N   0  0  0  0  0  0  0  0  0  0  0  0
    9.7868  -17.4076   27.0967 C   0  0  0  0  0  0  0  0  0  0  0  0
   10.9176  -18.2113   27.4773 C   0  0  0  0  0  0  0  0  0  0  0  0
   10.6161  -19.0040   28.6983 O   0  0  0  0  0  0  0  0  0  0  0  0
    9.4789  -18.9094   29.2169 O   0  0  0  0  0  0  0  0  0  0  0  0
  1  2  1  0
  2  3  2  0
  4  5  1  0
  4  2  1  0
  5  6  1  0
  6  7  1  0
  7  8  1  0
  8  9  1  6
  8 10  1  0
 10 15  1  0
 10 11  2  0
 12 13  1  0
 14 13  1  6
 14 16  1  0
 15 14  1  0
 16 18  1  0
 17 16  2  0
 18 19  1  0
 20 22  1  0
 20 19  1  0
 21 20  2  0
M  END
$$$$
