RSG.pdb
     RDKit          3D

 22 21  0  0  1  0  0  0  0  0999 V2000
    7.2132  -15.0155   15.6930 N   0  0  0  0  0  0  0  0  0  0  0  0
    7.5338  -13.6156   15.6580 C   0  0  0  0  0  0  0  0  0  0  0  0
    7.3307  -12.9644   14.5733 N   0  0  0  0  0  0  0  0  0  0  0  0
    8.0627  -12.9349   16.7723 N   0  0  0  0  0  0  0  0  0  0  0  0
    8.3674  -13.6077   18.0148 C   0  0  0  0  0  0  0  0  0  0  0  0
    7.1305  -14.2323   18.5540 C   0  0  0  0  0  0  0  0  0  0  0  0
    7.3531  -15.0301   19.8113 C   0  0  0  0  0  0  0  0  0  0  0  0
    8.1081  -16.3157   19.5463 C   0  0  2  0  0  0  0  0  0  0  0  0
    7.1678  -17.2664   19.0293 N   0  0  0  0  0  0  0  0  0  0  0  0
    8.5917  -16.8018   20.8551 C   0  0  0  0  0  0  0  0  0  0  0  0
    7.8456  -16.9607   21.8547 O   0  0  0  0  0  0  0  0  0  0  0  0
    7.5846  -11.9616   14.4719 O   0  0  0  0  0  0  0  0  0  0  0  0
   12.0469  -18.5613   20.5909 C   0  0  0  0  0  0  0  0  0  0  0  0
   11.2926  -18.9527   21.7060 C   0  0  1  0  0  0  0  0  0  0  0  0
   10.5317  -17.7071   22.1826 N   0  0  0  0  0  0  0  0  0  0  0  0
    9.9600  -17.1082   21.0072 C   0  0  0  0  0  0  0  0  0  0  0  0
   11.5443  -16.7880   22.7344 O   0  0  0  0  0  0  0  0  0  0  0  0
   11.8170  -15.7251   22.1246 N   0  0  0  0  0  0  0  0  0  0  0  0
   12.2459  -17.0429   23.9460 C   0  0  0  0  0  0  0  0  0  0  0  0
   13.1607  -16.0492   24.4410 C   0  0  0  0  0  0  0  0  0  0  0  0
   13.8946  -16.5524   25.6320 O   0  0  0  0  0  0  0  0  0  0  0  0
   13.5710  -17.6608   26.1197 O   0  0  0  0  0  0  0  0  0  0  0  0
  1  2  1  0
  2  3  2  0
  4  5  1  0
  4  2  1  0
  5  6  1  0
  6  7  1  0
  7  8  1  0
  8  9  1  1
  8 10  1  0
 10 15  1  0
 10 11  2  0
 12 13  1  0
 14 13  1  1
 14 16  1  0
 15 14  1  0
 16 18  1  0
 17 16  2  0
 18 19  1  0
 20 22  1  0
 20 19  1  0
 21 20  2  0
M  END
$$$$
