RSG.pdb
     RDKit          3D

 22 21  0  0  1  0  0  0  0  0999 V2000
    8.4494  -15.3352   16.6875 N   0  0  0  0  0  0  0  0  0  0  0  0
    8.1873  -13.9843   16.2748 C   0  0  0  0  0  0  0  0  0  0  0  0
    8.2740  -13.6930   15.0300 N   0  0  0  0  0  0  0  0  0  0  0  0
    7.8391  -12.9706   17.1891 N   0  0  0  0  0  0  0  0  0  0  0  0
    7.1674  -13.2539   18.4372 C   0  0  0  0  0  0  0  0  0  0  0  0
    7.7479  -14.4818   19.0424 C   0  0  0  0  0  0  0  0  0  0  0  0
    8.5425  -14.2227   20.2948 C   0  0  0  0  0  0  0  0  0  0  0  0
    9.0013  -15.5053   20.9561 C   0  0  2  0  0  0  0  0  0  0  0  0
    7.8750  -16.3910   21.0016 N   0  0  0  0  0  0  0  0  0  0  0  0
    9.3779  -15.1574   22.3420 C   0  0  0  0  0  0  0  0  0  0  0  0
   10.2519  -14.3002   22.6287 O   0  0  0  0  0  0  0  0  0  0  0  0
    8.1151  -12.7299   14.6728 O   0  0  0  0  0  0  0  0  0  0  0  0
    7.0357  -14.3321   25.0181 C   0  0  0  0  0  0  0  0  0  0  0  0
    7.6676  -15.4811   25.5139 C   0  0  2  0  0  0  0  0  0  0  0  0
    9.0230  -15.5818   24.7994 N   0  0  0  0  0  0  0  0  0  0  0  0
    8.7317  -15.8129   23.4106 C   0  0  0  0  0  0  0  0  0  0  0  0
    9.6922  -16.7771   25.3455 O   0  0  0  0  0  0  0  0  0  0  0  0
    9.4120  -17.9110   24.8855 N   0  0  0  0  0  0  0  0  0  0  0  0
   10.6594  -16.7171   26.3876 C   0  0  0  0  0  0  0  0  0  0  0  0
   11.1648  -17.9465   26.9377 C   0  0  0  0  0  0  0  0  0  0  0  0
   12.3796  -18.3933   26.2064 O   0  0  0  0  0  0  0  0  0  0  0  0
   12.6616  -17.8516   25.1118 O   0  0  0  0  0  0  0  0  0  0  0  0
  1  2  1  0
  2  3  2  0
  4  5  1  0
  4  2  1  0
  5  6  1  0
  6  7  1  0
  7  8  1  0
  8  9  1  1
  8 10  1  0
 10 15  1  0
 10 11  2  0
 12 13  1  0
 14 13  1  6
 14 16  1  0
 15 14  1  0
 16 18  1  0
 17 16  2  0
 18 19  1  0
 20 22  1  0
 20 19  1  0
 21 20  2  0
M  END
$$$$
