RSG.pdb
     RDKit          3D

 22 21  0  0  1  0  0  0  0  0999 V2000
    7.2587  -12.7803   20.2272 N   0  0  0  0  0  0  0  0  0  0  0  0
    7.4868  -13.8006   19.2418 C   0  0  0  0  0  0  0  0  0  0  0  0
    7.6840  -13.4488   18.0256 N   0  0  0  0  0  0  0  0  0  0  0  0
    7.5012  -15.1717   19.5654 N   0  0  0  0  0  0  0  0  0  0  0  0
    7.7175  -15.6446   20.9140 C   0  0  0  0  0  0  0  0  0  0  0  0
    9.0416  -15.1704   21.3968 C   0  0  0  0  0  0  0  0  0  0  0  0
    9.4381  -15.7387   22.7335 C   0  0  0  0  0  0  0  0  0  0  0  0
   10.8274  -15.3037   23.1500 C   0  0  2  0  0  0  0  0  0  0  0  0
   11.7647  -16.0608   22.3731 N   0  0  0  0  0  0  0  0  0  0  0  0
   10.9836  -15.6830   24.5695 C   0  0  0  0  0  0  0  0  0  0  0  0
   11.6339  -16.6894   24.9509 O   0  0  0  0  0  0  0  0  0  0  0  0
    7.8431  -14.1405   17.2664 O   0  0  0  0  0  0  0  0  0  0  0  0
    9.9579  -14.1147   29.0435 C   0  0  0  0  0  0  0  0  0  0  0  0
    9.7716  -13.9478   27.6641 C   0  0  2  0  0  0  0  0  0  0  0  0
   10.5245  -15.0953   26.9755 N   0  0  0  0  0  0  0  0  0  0  0  0
   10.3773  -14.8841   25.5610 C   0  0  0  0  0  0  0  0  0  0  0  0
    9.8165  -16.3356   27.3427 O   0  0  0  0  0  0  0  0  0  0  0  0
    8.7524  -16.6422   26.7513 N   0  0  0  0  0  0  0  0  0  0  0  0
   10.2810  -17.2249   28.3519 C   0  0  0  0  0  0  0  0  0  0  0  0
    9.5375  -18.4285   28.6128 C   0  0  0  0  0  0  0  0  0  0  0  0
   10.0855  -19.1428   29.7959 O   0  0  0  0  0  0  0  0  0  0  0  0
   11.1310  -18.7096   30.3347 O   0  0  0  0  0  0  0  0  0  0  0  0
  1  2  1  0
  2  3  2  0
  4  5  1  0
  4  2  1  0
  5  6  1  0
  6  7  1  0
  7  8  1  0
  8  9  1  6
  8 10  1  0
 10 15  1  0
 10 11  2  0
 12 13  1  0
 14 13  1  6
 14 16  1  0
 15 14  1  0
 16 18  1  0
 17 16  2  0
 18 19  1  0
 20 22  1  0
 20 19  1  0
 21 20  2  0
M  END
$$$$
