RSG.pdb
     RDKit          3D

 22 21  0  0  1  0  0  0  0  0999 V2000
   11.7532  -16.1986   28.9048 N   0  0  0  0  0  0  0  0  0  0  0  0
   10.5504  -15.4446   29.1257 C   0  0  0  0  0  0  0  0  0  0  0  0
   10.3830  -14.8706   30.2590 N   0  0  0  0  0  0  0  0  0  0  0  0
    9.5506  -15.3145   28.1418 N   0  0  0  0  0  0  0  0  0  0  0  0
    9.7872  -15.6377   26.7530 C   0  0  0  0  0  0  0  0  0  0  0  0
    8.5703  -15.3225   25.9587 C   0  0  0  0  0  0  0  0  0  0  0  0
    8.6906  -15.6756   24.5001 C   0  0  0  0  0  0  0  0  0  0  0  0
    9.0869  -14.4837   23.6543 C   0  0  2  0  0  0  0  0  0  0  0  0
    7.9359  -13.6367   23.5409 N   0  0  0  0  0  0  0  0  0  0  0  0
    9.4162  -15.0061   22.3119 C   0  0  0  0  0  0  0  0  0  0  0  0
   10.3178  -15.8566   22.1007 O   0  0  0  0  0  0  0  0  0  0  0  0
    9.5559  -14.2752   30.4630 O   0  0  0  0  0  0  0  0  0  0  0  0
    8.2621  -12.7062   19.2216 C   0  0  0  0  0  0  0  0  0  0  0  0
    8.0132  -14.0620   18.9659 C   0  0  1  0  0  0  0  0  0  0  0  0
    8.9966  -14.8618   19.8323 N   0  0  0  0  0  0  0  0  0  0  0  0
    8.6896  -14.5355   21.1985 C   0  0  0  0  0  0  0  0  0  0  0  0
   10.3419  -14.3471   19.5161 O   0  0  0  0  0  0  0  0  0  0  0  0
   10.8517  -13.4553   20.2378 N   0  0  0  0  0  0  0  0  0  0  0  0
   11.1126  -14.8141   18.4147 C   0  0  0  0  0  0  0  0  0  0  0  0
   12.4094  -14.2373   18.1803 C   0  0  0  0  0  0  0  0  0  0  0  0
   13.4815  -15.0996   18.7437 O   0  0  0  0  0  0  0  0  0  0  0  0
   13.7999  -16.1473   18.1337 O   0  0  0  0  0  0  0  0  0  0  0  0
  1  2  1  0
  2  3  2  0
  4  5  1  0
  4  2  1  0
  5  6  1  0
  6  7  1  0
  7  8  1  0
  8  9  1  6
  8 10  1  0
 10 15  1  0
 10 11  2  0
 12 13  1  0
 14 13  1  1
 14 16  1  0
 15 14  1  0
 16 18  1  0
 17 16  2  0
 18 19  1  0
 20 22  1  0
 20 19  1  0
 21 20  2  0
M  END
$$$$
