RSG.pdb
     RDKit          3D

 22 21  0  0  1  0  0  0  0  0999 V2000
    9.5896  -14.6464   16.0584 N   0  0  0  0  0  0  0  0  0  0  0  0
    8.2504  -14.1667   15.8576 C   0  0  0  0  0  0  0  0  0  0  0  0
    7.6617  -14.4299   14.7504 N   0  0  0  0  0  0  0  0  0  0  0  0
    7.5631  -13.4184   16.8336 N   0  0  0  0  0  0  0  0  0  0  0  0
    8.1472  -13.1027   18.1174 C   0  0  0  0  0  0  0  0  0  0  0  0
    8.2277  -14.3386   18.9403 C   0  0  0  0  0  0  0  0  0  0  0  0
    8.7325  -14.1033   20.3391 C   0  0  0  0  0  0  0  0  0  0  0  0
    8.8063  -15.3844   21.1431 C   0  0  2  0  0  0  0  0  0  0  0  0
    7.4733  -15.9013   21.2493 N   0  0  0  0  0  0  0  0  0  0  0  0
    9.2713  -15.0113   22.4951 C   0  0  0  0  0  0  0  0  0  0  0  0
   10.3672  -14.4362   22.7173 O   0  0  0  0  0  0  0  0  0  0  0  0
    6.7416  -14.0171   14.4989 O   0  0  0  0  0  0  0  0  0  0  0  0
    6.5012  -15.3452   25.3431 C   0  0  0  0  0  0  0  0  0  0  0  0
    7.5487  -14.4608   25.6366 C   0  0  1  0  0  0  0  0  0  0  0  0
    8.8084  -15.0332   24.9710 N   0  0  0  0  0  0  0  0  0  0  0  0
    8.4542  -15.3093   23.6052 C   0  0  0  0  0  0  0  0  0  0  0  0
    9.0933  -16.3104   25.6511 O   0  0  0  0  0  0  0  0  0  0  0  0
    8.4659  -17.3454   25.3177 N   0  0  0  0  0  0  0  0  0  0  0  0
   10.0605  -16.4393   26.6869 C   0  0  0  0  0  0  0  0  0  0  0  0
   10.1989  -17.7064   27.3539 C   0  0  0  0  0  0  0  0  0  0  0  0
   11.1628  -18.5803   26.6346 O   0  0  0  0  0  0  0  0  0  0  0  0
   10.7718  -19.2112   25.6245 O   0  0  0  0  0  0  0  0  0  0  0  0
  1  2  1  0
  2  3  2  0
  4  5  1  0
  4  2  1  0
  5  6  1  0
  6  7  1  0
  7  8  1  0
  8  9  1  1
  8 10  1  0
 10 15  1  0
 10 11  2  0
 12 13  1  0
 14 13  1  6
 14 16  1  0
 15 14  1  0
 16 18  1  0
 17 16  2  0
 18 19  1  0
 20 22  1  0
 20 19  1  0
 21 20  2  0
M  END
$$$$
