RSG.pdb
     RDKit          3D

 22 21  0  0  1  0  0  0  0  0999 V2000
    7.0043  -12.8008   18.1792 N   0  0  0  0  0  0  0  0  0  0  0  0
    7.7580  -13.8501   17.5508 C   0  0  0  0  0  0  0  0  0  0  0  0
    8.4182  -13.5812   16.4860 N   0  0  0  0  0  0  0  0  0  0  0  0
    7.7965  -15.1618   18.0633 N   0  0  0  0  0  0  0  0  0  0  0  0
    6.6596  -15.7689   18.7175 C   0  0  0  0  0  0  0  0  0  0  0  0
    6.4789  -15.1576   20.0609 C   0  0  0  0  0  0  0  0  0  0  0  0
    7.4300  -15.6879   21.1007 C   0  0  0  0  0  0  0  0  0  0  0  0
    8.6102  -14.7647   21.3195 C   0  0  2  0  0  0  0  0  0  0  0  0
    9.5562  -15.0229   20.2737 N   0  0  0  0  0  0  0  0  0  0  0  0
    9.2207  -15.1537   22.6076 C   0  0  0  0  0  0  0  0  0  0  0  0
   10.2515  -15.8682   22.6988 O   0  0  0  0  0  0  0  0  0  0  0  0
    8.9739  -14.2997   15.9809 O   0  0  0  0  0  0  0  0  0  0  0  0
    7.1289  -13.9203   25.7037 C   0  0  0  0  0  0  0  0  0  0  0  0
    8.4856  -13.9426   26.0566 C   0  0  1  0  0  0  0  0  0  0  0  0
    9.1689  -14.9470   25.1176 N   0  0  0  0  0  0  0  0  0  0  0  0
    8.6277  -14.7081   23.8071 C   0  0  0  0  0  0  0  0  0  0  0  0
    8.7458  -16.2872   25.5645 O   0  0  0  0  0  0  0  0  0  0  0  0
    7.5228  -16.5601   25.6393 N   0  0  0  0  0  0  0  0  0  0  0  0
    9.6657  -17.3117   25.9241 C   0  0  0  0  0  0  0  0  0  0  0  0
    9.3668  -18.1473   27.0563 C   0  0  0  0  0  0  0  0  0  0  0  0
   10.5852  -18.3858   27.8741 O   0  0  0  0  0  0  0  0  0  0  0  0
   11.6602  -17.8381   27.5339 O   0  0  0  0  0  0  0  0  0  0  0  0
  1  2  1  0
  2  3  2  0
  4  5  1  0
  4  2  1  0
  5  6  1  0
  6  7  1  0
  7  8  1  0
  8  9  1  6
  8 10  1  0
 10 15  1  0
 10 11  2  0
 12 13  1  0
 14 13  1  6
 14 16  1  0
 15 14  1  0
 16 18  1  0
 17 16  2  0
 18 19  1  0
 20 22  1  0
 20 19  1  0
 21 20  2  0
M  END
$$$$
