RSG.pdb
     RDKit          3D

 22 21  0  0  1  0  0  0  0  0999 V2000
    7.5446  -13.2718   16.0838 N   0  0  0  0  0  0  0  0  0  0  0  0
    8.5580  -14.2757   16.2537 C   0  0  0  0  0  0  0  0  0  0  0  0
    9.4206  -14.4439   15.3212 N   0  0  0  0  0  0  0  0  0  0  0  0
    8.6365  -15.0803   17.4075 N   0  0  0  0  0  0  0  0  0  0  0  0
    7.4946  -15.3208   18.2603 C   0  0  0  0  0  0  0  0  0  0  0  0
    7.1923  -14.0905   19.0389 C   0  0  0  0  0  0  0  0  0  0  0  0
    7.8325  -14.0631   20.4013 C   0  0  0  0  0  0  0  0  0  0  0  0
    7.2343  -15.0946   21.3347 C   0  0  2  0  0  0  0  0  0  0  0  0
    6.0119  -14.5499   21.8488 N   0  0  0  0  0  0  0  0  0  0  0  0
    8.1829  -15.2532   22.4565 C   0  0  0  0  0  0  0  0  0  0  0  0
    8.1875  -14.5104   23.4710 O   0  0  0  0  0  0  0  0  0  0  0  0
   10.1204  -15.2120   15.3440 O   0  0  0  0  0  0  0  0  0  0  0  0
   11.0411  -18.2889   24.6968 C   0  0  0  0  0  0  0  0  0  0  0  0
   10.1485  -18.0509   23.6422 C   0  0  2  0  0  0  0  0  0  0  0  0
   10.1297  -16.5326   23.4146 N   0  0  0  0  0  0  0  0  0  0  0  0
    9.1397  -16.2878   22.4012 C   0  0  0  0  0  0  0  0  0  0  0  0
   11.4550  -16.1775   22.8738 O   0  0  0  0  0  0  0  0  0  0  0  0
   11.7212  -16.4211   21.6714 N   0  0  0  0  0  0  0  0  0  0  0  0
   12.4721  -15.5606   23.6548 C   0  0  0  0  0  0  0  0  0  0  0  0
   13.7061  -15.1862   23.0173 C   0  0  0  0  0  0  0  0  0  0  0  0
   14.7113  -16.2759   23.1292 O   0  0  0  0  0  0  0  0  0  0  0  0
   14.3499  -17.3903   23.5751 O   0  0  0  0  0  0  0  0  0  0  0  0
  1  2  1  0
  2  3  2  0
  4  5  1  0
  4  2  1  0
  5  6  1  0
  6  7  1  0
  7  8  1  0
  8  9  1  1
  8 10  1  0
 10 15  1  0
 10 11  2  0
 12 13  1  0
 14 13  1  1
 14 16  1  0
 15 14  1  0
 16 18  1  0
 17 16  2  0
 18 19  1  0
 20 22  1  0
 20 19  1  0
 21 20  2  0
M  END
$$$$
