RSG.pdb
     RDKit          3D

 22 21  0  0  1  0  0  0  0  0999 V2000
    8.3538  -13.0686   18.9019 N   0  0  0  0  0  0  0  0  0  0  0  0
    8.2548  -12.7685   20.3034 C   0  0  0  0  0  0  0  0  0  0  0  0
    8.6044  -11.6047   20.7100 N   0  0  0  0  0  0  0  0  0  0  0  0
    7.7875  -13.7071   21.2444 N   0  0  0  0  0  0  0  0  0  0  0  0
    7.6366  -15.1091   20.9270 C   0  0  0  0  0  0  0  0  0  0  0  0
    8.9792  -15.7195   20.7376 C   0  0  0  0  0  0  0  0  0  0  0  0
    8.9399  -17.2032   20.4845 C   0  0  0  0  0  0  0  0  0  0  0  0
   10.3145  -17.7708   20.1994 C   0  0  2  0  0  0  0  0  0  0  0  0
   10.1314  -18.9933   19.4731 N   0  0  0  0  0  0  0  0  0  0  0  0
   10.9214  -18.0917   21.5078 C   0  0  0  0  0  0  0  0  0  0  0  0
   10.4733  -18.9753   22.2821 O   0  0  0  0  0  0  0  0  0  0  0  0
    8.5932  -11.3413   21.7154 O   0  0  0  0  0  0  0  0  0  0  0  0
   13.8046  -15.5315   23.2846 C   0  0  0  0  0  0  0  0  0  0  0  0
   14.1179  -16.8714   23.0162 C   0  0  1  0  0  0  0  0  0  0  0  0
   12.8054  -17.6610   23.1234 N   0  0  0  0  0  0  0  0  0  0  0  0
   12.0641  -17.3778   21.9245 C   0  0  0  0  0  0  0  0  0  0  0  0
   12.0744  -17.0970   24.2733 O   0  0  0  0  0  0  0  0  0  0  0  0
   11.4014  -16.0474   24.1277 N   0  0  0  0  0  0  0  0  0  0  0  0
   12.0888  -17.6880   25.5678 C   0  0  0  0  0  0  0  0  0  0  0  0
   11.3546  -17.0528   26.6294 C   0  0  0  0  0  0  0  0  0  0  0  0
   11.5457  -17.7787   27.9126 O   0  0  0  0  0  0  0  0  0  0  0  0
   12.2311  -18.8281   27.9191 O   0  0  0  0  0  0  0  0  0  0  0  0
  1  2  1  0
  2  3  2  0
  4  5  1  0
  4  2  1  0
  5  6  1  0
  6  7  1  0
  7  8  1  0
  8  9  1  6
  8 10  1  0
 10 15  1  0
 10 11  2  0
 12 13  1  0
 14 13  1  6
 14 16  1  0
 15 14  1  0
 16 18  1  0
 17 16  2  0
 18 19  1  0
 20 22  1  0
 20 19  1  0
 21 20  2  0
M  END
$$$$
