FPE.pdb
     RDKit          3D

 28 29  0  0  1  0  0  0  0  0999 V2000
    5.6759  -17.4646   25.7376 N   0  0  0  0  0  0  0  0  0  0  0  0
    6.3640  -16.3225   25.2746 C   0  0  1  0  0  0  0  0  0  0  0  0
    7.1244  -15.7048   26.4380 C   0  0  0  0  0  0  0  0  0  0  0  0
    6.9134  -14.2566   26.5055 C   0  0  0  0  0  0  0  0  0  0  0  0
    5.6156  -13.8033   26.7562 C   0  0  0  0  0  0  0  0  0  0  0  0
    5.3599  -12.4544   26.8318 C   0  0  0  0  0  0  0  0  0  0  0  0
    6.3626  -11.5261   26.6631 C   0  0  0  0  0  0  0  0  0  0  0  0
    7.6592  -11.9879   26.4105 C   0  0  0  0  0  0  0  0  0  0  0  0
    7.9140  -13.3302   26.3365 C   0  0  0  0  0  0  0  0  0  0  0  0
    7.2804  -16.5036   24.1429 C   0  0  0  0  0  0  0  0  0  0  0  0
    7.8665  -17.6390   24.0788 O   0  0  0  0  0  0  0  0  0  0  0  0
    7.5798  -15.5781   23.1354 N   0  0  0  0  0  0  0  0  0  0  0  0
    7.0319  -14.2460   23.0220 C   0  0  0  0  0  0  0  0  0  0  0  0
    7.6948  -13.6461   21.7647 C   0  0  0  0  0  0  0  0  0  0  0  0
    7.8564  -14.9138   20.9396 C   0  0  0  0  0  0  0  0  0  0  0  0
    8.5025  -15.8116   22.0265 C   0  0  1  0  0  0  0  0  0  0  0  0
    9.8516  -15.2881   22.2960 C   0  0  0  0  0  0  0  0  0  0  0  0
   10.0866  -14.2743   22.9895 O   0  0  0  0  0  0  0  0  0  0  0  0
   10.9819  -15.9689   21.7368 N   0  0  0  0  0  0  0  0  0  0  0  0
   12.0870  -16.3974   22.6024 C   0  0  1  0  0  0  0  0  0  0  0  0
   11.5181  -17.3682   23.6169 C   0  0  0  0  0  0  0  0  0  0  0  0
   12.6739  -17.9822   24.3714 C   0  0  0  0  0  0  0  0  0  0  0  0
   12.1055  -18.9316   25.3722 C   0  0  0  0  0  0  0  0  0  0  0  0
   11.4070  -18.4071   26.3004 O   0  0  0  0  0  0  0  0  0  0  0  0
   13.1388  -17.0056   21.7691 C   0  0  0  0  0  0  0  0  0  0  0  0
   12.8096  -17.6493   20.7385 O   0  0  0  0  0  0  0  0  0  0  0  0
   12.2961  -20.2872   25.3311 O   0  0  0  0  0  0  0  0  0  0  0  0
   14.5069  -16.9196   22.0520 O   0  0  0  0  0  0  0  0  0  0  0  0
  2 10  1  0
  2  1  1  1
  3  2  1  0
  4  3  1  0
  4  5  2  0
  6  5  1  0
  7  6  2  0
  8  9  2  0
  8  7  1  0
  9  4  1  0
 10 12  1  0
 11 10  2  0
 12 13  1  0
 12 16  1  0
 13 14  1  0
 14 15  1  0
 16 15  1  0
 17 19  1  0
 16 17  1  1
 18 17  2  0
 20 21  1  1
 20 25  1  0
 20 19  1  0
 21 22  1  0
 22 23  1  0
 23 24  2  0
 25 28  1  0
 26 25  2  0
 27 23  1  0
M  END
$$$$
