FPE.pdb
     RDKit          3D

 28 29  0  0  1  0  0  0  0  0999 V2000
    6.6199  -17.5746   26.2444 N   0  0  0  0  0  0  0  0  0  0  0  0
    6.3563  -17.0170   24.9748 C   0  0  1  0  0  0  0  0  0  0  0  0
    5.7148  -15.6510   25.1644 C   0  0  0  0  0  0  0  0  0  0  0  0
    6.6029  -14.7398   25.8904 C   0  0  0  0  0  0  0  0  0  0  0  0
    7.8418  -15.2369   26.3034 C   0  0  0  0  0  0  0  0  0  0  0  0
    8.7162  -14.4254   26.9871 C   0  0  0  0  0  0  0  0  0  0  0  0
    8.3979  -13.1184   27.2808 C   0  0  0  0  0  0  0  0  0  0  0  0
    7.1547  -12.6286   26.8654 C   0  0  0  0  0  0  0  0  0  0  0  0
    6.2850  -13.4356   26.1839 C   0  0  0  0  0  0  0  0  0  0  0  0
    7.4871  -16.8930   24.0479 C   0  0  0  0  0  0  0  0  0  0  0  0
    8.3439  -17.8421   24.0868 O   0  0  0  0  0  0  0  0  0  0  0  0
    7.7276  -15.8591   23.1344 N   0  0  0  0  0  0  0  0  0  0  0  0
    6.9409  -14.6552   22.9946 C   0  0  0  0  0  0  0  0  0  0  0  0
    7.6344  -13.8515   21.8752 C   0  0  0  0  0  0  0  0  0  0  0  0
    8.1627  -15.0026   21.0329 C   0  0  0  0  0  0  0  0  0  0  0  0
    8.8221  -15.8300   22.1666 C   0  0  1  0  0  0  0  0  0  0  0  0
    9.9862  -15.0728   22.6548 C   0  0  0  0  0  0  0  0  0  0  0  0
    9.9103  -14.0618   23.3870 O   0  0  0  0  0  0  0  0  0  0  0  0
   11.2997  -15.5049   22.2779 N   0  0  0  0  0  0  0  0  0  0  0  0
   12.3074  -15.7853   23.3075 C   0  0  1  0  0  0  0  0  0  0  0  0
   11.7644  -16.8966   24.1826 C   0  0  0  0  0  0  0  0  0  0  0  0
   12.8300  -17.2564   25.1912 C   0  0  0  0  0  0  0  0  0  0  0  0
   12.2680  -18.3118   26.0836 C   0  0  0  0  0  0  0  0  0  0  0  0
   11.9858  -19.4208   25.5223 O   0  0  0  0  0  0  0  0  0  0  0  0
   13.5731  -16.1537   22.6498 C   0  0  0  0  0  0  0  0  0  0  0  0
   14.6619  -15.7914   23.1676 O   0  0  0  0  0  0  0  0  0  0  0  0
   12.0555  -18.1415   27.4259 O   0  0  0  0  0  0  0  0  0  0  0  0
   13.6508  -16.8900   21.4619 O   0  0  0  0  0  0  0  0  0  0  0  0
  2 10  1  0
  2  1  1  1
  3  2  1  0
  4  3  1  0
  4  5  2  0
  6  5  1  0
  7  6  2  0
  8  9  2  0
  8  7  1  0
  9  4  1  0
 10 12  1  0
 11 10  2  0
 12 13  1  0
 12 16  1  0
 13 14  1  0
 14 15  1  0
 16 15  1  0
 17 19  1  0
 16 17  1  1
 18 17  2  0
 20 21  1  1
 20 25  1  0
 20 19  1  0
 21 22  1  0
 22 23  1  0
 23 24  2  0
 25 28  1  0
 26 25  2  0
 27 23  1  0
M  END
$$$$
