FPE.pdb
     RDKit          3D

 28 29  0  0  1  0  0  0  0  0999 V2000
    7.1519  -17.7415   26.9445 N   0  0  0  0  0  0  0  0  0  0  0  0
    6.7882  -16.7794   25.9779 C   0  0  1  0  0  0  0  0  0  0  0  0
    6.9015  -15.3955   26.5988 C   0  0  0  0  0  0  0  0  0  0  0  0
    8.2511  -15.1496   27.1131 C   0  0  0  0  0  0  0  0  0  0  0  0
    8.7200  -15.9899   28.1263 C   0  0  0  0  0  0  0  0  0  0  0  0
    9.9800  -15.8061   28.6452 C   0  0  0  0  0  0  0  0  0  0  0  0
   10.8022  -14.8011   28.1875 C   0  0  0  0  0  0  0  0  0  0  0  0
   10.3247  -13.9627   27.1740 C   0  0  0  0  0  0  0  0  0  0  0  0
    9.0714  -14.1462   26.6566 C   0  0  0  0  0  0  0  0  0  0  0  0
    7.5185  -16.7969   24.7053 C   0  0  0  0  0  0  0  0  0  0  0  0
    8.0323  -17.9209   24.3750 O   0  0  0  0  0  0  0  0  0  0  0  0
    7.7118  -15.7277   23.8216 N   0  0  0  0  0  0  0  0  0  0  0  0
    7.1665  -14.3981   23.9722 C   0  0  0  0  0  0  0  0  0  0  0  0
    7.6902  -13.6103   22.7536 C   0  0  0  0  0  0  0  0  0  0  0  0
    7.7475  -14.7377   21.7341 C   0  0  0  0  0  0  0  0  0  0  0  0
    8.5028  -15.7839   22.5943 C   0  0  1  0  0  0  0  0  0  0  0  0
    9.8781  -15.2961   22.7872 C   0  0  0  0  0  0  0  0  0  0  0  0
   10.1928  -14.3708   23.5675 O   0  0  0  0  0  0  0  0  0  0  0  0
   10.9393  -15.9067   22.0423 N   0  0  0  0  0  0  0  0  0  0  0  0
   12.0761  -16.5162   22.7426 C   0  0  1  0  0  0  0  0  0  0  0  0
   11.5295  -17.6335   23.6078 C   0  0  0  0  0  0  0  0  0  0  0  0
   12.6860  -18.2437   24.3641 C   0  0  0  0  0  0  0  0  0  0  0  0
   12.3374  -18.2227   25.8146 C   0  0  0  0  0  0  0  0  0  0  0  0
   13.0840  -18.9218   26.5751 O   0  0  0  0  0  0  0  0  0  0  0  0
   13.0480  -16.9993   21.7465 C   0  0  0  0  0  0  0  0  0  0  0  0
   14.2737  -16.7751   21.9261 O   0  0  0  0  0  0  0  0  0  0  0  0
   11.2917  -17.5091   26.3371 O   0  0  0  0  0  0  0  0  0  0  0  0
   12.6957  -17.7008   20.5876 O   0  0  0  0  0  0  0  0  0  0  0  0
  2 10  1  0
  2  1  1  1
  3  2  1  0
  4  3  1  0
  4  5  2  0
  6  5  1  0
  7  6  2  0
  8  9  2  0
  8  7  1  0
  9  4  1  0
 10 12  1  0
 11 10  2  0
 12 13  1  0
 12 16  1  0
 13 14  1  0
 14 15  1  0
 16 15  1  0
 17 19  1  0
 16 17  1  1
 18 17  2  0
 20 21  1  6
 20 25  1  0
 20 19  1  0
 21 22  1  0
 22 23  1  0
 23 24  2  0
 25 28  1  0
 26 25  2  0
 27 23  1  0
M  END
$$$$
