FPE.pdb
     RDKit          3D

 28 29  0  0  1  0  0  0  0  0999 V2000
    5.6238  -17.1869   25.7337 N   0  0  0  0  0  0  0  0  0  0  0  0
    6.3896  -16.1634   25.1352 C   0  0  1  0  0  0  0  0  0  0  0  0
    7.2843  -15.5390   26.1950 C   0  0  0  0  0  0  0  0  0  0  0  0
    7.1090  -14.0857   26.2534 C   0  0  0  0  0  0  0  0  0  0  0  0
    5.8204  -13.5988   26.4878 C   0  0  0  0  0  0  0  0  0  0  0  0
    5.5979  -12.2435   26.5543 C   0  0  0  0  0  0  0  0  0  0  0  0
    6.6254  -11.3415   26.3924 C   0  0  0  0  0  0  0  0  0  0  0  0
    7.9126  -11.8369   26.1564 C   0  0  0  0  0  0  0  0  0  0  0  0
    8.1345  -13.1855   26.0913 C   0  0  0  0  0  0  0  0  0  0  0  0
    7.2052  -16.5284   23.9712 C   0  0  0  0  0  0  0  0  0  0  0  0
    7.5742  -17.7519   23.9130 O   0  0  0  0  0  0  0  0  0  0  0  0
    7.6190  -15.6913   22.9275 N   0  0  0  0  0  0  0  0  0  0  0  0
    7.2995  -14.2887   22.7922 C   0  0  0  0  0  0  0  0  0  0  0  0
    8.0074  -13.8400   21.4969 C   0  0  0  0  0  0  0  0  0  0  0  0
    7.9227  -15.1361   20.7052 C   0  0  0  0  0  0  0  0  0  0  0  0
    8.4478  -16.1042   21.7970 C   0  0  1  0  0  0  0  0  0  0  0  0
    9.8748  -15.8105   22.0072 C   0  0  0  0  0  0  0  0  0  0  0  0
   10.3093  -14.7379   22.4814 O   0  0  0  0  0  0  0  0  0  0  0  0
   10.8449  -16.8038   21.6519 N   0  0  0  0  0  0  0  0  0  0  0  0
   12.0774  -16.9446   22.4363 C   0  0  1  0  0  0  0  0  0  0  0  0
   11.7831  -17.8989   23.5757 C   0  0  0  0  0  0  0  0  0  0  0  0
   13.0827  -18.1817   24.2922 C   0  0  0  0  0  0  0  0  0  0  0  0
   12.7781  -19.0884   25.4373 C   0  0  0  0  0  0  0  0  0  0  0  0
   12.8647  -20.3368   25.1950 O   0  0  0  0  0  0  0  0  0  0  0  0
   13.1517  -17.4339   21.5549 C   0  0  0  0  0  0  0  0  0  0  0  0
   12.8629  -18.2154   20.6111 O   0  0  0  0  0  0  0  0  0  0  0  0
   12.4263  -18.6483   26.6856 O   0  0  0  0  0  0  0  0  0  0  0  0
   14.4999  -17.0867   21.6997 O   0  0  0  0  0  0  0  0  0  0  0  0
  2 10  1  0
  2  1  1  1
  3  2  1  0
  4  3  1  0
  4  5  2  0
  6  5  1  0
  7  6  2  0
  8  9  2  0
  8  7  1  0
  9  4  1  0
 10 12  1  0
 11 10  2  0
 12 13  1  0
 12 16  1  0
 13 14  1  0
 14 15  1  0
 16 15  1  0
 17 19  1  0
 16 17  1  1
 18 17  2  0
 20 21  1  1
 20 25  1  0
 20 19  1  0
 21 22  1  0
 22 23  1  0
 23 24  2  0
 25 28  1  0
 26 25  2  0
 27 23  1  0
M  END
$$$$
