FPE.pdb
     RDKit          3D

 28 29  0  0  1  0  0  0  0  0999 V2000
    6.7476  -16.1902   25.9541 N   0  0  0  0  0  0  0  0  0  0  0  0
    6.9804  -15.3546   24.8405 C   0  0  1  0  0  0  0  0  0  0  0  0
    7.9752  -14.2752   25.2387 C   0  0  0  0  0  0  0  0  0  0  0  0
    7.3680  -13.2970   26.1446 C   0  0  0  0  0  0  0  0  0  0  0  0
    6.1236  -12.7710   25.7880 C   0  0  0  0  0  0  0  0  0  0  0  0
    5.5063  -11.8504   26.6017 C   0  0  0  0  0  0  0  0  0  0  0  0
    6.0911  -11.4265   27.7738 C   0  0  0  0  0  0  0  0  0  0  0  0
    7.3381  -11.9565   28.1231 C   0  0  0  0  0  0  0  0  0  0  0  0
    7.9520  -12.8736   27.3141 C   0  0  0  0  0  0  0  0  0  0  0  0
    7.4374  -15.9971   23.6029 C   0  0  0  0  0  0  0  0  0  0  0  0
    7.4648  -17.2760   23.6183 O   0  0  0  0  0  0  0  0  0  0  0  0
    7.8421  -15.3687   22.4186 N   0  0  0  0  0  0  0  0  0  0  0  0
    7.7974  -13.9482   22.1581 C   0  0  0  0  0  0  0  0  0  0  0  0
    8.3674  -13.7843   20.7339 C   0  0  0  0  0  0  0  0  0  0  0  0
    7.8965  -15.0961   20.1247 C   0  0  0  0  0  0  0  0  0  0  0  0
    8.3798  -16.0534   21.2449 C   0  0  1  0  0  0  0  0  0  0  0  0
    9.8516  -16.0621   21.2225 C   0  0  0  0  0  0  0  0  0  0  0  0
   10.5651  -15.0813   21.5273 O   0  0  0  0  0  0  0  0  0  0  0  0
   10.5300  -17.2614   20.8283 N   0  0  0  0  0  0  0  0  0  0  0  0
   11.8686  -17.5576   21.3525 C   0  0  1  0  0  0  0  0  0  0  0  0
   11.7379  -18.7442   22.2854 C   0  0  0  0  0  0  0  0  0  0  0  0
   13.1146  -19.0746   22.8125 C   0  0  0  0  0  0  0  0  0  0  0  0
   12.9579  -20.1384   23.8469 C   0  0  0  0  0  0  0  0  0  0  0  0
   11.7590  -20.4701   24.1247 O   0  0  0  0  0  0  0  0  0  0  0  0
   12.7756  -17.8263   20.2230 C   0  0  0  0  0  0  0  0  0  0  0  0
   14.0188  -17.7371   20.3997 O   0  0  0  0  0  0  0  0  0  0  0  0
   14.0089  -20.7470   24.4799 O   0  0  0  0  0  0  0  0  0  0  0  0
   12.3419  -18.1767   18.9391 O   0  0  0  0  0  0  0  0  0  0  0  0
  2 10  1  0
  2  1  1  1
  3  2  1  0
  4  3  1  0
  4  5  2  0
  6  5  1  0
  7  6  2  0
  8  9  2  0
  8  7  1  0
  9  4  1  0
 10 12  1  0
 11 10  2  0
 12 13  1  0
 12 16  1  0
 13 14  1  0
 14 15  1  0
 16 15  1  0
 17 19  1  0
 16 17  1  1
 18 17  2  0
 20 21  1  1
 20 25  1  0
 20 19  1  0
 21 22  1  0
 22 23  1  0
 23 24  2  0
 25 28  1  0
 26 25  2  0
 27 23  1  0
M  END
$$$$
