FPE.pdb
     RDKit          3D

 28 29  0  0  1  0  0  0  0  0999 V2000
    5.3954  -17.8011   25.2558 N   0  0  0  0  0  0  0  0  0  0  0  0
    6.1314  -16.6076   25.0940 C   0  0  1  0  0  0  0  0  0  0  0  0
    6.6339  -16.1546   26.4563 C   0  0  0  0  0  0  0  0  0  0  0  0
    6.8905  -14.7124   26.4786 C   0  0  0  0  0  0  0  0  0  0  0  0
    5.7876  -13.8611   26.5852 C   0  0  0  0  0  0  0  0  0  0  0  0
    5.9696  -12.4985   26.6125 C   0  0  0  0  0  0  0  0  0  0  0  0
    7.2273  -11.9435   26.5350 C   0  0  0  0  0  0  0  0  0  0  0  0
    8.3264  -12.8026   26.4266 C   0  0  0  0  0  0  0  0  0  0  0  0
    8.1456  -14.1586   26.4007 C   0  0  0  0  0  0  0  0  0  0  0  0
    7.2555  -16.6346   24.1512 C   0  0  0  0  0  0  0  0  0  0  0  0
    7.9650  -17.6990   24.1630 O   0  0  0  0  0  0  0  0  0  0  0  0
    7.6319  -15.6320   23.2488 N   0  0  0  0  0  0  0  0  0  0  0  0
    7.0783  -14.2988   23.1880 C   0  0  0  0  0  0  0  0  0  0  0  0
    7.8437  -13.5991   22.0458 C   0  0  0  0  0  0  0  0  0  0  0  0
    8.0966  -14.7981   21.1445 C   0  0  0  0  0  0  0  0  0  0  0  0
    8.6541  -15.7729   22.2141 C   0  0  1  0  0  0  0  0  0  0  0  0
    9.9661  -15.2627   22.6446 C   0  0  0  0  0  0  0  0  0  0  0  0
   10.1596  -14.1120   23.0946 O   0  0  0  0  0  0  0  0  0  0  0  0
   11.1079  -16.1235   22.5496 N   0  0  0  0  0  0  0  0  0  0  0  0
   12.1168  -16.1306   23.6155 C   0  0  1  0  0  0  0  0  0  0  0  0
   11.8814  -17.3700   24.4545 C   0  0  0  0  0  0  0  0  0  0  0  0
   12.9764  -17.4432   25.4926 C   0  0  0  0  0  0  0  0  0  0  0  0
   12.7100  -18.6381   26.3454 C   0  0  0  0  0  0  0  0  0  0  0  0
   13.5723  -18.8753   27.2535 O   0  0  0  0  0  0  0  0  0  0  0  0
   13.4574  -16.1099   23.0050 C   0  0  0  0  0  0  0  0  0  0  0  0
   13.5920  -16.4737   21.8074 O   0  0  0  0  0  0  0  0  0  0  0  0
   11.6192  -19.4529   26.1968 O   0  0  0  0  0  0  0  0  0  0  0  0
   14.6169  -15.7100   23.6795 O   0  0  0  0  0  0  0  0  0  0  0  0
  2 10  1  0
  2  1  1  1
  3  2  1  0
  4  3  1  0
  4  5  2  0
  6  5  1  0
  7  6  2  0
  8  9  2  0
  8  7  1  0
  9  4  1  0
 10 12  1  0
 11 10  2  0
 12 13  1  0
 12 16  1  0
 13 14  1  0
 14 15  1  0
 16 15  1  0
 17 19  1  0
 16 17  1  1
 18 17  2  0
 20 21  1  6
 20 25  1  0
 20 19  1  0
 21 22  1  0
 22 23  1  0
 23 24  2  0
 25 28  1  0
 26 25  2  0
 27 23  1  0
M  END
$$$$
