FPE.pdb
     RDKit          3D

 28 29  0  0  1  0  0  0  0  0999 V2000
    6.1836  -16.4252   25.6867 N   0  0  0  0  0  0  0  0  0  0  0  0
    6.7149  -15.4931   24.7695 C   0  0  1  0  0  0  0  0  0  0  0  0
    7.8623  -14.7504   25.4367 C   0  0  0  0  0  0  0  0  0  0  0  0
    7.3843  -13.5738   26.1671 C   0  0  0  0  0  0  0  0  0  0  0  0
    8.2653  -12.9703   27.0682 C   0  0  0  0  0  0  0  0  0  0  0  0
    7.8704  -11.8620   27.7798 C   0  0  0  0  0  0  0  0  0  0  0  0
    6.6118  -11.3251   27.6266 C   0  0  0  0  0  0  0  0  0  0  0  0
    5.7348  -11.9363   26.7237 C   0  0  0  0  0  0  0  0  0  0  0  0
    6.1281  -13.0384   26.0146 C   0  0  0  0  0  0  0  0  0  0  0  0
    7.1658  -16.0098   23.4722 C   0  0  0  0  0  0  0  0  0  0  0  0
    6.9272  -17.2474   23.2539 O   0  0  0  0  0  0  0  0  0  0  0  0
    7.8220  -15.3021   22.4574 N   0  0  0  0  0  0  0  0  0  0  0  0
    8.1730  -13.9010   22.4954 C   0  0  0  0  0  0  0  0  0  0  0  0
    8.8875  -13.6308   21.1550 C   0  0  0  0  0  0  0  0  0  0  0  0
    8.1447  -14.6224   20.2726 C   0  0  0  0  0  0  0  0  0  0  0  0
    8.2617  -15.8708   21.1851 C   0  0  1  0  0  0  0  0  0  0  0  0
    9.6763  -16.2775   21.2083 C   0  0  0  0  0  0  0  0  0  0  0  0
   10.3281  -16.6124   20.1950 O   0  0  0  0  0  0  0  0  0  0  0  0
   10.3693  -16.2983   22.4626 N   0  0  0  0  0  0  0  0  0  0  0  0
   11.3651  -17.3408   22.7376 C   0  0  1  0  0  0  0  0  0  0  0  0
   12.5912  -16.6576   23.3081 C   0  0  0  0  0  0  0  0  0  0  0  0
   13.0892  -15.6656   22.2834 C   0  0  0  0  0  0  0  0  0  0  0  0
   14.4449  -15.2151   22.7139 C   0  0  0  0  0  0  0  0  0  0  0  0
   15.4221  -15.6640   22.0298 O   0  0  0  0  0  0  0  0  0  0  0  0
   10.7837  -18.3237   23.6684 C   0  0  0  0  0  0  0  0  0  0  0  0
    9.8214  -17.9785   24.4031 O   0  0  0  0  0  0  0  0  0  0  0  0
   14.6685  -14.3717   23.7696 O   0  0  0  0  0  0  0  0  0  0  0  0
   11.2394  -19.6407   23.7988 O   0  0  0  0  0  0  0  0  0  0  0  0
  2 10  1  0
  2  1  1  1
  3  2  1  0
  4  3  1  0
  4  5  2  0
  6  5  1  0
  7  6  2  0
  8  9  2  0
  8  7  1  0
  9  4  1  0
 10 12  1  0
 11 10  2  0
 12 13  1  0
 12 16  1  0
 13 14  1  0
 14 15  1  0
 16 15  1  0
 17 19  1  0
 16 17  1  1
 18 17  2  0
 20 21  1  1
 20 25  1  0
 20 19  1  0
 21 22  1  0
 22 23  1  0
 23 24  2  0
 25 28  1  0
 26 25  2  0
 27 23  1  0
M  END
$$$$
