FPE.pdb
     RDKit          3D

 28 29  0  0  1  0  0  0  0  0999 V2000
    6.6585  -16.8588   26.5498 N   0  0  0  0  0  0  0  0  0  0  0  0
    6.5424  -16.0279   25.4146 C   0  0  1  0  0  0  0  0  0  0  0  0
    6.8335  -14.5932   25.8271 C   0  0  0  0  0  0  0  0  0  0  0  0
    8.0670  -14.5028   26.6124 C   0  0  0  0  0  0  0  0  0  0  0  0
    8.0257  -13.7656   27.7987 C   0  0  0  0  0  0  0  0  0  0  0  0
    9.1536  -13.6487   28.5764 C   0  0  0  0  0  0  0  0  0  0  0  0
   10.3391  -14.2459   28.2110 C   0  0  0  0  0  0  0  0  0  0  0  0
   10.3728  -14.9810   27.0208 C   0  0  0  0  0  0  0  0  0  0  0  0
    9.2502  -15.0985   26.2474 C   0  0  0  0  0  0  0  0  0  0  0  0
    7.3626  -16.3685   24.2465 C   0  0  0  0  0  0  0  0  0  0  0  0
    7.7846  -17.5751   24.1968 O   0  0  0  0  0  0  0  0  0  0  0  0
    7.7294  -15.5248   23.1906 N   0  0  0  0  0  0  0  0  0  0  0  0
    7.4632  -14.1069   23.1106 C   0  0  0  0  0  0  0  0  0  0  0  0
    8.0857  -13.6576   21.7724 C   0  0  0  0  0  0  0  0  0  0  0  0
    7.8809  -14.9292   20.9632 C   0  0  0  0  0  0  0  0  0  0  0  0
    8.4469  -15.9452   21.9890 C   0  0  1  0  0  0  0  0  0  0  0  0
    9.8977  -15.7181   22.0903 C   0  0  0  0  0  0  0  0  0  0  0  0
   10.4187  -14.6177   22.3763 O   0  0  0  0  0  0  0  0  0  0  0  0
   10.7879  -16.8151   21.8490 N   0  0  0  0  0  0  0  0  0  0  0  0
   12.0071  -16.9658   22.6522 C   0  0  1  0  0  0  0  0  0  0  0  0
   11.7696  -18.0995   23.6287 C   0  0  0  0  0  0  0  0  0  0  0  0
   13.0627  -18.3558   24.3665 C   0  0  0  0  0  0  0  0  0  0  0  0
   12.8286  -19.4914   25.3054 C   0  0  0  0  0  0  0  0  0  0  0  0
   12.9377  -20.6580   24.8036 O   0  0  0  0  0  0  0  0  0  0  0  0
   13.1435  -17.2267   21.7516 C   0  0  0  0  0  0  0  0  0  0  0  0
   12.9334  -17.7918   20.6464 O   0  0  0  0  0  0  0  0  0  0  0  0
   12.5167  -19.3339   26.6297 O   0  0  0  0  0  0  0  0  0  0  0  0
   14.4688  -16.8872   22.0476 O   0  0  0  0  0  0  0  0  0  0  0  0
  2 10  1  0
  2  1  1  1
  3  2  1  0
  4  3  1  0
  4  5  2  0
  6  5  1  0
  7  6  2  0
  8  9  2  0
  8  7  1  0
  9  4  1  0
 10 12  1  0
 11 10  2  0
 12 13  1  0
 12 16  1  0
 13 14  1  0
 14 15  1  0
 16 15  1  0
 17 19  1  0
 16 17  1  1
 18 17  2  0
 20 21  1  1
 20 25  1  0
 20 19  1  0
 21 22  1  0
 22 23  1  0
 23 24  2  0
 25 28  1  0
 26 25  2  0
 27 23  1  0
M  END
$$$$
