FPE.pdb
     RDKit          3D

 28 29  0  0  1  0  0  0  0  0999 V2000
    6.3453  -16.9634   26.0294 N   0  0  0  0  0  0  0  0  0  0  0  0
    6.0893  -16.5180   24.7147 C   0  0  1  0  0  0  0  0  0  0  0  0
    5.7235  -15.0424   24.7610 C   0  0  0  0  0  0  0  0  0  0  0  0
    6.6392  -14.2918   25.6238 C   0  0  0  0  0  0  0  0  0  0  0  0
    7.9870  -14.2528   25.2573 C   0  0  0  0  0  0  0  0  0  0  0  0
    8.8909  -13.5617   26.0293 C   0  0  0  0  0  0  0  0  0  0  0  0
    8.4974  -12.8993   27.1704 C   0  0  0  0  0  0  0  0  0  0  0  0
    7.1463  -12.9446   27.5317 C   0  0  0  0  0  0  0  0  0  0  0  0
    6.2465  -13.6312   26.7629 C   0  0  0  0  0  0  0  0  0  0  0  0
    7.1481  -16.7203   23.7191 C   0  0  0  0  0  0  0  0  0  0  0  0
    7.7359  -17.8559   23.7561 O   0  0  0  0  0  0  0  0  0  0  0  0
    7.5803  -15.8145   22.7424 N   0  0  0  0  0  0  0  0  0  0  0  0
    7.0748  -14.4747   22.5498 C   0  0  0  0  0  0  0  0  0  0  0  0
    7.8909  -13.9044   21.3714 C   0  0  0  0  0  0  0  0  0  0  0  0
    8.1234  -15.1862   20.5861 C   0  0  0  0  0  0  0  0  0  0  0  0
    8.6212  -16.0798   21.7517 C   0  0  1  0  0  0  0  0  0  0  0  0
    9.9395  -15.5762   22.1705 C   0  0  0  0  0  0  0  0  0  0  0  0
   10.1186  -14.5028   22.7866 O   0  0  0  0  0  0  0  0  0  0  0  0
   11.1054  -16.3503   21.8617 N   0  0  0  0  0  0  0  0  0  0  0  0
   12.3741  -16.0783   22.5477 C   0  0  1  0  0  0  0  0  0  0  0  0
   12.2199  -16.5349   23.9841 C   0  0  0  0  0  0  0  0  0  0  0  0
   11.8367  -17.9961   23.9684 C   0  0  0  0  0  0  0  0  0  0  0  0
   11.8765  -18.4877   25.3766 C   0  0  0  0  0  0  0  0  0  0  0  0
   12.4083  -19.6330   25.5498 O   0  0  0  0  0  0  0  0  0  0  0  0
   13.4587  -16.7857   21.8451 C   0  0  0  0  0  0  0  0  0  0  0  0
   13.1706  -17.5712   20.9045 O   0  0  0  0  0  0  0  0  0  0  0  0
   11.3863  -17.7834   26.4440 O   0  0  0  0  0  0  0  0  0  0  0  0
   14.8153  -16.6457   22.1603 O   0  0  0  0  0  0  0  0  0  0  0  0
  2 10  1  0
  2  1  1  1
  3  2  1  0
  4  3  1  0
  4  5  2  0
  6  5  1  0
  7  6  2  0
  8  9  2  0
  8  7  1  0
  9  4  1  0
 10 12  1  0
 11 10  2  0
 12 13  1  0
 12 16  1  0
 13 14  1  0
 14 15  1  0
 16 15  1  0
 17 19  1  0
 16 17  1  1
 18 17  2  0
 20 21  1  1
 20 25  1  0
 20 19  1  0
 21 22  1  0
 22 23  1  0
 23 24  2  0
 25 28  1  0
 26 25  2  0
 27 23  1  0
M  END
$$$$
