FPE.pdb
     RDKit          3D

 28 29  0  0  1  0  0  0  0  0999 V2000
    5.5337  -17.9554   25.2133 N   0  0  0  0  0  0  0  0  0  0  0  0
    6.2507  -16.7474   25.0761 C   0  0  1  0  0  0  0  0  0  0  0  0
    6.8077  -16.3524   26.4351 C   0  0  0  0  0  0  0  0  0  0  0  0
    7.0259  -14.9064   26.5233 C   0  0  0  0  0  0  0  0  0  0  0  0
    5.9036  -14.0926   26.6985 C   0  0  0  0  0  0  0  0  0  0  0  0
    6.0495  -12.7284   26.7895 C   0  0  0  0  0  0  0  0  0  0  0  0
    7.2894  -12.1352   26.7099 C   0  0  0  0  0  0  0  0  0  0  0  0
    8.4082  -12.9567   26.5327 C   0  0  0  0  0  0  0  0  0  0  0  0
    8.2633  -14.3143   26.4434 C   0  0  0  0  0  0  0  0  0  0  0  0
    7.3328  -16.7176   24.0854 C   0  0  0  0  0  0  0  0  0  0  0  0
    8.0598  -17.7684   24.0251 O   0  0  0  0  0  0  0  0  0  0  0  0
    7.6526  -15.6745   23.2074 N   0  0  0  0  0  0  0  0  0  0  0  0
    7.0609  -14.3563   23.2105 C   0  0  0  0  0  0  0  0  0  0  0  0
    7.7701  -13.5965   22.0704 C   0  0  0  0  0  0  0  0  0  0  0  0
    8.0269  -14.7563   21.1203 C   0  0  0  0  0  0  0  0  0  0  0  0
    8.6448  -15.7507   22.1373 C   0  0  1  0  0  0  0  0  0  0  0  0
    9.9552  -15.2183   22.5446 C   0  0  0  0  0  0  0  0  0  0  0  0
   10.1140  -14.1573   23.1874 O   0  0  0  0  0  0  0  0  0  0  0  0
   11.1378  -15.9470   22.1915 N   0  0  0  0  0  0  0  0  0  0  0  0
   12.3638  -15.7911   22.9832 C   0  0  1  0  0  0  0  0  0  0  0  0
   12.0536  -16.2475   24.3942 C   0  0  0  0  0  0  0  0  0  0  0  0
   11.7480  -17.7262   24.3475 C   0  0  0  0  0  0  0  0  0  0  0  0
   11.7219  -18.2257   25.7532 C   0  0  0  0  0  0  0  0  0  0  0  0
   10.8407  -19.1095   26.0119 O   0  0  0  0  0  0  0  0  0  0  0  0
   13.4394  -16.5813   22.3592 C   0  0  0  0  0  0  0  0  0  0  0  0
   14.6220  -16.4369   22.7660 O   0  0  0  0  0  0  0  0  0  0  0  0
   12.5742  -17.7905   26.7329 O   0  0  0  0  0  0  0  0  0  0  0  0
   13.2342  -17.4970   21.3207 O   0  0  0  0  0  0  0  0  0  0  0  0
  2 10  1  0
  2  1  1  1
  3  2  1  0
  4  3  1  0
  4  5  2  0
  6  5  1  0
  7  6  2  0
  8  9  2  0
  8  7  1  0
  9  4  1  0
 10 12  1  0
 11 10  2  0
 12 13  1  0
 12 16  1  0
 13 14  1  0
 14 15  1  0
 16 15  1  0
 17 19  1  0
 16 17  1  1
 18 17  2  0
 20 21  1  1
 20 25  1  0
 20 19  1  0
 21 22  1  0
 22 23  1  0
 23 24  2  0
 25 28  1  0
 26 25  2  0
 27 23  1  0
M  END
$$$$
