CVP.pdb
     RDKit          3D

 21 21  0  0  1  0  0  0  0  0999 V2000
   20.4977  -20.7321  -11.6467 N   0  0  0  0  0  0  0  0  0  0  0  0
   21.1321  -20.9729  -12.9289 C   0  0  1  0  0  0  0  0  0  0  0  0
   20.2399  -20.4799  -14.0162 C   0  0  0  0  0  0  0  0  0  0  0  0
   19.0475  -21.7803  -14.4720 S   0  0  0  0  0  0  0  0  0  0  0  0
   22.5022  -20.4221  -12.9403 C   0  0  0  0  0  0  0  0  0  0  0  0
   22.6801  -19.2613  -12.4941 O   0  0  0  0  0  0  0  0  0  0  0  0
   27.3694  -20.8130  -12.8547 C   0  0  0  0  0  0  0  0  0  0  0  0
   25.9741  -21.2942  -12.6699 C   0  0  1  0  0  0  0  0  0  0  0  0
   25.6338  -21.2413  -11.1999 C   0  0  0  0  0  0  0  0  0  0  0  0
   24.9227  -20.5007  -13.4216 C   0  0  2  0  0  0  0  0  0  0  0  0
   23.6444  -21.0992  -13.4147 N   0  0  0  0  0  0  0  0  0  0  0  0
   25.4343  -19.9875  -14.7022 C   0  0  0  0  0  0  0  0  0  0  0  0
   25.0211  -20.6082  -15.7388 O   0  0  0  0  0  0  0  0  0  0  0  0
   26.3132  -18.9114  -14.9389 N   0  0  0  0  0  0  0  0  0  0  0  0
   27.1040  -18.0813  -14.0852 C   0  0  0  0  0  0  0  0  0  0  0  0
   26.6964  -16.7033  -14.5799 C   0  0  0  0  0  0  0  0  0  0  0  0
   26.5387  -16.9073  -16.0719 C   0  0  0  0  0  0  0  0  0  0  0  0
   26.5940  -18.3975  -16.2773 C   0  0  1  0  0  0  0  0  0  0  0  0
   27.9442  -18.7757  -16.7621 C   0  0  0  0  0  0  0  0  0  0  0  0
   28.3915  -18.3996  -18.0307 O   0  0  0  0  0  0  0  0  0  0  0  0
   28.7680  -19.4444  -16.0900 O   0  0  0  0  0  0  0  0  0  0  0  0
  2  1  1  1
  3  2  1  0
  4  3  1  0
  5 11  1  0
  5  2  1  0
  6  5  2  0
  8  7  1  1
  8 10  1  0
  9  8  1  0
 10 12  1  0
 10 11  1  6
 12 14  1  0
 13 12  2  0
 14 15  1  0
 14 18  1  0
 15 16  1  0
 16 17  1  0
 18 19  1  1
 18 17  1  0
 19 20  1  0
 21 19  2  0
M  END
$$$$
