CVP.pdb
     RDKit          3D

 21 21  0  0  1  0  0  0  0  0999 V2000
   26.0710  -21.0481  -11.4959 N   0  0  0  0  0  0  0  0  0  0  0  0
   25.5955  -20.5416  -10.2223 C   0  0  1  0  0  0  0  0  0  0  0  0
   24.4129  -21.3390   -9.7899 C   0  0  0  0  0  0  0  0  0  0  0  0
   23.5489  -20.4758   -8.4375 S   0  0  0  0  0  0  0  0  0  0  0  0
   26.7014  -20.4753   -9.2460 C   0  0  0  0  0  0  0  0  0  0  0  0
   27.4618  -21.4698   -9.1404 O   0  0  0  0  0  0  0  0  0  0  0  0
   27.7281  -17.2884   -6.0795 C   0  0  0  0  0  0  0  0  0  0  0  0
   28.5460  -18.0583   -7.0544 C   0  0  1  0  0  0  0  0  0  0  0  0
   29.9249  -18.2641   -6.4746 C   0  0  0  0  0  0  0  0  0  0  0  0
   27.9856  -19.4192   -7.4206 C   0  0  2  0  0  0  0  0  0  0  0  0
   26.9814  -19.3739   -8.4115 N   0  0  0  0  0  0  0  0  0  0  0  0
   27.7399  -20.2494   -6.2308 C   0  0  0  0  0  0  0  0  0  0  0  0
   26.5389  -20.6617   -6.0961 O   0  0  0  0  0  0  0  0  0  0  0  0
   28.6439  -20.6484   -5.2257 N   0  0  0  0  0  0  0  0  0  0  0  0
   30.0483  -20.4625   -5.0358 C   0  0  0  0  0  0  0  0  0  0  0  0
   30.4846  -21.8920   -4.7603 C   0  0  0  0  0  0  0  0  0  0  0  0
   29.3332  -22.4522   -3.9521 C   0  0  0  0  0  0  0  0  0  0  0  0
   28.2371  -21.4258   -4.0576 C   0  0  1  0  0  0  0  0  0  0  0  0
   28.2039  -20.6148   -2.8158 C   0  0  0  0  0  0  0  0  0  0  0  0
   28.6713  -19.2987   -2.7959 O   0  0  0  0  0  0  0  0  0  0  0  0
   27.7657  -21.0347   -1.7163 O   0  0  0  0  0  0  0  0  0  0  0  0
  2  1  1  6
  3  2  1  0
  4  3  1  0
  5 11  1  0
  5  2  1  0
  6  5  2  0
  8  7  1  1
  8 10  1  0
  9  8  1  0
 10 12  1  0
 10 11  1  1
 12 14  1  0
 13 12  2  0
 14 15  1  0
 14 18  1  0
 15 16  1  0
 16 17  1  0
 18 19  1  1
 18 17  1  0
 19 20  1  0
 21 19  2  0
M  END
$$$$
