CVP.pdb
     RDKit          3D

 21 21  0  0  1  0  0  0  0  0999 V2000
   25.0341  -19.9592  -11.1151 N   0  0  0  0  0  0  0  0  0  0  0  0
   24.9198  -20.3066   -9.7111 C   0  0  1  0  0  0  0  0  0  0  0  0
   24.3152  -21.6635   -9.5908 C   0  0  0  0  0  0  0  0  0  0  0  0
   23.9145  -22.0071   -7.8467 S   0  0  0  0  0  0  0  0  0  0  0  0
   26.2170  -20.1323   -9.0274 C   0  0  0  0  0  0  0  0  0  0  0  0
   27.2422  -20.6224   -9.5633 O   0  0  0  0  0  0  0  0  0  0  0  0
   27.4025  -16.9122   -7.8154 C   0  0  0  0  0  0  0  0  0  0  0  0
   28.1653  -17.9245   -7.0371 C   0  0  1  0  0  0  0  0  0  0  0  0
   28.0939  -17.5644   -5.5726 C   0  0  0  0  0  0  0  0  0  0  0  0
   27.6719  -19.3502   -7.1921 C   0  0  2  0  0  0  0  0  0  0  0  0
   26.4056  -19.4511   -7.8074 N   0  0  0  0  0  0  0  0  0  0  0  0
   27.9123  -20.1487   -5.9797 C   0  0  0  0  0  0  0  0  0  0  0  0
   26.8658  -20.6411   -5.4386 O   0  0  0  0  0  0  0  0  0  0  0  0
   29.1326  -20.4416   -5.3382 N   0  0  0  0  0  0  0  0  0  0  0  0
   30.4936  -20.0999   -5.6103 C   0  0  0  0  0  0  0  0  0  0  0  0
   31.1452  -21.4712   -5.5402 C   0  0  0  0  0  0  0  0  0  0  0  0
   30.3885  -22.1535   -4.4202 C   0  0  0  0  0  0  0  0  0  0  0  0
   29.2160  -21.2558   -4.1281 C   0  0  1  0  0  0  0  0  0  0  0  0
   29.5056  -20.4497   -2.9168 C   0  0  0  0  0  0  0  0  0  0  0  0
   29.4802  -21.0204   -1.6421 O   0  0  0  0  0  0  0  0  0  0  0  0
   29.7884  -19.2263   -2.9405 O   0  0  0  0  0  0  0  0  0  0  0  0
  2  1  1  6
  3  2  1  0
  4  3  1  0
  5 11  1  0
  5  2  1  0
  6  5  2  0
  8  7  1  6
  8 10  1  0
  9  8  1  0
 10 12  1  0
 10 11  1  1
 12 14  1  0
 13 12  2  0
 14 15  1  0
 14 18  1  0
 15 16  1  0
 16 17  1  0
 18 19  1  1
 18 17  1  0
 19 20  1  0
 21 19  2  0
M  END
$$$$
