CVP.pdb
     RDKit          3D

 21 21  0  0  1  0  0  0  0  0999 V2000
   20.2581  -20.7638  -11.8091 N   0  0  0  0  0  0  0  0  0  0  0  0
   21.1005  -21.2268  -12.8956 C   0  0  1  0  0  0  0  0  0  0  0  0
   20.3477  -21.1200  -14.1776 C   0  0  0  0  0  0  0  0  0  0  0  0
   19.6671  -22.7488  -14.6299 S   0  0  0  0  0  0  0  0  0  0  0  0
   22.4043  -20.5339  -12.8714 C   0  0  0  0  0  0  0  0  0  0  0  0
   22.4111  -19.2840  -12.7451 O   0  0  0  0  0  0  0  0  0  0  0  0
   25.5147  -20.9351  -10.6583 C   0  0  0  0  0  0  0  0  0  0  0  0
   25.9318  -20.9103  -12.0858 C   0  0  1  0  0  0  0  0  0  0  0  0
   26.3404  -22.3049  -12.4956 C   0  0  0  0  0  0  0  0  0  0  0  0
   24.8648  -20.4333  -13.0522 C   0  0  2  0  0  0  0  0  0  0  0  0
   23.6604  -21.1656  -12.9778 N   0  0  0  0  0  0  0  0  0  0  0  0
   25.4184  -20.1549  -14.3868 C   0  0  0  0  0  0  0  0  0  0  0  0
   24.8804  -20.8073  -15.3436 O   0  0  0  0  0  0  0  0  0  0  0  0
   26.4553  -19.2723  -14.7504 N   0  0  0  0  0  0  0  0  0  0  0  0
   27.3741  -18.4729  -14.0021 C   0  0  0  0  0  0  0  0  0  0  0  0
   27.1870  -17.1250  -14.6789 C   0  0  0  0  0  0  0  0  0  0  0  0
   26.9882  -17.4963  -16.1333 C   0  0  0  0  0  0  0  0  0  0  0  0
   26.8046  -18.9903  -16.1406 C   0  0  1  0  0  0  0  0  0  0  0  0
   28.0740  -19.6381  -16.5527 C   0  0  0  0  0  0  0  0  0  0  0  0
   28.6123  -19.4356  -17.8256 O   0  0  0  0  0  0  0  0  0  0  0  0
   28.7458  -20.3977  -15.8116 O   0  0  0  0  0  0  0  0  0  0  0  0
  2  1  1  1
  3  2  1  0
  4  3  1  0
  5 11  1  0
  5  2  1  0
  6  5  2  0
  8  7  1  1
  8 10  1  0
  9  8  1  0
 10 12  1  0
 10 11  1  6
 12 14  1  0
 13 12  2  0
 14 15  1  0
 14 18  1  0
 15 16  1  0
 16 17  1  0
 18 19  1  1
 18 17  1  0
 19 20  1  0
 21 19  2  0
M  END
$$$$
