CVP.pdb
     RDKit          3D

 21 21  0  0  1  0  0  0  0  0999 V2000
   16.8371  -15.8364  -15.8746 N   0  0  0  0  0  0  0  0  0  0  0  0
   16.6901  -14.4316  -15.5436 C   0  0  1  0  0  0  0  0  0  0  0  0
   16.0550  -14.3096  -14.2008 C   0  0  0  0  0  0  0  0  0  0  0  0
   14.3320  -14.8979  -14.2784 S   0  0  0  0  0  0  0  0  0  0  0  0
   17.9780  -13.7258  -15.6975 C   0  0  0  0  0  0  0  0  0  0  0  0
   19.0264  -14.3161  -15.3360 O   0  0  0  0  0  0  0  0  0  0  0  0
   19.6790  -12.4970  -18.8037 C   0  0  0  0  0  0  0  0  0  0  0  0
   19.7067  -11.3983  -17.8016 C   0  0  1  0  0  0  0  0  0  0  0  0
   18.6928  -10.3529  -18.2003 C   0  0  0  0  0  0  0  0  0  0  0  0
   19.4011  -11.8266  -16.3792 C   0  0  2  0  0  0  0  0  0  0  0  0
   18.1332  -12.4275  -16.2251 N   0  0  0  0  0  0  0  0  0  0  0  0
   19.7999  -10.8029  -15.4004 C   0  0  0  0  0  0  0  0  0  0  0  0
   18.8427  -10.3016  -14.7199 O   0  0  0  0  0  0  0  0  0  0  0  0
   21.0861  -10.3029  -15.1140 N   0  0  0  0  0  0  0  0  0  0  0  0
   22.3825  -10.5514  -15.6624 C   0  0  0  0  0  0  0  0  0  0  0  0
   23.1735  -10.8291  -14.3948 C   0  0  0  0  0  0  0  0  0  0  0  0
   22.5718   -9.8627  -13.3965 C   0  0  0  0  0  0  0  0  0  0  0  0
   21.3378   -9.3181  -14.0648 C   0  0  1  0  0  0  0  0  0  0  0  0
   21.6293   -7.9683  -14.6072 C   0  0  0  0  0  0  0  0  0  0  0  0
   21.8134   -6.8711  -13.7627 O   0  0  0  0  0  0  0  0  0  0  0  0
   21.7307   -7.7126  -15.8326 O   0  0  0  0  0  0  0  0  0  0  0  0
  2  1  1  1
  3  2  1  0
  4  3  1  0
  5 11  1  0
  5  2  1  0
  6  5  2  0
  8  7  1  6
  8 10  1  0
  9  8  1  0
 10 12  1  0
 10 11  1  6
 12 14  1  0
 13 12  2  0
 14 15  1  0
 14 18  1  0
 15 16  1  0
 16 17  1  0
 18 19  1  6
 18 17  1  0
 19 20  1  0
 21 19  2  0
M  END
$$$$
