CVP.pdb
     RDKit          3D

 21 21  0  0  1  0  0  0  0  0999 V2000
   29.7261  -22.7484  -17.2671 N   0  0  0  0  0  0  0  0  0  0  0  0
   28.4709  -22.0327  -17.3972 C   0  0  1  0  0  0  0  0  0  0  0  0
   27.4537  -22.9362  -18.0057 C   0  0  0  0  0  0  0  0  0  0  0  0
   26.8907  -24.1511  -16.7696 S   0  0  0  0  0  0  0  0  0  0  0  0
   28.0840  -21.4272  -16.1072 C   0  0  0  0  0  0  0  0  0  0  0  0
   28.6197  -21.8670  -15.0594 O   0  0  0  0  0  0  0  0  0  0  0  0
   27.8986  -17.6655  -14.9848 C   0  0  0  0  0  0  0  0  0  0  0  0
   26.6637  -18.3959  -14.5924 C   0  0  1  0  0  0  0  0  0  0  0  0
   25.5329  -17.9534  -15.4896 C   0  0  0  0  0  0  0  0  0  0  0  0
   26.7639  -19.9068  -14.6780 C   0  0  2  0  0  0  0  0  0  0  0  0
   27.1521  -20.3808  -15.9496 N   0  0  0  0  0  0  0  0  0  0  0  0
   25.6306  -20.5702  -14.0140 C   0  0  0  0  0  0  0  0  0  0  0  0
   24.9762  -21.3868  -14.7456 O   0  0  0  0  0  0  0  0  0  0  0  0
   25.1717  -20.4272  -12.6890 N   0  0  0  0  0  0  0  0  0  0  0  0
   25.5437  -19.5714  -11.6063 C   0  0  0  0  0  0  0  0  0  0  0  0
   25.7288  -20.5915  -10.4950 C   0  0  0  0  0  0  0  0  0  0  0  0
   24.6333  -21.6001  -10.7693 C   0  0  0  0  0  0  0  0  0  0  0  0
   24.0974  -21.2443  -12.1303 C   0  0  1  0  0  0  0  0  0  0  0  0
   22.8287  -20.4909  -11.9759 C   0  0  0  0  0  0  0  0  0  0  0  0
   21.6411  -21.1345  -11.6203 O   0  0  0  0  0  0  0  0  0  0  0  0
   22.7248  -19.2512  -12.1477 O   0  0  0  0  0  0  0  0  0  0  0  0
  2  1  1  1
  3  2  1  0
  4  3  1  0
  5 11  1  0
  5  2  1  0
  6  5  2  0
  8  7  1  6
  8 10  1  0
  9  8  1  0
 10 12  1  0
 10 11  1  6
 12 14  1  0
 13 12  2  0
 14 15  1  0
 14 18  1  0
 15 16  1  0
 16 17  1  0
 18 19  1  1
 18 17  1  0
 19 20  1  0
 21 19  2  0
M  END
$$$$
