CVP.pdb
     RDKit          3D

 21 21  0  0  1  0  0  0  0  0999 V2000
   20.4994  -13.6874  -18.1401 N   0  0  0  0  0  0  0  0  0  0  0  0
   20.6278  -12.2590  -18.3588 C   0  0  1  0  0  0  0  0  0  0  0  0
   19.4266  -11.7666  -19.0909 C   0  0  0  0  0  0  0  0  0  0  0  0
   19.7019  -11.9010  -20.8873 S   0  0  0  0  0  0  0  0  0  0  0  0
   20.9193  -11.5649  -17.0885 C   0  0  0  0  0  0  0  0  0  0  0  0
   20.1150  -11.7085  -16.1342 O   0  0  0  0  0  0  0  0  0  0  0  0
   23.7275  -11.8461  -14.6627 C   0  0  0  0  0  0  0  0  0  0  0  0
   23.5223  -10.3968  -14.9267 C   0  0  1  0  0  0  0  0  0  0  0  0
   24.6616   -9.8935  -15.7801 C   0  0  0  0  0  0  0  0  0  0  0  0
   22.2240  -10.0563  -15.6329 C   0  0  2  0  0  0  0  0  0  0  0  0
   22.0412  -10.7442  -16.8518 N   0  0  0  0  0  0  0  0  0  0  0  0
   21.9512   -8.6105  -15.6121 C   0  0  0  0  0  0  0  0  0  0  0  0
   22.3971   -7.9603  -16.6165 O   0  0  0  0  0  0  0  0  0  0  0  0
   21.2695   -7.8505  -14.6404 N   0  0  0  0  0  0  0  0  0  0  0  0
   20.6311   -8.1793  -13.4045 C   0  0  0  0  0  0  0  0  0  0  0  0
   19.2824   -7.5062  -13.5992 C   0  0  0  0  0  0  0  0  0  0  0  0
   19.6367   -6.2385  -14.3474 C   0  0  0  0  0  0  0  0  0  0  0  0
   21.0755   -6.4072  -14.7563 C   0  0  1  0  0  0  0  0  0  0  0  0
   21.9419   -5.6387  -13.8292 C   0  0  0  0  0  0  0  0  0  0  0  0
   21.9639   -4.2422  -13.8460 O   0  0  0  0  0  0  0  0  0  0  0  0
   22.7021   -6.1671  -12.9805 O   0  0  0  0  0  0  0  0  0  0  0  0
  2  1  1  1
  3  2  1  0
  4  3  1  0
  5 11  1  0
  5  2  1  0
  6  5  2  0
  8  7  1  6
  8 10  1  0
  9  8  1  0
 10 12  1  0
 10 11  1  6
 12 14  1  0
 13 12  2  0
 14 15  1  0
 14 18  1  0
 15 16  1  0
 16 17  1  0
 18 19  1  1
 18 17  1  0
 19 20  1  0
 21 19  2  0
M  END
$$$$
