CVP.pdb
     RDKit          3D

 21 21  0  0  1  0  0  0  0  0999 V2000
   22.1680  -17.9492  -15.7634 N   0  0  0  0  0  0  0  0  0  0  0  0
   21.9888  -16.7638  -16.5803 C   0  0  1  0  0  0  0  0  0  0  0  0
   20.5843  -16.7202  -17.0771 C   0  0  0  0  0  0  0  0  0  0  0  0
   20.3968  -17.8497  -18.4948 S   0  0  0  0  0  0  0  0  0  0  0  0
   22.4365  -15.5601  -15.8515 C   0  0  0  0  0  0  0  0  0  0  0  0
   22.0477  -15.4031  -14.6673 O   0  0  0  0  0  0  0  0  0  0  0  0
   25.7981  -14.6604  -14.8079 C   0  0  0  0  0  0  0  0  0  0  0  0
   25.2176  -13.4236  -15.3959 C   0  0  1  0  0  0  0  0  0  0  0  0
   25.8674  -13.1726  -16.7354 C   0  0  0  0  0  0  0  0  0  0  0  0
   23.7160  -13.4628  -15.6052 C   0  0  2  0  0  0  0  0  0  0  0  0
   23.2771  -14.5586  -16.3791 N   0  0  0  0  0  0  0  0  0  0  0  0
   23.1720  -12.1336  -15.9255 C   0  0  0  0  0  0  0  0  0  0  0  0
   22.8574  -11.9575  -17.1504 O   0  0  0  0  0  0  0  0  0  0  0  0
   22.9531  -11.0352  -15.0699 N   0  0  0  0  0  0  0  0  0  0  0  0
   23.1889  -10.8103  -13.6781 C   0  0  0  0  0  0  0  0  0  0  0  0
   21.8288  -10.2882  -13.2452 C   0  0  0  0  0  0  0  0  0  0  0  0
   21.3872   -9.4569  -14.4312 C   0  0  0  0  0  0  0  0  0  0  0  0
   22.3663   -9.7784  -15.5285 C   0  0  1  0  0  0  0  0  0  0  0  0
   23.3649   -8.6859  -15.6300 C   0  0  0  0  0  0  0  0  0  0  0  0
   22.9993   -7.4053  -16.0511 O   0  0  0  0  0  0  0  0  0  0  0  0
   24.5824   -8.8218  -15.3534 O   0  0  0  0  0  0  0  0  0  0  0  0
  2  1  1  1
  3  2  1  0
  4  3  1  0
  5 11  1  0
  5  2  1  0
  6  5  2  0
  8  7  1  6
  8 10  1  0
  9  8  1  0
 10 12  1  0
 10 11  1  6
 12 14  1  0
 13 12  2  0
 14 15  1  0
 14 18  1  0
 15 16  1  0
 16 17  1  0
 18 19  1  1
 18 17  1  0
 19 20  1  0
 21 19  2  0
M  END
$$$$
