CVP.pdb
     RDKit          3D

 21 21  0  0  1  0  0  0  0  0999 V2000
   25.3269  -21.2542   -8.7115 N   0  0  0  0  0  0  0  0  0  0  0  0
   24.4323  -21.0271   -9.8308 C   0  0  1  0  0  0  0  0  0  0  0  0
   23.4114  -20.0129   -9.4427 C   0  0  0  0  0  0  0  0  0  0  0  0
   22.1903  -20.7664   -8.3193 S   0  0  0  0  0  0  0  0  0  0  0  0
   25.2004  -20.7119  -11.0519 C   0  0  0  0  0  0  0  0  0  0  0  0
   26.2490  -20.0299  -10.9354 O   0  0  0  0  0  0  0  0  0  0  0  0
   24.9859  -23.0171  -14.5389 C   0  0  0  0  0  0  0  0  0  0  0  0
   26.0778  -22.0434  -14.2708 C   0  0  1  0  0  0  0  0  0  0  0  0
   26.6396  -21.5697  -15.5898 C   0  0  0  0  0  0  0  0  0  0  0  0
   25.6597  -20.8216  -13.4755 C   0  0  2  0  0  0  0  0  0  0  0  0
   24.8528  -21.1191  -12.3563 N   0  0  0  0  0  0  0  0  0  0  0  0
   25.2407  -19.7149  -14.3501 C   0  0  0  0  0  0  0  0  0  0  0  0
   23.9783  -19.5824  -14.4895 O   0  0  0  0  0  0  0  0  0  0  0  0
   26.0378  -18.7876  -15.0509 N   0  0  0  0  0  0  0  0  0  0  0  0
   27.4494  -18.6175  -15.1982 C   0  0  0  0  0  0  0  0  0  0  0  0
   27.5899  -17.1428  -14.8587 C   0  0  0  0  0  0  0  0  0  0  0  0
   26.3427  -16.5317  -15.4617 C   0  0  0  0  0  0  0  0  0  0  0  0
   25.4739  -17.6994  -15.8458 C   0  0  1  0  0  0  0  0  0  0  0  0
   25.5912  -17.9387  -17.3052 C   0  0  0  0  0  0  0  0  0  0  0  0
   26.2100  -19.0869  -17.8049 O   0  0  0  0  0  0  0  0  0  0  0  0
   25.1562  -17.1511  -18.1815 O   0  0  0  0  0  0  0  0  0  0  0  0
  2  1  1  1
  3  2  1  0
  4  3  1  0
  5 11  1  0
  5  2  1  0
  6  5  2  0
  8  7  1  6
  8 10  1  0
  9  8  1  0
 10 12  1  0
 10 11  1  1
 12 14  1  0
 13 12  2  0
 14 15  1  0
 14 18  1  0
 15 16  1  0
 16 17  1  0
 18 19  1  6
 18 17  1  0
 19 20  1  0
 21 19  2  0
M  END
$$$$
