CVP.pdb
     RDKit          3D

 21 21  0  0  1  0  0  0  0  0999 V2000
   22.1354    1.8309  -12.9485 N   0  0  0  0  0  0  0  0  0  0  0  0
   22.3150    2.6675  -11.7770 C   0  0  1  0  0  0  0  0  0  0  0  0
   20.9894    2.9058  -11.1387 C   0  0  0  0  0  0  0  0  0  0  0  0
   20.2567    4.4401  -11.7943 S   0  0  0  0  0  0  0  0  0  0  0  0
   23.3487    2.0995  -10.8886 C   0  0  0  0  0  0  0  0  0  0  0  0
   23.2779    0.8793  -10.5980 O   0  0  0  0  0  0  0  0  0  0  0  0
   26.9790    2.8069  -11.4195 C   0  0  0  0  0  0  0  0  0  0  0  0
   26.7036    1.9128  -10.2632 C   0  0  1  0  0  0  0  0  0  0  0  0
   27.8363    2.0383   -9.2728 C   0  0  0  0  0  0  0  0  0  0  0  0
   25.4079    2.2019   -9.5299 C   0  0  2  0  0  0  0  0  0  0  0  0
   24.4250    2.8205  -10.3321 N   0  0  0  0  0  0  0  0  0  0  0  0
   25.6488    2.7565   -8.1884 C   0  0  0  0  0  0  0  0  0  0  0  0
   25.6511    4.0316   -8.1214 O   0  0  0  0  0  0  0  0  0  0  0  0
   25.8766    2.0762   -6.9752 N   0  0  0  0  0  0  0  0  0  0  0  0
   26.0320    0.6965   -6.6355 C   0  0  0  0  0  0  0  0  0  0  0  0
   25.0375    0.5766   -5.4924 C   0  0  0  0  0  0  0  0  0  0  0  0
   25.1748    1.9044   -4.7778 C   0  0  0  0  0  0  0  0  0  0  0  0
   26.0047    2.7644   -5.6930 C   0  0  1  0  0  0  0  0  0  0  0  0
   27.4037    2.7969   -5.2002 C   0  0  0  0  0  0  0  0  0  0  0  0
   27.7356    3.4289   -3.9996 O   0  0  0  0  0  0  0  0  0  0  0  0
   28.3720    2.2741   -5.8054 O   0  0  0  0  0  0  0  0  0  0  0  0
  2  1  1  6
  3  2  1  0
  4  3  1  0
  5 11  1  0
  5  2  1  0
  6  5  2  0
  8  7  1  6
  8 10  1  0
  9  8  1  0
 10 12  1  0
 10 11  1  6
 12 14  1  0
 13 12  2  0
 14 15  1  0
 14 18  1  0
 15 16  1  0
 16 17  1  0
 18 19  1  1
 18 17  1  0
 19 20  1  0
 21 19  2  0
M  END
$$$$
