CVP.pdb
     RDKit          3D

 21 21  0  0  1  0  0  0  0  0999 V2000
   20.8687  -13.3634  -19.1371 N   0  0  0  0  0  0  0  0  0  0  0  0
   21.2324  -11.9630  -19.2428 C   0  0  1  0  0  0  0  0  0  0  0  0
   20.4186  -11.3263  -20.3169 C   0  0  0  0  0  0  0  0  0  0  0  0
   21.1804  -11.6493  -21.9406 S   0  0  0  0  0  0  0  0  0  0  0  0
   21.1556  -11.3070  -17.9221 C   0  0  0  0  0  0  0  0  0  0  0  0
   20.0881  -11.4104  -17.2679 O   0  0  0  0  0  0  0  0  0  0  0  0
   22.8808  -12.1640  -14.9221 C   0  0  0  0  0  0  0  0  0  0  0  0
   23.0006  -10.6840  -15.0091 C   0  0  1  0  0  0  0  0  0  0  0  0
   24.4224  -10.3336  -15.3769 C   0  0  0  0  0  0  0  0  0  0  0  0
   22.0813  -10.0297  -16.0225 C   0  0  2  0  0  0  0  0  0  0  0  0
   22.1947  -10.5652  -17.3236 N   0  0  0  0  0  0  0  0  0  0  0  0
   22.0632   -8.5651  -15.8814 C   0  0  0  0  0  0  0  0  0  0  0  0
   22.9181   -7.9412  -16.5957 O   0  0  0  0  0  0  0  0  0  0  0  0
   21.2364   -7.7625  -15.0698 N   0  0  0  0  0  0  0  0  0  0  0  0
   20.1621   -8.0501  -14.1719 C   0  0  0  0  0  0  0  0  0  0  0  0
   19.1084   -7.0781  -14.6767 C   0  0  0  0  0  0  0  0  0  0  0  0
   19.9214   -5.8595  -15.0597 C   0  0  0  0  0  0  0  0  0  0  0  0
   21.3574   -6.3079  -15.0092 C   0  0  1  0  0  0  0  0  0  0  0  0
   21.9733   -5.8388  -13.7437 C   0  0  0  0  0  0  0  0  0  0  0  0
   22.2746   -4.4903  -13.5395 O   0  0  0  0  0  0  0  0  0  0  0  0
   22.2639   -6.5946  -12.7837 O   0  0  0  0  0  0  0  0  0  0  0  0
  2  1  1  1
  3  2  1  0
  4  3  1  0
  5 11  1  0
  5  2  1  0
  6  5  2  0
  8  7  1  6
  8 10  1  0
  9  8  1  0
 10 12  1  0
 10 11  1  6
 12 14  1  0
 13 12  2  0
 14 15  1  0
 14 18  1  0
 15 16  1  0
 16 17  1  0
 18 19  1  1
 18 17  1  0
 19 20  1  0
 21 19  2  0
M  END
$$$$
