CVP.pdb
     RDKit          3D

 21 21  0  0  1  0  0  0  0  0999 V2000
   25.6734  -20.9366  -13.9838 N   0  0  0  0  0  0  0  0  0  0  0  0
   26.6472  -21.3457  -12.9893 C   0  0  1  0  0  0  0  0  0  0  0  0
   28.0128  -21.2684  -13.5813 C   0  0  0  0  0  0  0  0  0  0  0  0
   29.2432  -21.8519  -12.3704 S   0  0  0  0  0  0  0  0  0  0  0  0
   26.4596  -20.5852  -11.7375 C   0  0  0  0  0  0  0  0  0  0  0  0
   26.2738  -19.3453  -11.8172 O   0  0  0  0  0  0  0  0  0  0  0  0
   23.9996  -19.6916  -10.1490 C   0  0  0  0  0  0  0  0  0  0  0  0
   24.8305  -20.0588   -8.9713 C   0  0  1  0  0  0  0  0  0  0  0  0
   24.2373  -21.2869   -8.3236 C   0  0  0  0  0  0  0  0  0  0  0  0
   26.2848  -20.3528   -9.2855 C   0  0  2  0  0  0  0  0  0  0  0  0
   26.4697  -21.1410  -10.4417 N   0  0  0  0  0  0  0  0  0  0  0  0
   27.0444  -20.7147   -8.0783 C   0  0  0  0  0  0  0  0  0  0  0  0
   27.3863  -21.9426   -8.0010 O   0  0  0  0  0  0  0  0  0  0  0  0
   27.4428  -19.8961   -7.0025 N   0  0  0  0  0  0  0  0  0  0  0  0
   27.1996  -18.5287   -6.6645 C   0  0  0  0  0  0  0  0  0  0  0  0
   28.6176  -18.0500   -6.3998 C   0  0  0  0  0  0  0  0  0  0  0  0
   29.2646  -19.2460   -5.7339 C   0  0  0  0  0  0  0  0  0  0  0  0
   28.2870  -20.3768   -5.9114 C   0  0  1  0  0  0  0  0  0  0  0  0
   27.5316  -20.5744   -4.6500 C   0  0  0  0  0  0  0  0  0  0  0  0
   28.1699  -20.9908   -3.4794 O   0  0  0  0  0  0  0  0  0  0  0  0
   26.2946  -20.3883   -4.5377 O   0  0  0  0  0  0  0  0  0  0  0  0
  2  1  1  6
  3  2  1  0
  4  3  1  0
  5 11  1  0
  5  2  1  0
  6  5  2  0
  8  7  1  6
  8 10  1  0
  9  8  1  0
 10 12  1  0
 10 11  1  6
 12 14  1  0
 13 12  2  0
 14 15  1  0
 14 18  1  0
 15 16  1  0
 16 17  1  0
 18 19  1  1
 18 17  1  0
 19 20  1  0
 21 19  2  0
M  END
$$$$
