CVP.pdb
     RDKit          3D

 21 21  0  0  1  0  0  0  0  0999 V2000
   18.7571  -13.1357  -17.4495 N   0  0  0  0  0  0  0  0  0  0  0  0
   19.2694  -11.8063  -17.7233 C   0  0  1  0  0  0  0  0  0  0  0  0
   18.2177  -11.0106  -18.4177 C   0  0  0  0  0  0  0  0  0  0  0  0
   18.0431  -11.5879  -20.1373 S   0  0  0  0  0  0  0  0  0  0  0  0
   19.8104  -11.1963  -16.4922 C   0  0  0  0  0  0  0  0  0  0  0  0
   19.1448  -11.3054  -15.4323 O   0  0  0  0  0  0  0  0  0  0  0  0
   22.9801  -11.8529  -14.7319 C   0  0  0  0  0  0  0  0  0  0  0  0
   22.8116  -10.3751  -14.7214 C   0  0  1  0  0  0  0  0  0  0  0  0
   23.8714   -9.7601  -15.6036 C   0  0  0  0  0  0  0  0  0  0  0  0
   21.4600   -9.8854  -15.2047 C   0  0  2  0  0  0  0  0  0  0  0  0
   21.0294  -10.4930  -16.4037 N   0  0  0  0  0  0  0  0  0  0  0  0
   21.3333   -8.4239  -15.0909 C   0  0  0  0  0  0  0  0  0  0  0  0
   21.6731   -7.7677  -16.1322 O   0  0  0  0  0  0  0  0  0  0  0  0
   20.8914   -7.6546  -13.9957 N   0  0  0  0  0  0  0  0  0  0  0  0
   20.4895   -7.9803  -12.6633 C   0  0  0  0  0  0  0  0  0  0  0  0
   19.1635   -7.2421  -12.5831 C   0  0  0  0  0  0  0  0  0  0  0  0
   19.4277   -5.9761  -13.3705 C   0  0  0  0  0  0  0  0  0  0  0  0
   20.7497   -6.2017  -14.0539 C   0  0  1  0  0  0  0  0  0  0  0  0
   21.8163   -5.4939  -13.3041 C   0  0  0  0  0  0  0  0  0  0  0  0
   22.8589   -6.1929  -12.6915 O   0  0  0  0  0  0  0  0  0  0  0  0
   21.8651   -4.2467  -13.1648 O   0  0  0  0  0  0  0  0  0  0  0  0
  2  1  1  1
  3  2  1  0
  4  3  1  0
  5 11  1  0
  5  2  1  0
  6  5  2  0
  8  7  1  6
  8 10  1  0
  9  8  1  0
 10 12  1  0
 10 11  1  6
 12 14  1  0
 13 12  2  0
 14 15  1  0
 14 18  1  0
 15 16  1  0
 16 17  1  0
 18 19  1  1
 18 17  1  0
 19 20  1  0
 21 19  2  0
M  END
$$$$
