CVP.pdb
     RDKit          3D

 21 21  0  0  1  0  0  0  0  0999 V2000
   23.5904  -14.5405  -17.5673 N   0  0  0  0  0  0  0  0  0  0  0  0
   23.8619  -13.5126  -16.5802 C   0  0  1  0  0  0  0  0  0  0  0  0
   25.3350  -13.3098  -16.4781 C   0  0  0  0  0  0  0  0  0  0  0  0
   26.0860  -14.6961  -15.5645 S   0  0  0  0  0  0  0  0  0  0  0  0
   23.0774  -12.2957  -16.8705 C   0  0  0  0  0  0  0  0  0  0  0  0
   23.1018  -11.8374  -18.0399 O   0  0  0  0  0  0  0  0  0  0  0  0
   19.5185  -11.8066  -17.0468 C   0  0  0  0  0  0  0  0  0  0  0  0
   20.0283  -10.6866  -16.2113 C   0  0  1  0  0  0  0  0  0  0  0  0
   19.6749  -10.9580  -14.7688 C   0  0  0  0  0  0  0  0  0  0  0  0
   21.5264  -10.4640  -16.2912 C   0  0  2  0  0  0  0  0  0  0  0  0
   22.2903  -11.5956  -15.9333 N   0  0  0  0  0  0  0  0  0  0  0  0
   21.9185   -9.1633  -15.7258 C   0  0  0  0  0  0  0  0  0  0  0  0
   22.6270   -9.2248  -14.6653 O   0  0  0  0  0  0  0  0  0  0  0  0
   21.6199   -7.8672  -16.1921 N   0  0  0  0  0  0  0  0  0  0  0  0
   20.8674   -7.3700  -17.3010 C   0  0  0  0  0  0  0  0  0  0  0  0
   21.8683   -6.3986  -17.9047 C   0  0  0  0  0  0  0  0  0  0  0  0
   22.5494   -5.8079  -16.6883 C   0  0  0  0  0  0  0  0  0  0  0  0
   22.0995   -6.6568  -15.5295 C   0  0  1  0  0  0  0  0  0  0  0  0
   21.0265   -5.9479  -14.7899 C   0  0  0  0  0  0  0  0  0  0  0  0
   21.3161   -4.8787  -13.9390 O   0  0  0  0  0  0  0  0  0  0  0  0
   19.8085   -6.2439  -14.8679 O   0  0  0  0  0  0  0  0  0  0  0  0
  2  1  1  6
  3  2  1  0
  4  3  1  0
  5 11  1  0
  5  2  1  0
  6  5  2  0
  8  7  1  6
  8 10  1  0
  9  8  1  0
 10 12  1  0
 10 11  1  1
 12 14  1  0
 13 12  2  0
 14 15  1  0
 14 18  1  0
 15 16  1  0
 16 17  1  0
 18 19  1  6
 18 17  1  0
 19 20  1  0
 21 19  2  0
M  END
$$$$
