MKI.pdb
     RDKit          3D

 26 25  0  0  1  0  0  0  0  0999 V2000
   33.1042  -21.6981   -8.0225 C   0  0  0  0  0  0  0  0  0  0  0  0
   34.0498  -22.2089   -9.4847 S   0  0  0  0  0  0  0  0  0  0  0  0
   32.8991  -22.6337  -10.7976 C   0  0  0  0  0  0  0  0  0  0  0  0
   31.6749  -21.7500  -10.7071 C   0  0  0  0  0  0  0  0  0  0  0  0
   30.6566  -22.2426  -11.6831 C   0  0  2  0  0  0  0  0  0  0  0  0
   31.2726  -22.4974  -12.9462 N   0  0  0  0  0  0  0  0  0  0  0  0
   29.5306  -21.2647  -11.8679 C   0  0  0  0  0  0  0  0  0  0  0  0
   28.9545  -20.7865  -10.8462 O   0  0  0  0  0  0  0  0  0  0  0  0
   29.1224  -20.8871  -13.1451 N   0  0  0  0  0  0  0  0  0  0  0  0
   27.9363  -20.1703  -13.5527 C   0  0  1  0  0  0  0  0  0  0  0  0
   27.8770  -19.8570  -15.0364 C   0  0  0  0  0  0  0  0  0  0  0  0
   26.7862  -18.8629  -15.2744 C   0  0  0  0  0  0  0  0  0  0  0  0
   27.2897  -17.4526  -15.4956 C   0  0  0  0  0  0  0  0  0  0  0  0
   26.0797  -16.5858  -15.7812 C   0  0  0  0  0  0  0  0  0  0  0  0
   25.6897  -16.7884  -17.1731 N   0  0  0  0  0  0  0  0  0  0  0  0
   26.6932  -20.6581  -12.9697 C   0  0  0  0  0  0  0  0  0  0  0  0
   26.2495  -21.8411  -13.2104 O   0  0  0  0  0  0  0  0  0  0  0  0
   26.2396  -19.9568   -7.9401 C   0  0  0  0  0  0  0  0  0  0  0  0
   26.0026  -20.5258   -9.3082 C   0  0  0  0  0  0  0  0  0  0  0  0
   24.7312  -19.9848   -9.9388 C   0  0  2  0  0  0  0  0  0  0  0  0
   23.5248  -20.6450   -9.2801 C   0  0  0  0  0  0  0  0  0  0  0  0
   24.7483  -20.3501  -11.3946 C   0  0  2  0  0  0  0  0  0  0  0  0
   25.8930  -19.8684  -12.1022 N   0  0  0  0  0  0  0  0  0  0  0  0
   23.4550  -20.0206  -12.0947 C   0  0  0  0  0  0  0  0  0  0  0  0
   23.3811  -19.0712  -13.0934 O   0  0  0  0  0  0  0  0  0  0  0  0
   22.3794  -20.6004  -11.8005 O   0  0  0  0  0  0  0  0  0  0  0  0
  2  1  1  0
  3  4  1  0
  3  2  1  0
  4  5  1  0
  5  6  1  6
  7  5  1  0
  7  9  1  0
  8  7  2  0
 10  9  1  0
 10 11  1  6
 11 12  1  0
 13 12  1  0
 14 13  1  0
 15 14  1  0
 16 10  1  0
 17 16  2  0
 19 18  1  0
 19 20  1  0
 20 22  1  0
 20 21  1  1
 22 23  1  6
 22 24  1  0
 23 16  1  0
 24 25  1  0
 26 24  2  0
M  END
$$$$
