MKI.pdb
     RDKit          3D

 26 25  0  0  1  0  0  0  0  0999 V2000
   26.0662  -20.0577   -3.6339 C   0  0  0  0  0  0  0  0  0  0  0  0
   27.8174  -20.4198   -3.9424 S   0  0  0  0  0  0  0  0  0  0  0  0
   28.2851  -19.7063   -5.5238 C   0  0  0  0  0  0  0  0  0  0  0  0
   27.2785  -20.1054   -6.5799 C   0  0  0  0  0  0  0  0  0  0  0  0
   27.7185  -19.5482   -7.8944 C   0  0  2  0  0  0  0  0  0  0  0  0
   27.8801  -18.1326   -7.7964 N   0  0  0  0  0  0  0  0  0  0  0  0
   26.7457  -19.8618   -8.9960 C   0  0  0  0  0  0  0  0  0  0  0  0
   25.5961  -19.3305   -8.9740 O   0  0  0  0  0  0  0  0  0  0  0  0
   27.0999  -20.7260  -10.0295 N   0  0  0  0  0  0  0  0  0  0  0  0
   26.5981  -20.7895  -11.3826 C   0  0  1  0  0  0  0  0  0  0  0  0
   27.6239  -21.2384  -12.4069 C   0  0  0  0  0  0  0  0  0  0  0  0
   27.0203  -21.1310  -13.7703 C   0  0  0  0  0  0  0  0  0  0  0  0
   27.9316  -21.6189  -14.8763 C   0  0  0  0  0  0  0  0  0  0  0  0
   27.2488  -21.3000  -16.1911 C   0  0  0  0  0  0  0  0  0  0  0  0
   28.1534  -21.6646  -17.2771 N   0  0  0  0  0  0  0  0  0  0  0  0
   25.2776  -21.3897  -11.5203 C   0  0  0  0  0  0  0  0  0  0  0  0
   24.9094  -22.3911  -10.8020 O   0  0  0  0  0  0  0  0  0  0  0  0
   19.7194  -20.8177  -10.5957 C   0  0  0  0  0  0  0  0  0  0  0  0
   20.6918  -21.3744  -11.5937 C   0  0  0  0  0  0  0  0  0  0  0  0
   22.0750  -20.7653  -11.4437 C   0  0  2  0  0  0  0  0  0  0  0  0
   21.9859  -19.2590  -11.6636 C   0  0  0  0  0  0  0  0  0  0  0  0
   22.9561  -21.3581  -12.5045 C   0  0  2  0  0  0  0  0  0  0  0  0
   24.3137  -20.9142  -12.4485 N   0  0  0  0  0  0  0  0  0  0  0  0
   22.3662  -21.2412  -13.8864 C   0  0  0  0  0  0  0  0  0  0  0  0
   21.6647  -22.2731  -14.4758 O   0  0  0  0  0  0  0  0  0  0  0  0
   22.4854  -20.1919  -14.5678 O   0  0  0  0  0  0  0  0  0  0  0  0
  2  1  1  0
  3  4  1  0
  3  2  1  0
  4  5  1  0
  5  6  1  1
  7  5  1  0
  7  9  1  0
  8  7  2  0
 10  9  1  0
 10 11  1  6
 11 12  1  0
 13 12  1  0
 14 13  1  0
 15 14  1  0
 16 10  1  0
 17 16  2  0
 19 18  1  0
 19 20  1  0
 20 22  1  0
 20 21  1  6
 22 23  1  6
 22 24  1  0
 23 16  1  0
 24 25  1  0
 26 24  2  0
M  END
$$$$
