MKI.pdb
     RDKit          3D

 26 25  0  0  1  0  0  0  0  0999 V2000
   29.0153  -13.7788  -15.6698 C   0  0  0  0  0  0  0  0  0  0  0  0
   28.0572  -12.2377  -15.6649 S   0  0  0  0  0  0  0  0  0  0  0  0
   26.4670  -12.5434  -16.4436 C   0  0  0  0  0  0  0  0  0  0  0  0
   25.6237  -11.2889  -16.3881 C   0  0  0  0  0  0  0  0  0  0  0  0
   24.2662  -11.6014  -16.9284 C   0  0  2  0  0  0  0  0  0  0  0  0
   24.3669  -12.0286  -18.2874 N   0  0  0  0  0  0  0  0  0  0  0  0
   23.3392  -10.4215  -16.8460 C   0  0  0  0  0  0  0  0  0  0  0  0
   23.4804   -9.4672  -17.6669 O   0  0  0  0  0  0  0  0  0  0  0  0
   22.3367  -10.3739  -15.8801 N   0  0  0  0  0  0  0  0  0  0  0  0
   21.4159   -9.3055  -15.5680 C   0  0  1  0  0  0  0  0  0  0  0  0
   20.1525   -9.7591  -14.8602 C   0  0  0  0  0  0  0  0  0  0  0  0
   19.1060  -10.0533  -15.8864 C   0  0  0  0  0  0  0  0  0  0  0  0
   18.5589  -11.4625  -15.8068 C   0  0  0  0  0  0  0  0  0  0  0  0
   17.4502  -11.5700  -16.8345 C   0  0  0  0  0  0  0  0  0  0  0  0
   16.9861  -12.9536  -16.8642 N   0  0  0  0  0  0  0  0  0  0  0  0
   22.0331   -8.1010  -15.0282 C   0  0  0  0  0  0  0  0  0  0  0  0
   22.9591   -8.1543  -14.1372 O   0  0  0  0  0  0  0  0  0  0  0  0
   24.2130   -2.6815  -16.4834 C   0  0  0  0  0  0  0  0  0  0  0  0
   23.5046   -3.5319  -15.4702 C   0  0  0  0  0  0  0  0  0  0  0  0
   22.8633   -4.7558  -16.1007 C   0  0  2  0  0  0  0  0  0  0  0  0
   21.7342   -4.3106  -17.0239 C   0  0  0  0  0  0  0  0  0  0  0  0
   22.2846   -5.5921  -14.9967 C   0  0  2  0  0  0  0  0  0  0  0  0
   21.6587   -6.7963  -15.4456 N   0  0  0  0  0  0  0  0  0  0  0  0
   21.4086   -4.7993  -14.0611 C   0  0  0  0  0  0  0  0  0  0  0  0
   20.0486   -5.0143  -13.9685 O   0  0  0  0  0  0  0  0  0  0  0  0
   21.8798   -3.9028  -13.3170 O   0  0  0  0  0  0  0  0  0  0  0  0
  2  1  1  0
  3  4  1  0
  3  2  1  0
  4  5  1  0
  5  6  1  6
  7  5  1  0
  7  9  1  0
  8  7  2  0
 10  9  1  0
 10 11  1  1
 11 12  1  0
 13 12  1  0
 14 13  1  0
 15 14  1  0
 16 10  1  0
 17 16  2  0
 19 18  1  0
 19 20  1  0
 20 22  1  0
 20 21  1  6
 22 23  1  6
 22 24  1  0
 23 16  1  0
 24 25  1  0
 26 24  2  0
M  END
$$$$
