MKI.pdb
     RDKit          3D

 26 25  0  0  1  0  0  0  0  0999 V2000
   32.8633  -21.8349  -11.1169 C   0  0  0  0  0  0  0  0  0  0  0  0
   32.8402  -23.4200  -11.9999 S   0  0  0  0  0  0  0  0  0  0  0  0
   32.8135  -23.0966  -13.7672 C   0  0  0  0  0  0  0  0  0  0  0  0
   31.7902  -22.0254  -14.0731 C   0  0  0  0  0  0  0  0  0  0  0  0
   30.4298  -22.6425  -14.0464 C   0  0  2  0  0  0  0  0  0  0  0  0
   30.1998  -23.3724  -15.2522 N   0  0  0  0  0  0  0  0  0  0  0  0
   29.3462  -21.6159  -13.8729 C   0  0  0  0  0  0  0  0  0  0  0  0
   29.3472  -20.8864  -12.8374 O   0  0  0  0  0  0  0  0  0  0  0  0
   28.3513  -21.4659  -14.8362 N   0  0  0  0  0  0  0  0  0  0  0  0
   27.0922  -20.7630  -14.7504 C   0  0  1  0  0  0  0  0  0  0  0  0
   26.4076  -20.5462  -16.0873 C   0  0  0  0  0  0  0  0  0  0  0  0
   25.1909  -19.7045  -15.8732 C   0  0  0  0  0  0  0  0  0  0  0  0
   24.4428  -19.3852  -17.1499 C   0  0  0  0  0  0  0  0  0  0  0  0
   23.3401  -18.4099  -16.7897 C   0  0  0  0  0  0  0  0  0  0  0  0
   22.6836  -17.9855  -18.0224 N   0  0  0  0  0  0  0  0  0  0  0  0
   26.2191  -21.1970  -13.6676 C   0  0  0  0  0  0  0  0  0  0  0  0
   25.8127  -22.4133  -13.5701 O   0  0  0  0  0  0  0  0  0  0  0  0
   27.2198  -19.5698   -8.7298 C   0  0  0  0  0  0  0  0  0  0  0  0
   26.7363  -20.3290   -9.9303 C   0  0  0  0  0  0  0  0  0  0  0  0
   25.2877  -20.0134  -10.2598 C   0  0  2  0  0  0  0  0  0  0  0  0
   24.3916  -20.5597   -9.1536 C   0  0  0  0  0  0  0  0  0  0  0  0
   24.9468  -20.7075  -11.5462 C   0  0  2  0  0  0  0  0  0  0  0  0
   25.7614  -20.3149  -12.6532 N   0  0  0  0  0  0  0  0  0  0  0  0
   23.4746  -20.6566  -11.8651 C   0  0  0  0  0  0  0  0  0  0  0  0
   22.5758  -21.5584  -11.3330 O   0  0  0  0  0  0  0  0  0  0  0  0
   22.9958  -19.7843  -12.6327 O   0  0  0  0  0  0  0  0  0  0  0  0
  2  1  1  0
  3  4  1  0
  3  2  1  0
  4  5  1  0
  5  6  1  6
  7  5  1  0
  7  9  1  0
  8  7  2  0
 10  9  1  0
 10 11  1  6
 11 12  1  0
 13 12  1  0
 14 13  1  0
 15 14  1  0
 16 10  1  0
 17 16  2  0
 19 18  1  0
 19 20  1  0
 20 22  1  0
 20 21  1  1
 22 23  1  6
 22 24  1  0
 23 16  1  0
 24 25  1  0
 26 24  2  0
M  END
$$$$
