MKI.pdb
     RDKit          3D

 26 25  0  0  1  0  0  0  0  0999 V2000
   28.0257  -21.8391  -15.5627 C   0  0  0  0  0  0  0  0  0  0  0  0
   27.5152  -22.6040  -13.9983 S   0  0  0  0  0  0  0  0  0  0  0  0
   25.7346  -22.8434  -14.0262 C   0  0  0  0  0  0  0  0  0  0  0  0
   25.0948  -21.8004  -14.9155 C   0  0  0  0  0  0  0  0  0  0  0  0
   24.6020  -20.6796  -14.0593 C   0  0  2  0  0  0  0  0  0  0  0  0
   23.5903  -21.1522  -13.1690 N   0  0  0  0  0  0  0  0  0  0  0  0
   24.0538  -19.5431  -14.8755 C   0  0  0  0  0  0  0  0  0  0  0  0
   24.7480  -19.0746  -15.8257 O   0  0  0  0  0  0  0  0  0  0  0  0
   22.7989  -19.0085  -14.5931 N   0  0  0  0  0  0  0  0  0  0  0  0
   22.0847  -17.9458  -15.2618 C   0  0  1  0  0  0  0  0  0  0  0  0
   20.5779  -18.0048  -15.0919 C   0  0  0  0  0  0  0  0  0  0  0  0
   20.0514  -19.1663  -15.8719 C   0  0  0  0  0  0  0  0  0  0  0  0
   19.0538  -18.7756  -16.9413 C   0  0  0  0  0  0  0  0  0  0  0  0
   18.5765  -20.0562  -17.5963 C   0  0  0  0  0  0  0  0  0  0  0  0
   17.6611  -19.7039  -18.6773 N   0  0  0  0  0  0  0  0  0  0  0  0
   22.6758  -16.6220  -15.1159 C   0  0  0  0  0  0  0  0  0  0  0  0
   22.6766  -15.9999  -13.9902 O   0  0  0  0  0  0  0  0  0  0  0  0
   27.3621  -13.2502  -15.3358 C   0  0  0  0  0  0  0  0  0  0  0  0
   25.9112  -13.2988  -15.7154 C   0  0  0  0  0  0  0  0  0  0  0  0
   25.3652  -14.7160  -15.7027 C   0  0  2  0  0  0  0  0  0  0  0  0
   26.1147  -15.5512  -16.7352 C   0  0  0  0  0  0  0  0  0  0  0  0
   23.9162  -14.6542  -16.0896 C   0  0  2  0  0  0  0  0  0  0  0  0
   23.2874  -15.9334  -16.1968 N   0  0  0  0  0  0  0  0  0  0  0  0
   23.6705  -13.7862  -17.2968 C   0  0  0  0  0  0  0  0  0  0  0  0
   23.1676  -14.2943  -18.4772 O   0  0  0  0  0  0  0  0  0  0  0  0
   23.9117  -12.5529  -17.2826 O   0  0  0  0  0  0  0  0  0  0  0  0
  2  1  1  0
  3  4  1  0
  3  2  1  0
  4  5  1  0
  5  6  1  1
  7  5  1  0
  7  9  1  0
  8  7  2  0
 10  9  1  0
 10 11  1  1
 11 12  1  0
 13 12  1  0
 14 13  1  0
 15 14  1  0
 16 10  1  0
 17 16  2  0
 19 18  1  0
 19 20  1  0
 20 22  1  0
 20 21  1  6
 22 23  1  6
 22 24  1  0
 23 16  1  0
 24 25  1  0
 26 24  2  0
M  END
$$$$
