MKI.pdb
     RDKit          3D

 26 25  0  0  1  0  0  0  0  0999 V2000
   28.7843  -19.8571   -6.9312 C   0  0  0  0  0  0  0  0  0  0  0  0
   27.0652  -19.2776   -6.9756 S   0  0  0  0  0  0  0  0  0  0  0  0
   26.0729  -20.4804   -7.8685 C   0  0  0  0  0  0  0  0  0  0  0  0
   26.6424  -20.6809   -9.2554 C   0  0  0  0  0  0  0  0  0  0  0  0
   25.6093  -20.2825  -10.2585 C   0  0  2  0  0  0  0  0  0  0  0  0
   24.4421  -21.0913  -10.1064 N   0  0  0  0  0  0  0  0  0  0  0  0
   26.1149  -20.4006  -11.6687 C   0  0  0  0  0  0  0  0  0  0  0  0
   27.2198  -19.8622  -11.9753 O   0  0  0  0  0  0  0  0  0  0  0  0
   25.3804  -21.0917  -12.6294 N   0  0  0  0  0  0  0  0  0  0  0  0
   25.5160  -21.0822  -14.0676 C   0  0  1  0  0  0  0  0  0  0  0  0
   24.5901  -22.0456  -14.7869 C   0  0  0  0  0  0  0  0  0  0  0  0
   25.3854  -22.8188  -15.7890 C   0  0  0  0  0  0  0  0  0  0  0  0
   25.6720  -24.2437  -15.3660 C   0  0  0  0  0  0  0  0  0  0  0  0
   26.4399  -24.8995  -16.4960 C   0  0  0  0  0  0  0  0  0  0  0  0
   26.7976  -26.2527  -16.0818 N   0  0  0  0  0  0  0  0  0  0  0  0
   25.6221  -19.7577  -14.6657 C   0  0  0  0  0  0  0  0  0  0  0  0
   24.9918  -18.7444  -14.1859 O   0  0  0  0  0  0  0  0  0  0  0  0
   29.4808  -15.8802  -17.2641 C   0  0  0  0  0  0  0  0  0  0  0  0
   28.0784  -16.3845  -17.0896 C   0  0  0  0  0  0  0  0  0  0  0  0
   28.0429  -17.7642  -16.4556 C   0  0  2  0  0  0  0  0  0  0  0  0
   28.8146  -18.7407  -17.3366 C   0  0  0  0  0  0  0  0  0  0  0  0
   26.6089  -18.2026  -16.3879 C   0  0  2  0  0  0  0  0  0  0  0  0
   26.4224  -19.4962  -15.8092 N   0  0  0  0  0  0  0  0  0  0  0  0
   25.8882  -18.0480  -17.7024 C   0  0  0  0  0  0  0  0  0  0  0  0
   25.6416  -19.1199  -18.5359 O   0  0  0  0  0  0  0  0  0  0  0  0
   25.4748  -16.9300  -18.1006 O   0  0  0  0  0  0  0  0  0  0  0  0
  2  1  1  0
  3  4  1  0
  3  2  1  0
  4  5  1  0
  5  6  1  6
  7  5  1  0
  7  9  1  0
  8  7  2  0
 10  9  1  0
 10 11  1  6
 11 12  1  0
 13 12  1  0
 14 13  1  0
 15 14  1  0
 16 10  1  0
 17 16  2  0
 19 18  1  0
 19 20  1  0
 20 22  1  0
 20 21  1  6
 22 23  1  6
 22 24  1  0
 23 16  1  0
 24 25  1  0
 26 24  2  0
M  END
$$$$
