MKI.pdb
     RDKit          3D

 26 25  0  0  1  0  0  0  0  0999 V2000
   27.4436  -16.7872  -18.0858 C   0  0  0  0  0  0  0  0  0  0  0  0
   29.1027  -17.3622  -18.5437 S   0  0  0  0  0  0  0  0  0  0  0  0
   29.4330  -18.9100  -17.6929 C   0  0  0  0  0  0  0  0  0  0  0  0
   28.1487  -19.4523  -17.1062 C   0  0  0  0  0  0  0  0  0  0  0  0
   28.4842  -20.5687  -16.1716 C   0  0  2  0  0  0  0  0  0  0  0  0
   29.0635  -21.6552  -16.8951 N   0  0  0  0  0  0  0  0  0  0  0  0
   27.2787  -21.0591  -15.4202 C   0  0  0  0  0  0  0  0  0  0  0  0
   26.5351  -21.9363  -15.9514 O   0  0  0  0  0  0  0  0  0  0  0  0
   26.9790  -20.5572  -14.1558 N   0  0  0  0  0  0  0  0  0  0  0  0
   25.8015  -20.7622  -13.3447 C   0  0  1  0  0  0  0  0  0  0  0  0
   26.0222  -20.5423  -11.8595 C   0  0  0  0  0  0  0  0  0  0  0  0
   24.7536  -20.8559  -11.1335 C   0  0  0  0  0  0  0  0  0  0  0  0
   24.8195  -20.5711   -9.6482 C   0  0  0  0  0  0  0  0  0  0  0  0
   23.4715  -20.9406   -9.0623 C   0  0  0  0  0  0  0  0  0  0  0  0
   23.4987  -20.6497   -7.6321 N   0  0  0  0  0  0  0  0  0  0  0  0
   24.5765  -20.1860  -13.8836 C   0  0  0  0  0  0  0  0  0  0  0  0
   24.4306  -18.9162  -14.0278 O   0  0  0  0  0  0  0  0  0  0  0  0
   22.6873  -20.8011  -18.4713 C   0  0  0  0  0  0  0  0  0  0  0  0
   22.9544  -20.4166  -17.0457 C   0  0  0  0  0  0  0  0  0  0  0  0
   21.8354  -20.8549  -16.1171 C   0  0  2  0  0  0  0  0  0  0  0  0
   20.5500  -20.1321  -16.5052 C   0  0  0  0  0  0  0  0  0  0  0  0
   22.2131  -20.4546  -14.7206 C   0  0  2  0  0  0  0  0  0  0  0  0
   23.4691  -20.9794  -14.2842 N   0  0  0  0  0  0  0  0  0  0  0  0
   21.1082  -20.6965  -13.7246 C   0  0  0  0  0  0  0  0  0  0  0  0
   20.1986  -19.7164  -13.3836 O   0  0  0  0  0  0  0  0  0  0  0  0
   20.9629  -21.8087  -13.1578 O   0  0  0  0  0  0  0  0  0  0  0  0
  2  1  1  0
  3  4  1  0
  3  2  1  0
  4  5  1  0
  5  6  1  6
  7  5  1  0
  7  9  1  0
  8  7  2  0
 10  9  1  0
 10 11  1  1
 11 12  1  0
 13 12  1  0
 14 13  1  0
 15 14  1  0
 16 10  1  0
 17 16  2  0
 19 18  1  0
 19 20  1  0
 20 22  1  0
 20 21  1  6
 22 23  1  1
 22 24  1  0
 23 16  1  0
 24 25  1  0
 26 24  2  0
M  END
$$$$
