MKI.pdb
     RDKit          3D

 26 25  0  0  1  0  0  0  0  0999 V2000
   32.3959  -21.7004   -9.9927 C   0  0  0  0  0  0  0  0  0  0  0  0
   32.8227  -22.3759  -11.6220 S   0  0  0  0  0  0  0  0  0  0  0  0
   31.4721  -22.0402  -12.7586 C   0  0  0  0  0  0  0  0  0  0  0  0
   30.3791  -21.2807  -12.0399 C   0  0  0  0  0  0  0  0  0  0  0  0
   29.2704  -21.0117  -13.0045 C   0  0  2  0  0  0  0  0  0  0  0  0
   29.7496  -20.2200  -14.0923 N   0  0  0  0  0  0  0  0  0  0  0  0
   28.1114  -20.3111  -12.3533 C   0  0  0  0  0  0  0  0  0  0  0  0
   28.1926  -19.0684  -12.1214 O   0  0  0  0  0  0  0  0  0  0  0  0
   26.9610  -21.0160  -12.0068 N   0  0  0  0  0  0  0  0  0  0  0  0
   25.9556  -20.6993  -11.0191 C   0  0  1  0  0  0  0  0  0  0  0  0
   24.5300  -20.9306  -11.4851 C   0  0  0  0  0  0  0  0  0  0  0  0
   24.2033  -19.9307  -12.5472 C   0  0  0  0  0  0  0  0  0  0  0  0
   24.4748  -20.4275  -13.9510 C   0  0  0  0  0  0  0  0  0  0  0  0
   24.1143  -19.3028  -14.9006 C   0  0  0  0  0  0  0  0  0  0  0  0
   24.3685  -19.7559  -16.2647 N   0  0  0  0  0  0  0  0  0  0  0  0
   26.2523  -21.1634   -9.6701 C   0  0  0  0  0  0  0  0  0  0  0  0
   26.4994  -22.4000   -9.4174 O   0  0  0  0  0  0  0  0  0  0  0  0
   28.9918  -19.9960   -4.4105 C   0  0  0  0  0  0  0  0  0  0  0  0
   27.8368  -20.6043   -5.1503 C   0  0  0  0  0  0  0  0  0  0  0  0
   27.6610  -19.9982   -6.5317 C   0  0  2  0  0  0  0  0  0  0  0  0
   27.3038  -18.5225   -6.3898 C   0  0  0  0  0  0  0  0  0  0  0  0
   26.5231  -20.7091   -7.2046 C   0  0  2  0  0  0  0  0  0  0  0  0
   26.2896  -20.2900   -8.5511 N   0  0  0  0  0  0  0  0  0  0  0  0
   25.2652  -20.7147   -6.3746 C   0  0  0  0  0  0  0  0  0  0  0  0
   25.1832  -21.3807   -5.1688 O   0  0  0  0  0  0  0  0  0  0  0  0
   24.2285  -20.1077   -6.7440 O   0  0  0  0  0  0  0  0  0  0  0  0
  2  1  1  0
  3  4  1  0
  3  2  1  0
  4  5  1  0
  5  6  1  6
  7  5  1  0
  7  9  1  0
  8  7  2  0
 10  9  1  0
 10 11  1  6
 11 12  1  0
 13 12  1  0
 14 13  1  0
 15 14  1  0
 16 10  1  0
 17 16  2  0
 19 18  1  0
 19 20  1  0
 20 22  1  0
 20 21  1  1
 22 23  1  6
 22 24  1  0
 23 16  1  0
 24 25  1  0
 26 24  2  0
M  END
$$$$
