MKI.pdb
     RDKit          3D

 26 25  0  0  1  0  0  0  0  0999 V2000
   13.4420  -16.7535  -14.9152 C   0  0  0  0  0  0  0  0  0  0  0  0
   14.7889  -15.6061  -14.5120 S   0  0  0  0  0  0  0  0  0  0  0  0
   15.8546  -15.4383  -15.9489 C   0  0  0  0  0  0  0  0  0  0  0  0
   16.8902  -14.3662  -15.6921 C   0  0  0  0  0  0  0  0  0  0  0  0
   17.7857  -14.2713  -16.8842 C   0  0  2  0  0  0  0  0  0  0  0  0
   18.7065  -15.3629  -16.8927 N   0  0  0  0  0  0  0  0  0  0  0  0
   18.5491  -12.9773  -16.9167 C   0  0  0  0  0  0  0  0  0  0  0  0
   19.7832  -12.9815  -16.6313 O   0  0  0  0  0  0  0  0  0  0  0  0
   17.9110  -11.7863  -17.2553 N   0  0  0  0  0  0  0  0  0  0  0  0
   18.4724  -10.4691  -17.4469 C   0  0  1  0  0  0  0  0  0  0  0  0
   17.6274   -9.5518  -18.3116 C   0  0  0  0  0  0  0  0  0  0  0  0
   17.5558  -10.1230  -19.6912 C   0  0  0  0  0  0  0  0  0  0  0  0
   16.7856   -9.2580  -20.6658 C   0  0  0  0  0  0  0  0  0  0  0  0
   16.7406  -10.0025  -21.9850 C   0  0  0  0  0  0  0  0  0  0  0  0
   16.0610   -9.1593  -22.9637 N   0  0  0  0  0  0  0  0  0  0  0  0
   19.0258   -9.8567  -16.2462 C   0  0  0  0  0  0  0  0  0  0  0  0
   18.4042   -9.8880  -15.1207 O   0  0  0  0  0  0  0  0  0  0  0  0
   23.6046  -11.1515  -14.5539 C   0  0  0  0  0  0  0  0  0  0  0  0
   22.2385  -10.5737  -14.7804 C   0  0  0  0  0  0  0  0  0  0  0  0
   22.2533   -9.0550  -14.7763 C   0  0  2  0  0  0  0  0  0  0  0  0
   22.6483   -8.5613  -13.3886 C   0  0  0  0  0  0  0  0  0  0  0  0
   20.8623   -8.5805  -15.0812 C   0  0  2  0  0  0  0  0  0  0  0  0
   20.2794   -9.1896  -16.2355 N   0  0  0  0  0  0  0  0  0  0  0  0
   20.7489   -7.0778  -15.1010 C   0  0  0  0  0  0  0  0  0  0  0  0
   20.5673   -6.3392  -13.9496 O   0  0  0  0  0  0  0  0  0  0  0  0
   20.8170   -6.4253  -16.1730 O   0  0  0  0  0  0  0  0  0  0  0  0
  2  1  1  0
  3  4  1  0
  3  2  1  0
  4  5  1  0
  5  6  1  1
  7  5  1  0
  7  9  1  0
  8  7  2  0
 10  9  1  0
 10 11  1  1
 11 12  1  0
 13 12  1  0
 14 13  1  0
 15 14  1  0
 16 10  1  0
 17 16  2  0
 19 18  1  0
 19 20  1  0
 20 22  1  0
 20 21  1  1
 22 23  1  6
 22 24  1  0
 23 16  1  0
 24 25  1  0
 26 24  2  0
M  END
$$$$
