MKI.pdb
     RDKit          3D

 26 25  0  0  1  0  0  0  0  0999 V2000
   20.3597  -17.4810  -11.7556 C   0  0  0  0  0  0  0  0  0  0  0  0
   19.4004  -16.7856  -13.1301 S   0  0  0  0  0  0  0  0  0  0  0  0
   20.3805  -16.8948  -14.6321 C   0  0  0  0  0  0  0  0  0  0  0  0
   21.5070  -17.8845  -14.4339 C   0  0  0  0  0  0  0  0  0  0  0  0
   22.3338  -17.9229  -15.6778 C   0  0  2  0  0  0  0  0  0  0  0  0
   21.5347  -18.3451  -16.7836 N   0  0  0  0  0  0  0  0  0  0  0  0
   23.5175  -18.8387  -15.5422 C   0  0  0  0  0  0  0  0  0  0  0  0
   23.3223  -20.0791  -15.3756 O   0  0  0  0  0  0  0  0  0  0  0  0
   24.8144  -18.3336  -15.5977 N   0  0  0  0  0  0  0  0  0  0  0  0
   26.0700  -19.0055  -15.3552 C   0  0  1  0  0  0  0  0  0  0  0  0
   27.2696  -18.3354  -15.9993 C   0  0  0  0  0  0  0  0  0  0  0  0
   28.4262  -19.2817  -15.9621 C   0  0  0  0  0  0  0  0  0  0  0  0
   28.2672  -20.4692  -16.8873 C   0  0  0  0  0  0  0  0  0  0  0  0
   29.5610  -21.2564  -16.8303 C   0  0  0  0  0  0  0  0  0  0  0  0
   29.3985  -22.4633  -17.6350 N   0  0  0  0  0  0  0  0  0  0  0  0
   26.2708  -19.4558  -13.9841 C   0  0  0  0  0  0  0  0  0  0  0  0
   26.7868  -18.6911  -13.0878 O   0  0  0  0  0  0  0  0  0  0  0  0
   25.6919  -20.1871   -8.6320 C   0  0  0  0  0  0  0  0  0  0  0  0
   26.1923  -20.9592   -9.8173 C   0  0  0  0  0  0  0  0  0  0  0  0
   25.6607  -20.4027  -11.1266 C   0  0  2  0  0  0  0  0  0  0  0  0
   24.1371  -20.4650  -11.1159 C   0  0  0  0  0  0  0  0  0  0  0  0
   26.1729  -21.2722  -12.2378 C   0  0  2  0  0  0  0  0  0  0  0  0
   25.9130  -20.7583  -13.5460 N   0  0  0  0  0  0  0  0  0  0  0  0
   25.7584  -22.7136  -12.0900 C   0  0  0  0  0  0  0  0  0  0  0  0
   24.9527  -23.3452  -13.0153 O   0  0  0  0  0  0  0  0  0  0  0  0
   26.1315  -23.4104  -11.1129 O   0  0  0  0  0  0  0  0  0  0  0  0
  2  1  1  0
  3  4  1  0
  3  2  1  0
  4  5  1  0
  5  6  1  6
  7  5  1  0
  7  9  1  0
  8  7  2  0
 10  9  1  0
 10 11  1  1
 11 12  1  0
 13 12  1  0
 14 13  1  0
 15 14  1  0
 16 10  1  0
 17 16  2  0
 19 18  1  0
 19 20  1  0
 20 22  1  0
 20 21  1  1
 22 23  1  6
 22 24  1  0
 23 16  1  0
 24 25  1  0
 26 24  2  0
M  END
$$$$
