MKI.pdb
     RDKit          3D

 26 25  0  0  1  0  0  0  0  0999 V2000
   27.1564  -19.1768   -4.5730 C   0  0  0  0  0  0  0  0  0  0  0  0
   28.6934  -20.0896   -4.8852 S   0  0  0  0  0  0  0  0  0  0  0  0
   28.5311  -20.9808   -6.4370 C   0  0  0  0  0  0  0  0  0  0  0  0
   27.4359  -20.3545   -7.2714 C   0  0  0  0  0  0  0  0  0  0  0  0
   27.4066  -21.0279   -8.6048 C   0  0  2  0  0  0  0  0  0  0  0  0
   28.7253  -21.0922   -9.1495 N   0  0  0  0  0  0  0  0  0  0  0  0
   26.5023  -20.3219   -9.5754 C   0  0  0  0  0  0  0  0  0  0  0  0
   26.2899  -19.0816   -9.4308 O   0  0  0  0  0  0  0  0  0  0  0  0
   25.9029  -21.0194  -10.6215 N   0  0  0  0  0  0  0  0  0  0  0  0
   25.0453  -20.5298  -11.6758 C   0  0  1  0  0  0  0  0  0  0  0  0
   25.7655  -20.2374  -12.9792 C   0  0  0  0  0  0  0  0  0  0  0  0
   26.3018  -21.5194  -13.5300 C   0  0  0  0  0  0  0  0  0  0  0  0
   27.0841  -21.3466  -14.8144 C   0  0  0  0  0  0  0  0  0  0  0  0
   28.3262  -22.2075  -14.7003 C   0  0  0  0  0  0  0  0  0  0  0  0
   29.1068  -22.0494  -15.9236 N   0  0  0  0  0  0  0  0  0  0  0  0
   23.7756  -21.2319  -11.8106 C   0  0  0  0  0  0  0  0  0  0  0  0
   23.6654  -22.4884  -11.5590 O   0  0  0  0  0  0  0  0  0  0  0  0
   19.3920  -18.9590   -9.9391 C   0  0  0  0  0  0  0  0  0  0  0  0
   20.4788  -19.8431  -10.4765 C   0  0  0  0  0  0  0  0  0  0  0  0
   20.1602  -20.3561  -11.8701 C   0  0  2  0  0  0  0  0  0  0  0  0
   18.8962  -21.2074  -11.8140 C   0  0  0  0  0  0  0  0  0  0  0  0
   21.3052  -21.2184  -12.3157 C   0  0  2  0  0  0  0  0  0  0  0  0
   22.5823  -20.5829  -12.2245 N   0  0  0  0  0  0  0  0  0  0  0  0
   21.0696  -21.8517  -13.6629 C   0  0  0  0  0  0  0  0  0  0  0  0
   20.4487  -23.0763  -13.8008 O   0  0  0  0  0  0  0  0  0  0  0  0
   21.4282  -21.2891  -14.7280 O   0  0  0  0  0  0  0  0  0  0  0  0
  2  1  1  0
  3  4  1  0
  3  2  1  0
  4  5  1  0
  5  6  1  6
  7  5  1  0
  7  9  1  0
  8  7  2  0
 10  9  1  0
 10 11  1  6
 11 12  1  0
 13 12  1  0
 14 13  1  0
 15 14  1  0
 16 10  1  0
 17 16  2  0
 19 18  1  0
 19 20  1  0
 20 22  1  0
 20 21  1  1
 22 23  1  6
 22 24  1  0
 23 16  1  0
 24 25  1  0
 26 24  2  0
M  END
$$$$
