YQM.pdb
     RDKit          3D

 30 30  0  0  1  0  0  0  0  0999 V2000
   24.1193  -15.0068  -20.1236 O   0  0  0  0  0  0  0  0  0  0  0  0
   23.6947  -16.1861  -19.4848 C   0  0  0  0  0  0  0  0  0  0  0  0
   24.4751  -17.3174  -19.5314 C   0  0  0  0  0  0  0  0  0  0  0  0
   24.0332  -18.4797  -18.8888 C   0  0  0  0  0  0  0  0  0  0  0  0
   22.8311  -18.5033  -18.2133 C   0  0  0  0  0  0  0  0  0  0  0  0
   22.3816  -19.7409  -17.5426 C   0  0  0  0  0  0  0  0  0  0  0  0
   23.0992  -19.9632  -16.2251 C   0  0  2  0  0  0  0  0  0  0  0  0
   24.3431  -20.7237  -16.4666 N   0  0  0  0  0  0  0  0  0  0  0  0
   22.2435  -20.6445  -15.2575 C   0  0  0  0  0  0  0  0  0  0  0  0
   22.0516  -21.8972  -15.2106 O   0  0  0  0  0  0  0  0  0  0  0  0
   22.0747  -17.3585  -18.1844 C   0  0  0  0  0  0  0  0  0  0  0  0
   22.4936  -16.1838  -18.8186 C   0  0  0  0  0  0  0  0  0  0  0  0
   21.1853  -18.9152   -9.3192 N   0  0  0  0  0  0  0  0  0  0  0  0
   20.3481  -20.0630   -9.4496 C   0  0  0  0  0  0  0  0  0  0  0  0
   19.8138  -20.5184   -8.4301 O   0  0  0  0  0  0  0  0  0  0  0  0
   20.1707  -20.6383  -10.7681 C   0  0  0  0  0  0  0  0  0  0  0  0
   20.9511  -19.9449  -11.8397 C   0  0  0  0  0  0  0  0  0  0  0  0
   20.7668  -20.4838  -13.2336 C   0  0  2  0  0  0  0  0  0  0  0  0
   21.5400  -19.9059  -14.2568 N   0  0  0  0  0  0  0  0  0  0  0  0
   19.2955  -20.4450  -13.4907 C   0  0  0  0  0  0  0  0  0  0  0  0
   18.6941  -19.3889  -13.1865 O   0  0  0  0  0  0  0  0  0  0  0  0
   15.7189  -25.9251   -9.8274 C   0  0  0  0  0  0  0  0  0  0  0  0
   17.1577  -25.2829  -10.7595 S   0  0  0  0  0  0  0  0  0  0  0  0
   16.7703  -23.7562  -11.5890 C   0  0  0  0  0  0  0  0  0  0  0  0
   17.8194  -23.1407  -12.4240 C   0  0  0  0  0  0  0  0  0  0  0  0
   17.3857  -22.1345  -13.4059 C   0  0  2  0  0  0  0  0  0  0  0  0
   18.5565  -21.4980  -14.0419 N   0  0  0  0  0  0  0  0  0  0  0  0
   16.4276  -21.1119  -13.0467 C   0  0  0  0  0  0  0  0  0  0  0  0
   15.1298  -20.9727  -13.4899 O   0  0  0  0  0  0  0  0  0  0  0  0
   16.7956  -20.1993  -12.2186 O   0  0  0  0  0  0  0  0  0  0  0  0
  2  1  1  0
  3  2  2  0
  4  3  1  0
  5  4  2  0
  5 11  1  0
  6  5  1  0
  7  6  1  0
  7  9  1  0
  7  8  1  6
  9 10  2  0
 11 12  2  0
 12  2  1  0
 13 14  1  0
 14 15  2  0
 16 17  1  0
 16 14  1  0
 18 17  1  1
 19 18  1  0
 19  9  1  0
 20 18  1  0
 20 21  2  0
 23 22  1  0
 23 24  1  0
 24 25  1  0
 26 25  1  1
 26 27  1  0
 26 28  1  0
 27 20  1  0
 28 30  2  0
 28 29  1  0
M  END
$$$$
