YQM.pdb
     RDKit          3D

 30 30  0  0  1  0  0  0  0  0999 V2000
   16.5865  -19.6993  -16.5335 O   0  0  0  0  0  0  0  0  0  0  0  0
   17.7918  -20.1323  -15.9515 C   0  0  0  0  0  0  0  0  0  0  0  0
   17.9184  -21.4267  -15.5049 C   0  0  0  0  0  0  0  0  0  0  0  0
   19.1267  -21.8362  -14.9291 C   0  0  0  0  0  0  0  0  0  0  0  0
   20.1857  -20.9615  -14.8052 C   0  0  0  0  0  0  0  0  0  0  0  0
   21.4525  -21.4129  -14.1929 C   0  0  0  0  0  0  0  0  0  0  0  0
   22.6068  -21.3579  -15.1751 C   0  0  2  0  0  0  0  0  0  0  0  0
   22.3855  -22.3501  -16.2477 N   0  0  0  0  0  0  0  0  0  0  0  0
   23.8877  -21.5777  -14.5089 C   0  0  0  0  0  0  0  0  0  0  0  0
   24.3724  -22.7134  -14.2197 O   0  0  0  0  0  0  0  0  0  0  0  0
   20.0288  -19.6763  -15.2603 C   0  0  0  0  0  0  0  0  0  0  0  0
   18.8317  -19.2419  -15.8396 C   0  0  0  0  0  0  0  0  0  0  0  0
   28.7575  -17.6833  -14.6209 N   0  0  0  0  0  0  0  0  0  0  0  0
   28.4117  -18.6596  -15.6021 C   0  0  0  0  0  0  0  0  0  0  0  0
   28.9500  -18.5896  -16.7145 O   0  0  0  0  0  0  0  0  0  0  0  0
   27.4448  -19.6791  -15.2464 C   0  0  0  0  0  0  0  0  0  0  0  0
   27.0370  -19.6491  -13.8073 C   0  0  0  0  0  0  0  0  0  0  0  0
   25.9247  -20.5892  -13.4245 C   0  0  2  0  0  0  0  0  0  0  0  0
   24.7116  -20.4743  -14.1273 N   0  0  0  0  0  0  0  0  0  0  0  0
   25.7807  -20.4626  -11.9427 C   0  0  0  0  0  0  0  0  0  0  0  0
   25.1249  -19.4832  -11.5181 O   0  0  0  0  0  0  0  0  0  0  0  0
   28.3102  -19.0545   -5.0049 C   0  0  0  0  0  0  0  0  0  0  0  0
   28.6181  -19.4328   -6.7694 S   0  0  0  0  0  0  0  0  0  0  0  0
   27.2265  -20.2563   -7.5137 C   0  0  0  0  0  0  0  0  0  0  0  0
   27.3400  -20.6575   -8.9290 C   0  0  0  0  0  0  0  0  0  0  0  0
   26.1503  -21.2620   -9.5484 C   0  0  2  0  0  0  0  0  0  0  0  0
   26.3234  -21.3556  -11.0119 N   0  0  0  0  0  0  0  0  0  0  0  0
   24.8257  -20.7574   -9.2595 C   0  0  0  0  0  0  0  0  0  0  0  0
   24.3201  -19.5026   -9.5237 O   0  0  0  0  0  0  0  0  0  0  0  0
   23.9894  -21.5443   -8.6803 O   0  0  0  0  0  0  0  0  0  0  0  0
  2  1  1  0
  3  2  2  0
  4  3  1  0
  5  4  2  0
  5 11  1  0
  6  5  1  0
  7  6  1  0
  7  9  1  0
  7  8  1  6
  9 10  2  0
 11 12  2  0
 12  2  1  0
 13 14  1  0
 14 15  2  0
 16 17  1  0
 16 14  1  0
 18 17  1  6
 19 18  1  0
 19  9  1  0
 20 18  1  0
 20 21  2  0
 23 22  1  0
 23 24  1  0
 24 25  1  0
 26 25  1  6
 26 27  1  0
 26 28  1  0
 27 20  1  0
 28 30  2  0
 28 29  1  0
M  END
$$$$
