YQM.pdb
     RDKit          3D

 30 30  0  0  1  0  0  0  0  0999 V2000
   30.8814  -15.4107  -19.3285 O   0  0  0  0  0  0  0  0  0  0  0  0
   29.9856  -15.9292  -18.3757 C   0  0  0  0  0  0  0  0  0  0  0  0
   30.3054  -17.0671  -17.6730 C   0  0  0  0  0  0  0  0  0  0  0  0
   29.3992  -17.5654  -16.7297 C   0  0  0  0  0  0  0  0  0  0  0  0
   28.1962  -16.9320  -16.4984 C   0  0  0  0  0  0  0  0  0  0  0  0
   27.2524  -17.4751  -15.4995 C   0  0  0  0  0  0  0  0  0  0  0  0
   26.8166  -18.8869  -15.8417 C   0  0  2  0  0  0  0  0  0  0  0  0
   26.2103  -18.8997  -17.1893 N   0  0  0  0  0  0  0  0  0  0  0  0
   25.8940  -19.4195  -14.8427 C   0  0  0  0  0  0  0  0  0  0  0  0
   24.7372  -18.9591  -14.6014 O   0  0  0  0  0  0  0  0  0  0  0  0
   27.9056  -15.7985  -17.2153 C   0  0  0  0  0  0  0  0  0  0  0  0
   28.7939  -15.2799  -18.1637 C   0  0  0  0  0  0  0  0  0  0  0  0
   24.3574  -25.1858  -14.2168 N   0  0  0  0  0  0  0  0  0  0  0  0
   23.8571  -24.1594  -15.0722 C   0  0  0  0  0  0  0  0  0  0  0  0
   23.1733  -24.4914  -16.0492 O   0  0  0  0  0  0  0  0  0  0  0  0
   24.1797  -22.7823  -14.7553 C   0  0  0  0  0  0  0  0  0  0  0  0
   24.9940  -22.6239  -13.5103 C   0  0  0  0  0  0  0  0  0  0  0  0
   25.3838  -21.2120  -13.1608 C   0  0  2  0  0  0  0  0  0  0  0  0
   26.2554  -20.5460  -14.0413 N   0  0  0  0  0  0  0  0  0  0  0  0
   25.8723  -21.2652  -11.7497 C   0  0  0  0  0  0  0  0  0  0  0  0
   27.1038  -21.4219  -11.5813 O   0  0  0  0  0  0  0  0  0  0  0  0
   28.2971  -17.8741   -7.4750 C   0  0  0  0  0  0  0  0  0  0  0  0
   28.7165  -19.6430   -7.2597 S   0  0  0  0  0  0  0  0  0  0  0  0
   27.3277  -20.6935   -7.6291 C   0  0  0  0  0  0  0  0  0  0  0  0
   26.7832  -20.6587   -8.9999 C   0  0  0  0  0  0  0  0  0  0  0  0
   25.5026  -21.3466   -9.2268 C   0  0  2  0  0  0  0  0  0  0  0  0
   25.0539  -21.1525  -10.6201 N   0  0  0  0  0  0  0  0  0  0  0  0
   24.3819  -21.1416   -8.3354 C   0  0  0  0  0  0  0  0  0  0  0  0
   24.2876  -21.4751   -7.0013 O   0  0  0  0  0  0  0  0  0  0  0  0
   23.3225  -20.5876   -8.8096 O   0  0  0  0  0  0  0  0  0  0  0  0
  2  1  1  0
  3  2  2  0
  4  3  1  0
  5  4  2  0
  5 11  1  0
  6  5  1  0
  7  6  1  0
  7  9  1  0
  7  8  1  6
  9 10  2  0
 11 12  2  0
 12  2  1  0
 13 14  1  0
 14 15  2  0
 16 17  1  0
 16 14  1  0
 18 17  1  6
 19 18  1  0
 19  9  1  0
 20 18  1  0
 20 21  2  0
 23 22  1  0
 23 24  1  0
 24 25  1  0
 26 25  1  1
 26 27  1  0
 26 28  1  0
 27 20  1  0
 28 30  2  0
 28 29  1  0
M  END
$$$$
