YQM.pdb
     RDKit          3D

 30 30  0  0  1  0  0  0  0  0999 V2000
   17.7933  -24.4273   -9.6206 O   0  0  0  0  0  0  0  0  0  0  0  0
   18.6757  -23.8246  -10.5355 C   0  0  0  0  0  0  0  0  0  0  0  0
   19.2014  -24.5565  -11.5743 C   0  0  0  0  0  0  0  0  0  0  0  0
   20.0774  -23.9365  -12.4728 C   0  0  0  0  0  0  0  0  0  0  0  0
   20.4174  -22.6076  -12.3293 C   0  0  0  0  0  0  0  0  0  0  0  0
   21.3453  -21.9720  -13.2877 C   0  0  0  0  0  0  0  0  0  0  0  0
   20.6054  -21.2329  -14.3862 C   0  0  2  0  0  0  0  0  0  0  0  0
   19.7242  -22.1770  -15.1047 N   0  0  0  0  0  0  0  0  0  0  0  0
   21.5298  -20.5716  -15.3032 C   0  0  0  0  0  0  0  0  0  0  0  0
   21.8662  -21.0147  -16.4428 O   0  0  0  0  0  0  0  0  0  0  0  0
   19.8764  -21.9037  -11.2828 C   0  0  0  0  0  0  0  0  0  0  0  0
   18.9986  -22.4997  -10.3709 C   0  0  0  0  0  0  0  0  0  0  0  0
   22.3384  -16.1726  -18.3123 N   0  0  0  0  0  0  0  0  0  0  0  0
   21.2243  -16.1298  -17.4222 C   0  0  0  0  0  0  0  0  0  0  0  0
   20.1375  -15.7318  -17.8612 O   0  0  0  0  0  0  0  0  0  0  0  0
   21.4245  -16.5501  -16.0495 C   0  0  0  0  0  0  0  0  0  0  0  0
   22.7995  -17.0701  -15.7714 C   0  0  0  0  0  0  0  0  0  0  0  0
   22.9521  -18.5675  -15.8161 C   0  0  2  0  0  0  0  0  0  0  0  0
   22.1371  -19.3256  -14.9560 N   0  0  0  0  0  0  0  0  0  0  0  0
   24.4140  -18.8297  -15.6528 C   0  0  0  0  0  0  0  0  0  0  0  0
   24.8586  -18.8541  -14.4817 O   0  0  0  0  0  0  0  0  0  0  0  0
   25.5869  -25.0738  -17.0279 C   0  0  0  0  0  0  0  0  0  0  0  0
   26.1018  -23.7472  -15.8763 S   0  0  0  0  0  0  0  0  0  0  0  0
   26.0462  -22.1475  -16.6553 C   0  0  0  0  0  0  0  0  0  0  0  0
   26.4920  -20.9822  -15.8679 C   0  0  0  0  0  0  0  0  0  0  0  0
   26.6225  -19.7036  -16.5840 C   0  0  2  0  0  0  0  0  0  0  0  0
   25.3058  -19.0471  -16.7092 N   0  0  0  0  0  0  0  0  0  0  0  0
   27.3103  -19.6315  -17.8546 C   0  0  0  0  0  0  0  0  0  0  0  0
   28.1787  -18.6556  -18.2946 O   0  0  0  0  0  0  0  0  0  0  0  0
   27.1088  -20.5722  -18.7082 O   0  0  0  0  0  0  0  0  0  0  0  0
  2  1  1  0
  3  2  2  0
  4  3  1  0
  5  4  2  0
  5 11  1  0
  6  5  1  0
  7  6  1  0
  7  9  1  0
  7  8  1  6
  9 10  2  0
 11 12  2  0
 12  2  1  0
 13 14  1  0
 14 15  2  0
 16 17  1  0
 16 14  1  0
 18 17  1  1
 19 18  1  0
 19  9  1  0
 20 18  1  0
 20 21  2  0
 23 22  1  0
 23 24  1  0
 24 25  1  0
 26 25  1  6
 26 27  1  0
 26 28  1  0
 27 20  1  0
 28 30  2  0
 28 29  1  0
M  END
$$$$
