YQM.pdb
     RDKit          3D

 30 30  0  0  1  0  0  0  0  0999 V2000
   28.6460  -19.4877   -4.3935 O   0  0  0  0  0  0  0  0  0  0  0  0
   28.1322  -19.5283   -5.7024 C   0  0  0  0  0  0  0  0  0  0  0  0
   28.8282  -18.9485   -6.7370 C   0  0  0  0  0  0  0  0  0  0  0  0
   28.2983  -19.0008   -8.0315 C   0  0  0  0  0  0  0  0  0  0  0  0
   27.0931  -19.6235   -8.2798 C   0  0  0  0  0  0  0  0  0  0  0  0
   26.5499  -19.6665   -9.6534 C   0  0  0  0  0  0  0  0  0  0  0  0
   26.3060  -21.0885  -10.1211 C   0  0  2  0  0  0  0  0  0  0  0  0
   27.5979  -21.7219  -10.4585 N   0  0  0  0  0  0  0  0  0  0  0  0
   25.3863  -21.1290  -11.2548 C   0  0  0  0  0  0  0  0  0  0  0  0
   25.7346  -21.1727  -12.4735 O   0  0  0  0  0  0  0  0  0  0  0  0
   26.4221  -20.1931   -7.2268 C   0  0  0  0  0  0  0  0  0  0  0  0
   26.9299  -20.1546   -5.9237 C   0  0  0  0  0  0  0  0  0  0  0  0
   19.1937  -22.7633  -10.9852 N   0  0  0  0  0  0  0  0  0  0  0  0
   19.3602  -22.3840  -12.3505 C   0  0  0  0  0  0  0  0  0  0  0  0
   18.3803  -22.4563  -13.1033 O   0  0  0  0  0  0  0  0  0  0  0  0
   20.6691  -21.9385  -12.7854 C   0  0  0  0  0  0  0  0  0  0  0  0
   21.6595  -21.7969  -11.6731 C   0  0  0  0  0  0  0  0  0  0  0  0
   23.0164  -21.2783  -12.0696 C   0  0  2  0  0  0  0  0  0  0  0  0
   23.9723  -21.1242  -11.0491 N   0  0  0  0  0  0  0  0  0  0  0  0
   22.7598  -20.0318  -12.8524 C   0  0  0  0  0  0  0  0  0  0  0  0
   22.4852  -18.9984  -12.1996 O   0  0  0  0  0  0  0  0  0  0  0  0
   24.7428  -15.2793  -18.7189 C   0  0  0  0  0  0  0  0  0  0  0  0
   25.0440  -16.7924  -17.7335 S   0  0  0  0  0  0  0  0  0  0  0  0
   23.6567  -17.1773  -16.6865 C   0  0  0  0  0  0  0  0  0  0  0  0
   23.7339  -18.3986  -15.8624 C   0  0  0  0  0  0  0  0  0  0  0  0
   22.5634  -18.7164  -15.0295 C   0  0  2  0  0  0  0  0  0  0  0  0
   22.8060  -19.9459  -14.2485 N   0  0  0  0  0  0  0  0  0  0  0  0
   21.2373  -18.7746  -15.6044 C   0  0  0  0  0  0  0  0  0  0  0  0
   20.6441  -19.8302  -16.2630 O   0  0  0  0  0  0  0  0  0  0  0  0
   20.4908  -17.7310  -15.5155 O   0  0  0  0  0  0  0  0  0  0  0  0
  2  1  1  0
  3  2  2  0
  4  3  1  0
  5  4  2  0
  5 11  1  0
  6  5  1  0
  7  6  1  0
  7  9  1  0
  7  8  1  6
  9 10  2  0
 11 12  2  0
 12  2  1  0
 13 14  1  0
 14 15  2  0
 16 17  1  0
 16 14  1  0
 18 17  1  1
 19 18  1  0
 19  9  1  0
 20 18  1  0
 20 21  2  0
 23 22  1  0
 23 24  1  0
 24 25  1  0
 26 25  1  6
 26 27  1  0
 26 28  1  0
 27 20  1  0
 28 30  2  0
 28 29  1  0
M  END
$$$$
