YQM.pdb
     RDKit          3D

 30 30  0  0  1  0  0  0  0  0999 V2000
   28.4485  -13.4827  -18.5413 O   0  0  0  0  0  0  0  0  0  0  0  0
   27.7351  -14.5129  -17.9022 C   0  0  0  0  0  0  0  0  0  0  0  0
   27.8990  -14.7352  -16.5550 C   0  0  0  0  0  0  0  0  0  0  0  0
   27.1791  -15.7657  -15.9396 C   0  0  0  0  0  0  0  0  0  0  0  0
   26.3121  -16.5563  -16.6645 C   0  0  0  0  0  0  0  0  0  0  0  0
   25.5625  -17.6404  -15.9963 C   0  0  0  0  0  0  0  0  0  0  0  0
   26.4504  -18.8269  -15.6739 C   0  0  2  0  0  0  0  0  0  0  0  0
   26.8764  -19.4764  -16.9311 N   0  0  0  0  0  0  0  0  0  0  0  0
   25.7767  -19.7758  -14.7916 C   0  0  0  0  0  0  0  0  0  0  0  0
   25.1469  -20.8070  -15.1766 O   0  0  0  0  0  0  0  0  0  0  0  0
   26.1699  -16.3099  -18.0070 C   0  0  0  0  0  0  0  0  0  0  0  0
   26.8778  -15.2863  -18.6462 C   0  0  0  0  0  0  0  0  0  0  0  0
   26.3098  -20.4219   -8.4215 N   0  0  0  0  0  0  0  0  0  0  0  0
   25.2287  -21.2909   -8.7557 C   0  0  0  0  0  0  0  0  0  0  0  0
   24.7735  -22.0279   -7.8715 O   0  0  0  0  0  0  0  0  0  0  0  0
   24.7234  -21.2685  -10.1140 C   0  0  0  0  0  0  0  0  0  0  0  0
   25.4924  -20.3695  -11.0298 C   0  0  0  0  0  0  0  0  0  0  0  0
   25.0334  -20.3519  -12.4639 C   0  0  2  0  0  0  0  0  0  0  0  0
   25.7895  -19.5918  -13.3746 N   0  0  0  0  0  0  0  0  0  0  0  0
   23.5865  -19.9817  -12.4206 C   0  0  0  0  0  0  0  0  0  0  0  0
   23.3150  -18.7792  -12.1973 O   0  0  0  0  0  0  0  0  0  0  0  0
   18.3335  -19.3441  -17.4712 C   0  0  0  0  0  0  0  0  0  0  0  0
   19.7570  -20.1548  -16.6541 S   0  0  0  0  0  0  0  0  0  0  0  0
   20.2368  -19.2940  -15.1717 C   0  0  0  0  0  0  0  0  0  0  0  0
   21.4432  -19.7623  -14.4632 C   0  0  0  0  0  0  0  0  0  0  0  0
   21.2340  -20.5420  -13.2332 C   0  0  2  0  0  0  0  0  0  0  0  0
   22.5299  -20.8795  -12.6110 N   0  0  0  0  0  0  0  0  0  0  0  0
   20.3888  -21.7160  -13.2334 C   0  0  0  0  0  0  0  0  0  0  0  0
   19.0330  -21.7847  -12.9945 O   0  0  0  0  0  0  0  0  0  0  0  0
   20.9328  -22.8556  -13.4770 O   0  0  0  0  0  0  0  0  0  0  0  0
  2  1  1  0
  3  2  2  0
  4  3  1  0
  5  4  2  0
  5 11  1  0
  6  5  1  0
  7  6  1  0
  7  9  1  0
  7  8  1  6
  9 10  2  0
 11 12  2  0
 12  2  1  0
 13 14  1  0
 14 15  2  0
 16 17  1  0
 16 14  1  0
 18 17  1  1
 19 18  1  0
 19  9  1  0
 20 18  1  0
 20 21  2  0
 23 22  1  0
 23 24  1  0
 24 25  1  0
 26 25  1  6
 26 27  1  0
 26 28  1  0
 27 20  1  0
 28 30  2  0
 28 29  1  0
M  END
$$$$
