YQM.pdb
     RDKit          3D

 30 30  0  0  1  0  0  0  0  0999 V2000
   21.0239  -11.7084  -19.3775 O   0  0  0  0  0  0  0  0  0  0  0  0
   20.8533  -13.0897  -19.1729 C   0  0  0  0  0  0  0  0  0  0  0  0
   19.7210  -13.5623  -18.5522 C   0  0  0  0  0  0  0  0  0  0  0  0
   19.5720  -14.9406  -18.3590 C   0  0  0  0  0  0  0  0  0  0  0  0
   20.5422  -15.8250  -18.7815 C   0  0  0  0  0  0  0  0  0  0  0  0
   20.3668  -17.2764  -18.5667 C   0  0  0  0  0  0  0  0  0  0  0  0
   21.4372  -17.8471  -17.6562 C   0  0  2  0  0  0  0  0  0  0  0  0
   22.5172  -18.4335  -18.4769 N   0  0  0  0  0  0  0  0  0  0  0  0
   20.8836  -18.8317  -16.7306 C   0  0  0  0  0  0  0  0  0  0  0  0
   20.6018  -20.0320  -17.0275 O   0  0  0  0  0  0  0  0  0  0  0  0
   21.6609  -15.3229  -19.3979 C   0  0  0  0  0  0  0  0  0  0  0  0
   21.8341  -13.9498  -19.6030 C   0  0  0  0  0  0  0  0  0  0  0  0
   20.4225  -18.2945  -10.3273 N   0  0  0  0  0  0  0  0  0  0  0  0
   20.0672  -19.6518  -10.5858 C   0  0  0  0  0  0  0  0  0  0  0  0
   19.8564  -20.3972   -9.6203 O   0  0  0  0  0  0  0  0  0  0  0  0
   19.9762  -20.0879  -11.9651 C   0  0  0  0  0  0  0  0  0  0  0  0
   20.3869  -19.0455  -12.9565 C   0  0  0  0  0  0  0  0  0  0  0  0
   20.1247  -19.3797  -14.4012 C   0  0  2  0  0  0  0  0  0  0  0  0
   20.6162  -18.4862  -15.3701 N   0  0  0  0  0  0  0  0  0  0  0  0
   18.6548  -19.6296  -14.4978 C   0  0  0  0  0  0  0  0  0  0  0  0
   17.9136  -18.6242  -14.5950 O   0  0  0  0  0  0  0  0  0  0  0  0
   12.5690  -23.0620  -17.4346 C   0  0  0  0  0  0  0  0  0  0  0  0
   14.3254  -22.5494  -17.3775 S   0  0  0  0  0  0  0  0  0  0  0  0
   15.0131  -22.7536  -15.7484 C   0  0  0  0  0  0  0  0  0  0  0  0
   16.4077  -22.3239  -15.5307 C   0  0  0  0  0  0  0  0  0  0  0  0
   16.6180  -21.1573  -14.6592 C   0  0  2  0  0  0  0  0  0  0  0  0
   18.0612  -20.8969  -14.4871 N   0  0  0  0  0  0  0  0  0  0  0  0
   15.9633  -21.0645  -13.3726 C   0  0  0  0  0  0  0  0  0  0  0  0
   14.6190  -20.9019  -13.1150 O   0  0  0  0  0  0  0  0  0  0  0  0
   16.6915  -21.1324  -12.3147 O   0  0  0  0  0  0  0  0  0  0  0  0
  2  1  1  0
  3  2  2  0
  4  3  1  0
  5  4  2  0
  5 11  1  0
  6  5  1  0
  7  6  1  0
  7  9  1  0
  7  8  1  6
  9 10  2  0
 11 12  2  0
 12  2  1  0
 13 14  1  0
 14 15  2  0
 16 17  1  0
 16 14  1  0
 18 17  1  1
 19 18  1  0
 19  9  1  0
 20 18  1  0
 20 21  2  0
 23 22  1  0
 23 24  1  0
 24 25  1  0
 26 25  1  1
 26 27  1  0
 26 28  1  0
 27 20  1  0
 28 30  2  0
 28 29  1  0
M  END
$$$$
