YQM.pdb
     RDKit          3D

 30 30  0  0  1  0  0  0  0  0999 V2000
   29.0336  -19.2602   -4.8847 O   0  0  0  0  0  0  0  0  0  0  0  0
   28.5285  -19.4410   -6.1852 C   0  0  0  0  0  0  0  0  0  0  0  0
   27.2650  -19.0015   -6.5037 C   0  0  0  0  0  0  0  0  0  0  0  0
   26.7826  -19.1917   -7.8038 C   0  0  0  0  0  0  0  0  0  0  0  0
   27.5553  -19.8113   -8.7636 C   0  0  0  0  0  0  0  0  0  0  0  0
   27.0270  -20.0040  -10.1300 C   0  0  0  0  0  0  0  0  0  0  0  0
   26.2396  -21.2942  -10.2555 C   0  0  2  0  0  0  0  0  0  0  0  0
   27.1642  -22.4046  -10.5656 N   0  0  0  0  0  0  0  0  0  0  0  0
   25.1893  -21.1845  -11.2642 C   0  0  0  0  0  0  0  0  0  0  0  0
   25.3226  -21.4838  -12.4894 O   0  0  0  0  0  0  0  0  0  0  0  0
   28.8121  -20.2386   -8.4153 C   0  0  0  0  0  0  0  0  0  0  0  0
   29.3178  -20.0608   -7.1229 C   0  0  0  0  0  0  0  0  0  0  0  0
   19.6822  -22.3965  -10.2932 N   0  0  0  0  0  0  0  0  0  0  0  0
   19.3460  -21.7461  -11.5177 C   0  0  0  0  0  0  0  0  0  0  0  0
   18.3158  -22.0995  -12.1061 O   0  0  0  0  0  0  0  0  0  0  0  0
   20.2306  -20.7093  -12.0110 C   0  0  0  0  0  0  0  0  0  0  0  0
   21.4207  -20.4650  -11.1380 C   0  0  0  0  0  0  0  0  0  0  0  0
   22.7568  -20.7961  -11.7486 C   0  0  2  0  0  0  0  0  0  0  0  0
   23.8863  -20.7139  -10.9142 N   0  0  0  0  0  0  0  0  0  0  0  0
   22.8544  -19.9616  -12.9841 C   0  0  0  0  0  0  0  0  0  0  0  0
   23.0873  -18.7407  -12.8271 O   0  0  0  0  0  0  0  0  0  0  0  0
   26.4207  -21.4657  -17.8881 C   0  0  0  0  0  0  0  0  0  0  0  0
   25.3062  -20.3304  -18.7936 S   0  0  0  0  0  0  0  0  0  0  0  0
   24.0798  -19.6209  -17.7158 C   0  0  0  0  0  0  0  0  0  0  0  0
   23.8139  -20.3004  -16.4335 C   0  0  0  0  0  0  0  0  0  0  0  0
   22.8678  -19.6469  -15.5158 C   0  0  2  0  0  0  0  0  0  0  0  0
   22.7046  -20.4496  -14.2872 N   0  0  0  0  0  0  0  0  0  0  0  0
   21.5660  -19.2150  -15.9757 C   0  0  0  0  0  0  0  0  0  0  0  0
   21.2379  -18.0329  -16.6041 O   0  0  0  0  0  0  0  0  0  0  0  0
   20.5649  -20.0005  -15.7888 O   0  0  0  0  0  0  0  0  0  0  0  0
  2  1  1  0
  3  2  2  0
  4  3  1  0
  5  4  2  0
  5 11  1  0
  6  5  1  0
  7  6  1  0
  7  9  1  0
  7  8  1  6
  9 10  2  0
 11 12  2  0
 12  2  1  0
 13 14  1  0
 14 15  2  0
 16 17  1  0
 16 14  1  0
 18 17  1  1
 19 18  1  0
 19  9  1  0
 20 18  1  0
 20 21  2  0
 23 22  1  0
 23 24  1  0
 24 25  1  0
 26 25  1  6
 26 27  1  0
 26 28  1  0
 27 20  1  0
 28 30  2  0
 28 29  1  0
M  END
$$$$
