YQM.pdb
     RDKit          3D

 30 30  0  0  1  0  0  0  0  0999 V2000
   19.9976  -13.0809  -17.3287 O   0  0  0  0  0  0  0  0  0  0  0  0
   20.6922  -14.1540  -16.7416 C   0  0  0  0  0  0  0  0  0  0  0  0
   22.0670  -14.1529  -16.7087 C   0  0  0  0  0  0  0  0  0  0  0  0
   22.7376  -15.2310  -16.1195 C   0  0  0  0  0  0  0  0  0  0  0  0
   22.0396  -16.2883  -15.5746 C   0  0  0  0  0  0  0  0  0  0  0  0
   22.7663  -17.4178  -14.9586 C   0  0  0  0  0  0  0  0  0  0  0  0
   23.5383  -18.2222  -15.9869 C   0  0  2  0  0  0  0  0  0  0  0  0
   22.5925  -18.8197  -16.9525 N   0  0  0  0  0  0  0  0  0  0  0  0
   24.3649  -19.2468  -15.3546 C   0  0  0  0  0  0  0  0  0  0  0  0
   23.9754  -20.4175  -15.0611 O   0  0  0  0  0  0  0  0  0  0  0  0
   20.6683  -16.2605  -15.6226 C   0  0  0  0  0  0  0  0  0  0  0  0
   19.9740  -15.1951  -16.2058 C   0  0  0  0  0  0  0  0  0  0  0  0
   28.8640  -21.6286  -16.1167 N   0  0  0  0  0  0  0  0  0  0  0  0
   29.2784  -21.7576  -14.7577 C   0  0  0  0  0  0  0  0  0  0  0  0
   29.9288  -22.7603  -14.4353 O   0  0  0  0  0  0  0  0  0  0  0  0
   28.9123  -20.7104  -13.8249 C   0  0  0  0  0  0  0  0  0  0  0  0
   28.0508  -19.6432  -14.4226 C   0  0  0  0  0  0  0  0  0  0  0  0
   26.5656  -19.8697  -14.3197 C   0  0  2  0  0  0  0  0  0  0  0  0
   25.7270  -18.9799  -15.0152 N   0  0  0  0  0  0  0  0  0  0  0  0
   26.2713  -19.9620  -12.8578 C   0  0  0  0  0  0  0  0  0  0  0  0
   26.4107  -18.9151  -12.1838 O   0  0  0  0  0  0  0  0  0  0  0  0
   27.8080  -18.3561   -7.9986 C   0  0  0  0  0  0  0  0  0  0  0  0
   28.1607  -20.1452   -7.8378 S   0  0  0  0  0  0  0  0  0  0  0  0
   27.1533  -21.1117   -8.9422 C   0  0  0  0  0  0  0  0  0  0  0  0
   26.3503  -20.3924   -9.9494 C   0  0  0  0  0  0  0  0  0  0  0  0
   25.4484  -21.2006  -10.7848 C   0  0  2  0  0  0  0  0  0  0  0  0
   25.8554  -21.1265  -12.2023 N   0  0  0  0  0  0  0  0  0  0  0  0
   24.0133  -21.0427  -10.6952 C   0  0  0  0  0  0  0  0  0  0  0  0
   23.2104  -21.2005   -9.5859 O   0  0  0  0  0  0  0  0  0  0  0  0
   23.3702  -20.7212  -11.7617 O   0  0  0  0  0  0  0  0  0  0  0  0
  2  1  1  0
  3  2  2  0
  4  3  1  0
  5  4  2  0
  5 11  1  0
  6  5  1  0
  7  6  1  0
  7  9  1  0
  7  8  1  6
  9 10  2  0
 11 12  2  0
 12  2  1  0
 13 14  1  0
 14 15  2  0
 16 17  1  0
 16 14  1  0
 18 17  1  1
 19 18  1  0
 19  9  1  0
 20 18  1  0
 20 21  2  0
 23 22  1  0
 23 24  1  0
 24 25  1  0
 26 25  1  1
 26 27  1  0
 26 28  1  0
 27 20  1  0
 28 30  2  0
 28 29  1  0
M  END
$$$$
