YQM.pdb
     RDKit          3D

 30 30  0  0  1  0  0  0  0  0999 V2000
   22.1173  -21.5969   -7.0425 O   0  0  0  0  0  0  0  0  0  0  0  0
   22.8973  -21.1406   -8.1206 C   0  0  0  0  0  0  0  0  0  0  0  0
   24.1912  -20.7250   -7.9112 C   0  0  0  0  0  0  0  0  0  0  0  0
   24.9492  -20.2749   -8.9984 C   0  0  0  0  0  0  0  0  0  0  0  0
   24.4163  -20.2436  -10.2700 C   0  0  0  0  0  0  0  0  0  0  0  0
   25.2325  -19.7633  -11.4044 C   0  0  0  0  0  0  0  0  0  0  0  0
   25.4095  -20.8316  -12.4663 C   0  0  2  0  0  0  0  0  0  0  0  0
   26.2646  -21.9137  -11.9354 N   0  0  0  0  0  0  0  0  0  0  0  0
   25.9648  -20.2760  -13.6975 C   0  0  0  0  0  0  0  0  0  0  0  0
   27.1637  -19.8900  -13.8461 O   0  0  0  0  0  0  0  0  0  0  0  0
   23.1223  -20.6649  -10.4472 C   0  0  0  0  0  0  0  0  0  0  0  0
   22.3435  -21.1192   -9.3774 C   0  0  0  0  0  0  0  0  0  0  0  0
   28.6677  -21.7134  -18.1307 N   0  0  0  0  0  0  0  0  0  0  0  0
   27.8905  -22.4745  -17.2076 C   0  0  0  0  0  0  0  0  0  0  0  0
   28.1647  -23.6722  -17.0574 O   0  0  0  0  0  0  0  0  0  0  0  0
   26.8177  -21.8067  -16.4977 C   0  0  0  0  0  0  0  0  0  0  0  0
   26.7297  -20.3397  -16.7775 C   0  0  0  0  0  0  0  0  0  0  0  0
   25.6047  -19.6108  -16.0913 C   0  0  2  0  0  0  0  0  0  0  0  0
   25.1529  -20.1293  -14.8642 N   0  0  0  0  0  0  0  0  0  0  0  0
   24.5307  -19.4655  -17.1198 C   0  0  0  0  0  0  0  0  0  0  0  0
   23.7439  -20.4306  -17.2587 O   0  0  0  0  0  0  0  0  0  0  0  0
   21.4029  -20.5980  -15.5676 C   0  0  0  0  0  0  0  0  0  0  0  0
   20.1612  -19.4088  -16.1962 S   0  0  0  0  0  0  0  0  0  0  0  0
   20.7858  -18.4835  -17.5827 C   0  0  0  0  0  0  0  0  0  0  0  0
   22.0573  -17.7558  -17.4085 C   0  0  0  0  0  0  0  0  0  0  0  0
   23.0556  -17.8907  -18.4808 C   0  0  2  0  0  0  0  0  0  0  0  0
   24.3495  -18.3362  -17.9263 N   0  0  0  0  0  0  0  0  0  0  0  0
   23.2877  -16.8138  -19.4184 C   0  0  0  0  0  0  0  0  0  0  0  0
   22.5237  -16.4604  -20.5099 O   0  0  0  0  0  0  0  0  0  0  0  0
   24.3275  -16.0759  -19.2499 O   0  0  0  0  0  0  0  0  0  0  0  0
  2  1  1  0
  3  2  2  0
  4  3  1  0
  5  4  2  0
  5 11  1  0
  6  5  1  0
  7  6  1  0
  7  9  1  0
  7  8  1  1
  9 10  2  0
 11 12  2  0
 12  2  1  0
 13 14  1  0
 14 15  2  0
 16 17  1  0
 16 14  1  0
 18 17  1  6
 19 18  1  0
 19  9  1  0
 20 18  1  0
 20 21  2  0
 23 22  1  0
 23 24  1  0
 24 25  1  0
 26 25  1  1
 26 27  1  0
 26 28  1  0
 27 20  1  0
 28 30  2  0
 28 29  1  0
M  END
$$$$
