YQM.pdb
     RDKit          3D

 30 30  0  0  1  0  0  0  0  0999 V2000
   14.6870  -15.3719  -18.0062 O   0  0  0  0  0  0  0  0  0  0  0  0
   15.5252  -14.3949  -17.4390 C   0  0  0  0  0  0  0  0  0  0  0  0
   16.5614  -14.7664  -16.6147 C   0  0  0  0  0  0  0  0  0  0  0  0
   17.3829  -13.7776  -16.0612 C   0  0  0  0  0  0  0  0  0  0  0  0
   17.1666  -12.4426  -16.3313 C   0  0  0  0  0  0  0  0  0  0  0  0
   18.0443  -11.4139  -15.7358 C   0  0  0  0  0  0  0  0  0  0  0  0
   19.3527  -11.2801  -16.4911 C   0  0  2  0  0  0  0  0  0  0  0  0
   20.1206  -12.5368  -16.3679 N   0  0  0  0  0  0  0  0  0  0  0  0
   20.1299  -10.1380  -16.0178 C   0  0  0  0  0  0  0  0  0  0  0  0
   21.0917  -10.2033  -15.1937 O   0  0  0  0  0  0  0  0  0  0  0  0
   16.1247  -12.1033  -17.1576 C   0  0  0  0  0  0  0  0  0  0  0  0
   15.2889  -13.0721  -17.7235 C   0  0  0  0  0  0  0  0  0  0  0  0
   24.6248   -7.7184  -17.6479 N   0  0  0  0  0  0  0  0  0  0  0  0
   24.2389   -6.5733  -16.8896 C   0  0  0  0  0  0  0  0  0  0  0  0
   25.0605   -5.6581  -16.7497 O   0  0  0  0  0  0  0  0  0  0  0  0
   22.9068   -6.5436  -16.3190 C   0  0  0  0  0  0  0  0  0  0  0  0
   22.0825   -7.7484  -16.6462 C   0  0  0  0  0  0  0  0  0  0  0  0
   20.6401   -7.6881  -16.2181 C   0  0  2  0  0  0  0  0  0  0  0  0
   19.8415   -8.8165  -16.4785 N   0  0  0  0  0  0  0  0  0  0  0  0
   20.1008   -6.4187  -16.7928 C   0  0  0  0  0  0  0  0  0  0  0  0
   19.9638   -6.3724  -18.0373 O   0  0  0  0  0  0  0  0  0  0  0  0
   14.1958   -4.8576  -17.3516 C   0  0  0  0  0  0  0  0  0  0  0  0
   15.3565   -4.1124  -18.5552 S   0  0  0  0  0  0  0  0  0  0  0  0
   16.8558   -3.5671  -17.7656 C   0  0  0  0  0  0  0  0  0  0  0  0
   17.8222   -4.5963  -17.3371 C   0  0  0  0  0  0  0  0  0  0  0  0
   18.9812   -4.1387  -16.5549 C   0  0  2  0  0  0  0  0  0  0  0  0
   19.7435   -5.2939  -16.0405 N   0  0  0  0  0  0  0  0  0  0  0  0
   18.8245   -3.1654  -15.4962 C   0  0  0  0  0  0  0  0  0  0  0  0
   19.2560   -3.2561  -14.1903 O   0  0  0  0  0  0  0  0  0  0  0  0
   18.2073   -2.0696  -15.7656 O   0  0  0  0  0  0  0  0  0  0  0  0
  2  1  1  0
  3  2  2  0
  4  3  1  0
  5  4  2  0
  5 11  1  0
  6  5  1  0
  7  6  1  0
  7  9  1  0
  7  8  1  1
  9 10  2  0
 11 12  2  0
 12  2  1  0
 13 14  1  0
 14 15  2  0
 16 17  1  0
 16 14  1  0
 18 17  1  6
 19 18  1  0
 19  9  1  0
 20 18  1  0
 20 21  2  0
 23 22  1  0
 23 24  1  0
 24 25  1  0
 26 25  1  1
 26 27  1  0
 26 28  1  0
 27 20  1  0
 28 30  2  0
 28 29  1  0
M  END
$$$$
