YQM.pdb
     RDKit          3D

 30 30  0  0  1  0  0  0  0  0999 V2000
   22.8642  -21.7134   -6.7834 O   0  0  0  0  0  0  0  0  0  0  0  0
   23.4855  -21.4271   -8.0126 C   0  0  0  0  0  0  0  0  0  0  0  0
   22.7373  -20.9917   -9.0810 C   0  0  0  0  0  0  0  0  0  0  0  0
   23.3763  -20.7126  -10.2947 C   0  0  0  0  0  0  0  0  0  0  0  0
   24.7398  -20.8684  -10.4306 C   0  0  0  0  0  0  0  0  0  0  0  0
   25.3952  -20.5700  -11.7209 C   0  0  0  0  0  0  0  0  0  0  0  0
   24.8435  -21.4236  -12.8466 C   0  0  2  0  0  0  0  0  0  0  0  0
   25.0834  -22.8499  -12.5431 N   0  0  0  0  0  0  0  0  0  0  0  0
   25.4245  -21.0529  -14.1340 C   0  0  0  0  0  0  0  0  0  0  0  0
   26.3960  -21.6470  -14.6924 O   0  0  0  0  0  0  0  0  0  0  0  0
   25.4594  -21.3044   -9.3464 C   0  0  0  0  0  0  0  0  0  0  0  0
   24.8449  -21.5902   -8.1224 C   0  0  0  0  0  0  0  0  0  0  0  0
   24.6594  -22.6029  -19.1637 N   0  0  0  0  0  0  0  0  0  0  0  0
   25.3052  -21.4066  -19.5965 C   0  0  0  0  0  0  0  0  0  0  0  0
   25.6505  -21.3222  -20.7822 O   0  0  0  0  0  0  0  0  0  0  0  0
   25.5272  -20.3548  -18.6241 C   0  0  0  0  0  0  0  0  0  0  0  0
   25.0515  -20.6950  -17.2471 C   0  0  0  0  0  0  0  0  0  0  0  0
   25.2717  -19.6352  -16.2003 C   0  0  2  0  0  0  0  0  0  0  0  0
   24.9073  -19.9480  -14.8781 N   0  0  0  0  0  0  0  0  0  0  0  0
   24.6203  -18.4003  -16.7322 C   0  0  0  0  0  0  0  0  0  0  0  0
   23.3853  -18.2884  -16.5534 O   0  0  0  0  0  0  0  0  0  0  0  0
   26.3854  -10.9444  -15.6851 C   0  0  0  0  0  0  0  0  0  0  0  0
   26.9032  -12.6970  -15.7916 S   0  0  0  0  0  0  0  0  0  0  0  0
   25.6596  -13.6993  -16.5777 C   0  0  0  0  0  0  0  0  0  0  0  0
   25.9020  -15.1517  -16.6690 C   0  0  0  0  0  0  0  0  0  0  0  0
   24.8995  -15.9513  -17.3903 C   0  0  2  0  0  0  0  0  0  0  0  0
   25.2918  -17.3748  -17.4074 N   0  0  0  0  0  0  0  0  0  0  0  0
   24.4546  -15.5668  -18.7120 C   0  0  0  0  0  0  0  0  0  0  0  0
   23.3210  -14.8607  -19.0530 O   0  0  0  0  0  0  0  0  0  0  0  0
   25.1755  -15.9122  -19.7195 O   0  0  0  0  0  0  0  0  0  0  0  0
  2  1  1  0
  3  2  2  0
  4  3  1  0
  5  4  2  0
  5 11  1  0
  6  5  1  0
  7  6  1  0
  7  9  1  0
  7  8  1  1
  9 10  2  0
 11 12  2  0
 12  2  1  0
 13 14  1  0
 14 15  2  0
 16 17  1  0
 16 14  1  0
 18 17  1  6
 19 18  1  0
 19  9  1  0
 20 18  1  0
 20 21  2  0
 23 22  1  0
 23 24  1  0
 24 25  1  0
 26 25  1  6
 26 27  1  0
 26 28  1  0
 27 20  1  0
 28 30  2  0
 28 29  1  0
M  END
$$$$
