YQM.pdb
     RDKit          3D

 30 30  0  0  1  0  0  0  0  0999 V2000
   13.2820  -15.0726  -17.8171 O   0  0  0  0  0  0  0  0  0  0  0  0
   14.0831  -14.3573  -16.9085 C   0  0  0  0  0  0  0  0  0  0  0  0
   13.7857  -13.0494  -16.6050 C   0  0  0  0  0  0  0  0  0  0  0  0
   14.5963  -12.3567  -15.6983 C   0  0  0  0  0  0  0  0  0  0  0  0
   15.6837  -12.9670  -15.1092 C   0  0  0  0  0  0  0  0  0  0  0  0
   16.5281  -12.2178  -14.1556 C   0  0  0  0  0  0  0  0  0  0  0  0
   17.5405  -11.3396  -14.8655 C   0  0  2  0  0  0  0  0  0  0  0  0
   18.5161  -12.1922  -15.5764 N   0  0  0  0  0  0  0  0  0  0  0  0
   18.2100  -10.4346  -13.9351 C   0  0  0  0  0  0  0  0  0  0  0  0
   19.1553  -10.7610  -13.1552 O   0  0  0  0  0  0  0  0  0  0  0  0
   15.9548  -14.2730  -15.4321 C   0  0  0  0  0  0  0  0  0  0  0  0
   15.1604  -14.9877  -16.3353 C   0  0  0  0  0  0  0  0  0  0  0  0
   21.6018   -5.7945  -14.5706 N   0  0  0  0  0  0  0  0  0  0  0  0
   21.3475   -5.6464  -13.1746 C   0  0  0  0  0  0  0  0  0  0  0  0
   22.0514   -4.8578  -12.5304 O   0  0  0  0  0  0  0  0  0  0  0  0
   20.2815   -6.4304  -12.5830 C   0  0  0  0  0  0  0  0  0  0  0  0
   19.5543   -7.2970  -13.5619 C   0  0  0  0  0  0  0  0  0  0  0  0
   18.4256   -8.1168  -12.9950 C   0  0  2  0  0  0  0  0  0  0  0  0
   17.8234   -9.0619  -13.8452 N   0  0  0  0  0  0  0  0  0  0  0  0
   17.4669   -7.1328  -12.4075 C   0  0  0  0  0  0  0  0  0  0  0  0
   16.4210   -6.9023  -13.0576 O   0  0  0  0  0  0  0  0  0  0  0  0
   12.4602   -7.6980   -7.3766 C   0  0  0  0  0  0  0  0  0  0  0  0
   13.4186   -7.5755   -8.9314 S   0  0  0  0  0  0  0  0  0  0  0  0
   15.1690   -7.6988   -8.6316 C   0  0  0  0  0  0  0  0  0  0  0  0
   16.0730   -7.6396   -9.7961 C   0  0  0  0  0  0  0  0  0  0  0  0
   16.6433   -6.3256  -10.1318 C   0  0  2  0  0  0  0  0  0  0  0  0
   17.6595   -6.4619  -11.1945 N   0  0  0  0  0  0  0  0  0  0  0  0
   17.1536   -5.4520   -9.0979 C   0  0  0  0  0  0  0  0  0  0  0  0
   16.4431   -4.5955   -8.2845 O   0  0  0  0  0  0  0  0  0  0  0  0
   18.4219   -5.4402   -8.8844 O   0  0  0  0  0  0  0  0  0  0  0  0
  2  1  1  0
  3  2  2  0
  4  3  1  0
  5  4  2  0
  5 11  1  0
  6  5  1  0
  7  6  1  0
  7  9  1  0
  7  8  1  1
  9 10  2  0
 11 12  2  0
 12  2  1  0
 13 14  1  0
 14 15  2  0
 16 17  1  0
 16 14  1  0
 18 17  1  6
 19 18  1  0
 19  9  1  0
 20 18  1  0
 20 21  2  0
 23 22  1  0
 23 24  1  0
 24 25  1  0
 26 25  1  1
 26 27  1  0
 26 28  1  0
 27 20  1  0
 28 30  2  0
 28 29  1  0
M  END
$$$$
