AIN.pdb
     RDKit          3D

 22 21  0  0  1  0  0  0  0  0999 V2000
    6.2281  -16.6409   21.2677 C   0  0  0  0  0  0  0  0  0  0  0  0
    6.3925  -15.1321   21.3881 C   0  0  2  0  0  0  0  0  0  0  0  0
    6.8714  -14.5893   20.1542 N   0  0  0  0  0  0  0  0  0  0  0  0
    7.3619  -14.8680   22.5028 C   0  0  0  0  0  0  0  0  0  0  0  0
    8.5995  -14.9109   22.2545 O   0  0  0  0  0  0  0  0  0  0  0  0
    5.9881  -11.4849   26.4246 C   0  0  0  0  0  0  0  0  0  0  0  0
    6.8109  -12.2495   25.4029 C   0  0  0  0  0  0  0  0  0  0  0  0
    7.2848  -13.5540   25.9047 C   0  0  2  0  0  0  0  0  0  0  0  0
    8.2295  -13.4426   27.0821 C   0  0  0  0  0  0  0  0  0  0  0  0
    8.0055  -14.3519   24.8473 C   0  0  2  0  0  0  0  0  0  0  0  0
    6.9481  -14.5730   23.8209 N   0  0  0  0  0  0  0  0  0  0  0  0
    8.5448  -15.6354   25.2789 C   0  0  0  0  0  0  0  0  0  0  0  0
    7.7779  -16.5270   25.7528 O   0  0  0  0  0  0  0  0  0  0  0  0
   13.6482  -16.6300   25.1546 N   0  0  0  0  0  0  0  0  0  0  0  0
   12.4704  -16.6263   24.3603 C   0  0  0  0  0  0  0  0  0  0  0  0
   12.3456  -15.7449   23.4951 O   0  0  0  0  0  0  0  0  0  0  0  0
   11.4688  -17.6438   24.5898 C   0  0  0  0  0  0  0  0  0  0  0  0
   10.4003  -17.2970   25.6012 C   0  0  2  0  0  0  0  0  0  0  0  0
    9.9165  -15.9741   25.1982 N   0  0  0  0  0  0  0  0  0  0  0  0
   10.9416  -17.2535   26.9554 C   0  0  0  0  0  0  0  0  0  0  0  0
   11.4322  -18.4491   27.5126 O   0  0  0  0  0  0  0  0  0  0  0  0
   11.0257  -16.2577   27.7038 O   0  0  0  0  0  0  0  0  0  0  0  0
  2  1  1  6
  2  3  1  0
  2  4  1  0
  4  5  2  0
  6  7  1  0
  7  8  1  0
  8 10  1  0
  8  9  1  1
 10 12  1  0
 11  4  1  0
 10 11  1  6
 12 19  1  0
 12 13  2  0
 14 15  1  0
 15 17  1  0
 16 15  2  0
 18 17  1  6
 18 20  1  0
 19 18  1  0
 20 22  2  0
 20 21  1  0
M  END
$$$$
