AIN.pdb
     RDKit          3D

 22 21  0  0  1  0  0  0  0  0999 V2000
    6.6599  -16.3746   21.2013 C   0  0  0  0  0  0  0  0  0  0  0  0
    6.7541  -14.8619   21.3455 C   0  0  2  0  0  0  0  0  0  0  0  0
    7.3053  -14.2876   20.1568 N   0  0  0  0  0  0  0  0  0  0  0  0
    7.6229  -14.5719   22.5343 C   0  0  0  0  0  0  0  0  0  0  0  0
    8.8696  -14.4640   22.3638 O   0  0  0  0  0  0  0  0  0  0  0  0
    6.0142  -11.3787   26.4642 C   0  0  0  0  0  0  0  0  0  0  0  0
    6.8886  -12.1383   25.4826 C   0  0  0  0  0  0  0  0  0  0  0  0
    7.2862  -13.4708   25.9768 C   0  0  2  0  0  0  0  0  0  0  0  0
    8.1288  -13.4236   27.2334 C   0  0  0  0  0  0  0  0  0  0  0  0
    8.0757  -14.2527   24.9572 C   0  0  2  0  0  0  0  0  0  0  0  0
    7.1042  -14.4142   23.8389 N   0  0  0  0  0  0  0  0  0  0  0  0
    8.5474  -15.5625   25.3889 C   0  0  0  0  0  0  0  0  0  0  0  0
    7.7237  -16.4469   25.7723 O   0  0  0  0  0  0  0  0  0  0  0  0
   12.6544  -16.9499   23.0930 N   0  0  0  0  0  0  0  0  0  0  0  0
   11.6915  -17.6501   23.8679 C   0  0  0  0  0  0  0  0  0  0  0  0
   10.8816  -18.3841   23.2792 O   0  0  0  0  0  0  0  0  0  0  0  0
   11.6924  -17.4811   25.3042 C   0  0  0  0  0  0  0  0  0  0  0  0
   10.3424  -17.2315   25.9367 C   0  0  2  0  0  0  0  0  0  0  0  0
    9.9125  -15.9355   25.4058 N   0  0  0  0  0  0  0  0  0  0  0  0
   10.4359  -17.1830   27.3919 C   0  0  0  0  0  0  0  0  0  0  0  0
   10.6107  -18.3946   28.0863 O   0  0  0  0  0  0  0  0  0  0  0  0
   10.3779  -16.1701   28.1195 O   0  0  0  0  0  0  0  0  0  0  0  0
  2  1  1  6
  2  3  1  0
  2  4  1  0
  4  5  2  0
  6  7  1  0
  7  8  1  0
  8 10  1  0
  8  9  1  1
 10 12  1  0
 11  4  1  0
 10 11  1  6
 12 19  1  0
 12 13  2  0
 14 15  1  0
 15 17  1  0
 16 15  2  0
 18 17  1  6
 18 20  1  0
 19 18  1  0
 20 22  2  0
 20 21  1  0
M  END
$$$$
