AIN.pdb
     RDKit          3D

 22 21  0  0  1  0  0  0  0  0999 V2000
    8.1755  -19.1298   17.7328 C   0  0  0  0  0  0  0  0  0  0  0  0
    8.3828  -17.7249   17.1840 C   0  0  2  0  0  0  0  0  0  0  0  0
    9.2446  -17.7646   16.0428 N   0  0  0  0  0  0  0  0  0  0  0  0
    8.9814  -16.8925   18.2798 C   0  0  0  0  0  0  0  0  0  0  0  0
   10.2391  -16.8271   18.3751 O   0  0  0  0  0  0  0  0  0  0  0  0
    6.9352  -12.1770   19.9270 C   0  0  0  0  0  0  0  0  0  0  0  0
    7.9218  -13.2882   19.6148 C   0  0  0  0  0  0  0  0  0  0  0  0
    7.9485  -14.3418   20.6477 C   0  0  2  0  0  0  0  0  0  0  0  0
    8.3437  -13.8357   22.0184 C   0  0  0  0  0  0  0  0  0  0  0  0
    8.9035  -15.4586   20.3085 C   0  0  2  0  0  0  0  0  0  0  0  0
    8.1961  -16.1776   19.2115 N   0  0  0  0  0  0  0  0  0  0  0  0
    9.2019  -16.3885   21.3904 C   0  0  0  0  0  0  0  0  0  0  0  0
    8.2879  -17.1185   21.8797 O   0  0  0  0  0  0  0  0  0  0  0  0
   13.2383  -18.0698   20.5865 N   0  0  0  0  0  0  0  0  0  0  0  0
   12.3562  -18.6661   21.5269 C   0  0  0  0  0  0  0  0  0  0  0  0
   11.8024  -19.7342   21.2208 O   0  0  0  0  0  0  0  0  0  0  0  0
   12.1391  -18.0089   22.7966 C   0  0  0  0  0  0  0  0  0  0  0  0
   10.7378  -17.4968   23.0398 C   0  0  2  0  0  0  0  0  0  0  0  0
   10.4911  -16.5463   21.9526 N   0  0  0  0  0  0  0  0  0  0  0  0
   10.6295  -16.8331   24.3345 C   0  0  0  0  0  0  0  0  0  0  0  0
   10.7631  -17.6174   25.4955 O   0  0  0  0  0  0  0  0  0  0  0  0
   10.4266  -15.6196   24.5469 O   0  0  0  0  0  0  0  0  0  0  0  0
  2  1  1  1
  2  3  1  0
  2  4  1  0
  4  5  2  0
  6  7  1  0
  7  8  1  0
  8 10  1  0
  8  9  1  1
 10 12  1  0
 11  4  1  0
 10 11  1  6
 12 19  1  0
 12 13  2  0
 14 15  1  0
 15 17  1  0
 16 15  2  0
 18 17  1  6
 18 20  1  0
 19 18  1  0
 20 22  2  0
 20 21  1  0
M  END
$$$$
