AIN.pdb
     RDKit          3D

 22 21  0  0  1  0  0  0  0  0999 V2000
    6.4500  -16.1189   20.8757 C   0  0  0  0  0  0  0  0  0  0  0  0
    6.9119  -14.6756   21.0217 C   0  0  2  0  0  0  0  0  0  0  0  0
    7.7182  -14.3013   19.9008 N   0  0  0  0  0  0  0  0  0  0  0  0
    7.6906  -14.5747   22.3005 C   0  0  0  0  0  0  0  0  0  0  0  0
    8.9335  -14.7980   22.2742 O   0  0  0  0  0  0  0  0  0  0  0  0
    5.7581  -11.2794   26.0906 C   0  0  0  0  0  0  0  0  0  0  0  0
    6.7262  -12.0096   25.1768 C   0  0  0  0  0  0  0  0  0  0  0  0
    7.1220  -13.3329   25.6963 C   0  0  2  0  0  0  0  0  0  0  0  0
    7.8947  -13.2664   26.9962 C   0  0  0  0  0  0  0  0  0  0  0  0
    7.9799  -14.1020   24.7234 C   0  0  2  0  0  0  0  0  0  0  0  0
    7.0913  -14.2399   23.5352 N   0  0  0  0  0  0  0  0  0  0  0  0
    8.4139  -15.4212   25.1658 C   0  0  0  0  0  0  0  0  0  0  0  0
    7.5658  -16.3424   25.3652 O   0  0  0  0  0  0  0  0  0  0  0  0
   11.3918  -19.6328   25.9437 N   0  0  0  0  0  0  0  0  0  0  0  0
   11.9906  -18.7067   25.0482 C   0  0  0  0  0  0  0  0  0  0  0  0
   12.9930  -19.0671   24.4105 O   0  0  0  0  0  0  0  0  0  0  0  0
   11.4123  -17.3879   24.9155 C   0  0  0  0  0  0  0  0  0  0  0  0
   10.1625  -17.1344   25.7272 C   0  0  2  0  0  0  0  0  0  0  0  0
    9.7684  -15.7638   25.3920 N   0  0  0  0  0  0  0  0  0  0  0  0
   10.4214  -17.2572   27.1578 C   0  0  0  0  0  0  0  0  0  0  0  0
   10.3670  -18.5401   27.7342 O   0  0  0  0  0  0  0  0  0  0  0  0
   10.6930  -16.3383   27.9582 O   0  0  0  0  0  0  0  0  0  0  0  0
  2  1  1  6
  2  3  1  0
  2  4  1  0
  4  5  2  0
  6  7  1  0
  7  8  1  0
  8 10  1  0
  8  9  1  1
 10 12  1  0
 11  4  1  0
 10 11  1  6
 12 19  1  0
 12 13  2  0
 14 15  1  0
 15 17  1  0
 16 15  2  0
 18 17  1  6
 18 20  1  0
 19 18  1  0
 20 22  2  0
 20 21  1  0
M  END
$$$$
