AIN.pdb
     RDKit          3D

 22 21  0  0  1  0  0  0  0  0999 V2000
    6.2756  -16.4082   21.2416 C   0  0  0  0  0  0  0  0  0  0  0  0
    6.5425  -14.9140   21.3603 C   0  0  2  0  0  0  0  0  0  0  0  0
    7.1227  -14.4200   20.1495 N   0  0  0  0  0  0  0  0  0  0  0  0
    7.4697  -14.7088   22.5223 C   0  0  0  0  0  0  0  0  0  0  0  0
    8.7157  -14.7485   22.3198 O   0  0  0  0  0  0  0  0  0  0  0  0
    5.9309  -11.2784   26.2285 C   0  0  0  0  0  0  0  0  0  0  0  0
    6.7906  -12.0955   25.2806 C   0  0  0  0  0  0  0  0  0  0  0  0
    7.2708  -13.3558   25.8798 C   0  0  2  0  0  0  0  0  0  0  0  0
    8.1892  -13.1509   27.0654 C   0  0  0  0  0  0  0  0  0  0  0  0
    8.0238  -14.2135   24.8941 C   0  0  2  0  0  0  0  0  0  0  0  0
    7.0069  -14.4728   23.8361 N   0  0  0  0  0  0  0  0  0  0  0  0
    8.5270  -15.4802   25.4104 C   0  0  0  0  0  0  0  0  0  0  0  0
    7.7337  -16.3225   25.9288 O   0  0  0  0  0  0  0  0  0  0  0  0
   12.7470  -16.3672   23.2382 N   0  0  0  0  0  0  0  0  0  0  0  0
   11.8044  -17.2581   23.8178 C   0  0  0  0  0  0  0  0  0  0  0  0
   11.0871  -17.9317   23.0609 O   0  0  0  0  0  0  0  0  0  0  0  0
   11.7180  -17.3447   25.2588 C   0  0  0  0  0  0  0  0  0  0  0  0
   10.3363  -17.1670   25.8455 C   0  0  2  0  0  0  0  0  0  0  0  0
    9.8909  -15.8556   25.3675 N   0  0  0  0  0  0  0  0  0  0  0  0
   10.3681  -17.1965   27.3038 C   0  0  0  0  0  0  0  0  0  0  0  0
   10.3806  -18.4509   27.9419 O   0  0  0  0  0  0  0  0  0  0  0  0
   10.3856  -16.2181   28.0792 O   0  0  0  0  0  0  0  0  0  0  0  0
  2  1  1  6
  2  3  1  0
  2  4  1  0
  4  5  2  0
  6  7  1  0
  7  8  1  0
  8 10  1  0
  8  9  1  1
 10 12  1  0
 11  4  1  0
 10 11  1  6
 12 19  1  0
 12 13  2  0
 14 15  1  0
 15 17  1  0
 16 15  2  0
 18 17  1  6
 18 20  1  0
 19 18  1  0
 20 22  2  0
 20 21  1  0
M  END
$$$$
