AIN.pdb
     RDKit          3D

 22 21  0  0  1  0  0  0  0  0999 V2000
    6.5297  -16.4028   21.2861 C   0  0  0  0  0  0  0  0  0  0  0  0
    6.8016  -14.9083   21.3896 C   0  0  2  0  0  0  0  0  0  0  0  0
    7.4540  -14.4437   20.2041 N   0  0  0  0  0  0  0  0  0  0  0  0
    7.6625  -14.6856   22.5983 C   0  0  0  0  0  0  0  0  0  0  0  0
    8.9172  -14.7545   22.4716 O   0  0  0  0  0  0  0  0  0  0  0  0
    6.0392  -11.2660   26.3292 C   0  0  0  0  0  0  0  0  0  0  0  0
    6.9194  -12.0856   25.4025 C   0  0  0  0  0  0  0  0  0  0  0  0
    7.3094  -13.3866   25.9797 C   0  0  2  0  0  0  0  0  0  0  0  0
    8.1631  -13.2653   27.2238 C   0  0  0  0  0  0  0  0  0  0  0  0
    8.0831  -14.2409   25.0073 C   0  0  2  0  0  0  0  0  0  0  0  0
    7.1280  -14.4017   23.8748 N   0  0  0  0  0  0  0  0  0  0  0  0
    8.4865  -15.5530   25.4974 C   0  0  0  0  0  0  0  0  0  0  0  0
    7.6142  -16.3991   25.8586 O   0  0  0  0  0  0  0  0  0  0  0  0
   12.7366  -16.8534   23.4631 N   0  0  0  0  0  0  0  0  0  0  0  0
   11.6709  -17.5677   24.0731 C   0  0  0  0  0  0  0  0  0  0  0  0
   10.8657  -18.1647   23.3406 O   0  0  0  0  0  0  0  0  0  0  0  0
   11.5663  -17.5711   25.5155 C   0  0  0  0  0  0  0  0  0  0  0  0
   10.1863  -17.3096   26.0743 C   0  0  2  0  0  0  0  0  0  0  0  0
    9.8354  -15.9695   25.5973 N   0  0  0  0  0  0  0  0  0  0  0  0
   10.1847  -17.3505   27.5327 C   0  0  0  0  0  0  0  0  0  0  0  0
   10.4679  -16.1614   28.2302 O   0  0  0  0  0  0  0  0  0  0  0  0
    9.9570  -18.3390   28.2606 O   0  0  0  0  0  0  0  0  0  0  0  0
  2  1  1  6
  2  3  1  0
  2  4  1  0
  4  5  2  0
  6  7  1  0
  7  8  1  0
  8 10  1  0
  8  9  1  1
 10 12  1  0
 11  4  1  0
 10 11  1  6
 12 19  1  0
 12 13  2  0
 14 15  1  0
 15 17  1  0
 16 15  2  0
 18 17  1  1
 18 20  1  0
 19 18  1  0
 20 22  2  0
 20 21  1  0
M  END
$$$$
