AIN.pdb
     RDKit          3D

 22 21  0  0  1  0  0  0  0  0999 V2000
    7.0291  -16.8713   21.5137 C   0  0  0  0  0  0  0  0  0  0  0  0
    7.2954  -15.3764   21.6255 C   0  0  2  0  0  0  0  0  0  0  0  0
    8.0214  -14.9190   20.4808 N   0  0  0  0  0  0  0  0  0  0  0  0
    8.0789  -15.1473   22.8847 C   0  0  0  0  0  0  0  0  0  0  0  0
    9.3391  -15.2164   22.8372 O   0  0  0  0  0  0  0  0  0  0  0  0
    6.0509  -11.6169   26.2545 C   0  0  0  0  0  0  0  0  0  0  0  0
    7.0450  -12.4345   25.4489 C   0  0  0  0  0  0  0  0  0  0  0  0
    7.4744  -13.6648   26.1417 C   0  0  2  0  0  0  0  0  0  0  0  0
    8.2460  -13.4031   27.4174 C   0  0  0  0  0  0  0  0  0  0  0  0
    8.3509  -14.5372   25.2787 C   0  0  2  0  0  0  0  0  0  0  0  0
    7.4654  -14.8570   24.1237 N   0  0  0  0  0  0  0  0  0  0  0  0
    8.8181  -15.7730   25.8943 C   0  0  0  0  0  0  0  0  0  0  0  0
    7.9886  -16.6461   26.2905 O   0  0  0  0  0  0  0  0  0  0  0  0
   11.5434  -18.3321   23.9393 N   0  0  0  0  0  0  0  0  0  0  0  0
   12.1977  -17.4298   24.8201 C   0  0  0  0  0  0  0  0  0  0  0  0
   12.9148  -16.5429   24.3299 O   0  0  0  0  0  0  0  0  0  0  0  0
   12.0038  -17.5793   26.2454 C   0  0  0  0  0  0  0  0  0  0  0  0
   10.6016  -17.3218   26.7478 C   0  0  2  0  0  0  0  0  0  0  0  0
   10.1858  -16.0839   26.0835 N   0  0  0  0  0  0  0  0  0  0  0  0
   10.5758  -17.1583   28.1973 C   0  0  0  0  0  0  0  0  0  0  0  0
   10.8084  -18.2928   28.9972 O   0  0  0  0  0  0  0  0  0  0  0  0
   10.3664  -16.1059   28.8355 O   0  0  0  0  0  0  0  0  0  0  0  0
  2  1  1  6
  2  3  1  0
  2  4  1  0
  4  5  2  0
  6  7  1  0
  7  8  1  0
  8 10  1  0
  8  9  1  1
 10 12  1  0
 11  4  1  0
 10 11  1  6
 12 19  1  0
 12 13  2  0
 14 15  1  0
 15 17  1  0
 16 15  2  0
 18 17  1  6
 18 20  1  0
 19 18  1  0
 20 22  2  0
 20 21  1  0
M  END
$$$$
