AIN.pdb
     RDKit          3D

 22 21  0  0  1  0  0  0  0  0999 V2000
    6.5812  -16.1836   20.9856 C   0  0  0  0  0  0  0  0  0  0  0  0
    6.8350  -14.6941   21.1729 C   0  0  2  0  0  0  0  0  0  0  0  0
    7.5190  -14.1644   20.0335 N   0  0  0  0  0  0  0  0  0  0  0  0
    7.6561  -14.5261   22.4177 C   0  0  0  0  0  0  0  0  0  0  0  0
    8.9153  -14.5466   22.3223 O   0  0  0  0  0  0  0  0  0  0  0  0
    5.7659  -11.2952   26.1888 C   0  0  0  0  0  0  0  0  0  0  0  0
    6.6756  -12.0632   25.2464 C   0  0  0  0  0  0  0  0  0  0  0  0
    7.1427  -13.3436   25.8125 C   0  0  2  0  0  0  0  0  0  0  0  0
    7.9554  -13.1845   27.0795 C   0  0  0  0  0  0  0  0  0  0  0  0
    7.9981  -14.1240   24.8465 C   0  0  2  0  0  0  0  0  0  0  0  0
    7.0791  -14.3456   23.6946 N   0  0  0  0  0  0  0  0  0  0  0  0
    8.4936  -15.4063   25.3311 C   0  0  0  0  0  0  0  0  0  0  0  0
    7.6853  -16.2938   25.7392 O   0  0  0  0  0  0  0  0  0  0  0  0
   11.0051  -18.0561   23.1064 N   0  0  0  0  0  0  0  0  0  0  0  0
   11.8480  -17.2084   23.8738 C   0  0  0  0  0  0  0  0  0  0  0  0
   12.6690  -16.4949   23.2754 O   0  0  0  0  0  0  0  0  0  0  0  0
   11.7173  -17.2101   25.3140 C   0  0  0  0  0  0  0  0  0  0  0  0
   10.3100  -17.0626   25.8458 C   0  0  2  0  0  0  0  0  0  0  0  0
    9.8662  -15.7482   25.3749 N   0  0  0  0  0  0  0  0  0  0  0  0
   10.2816  -17.1207   27.3033 C   0  0  0  0  0  0  0  0  0  0  0  0
   10.4013  -15.9141   28.0179 O   0  0  0  0  0  0  0  0  0  0  0  0
   10.1612  -18.1381   28.0168 O   0  0  0  0  0  0  0  0  0  0  0  0
  2  1  1  6
  2  3  1  0
  2  4  1  0
  4  5  2  0
  6  7  1  0
  7  8  1  0
  8 10  1  0
  8  9  1  1
 10 12  1  0
 11  4  1  0
 10 11  1  6
 12 19  1  0
 12 13  2  0
 14 15  1  0
 15 17  1  0
 16 15  2  0
 18 17  1  1
 18 20  1  0
 19 18  1  0
 20 22  2  0
 20 21  1  0
M  END
$$$$
