AIN.pdb
     RDKit          3D

 22 21  0  0  1  0  0  0  0  0999 V2000
    8.0520  -19.2534   18.3227 C   0  0  0  0  0  0  0  0  0  0  0  0
    8.2906  -17.9167   17.6339 C   0  0  2  0  0  0  0  0  0  0  0  0
    9.1725  -18.0874   16.5205 N   0  0  0  0  0  0  0  0  0  0  0  0
    8.8815  -16.9819   18.6482 C   0  0  0  0  0  0  0  0  0  0  0  0
   10.1376  -16.9336   18.7709 O   0  0  0  0  0  0  0  0  0  0  0  0
    6.7230  -12.2186   19.7933 C   0  0  0  0  0  0  0  0  0  0  0  0
    7.7852  -13.2919   19.6353 C   0  0  0  0  0  0  0  0  0  0  0  0
    7.8392  -14.2219   20.7799 C   0  0  2  0  0  0  0  0  0  0  0  0
    8.2756  -13.5661   22.0725 C   0  0  0  0  0  0  0  0  0  0  0  0
    8.7807  -15.3757   20.5423 C   0  0  2  0  0  0  0  0  0  0  0  0
    8.0907  -16.1517   19.4736 N   0  0  0  0  0  0  0  0  0  0  0  0
    9.0294  -16.2381   21.6906 C   0  0  0  0  0  0  0  0  0  0  0  0
    8.2274  -17.1789   21.9722 O   0  0  0  0  0  0  0  0  0  0  0  0
   12.1769  -20.4653   22.5850 N   0  0  0  0  0  0  0  0  0  0  0  0
   11.0576  -19.6086   22.7621 C   0  0  0  0  0  0  0  0  0  0  0  0
   10.0187  -20.0879   23.2441 O   0  0  0  0  0  0  0  0  0  0  0  0
   11.1718  -18.2197   22.3760 C   0  0  0  0  0  0  0  0  0  0  0  0
   10.6252  -17.2161   23.3655 C   0  0  2  0  0  0  0  0  0  0  0  0
   10.1496  -16.0998   22.5445 N   0  0  0  0  0  0  0  0  0  0  0  0
   11.6567  -16.7658   24.2937 C   0  0  0  0  0  0  0  0  0  0  0  0
   11.6211  -17.2543   25.6132 O   0  0  0  0  0  0  0  0  0  0  0  0
   12.5950  -15.9771   24.0561 O   0  0  0  0  0  0  0  0  0  0  0  0
  2  1  1  1
  2  3  1  0
  2  4  1  0
  4  5  2  0
  6  7  1  0
  7  8  1  0
  8 10  1  0
  8  9  1  1
 10 12  1  0
 11  4  1  0
 10 11  1  6
 12 19  1  0
 12 13  2  0
 14 15  1  0
 15 17  1  0
 16 15  2  0
 18 17  1  6
 18 20  1  0
 19 18  1  0
 20 22  2  0
 20 21  1  0
M  END
$$$$
