AIN.pdb
     RDKit          3D

 22 21  0  0  1  0  0  0  0  0999 V2000
    6.6222  -16.1361   21.0103 C   0  0  0  0  0  0  0  0  0  0  0  0
    6.8448  -14.6360   21.1445 C   0  0  2  0  0  0  0  0  0  0  0  0
    7.5193  -14.1332   19.9874 N   0  0  0  0  0  0  0  0  0  0  0  0
    7.6604  -14.4066   22.3831 C   0  0  0  0  0  0  0  0  0  0  0  0
    8.9200  -14.4103   22.2905 O   0  0  0  0  0  0  0  0  0  0  0  0
    5.9690  -11.1385   26.2209 C   0  0  0  0  0  0  0  0  0  0  0  0
    6.8656  -11.9339   25.2889 C   0  0  0  0  0  0  0  0  0  0  0  0
    7.1900  -13.2766   25.8085 C   0  0  2  0  0  0  0  0  0  0  0  0
    7.9824  -13.2515   27.0979 C   0  0  0  0  0  0  0  0  0  0  0  0
    7.9884  -14.0978   24.8274 C   0  0  2  0  0  0  0  0  0  0  0  0
    7.0779  -14.1863   23.6512 N   0  0  0  0  0  0  0  0  0  0  0  0
    8.3494  -15.4391   25.2691 C   0  0  0  0  0  0  0  0  0  0  0  0
    7.4496  -16.2995   25.5092 O   0  0  0  0  0  0  0  0  0  0  0  0
   12.1654  -16.6947   23.0718 N   0  0  0  0  0  0  0  0  0  0  0  0
   11.2492  -17.5387   23.7547 C   0  0  0  0  0  0  0  0  0  0  0  0
   10.4485  -18.2069   23.0811 O   0  0  0  0  0  0  0  0  0  0  0  0
   11.2850  -17.5858   25.1996 C   0  0  0  0  0  0  0  0  0  0  0  0
    9.9940  -17.2292   25.9003 C   0  0  2  0  0  0  0  0  0  0  0  0
    9.6854  -15.8696   25.4503 N   0  0  0  0  0  0  0  0  0  0  0  0
   10.1464  -17.2662   27.3508 C   0  0  0  0  0  0  0  0  0  0  0  0
   10.2912  -18.5212   27.9711 O   0  0  0  0  0  0  0  0  0  0  0  0
   10.1645  -16.2938   28.1337 O   0  0  0  0  0  0  0  0  0  0  0  0
  2  1  1  6
  2  3  1  0
  2  4  1  0
  4  5  2  0
  6  7  1  0
  7  8  1  0
  8 10  1  0
  8  9  1  1
 10 12  1  0
 11  4  1  0
 10 11  1  6
 12 19  1  0
 12 13  2  0
 14 15  1  0
 15 17  1  0
 16 15  2  0
 18 17  1  6
 18 20  1  0
 19 18  1  0
 20 22  2  0
 20 21  1  0
M  END
$$$$
