AIN.pdb
     RDKit          3D

 22 21  0  0  1  0  0  0  0  0999 V2000
    6.7641  -15.3197   20.3949 C   0  0  0  0  0  0  0  0  0  0  0  0
    7.0079  -13.8715   20.7964 C   0  0  2  0  0  0  0  0  0  0  0  0
    7.7769  -13.2049   19.7908 N   0  0  0  0  0  0  0  0  0  0  0  0
    7.7341  -13.8800   22.1096 C   0  0  0  0  0  0  0  0  0  0  0  0
    8.9969  -13.9018   22.1054 O   0  0  0  0  0  0  0  0  0  0  0  0
    5.7721  -11.2781   26.3781 C   0  0  0  0  0  0  0  0  0  0  0  0
    6.7219  -11.8965   25.3678 C   0  0  0  0  0  0  0  0  0  0  0  0
    6.9959  -13.3223   25.6323 C   0  0  2  0  0  0  0  0  0  0  0  0
    7.6533  -13.5738   26.9724 C   0  0  0  0  0  0  0  0  0  0  0  0
    7.8923  -13.9410   24.5893 C   0  0  2  0  0  0  0  0  0  0  0  0
    7.0637  -13.8648   23.3530 N   0  0  0  0  0  0  0  0  0  0  0  0
    8.2857  -15.3236   24.8305 C   0  0  0  0  0  0  0  0  0  0  0  0
    7.4096  -16.2375   24.8981 O   0  0  0  0  0  0  0  0  0  0  0  0
   11.1393  -19.6877   25.2152 N   0  0  0  0  0  0  0  0  0  0  0  0
   11.8626  -18.6580   24.5562 C   0  0  0  0  0  0  0  0  0  0  0  0
   12.9834  -18.9271   24.0949 O   0  0  0  0  0  0  0  0  0  0  0  0
   11.2684  -17.3439   24.4493 C   0  0  0  0  0  0  0  0  0  0  0  0
    9.9735  -17.1456   25.2035 C   0  0  2  0  0  0  0  0  0  0  0  0
    9.6292  -15.7369   24.9951 N   0  0  0  0  0  0  0  0  0  0  0  0
   10.1357  -17.4280   26.6256 C   0  0  0  0  0  0  0  0  0  0  0  0
   10.3543  -16.3443   27.4966 O   0  0  0  0  0  0  0  0  0  0  0  0
   10.1043  -18.5449   27.1826 O   0  0  0  0  0  0  0  0  0  0  0  0
  2  1  1  6
  2  3  1  0
  2  4  1  0
  4  5  2  0
  6  7  1  0
  7  8  1  0
  8 10  1  0
  8  9  1  1
 10 12  1  0
 11  4  1  0
 10 11  1  6
 12 19  1  0
 12 13  2  0
 14 15  1  0
 15 17  1  0
 16 15  2  0
 18 17  1  6
 18 20  1  0
 19 18  1  0
 20 22  2  0
 20 21  1  0
M  END
$$$$
