AIN.pdb
     RDKit          3D

 22 21  0  0  1  0  0  0  0  0999 V2000
    6.5907  -16.2818   20.8729 C   0  0  0  0  0  0  0  0  0  0  0  0
    6.8279  -14.7872   21.0394 C   0  0  2  0  0  0  0  0  0  0  0  0
    7.5009  -14.2647   19.8902 N   0  0  0  0  0  0  0  0  0  0  0  0
    7.6520  -14.5930   22.2784 C   0  0  0  0  0  0  0  0  0  0  0  0
    8.9088  -14.5324   22.1687 O   0  0  0  0  0  0  0  0  0  0  0  0
    5.8681  -11.4798   26.1821 C   0  0  0  0  0  0  0  0  0  0  0  0
    6.7528  -12.2385   25.2090 C   0  0  0  0  0  0  0  0  0  0  0  0
    7.1720  -13.5580   25.7201 C   0  0  2  0  0  0  0  0  0  0  0  0
    7.9829  -13.4831   26.9960 C   0  0  0  0  0  0  0  0  0  0  0  0
    8.0050  -14.3248   24.7240 C   0  0  2  0  0  0  0  0  0  0  0  0
    7.0806  -14.4751   23.5650 N   0  0  0  0  0  0  0  0  0  0  0  0
    8.4632  -15.6385   25.1583 C   0  0  0  0  0  0  0  0  0  0  0  0
    7.6278  -16.5281   25.5023 O   0  0  0  0  0  0  0  0  0  0  0  0
   11.2982  -18.1892   22.8007 N   0  0  0  0  0  0  0  0  0  0  0  0
   11.8783  -17.2808   23.7262 C   0  0  0  0  0  0  0  0  0  0  0  0
   12.5516  -16.3368   23.2827 O   0  0  0  0  0  0  0  0  0  0  0  0
   11.6628  -17.4905   25.1407 C   0  0  0  0  0  0  0  0  0  0  0  0
   10.2328  -17.3617   25.6133 C   0  0  2  0  0  0  0  0  0  0  0  0
    9.8275  -16.0098   25.2203 N   0  0  0  0  0  0  0  0  0  0  0  0
   10.1319  -17.5264   27.0594 C   0  0  0  0  0  0  0  0  0  0  0  0
   10.3634  -16.4016   27.8730 O   0  0  0  0  0  0  0  0  0  0  0  0
    9.8579  -18.5724   27.6835 O   0  0  0  0  0  0  0  0  0  0  0  0
  2  1  1  6
  2  3  1  0
  2  4  1  0
  4  5  2  0
  6  7  1  0
  7  8  1  0
  8 10  1  0
  8  9  1  1
 10 12  1  0
 11  4  1  0
 10 11  1  6
 12 19  1  0
 12 13  2  0
 14 15  1  0
 15 17  1  0
 16 15  2  0
 18 17  1  1
 18 20  1  0
 19 18  1  0
 20 22  2  0
 20 21  1  0
M  END
$$$$
