AIN.pdb
     RDKit          3D

 22 21  0  0  1  0  0  0  0  0999 V2000
    6.7053  -15.8699   20.6173 C   0  0  0  0  0  0  0  0  0  0  0  0
    6.9217  -14.3888   20.8952 C   0  0  2  0  0  0  0  0  0  0  0  0
    7.6568  -13.7894   19.8242 N   0  0  0  0  0  0  0  0  0  0  0  0
    7.6709  -14.2740   22.1904 C   0  0  0  0  0  0  0  0  0  0  0  0
    8.9336  -14.2778   22.1642 O   0  0  0  0  0  0  0  0  0  0  0  0
    5.4971  -11.4595   26.1855 C   0  0  0  0  0  0  0  0  0  0  0  0
    6.5088  -12.0768   25.2365 C   0  0  0  0  0  0  0  0  0  0  0  0
    6.9543  -13.4179   25.6621 C   0  0  2  0  0  0  0  0  0  0  0  0
    7.6870  -13.4202   26.9866 C   0  0  0  0  0  0  0  0  0  0  0  0
    7.8750  -14.0656   24.6587 C   0  0  2  0  0  0  0  0  0  0  0  0
    7.0223  -14.1619   23.4404 N   0  0  0  0  0  0  0  0  0  0  0  0
    8.3709  -15.3891   25.0150 C   0  0  0  0  0  0  0  0  0  0  0  0
    7.5612  -16.3371   25.2458 O   0  0  0  0  0  0  0  0  0  0  0  0
   13.5846  -18.5729   24.7962 N   0  0  0  0  0  0  0  0  0  0  0  0
   12.1682  -18.4979   24.8758 C   0  0  0  0  0  0  0  0  0  0  0  0
   11.5313  -19.5484   25.0547 O   0  0  0  0  0  0  0  0  0  0  0  0
   11.5276  -17.2080   24.7457 C   0  0  0  0  0  0  0  0  0  0  0  0
   10.1927  -17.0648   25.4403 C   0  0  2  0  0  0  0  0  0  0  0  0
    9.7461  -15.7068   25.1199 N   0  0  0  0  0  0  0  0  0  0  0  0
   10.3215  -17.2342   26.8837 C   0  0  0  0  0  0  0  0  0  0  0  0
   10.5735  -16.0917   27.6660 O   0  0  0  0  0  0  0  0  0  0  0  0
   10.2337  -18.2985   27.5304 O   0  0  0  0  0  0  0  0  0  0  0  0
  2  1  1  6
  2  3  1  0
  2  4  1  0
  4  5  2  0
  6  7  1  0
  7  8  1  0
  8 10  1  0
  8  9  1  1
 10 12  1  0
 11  4  1  0
 10 11  1  6
 12 19  1  0
 12 13  2  0
 14 15  1  0
 15 17  1  0
 16 15  2  0
 18 17  1  6
 18 20  1  0
 19 18  1  0
 20 22  2  0
 20 21  1  0
M  END
$$$$
