AIN.pdb
     RDKit          3D

 22 21  0  0  1  0  0  0  0  0999 V2000
    9.2397  -19.3676   18.5932 C   0  0  0  0  0  0  0  0  0  0  0  0
    9.1459  -17.9855   17.9617 C   0  0  2  0  0  0  0  0  0  0  0  0
   10.0197  -17.9002   16.8322 N   0  0  0  0  0  0  0  0  0  0  0  0
    9.5240  -16.9803   19.0098 C   0  0  0  0  0  0  0  0  0  0  0  0
   10.7405  -16.6672   19.1406 O   0  0  0  0  0  0  0  0  0  0  0  0
    6.5784  -12.6263   20.0970 C   0  0  0  0  0  0  0  0  0  0  0  0
    7.7703  -13.5551   19.9483 C   0  0  0  0  0  0  0  0  0  0  0  0
    7.9248  -14.4808   21.0872 C   0  0  2  0  0  0  0  0  0  0  0  0
    8.1474  -13.7805   22.4105 C   0  0  0  0  0  0  0  0  0  0  0  0
    9.0792  -15.4338   20.9040 C   0  0  2  0  0  0  0  0  0  0  0  0
    8.5748  -16.3680   19.8584 N   0  0  0  0  0  0  0  0  0  0  0  0
    9.4719  -16.1891   22.0871 C   0  0  0  0  0  0  0  0  0  0  0  0
    8.7293  -17.1149   22.5331 O   0  0  0  0  0  0  0  0  0  0  0  0
   14.1817  -16.0175   22.4787 N   0  0  0  0  0  0  0  0  0  0  0  0
   13.3117  -16.9585   23.0918 C   0  0  0  0  0  0  0  0  0  0  0  0
   13.2940  -18.1192   22.6515 O   0  0  0  0  0  0  0  0  0  0  0  0
   12.4852  -16.5296   24.1983 C   0  0  0  0  0  0  0  0  0  0  0  0
   10.9959  -16.7106   24.0141 C   0  0  2  0  0  0  0  0  0  0  0  0
   10.6734  -15.9588   22.7987 N   0  0  0  0  0  0  0  0  0  0  0  0
   10.2499  -16.1866   25.1532 C   0  0  0  0  0  0  0  0  0  0  0  0
   10.3338  -16.8782   26.3761 O   0  0  0  0  0  0  0  0  0  0  0  0
    9.5243  -15.1709   25.1786 O   0  0  0  0  0  0  0  0  0  0  0  0
  2  1  1  1
  2  3  1  0
  2  4  1  0
  4  5  2  0
  6  7  1  0
  7  8  1  0
  8 10  1  0
  8  9  1  1
 10 12  1  0
 11  4  1  0
 10 11  1  6
 12 19  1  0
 12 13  2  0
 14 15  1  0
 15 17  1  0
 16 15  2  0
 18 17  1  1
 18 20  1  0
 19 18  1  0
 20 22  2  0
 20 21  1  0
M  END
$$$$
