AIN.pdb
     RDKit          3D

 22 21  0  0  1  0  0  0  0  0999 V2000
    6.7104  -15.0249   20.4615 C   0  0  0  0  0  0  0  0  0  0  0  0
    6.9488  -13.6022   20.9484 C   0  0  2  0  0  0  0  0  0  0  0  0
    7.6690  -12.8584   19.9611 N   0  0  0  0  0  0  0  0  0  0  0  0
    7.7250  -13.6845   22.2301 C   0  0  0  0  0  0  0  0  0  0  0  0
    8.9865  -13.6461   22.1800 O   0  0  0  0  0  0  0  0  0  0  0  0
    6.0189  -11.1812   26.5570 C   0  0  0  0  0  0  0  0  0  0  0  0
    6.8743  -11.8399   25.4894 C   0  0  0  0  0  0  0  0  0  0  0  0
    7.1562  -13.2606   25.7726 C   0  0  2  0  0  0  0  0  0  0  0  0
    7.8947  -13.4832   27.0750 C   0  0  0  0  0  0  0  0  0  0  0  0
    7.9820  -13.9118   24.6918 C   0  0  2  0  0  0  0  0  0  0  0  0
    7.1034  -13.8036   23.4931 N   0  0  0  0  0  0  0  0  0  0  0  0
    8.3333  -15.3084   24.9168 C   0  0  0  0  0  0  0  0  0  0  0  0
    7.4279  -16.1751   25.1076 O   0  0  0  0  0  0  0  0  0  0  0  0
   11.8470  -16.2780   22.4520 N   0  0  0  0  0  0  0  0  0  0  0  0
   11.1853  -17.3656   23.0824 C   0  0  0  0  0  0  0  0  0  0  0  0
   10.5723  -18.1762   22.3693 O   0  0  0  0  0  0  0  0  0  0  0  0
   11.2513  -17.4850   24.5221 C   0  0  0  0  0  0  0  0  0  0  0  0
    9.9709  -17.1804   25.2656 C   0  0  2  0  0  0  0  0  0  0  0  0
    9.6651  -15.7869   24.9320 N   0  0  0  0  0  0  0  0  0  0  0  0
   10.1404  -17.3365   26.7062 C   0  0  0  0  0  0  0  0  0  0  0  0
   10.2103  -18.6415   27.2285 O   0  0  0  0  0  0  0  0  0  0  0  0
   10.2336  -16.4292   27.5588 O   0  0  0  0  0  0  0  0  0  0  0  0
  2  1  1  6
  2  3  1  0
  2  4  1  0
  4  5  2  0
  6  7  1  0
  7  8  1  0
  8 10  1  0
  8  9  1  1
 10 12  1  0
 11  4  1  0
 10 11  1  6
 12 19  1  0
 12 13  2  0
 14 15  1  0
 15 17  1  0
 16 15  2  0
 18 17  1  6
 18 20  1  0
 19 18  1  0
 20 22  2  0
 20 21  1  0
M  END
$$$$
