CKP.pdb
     RDKit          3D

 23 23  0  0  1  0  0  0  0  0999 V2000
   27.1416  -16.8966  -16.9580 N   0  0  0  0  0  0  0  0  0  0  0  0
   26.2197  -16.9407  -15.8503 C   0  0  1  0  0  0  0  0  0  0  0  0
   25.5587  -15.6049  -15.5958 C   0  0  0  0  0  0  0  0  0  0  0  0
   26.7581  -14.5447  -14.7609 S   0  0  0  0  0  0  0  0  0  0  0  0
   25.1927  -17.9898  -16.1406 C   0  0  0  0  0  0  0  0  0  0  0  0
   24.5056  -17.9601  -17.2146 O   0  0  0  0  0  0  0  0  0  0  0  0
   24.9292  -19.0561  -15.2566 N   0  0  0  0  0  0  0  0  0  0  0  0
   23.8565  -20.0630  -15.5392 C   0  0  1  0  0  0  0  0  0  0  0  0
   24.4792  -21.3389  -15.0511 C   0  0  0  0  0  0  0  0  0  0  0  0
   24.0595  -22.6128  -15.6202 C   0  0  0  0  0  0  0  0  0  0  0  0
   23.8357  -23.6314  -14.5176 C   0  0  0  0  0  0  0  0  0  0  0  0
   23.4062  -24.9820  -15.0448 C   0  0  0  0  0  0  0  0  0  0  0  0
   23.2592  -25.8923  -13.8957 N   0  0  0  0  0  0  0  0  0  0  0  0
   22.6890  -19.5936  -14.8101 C   0  0  0  0  0  0  0  0  0  0  0  0
   22.7641  -19.0181  -13.6752 O   0  0  0  0  0  0  0  0  0  0  0  0
   21.3879  -19.7428  -15.3205 N   0  0  0  0  0  0  0  0  0  0  0  0
   20.9967  -20.3851  -16.5890 C   0  0  0  0  0  0  0  0  0  0  0  0
   19.9068  -19.4903  -17.0716 C   0  0  0  0  0  0  0  0  0  0  0  0
   19.3547  -18.7935  -15.8651 C   0  0  0  0  0  0  0  0  0  0  0  0
   20.1458  -19.3691  -14.7048 C   0  0  1  0  0  0  0  0  0  0  0  0
   19.4068  -20.5932  -14.2345 C   0  0  0  0  0  0  0  0  0  0  0  0
   19.8559  -21.8388  -14.6001 O   0  0  0  0  0  0  0  0  0  0  0  0
   18.3945  -20.4817  -13.5185 O   0  0  0  0  0  0  0  0  0  0  0  0
  2  5  1  0
  2  1  1  6
  3  2  1  0
  4  3  1  0
  5  6  2  0
  7  8  1  0
  7  5  1  0
  9 10  1  0
  8  9  1  1
 10 11  1  0
 11 12  1  0
 13 12  1  0
 14 15  2  0
 14  8  1  0
 16 14  1  0
 17 16  1  0
 18 17  1  0
 18 19  1  0
 20 19  1  0
 20 16  1  0
 20 21  1  6
 21 22  1  0
 23 21  2  0
M  END
$$$$
