CKP.pdb
     RDKit          3D

 23 23  0  0  1  0  0  0  0  0999 V2000
   25.4259  -16.0296  -17.8050 N   0  0  0  0  0  0  0  0  0  0  0  0
   25.8258  -17.3642  -17.4340 C   0  0  1  0  0  0  0  0  0  0  0  0
   27.3280  -17.5342  -17.4215 C   0  0  0  0  0  0  0  0  0  0  0  0
   27.9121  -17.4159  -19.1258 S   0  0  0  0  0  0  0  0  0  0  0  0
   25.2504  -17.6649  -16.0857 C   0  0  0  0  0  0  0  0  0  0  0  0
   25.4094  -16.8624  -15.1074 O   0  0  0  0  0  0  0  0  0  0  0  0
   24.5099  -18.8356  -15.8228 N   0  0  0  0  0  0  0  0  0  0  0  0
   24.0554  -19.1823  -14.4380 C   0  0  1  0  0  0  0  0  0  0  0  0
   22.6497  -19.6546  -14.6718 C   0  0  0  0  0  0  0  0  0  0  0  0
   21.8874  -20.2305  -13.5718 C   0  0  0  0  0  0  0  0  0  0  0  0
   20.5305  -20.7000  -14.0633 C   0  0  0  0  0  0  0  0  0  0  0  0
   19.6669  -21.2601  -12.9556 C   0  0  0  0  0  0  0  0  0  0  0  0
   18.3777  -21.6629  -13.5444 N   0  0  0  0  0  0  0  0  0  0  0  0
   25.0015  -20.1794  -13.9629 C   0  0  0  0  0  0  0  0  0  0  0  0
   25.6746  -20.9267  -14.7459 O   0  0  0  0  0  0  0  0  0  0  0  0
   25.2393  -20.3805  -12.5922 N   0  0  0  0  0  0  0  0  0  0  0  0
   24.5925  -19.6849  -11.4642 C   0  0  0  0  0  0  0  0  0  0  0  0
   25.7281  -19.4983  -10.5170 C   0  0  0  0  0  0  0  0  0  0  0  0
   26.7436  -20.5494  -10.8485 C   0  0  0  0  0  0  0  0  0  0  0  0
   26.1077  -21.3432  -11.9750 C   0  0  1  0  0  0  0  0  0  0  0  0
   25.3002  -22.4413  -11.3364 C   0  0  0  0  0  0  0  0  0  0  0  0
   23.9284  -22.3738  -11.3564 O   0  0  0  0  0  0  0  0  0  0  0  0
   25.8684  -23.4063  -10.7925 O   0  0  0  0  0  0  0  0  0  0  0  0
  2  5  1  0
  2  1  1  1
  3  2  1  0
  4  3  1  0
  5  6  2  0
  7  8  1  0
  7  5  1  0
  9 10  1  0
  8  9  1  6
 10 11  1  0
 11 12  1  0
 13 12  1  0
 14 15  2  0
 14  8  1  0
 16 14  1  0
 17 16  1  0
 18 17  1  0
 18 19  1  0
 20 19  1  0
 20 16  1  0
 20 21  1  1
 21 22  1  0
 23 21  2  0
M  END
$$$$
