CKP.pdb
     RDKit          3D

 23 23  0  0  1  0  0  0  0  0999 V2000
   19.8483  -18.3061  -15.5699 N   0  0  0  0  0  0  0  0  0  0  0  0
   20.8755  -18.9218  -16.3728 C   0  0  1  0  0  0  0  0  0  0  0  0
   21.0482  -18.2400  -17.7112 C   0  0  0  0  0  0  0  0  0  0  0  0
   22.1185  -19.2800  -18.7274 S   0  0  0  0  0  0  0  0  0  0  0  0
   22.1546  -18.8906  -15.5967 C   0  0  0  0  0  0  0  0  0  0  0  0
   22.7140  -17.7857  -15.2924 O   0  0  0  0  0  0  0  0  0  0  0  0
   22.8058  -20.0637  -15.1634 N   0  0  0  0  0  0  0  0  0  0  0  0
   24.1639  -20.0200  -14.5324 C   0  0  1  0  0  0  0  0  0  0  0  0
   24.1183  -21.1914  -13.5946 C   0  0  0  0  0  0  0  0  0  0  0  0
   25.0879  -21.2893  -12.5115 C   0  0  0  0  0  0  0  0  0  0  0  0
   24.4933  -20.7473  -11.2247 C   0  0  0  0  0  0  0  0  0  0  0  0
   25.5162  -20.6038  -10.1204 C   0  0  0  0  0  0  0  0  0  0  0  0
   24.8873  -19.8643   -9.0121 N   0  0  0  0  0  0  0  0  0  0  0  0
   25.1032  -20.1140  -15.6387 C   0  0  0  0  0  0  0  0  0  0  0  0
   24.7709  -20.5236  -16.7991 O   0  0  0  0  0  0  0  0  0  0  0  0
   26.4533  -19.7495  -15.4965 N   0  0  0  0  0  0  0  0  0  0  0  0
   27.1338  -19.3154  -14.2624 C   0  0  0  0  0  0  0  0  0  0  0  0
   28.0276  -18.2317  -14.7606 C   0  0  0  0  0  0  0  0  0  0  0  0
   28.2507  -18.4930  -16.2194 C   0  0  0  0  0  0  0  0  0  0  0  0
   27.4884  -19.7769  -16.4913 C   0  0  1  0  0  0  0  0  0  0  0  0
   28.4374  -20.9149  -16.2264 C   0  0  0  0  0  0  0  0  0  0  0  0
   29.4397  -21.1855  -17.1258 O   0  0  0  0  0  0  0  0  0  0  0  0
   28.3179  -21.6088  -15.1997 O   0  0  0  0  0  0  0  0  0  0  0  0
  2  5  1  0
  2  1  1  1
  3  2  1  0
  4  3  1  0
  5  6  2  0
  7  8  1  0
  7  5  1  0
  9 10  1  0
  8  9  1  1
 10 11  1  0
 11 12  1  0
 13 12  1  0
 14 15  2  0
 14  8  1  0
 16 14  1  0
 17 16  1  0
 18 17  1  0
 18 19  1  0
 20 19  1  0
 20 16  1  0
 20 21  1  1
 21 22  1  0
 23 21  2  0
M  END
$$$$
