CKP.pdb
     RDKit          3D

 23 23  0  0  1  0  0  0  0  0999 V2000
   30.0867  -14.0547  -25.0699 N   0  0  0  0  0  0  0  0  0  0  0  0
   30.6310  -12.8390  -24.5181 C   0  0  1  0  0  0  0  0  0  0  0  0
   30.0994  -11.6032  -25.2080 C   0  0  0  0  0  0  0  0  0  0  0  0
   30.9820  -10.1756  -24.5427 S   0  0  0  0  0  0  0  0  0  0  0  0
   30.3095  -12.8060  -23.0569 C   0  0  0  0  0  0  0  0  0  0  0  0
   29.1203  -13.0004  -22.6392 O   0  0  0  0  0  0  0  0  0  0  0  0
   31.2883  -12.5617  -22.0719 N   0  0  0  0  0  0  0  0  0  0  0  0
   30.9371  -12.4908  -20.6172 C   0  0  1  0  0  0  0  0  0  0  0  0
   31.9314  -13.4325  -20.0021 C   0  0  0  0  0  0  0  0  0  0  0  0
   31.7786  -14.8693  -20.1890 C   0  0  0  0  0  0  0  0  0  0  0  0
   32.7870  -15.6191  -19.3380 C   0  0  0  0  0  0  0  0  0  0  0  0
   32.7704  -17.1106  -19.5859 C   0  0  0  0  0  0  0  0  0  0  0  0
   33.7181  -17.7375  -18.6481 N   0  0  0  0  0  0  0  0  0  0  0  0
   31.0693  -11.0874  -20.2594 C   0  0  0  0  0  0  0  0  0  0  0  0
   31.9094  -10.3054  -20.8139 O   0  0  0  0  0  0  0  0  0  0  0  0
   30.2647  -10.4967  -19.2696 N   0  0  0  0  0  0  0  0  0  0  0  0
   29.3178  -11.1778  -18.3675 C   0  0  0  0  0  0  0  0  0  0  0  0
   28.1811  -10.2149  -18.3195 C   0  0  0  0  0  0  0  0  0  0  0  0
   28.7406   -8.8692  -18.6692 C   0  0  0  0  0  0  0  0  0  0  0  0
   30.2247   -9.1195  -18.8651 C   0  0  1  0  0  0  0  0  0  0  0  0
   30.8792   -8.9510  -17.5201 C   0  0  0  0  0  0  0  0  0  0  0  0
   30.9910   -7.6962  -16.9727 O   0  0  0  0  0  0  0  0  0  0  0  0
   31.3178   -9.9403  -16.9045 O   0  0  0  0  0  0  0  0  0  0  0  0
  2  5  1  0
  2  1  1  6
  3  2  1  0
  4  3  1  0
  5  6  2  0
  7  8  1  0
  7  5  1  0
  9 10  1  0
  8  9  1  1
 10 11  1  0
 11 12  1  0
 13 12  1  0
 14 15  2  0
 14  8  1  0
 16 14  1  0
 17 16  1  0
 18 17  1  0
 18 19  1  0
 20 19  1  0
 20 16  1  0
 20 21  1  1
 21 22  1  0
 23 21  2  0
M  END
$$$$
