CKP.pdb
     RDKit          3D

 23 23  0  0  1  0  0  0  0  0999 V2000
   16.6565  -15.0177  -15.7662 N   0  0  0  0  0  0  0  0  0  0  0  0
   16.7134  -13.5937  -15.9843 C   0  0  1  0  0  0  0  0  0  0  0  0
   15.8471  -12.8256  -15.0120 C   0  0  0  0  0  0  0  0  0  0  0  0
   14.1230  -13.2121  -15.3831 S   0  0  0  0  0  0  0  0  0  0  0  0
   18.1418  -13.1620  -15.8718 C   0  0  0  0  0  0  0  0  0  0  0  0
   18.8734  -13.5509  -14.9023 O   0  0  0  0  0  0  0  0  0  0  0  0
   18.7526  -12.3128  -16.8172 N   0  0  0  0  0  0  0  0  0  0  0  0
   20.1630  -11.8363  -16.6485 C   0  0  1  0  0  0  0  0  0  0  0  0
   20.5734  -11.5456  -18.0630 C   0  0  0  0  0  0  0  0  0  0  0  0
   21.9442  -11.1443  -18.3507 C   0  0  0  0  0  0  0  0  0  0  0  0
   22.1141  -10.8859  -19.8365 C   0  0  0  0  0  0  0  0  0  0  0  0
   23.5358  -10.5336  -20.2120 C   0  0  0  0  0  0  0  0  0  0  0  0
   23.6207  -10.4937  -21.6823 N   0  0  0  0  0  0  0  0  0  0  0  0
   20.0766  -10.6937  -15.7529 C   0  0  0  0  0  0  0  0  0  0  0  0
   18.9958  -10.0482  -15.5530 O   0  0  0  0  0  0  0  0  0  0  0  0
   21.1935  -10.2267  -15.0387 N   0  0  0  0  0  0  0  0  0  0  0  0
   22.5800  -10.7204  -15.1307 C   0  0  0  0  0  0  0  0  0  0  0  0
   23.0237  -10.6787  -13.7084 C   0  0  0  0  0  0  0  0  0  0  0  0
   22.1578   -9.6704  -13.0157 C   0  0  0  0  0  0  0  0  0  0  0  0
   21.2591   -9.1308  -14.1132 C   0  0  1  0  0  0  0  0  0  0  0  0
   21.9785   -7.9642  -14.7353 C   0  0  0  0  0  0  0  0  0  0  0  0
   22.5350   -8.0981  -15.9840 O   0  0  0  0  0  0  0  0  0  0  0  0
   22.0708   -6.8829  -14.1252 O   0  0  0  0  0  0  0  0  0  0  0  0
  2  5  1  0
  2  1  1  1
  3  2  1  0
  4  3  1  0
  5  6  2  0
  7  8  1  0
  7  5  1  0
  9 10  1  0
  8  9  1  6
 10 11  1  0
 11 12  1  0
 13 12  1  0
 14 15  2  0
 14  8  1  0
 16 14  1  0
 17 16  1  0
 18 17  1  0
 18 19  1  0
 20 19  1  0
 20 16  1  0
 20 21  1  6
 21 22  1  0
 23 21  2  0
M  END
$$$$
