CKP.pdb
     RDKit          3D

 23 23  0  0  1  0  0  0  0  0999 V2000
   25.0074  -21.3674   -7.6274 N   0  0  0  0  0  0  0  0  0  0  0  0
   25.4573  -20.4039   -8.6011 C   0  0  1  0  0  0  0  0  0  0  0  0
   26.9188  -20.0544   -8.4348 C   0  0  0  0  0  0  0  0  0  0  0  0
   27.0378  -18.7521   -7.1901 S   0  0  0  0  0  0  0  0  0  0  0  0
   25.2017  -20.9654   -9.9644 C   0  0  0  0  0  0  0  0  0  0  0  0
   25.7433  -22.0573  -10.3397 O   0  0  0  0  0  0  0  0  0  0  0  0
   24.3595  -20.3292  -10.8993 N   0  0  0  0  0  0  0  0  0  0  0  0
   24.1191  -20.9078  -12.2602 C   0  0  1  0  0  0  0  0  0  0  0  0
   22.7227  -20.4464  -12.5615 C   0  0  0  0  0  0  0  0  0  0  0  0
   22.1060  -20.7907  -13.8359 C   0  0  0  0  0  0  0  0  0  0  0  0
   21.4848  -22.1734  -13.7614 C   0  0  0  0  0  0  0  0  0  0  0  0
   20.8200  -22.5884  -15.0545 C   0  0  0  0  0  0  0  0  0  0  0  0
   20.1935  -23.9047  -14.8411 N   0  0  0  0  0  0  0  0  0  0  0  0
   25.1747  -20.3636  -13.0996 C   0  0  0  0  0  0  0  0  0  0  0  0
   25.7356  -19.2421  -12.8705 O   0  0  0  0  0  0  0  0  0  0  0  0
   25.6520  -21.0519  -14.2284 N   0  0  0  0  0  0  0  0  0  0  0  0
   25.1553  -22.3314  -14.7677 C   0  0  0  0  0  0  0  0  0  0  0  0
   26.4172  -23.0118  -15.1754 C   0  0  0  0  0  0  0  0  0  0  0  0
   27.4348  -21.9348  -15.4006 C   0  0  0  0  0  0  0  0  0  0  0  0
   26.6773  -20.6443  -15.1473 C   0  0  1  0  0  0  0  0  0  0  0  0
   26.0676  -20.2288  -16.4594 C   0  0  0  0  0  0  0  0  0  0  0  0
   24.7108  -20.3403  -16.6423 O   0  0  0  0  0  0  0  0  0  0  0  0
   26.7852  -19.7864  -17.3755 O   0  0  0  0  0  0  0  0  0  0  0  0
  2  5  1  0
  2  1  1  1
  3  2  1  0
  4  3  1  0
  5  6  2  0
  7  8  1  0
  7  5  1  0
  9 10  1  0
  8  9  1  6
 10 11  1  0
 11 12  1  0
 13 12  1  0
 14 15  2  0
 14  8  1  0
 16 14  1  0
 17 16  1  0
 18 17  1  0
 18 19  1  0
 20 19  1  0
 20 16  1  0
 20 21  1  6
 21 22  1  0
 23 21  2  0
M  END
$$$$
