CKP.pdb
     RDKit          3D

 23 23  0  0  1  0  0  0  0  0999 V2000
   30.4320  -21.4841  -13.8822 N   0  0  0  0  0  0  0  0  0  0  0  0
   29.4251  -20.4543  -13.8162 C   0  0  1  0  0  0  0  0  0  0  0  0
   29.1984  -19.7822  -15.1514 C   0  0  0  0  0  0  0  0  0  0  0  0
   29.5192  -18.0177  -14.9438 S   0  0  0  0  0  0  0  0  0  0  0  0
   28.1578  -21.0734  -13.3161 C   0  0  0  0  0  0  0  0  0  0  0  0
   27.7591  -22.2032  -13.7530 O   0  0  0  0  0  0  0  0  0  0  0  0
   27.3431  -20.4525  -12.3472 N   0  0  0  0  0  0  0  0  0  0  0  0
   25.9645  -20.9540  -12.0429 C   0  0  1  0  0  0  0  0  0  0  0  0
   25.7664  -20.5035  -10.6246 C   0  0  0  0  0  0  0  0  0  0  0  0
   24.5906  -20.9413   -9.8839 C   0  0  0  0  0  0  0  0  0  0  0  0
   23.3263  -20.5149  -10.6072 C   0  0  0  0  0  0  0  0  0  0  0  0
   22.0725  -20.7859   -9.8066 C   0  0  0  0  0  0  0  0  0  0  0  0
   20.9186  -20.3316  -10.6021 N   0  0  0  0  0  0  0  0  0  0  0  0
   25.1045  -20.3400  -13.0421 C   0  0  0  0  0  0  0  0  0  0  0  0
   25.1502  -19.0991  -13.3296 O   0  0  0  0  0  0  0  0  0  0  0  0
   24.1599  -21.0878  -13.7662 N   0  0  0  0  0  0  0  0  0  0  0  0
   23.7681  -22.4907  -13.5358 C   0  0  0  0  0  0  0  0  0  0  0  0
   23.6232  -23.0090  -14.9258 C   0  0  0  0  0  0  0  0  0  0  0  0
   23.3585  -21.8231  -15.8031 C   0  0  0  0  0  0  0  0  0  0  0  0
   23.3184  -20.6481  -14.8433 C   0  0  1  0  0  0  0  0  0  0  0  0
   21.8948  -20.5145  -14.3728 C   0  0  0  0  0  0  0  0  0  0  0  0
   20.9414  -20.0190  -15.2285 O   0  0  0  0  0  0  0  0  0  0  0  0
   21.5795  -20.8499  -13.2161 O   0  0  0  0  0  0  0  0  0  0  0  0
  2  5  1  0
  2  1  1  6
  3  2  1  0
  4  3  1  0
  5  6  2  0
  7  8  1  0
  7  5  1  0
  9 10  1  0
  8  9  1  1
 10 11  1  0
 11 12  1  0
 13 12  1  0
 14 15  2  0
 14  8  1  0
 16 14  1  0
 17 16  1  0
 18 17  1  0
 18 19  1  0
 20 19  1  0
 20 16  1  0
 20 21  1  1
 21 22  1  0
 23 21  2  0
M  END
$$$$
