CKP.pdb
     RDKit          3D

 23 23  0  0  1  0  0  0  0  0999 V2000
   28.5947  -24.9299  -17.2783 N   0  0  0  0  0  0  0  0  0  0  0  0
   27.2474  -24.4608  -17.4867 C   0  0  1  0  0  0  0  0  0  0  0  0
   26.2240  -25.5653  -17.3508 C   0  0  0  0  0  0  0  0  0  0  0  0
   26.3568  -26.2399  -15.6814 S   0  0  0  0  0  0  0  0  0  0  0  0
   26.9771  -23.3680  -16.5006 C   0  0  0  0  0  0  0  0  0  0  0  0
   27.7282  -23.1967  -15.4843 O   0  0  0  0  0  0  0  0  0  0  0  0
   25.8923  -22.4776  -16.6362 N   0  0  0  0  0  0  0  0  0  0  0  0
   25.6719  -21.3560  -15.6677 C   0  0  1  0  0  0  0  0  0  0  0  0
   24.9184  -20.3589  -16.4995 C   0  0  0  0  0  0  0  0  0  0  0  0
   24.2832  -19.2149  -15.8588 C   0  0  0  0  0  0  0  0  0  0  0  0
   23.5078  -18.4048  -16.8814 C   0  0  0  0  0  0  0  0  0  0  0  0
   22.9646  -17.1118  -16.3161 C   0  0  0  0  0  0  0  0  0  0  0  0
   22.3547  -16.3533  -17.4221 N   0  0  0  0  0  0  0  0  0  0  0  0
   24.9469  -21.9482  -14.5546 C   0  0  0  0  0  0  0  0  0  0  0  0
   24.2510  -23.0103  -14.6655 O   0  0  0  0  0  0  0  0  0  0  0  0
   24.9727  -21.3811  -13.2687 N   0  0  0  0  0  0  0  0  0  0  0  0
   25.7050  -20.1744  -12.8416 C   0  0  0  0  0  0  0  0  0  0  0  0
   26.1930  -20.5652  -11.4886 C   0  0  0  0  0  0  0  0  0  0  0  0
   25.2782  -21.6449  -10.9952 C   0  0  0  0  0  0  0  0  0  0  0  0
   24.2499  -21.7994  -12.1007 C   0  0  1  0  0  0  0  0  0  0  0  0
   23.1358  -20.8324  -11.8018 C   0  0  0  0  0  0  0  0  0  0  0  0
   22.2018  -21.1483  -10.8454 O   0  0  0  0  0  0  0  0  0  0  0  0
   23.0579  -19.7519  -12.4153 O   0  0  0  0  0  0  0  0  0  0  0  0
  2  5  1  0
  2  1  1  1
  3  2  1  0
  4  3  1  0
  5  6  2  0
  7  8  1  0
  7  5  1  0
  9 10  1  0
  8  9  1  6
 10 11  1  0
 11 12  1  0
 13 12  1  0
 14 15  2  0
 14  8  1  0
 16 14  1  0
 17 16  1  0
 18 17  1  0
 18 19  1  0
 20 19  1  0
 20 16  1  0
 20 21  1  1
 21 22  1  0
 23 21  2  0
M  END
$$$$
