CKP.pdb
     RDKit          3D

 23 23  0  0  1  0  0  0  0  0999 V2000
   23.8652  -15.2088  -20.8426 N   0  0  0  0  0  0  0  0  0  0  0  0
   23.9083  -15.3272  -19.4063 C   0  0  1  0  0  0  0  0  0  0  0  0
   22.9428  -14.3875  -18.7204 C   0  0  0  0  0  0  0  0  0  0  0  0
   21.2753  -14.8116  -19.2675 S   0  0  0  0  0  0  0  0  0  0  0  0
   23.6056  -16.7480  -19.0469 C   0  0  0  0  0  0  0  0  0  0  0  0
   22.6661  -17.3882  -19.6247 O   0  0  0  0  0  0  0  0  0  0  0  0
   24.3311  -17.4508  -18.0631 N   0  0  0  0  0  0  0  0  0  0  0  0
   24.0159  -18.8757  -17.7239 C   0  0  1  0  0  0  0  0  0  0  0  0
   25.3827  -19.4804  -17.5829 C   0  0  0  0  0  0  0  0  0  0  0  0
   25.5200  -20.8671  -17.1575 C   0  0  0  0  0  0  0  0  0  0  0  0
   26.9860  -21.2556  -17.1009 C   0  0  0  0  0  0  0  0  0  0  0  0
   27.1934  -22.7184  -16.7791 C   0  0  0  0  0  0  0  0  0  0  0  0
   28.6152  -23.0351  -17.0005 N   0  0  0  0  0  0  0  0  0  0  0  0
   23.2096  -18.8121  -16.5152 C   0  0  0  0  0  0  0  0  0  0  0  0
   23.3565  -17.9077  -15.6291 O   0  0  0  0  0  0  0  0  0  0  0  0
   22.2012  -19.7541  -16.2475 N   0  0  0  0  0  0  0  0  0  0  0  0
   21.9549  -21.0221  -16.9588 C   0  0  0  0  0  0  0  0  0  0  0  0
   20.4661  -21.0687  -17.0123 C   0  0  0  0  0  0  0  0  0  0  0  0
   19.9670  -20.2132  -15.8875 C   0  0  0  0  0  0  0  0  0  0  0  0
   21.2283  -19.7353  -15.1916 C   0  0  1  0  0  0  0  0  0  0  0  0
   21.5703  -20.7647  -14.1480 C   0  0  0  0  0  0  0  0  0  0  0  0
   20.9082  -20.7564  -12.9445 O   0  0  0  0  0  0  0  0  0  0  0  0
   22.4472  -21.6200  -14.3704 O   0  0  0  0  0  0  0  0  0  0  0  0
  2  5  1  0
  2  1  1  6
  3  2  1  0
  4  3  1  0
  5  6  2  0
  7  8  1  0
  7  5  1  0
  9 10  1  0
  8  9  1  1
 10 11  1  0
 11 12  1  0
 13 12  1  0
 14 15  2  0
 14  8  1  0
 16 14  1  0
 17 16  1  0
 18 17  1  0
 18 19  1  0
 20 19  1  0
 20 16  1  0
 20 21  1  1
 21 22  1  0
 23 21  2  0
M  END
$$$$
