CKP.pdb
     RDKit          3D

 23 23  0  0  1  0  0  0  0  0999 V2000
   24.8610  -12.5555  -17.7871 N   0  0  0  0  0  0  0  0  0  0  0  0
   24.8128  -11.8962  -16.5058 C   0  0  1  0  0  0  0  0  0  0  0  0
   26.1650  -11.3768  -16.0726 C   0  0  0  0  0  0  0  0  0  0  0  0
   27.2101  -12.8006  -15.6982 S   0  0  0  0  0  0  0  0  0  0  0  0
   23.8226  -10.7777  -16.5946 C   0  0  0  0  0  0  0  0  0  0  0  0
   23.8961   -9.9043  -17.5209 O   0  0  0  0  0  0  0  0  0  0  0  0
   22.7665  -10.6268  -15.6726 N   0  0  0  0  0  0  0  0  0  0  0  0
   21.7889   -9.4963  -15.7771 C   0  0  1  0  0  0  0  0  0  0  0  0
   20.5454  -10.0934  -15.1848 C   0  0  0  0  0  0  0  0  0  0  0  0
   19.7482  -11.0287  -15.9673 C   0  0  0  0  0  0  0  0  0  0  0  0
   18.5365  -11.4785  -15.1718 C   0  0  0  0  0  0  0  0  0  0  0  0
   17.7574  -12.5767  -15.8599 C   0  0  0  0  0  0  0  0  0  0  0  0
   16.7135  -13.0435  -14.9309 N   0  0  0  0  0  0  0  0  0  0  0  0
   22.3932   -8.3983  -15.0395 C   0  0  0  0  0  0  0  0  0  0  0  0
   23.2507   -8.5729  -14.1126 O   0  0  0  0  0  0  0  0  0  0  0  0
   22.0686   -7.0576  -15.3096 N   0  0  0  0  0  0  0  0  0  0  0  0
   21.0040   -6.5608  -16.2009 C   0  0  0  0  0  0  0  0  0  0  0  0
   21.6594   -5.3915  -16.8524 C   0  0  0  0  0  0  0  0  0  0  0  0
   22.7537   -4.9422  -15.9322 C   0  0  0  0  0  0  0  0  0  0  0  0
   22.6458   -5.8733  -14.7385 C   0  0  1  0  0  0  0  0  0  0  0  0
   21.6834   -5.2372  -13.7716 C   0  0  0  0  0  0  0  0  0  0  0  0
   22.1074   -4.2015  -12.9751 O   0  0  0  0  0  0  0  0  0  0  0  0
   20.5096   -5.6443  -13.6913 O   0  0  0  0  0  0  0  0  0  0  0  0
  2  5  1  0
  2  1  1  6
  3  2  1  0
  4  3  1  0
  5  6  2  0
  7  8  1  0
  7  5  1  0
  9 10  1  0
  8  9  1  1
 10 11  1  0
 11 12  1  0
 13 12  1  0
 14 15  2  0
 14  8  1  0
 16 14  1  0
 17 16  1  0
 18 17  1  0
 18 19  1  0
 20 19  1  0
 20 16  1  0
 20 21  1  1
 21 22  1  0
 23 21  2  0
M  END
$$$$
