CKP.pdb
     RDKit          3D

 23 23  0  0  1  0  0  0  0  0999 V2000
   27.3577  -12.5000  -17.8490 N   0  0  0  0  0  0  0  0  0  0  0  0
   26.9593  -11.5892  -16.8048 C   0  0  1  0  0  0  0  0  0  0  0  0
   27.9001  -10.4129  -16.6748 C   0  0  0  0  0  0  0  0  0  0  0  0
   29.4737  -11.0308  -16.0410 S   0  0  0  0  0  0  0  0  0  0  0  0
   25.5688  -11.1216  -17.1002 C   0  0  0  0  0  0  0  0  0  0  0  0
   25.2267  -10.7742  -18.2786 O   0  0  0  0  0  0  0  0  0  0  0  0
   24.5711  -11.0392  -16.1074 N   0  0  0  0  0  0  0  0  0  0  0  0
   23.1678  -10.6309  -16.4370 C   0  0  1  0  0  0  0  0  0  0  0  0
   22.3628  -11.7590  -15.8597 C   0  0  0  0  0  0  0  0  0  0  0  0
   22.2710  -13.0237  -16.5774 C   0  0  0  0  0  0  0  0  0  0  0  0
   21.3429  -13.9758  -15.8457 C   0  0  0  0  0  0  0  0  0  0  0  0
   21.2728  -15.3404  -16.4932 C   0  0  0  0  0  0  0  0  0  0  0  0
   20.4427  -16.2067  -15.6382 N   0  0  0  0  0  0  0  0  0  0  0  0
   22.9922   -9.3278  -15.8157 C   0  0  0  0  0  0  0  0  0  0  0  0
   23.6348   -8.9610  -14.7777 O   0  0  0  0  0  0  0  0  0  0  0  0
   22.0943   -8.3769  -16.3308 N   0  0  0  0  0  0  0  0  0  0  0  0
   21.1628   -8.5514  -17.4606 C   0  0  0  0  0  0  0  0  0  0  0  0
   21.2498   -7.2312  -18.1468 C   0  0  0  0  0  0  0  0  0  0  0  0
   21.7112   -6.2412  -17.1206 C   0  0  0  0  0  0  0  0  0  0  0  0
   21.8296   -7.0524  -15.8434 C   0  0  1  0  0  0  0  0  0  0  0  0
   20.4859   -7.0038  -15.1668 C   0  0  0  0  0  0  0  0  0  0  0  0
   20.1120   -5.8735  -14.4816 O   0  0  0  0  0  0  0  0  0  0  0  0
   19.7153   -7.9799  -15.2255 O   0  0  0  0  0  0  0  0  0  0  0  0
  2  5  1  0
  2  1  1  6
  3  2  1  0
  4  3  1  0
  5  6  2  0
  7  8  1  0
  7  5  1  0
  9 10  1  0
  8  9  1  1
 10 11  1  0
 11 12  1  0
 13 12  1  0
 14 15  2  0
 14  8  1  0
 16 14  1  0
 17 16  1  0
 18 17  1  0
 18 19  1  0
 20 19  1  0
 20 16  1  0
 20 21  1  6
 21 22  1  0
 23 21  2  0
M  END
$$$$
