CKP.pdb
     RDKit          3D

 23 23  0  0  1  0  0  0  0  0999 V2000
   26.6498  -24.1157  -18.6872 N   0  0  0  0  0  0  0  0  0  0  0  0
   26.3076  -24.4332  -17.3231 C   0  0  1  0  0  0  0  0  0  0  0  0
   27.0908  -25.6117  -16.7907 C   0  0  0  0  0  0  0  0  0  0  0  0
   26.4675  -27.1006  -17.5996 S   0  0  0  0  0  0  0  0  0  0  0  0
   26.5522  -23.2168  -16.4864 C   0  0  0  0  0  0  0  0  0  0  0  0
   27.6784  -22.6187  -16.5064 O   0  0  0  0  0  0  0  0  0  0  0  0
   25.5663  -22.6697  -15.6398 N   0  0  0  0  0  0  0  0  0  0  0  0
   25.8300  -21.4461  -14.8165 C   0  0  1  0  0  0  0  0  0  0  0  0
   24.6974  -20.5440  -15.2129 C   0  0  0  0  0  0  0  0  0  0  0  0
   24.5573  -20.1259  -16.6015 C   0  0  0  0  0  0  0  0  0  0  0  0
   23.4032  -19.1502  -16.7416 C   0  0  0  0  0  0  0  0  0  0  0  0
   23.0508  -18.8614  -18.1834 C   0  0  0  0  0  0  0  0  0  0  0  0
   21.9053  -17.9348  -18.1941 N   0  0  0  0  0  0  0  0  0  0  0  0
   25.8368  -21.9069  -13.4371 C   0  0  0  0  0  0  0  0  0  0  0  0
   25.2133  -22.9491  -13.0500 O   0  0  0  0  0  0  0  0  0  0  0  0
   26.5448  -21.2252  -12.4322 N   0  0  0  0  0  0  0  0  0  0  0  0
   27.2983  -19.9653  -12.5716 C   0  0  0  0  0  0  0  0  0  0  0  0
   28.4946  -20.2184  -11.7193 C   0  0  0  0  0  0  0  0  0  0  0  0
   28.1036  -21.2736  -10.7294 C   0  0  0  0  0  0  0  0  0  0  0  0
   26.6447  -21.5556  -11.0385 C   0  0  1  0  0  0  0  0  0  0  0  0
   25.8284  -20.5963  -10.2145 C   0  0  0  0  0  0  0  0  0  0  0  0
   25.2447  -19.5096  -10.8189 O   0  0  0  0  0  0  0  0  0  0  0  0
   25.6809  -20.7830   -8.9924 O   0  0  0  0  0  0  0  0  0  0  0  0
  2  5  1  0
  2  1  1  6
  3  2  1  0
  4  3  1  0
  5  6  2  0
  7  8  1  0
  7  5  1  0
  9 10  1  0
  8  9  1  1
 10 11  1  0
 11 12  1  0
 13 12  1  0
 14 15  2  0
 14  8  1  0
 16 14  1  0
 17 16  1  0
 18 17  1  0
 18 19  1  0
 20 19  1  0
 20 16  1  0
 20 21  1  1
 21 22  1  0
 23 21  2  0
M  END
$$$$
