LEH.pdb
     RDKit          3D

 28 28  0  0  1  0  0  0  0  0999 V2000
    6.0048  -12.1473   24.8394 C   0  0  0  0  0  0  0  0  0  0  0  0
    6.4881  -12.8076   26.0914 C   0  0  2  0  0  0  0  0  0  0  0  0
    7.1367  -11.7697   26.9802 C   0  0  0  0  0  0  0  0  0  0  0  0
    7.4853  -13.9167   25.8355 C   0  0  0  0  0  0  0  0  0  0  0  0
    6.9123  -14.9975   24.9545 C   0  0  2  0  0  0  0  0  0  0  0  0
    5.9073  -15.6967   25.7249 N   0  0  0  0  0  0  0  0  0  0  0  0
    8.0576  -15.9133   24.6158 C   0  0  0  0  0  0  0  0  0  0  0  0
    8.2537  -16.9669   25.2739 O   0  0  0  0  0  0  0  0  0  0  0  0
    8.9177  -15.5919   23.5557 N   0  0  0  0  0  0  0  0  0  0  0  0
    9.8517  -16.5519   23.0228 C   0  0  1  0  0  0  0  0  0  0  0  0
    9.7990  -16.6511   21.5369 C   0  0  0  0  0  0  0  0  0  0  0  0
   10.7044  -17.5737   20.8495 C   0  0  0  0  0  0  0  0  0  0  0  0
   10.5042  -17.9309   19.4671 C   0  0  0  0  0  0  0  0  0  0  0  0
    9.5126  -18.3656   18.8774 O   0  0  0  0  0  0  0  0  0  0  0  0
   11.2003  -16.4899   23.6239 C   0  0  0  0  0  0  0  0  0  0  0  0
   12.0585  -17.3134   23.2001 O   0  0  0  0  0  0  0  0  0  0  0  0
   11.6327  -17.7599   18.6211 O   0  0  0  0  0  0  0  0  0  0  0  0
   11.5753  -15.5828   24.6164 N   0  0  0  0  0  0  0  0  0  0  0  0
   12.7612  -15.7222   25.4662 C   0  0  1  0  0  0  0  0  0  0  0  0
   12.5389  -16.7169   26.5529 C   0  0  0  0  0  0  0  0  0  0  0  0
   11.8002  -16.0873   27.6723 C   0  0  0  0  0  0  0  0  0  0  0  0
   11.1595  -14.8730   27.7678 C   0  0  0  0  0  0  0  0  0  0  0  0
   10.5489  -14.7571   28.9575 N   0  0  0  0  0  0  0  0  0  0  0  0
   10.7820  -15.8729   29.6296 C   0  0  0  0  0  0  0  0  0  0  0  0
   11.5313  -16.6894   28.8799 N   0  0  0  0  0  0  0  0  0  0  0  0
   13.7665  -16.3343   24.5427 C   0  0  0  0  0  0  0  0  0  0  0  0
   13.4276  -16.6190   23.3743 O   0  0  0  0  0  0  0  0  0  0  0  0
   15.0415  -16.5990   24.9227 O   0  0  0  0  0  0  0  0  0  0  0  0
  2  1  1  6
  2  3  1  0
  4  2  1  0
  5  4  1  0
  5  6  1  1
  7  8  2  0
  7  5  1  0
  9  7  1  0
 10  9  1  0
 10 11  1  6
 11 12  1  0
 12 13  1  0
 13 14  2  0
 13 17  1  0
 15 16  2  0
 15 10  1  0
 18 15  1  0
 19 20  1  1
 19 18  1  0
 20 21  1  0
 21 25  1  0
 21 22  2  0
 22 23  1  0
 24 23  1  0
 25 24  2  0
 26 19  1  0
 27 26  2  0
 28 26  1  0
M  END
$$$$
