LEH.pdb
     RDKit          3D

 28 28  0  0  1  0  0  0  0  0999 V2000
    8.4904  -13.1560   18.3141 C   0  0  0  0  0  0  0  0  0  0  0  0
    7.7077  -13.3853   19.5679 C   0  0  2  0  0  0  0  0  0  0  0  0
    7.5100  -12.0641   20.2773 C   0  0  0  0  0  0  0  0  0  0  0  0
    8.3765  -14.3512   20.5217 C   0  0  0  0  0  0  0  0  0  0  0  0
    8.5724  -15.7111   19.9013 C   0  0  2  0  0  0  0  0  0  0  0  0
    7.2605  -16.2542   19.6251 N   0  0  0  0  0  0  0  0  0  0  0  0
    9.2880  -16.5428   20.9316 C   0  0  0  0  0  0  0  0  0  0  0  0
    8.6581  -17.0606   21.8891 O   0  0  0  0  0  0  0  0  0  0  0  0
   10.6717  -16.7449   20.8264 N   0  0  0  0  0  0  0  0  0  0  0  0
   11.4142  -17.4373   21.8497 C   0  0  1  0  0  0  0  0  0  0  0  0
   12.6950  -18.0122   21.3502 C   0  0  0  0  0  0  0  0  0  0  0  0
   12.6684  -18.9438   20.2211 C   0  0  0  0  0  0  0  0  0  0  0  0
   13.8843  -19.4779   19.6600 C   0  0  0  0  0  0  0  0  0  0  0  0
   14.2605  -20.6408   19.4987 O   0  0  0  0  0  0  0  0  0  0  0  0
   11.4805  -16.7255   23.1430 C   0  0  0  0  0  0  0  0  0  0  0  0
   11.9683  -15.5609   23.1355 O   0  0  0  0  0  0  0  0  0  0  0  0
   14.8253  -18.5138   19.2088 O   0  0  0  0  0  0  0  0  0  0  0  0
   11.0370  -17.2582   24.3546 N   0  0  0  0  0  0  0  0  0  0  0  0
   11.0295  -16.5342   25.6290 C   0  0  1  0  0  0  0  0  0  0  0  0
    9.7027  -15.9101   25.8931 C   0  0  0  0  0  0  0  0  0  0  0  0
    9.7087  -15.2501   27.2196 C   0  0  0  0  0  0  0  0  0  0  0  0
   10.7135  -15.0809   28.1447 C   0  0  0  0  0  0  0  0  0  0  0  0
   10.2806  -14.3409   29.1774 N   0  0  0  0  0  0  0  0  0  0  0  0
    9.0176  -14.0287   28.9355 C   0  0  0  0  0  0  0  0  0  0  0  0
    8.6492  -14.5622   27.7652 N   0  0  0  0  0  0  0  0  0  0  0  0
   11.1819  -17.6281   26.6380 C   0  0  0  0  0  0  0  0  0  0  0  0
   10.8651  -18.7954   26.3248 O   0  0  0  0  0  0  0  0  0  0  0  0
   11.6508  -17.4057   27.8913 O   0  0  0  0  0  0  0  0  0  0  0  0
  2  1  1  6
  2  3  1  0
  4  2  1  0
  5  4  1  0
  5  6  1  1
  7  8  2  0
  7  5  1  0
  9  7  1  0
 10  9  1  0
 10 11  1  6
 11 12  1  0
 12 13  1  0
 13 14  2  0
 13 17  1  0
 15 16  2  0
 15 10  1  0
 18 15  1  0
 19 20  1  1
 19 18  1  0
 20 21  1  0
 21 25  1  0
 21 22  2  0
 22 23  1  0
 24 23  1  0
 25 24  2  0
 26 19  1  0
 27 26  2  0
 28 26  1  0
M  END
$$$$
