LEH.pdb
     RDKit          3D

 28 28  0  0  1  0  0  0  0  0999 V2000
    7.7922  -12.1785   18.0323 C   0  0  0  0  0  0  0  0  0  0  0  0
    7.6276  -13.2748   19.0363 C   0  0  2  0  0  0  0  0  0  0  0  0
    7.1044  -12.6885   20.3288 C   0  0  0  0  0  0  0  0  0  0  0  0
    8.9140  -14.0167   19.3275 C   0  0  0  0  0  0  0  0  0  0  0  0
    9.5641  -14.5328   18.0691 C   0  0  2  0  0  0  0  0  0  0  0  0
    8.6812  -15.5289   17.5028 N   0  0  0  0  0  0  0  0  0  0  0  0
   10.8668  -15.1548   18.4949 C   0  0  0  0  0  0  0  0  0  0  0  0
   10.8946  -16.3090   18.9935 O   0  0  0  0  0  0  0  0  0  0  0  0
   12.0646  -14.4430   18.3356 N   0  0  0  0  0  0  0  0  0  0  0  0
   13.3288  -14.9854   18.7661 C   0  0  1  0  0  0  0  0  0  0  0  0
   14.4864  -14.4355   18.0057 C   0  0  0  0  0  0  0  0  0  0  0  0
   15.8455  -14.7996   18.4103 C   0  0  0  0  0  0  0  0  0  0  0  0
   16.9951  -14.3596   17.6597 C   0  0  0  0  0  0  0  0  0  0  0  0
   18.1950  -14.6088   17.7941 O   0  0  0  0  0  0  0  0  0  0  0  0
   13.4915  -15.0642   20.2327 C   0  0  0  0  0  0  0  0  0  0  0  0
   13.2677  -14.0125   20.8947 O   0  0  0  0  0  0  0  0  0  0  0  0
   16.7193  -13.4873   16.5728 O   0  0  0  0  0  0  0  0  0  0  0  0
   13.8690  -16.2198   20.9186 N   0  0  0  0  0  0  0  0  0  0  0  0
   13.8303  -16.3729   22.3758 C   0  0  1  0  0  0  0  0  0  0  0  0
   13.1540  -17.6397   22.7726 C   0  0  0  0  0  0  0  0  0  0  0  0
   13.2330  -17.8172   24.2415 C   0  0  0  0  0  0  0  0  0  0  0  0
   12.7762  -17.0334   25.2763 C   0  0  0  0  0  0  0  0  0  0  0  0
   13.0003  -17.6352   26.4550 N   0  0  0  0  0  0  0  0  0  0  0  0
   13.5909  -18.7916   26.2001 C   0  0  0  0  0  0  0  0  0  0  0  0
   13.7422  -18.9260   24.8775 N   0  0  0  0  0  0  0  0  0  0  0  0
   15.2727  -16.5424   22.7345 C   0  0  0  0  0  0  0  0  0  0  0  0
   16.0449  -17.0860   21.9164 O   0  0  0  0  0  0  0  0  0  0  0  0
   15.7835  -16.1306   23.9217 O   0  0  0  0  0  0  0  0  0  0  0  0
  2  1  1  6
  2  3  1  0
  4  2  1  0
  5  4  1  0
  5  6  1  1
  7  8  2  0
  7  5  1  0
  9  7  1  0
 10  9  1  0
 10 11  1  1
 11 12  1  0
 12 13  1  0
 13 14  2  0
 13 17  1  0
 15 16  2  0
 15 10  1  0
 18 15  1  0
 19 20  1  6
 19 18  1  0
 20 21  1  0
 21 25  1  0
 21 22  2  0
 22 23  1  0
 24 23  1  0
 25 24  2  0
 26 19  1  0
 27 26  2  0
 28 26  1  0
M  END
$$$$
