LEH.pdb
     RDKit          3D

 28 28  0  0  1  0  0  0  0  0999 V2000
    9.0265  -13.1217   18.8326 C   0  0  0  0  0  0  0  0  0  0  0  0
    7.8056  -13.1611   19.6956 C   0  0  2  0  0  0  0  0  0  0  0  0
    7.5512  -11.7800   20.2577 C   0  0  0  0  0  0  0  0  0  0  0  0
    7.9179  -14.1382   20.8457 C   0  0  0  0  0  0  0  0  0  0  0  0
    8.2384  -15.5327   20.3711 C   0  0  2  0  0  0  0  0  0  0  0  0
    7.0046  -16.1252   19.9031 N   0  0  0  0  0  0  0  0  0  0  0  0
    8.7644  -16.2734   21.5710 C   0  0  0  0  0  0  0  0  0  0  0  0
    7.9765  -16.7519   22.4265 O   0  0  0  0  0  0  0  0  0  0  0  0
   10.1472  -16.4339   21.7407 N   0  0  0  0  0  0  0  0  0  0  0  0
   10.6909  -17.1893   22.8415 C   0  0  1  0  0  0  0  0  0  0  0  0
   12.0620  -17.7062   22.5708 C   0  0  0  0  0  0  0  0  0  0  0  0
   12.7099  -18.5674   23.5617 C   0  0  0  0  0  0  0  0  0  0  0  0
   14.0141  -19.1345   23.3248 C   0  0  0  0  0  0  0  0  0  0  0  0
   14.4381  -19.8362   22.4040 O   0  0  0  0  0  0  0  0  0  0  0  0
   10.4768  -16.5746   24.1682 C   0  0  0  0  0  0  0  0  0  0  0  0
   10.9750  -15.4304   24.3604 O   0  0  0  0  0  0  0  0  0  0  0  0
   14.9951  -18.8468   24.3115 O   0  0  0  0  0  0  0  0  0  0  0  0
    9.7618  -17.1766   25.2050 N   0  0  0  0  0  0  0  0  0  0  0  0
    9.5845  -16.5973   26.5395 C   0  0  1  0  0  0  0  0  0  0  0  0
    8.1421  -16.4582   26.8857 C   0  0  0  0  0  0  0  0  0  0  0  0
    7.5775  -15.2558   26.2294 C   0  0  0  0  0  0  0  0  0  0  0  0
    8.1784  -14.2473   25.5111 C   0  0  0  0  0  0  0  0  0  0  0  0
    7.2553  -13.4003   25.0293 N   0  0  0  0  0  0  0  0  0  0  0  0
    6.0718  -13.8437   25.4216 C   0  0  0  0  0  0  0  0  0  0  0  0
    6.2369  -14.9577   26.1440 N   0  0  0  0  0  0  0  0  0  0  0  0
   10.1273  -17.6597   27.4421 C   0  0  0  0  0  0  0  0  0  0  0  0
   10.5306  -18.7335   26.9466 O   0  0  0  0  0  0  0  0  0  0  0  0
   10.1988  -17.5083   28.7882 O   0  0  0  0  0  0  0  0  0  0  0  0
  2  1  1  1
  2  3  1  0
  4  2  1  0
  5  4  1  0
  5  6  1  1
  7  8  2  0
  7  5  1  0
  9  7  1  0
 10  9  1  0
 10 11  1  6
 11 12  1  0
 12 13  1  0
 13 14  2  0
 13 17  1  0
 15 16  2  0
 15 10  1  0
 18 15  1  0
 19 20  1  1
 19 18  1  0
 20 21  1  0
 21 25  1  0
 21 22  2  0
 22 23  1  0
 24 23  1  0
 25 24  2  0
 26 19  1  0
 27 26  2  0
 28 26  1  0
M  END
$$$$
