LEH.pdb
     RDKit          3D

 28 28  0  0  1  0  0  0  0  0999 V2000
    7.8805  -12.2878   18.3347 C   0  0  0  0  0  0  0  0  0  0  0  0
    7.7793  -13.4113   19.3168 C   0  0  2  0  0  0  0  0  0  0  0  0
    7.2739  -12.8719   20.6365 C   0  0  0  0  0  0  0  0  0  0  0  0
    9.0966  -14.1170   19.5554 C   0  0  0  0  0  0  0  0  0  0  0  0
    9.6963  -14.6390   18.2745 C   0  0  2  0  0  0  0  0  0  0  0  0
    8.8118  -15.6660   17.7692 N   0  0  0  0  0  0  0  0  0  0  0  0
   11.0337  -15.2215   18.6447 C   0  0  0  0  0  0  0  0  0  0  0  0
   11.1179  -16.3784   19.1305 O   0  0  0  0  0  0  0  0  0  0  0  0
   12.2008  -14.4695   18.4473 N   0  0  0  0  0  0  0  0  0  0  0  0
   13.4964  -14.9694   18.8342 C   0  0  1  0  0  0  0  0  0  0  0  0
   14.6016  -14.4348   17.9898 C   0  0  0  0  0  0  0  0  0  0  0  0
   15.9811  -14.8245   18.2871 C   0  0  0  0  0  0  0  0  0  0  0  0
   17.0811  -14.3706   17.4732 C   0  0  0  0  0  0  0  0  0  0  0  0
   17.2050  -14.2902   16.2492 O   0  0  0  0  0  0  0  0  0  0  0  0
   13.7366  -14.9781   20.2923 C   0  0  0  0  0  0  0  0  0  0  0  0
   13.7883  -13.8589   20.8745 O   0  0  0  0  0  0  0  0  0  0  0  0
   18.2313  -13.9366   18.1853 O   0  0  0  0  0  0  0  0  0  0  0  0
   13.9032  -16.1369   21.0525 N   0  0  0  0  0  0  0  0  0  0  0  0
   14.2308  -16.1552   22.4810 C   0  0  1  0  0  0  0  0  0  0  0  0
   13.6502  -17.3488   23.1576 C   0  0  0  0  0  0  0  0  0  0  0  0
   12.2054  -17.1363   23.4079 C   0  0  0  0  0  0  0  0  0  0  0  0
   11.4770  -15.9841   23.5974 C   0  0  0  0  0  0  0  0  0  0  0  0
   10.1699  -16.2683   23.7080 N   0  0  0  0  0  0  0  0  0  0  0  0
   10.0415  -17.5803   23.5920 C   0  0  0  0  0  0  0  0  0  0  0  0
   11.2495  -18.1260   23.4104 N   0  0  0  0  0  0  0  0  0  0  0  0
   15.7131  -16.3568   22.4834 C   0  0  0  0  0  0  0  0  0  0  0  0
   16.3033  -16.5575   21.4006 O   0  0  0  0  0  0  0  0  0  0  0  0
   16.4516  -16.3339   23.6211 O   0  0  0  0  0  0  0  0  0  0  0  0
  2  1  1  6
  2  3  1  0
  4  2  1  0
  5  4  1  0
  5  6  1  1
  7  8  2  0
  7  5  1  0
  9  7  1  0
 10  9  1  0
 10 11  1  6
 11 12  1  0
 12 13  1  0
 13 14  2  0
 13 17  1  0
 15 16  2  0
 15 10  1  0
 18 15  1  0
 19 20  1  1
 19 18  1  0
 20 21  1  0
 21 25  1  0
 21 22  2  0
 22 23  1  0
 24 23  1  0
 25 24  2  0
 26 19  1  0
 27 26  2  0
 28 26  1  0
M  END
$$$$
