LEH.pdb
     RDKit          3D

 28 28  0  0  1  0  0  0  0  0999 V2000
    8.4905  -12.8880   17.6017 C   0  0  0  0  0  0  0  0  0  0  0  0
    7.8676  -13.5256   18.8028 C   0  0  2  0  0  0  0  0  0  0  0  0
    7.4627  -12.4467   19.7826 C   0  0  0  0  0  0  0  0  0  0  0  0
    8.7876  -14.4987   19.5076 C   0  0  0  0  0  0  0  0  0  0  0  0
    9.2449  -15.6057   18.5922 C   0  0  2  0  0  0  0  0  0  0  0  0
    8.0791  -16.3869   18.2413 N   0  0  0  0  0  0  0  0  0  0  0  0
   10.2206  -16.4310   19.3872 C   0  0  0  0  0  0  0  0  0  0  0  0
    9.8141  -17.2595   20.2417 O   0  0  0  0  0  0  0  0  0  0  0  0
   11.5985  -16.2776   19.1761 N   0  0  0  0  0  0  0  0  0  0  0  0
   12.5670  -17.0399   19.9236 C   0  0  1  0  0  0  0  0  0  0  0  0
   13.8803  -17.1519   19.2285 C   0  0  0  0  0  0  0  0  0  0  0  0
   13.9491  -17.8361   17.9360 C   0  0  0  0  0  0  0  0  0  0  0  0
   15.1969  -17.9787   17.2279 C   0  0  0  0  0  0  0  0  0  0  0  0
   15.7131  -18.9571   16.6836 O   0  0  0  0  0  0  0  0  0  0  0  0
   12.6183  -16.7159   21.3645 C   0  0  0  0  0  0  0  0  0  0  0  0
   12.8753  -15.5199   21.6774 O   0  0  0  0  0  0  0  0  0  0  0  0
   15.9828  -16.7992   17.1290 O   0  0  0  0  0  0  0  0  0  0  0  0
   12.3979  -17.6427   22.3847 N   0  0  0  0  0  0  0  0  0  0  0  0
   12.4088  -17.3240   23.8153 C   0  0  1  0  0  0  0  0  0  0  0  0
   11.1429  -17.7468   24.4772 C   0  0  0  0  0  0  0  0  0  0  0  0
   10.0534  -16.8022   24.1367 C   0  0  0  0  0  0  0  0  0  0  0  0
   10.0555  -15.6442   23.3929 C   0  0  0  0  0  0  0  0  0  0  0  0
    8.8100  -15.1568   23.2801 N   0  0  0  0  0  0  0  0  0  0  0  0
    8.0054  -15.9784   23.9350 C   0  0  0  0  0  0  0  0  0  0  0  0
    8.7270  -16.9758   24.4589 N   0  0  0  0  0  0  0  0  0  0  0  0
   13.4779  -18.2225   24.3517 C   0  0  0  0  0  0  0  0  0  0  0  0
   14.0482  -19.0212   23.5785 O   0  0  0  0  0  0  0  0  0  0  0  0
   13.8569  -18.2102   25.6541 O   0  0  0  0  0  0  0  0  0  0  0  0
  2  1  1  6
  2  3  1  0
  4  2  1  0
  5  4  1  0
  5  6  1  1
  7  8  2  0
  7  5  1  0
  9  7  1  0
 10  9  1  0
 10 11  1  6
 11 12  1  0
 12 13  1  0
 13 14  2  0
 13 17  1  0
 15 16  2  0
 15 10  1  0
 18 15  1  0
 19 20  1  1
 19 18  1  0
 20 21  1  0
 21 25  1  0
 21 22  2  0
 22 23  1  0
 24 23  1  0
 25 24  2  0
 26 19  1  0
 27 26  2  0
 28 26  1  0
M  END
$$$$
