LEH.pdb
     RDKit          3D

 28 28  0  0  1  0  0  0  0  0999 V2000
    8.4069  -13.3803   18.4382 C   0  0  0  0  0  0  0  0  0  0  0  0
    7.5560  -13.4904   19.6633 C   0  0  2  0  0  0  0  0  0  0  0  0
    7.3925  -12.1180   20.2780 C   0  0  0  0  0  0  0  0  0  0  0  0
    8.1298  -14.4230   20.7077 C   0  0  0  0  0  0  0  0  0  0  0  0
    8.2735  -15.8309   20.1881 C   0  0  2  0  0  0  0  0  0  0  0  0
    6.9457  -16.3183   19.8854 N   0  0  0  0  0  0  0  0  0  0  0  0
    8.8930  -16.6284   21.3040 C   0  0  0  0  0  0  0  0  0  0  0  0
    8.1770  -17.1372   22.2040 O   0  0  0  0  0  0  0  0  0  0  0  0
   10.2832  -16.8084   21.3443 N   0  0  0  0  0  0  0  0  0  0  0  0
   10.9190  -17.5481   22.4057 C   0  0  1  0  0  0  0  0  0  0  0  0
   12.3321  -17.9076   22.0983 C   0  0  0  0  0  0  0  0  0  0  0  0
   12.6582  -18.4653   20.7845 C   0  0  0  0  0  0  0  0  0  0  0  0
   14.0070  -18.4470   20.2754 C   0  0  0  0  0  0  0  0  0  0  0  0
   14.5199  -17.7976   19.3615 O   0  0  0  0  0  0  0  0  0  0  0  0
   10.6626  -17.0148   23.7598 C   0  0  0  0  0  0  0  0  0  0  0  0
   10.6697  -15.7595   23.8957 O   0  0  0  0  0  0  0  0  0  0  0  0
   14.9186  -19.3215   20.9254 O   0  0  0  0  0  0  0  0  0  0  0  0
   10.4124  -17.8084   24.8806 N   0  0  0  0  0  0  0  0  0  0  0  0
    9.9966  -17.2941   26.1885 C   0  0  1  0  0  0  0  0  0  0  0  0
    8.5230  -17.0834   26.2477 C   0  0  0  0  0  0  0  0  0  0  0  0
    8.1913  -15.7031   25.8235 C   0  0  0  0  0  0  0  0  0  0  0  0
    8.9884  -14.6763   25.3714 C   0  0  0  0  0  0  0  0  0  0  0  0
    8.2385  -13.6198   25.0207 N   0  0  0  0  0  0  0  0  0  0  0  0
    6.9743  -13.9459   25.2363 C   0  0  0  0  0  0  0  0  0  0  0  0
    6.9179  -15.1927   25.7184 N   0  0  0  0  0  0  0  0  0  0  0  0
   10.2897  -18.4372   27.1079 C   0  0  0  0  0  0  0  0  0  0  0  0
   10.7027  -19.5148   26.6290 O   0  0  0  0  0  0  0  0  0  0  0  0
   10.1224  -18.3554   28.4516 O   0  0  0  0  0  0  0  0  0  0  0  0
  2  1  1  6
  2  3  1  0
  4  2  1  0
  5  4  1  0
  5  6  1  1
  7  8  2  0
  7  5  1  0
  9  7  1  0
 10  9  1  0
 10 11  1  6
 11 12  1  0
 12 13  1  0
 13 14  2  0
 13 17  1  0
 15 16  2  0
 15 10  1  0
 18 15  1  0
 19 20  1  6
 19 18  1  0
 20 21  1  0
 21 25  1  0
 21 22  2  0
 22 23  1  0
 24 23  1  0
 25 24  2  0
 26 19  1  0
 27 26  2  0
 28 26  1  0
M  END
$$$$
