LEH.pdb
     RDKit          3D

 28 28  0  0  1  0  0  0  0  0999 V2000
    6.7217  -11.9907   24.4076 C   0  0  0  0  0  0  0  0  0  0  0  0
    6.4978  -12.7296   25.6886 C   0  0  2  0  0  0  0  0  0  0  0  0
    6.7829  -11.8043   26.8507 C   0  0  0  0  0  0  0  0  0  0  0  0
    7.3652  -13.9618   25.8273 C   0  0  0  0  0  0  0  0  0  0  0  0
    7.1620  -14.9254   24.6858 C   0  0  2  0  0  0  0  0  0  0  0  0
    5.8756  -15.5586   24.8774 N   0  0  0  0  0  0  0  0  0  0  0  0
    8.2738  -15.9349   24.7864 C   0  0  0  0  0  0  0  0  0  0  0  0
    8.4269  -16.6196   25.8301 O   0  0  0  0  0  0  0  0  0  0  0  0
    9.1505  -16.1169   23.7071 N   0  0  0  0  0  0  0  0  0  0  0  0
   10.2898  -16.9952   23.7988 C   0  0  1  0  0  0  0  0  0  0  0  0
   11.0639  -17.0776   22.5282 C   0  0  0  0  0  0  0  0  0  0  0  0
   12.2083  -17.9871   22.4460 C   0  0  0  0  0  0  0  0  0  0  0  0
   12.9185  -18.1895   21.2077 C   0  0  0  0  0  0  0  0  0  0  0  0
   12.8559  -19.0976   20.3762 O   0  0  0  0  0  0  0  0  0  0  0  0
   11.0831  -16.8387   25.0357 C   0  0  0  0  0  0  0  0  0  0  0  0
   11.4993  -15.6787   25.3105 O   0  0  0  0  0  0  0  0  0  0  0  0
   13.8578  -17.1790   20.8686 O   0  0  0  0  0  0  0  0  0  0  0  0
   11.3906  -17.8847   25.9074 N   0  0  0  0  0  0  0  0  0  0  0  0
   12.1354  -17.7321   27.1604 C   0  0  1  0  0  0  0  0  0  0  0  0
   11.2219  -17.7011   28.3369 C   0  0  0  0  0  0  0  0  0  0  0  0
   10.6883  -16.3321   28.5278 C   0  0  0  0  0  0  0  0  0  0  0  0
   10.7924  -15.2009   27.7508 C   0  0  0  0  0  0  0  0  0  0  0  0
   10.0721  -14.2000   28.2808 N   0  0  0  0  0  0  0  0  0  0  0  0
    9.5049  -14.6641   29.3826 C   0  0  0  0  0  0  0  0  0  0  0  0
    9.8585  -15.9431   29.5540 N   0  0  0  0  0  0  0  0  0  0  0  0
   12.8951  -19.0171   27.2585 C   0  0  0  0  0  0  0  0  0  0  0  0
   12.7422  -19.8853   26.3731 O   0  0  0  0  0  0  0  0  0  0  0  0
   13.7487  -19.2850   28.2781 O   0  0  0  0  0  0  0  0  0  0  0  0
  2  1  1  6
  2  3  1  0
  4  2  1  0
  5  4  1  0
  5  6  1  1
  7  8  2  0
  7  5  1  0
  9  7  1  0
 10  9  1  0
 10 11  1  6
 11 12  1  0
 12 13  1  0
 13 14  2  0
 13 17  1  0
 15 16  2  0
 15 10  1  0
 18 15  1  0
 19 20  1  1
 19 18  1  0
 20 21  1  0
 21 25  1  0
 21 22  2  0
 22 23  1  0
 24 23  1  0
 25 24  2  0
 26 19  1  0
 27 26  2  0
 28 26  1  0
M  END
$$$$
