LEH.pdb
     RDKit          3D

 28 28  0  0  1  0  0  0  0  0999 V2000
    8.6023  -13.2240   18.7243 C   0  0  0  0  0  0  0  0  0  0  0  0
    7.5004  -13.2082   19.7354 C   0  0  2  0  0  0  0  0  0  0  0  0
    7.2519  -11.7825   20.1753 C   0  0  0  0  0  0  0  0  0  0  0  0
    7.8000  -14.0467   20.9591 C   0  0  0  0  0  0  0  0  0  0  0  0
    8.0343  -15.4937   20.6071 C   0  0  2  0  0  0  0  0  0  0  0  0
    6.7709  -16.0420   20.1650 N   0  0  0  0  0  0  0  0  0  0  0  0
    8.4929  -16.1644   21.8739 C   0  0  0  0  0  0  0  0  0  0  0  0
    7.6602  -16.5522   22.7329 O   0  0  0  0  0  0  0  0  0  0  0  0
    9.8625  -16.3609   22.1028 N   0  0  0  0  0  0  0  0  0  0  0  0
   10.3394  -17.0997   23.2450 C   0  0  1  0  0  0  0  0  0  0  0  0
   11.6425  -17.7782   22.9956 C   0  0  0  0  0  0  0  0  0  0  0  0
   11.7538  -18.7268   21.8861 C   0  0  0  0  0  0  0  0  0  0  0  0
   12.4454  -19.9826   22.0389 C   0  0  0  0  0  0  0  0  0  0  0  0
   13.1702  -20.6088   21.2628 O   0  0  0  0  0  0  0  0  0  0  0  0
   10.2140  -16.3830   24.5312 C   0  0  0  0  0  0  0  0  0  0  0  0
   10.7345  -15.2350   24.6043 O   0  0  0  0  0  0  0  0  0  0  0  0
   12.2751  -20.6263   23.2940 O   0  0  0  0  0  0  0  0  0  0  0  0
    9.5586  -16.8940   25.6527 N   0  0  0  0  0  0  0  0  0  0  0  0
    9.4637  -16.2092   26.9451 C   0  0  1  0  0  0  0  0  0  0  0  0
    8.0629  -15.7983   27.2423 C   0  0  0  0  0  0  0  0  0  0  0  0
    7.8153  -14.4322   26.7249 C   0  0  0  0  0  0  0  0  0  0  0  0
    8.6482  -13.5351   26.0960 C   0  0  0  0  0  0  0  0  0  0  0  0
    7.9650  -12.4406   25.7259 N   0  0  0  0  0  0  0  0  0  0  0  0
    6.7085  -12.6153   26.1024 C   0  0  0  0  0  0  0  0  0  0  0  0
    6.5912  -13.8042   26.7048 N   0  0  0  0  0  0  0  0  0  0  0  0
    9.7955  -17.2909   27.9239 C   0  0  0  0  0  0  0  0  0  0  0  0
    9.7800  -17.0332   29.1463 O   0  0  0  0  0  0  0  0  0  0  0  0
   10.1185  -18.5508   27.5385 O   0  0  0  0  0  0  0  0  0  0  0  0
  2  1  1  6
  2  3  1  0
  4  2  1  0
  5  4  1  0
  5  6  1  1
  7  8  2  0
  7  5  1  0
  9  7  1  0
 10  9  1  0
 10 11  1  6
 11 12  1  0
 12 13  1  0
 13 14  2  0
 13 17  1  0
 15 16  2  0
 15 10  1  0
 18 15  1  0
 19 20  1  1
 19 18  1  0
 20 21  1  0
 21 25  1  0
 21 22  2  0
 22 23  1  0
 24 23  1  0
 25 24  2  0
 26 19  1  0
 27 26  2  0
 28 26  1  0
M  END
$$$$
