LEH.pdb
     RDKit          3D

 28 28  0  0  1  0  0  0  0  0999 V2000
    8.8270  -12.2954   19.0171 C   0  0  0  0  0  0  0  0  0  0  0  0
    7.6899  -13.2666   19.0482 C   0  0  2  0  0  0  0  0  0  0  0  0
    6.3920  -12.5050   19.2009 C   0  0  0  0  0  0  0  0  0  0  0  0
    7.7949  -14.2739   20.1726 C   0  0  0  0  0  0  0  0  0  0  0  0
    9.2225  -14.4857   20.6080 C   0  0  2  0  0  0  0  0  0  0  0  0
    9.9090  -15.1607   19.5284 N   0  0  0  0  0  0  0  0  0  0  0  0
    9.1623  -15.3604   21.8313 C   0  0  0  0  0  0  0  0  0  0  0  0
    8.3610  -15.1030   22.7659 O   0  0  0  0  0  0  0  0  0  0  0  0
   10.0069  -16.4752   21.9340 N   0  0  0  0  0  0  0  0  0  0  0  0
    9.9482  -17.3659   23.0659 C   0  0  1  0  0  0  0  0  0  0  0  0
   10.6461  -18.6601   22.8238 C   0  0  0  0  0  0  0  0  0  0  0  0
   11.8266  -18.6848   21.9583 C   0  0  0  0  0  0  0  0  0  0  0  0
   12.9430  -19.5536   22.2365 C   0  0  0  0  0  0  0  0  0  0  0  0
   13.4380  -19.9212   23.3041 O   0  0  0  0  0  0  0  0  0  0  0  0
   10.2119  -16.7174   24.3673 C   0  0  0  0  0  0  0  0  0  0  0  0
   11.2500  -16.0041   24.4559 O   0  0  0  0  0  0  0  0  0  0  0  0
   13.6005  -20.0896   21.0968 O   0  0  0  0  0  0  0  0  0  0  0  0
    9.3881  -16.8432   25.4870 N   0  0  0  0  0  0  0  0  0  0  0  0
    9.6283  -16.1862   26.7750 C   0  0  1  0  0  0  0  0  0  0  0  0
    8.3528  -15.7546   27.4126 C   0  0  0  0  0  0  0  0  0  0  0  0
    7.7627  -14.6279   26.6527 C   0  0  0  0  0  0  0  0  0  0  0  0
    8.2142  -13.9435   25.5473 C   0  0  0  0  0  0  0  0  0  0  0  0
    7.3017  -13.0439   25.1476 N   0  0  0  0  0  0  0  0  0  0  0  0
    6.2709  -13.1362   25.9723 C   0  0  0  0  0  0  0  0  0  0  0  0
    6.5219  -14.0809   26.8859 N   0  0  0  0  0  0  0  0  0  0  0  0
   10.1620  -17.2962   27.6242 C   0  0  0  0  0  0  0  0  0  0  0  0
   10.4820  -17.0586   28.8084 O   0  0  0  0  0  0  0  0  0  0  0  0
   10.3183  -18.5610   27.1596 O   0  0  0  0  0  0  0  0  0  0  0  0
  2  1  1  1
  2  3  1  0
  4  2  1  0
  5  4  1  0
  5  6  1  6
  7  8  2  0
  7  5  1  0
  9  7  1  0
 10  9  1  0
 10 11  1  6
 11 12  1  0
 12 13  1  0
 13 14  2  0
 13 17  1  0
 15 16  2  0
 15 10  1  0
 18 15  1  0
 19 20  1  1
 19 18  1  0
 20 21  1  0
 21 25  1  0
 21 22  2  0
 22 23  1  0
 24 23  1  0
 25 24  2  0
 26 19  1  0
 27 26  2  0
 28 26  1  0
M  END
$$$$
