LEH.pdb
     RDKit          3D

 28 28  0  0  1  0  0  0  0  0999 V2000
    8.2701  -13.3519   18.2844 C   0  0  0  0  0  0  0  0  0  0  0  0
    7.4507  -13.2243   19.5292 C   0  0  2  0  0  0  0  0  0  0  0  0
    7.5738  -11.8137   20.0610 C   0  0  0  0  0  0  0  0  0  0  0  0
    7.8644  -14.1898   20.6185 C   0  0  0  0  0  0  0  0  0  0  0  0
    7.7935  -15.6234   20.1577 C   0  0  2  0  0  0  0  0  0  0  0  0
    6.4123  -16.0420   20.2555 N   0  0  0  0  0  0  0  0  0  0  0  0
    8.6581  -16.4114   21.1046 C   0  0  0  0  0  0  0  0  0  0  0  0
    8.2328  -16.7371   22.2425 O   0  0  0  0  0  0  0  0  0  0  0  0
    9.9522  -16.7885   20.7179 N   0  0  0  0  0  0  0  0  0  0  0  0
   10.8303  -17.5016   21.6114 C   0  0  1  0  0  0  0  0  0  0  0  0
   12.0210  -18.0742   20.9221 C   0  0  0  0  0  0  0  0  0  0  0  0
   13.0154  -18.8097   21.7053 C   0  0  0  0  0  0  0  0  0  0  0  0
   14.1900  -19.3730   21.0876 C   0  0  0  0  0  0  0  0  0  0  0  0
   15.1276  -20.0160   21.5644 O   0  0  0  0  0  0  0  0  0  0  0  0
   11.0886  -16.8120   22.8926 C   0  0  0  0  0  0  0  0  0  0  0  0
   11.6135  -15.6651   22.8341 O   0  0  0  0  0  0  0  0  0  0  0  0
   14.3064  -19.1616   19.6875 O   0  0  0  0  0  0  0  0  0  0  0  0
   10.7859  -17.3470   24.1458 N   0  0  0  0  0  0  0  0  0  0  0  0
   10.8902  -16.6141   25.4108 C   0  0  1  0  0  0  0  0  0  0  0  0
    9.5772  -16.0393   25.8172 C   0  0  0  0  0  0  0  0  0  0  0  0
    9.7272  -15.2760   27.0783 C   0  0  0  0  0  0  0  0  0  0  0  0
   10.8340  -15.0089   27.8514 C   0  0  0  0  0  0  0  0  0  0  0  0
   10.5090  -14.2002   28.8722 N   0  0  0  0  0  0  0  0  0  0  0  0
    9.2156  -13.9398   28.7713 C   0  0  0  0  0  0  0  0  0  0  0  0
    8.7215  -14.5736   27.7015 N   0  0  0  0  0  0  0  0  0  0  0  0
   11.1949  -17.6937   26.4006 C   0  0  0  0  0  0  0  0  0  0  0  0
   11.1031  -18.8887   26.0475 O   0  0  0  0  0  0  0  0  0  0  0  0
   11.5672  -17.4298   27.6780 O   0  0  0  0  0  0  0  0  0  0  0  0
  2  1  1  6
  2  3  1  0
  4  2  1  0
  5  4  1  0
  5  6  1  1
  7  8  2  0
  7  5  1  0
  9  7  1  0
 10  9  1  0
 10 11  1  6
 11 12  1  0
 12 13  1  0
 13 14  2  0
 13 17  1  0
 15 16  2  0
 15 10  1  0
 18 15  1  0
 19 20  1  1
 19 18  1  0
 20 21  1  0
 21 25  1  0
 21 22  2  0
 22 23  1  0
 24 23  1  0
 25 24  2  0
 26 19  1  0
 27 26  2  0
 28 26  1  0
M  END
$$$$
