LEH.pdb
     RDKit          3D

 28 28  0  0  1  0  0  0  0  0999 V2000
    7.5662  -12.2707   21.6048 C   0  0  0  0  0  0  0  0  0  0  0  0
    8.0508  -13.4912   20.8889 C   0  0  2  0  0  0  0  0  0  0  0  0
    8.7073  -13.0763   19.5908 C   0  0  0  0  0  0  0  0  0  0  0  0
    6.9478  -14.4797   20.5787 C   0  0  0  0  0  0  0  0  0  0  0  0
    7.4922  -15.7905   20.0707 C   0  0  2  0  0  0  0  0  0  0  0  0
    6.3617  -16.6353   19.7539 N   0  0  0  0  0  0  0  0  0  0  0  0
    8.2962  -16.3764   21.2000 C   0  0  0  0  0  0  0  0  0  0  0  0
    7.7289  -16.8048   22.2374 O   0  0  0  0  0  0  0  0  0  0  0  0
    9.6931  -16.4472   21.0984 N   0  0  0  0  0  0  0  0  0  0  0  0
   10.4812  -17.2094   22.0343 C   0  0  1  0  0  0  0  0  0  0  0  0
   11.7770  -17.6717   21.4620 C   0  0  0  0  0  0  0  0  0  0  0  0
   12.6742  -18.4828   22.2870 C   0  0  0  0  0  0  0  0  0  0  0  0
   13.9344  -18.9624   21.7767 C   0  0  0  0  0  0  0  0  0  0  0  0
   15.0928  -18.6225   22.0272 O   0  0  0  0  0  0  0  0  0  0  0  0
   10.5382  -16.6345   23.3945 C   0  0  0  0  0  0  0  0  0  0  0  0
   11.4033  -15.7394   23.6060 O   0  0  0  0  0  0  0  0  0  0  0  0
   13.8489  -20.0074   20.8179 O   0  0  0  0  0  0  0  0  0  0  0  0
    9.6994  -17.0163   24.4427 N   0  0  0  0  0  0  0  0  0  0  0  0
    9.8333  -16.5532   25.8269 C   0  0  1  0  0  0  0  0  0  0  0  0
    8.5049  -16.4222   26.4884 C   0  0  0  0  0  0  0  0  0  0  0  0
    7.8370  -15.1776   26.0411 C   0  0  0  0  0  0  0  0  0  0  0  0
    8.3496  -13.9985   25.5502 C   0  0  0  0  0  0  0  0  0  0  0  0
    7.3573  -13.1686   25.1920 N   0  0  0  0  0  0  0  0  0  0  0  0
    6.2158  -13.7901   25.4409 C   0  0  0  0  0  0  0  0  0  0  0  0
    6.4756  -14.9993   25.9512 N   0  0  0  0  0  0  0  0  0  0  0  0
   10.5208  -17.6990   26.4996 C   0  0  0  0  0  0  0  0  0  0  0  0
   10.7608  -17.6326   27.7240 O   0  0  0  0  0  0  0  0  0  0  0  0
   10.9016  -18.8165   25.8316 O   0  0  0  0  0  0  0  0  0  0  0  0
  2  1  1  6
  2  3  1  0
  4  2  1  0
  5  4  1  0
  5  6  1  1
  7  8  2  0
  7  5  1  0
  9  7  1  0
 10  9  1  0
 10 11  1  6
 11 12  1  0
 12 13  1  0
 13 14  2  0
 13 17  1  0
 15 16  2  0
 15 10  1  0
 18 15  1  0
 19 20  1  1
 19 18  1  0
 20 21  1  0
 21 25  1  0
 21 22  2  0
 22 23  1  0
 24 23  1  0
 25 24  2  0
 26 19  1  0
 27 26  2  0
 28 26  1  0
M  END
$$$$
