LEH.pdb
     RDKit          3D

 28 28  0  0  1  0  0  0  0  0999 V2000
    8.7963  -13.7294   19.2049 C   0  0  0  0  0  0  0  0  0  0  0  0
    7.5688  -13.4418   20.0097 C   0  0  2  0  0  0  0  0  0  0  0  0
    7.6376  -12.0225   20.5282 C   0  0  0  0  0  0  0  0  0  0  0  0
    7.3917  -14.3782   21.1851 C   0  0  0  0  0  0  0  0  0  0  0  0
    7.4212  -15.8250   20.7624 C   0  0  2  0  0  0  0  0  0  0  0  0
    6.0760  -16.3411   20.8905 N   0  0  0  0  0  0  0  0  0  0  0  0
    8.3531  -16.5217   21.7171 C   0  0  0  0  0  0  0  0  0  0  0  0
    7.9158  -17.0476   22.7725 O   0  0  0  0  0  0  0  0  0  0  0  0
    9.7242  -16.5875   21.4304 N   0  0  0  0  0  0  0  0  0  0  0  0
   10.6484  -17.2609   22.3082 C   0  0  1  0  0  0  0  0  0  0  0  0
   11.8495  -17.7832   21.5976 C   0  0  0  0  0  0  0  0  0  0  0  0
   12.8722  -18.5046   22.3573 C   0  0  0  0  0  0  0  0  0  0  0  0
   14.0274  -19.0730   21.7085 C   0  0  0  0  0  0  0  0  0  0  0  0
   15.1855  -19.2257   22.1026 O   0  0  0  0  0  0  0  0  0  0  0  0
   10.9005  -16.5586   23.5837 C   0  0  0  0  0  0  0  0  0  0  0  0
   11.2299  -15.3415   23.5162 O   0  0  0  0  0  0  0  0  0  0  0  0
   13.8160  -19.5448   20.3852 O   0  0  0  0  0  0  0  0  0  0  0  0
   10.7926  -17.1545   24.8414 N   0  0  0  0  0  0  0  0  0  0  0  0
   10.9683  -16.4494   26.1142 C   0  0  1  0  0  0  0  0  0  0  0  0
    9.6581  -16.0572   26.7051 C   0  0  0  0  0  0  0  0  0  0  0  0
    9.8756  -15.2517   27.9295 C   0  0  0  0  0  0  0  0  0  0  0  0
    9.9769  -13.8918   28.1151 C   0  0  0  0  0  0  0  0  0  0  0  0
   10.0908  -13.6038   29.4211 N   0  0  0  0  0  0  0  0  0  0  0  0
   10.0633  -14.7508   30.0806 C   0  0  0  0  0  0  0  0  0  0  0  0
    9.9343  -15.7568   29.2080 N   0  0  0  0  0  0  0  0  0  0  0  0
   11.5275  -17.5085   27.0108 C   0  0  0  0  0  0  0  0  0  0  0  0
   11.2552  -18.7065   26.7834 O   0  0  0  0  0  0  0  0  0  0  0  0
   12.3226  -17.2223   28.0719 O   0  0  0  0  0  0  0  0  0  0  0  0
  2  1  1  1
  2  3  1  0
  4  2  1  0
  5  4  1  0
  5  6  1  1
  7  8  2  0
  7  5  1  0
  9  7  1  0
 10  9  1  0
 10 11  1  6
 11 12  1  0
 12 13  1  0
 13 14  2  0
 13 17  1  0
 15 16  2  0
 15 10  1  0
 18 15  1  0
 19 20  1  1
 19 18  1  0
 20 21  1  0
 21 25  1  0
 21 22  2  0
 22 23  1  0
 24 23  1  0
 25 24  2  0
 26 19  1  0
 27 26  2  0
 28 26  1  0
M  END
$$$$
