LEH.pdb
     RDKit          3D

 28 28  0  0  1  0  0  0  0  0999 V2000
    8.6603  -13.1579   18.7165 C   0  0  0  0  0  0  0  0  0  0  0  0
    7.7260  -13.2406   19.8816 C   0  0  2  0  0  0  0  0  0  0  0  0
    7.6288  -11.8804   20.5362 C   0  0  0  0  0  0  0  0  0  0  0  0
    8.1580  -14.2492   20.9237 C   0  0  0  0  0  0  0  0  0  0  0  0
    8.2883  -15.6356   20.3462 C   0  0  2  0  0  0  0  0  0  0  0  0
    6.9593  -16.0842   19.9928 N   0  0  0  0  0  0  0  0  0  0  0  0
    8.8675  -16.4924   21.4396 C   0  0  0  0  0  0  0  0  0  0  0  0
    8.1233  -17.0138   22.3091 O   0  0  0  0  0  0  0  0  0  0  0  0
   10.2511  -16.7144   21.4929 N   0  0  0  0  0  0  0  0  0  0  0  0
   10.8522  -17.4877   22.5506 C   0  0  1  0  0  0  0  0  0  0  0  0
   12.2471  -17.9107   22.2408 C   0  0  0  0  0  0  0  0  0  0  0  0
   12.9626  -18.7650   23.1903 C   0  0  0  0  0  0  0  0  0  0  0  0
   14.3126  -19.2026   22.9362 C   0  0  0  0  0  0  0  0  0  0  0  0
   15.3978  -18.6874   23.2135 O   0  0  0  0  0  0  0  0  0  0  0  0
   10.6211  -16.9495   23.9073 C   0  0  0  0  0  0  0  0  0  0  0  0
   11.1822  -15.8560   24.1969 O   0  0  0  0  0  0  0  0  0  0  0  0
   14.4358  -20.4396   22.2482 O   0  0  0  0  0  0  0  0  0  0  0  0
    9.8256  -17.5701   24.8719 N   0  0  0  0  0  0  0  0  0  0  0  0
    9.6885  -17.1126   26.2575 C   0  0  1  0  0  0  0  0  0  0  0  0
    8.2727  -16.7844   26.5853 C   0  0  0  0  0  0  0  0  0  0  0  0
    7.9582  -15.4046   26.1463 C   0  0  0  0  0  0  0  0  0  0  0  0
    8.7422  -14.4382   25.5587 C   0  0  0  0  0  0  0  0  0  0  0  0
    8.0064  -13.3570   25.2565 N   0  0  0  0  0  0  0  0  0  0  0  0
    6.7639  -13.6082   25.6363 C   0  0  0  0  0  0  0  0  0  0  0  0
    6.7073  -14.8321   26.1738 N   0  0  0  0  0  0  0  0  0  0  0  0
   10.0251  -18.3359   27.0503 C   0  0  0  0  0  0  0  0  0  0  0  0
    9.9905  -18.2828   28.2981 O   0  0  0  0  0  0  0  0  0  0  0  0
   10.3725  -19.5109   26.4682 O   0  0  0  0  0  0  0  0  0  0  0  0
  2  1  1  6
  2  3  1  0
  4  2  1  0
  5  4  1  0
  5  6  1  1
  7  8  2  0
  7  5  1  0
  9  7  1  0
 10  9  1  0
 10 11  1  6
 11 12  1  0
 12 13  1  0
 13 14  2  0
 13 17  1  0
 15 16  2  0
 15 10  1  0
 18 15  1  0
 19 20  1  6
 19 18  1  0
 20 21  1  0
 21 25  1  0
 21 22  2  0
 22 23  1  0
 24 23  1  0
 25 24  2  0
 26 19  1  0
 27 26  2  0
 28 26  1  0
M  END
$$$$
