LEH.pdb
     RDKit          3D

 28 28  0  0  1  0  0  0  0  0999 V2000
    9.4798  -12.9573   18.8041 C   0  0  0  0  0  0  0  0  0  0  0  0
    8.0868  -13.4353   19.0651 C   0  0  2  0  0  0  0  0  0  0  0  0
    7.2919  -12.3193   19.7059 C   0  0  0  0  0  0  0  0  0  0  0  0
    8.0306  -14.6489   19.9673 C   0  0  0  0  0  0  0  0  0  0  0  0
    8.8805  -15.7792   19.4450 C   0  0  2  0  0  0  0  0  0  0  0  0
    8.0268  -16.6282   18.6432 N   0  0  0  0  0  0  0  0  0  0  0  0
    9.3837  -16.5192   20.6551 C   0  0  0  0  0  0  0  0  0  0  0  0
    8.5849  -17.1193   21.4190 O   0  0  0  0  0  0  0  0  0  0  0  0
   10.7571  -16.5421   20.9376 N   0  0  0  0  0  0  0  0  0  0  0  0
   11.2833  -17.2574   22.0731 C   0  0  1  0  0  0  0  0  0  0  0  0
   12.4869  -18.0707   21.7411 C   0  0  0  0  0  0  0  0  0  0  0  0
   12.9042  -18.1922   20.3431 C   0  0  0  0  0  0  0  0  0  0  0  0
   14.1390  -18.8432   19.9824 C   0  0  0  0  0  0  0  0  0  0  0  0
   15.0415  -19.3129   20.6788 O   0  0  0  0  0  0  0  0  0  0  0  0
   11.3584  -16.4602   23.3151 C   0  0  0  0  0  0  0  0  0  0  0  0
   11.6798  -15.2444   23.2010 O   0  0  0  0  0  0  0  0  0  0  0  0
   14.3762  -18.9765   18.5880 O   0  0  0  0  0  0  0  0  0  0  0  0
   11.0940  -16.9664   24.5888 N   0  0  0  0  0  0  0  0  0  0  0  0
   11.2265  -16.2018   25.8323 C   0  0  1  0  0  0  0  0  0  0  0  0
    9.8973  -15.7794   26.3561 C   0  0  0  0  0  0  0  0  0  0  0  0
   10.0674  -15.0280   27.6217 C   0  0  0  0  0  0  0  0  0  0  0  0
   10.3494  -13.7020   27.8592 C   0  0  0  0  0  0  0  0  0  0  0  0
   10.3278  -13.4465   29.1767 N   0  0  0  0  0  0  0  0  0  0  0  0
   10.0360  -14.5808   29.7926 C   0  0  0  0  0  0  0  0  0  0  0  0
    9.8742  -15.5470   28.8813 N   0  0  0  0  0  0  0  0  0  0  0  0
   11.7492  -17.2181   26.7977 C   0  0  0  0  0  0  0  0  0  0  0  0
   12.0617  -16.8582   27.9526 O   0  0  0  0  0  0  0  0  0  0  0  0
   11.9031  -18.5254   26.4701 O   0  0  0  0  0  0  0  0  0  0  0  0
  2  1  1  1
  2  3  1  0
  4  2  1  0
  5  4  1  0
  5  6  1  6
  7  8  2  0
  7  5  1  0
  9  7  1  0
 10  9  1  0
 10 11  1  6
 11 12  1  0
 12 13  1  0
 13 14  2  0
 13 17  1  0
 15 16  2  0
 15 10  1  0
 18 15  1  0
 19 20  1  1
 19 18  1  0
 20 21  1  0
 21 25  1  0
 21 22  2  0
 22 23  1  0
 24 23  1  0
 25 24  2  0
 26 19  1  0
 27 26  2  0
 28 26  1  0
M  END
$$$$
