LEH.pdb
     RDKit          3D

 28 28  0  0  1  0  0  0  0  0999 V2000
    8.8770  -13.1457   18.7713 C   0  0  0  0  0  0  0  0  0  0  0  0
    7.8664  -13.1898   19.8730 C   0  0  2  0  0  0  0  0  0  0  0  0
    7.7829  -11.8268   20.5236 C   0  0  0  0  0  0  0  0  0  0  0  0
    8.1878  -14.2154   20.9382 C   0  0  0  0  0  0  0  0  0  0  0  0
    8.3366  -15.6000   20.3608 C   0  0  2  0  0  0  0  0  0  0  0  0
    7.0089  -16.0885   20.0595 N   0  0  0  0  0  0  0  0  0  0  0  0
    8.9814  -16.4348   21.4342 C   0  0  0  0  0  0  0  0  0  0  0  0
    8.2875  -16.9636   22.3401 O   0  0  0  0  0  0  0  0  0  0  0  0
   10.3705  -16.6277   21.4279 N   0  0  0  0  0  0  0  0  0  0  0  0
   11.0431  -17.3134   22.5027 C   0  0  1  0  0  0  0  0  0  0  0  0
   12.4497  -17.6763   22.1705 C   0  0  0  0  0  0  0  0  0  0  0  0
   13.2203  -18.4886   23.1137 C   0  0  0  0  0  0  0  0  0  0  0  0
   14.4503  -19.1300   22.7211 C   0  0  0  0  0  0  0  0  0  0  0  0
   15.5476  -18.6599   22.4130 O   0  0  0  0  0  0  0  0  0  0  0  0
   10.8216  -16.7205   23.8381 C   0  0  0  0  0  0  0  0  0  0  0  0
   11.2725  -15.5576   24.0343 O   0  0  0  0  0  0  0  0  0  0  0  0
   14.4127  -20.5495   22.6748 O   0  0  0  0  0  0  0  0  0  0  0  0
   10.1482  -17.3623   24.8788 N   0  0  0  0  0  0  0  0  0  0  0  0
    9.8362  -16.7476   26.1722 C   0  0  1  0  0  0  0  0  0  0  0  0
    8.3725  -16.7734   26.4487 C   0  0  0  0  0  0  0  0  0  0  0  0
    7.6935  -15.7019   25.6832 C   0  0  0  0  0  0  0  0  0  0  0  0
    8.1844  -14.7648   24.8029 C   0  0  0  0  0  0  0  0  0  0  0  0
    7.1817  -14.0421   24.2796 N   0  0  0  0  0  0  0  0  0  0  0  0
    6.0546  -14.4959   24.8040 C   0  0  0  0  0  0  0  0  0  0  0  0
    6.3338  -15.4937   25.6504 N   0  0  0  0  0  0  0  0  0  0  0  0
   10.4604  -17.6904   27.1518 C   0  0  0  0  0  0  0  0  0  0  0  0
   11.0078  -18.7321   26.7320 O   0  0  0  0  0  0  0  0  0  0  0  0
   10.4554  -17.4633   28.4891 O   0  0  0  0  0  0  0  0  0  0  0  0
  2  1  1  6
  2  3  1  0
  4  2  1  0
  5  4  1  0
  5  6  1  1
  7  8  2  0
  7  5  1  0
  9  7  1  0
 10  9  1  0
 10 11  1  6
 11 12  1  0
 12 13  1  0
 13 14  2  0
 13 17  1  0
 15 16  2  0
 15 10  1  0
 18 15  1  0
 19 20  1  1
 19 18  1  0
 20 21  1  0
 21 25  1  0
 21 22  2  0
 22 23  1  0
 24 23  1  0
 25 24  2  0
 26 19  1  0
 27 26  2  0
 28 26  1  0
M  END
$$$$
