NAD.pdb
     RDKit          3D

 22 21  0  0  1  0  0  0  0  0999 V2000
    6.6482  -18.4505   15.6024 N   0  0  0  0  0  0  0  0  0  0  0  0
    7.9665  -18.0292   15.4826 C   0  0  0  0  0  0  0  0  0  0  0  0
    8.6600  -18.4592   14.4952 O   0  0  0  0  0  0  0  0  0  0  0  0
    8.6519  -17.1178   16.4015 C   0  0  0  0  0  0  0  0  0  0  0  0
    8.5305  -15.6823   15.9544 C   0  0  2  0  0  0  0  0  0  0  0  0
    9.3742  -15.4807   14.7613 N   0  0  0  0  0  0  0  0  0  0  0  0
    9.0453  -14.7737   17.0338 C   0  0  0  0  0  0  0  0  0  0  0  0
   10.2450  -14.5050   17.2184 O   0  0  0  0  0  0  0  0  0  0  0  0
    7.1365  -12.7295   19.5438 C   0  0  0  0  0  0  0  0  0  0  0  0
    8.4592  -13.2709   18.9833 C   0  0  2  0  0  0  0  0  0  0  0  0
    8.0866  -14.1753   17.9138 N   0  0  0  0  0  0  0  0  0  0  0  0
    9.1682  -14.1034   19.9932 C   0  0  0  0  0  0  0  0  0  0  0  0
    9.6639  -13.6005   21.0622 O   0  0  0  0  0  0  0  0  0  0  0  0
    9.3536  -15.5027   19.8608 N   0  0  0  0  0  0  0  0  0  0  0  0
    9.9679  -16.2872   20.9401 C   0  0  1  0  0  0  0  0  0  0  0  0
    9.4863  -17.6976   20.9460 C   0  0  0  0  0  0  0  0  0  0  0  0
   10.1123  -18.4240   22.0799 C   0  0  0  0  0  0  0  0  0  0  0  0
   10.2762  -17.8932   23.2206 O   0  0  0  0  0  0  0  0  0  0  0  0
   11.4303  -16.3022   20.5979 C   0  0  0  0  0  0  0  0  0  0  0  0
   12.4308  -16.2198   21.5496 O   0  0  0  0  0  0  0  0  0  0  0  0
   10.5705  -19.7398   21.9821 O   0  0  0  0  0  0  0  0  0  0  0  0
   11.8428  -16.3925   19.3962 O   0  0  0  0  0  0  0  0  0  0  0  0
  2  1  1  0
  3  2  2  0
  4  5  1  0
  4  2  1  0
  5  6  1  6
  7 11  1  0
  7  5  1  0
  8  7  2  0
 10 12  1  0
 10  9  1  1
 10 11  1  0
 12 14  1  0
 13 12  2  0
 14 15  1  0
 15 16  1  6
 16 17  1  0
 17 21  1  0
 18 17  2  0
 19 20  1  0
 19 15  1  0
 22 19  2  0
M  END
$$$$
