NAD.pdb
     RDKit          3D

 22 21  0  0  1  0  0  0  0  0999 V2000
    8.8045  -14.8347   15.1555 N   0  0  0  0  0  0  0  0  0  0  0  0
    8.0787  -13.8107   15.7507 C   0  0  0  0  0  0  0  0  0  0  0  0
    7.2869  -13.1164   15.0212 O   0  0  0  0  0  0  0  0  0  0  0  0
    8.1360  -13.4437   17.1673 C   0  0  0  0  0  0  0  0  0  0  0  0
    9.0760  -14.3385   17.9360 C   0  0  2  0  0  0  0  0  0  0  0  0
    8.5921  -15.7292   17.8461 N   0  0  0  0  0  0  0  0  0  0  0  0
    9.0697  -13.9479   19.3862 C   0  0  0  0  0  0  0  0  0  0  0  0
    9.4972  -12.8677   19.8287 O   0  0  0  0  0  0  0  0  0  0  0  0
    7.2609  -15.3985   22.2668 C   0  0  0  0  0  0  0  0  0  0  0  0
    8.4861  -14.6300   21.7518 C   0  0  2  0  0  0  0  0  0  0  0  0
    8.5346  -14.8867   20.3263 N   0  0  0  0  0  0  0  0  0  0  0  0
    9.7455  -15.1929   22.3109 C   0  0  0  0  0  0  0  0  0  0  0  0
    9.9733  -15.2301   23.5711 O   0  0  0  0  0  0  0  0  0  0  0  0
   10.7855  -15.7276   21.5093 N   0  0  0  0  0  0  0  0  0  0  0  0
   11.9991  -16.2841   22.1219 C   0  0  1  0  0  0  0  0  0  0  0  0
   12.4305  -17.5453   21.4552 C   0  0  0  0  0  0  0  0  0  0  0  0
   11.6377  -18.6797   21.9938 C   0  0  0  0  0  0  0  0  0  0  0  0
   11.1227  -18.6600   23.1531 O   0  0  0  0  0  0  0  0  0  0  0  0
   13.0519  -15.2443   21.8636 C   0  0  0  0  0  0  0  0  0  0  0  0
   14.3276  -15.3115   22.3942 O   0  0  0  0  0  0  0  0  0  0  0  0
   11.3994  -19.8525   21.2739 O   0  0  0  0  0  0  0  0  0  0  0  0
   12.8309  -14.2254   21.1320 O   0  0  0  0  0  0  0  0  0  0  0  0
  2  1  1  0
  3  2  2  0
  4  5  1  0
  4  2  1  0
  5  6  1  1
  7 11  1  0
  7  5  1  0
  8  7  2  0
 10 12  1  0
 10  9  1  1
 10 11  1  0
 12 14  1  0
 13 12  2  0
 14 15  1  0
 15 16  1  6
 16 17  1  0
 17 21  1  0
 18 17  2  0
 19 20  1  0
 19 15  1  0
 22 19  2  0
M  END
$$$$
