NAD.pdb
     RDKit          3D

 22 21  0  0  1  0  0  0  0  0999 V2000
    7.4983  -15.5990   15.1923 N   0  0  0  0  0  0  0  0  0  0  0  0
    7.7805  -14.3038   15.6079 C   0  0  0  0  0  0  0  0  0  0  0  0
    7.5950  -13.3413   14.7831 O   0  0  0  0  0  0  0  0  0  0  0  0
    8.2811  -13.9287   16.9321 C   0  0  0  0  0  0  0  0  0  0  0  0
    8.5667  -15.1413   17.7826 C   0  0  2  0  0  0  0  0  0  0  0  0
    7.3046  -15.8681   18.0170 N   0  0  0  0  0  0  0  0  0  0  0  0
    9.0952  -14.7054   19.1192 C   0  0  0  0  0  0  0  0  0  0  0  0
   10.1550  -14.0784   19.2895 O   0  0  0  0  0  0  0  0  0  0  0  0
    7.5252  -14.9731   22.5177 C   0  0  0  0  0  0  0  0  0  0  0  0
    8.7419  -14.6924   21.6246 C   0  0  2  0  0  0  0  0  0  0  0  0
    8.3244  -15.0366   20.2801 N   0  0  0  0  0  0  0  0  0  0  0  0
    9.8682  -15.6096   21.9497 C   0  0  0  0  0  0  0  0  0  0  0  0
    9.9629  -16.7792   21.4354 O   0  0  0  0  0  0  0  0  0  0  0  0
   10.9165  -15.2733   22.8430 N   0  0  0  0  0  0  0  0  0  0  0  0
   12.0534  -16.1808   23.0468 C   0  0  1  0  0  0  0  0  0  0  0  0
   13.3562  -15.4583   23.0047 C   0  0  0  0  0  0  0  0  0  0  0  0
   14.4611  -16.4283   23.2133 C   0  0  0  0  0  0  0  0  0  0  0  0
   14.4811  -17.5673   22.6547 O   0  0  0  0  0  0  0  0  0  0  0  0
   11.8622  -16.7030   24.4420 C   0  0  0  0  0  0  0  0  0  0  0  0
   10.8654  -16.2520   25.2885 O   0  0  0  0  0  0  0  0  0  0  0  0
   15.5581  -16.1682   24.0377 O   0  0  0  0  0  0  0  0  0  0  0  0
   12.6155  -17.6033   24.9363 O   0  0  0  0  0  0  0  0  0  0  0  0
  2  1  1  0
  3  2  2  0
  4  5  1  0
  4  2  1  0
  5  6  1  1
  7 11  1  0
  7  5  1  0
  8  7  2  0
 10 12  1  0
 10  9  1  1
 10 11  1  0
 12 14  1  0
 13 12  2  0
 14 15  1  0
 15 16  1  1
 16 17  1  0
 17 21  1  0
 18 17  2  0
 19 20  1  0
 19 15  1  0
 22 19  2  0
M  END
$$$$
