NAD.pdb
     RDKit          3D

 22 21  0  0  1  0  0  0  0  0999 V2000
    7.9863  -13.0310   15.4778 N   0  0  0  0  0  0  0  0  0  0  0  0
    7.4140  -13.9022   16.3960 C   0  0  0  0  0  0  0  0  0  0  0  0
    6.7624  -14.9141   15.9572 O   0  0  0  0  0  0  0  0  0  0  0  0
    7.4891  -13.7679   17.8524 C   0  0  0  0  0  0  0  0  0  0  0  0
    8.5826  -14.6284   18.4346 C   0  0  2  0  0  0  0  0  0  0  0  0
    8.0900  -16.0142   18.5490 N   0  0  0  0  0  0  0  0  0  0  0  0
    8.9173  -14.1494   19.8182 C   0  0  0  0  0  0  0  0  0  0  0  0
    9.3651  -13.0211   20.0861 O   0  0  0  0  0  0  0  0  0  0  0  0
    7.7734  -14.6398   23.0518 C   0  0  0  0  0  0  0  0  0  0  0  0
    9.0899  -14.7507   22.2699 C   0  0  2  0  0  0  0  0  0  0  0  0
    8.7070  -15.0571   20.9060 N   0  0  0  0  0  0  0  0  0  0  0  0
    9.8951  -15.9116   22.7383 C   0  0  0  0  0  0  0  0  0  0  0  0
    9.5728  -17.1198   22.4590 O   0  0  0  0  0  0  0  0  0  0  0  0
   11.0693  -15.7825   23.5221 N   0  0  0  0  0  0  0  0  0  0  0  0
   11.8441  -16.9654   23.9199 C   0  0  1  0  0  0  0  0  0  0  0  0
   13.2647  -16.6259   24.2161 C   0  0  0  0  0  0  0  0  0  0  0  0
   13.8760  -15.9913   23.0207 C   0  0  0  0  0  0  0  0  0  0  0  0
   14.7772  -15.1025   23.1081 O   0  0  0  0  0  0  0  0  0  0  0  0
   11.2013  -17.4124   25.2018 C   0  0  0  0  0  0  0  0  0  0  0  0
   11.4736  -18.6296   25.8001 O   0  0  0  0  0  0  0  0  0  0  0  0
   13.5088  -16.3173   21.7132 O   0  0  0  0  0  0  0  0  0  0  0  0
   10.3564  -16.6894   25.8227 O   0  0  0  0  0  0  0  0  0  0  0  0
  2  1  1  0
  3  2  2  0
  4  5  1  0
  4  2  1  0
  5  6  1  1
  7 11  1  0
  7  5  1  0
  8  7  2  0
 10 12  1  0
 10  9  1  1
 10 11  1  0
 12 14  1  0
 13 12  2  0
 14 15  1  0
 15 16  1  1
 16 17  1  0
 17 21  1  0
 18 17  2  0
 19 20  1  0
 19 15  1  0
 22 19  2  0
M  END
$$$$
