NAD.pdb
     RDKit          3D

 22 21  0  0  1  0  0  0  0  0999 V2000
    8.1998  -18.3541   16.0835 N   0  0  0  0  0  0  0  0  0  0  0  0
    9.3049  -18.0159   16.8542 C   0  0  0  0  0  0  0  0  0  0  0  0
   10.4207  -18.5976   16.6143 O   0  0  0  0  0  0  0  0  0  0  0  0
    9.3123  -17.0329   17.9398 C   0  0  0  0  0  0  0  0  0  0  0  0
   10.2024  -17.4675   19.0774 C   0  0  2  0  0  0  0  0  0  0  0  0
    9.5936  -18.6362   19.7405 N   0  0  0  0  0  0  0  0  0  0  0  0
   10.2947  -16.3655   20.0936 C   0  0  0  0  0  0  0  0  0  0  0  0
   11.0239  -15.3644   19.9858 O   0  0  0  0  0  0  0  0  0  0  0  0
    8.1796  -15.6514   23.0770 C   0  0  0  0  0  0  0  0  0  0  0  0
    9.5172  -15.4973   22.3395 C   0  0  2  0  0  0  0  0  0  0  0  0
    9.4867  -16.4761   21.2710 N   0  0  0  0  0  0  0  0  0  0  0  0
   10.6585  -15.8828   23.2137 C   0  0  0  0  0  0  0  0  0  0  0  0
   10.8812  -15.3056   24.3356 O   0  0  0  0  0  0  0  0  0  0  0  0
   11.5835  -16.9058   22.8848 N   0  0  0  0  0  0  0  0  0  0  0  0
   12.6893  -17.2421   23.7914 C   0  0  1  0  0  0  0  0  0  0  0  0
   12.6898  -18.6872   24.1557 C   0  0  0  0  0  0  0  0  0  0  0  0
   13.8600  -18.9728   25.0242 C   0  0  0  0  0  0  0  0  0  0  0  0
   14.9678  -19.3822   24.5605 O   0  0  0  0  0  0  0  0  0  0  0  0
   13.9248  -16.9718   22.9811 C   0  0  0  0  0  0  0  0  0  0  0  0
   13.8940  -16.6802   21.6292 O   0  0  0  0  0  0  0  0  0  0  0  0
   13.8350  -18.8176   26.4120 O   0  0  0  0  0  0  0  0  0  0  0  0
   15.0896  -16.9954   23.4958 O   0  0  0  0  0  0  0  0  0  0  0  0
  2  1  1  0
  3  2  2  0
  4  5  1  0
  4  2  1  0
  5  6  1  1
  7 11  1  0
  7  5  1  0
  8  7  2  0
 10 12  1  0
 10  9  1  1
 10 11  1  0
 12 14  1  0
 13 12  2  0
 14 15  1  0
 15 16  1  6
 16 17  1  0
 17 21  1  0
 18 17  2  0
 19 20  1  0
 19 15  1  0
 22 19  2  0
M  END
$$$$
