NAD.pdb
     RDKit          3D

 22 21  0  0  1  0  0  0  0  0999 V2000
    8.3038  -18.2913   15.2377 N   0  0  0  0  0  0  0  0  0  0  0  0
    8.3122  -16.9032   15.1834 C   0  0  0  0  0  0  0  0  0  0  0  0
    8.4987  -16.3353   14.0504 O   0  0  0  0  0  0  0  0  0  0  0  0
    8.1226  -16.0091   16.3276 C   0  0  0  0  0  0  0  0  0  0  0  0
    8.0517  -16.7743   17.6256 C   0  0  2  0  0  0  0  0  0  0  0  0
    6.6363  -16.9312   18.0107 N   0  0  0  0  0  0  0  0  0  0  0  0
    8.7335  -15.9903   18.7100 C   0  0  0  0  0  0  0  0  0  0  0  0
    9.9636  -15.9490   18.8851 O   0  0  0  0  0  0  0  0  0  0  0  0
    7.3206  -13.5754   21.2009 C   0  0  0  0  0  0  0  0  0  0  0  0
    8.4391  -14.5267   20.7529 C   0  0  2  0  0  0  0  0  0  0  0  0
    7.9084  -15.2378   19.6069 N   0  0  0  0  0  0  0  0  0  0  0  0
    8.7077  -15.5626   21.7874 C   0  0  0  0  0  0  0  0  0  0  0  0
    7.9147  -16.5495   21.9836 O   0  0  0  0  0  0  0  0  0  0  0  0
    9.8463  -15.5462   22.6320 N   0  0  0  0  0  0  0  0  0  0  0  0
   10.2170  -16.7288   23.4206 C   0  0  1  0  0  0  0  0  0  0  0  0
   10.9910  -17.7147   22.6142 C   0  0  0  0  0  0  0  0  0  0  0  0
   11.3107  -18.8941   23.4581 C   0  0  0  0  0  0  0  0  0  0  0  0
   10.8408  -19.0416   24.6273 O   0  0  0  0  0  0  0  0  0  0  0  0
   11.1283  -16.1900   24.4861 C   0  0  0  0  0  0  0  0  0  0  0  0
   10.9722  -16.4760   25.8305 O   0  0  0  0  0  0  0  0  0  0  0  0
   12.1509  -19.9272   23.0369 O   0  0  0  0  0  0  0  0  0  0  0  0
   12.1115  -15.4277   24.2131 O   0  0  0  0  0  0  0  0  0  0  0  0
  2  1  1  0
  3  2  2  0
  4  5  1  0
  4  2  1  0
  5  6  1  1
  7 11  1  0
  7  5  1  0
  8  7  2  0
 10 12  1  0
 10  9  1  1
 10 11  1  0
 12 14  1  0
 13 12  2  0
 14 15  1  0
 15 16  1  6
 16 17  1  0
 17 21  1  0
 18 17  2  0
 19 20  1  0
 19 15  1  0
 22 19  2  0
M  END
$$$$
