NAD.pdb
     RDKit          3D

 22 21  0  0  1  0  0  0  0  0999 V2000
    5.7803  -12.5856   19.0898 N   0  0  0  0  0  0  0  0  0  0  0  0
    7.1619  -12.7154   19.0276 C   0  0  0  0  0  0  0  0  0  0  0  0
    7.8862  -11.6933   19.2954 O   0  0  0  0  0  0  0  0  0  0  0  0
    7.8832  -13.9408   18.6770 C   0  0  0  0  0  0  0  0  0  0  0  0
    9.2989  -13.9210   19.1973 C   0  0  2  0  0  0  0  0  0  0  0  0
   10.0855  -12.9571   18.4047 N   0  0  0  0  0  0  0  0  0  0  0  0
    9.9216  -15.2754   19.0140 C   0  0  0  0  0  0  0  0  0  0  0  0
    9.4944  -16.3245   19.5262 O   0  0  0  0  0  0  0  0  0  0  0  0
   12.1146  -16.5817   16.4252 C   0  0  0  0  0  0  0  0  0  0  0  0
   11.7661  -16.6181   17.9199 C   0  0  2  0  0  0  0  0  0  0  0  0
   11.0911  -15.3648   18.1919 N   0  0  0  0  0  0  0  0  0  0  0  0
   12.9966  -16.6091   18.7573 C   0  0  0  0  0  0  0  0  0  0  0  0
   13.8726  -17.5415   18.6890 O   0  0  0  0  0  0  0  0  0  0  0  0
   13.3002  -15.5841   19.6886 N   0  0  0  0  0  0  0  0  0  0  0  0
   14.5254  -15.6388   20.4970 C   0  0  1  0  0  0  0  0  0  0  0  0
   15.3513  -14.4084   20.3392 C   0  0  0  0  0  0  0  0  0  0  0  0
   16.0732  -14.4662   19.0427 C   0  0  0  0  0  0  0  0  0  0  0  0
   16.1028  -13.4872   18.2362 O   0  0  0  0  0  0  0  0  0  0  0  0
   14.0297  -15.6812   21.9143 C   0  0  0  0  0  0  0  0  0  0  0  0
   14.8714  -15.7840   23.0072 O   0  0  0  0  0  0  0  0  0  0  0  0
   16.7703  -15.5958   18.6083 O   0  0  0  0  0  0  0  0  0  0  0  0
   12.7895  -15.6247   22.1989 O   0  0  0  0  0  0  0  0  0  0  0  0
  2  1  1  0
  3  2  2  0
  4  5  1  0
  4  2  1  0
  5  6  1  6
  7 11  1  0
  7  5  1  0
  8  7  2  0
 10 12  1  0
 10  9  1  6
 10 11  1  0
 12 14  1  0
 13 12  2  0
 14 15  1  0
 15 16  1  1
 16 17  1  0
 17 21  1  0
 18 17  2  0
 19 20  1  0
 19 15  1  0
 22 19  2  0
M  END
$$$$
