NAD.pdb
     RDKit          3D

 22 21  0  0  1  0  0  0  0  0999 V2000
    7.7978  -17.0486   14.2987 N   0  0  0  0  0  0  0  0  0  0  0  0
    7.8063  -17.3598   15.6524 C   0  0  0  0  0  0  0  0  0  0  0  0
    7.2574  -18.4528   16.0335 O   0  0  0  0  0  0  0  0  0  0  0  0
    8.3987  -16.5354   16.7080 C   0  0  0  0  0  0  0  0  0  0  0  0
    8.3722  -17.2376   18.0428 C   0  0  2  0  0  0  0  0  0  0  0  0
    6.9682  -17.4517   18.4419 N   0  0  0  0  0  0  0  0  0  0  0  0
    9.0124  -16.3644   19.0836 C   0  0  0  0  0  0  0  0  0  0  0  0
   10.2243  -16.0908   19.1280 O   0  0  0  0  0  0  0  0  0  0  0  0
    7.4438  -14.3656   21.8426 C   0  0  0  0  0  0  0  0  0  0  0  0
    8.6775  -15.0090   21.1938 C   0  0  2  0  0  0  0  0  0  0  0  0
    8.1675  -15.8085   20.0978 N   0  0  0  0  0  0  0  0  0  0  0  0
    9.3351  -15.9658   22.1253 C   0  0  0  0  0  0  0  0  0  0  0  0
    8.8947  -17.1561   22.3004 O   0  0  0  0  0  0  0  0  0  0  0  0
   10.4871  -15.6469   22.8877 N   0  0  0  0  0  0  0  0  0  0  0  0
   11.0951  -16.6381   23.7853 C   0  0  1  0  0  0  0  0  0  0  0  0
   12.5046  -16.2914   24.1234 C   0  0  0  0  0  0  0  0  0  0  0  0
   13.3369  -16.3736   22.8963 C   0  0  0  0  0  0  0  0  0  0  0  0
   12.9670  -17.0131   21.8648 O   0  0  0  0  0  0  0  0  0  0  0  0
   10.2830  -16.5411   25.0451 C   0  0  0  0  0  0  0  0  0  0  0  0
   10.3203  -17.4967   26.0446 O   0  0  0  0  0  0  0  0  0  0  0  0
   14.5865  -15.7605   22.7805 O   0  0  0  0  0  0  0  0  0  0  0  0
    9.5010  -15.5616   25.2719 O   0  0  0  0  0  0  0  0  0  0  0  0
  2  1  1  0
  3  2  2  0
  4  5  1  0
  4  2  1  0
  5  6  1  1
  7 11  1  0
  7  5  1  0
  8  7  2  0
 10 12  1  0
 10  9  1  1
 10 11  1  0
 12 14  1  0
 13 12  2  0
 14 15  1  0
 15 16  1  1
 16 17  1  0
 17 21  1  0
 18 17  2  0
 19 20  1  0
 19 15  1  0
 22 19  2  0
M  END
$$$$
