NAD.pdb
     RDKit          3D

 22 21  0  0  1  0  0  0  0  0999 V2000
    7.2802  -16.0101   12.5805 N   0  0  0  0  0  0  0  0  0  0  0  0
    8.4426  -16.1780   13.3225 C   0  0  0  0  0  0  0  0  0  0  0  0
    9.1237  -17.2507   13.1601 O   0  0  0  0  0  0  0  0  0  0  0  0
    8.9734  -15.2200   14.2946 C   0  0  0  0  0  0  0  0  0  0  0  0
    8.9730  -15.7877   15.6921 C   0  0  2  0  0  0  0  0  0  0  0  0
    7.5839  -16.0945   16.0825 N   0  0  0  0  0  0  0  0  0  0  0  0
    9.4987  -14.7602   16.6530 C   0  0  0  0  0  0  0  0  0  0  0  0
   10.6648  -14.3290   16.6581 O   0  0  0  0  0  0  0  0  0  0  0  0
    7.6966  -12.7886   19.2881 C   0  0  0  0  0  0  0  0  0  0  0  0
    9.0000  -13.2994   18.6579 C   0  0  2  0  0  0  0  0  0  0  0  0
    8.5933  -14.2411   17.6340 N   0  0  0  0  0  0  0  0  0  0  0  0
    9.7984  -14.0834   19.6395 C   0  0  0  0  0  0  0  0  0  0  0  0
    9.5674  -15.3225   19.8690 O   0  0  0  0  0  0  0  0  0  0  0  0
   10.8662  -13.5347   20.3937 N   0  0  0  0  0  0  0  0  0  0  0  0
   11.5859  -14.3475   21.3831 C   0  0  1  0  0  0  0  0  0  0  0  0
   10.7201  -15.4126   21.9636 C   0  0  0  0  0  0  0  0  0  0  0  0
   11.5325  -16.2651   22.8684 C   0  0  0  0  0  0  0  0  0  0  0  0
   12.7582  -16.0347   23.1017 O   0  0  0  0  0  0  0  0  0  0  0  0
   12.6705  -15.0184   20.5896 C   0  0  0  0  0  0  0  0  0  0  0  0
   12.4271  -16.0385   19.6875 O   0  0  0  0  0  0  0  0  0  0  0  0
   11.0174  -17.3829   23.5286 O   0  0  0  0  0  0  0  0  0  0  0  0
   13.8947  -14.6849   20.7008 O   0  0  0  0  0  0  0  0  0  0  0  0
  2  1  1  0
  3  2  2  0
  4  5  1  0
  4  2  1  0
  5  6  1  1
  7 11  1  0
  7  5  1  0
  8  7  2  0
 10 12  1  0
 10  9  1  1
 10 11  1  0
 12 14  1  0
 13 12  2  0
 14 15  1  0
 15 16  1  6
 16 17  1  0
 17 21  1  0
 18 17  2  0
 19 20  1  0
 19 15  1  0
 22 19  2  0
M  END
$$$$
