NAD.pdb
     RDKit          3D

 22 21  0  0  1  0  0  0  0  0999 V2000
    9.3911  -18.2511   16.2872 N   0  0  0  0  0  0  0  0  0  0  0  0
    8.5542  -17.1791   16.5705 C   0  0  0  0  0  0  0  0  0  0  0  0
    7.6469  -16.8688   15.7211 O   0  0  0  0  0  0  0  0  0  0  0  0
    8.6144  -16.3528   17.7782 C   0  0  0  0  0  0  0  0  0  0  0  0
    9.7548  -16.7629   18.6763 C   0  0  2  0  0  0  0  0  0  0  0  0
    9.4593  -18.0907   19.2472 N   0  0  0  0  0  0  0  0  0  0  0  0
    9.8707  -15.7932   19.8172 C   0  0  0  0  0  0  0  0  0  0  0  0
   10.6231  -14.8035   19.8296 O   0  0  0  0  0  0  0  0  0  0  0  0
    7.6612  -15.3055   22.7569 C   0  0  0  0  0  0  0  0  0  0  0  0
    9.0462  -15.1348   22.1170 C   0  0  2  0  0  0  0  0  0  0  0  0
    9.0582  -16.0255   20.9736 N   0  0  0  0  0  0  0  0  0  0  0  0
   10.1198  -15.6225   23.0254 C   0  0  0  0  0  0  0  0  0  0  0  0
   10.2298  -15.2077   24.2326 O   0  0  0  0  0  0  0  0  0  0  0  0
   11.0984  -16.5727   22.6386 N   0  0  0  0  0  0  0  0  0  0  0  0
   12.1384  -17.0094   23.5796 C   0  0  1  0  0  0  0  0  0  0  0  0
   12.5207  -18.4337   23.3643 C   0  0  0  0  0  0  0  0  0  0  0  0
   11.3929  -19.3102   23.7705 C   0  0  0  0  0  0  0  0  0  0  0  0
   10.1880  -19.0532   23.4672 O   0  0  0  0  0  0  0  0  0  0  0  0
   13.3268  -16.1574   23.2362 C   0  0  0  0  0  0  0  0  0  0  0  0
   13.6226  -15.7566   21.9457 O   0  0  0  0  0  0  0  0  0  0  0  0
   11.5660  -20.4783   24.5164 O   0  0  0  0  0  0  0  0  0  0  0  0
   14.1441  -15.7478   24.1231 O   0  0  0  0  0  0  0  0  0  0  0  0
  2  1  1  0
  3  2  2  0
  4  5  1  0
  4  2  1  0
  5  6  1  1
  7 11  1  0
  7  5  1  0
  8  7  2  0
 10 12  1  0
 10  9  1  1
 10 11  1  0
 12 14  1  0
 13 12  2  0
 14 15  1  0
 15 16  1  6
 16 17  1  0
 17 21  1  0
 18 17  2  0
 19 20  1  0
 19 15  1  0
 22 19  2  0
M  END
$$$$
