NAD.pdb
     RDKit          3D

 22 21  0  0  1  0  0  0  0  0999 V2000
    6.8723  -14.5501   15.9819 N   0  0  0  0  0  0  0  0  0  0  0  0
    7.6565  -15.5176   16.5972 C   0  0  0  0  0  0  0  0  0  0  0  0
    7.8137  -16.6445   16.0088 O   0  0  0  0  0  0  0  0  0  0  0  0
    8.3360  -15.3644   17.8855 C   0  0  0  0  0  0  0  0  0  0  0  0
    7.8466  -14.1479   18.6311 C   0  0  2  0  0  0  0  0  0  0  0  0
    8.2039  -12.9407   17.8622 N   0  0  0  0  0  0  0  0  0  0  0  0
    8.5385  -14.0607   19.9613 C   0  0  0  0  0  0  0  0  0  0  0  0
    9.7372  -13.7695   20.1164 O   0  0  0  0  0  0  0  0  0  0  0  0
    7.0739  -13.9397   23.3747 C   0  0  0  0  0  0  0  0  0  0  0  0
    8.2926  -14.1929   22.4761 C   0  0  2  0  0  0  0  0  0  0  0  0
    7.7632  -14.3336   21.1343 N   0  0  0  0  0  0  0  0  0  0  0  0
    8.9355  -15.4958   22.7998 C   0  0  0  0  0  0  0  0  0  0  0  0
    8.4878  -16.6067   22.3449 O   0  0  0  0  0  0  0  0  0  0  0  0
   10.0805  -15.6177   23.6270 N   0  0  0  0  0  0  0  0  0  0  0  0
   10.6099  -16.9385   23.9915 C   0  0  1  0  0  0  0  0  0  0  0  0
   12.0987  -16.9414   24.0597 C   0  0  0  0  0  0  0  0  0  0  0  0
   12.6512  -16.6584   22.7106 C   0  0  0  0  0  0  0  0  0  0  0  0
   12.2508  -17.2646   21.6704 O   0  0  0  0  0  0  0  0  0  0  0  0
   10.0857  -17.1751   25.3790 C   0  0  0  0  0  0  0  0  0  0  0  0
   10.2068  -18.3859   26.0371 O   0  0  0  0  0  0  0  0  0  0  0  0
   13.6511  -15.7109   22.4799 O   0  0  0  0  0  0  0  0  0  0  0  0
    9.4905  -16.2646   26.0415 O   0  0  0  0  0  0  0  0  0  0  0  0
  2  1  1  0
  3  2  2  0
  4  5  1  0
  4  2  1  0
  5  6  1  6
  7 11  1  0
  7  5  1  0
  8  7  2  0
 10 12  1  0
 10  9  1  1
 10 11  1  0
 12 14  1  0
 13 12  2  0
 14 15  1  0
 15 16  1  1
 16 17  1  0
 17 21  1  0
 18 17  2  0
 19 20  1  0
 19 15  1  0
 22 19  2  0
M  END
$$$$
