WES.pdb
     RDKit          3D

 30 31  0  0  1  0  0  0  0  0999 V2000
    8.2482  -15.4976   20.6327 N   0  0  0  0  0  0  0  0  0  0  0  0
    8.2639  -15.1089   22.0315 C   0  0  1  0  0  0  0  0  0  0  0  0
    6.8543  -15.0263   22.5235 C   0  0  0  0  0  0  0  0  0  0  0  0
    6.7726  -14.7677   23.9814 C   0  0  0  0  0  0  0  0  0  0  0  0
    6.5201  -15.7051   24.9605 C   0  0  0  0  0  0  0  0  0  0  0  0
    6.5271  -15.0775   26.1569 N   0  0  0  0  0  0  0  0  0  0  0  0
    6.7712  -13.7755   26.0123 C   0  0  0  0  0  0  0  0  0  0  0  0
    6.8863  -12.7041   26.8722 C   0  0  0  0  0  0  0  0  0  0  0  0
    7.1535  -11.4311   26.4049 C   0  0  0  0  0  0  0  0  0  0  0  0
    7.3090  -11.2250   25.0474 C   0  0  0  0  0  0  0  0  0  0  0  0
    7.1904  -12.3106   24.1987 C   0  0  0  0  0  0  0  0  0  0  0  0
    6.9264  -13.5761   24.6446 C   0  0  0  0  0  0  0  0  0  0  0  0
    8.9424  -16.1975   22.8270 C   0  0  0  0  0  0  0  0  0  0  0  0
    8.3962  -17.3165   22.9449 O   0  0  0  0  0  0  0  0  0  0  0  0
   10.1900  -15.9979   23.4529 N   0  0  0  0  0  0  0  0  0  0  0  0
   10.9382  -16.8526   24.2768 C   0  0  1  0  0  0  0  0  0  0  0  0
   12.4396  -16.7979   24.1964 C   0  0  0  0  0  0  0  0  0  0  0  0
   12.9639  -16.7680   22.7935 C   0  0  0  0  0  0  0  0  0  0  0  0
   14.3504  -16.1927   22.7429 C   0  0  0  0  0  0  0  0  0  0  0  0
   14.9116  -15.7896   23.7779 O   0  0  0  0  0  0  0  0  0  0  0  0
   10.5174  -16.9977   25.6754 C   0  0  0  0  0  0  0  0  0  0  0  0
   10.2670  -15.9562   26.3351 O   0  0  0  0  0  0  0  0  0  0  0  0
   15.0155  -16.1070   21.5391 O   0  0  0  0  0  0  0  0  0  0  0  0
    8.6455  -20.2270   27.1332 O   0  0  0  0  0  0  0  0  0  0  0  0
    8.6815  -19.0643   27.9006 C   0  0  0  0  0  0  0  0  0  0  0  0
   10.0304  -18.4117   27.7081 C   0  0  2  0  0  0  0  0  0  0  0  0
   10.3745  -18.2332   26.3317 N   0  0  0  0  0  0  0  0  0  0  0  0
   11.0796  -19.1768   28.4339 C   0  0  0  0  0  0  0  0  0  0  0  0
   12.0222  -19.6684   27.7668 O   0  0  0  0  0  0  0  0  0  0  0  0
   11.0157  -19.3402   29.8043 O   0  0  0  0  0  0  0  0  0  0  0  0
  2  1  1  6
  2 13  1  0
  3  4  1  0
  3  2  1  0
  4  5  2  0
  5  6  1  0
  7  6  1  0
  8  7  2  0
  9  8  1  0
 10 11  1  0
 10  9  2  0
 11 12  2  0
 12  4  1  0
 12  7  1  0
 13 14  2  0
 13 15  1  0
 15 16  1  0
 16 17  1  1
 16 21  1  0
 18 17  1  0
 19 18  1  0
 20 19  2  0
 21 22  2  0
 23 19  1  0
 26 25  1  6
 25 24  1  0
 26 28  1  0
 27 21  1  0
 27 26  1  0
 28 30  1  0
 29 28  2  0
M  END
$$$$
