WES.pdb
     RDKit          3D

 30 31  0  0  1  0  0  0  0  0999 V2000
    6.8871  -17.2073   23.8816 N   0  0  0  0  0  0  0  0  0  0  0  0
    8.1440  -16.4945   24.0225 C   0  0  1  0  0  0  0  0  0  0  0  0
    8.2659  -16.0081   25.4312 C   0  0  0  0  0  0  0  0  0  0  0  0
    7.2468  -14.9864   25.7727 C   0  0  0  0  0  0  0  0  0  0  0  0
    5.9719  -15.2329   26.2360 C   0  0  0  0  0  0  0  0  0  0  0  0
    5.3565  -14.0457   26.4289 N   0  0  0  0  0  0  0  0  0  0  0  0
    6.1633  -13.0326   26.1154 C   0  0  0  0  0  0  0  0  0  0  0  0
    6.0507  -11.6586   26.1232 C   0  0  0  0  0  0  0  0  0  0  0  0
    7.0981  -10.8479   25.7281 C   0  0  0  0  0  0  0  0  0  0  0  0
    8.2844  -11.4242   25.3159 C   0  0  0  0  0  0  0  0  0  0  0  0
    8.3806  -12.8038   25.3141 C   0  0  0  0  0  0  0  0  0  0  0  0
    7.3542  -13.6201   25.7019 C   0  0  0  0  0  0  0  0  0  0  0  0
    9.2772  -17.4653   23.7948 C   0  0  0  0  0  0  0  0  0  0  0  0
    9.2333  -18.6060   24.3060 O   0  0  0  0  0  0  0  0  0  0  0  0
   10.4025  -17.1299   23.0143 N   0  0  0  0  0  0  0  0  0  0  0  0
   11.7251  -17.5936   23.0838 C   0  0  1  0  0  0  0  0  0  0  0  0
   12.6825  -17.2056   21.9900 C   0  0  0  0  0  0  0  0  0  0  0  0
   12.1772  -17.5138   20.6139 C   0  0  0  0  0  0  0  0  0  0  0  0
   12.8791  -16.6834   19.5777 C   0  0  0  0  0  0  0  0  0  0  0  0
   13.6969  -15.8064   19.9103 O   0  0  0  0  0  0  0  0  0  0  0  0
   12.4030  -17.5385   24.3844 C   0  0  0  0  0  0  0  0  0  0  0  0
   12.3584  -16.4635   25.0364 O   0  0  0  0  0  0  0  0  0  0  0  0
   12.6193  -16.8896   18.2402 O   0  0  0  0  0  0  0  0  0  0  0  0
   11.3426  -19.6120   27.9586 O   0  0  0  0  0  0  0  0  0  0  0  0
   11.4780  -19.4730   26.5786 C   0  0  0  0  0  0  0  0  0  0  0  0
   12.9173  -19.1271   26.2765 C   0  0  2  0  0  0  0  0  0  0  0  0
   13.1044  -18.6160   24.9542 N   0  0  0  0  0  0  0  0  0  0  0  0
   13.7926  -20.3026   26.5318 C   0  0  0  0  0  0  0  0  0  0  0  0
   14.0625  -21.0603   25.5683 O   0  0  0  0  0  0  0  0  0  0  0  0
   14.2933  -20.5510   27.7953 O   0  0  0  0  0  0  0  0  0  0  0  0
  2  1  1  1
  2 13  1  0
  3  4  1  0
  3  2  1  0
  4  5  2  0
  5  6  1  0
  7  6  1  0
  8  7  2  0
  9  8  1  0
 10 11  1  0
 10  9  2  0
 11 12  2  0
 12  4  1  0
 12  7  1  0
 13 14  2  0
 13 15  1  0
 15 16  1  0
 16 17  1  6
 16 21  1  0
 18 17  1  0
 19 18  1  0
 20 19  2  0
 21 22  2  0
 23 19  1  0
 26 25  1  6
 25 24  1  0
 26 28  1  0
 27 21  1  0
 27 26  1  0
 28 30  1  0
 29 28  2  0
M  END
$$$$
