WES.pdb
     RDKit          3D

 30 31  0  0  1  0  0  0  0  0999 V2000
    6.2457  -17.2253   23.5746 N   0  0  0  0  0  0  0  0  0  0  0  0
    7.3959  -16.7544   22.8241 C   0  0  1  0  0  0  0  0  0  0  0  0
    7.5140  -15.2746   23.0030 C   0  0  0  0  0  0  0  0  0  0  0  0
    7.0243  -14.8185   24.3263 C   0  0  0  0  0  0  0  0  0  0  0  0
    6.3916  -15.5973   25.2718 C   0  0  0  0  0  0  0  0  0  0  0  0
    6.1035  -14.8171   26.3365 N   0  0  0  0  0  0  0  0  0  0  0  0
    6.5152  -13.5655   26.1373 C   0  0  0  0  0  0  0  0  0  0  0  0
    6.4776  -12.3989   26.8708 C   0  0  0  0  0  0  0  0  0  0  0  0
    7.0054  -11.2206   26.3773 C   0  0  0  0  0  0  0  0  0  0  0  0
    7.5834  -11.2090   25.1222 C   0  0  0  0  0  0  0  0  0  0  0  0
    7.6128  -12.3879   24.3997 C   0  0  0  0  0  0  0  0  0  0  0  0
    7.0954  -13.5618   24.8733 C   0  0  0  0  0  0  0  0  0  0  0  0
    8.6417  -17.3679   23.4156 C   0  0  0  0  0  0  0  0  0  0  0  0
    8.6004  -17.8920   24.5506 O   0  0  0  0  0  0  0  0  0  0  0  0
    9.8715  -17.3730   22.7259 N   0  0  0  0  0  0  0  0  0  0  0  0
   11.1167  -17.9038   23.0961 C   0  0  1  0  0  0  0  0  0  0  0  0
   12.2639  -17.7904   22.1294 C   0  0  0  0  0  0  0  0  0  0  0  0
   12.6626  -16.3766   21.8356 C   0  0  0  0  0  0  0  0  0  0  0  0
   13.9672  -16.3222   21.0934 C   0  0  0  0  0  0  0  0  0  0  0  0
   14.2196  -17.1364   20.1869 O   0  0  0  0  0  0  0  0  0  0  0  0
   11.5885  -17.6543   24.4634 C   0  0  0  0  0  0  0  0  0  0  0  0
   11.9787  -16.4953   24.7587 O   0  0  0  0  0  0  0  0  0  0  0  0
   14.9013  -15.3613   21.4149 O   0  0  0  0  0  0  0  0  0  0  0  0
   10.2633  -19.4088   27.7004 O   0  0  0  0  0  0  0  0  0  0  0  0
   11.1769  -18.3699   27.8686 C   0  0  0  0  0  0  0  0  0  0  0  0
   12.2102  -18.4658   26.7706 C   0  0  2  0  0  0  0  0  0  0  0  0
   11.6338  -18.6325   25.4727 N   0  0  0  0  0  0  0  0  0  0  0  0
   13.1835  -19.5491   27.0742 C   0  0  0  0  0  0  0  0  0  0  0  0
   13.3013  -20.4876   26.2493 O   0  0  0  0  0  0  0  0  0  0  0  0
   13.9356  -19.5204   28.2329 O   0  0  0  0  0  0  0  0  0  0  0  0
  2  1  1  1
  2 13  1  0
  3  4  1  0
  3  2  1  0
  4  5  2  0
  5  6  1  0
  7  6  1  0
  8  7  2  0
  9  8  1  0
 10 11  1  0
 10  9  2  0
 11 12  2  0
 12  4  1  0
 12  7  1  0
 13 14  2  0
 13 15  1  0
 15 16  1  0
 16 17  1  6
 16 21  1  0
 18 17  1  0
 19 18  1  0
 20 19  2  0
 21 22  2  0
 23 19  1  0
 26 25  1  1
 25 24  1  0
 26 28  1  0
 27 21  1  0
 27 26  1  0
 28 30  1  0
 29 28  2  0
M  END
$$$$
