WES.pdb
     RDKit          3D

 30 31  0  0  1  0  0  0  0  0999 V2000
    6.3539  -17.4088   23.8908 N   0  0  0  0  0  0  0  0  0  0  0  0
    7.4172  -16.8081   23.1058 C   0  0  1  0  0  0  0  0  0  0  0  0
    7.2237  -15.3255   23.0888 C   0  0  0  0  0  0  0  0  0  0  0  0
    6.8758  -14.7796   24.4229 C   0  0  0  0  0  0  0  0  0  0  0  0
    6.2280  -15.4563   25.4345 C   0  0  0  0  0  0  0  0  0  0  0  0
    6.0974  -14.6182   26.4861 N   0  0  0  0  0  0  0  0  0  0  0  0
    6.6267  -13.4256   26.2155 C   0  0  0  0  0  0  0  0  0  0  0  0
    6.7638  -12.2407   26.9067 C   0  0  0  0  0  0  0  0  0  0  0  0
    7.3806  -11.1424   26.3378 C   0  0  0  0  0  0  0  0  0  0  0  0
    7.8710  -11.2311   25.0490 C   0  0  0  0  0  0  0  0  0  0  0  0
    7.7252  -12.4270   24.3698 C   0  0  0  0  0  0  0  0  0  0  0  0
    7.1178  -13.5228   24.9179 C   0  0  0  0  0  0  0  0  0  0  0  0
    8.7336  -17.0702   23.7962 C   0  0  0  0  0  0  0  0  0  0  0  0
    8.7469  -17.5209   24.9629 O   0  0  0  0  0  0  0  0  0  0  0  0
    9.9700  -16.8222   23.1656 N   0  0  0  0  0  0  0  0  0  0  0  0
   11.2769  -17.1128   23.5861 C   0  0  1  0  0  0  0  0  0  0  0  0
   12.4282  -16.5171   22.8225 C   0  0  0  0  0  0  0  0  0  0  0  0
   13.7701  -16.9606   23.3190 C   0  0  0  0  0  0  0  0  0  0  0  0
   14.8766  -16.3968   22.4740 C   0  0  0  0  0  0  0  0  0  0  0  0
   14.7344  -16.2606   21.2453 O   0  0  0  0  0  0  0  0  0  0  0  0
   11.5580  -17.0728   25.0261 C   0  0  0  0  0  0  0  0  0  0  0  0
   11.6074  -15.9515   25.5944 O   0  0  0  0  0  0  0  0  0  0  0  0
   16.0667  -16.0234   23.0598 O   0  0  0  0  0  0  0  0  0  0  0  0
   10.4526  -19.8641   27.6936 O   0  0  0  0  0  0  0  0  0  0  0  0
   10.8700  -18.5879   28.0668 C   0  0  0  0  0  0  0  0  0  0  0  0
   12.0636  -18.2136   27.2196 C   0  0  2  0  0  0  0  0  0  0  0  0
   11.7775  -18.2136   25.8186 N   0  0  0  0  0  0  0  0  0  0  0  0
   13.2167  -19.0982   27.5371 C   0  0  0  0  0  0  0  0  0  0  0  0
   13.7463  -19.7406   26.5979 O   0  0  0  0  0  0  0  0  0  0  0  0
   13.6894  -19.2078   28.8307 O   0  0  0  0  0  0  0  0  0  0  0  0
  2  1  1  1
  2 13  1  0
  3  4  1  0
  3  2  1  0
  4  5  2  0
  5  6  1  0
  7  6  1  0
  8  7  2  0
  9  8  1  0
 10 11  1  0
 10  9  2  0
 11 12  2  0
 12  4  1  0
 12  7  1  0
 13 14  2  0
 13 15  1  0
 15 16  1  0
 16 17  1  6
 16 21  1  0
 18 17  1  0
 19 18  1  0
 20 19  2  0
 21 22  2  0
 23 19  1  0
 26 25  1  1
 25 24  1  0
 26 28  1  0
 27 21  1  0
 27 26  1  0
 28 30  1  0
 29 28  2  0
M  END
$$$$
