WES.pdb
     RDKit          3D

 30 31  0  0  1  0  0  0  0  0999 V2000
    6.5630  -18.0059   24.1617 N   0  0  0  0  0  0  0  0  0  0  0  0
    6.6965  -16.6357   23.7007 C   0  0  1  0  0  0  0  0  0  0  0  0
    7.6847  -15.9290   24.5724 C   0  0  0  0  0  0  0  0  0  0  0  0
    7.0360  -15.0440   25.5698 C   0  0  0  0  0  0  0  0  0  0  0  0
    6.0468  -15.4081   26.4584 C   0  0  0  0  0  0  0  0  0  0  0  0
    5.7215  -14.3234   27.1952 N   0  0  0  0  0  0  0  0  0  0  0  0
    6.4475  -13.2657   26.8348 C   0  0  0  0  0  0  0  0  0  0  0  0
    6.5227  -11.9507   27.2421 C   0  0  0  0  0  0  0  0  0  0  0  0
    7.4063  -11.0645   26.6553 C   0  0  0  0  0  0  0  0  0  0  0  0
    8.2329  -11.5031   25.6385 C   0  0  0  0  0  0  0  0  0  0  0  0
    8.1446  -12.8252   25.2421 C   0  0  0  0  0  0  0  0  0  0  0  0
    7.2762  -13.7147   25.8121 C   0  0  0  0  0  0  0  0  0  0  0  0
    7.2741  -16.6501   22.3062 C   0  0  0  0  0  0  0  0  0  0  0  0
    8.0186  -17.5896   21.9493 O   0  0  0  0  0  0  0  0  0  0  0  0
    7.0018  -15.6274   21.3746 N   0  0  0  0  0  0  0  0  0  0  0  0
    7.8298  -15.0386   20.4065 C   0  0  1  0  0  0  0  0  0  0  0  0
    7.4889  -13.6601   19.9096 C   0  0  0  0  0  0  0  0  0  0  0  0
    8.3780  -13.1856   18.8013 C   0  0  0  0  0  0  0  0  0  0  0  0
    8.3258  -14.1177   17.6247 C   0  0  0  0  0  0  0  0  0  0  0  0
    7.2372  -14.5364   17.1909 O   0  0  0  0  0  0  0  0  0  0  0  0
    9.2819  -15.1627   20.5798 C   0  0  0  0  0  0  0  0  0  0  0  0
   10.0183  -15.0239   19.5693 O   0  0  0  0  0  0  0  0  0  0  0  0
    9.4937  -14.5186   17.0130 O   0  0  0  0  0  0  0  0  0  0  0  0
   10.8604  -16.7316   24.0196 O   0  0  0  0  0  0  0  0  0  0  0  0
   11.6893  -15.7578   23.4658 C   0  0  0  0  0  0  0  0  0  0  0  0
   11.3157  -15.5895   22.0115 C   0  0  2  0  0  0  0  0  0  0  0  0
    9.9092  -15.4287   21.8100 N   0  0  0  0  0  0  0  0  0  0  0  0
   11.8520  -16.7214   21.2090 C   0  0  0  0  0  0  0  0  0  0  0  0
   11.0391  -17.4281   20.5648 O   0  0  0  0  0  0  0  0  0  0  0  0
   13.2078  -16.9853   21.1755 O   0  0  0  0  0  0  0  0  0  0  0  0
  2  1  1  1
  2 13  1  0
  3  4  1  0
  3  2  1  0
  4  5  2  0
  5  6  1  0
  7  6  1  0
  8  7  2  0
  9  8  1  0
 10 11  1  0
 10  9  2  0
 11 12  2  0
 12  4  1  0
 12  7  1  0
 13 14  2  0
 13 15  1  0
 15 16  1  0
 16 17  1  1
 16 21  1  0
 18 17  1  0
 19 18  1  0
 20 19  2  0
 21 22  2  0
 23 19  1  0
 26 25  1  1
 25 24  1  0
 26 28  1  0
 27 21  1  0
 27 26  1  0
 28 30  1  0
 29 28  2  0
M  END
$$$$
