WES.pdb
     RDKit          3D

 30 31  0  0  1  0  0  0  0  0999 V2000
    6.0467  -17.4035   23.7374 N   0  0  0  0  0  0  0  0  0  0  0  0
    6.9840  -16.8768   22.7618 C   0  0  1  0  0  0  0  0  0  0  0  0
    7.0106  -15.3861   22.8764 C   0  0  0  0  0  0  0  0  0  0  0  0
    6.7329  -14.9142   24.2545 C   0  0  0  0  0  0  0  0  0  0  0  0
    6.3041  -15.6918   25.3092 C   0  0  0  0  0  0  0  0  0  0  0  0
    6.1669  -14.8952   26.3919 N   0  0  0  0  0  0  0  0  0  0  0  0
    6.4840  -13.6341   26.1006 C   0  0  0  0  0  0  0  0  0  0  0  0
    6.5204  -12.4506   26.8066 C   0  0  0  0  0  0  0  0  0  0  0  0
    6.9050  -11.2660   26.2070 C   0  0  0  0  0  0  0  0  0  0  0  0
    7.2609  -11.2653   24.8718 C   0  0  0  0  0  0  0  0  0  0  0  0
    7.2188  -12.4612   24.1784 C   0  0  0  0  0  0  0  0  0  0  0  0
    6.8408  -13.6415   24.7564 C   0  0  0  0  0  0  0  0  0  0  0  0
    8.3685  -17.3675   23.1093 C   0  0  0  0  0  0  0  0  0  0  0  0
    8.5465  -18.0538   24.1398 O   0  0  0  0  0  0  0  0  0  0  0  0
    9.4880  -17.0771   22.3028 N   0  0  0  0  0  0  0  0  0  0  0  0
   10.8325  -17.4519   22.4487 C   0  0  1  0  0  0  0  0  0  0  0  0
   11.7942  -17.1304   21.3373 C   0  0  0  0  0  0  0  0  0  0  0  0
   11.4147  -17.7382   20.0218 C   0  0  0  0  0  0  0  0  0  0  0  0
   11.7824  -16.8355   18.8790 C   0  0  0  0  0  0  0  0  0  0  0  0
   12.8111  -17.0411   18.2096 O   0  0  0  0  0  0  0  0  0  0  0  0
   11.4726  -17.2150   23.7480 C   0  0  0  0  0  0  0  0  0  0  0  0
   12.3442  -16.3114   23.8288 O   0  0  0  0  0  0  0  0  0  0  0  0
   10.9753  -15.7645   18.5619 O   0  0  0  0  0  0  0  0  0  0  0  0
    9.7920  -18.2762   27.2919 O   0  0  0  0  0  0  0  0  0  0  0  0
   10.8453  -17.3637   27.2801 C   0  0  0  0  0  0  0  0  0  0  0  0
   11.8082  -17.7663   26.1877 C   0  0  2  0  0  0  0  0  0  0  0  0
   11.1739  -17.9367   24.9174 N   0  0  0  0  0  0  0  0  0  0  0  0
   12.5570  -18.9880   26.5874 C   0  0  0  0  0  0  0  0  0  0  0  0
   13.1935  -18.9651   27.6689 O   0  0  0  0  0  0  0  0  0  0  0  0
   12.5503  -20.1151   25.7884 O   0  0  0  0  0  0  0  0  0  0  0  0
  2  1  1  1
  2 13  1  0
  3  4  1  0
  3  2  1  0
  4  5  2  0
  5  6  1  0
  7  6  1  0
  8  7  2  0
  9  8  1  0
 10 11  1  0
 10  9  2  0
 11 12  2  0
 12  4  1  0
 12  7  1  0
 13 14  2  0
 13 15  1  0
 15 16  1  0
 16 17  1  6
 16 21  1  0
 18 17  1  0
 19 18  1  0
 20 19  2  0
 21 22  2  0
 23 19  1  0
 26 25  1  1
 25 24  1  0
 26 28  1  0
 27 21  1  0
 27 26  1  0
 28 30  1  0
 29 28  2  0
M  END
$$$$
