WES.pdb
     RDKit          3D

 30 31  0  0  1  0  0  0  0  0999 V2000
    6.8349  -18.0099   25.0317 N   0  0  0  0  0  0  0  0  0  0  0  0
    7.4642  -17.1235   24.0693 C   0  0  1  0  0  0  0  0  0  0  0  0
    8.1092  -15.9936   24.8062 C   0  0  0  0  0  0  0  0  0  0  0  0
    7.1214  -15.0885   25.4419 C   0  0  0  0  0  0  0  0  0  0  0  0
    5.9800  -15.4733   26.1128 C   0  0  0  0  0  0  0  0  0  0  0  0
    5.3482  -14.3594   26.5433 N   0  0  0  0  0  0  0  0  0  0  0  0
    6.0174  -13.2630   26.1886 C   0  0  0  0  0  0  0  0  0  0  0  0
    5.8300  -11.9082   26.3616 C   0  0  0  0  0  0  0  0  0  0  0  0
    6.7299  -10.9869   25.8599 C   0  0  0  0  0  0  0  0  0  0  0  0
    7.8419  -11.4305   25.1699 C   0  0  0  0  0  0  0  0  0  0  0  0
    8.0147  -12.7927   25.0053 C   0  0  0  0  0  0  0  0  0  0  0  0
    7.1342  -13.7173   25.4952 C   0  0  0  0  0  0  0  0  0  0  0  0
    8.5689  -17.8775   23.3696 C   0  0  0  0  0  0  0  0  0  0  0  0
    9.1832  -18.7851   23.9723 O   0  0  0  0  0  0  0  0  0  0  0  0
    8.9411  -17.5929   22.0398 N   0  0  0  0  0  0  0  0  0  0  0  0
   10.1769  -17.7433   21.3921 C   0  0  1  0  0  0  0  0  0  0  0  0
   10.2874  -17.3349   19.9482 C   0  0  0  0  0  0  0  0  0  0  0  0
   11.5967  -17.7025   19.3200 C   0  0  0  0  0  0  0  0  0  0  0  0
   11.6301  -17.3197   17.8680 C   0  0  0  0  0  0  0  0  0  0  0  0
   11.4748  -16.1360   17.5169 O   0  0  0  0  0  0  0  0  0  0  0  0
   11.3856  -17.3390   22.1199 C   0  0  0  0  0  0  0  0  0  0  0  0
   11.6610  -16.1132   22.1865 O   0  0  0  0  0  0  0  0  0  0  0  0
   11.8348  -18.2859   16.9070 O   0  0  0  0  0  0  0  0  0  0  0  0
   13.6120  -20.1438   24.1494 O   0  0  0  0  0  0  0  0  0  0  0  0
   13.6642  -18.8521   24.6701 C   0  0  0  0  0  0  0  0  0  0  0  0
   13.3960  -17.8779   23.5469 C   0  0  2  0  0  0  0  0  0  0  0  0
   12.2628  -18.2378   22.7524 N   0  0  0  0  0  0  0  0  0  0  0  0
   14.6140  -17.7115   22.7092 C   0  0  0  0  0  0  0  0  0  0  0  0
   15.6615  -17.2975   23.2629 O   0  0  0  0  0  0  0  0  0  0  0  0
   14.5900  -18.0054   21.3594 O   0  0  0  0  0  0  0  0  0  0  0  0
  2  1  1  1
  2 13  1  0
  3  4  1  0
  3  2  1  0
  4  5  2  0
  5  6  1  0
  7  6  1  0
  8  7  2  0
  9  8  1  0
 10 11  1  0
 10  9  2  0
 11 12  2  0
 12  4  1  0
 12  7  1  0
 13 14  2  0
 13 15  1  0
 15 16  1  0
 16 17  1  6
 16 21  1  0
 18 17  1  0
 19 18  1  0
 20 19  2  0
 21 22  2  0
 23 19  1  0
 26 25  1  1
 25 24  1  0
 26 28  1  0
 27 21  1  0
 27 26  1  0
 28 30  1  0
 29 28  2  0
M  END
$$$$
