WES.pdb
     RDKit          3D

 30 31  0  0  1  0  0  0  0  0999 V2000
    6.9149  -17.3057   24.5625 N   0  0  0  0  0  0  0  0  0  0  0  0
    7.3155  -16.7415   23.2861 C   0  0  1  0  0  0  0  0  0  0  0  0
    7.0576  -15.2689   23.3090 C   0  0  0  0  0  0  0  0  0  0  0  0
    6.7047  -14.7719   24.6608 C   0  0  0  0  0  0  0  0  0  0  0  0
    6.0175  -15.4709   25.6304 C   0  0  0  0  0  0  0  0  0  0  0  0
    5.8964  -14.6768   26.7167 N   0  0  0  0  0  0  0  0  0  0  0  0
    6.4694  -13.4918   26.5088 C   0  0  0  0  0  0  0  0  0  0  0  0
    6.6335  -12.3444   27.2551 C   0  0  0  0  0  0  0  0  0  0  0  0
    7.2960  -11.2431   26.7464 C   0  0  0  0  0  0  0  0  0  0  0  0
    7.8056  -11.2906   25.4629 C   0  0  0  0  0  0  0  0  0  0  0  0
    7.6322  -12.4492   24.7279 C   0  0  0  0  0  0  0  0  0  0  0  0
    6.9795  -13.5473   25.2161 C   0  0  0  0  0  0  0  0  0  0  0  0
    8.8052  -16.9229   23.1249 C   0  0  0  0  0  0  0  0  0  0  0  0
    9.4973  -17.2940   24.0984 O   0  0  0  0  0  0  0  0  0  0  0  0
    9.4578  -16.6861   21.8977 N   0  0  0  0  0  0  0  0  0  0  0  0
   10.8132  -16.8047   21.5536 C   0  0  1  0  0  0  0  0  0  0  0  0
   11.2702  -16.2576   20.2287 C   0  0  0  0  0  0  0  0  0  0  0  0
   12.6895  -16.6019   19.8956 C   0  0  0  0  0  0  0  0  0  0  0  0
   13.1085  -15.9824   18.5931 C   0  0  0  0  0  0  0  0  0  0  0  0
   14.1694  -15.3378   18.5057 O   0  0  0  0  0  0  0  0  0  0  0  0
   11.8111  -16.5079   22.5881 C   0  0  0  0  0  0  0  0  0  0  0  0
   11.8745  -15.3348   23.0381 O   0  0  0  0  0  0  0  0  0  0  0  0
   12.3133  -16.1252   17.4767 O   0  0  0  0  0  0  0  0  0  0  0  0
   13.0729  -19.3387   24.9584 O   0  0  0  0  0  0  0  0  0  0  0  0
   13.4480  -18.0620   25.3723 C   0  0  0  0  0  0  0  0  0  0  0  0
   13.6698  -17.2119   24.1431 C   0  0  2  0  0  0  0  0  0  0  0  0
   12.7078  -17.4553   23.1135 N   0  0  0  0  0  0  0  0  0  0  0  0
   15.0584  -17.3888   23.6399 C   0  0  0  0  0  0  0  0  0  0  0  0
   15.2146  -17.7650   22.4527 O   0  0  0  0  0  0  0  0  0  0  0  0
   16.1443  -17.1449   24.4586 O   0  0  0  0  0  0  0  0  0  0  0  0
  2  1  1  1
  2 13  1  0
  3  4  1  0
  3  2  1  0
  4  5  2  0
  5  6  1  0
  7  6  1  0
  8  7  2  0
  9  8  1  0
 10 11  1  0
 10  9  2  0
 11 12  2  0
 12  4  1  0
 12  7  1  0
 13 14  2  0
 13 15  1  0
 15 16  1  0
 16 17  1  6
 16 21  1  0
 18 17  1  0
 19 18  1  0
 20 19  2  0
 21 22  2  0
 23 19  1  0
 26 25  1  1
 25 24  1  0
 26 28  1  0
 27 21  1  0
 27 26  1  0
 28 30  1  0
 29 28  2  0
M  END
$$$$
