WES.pdb
     RDKit          3D

 30 31  0  0  1  0  0  0  0  0999 V2000
    7.0219  -16.5855   22.8523 N   0  0  0  0  0  0  0  0  0  0  0  0
    8.2883  -15.9092   23.0684 C   0  0  1  0  0  0  0  0  0  0  0  0
    8.5192  -15.7793   24.5400 C   0  0  0  0  0  0  0  0  0  0  0  0
    7.4749  -14.9694   25.2127 C   0  0  0  0  0  0  0  0  0  0  0  0
    6.2392  -15.4187   25.6277 C   0  0  0  0  0  0  0  0  0  0  0  0
    5.5821  -14.3827   26.1935 N   0  0  0  0  0  0  0  0  0  0  0  0
    6.3242  -13.2762   26.1707 C   0  0  0  0  0  0  0  0  0  0  0  0
    6.1502  -11.9770   26.5978 C   0  0  0  0  0  0  0  0  0  0  0  0
    7.1370  -11.0244   26.4269 C   0  0  0  0  0  0  0  0  0  0  0  0
    8.3242  -11.3792   25.8153 C   0  0  0  0  0  0  0  0  0  0  0  0
    8.4825  -12.6865   25.3928 C   0  0  0  0  0  0  0  0  0  0  0  0
    7.5165  -13.6409   25.5542 C   0  0  0  0  0  0  0  0  0  0  0  0
    9.3974  -16.7774   22.5259 C   0  0  0  0  0  0  0  0  0  0  0  0
    9.2870  -17.2943   21.3923 O   0  0  0  0  0  0  0  0  0  0  0  0
   10.5735  -17.0323   23.2607 N   0  0  0  0  0  0  0  0  0  0  0  0
   11.8558  -17.3963   22.8220 C   0  0  1  0  0  0  0  0  0  0  0  0
   12.4102  -16.7343   21.5900 C   0  0  0  0  0  0  0  0  0  0  0  0
   12.6341  -17.6805   20.4504 C   0  0  0  0  0  0  0  0  0  0  0  0
   12.3518  -17.0202   19.1313 C   0  0  0  0  0  0  0  0  0  0  0  0
   12.9500  -15.9814   18.7973 O   0  0  0  0  0  0  0  0  0  0  0  0
   12.9113  -17.5364   23.8322 C   0  0  0  0  0  0  0  0  0  0  0  0
   13.5928  -16.5215   24.1291 O   0  0  0  0  0  0  0  0  0  0  0  0
   11.4202  -17.5658   18.2749 O   0  0  0  0  0  0  0  0  0  0  0  0
   13.0155  -21.0440   25.9218 O   0  0  0  0  0  0  0  0  0  0  0  0
   13.2210  -19.8833   26.6652 C   0  0  0  0  0  0  0  0  0  0  0  0
   13.8605  -18.8519   25.7653 C   0  0  2  0  0  0  0  0  0  0  0  0
   13.2137  -18.7393   24.4950 N   0  0  0  0  0  0  0  0  0  0  0  0
   15.3128  -19.1347   25.6105 C   0  0  0  0  0  0  0  0  0  0  0  0
   15.7544  -19.3494   24.4555 O   0  0  0  0  0  0  0  0  0  0  0  0
   16.1499  -19.1599   26.7094 O   0  0  0  0  0  0  0  0  0  0  0  0
  2  1  1  1
  2 13  1  0
  3  4  1  0
  3  2  1  0
  4  5  2  0
  5  6  1  0
  7  6  1  0
  8  7  2  0
  9  8  1  0
 10 11  1  0
 10  9  2  0
 11 12  2  0
 12  4  1  0
 12  7  1  0
 13 14  2  0
 13 15  1  0
 15 16  1  0
 16 17  1  6
 16 21  1  0
 18 17  1  0
 19 18  1  0
 20 19  2  0
 21 22  2  0
 23 19  1  0
 26 25  1  1
 25 24  1  0
 26 28  1  0
 27 21  1  0
 27 26  1  0
 28 30  1  0
 29 28  2  0
M  END
$$$$
