WES.pdb
     RDKit          3D

 30 31  0  0  1  0  0  0  0  0999 V2000
    8.7913  -17.3725   25.0787 N   0  0  0  0  0  0  0  0  0  0  0  0
    9.3397  -16.3025   24.2650 C   0  0  1  0  0  0  0  0  0  0  0  0
    9.3692  -15.0474   25.0772 C   0  0  0  0  0  0  0  0  0  0  0  0
    8.0142  -14.5850   25.4632 C   0  0  0  0  0  0  0  0  0  0  0  0
    6.9321  -15.3893   25.7514 C   0  0  0  0  0  0  0  0  0  0  0  0
    5.8844  -14.5930   26.0575 N   0  0  0  0  0  0  0  0  0  0  0  0
    6.2245  -13.3066   25.9846 C   0  0  0  0  0  0  0  0  0  0  0  0
    5.5676  -12.1118   26.1882 C   0  0  0  0  0  0  0  0  0  0  0  0
    6.2119  -10.8994   26.0289 C   0  0  0  0  0  0  0  0  0  0  0  0
    7.5428  -10.8817   25.6578 C   0  0  0  0  0  0  0  0  0  0  0  0
    8.1868  -12.0891   25.4575 C   0  0  0  0  0  0  0  0  0  0  0  0
    7.5642  -13.2969   25.6108 C   0  0  0  0  0  0  0  0  0  0  0  0
   10.7717  -16.6391   23.9268 C   0  0  0  0  0  0  0  0  0  0  0  0
   11.7029  -16.1636   24.6131 O   0  0  0  0  0  0  0  0  0  0  0  0
   11.1055  -17.4837   22.8482 N   0  0  0  0  0  0  0  0  0  0  0  0
   12.3190  -17.6403   22.1610 C   0  0  1  0  0  0  0  0  0  0  0  0
   13.0907  -18.9187   22.3447 C   0  0  0  0  0  0  0  0  0  0  0  0
   13.8742  -18.9677   23.6205 C   0  0  0  0  0  0  0  0  0  0  0  0
   13.8850  -20.3535   24.1997 C   0  0  0  0  0  0  0  0  0  0  0  0
   14.2506  -20.5515   25.3726 O   0  0  0  0  0  0  0  0  0  0  0  0
   12.3683  -17.2243   20.7544 C   0  0  0  0  0  0  0  0  0  0  0  0
   11.5617  -17.7526   19.9463 O   0  0  0  0  0  0  0  0  0  0  0  0
   13.4863  -21.4238   23.4287 O   0  0  0  0  0  0  0  0  0  0  0  0
   14.0354  -13.8221   18.9356 O   0  0  0  0  0  0  0  0  0  0  0  0
   13.3142  -14.8125   18.2713 C   0  0  0  0  0  0  0  0  0  0  0  0
   13.6719  -16.1479   18.8807 C   0  0  2  0  0  0  0  0  0  0  0  0
   13.2644  -16.2670   20.2462 N   0  0  0  0  0  0  0  0  0  0  0  0
   15.1278  -16.4103   18.7250 C   0  0  0  0  0  0  0  0  0  0  0  0
   15.6239  -16.3325   17.5747 O   0  0  0  0  0  0  0  0  0  0  0  0
   15.9100  -16.7304   19.8180 O   0  0  0  0  0  0  0  0  0  0  0  0
  2  1  1  1
  2 13  1  0
  3  4  1  0
  3  2  1  0
  4  5  2  0
  5  6  1  0
  7  6  1  0
  8  7  2  0
  9  8  1  0
 10 11  1  0
 10  9  2  0
 11 12  2  0
 12  4  1  0
 12  7  1  0
 13 14  2  0
 13 15  1  0
 15 16  1  0
 16 17  1  6
 16 21  1  0
 18 17  1  0
 19 18  1  0
 20 19  2  0
 21 22  2  0
 23 19  1  0
 26 25  1  1
 25 24  1  0
 26 28  1  0
 27 21  1  0
 27 26  1  0
 28 30  1  0
 29 28  2  0
M  END
$$$$
