WES.pdb
     RDKit          3D

 30 31  0  0  1  0  0  0  0  0999 V2000
    6.8749  -17.2922   20.4473 N   0  0  0  0  0  0  0  0  0  0  0  0
    7.4883  -16.2119   21.1986 C   0  0  1  0  0  0  0  0  0  0  0  0
    6.4112  -15.4183   21.8663 C   0  0  0  0  0  0  0  0  0  0  0  0
    6.9401  -14.2471   22.6063 C   0  0  0  0  0  0  0  0  0  0  0  0
    7.5802  -13.1579   22.0542 C   0  0  0  0  0  0  0  0  0  0  0  0
    7.9076  -12.3099   23.0537 N   0  0  0  0  0  0  0  0  0  0  0  0
    7.5146  -12.7878   24.2339 C   0  0  0  0  0  0  0  0  0  0  0  0
    7.5910  -12.3474   25.5381 C   0  0  0  0  0  0  0  0  0  0  0  0
    7.0738  -13.0924   26.5812 C   0  0  0  0  0  0  0  0  0  0  0  0
    6.4668  -14.3046   26.3140 C   0  0  0  0  0  0  0  0  0  0  0  0
    6.3987  -14.7316   25.0003 C   0  0  0  0  0  0  0  0  0  0  0  0
    6.9051  -14.0070   23.9570 C   0  0  0  0  0  0  0  0  0  0  0  0
    8.3368  -16.8083   22.2953 C   0  0  0  0  0  0  0  0  0  0  0  0
    7.8565  -17.6826   23.0498 O   0  0  0  0  0  0  0  0  0  0  0  0
    9.6732  -16.4107   22.5053 N   0  0  0  0  0  0  0  0  0  0  0  0
   10.6482  -16.9295   23.3710 C   0  0  1  0  0  0  0  0  0  0  0  0
   12.0974  -16.7790   22.9959 C   0  0  0  0  0  0  0  0  0  0  0  0
   12.4914  -17.5797   21.7927 C   0  0  0  0  0  0  0  0  0  0  0  0
   13.9255  -17.3331   21.4207 C   0  0  0  0  0  0  0  0  0  0  0  0
   14.2702  -17.2547   20.2275 O   0  0  0  0  0  0  0  0  0  0  0  0
   10.4780  -16.7004   24.8106 C   0  0  0  0  0  0  0  0  0  0  0  0
   10.6476  -15.5356   25.2545 O   0  0  0  0  0  0  0  0  0  0  0  0
   14.8769  -17.1910   22.4073 O   0  0  0  0  0  0  0  0  0  0  0  0
    8.3441  -19.2160   27.1634 O   0  0  0  0  0  0  0  0  0  0  0  0
    8.6187  -17.9384   27.6478 C   0  0  0  0  0  0  0  0  0  0  0  0
    9.9813  -17.5239   27.1438 C   0  0  2  0  0  0  0  0  0  0  0  0
   10.1353  -17.7045   25.7337 N   0  0  0  0  0  0  0  0  0  0  0  0
   11.0470  -18.2344   27.9005 C   0  0  0  0  0  0  0  0  0  0  0  0
   11.0373  -18.1549   29.1530 O   0  0  0  0  0  0  0  0  0  0  0  0
   12.0191  -18.9610   27.2402 O   0  0  0  0  0  0  0  0  0  0  0  0
  2  1  1  1
  2 13  1  0
  3  4  1  0
  3  2  1  0
  4  5  2  0
  5  6  1  0
  7  6  1  0
  8  7  2  0
  9  8  1  0
 10 11  1  0
 10  9  2  0
 11 12  2  0
 12  4  1  0
 12  7  1  0
 13 14  2  0
 13 15  1  0
 15 16  1  0
 16 17  1  6
 16 21  1  0
 18 17  1  0
 19 18  1  0
 20 19  2  0
 21 22  2  0
 23 19  1  0
 26 25  1  1
 25 24  1  0
 26 28  1  0
 27 21  1  0
 27 26  1  0
 28 30  1  0
 29 28  2  0
M  END
$$$$
