WES.pdb
     RDKit          3D

 30 31  0  0  1  0  0  0  0  0999 V2000
    6.3242  -17.5243   24.9097 N   0  0  0  0  0  0  0  0  0  0  0  0
    7.3912  -16.7512   24.2999 C   0  0  1  0  0  0  0  0  0  0  0  0
    7.9780  -15.8432   25.3328 C   0  0  0  0  0  0  0  0  0  0  0  0
    7.0217  -14.8069   25.7918 C   0  0  0  0  0  0  0  0  0  0  0  0
    5.7241  -15.0236   26.2041 C   0  0  0  0  0  0  0  0  0  0  0  0
    5.1845  -13.8319   26.5420 N   0  0  0  0  0  0  0  0  0  0  0  0
    6.0626  -12.8441   26.3719 C   0  0  0  0  0  0  0  0  0  0  0  0
    6.0406  -11.4781   26.5564 C   0  0  0  0  0  0  0  0  0  0  0  0
    7.1471  -10.6965   26.2820 C   0  0  0  0  0  0  0  0  0  0  0  0
    8.3011  -11.2944   25.8127 C   0  0  0  0  0  0  0  0  0  0  0  0
    8.3061  -12.6657   25.6333 C   0  0  0  0  0  0  0  0  0  0  0  0
    7.2204  -13.4533   25.8999 C   0  0  0  0  0  0  0  0  0  0  0  0
    8.4882  -17.6961   23.8732 C   0  0  0  0  0  0  0  0  0  0  0  0
    8.6769  -18.7587   24.5054 O   0  0  0  0  0  0  0  0  0  0  0  0
    9.3227  -17.4220   22.7702 N   0  0  0  0  0  0  0  0  0  0  0  0
   10.6986  -17.6376   22.5984 C   0  0  1  0  0  0  0  0  0  0  0  0
   11.3893  -16.9861   21.4314 C   0  0  0  0  0  0  0  0  0  0  0  0
   12.8291  -17.3759   21.2932 C   0  0  0  0  0  0  0  0  0  0  0  0
   13.4431  -16.7643   20.0664 C   0  0  0  0  0  0  0  0  0  0  0  0
   14.3784  -17.3302   19.4718 O   0  0  0  0  0  0  0  0  0  0  0  0
   11.5562  -17.5712   23.7876 C   0  0  0  0  0  0  0  0  0  0  0  0
   12.1117  -16.4766   24.0633 O   0  0  0  0  0  0  0  0  0  0  0  0
   12.9702  -15.5618   19.5876 O   0  0  0  0  0  0  0  0  0  0  0  0
   11.1440  -20.2505   26.7410 O   0  0  0  0  0  0  0  0  0  0  0  0
   11.8201  -19.0752   27.0631 C   0  0  0  0  0  0  0  0  0  0  0  0
   12.5827  -18.6178   25.8417 C   0  0  2  0  0  0  0  0  0  0  0  0
   11.8000  -18.6584   24.6456 N   0  0  0  0  0  0  0  0  0  0  0  0
   13.8371  -19.4039   25.6950 C   0  0  0  0  0  0  0  0  0  0  0  0
   14.6576  -19.3923   26.6447 O   0  0  0  0  0  0  0  0  0  0  0  0
   14.0894  -20.1257   24.5443 O   0  0  0  0  0  0  0  0  0  0  0  0
  2  1  1  1
  2 13  1  0
  3  4  1  0
  3  2  1  0
  4  5  2  0
  5  6  1  0
  7  6  1  0
  8  7  2  0
  9  8  1  0
 10 11  1  0
 10  9  2  0
 11 12  2  0
 12  4  1  0
 12  7  1  0
 13 14  2  0
 13 15  1  0
 15 16  1  0
 16 17  1  6
 16 21  1  0
 18 17  1  0
 19 18  1  0
 20 19  2  0
 21 22  2  0
 23 19  1  0
 26 25  1  1
 25 24  1  0
 26 28  1  0
 27 21  1  0
 27 26  1  0
 28 30  1  0
 29 28  2  0
M  END
$$$$
