TTW.pdb
     RDKit          3D

 29 30  0  0  1  0  0  0  0  0999 V2000
   22.3537  -17.2101  -16.1030 C   0  0  0  0  0  0  0  0  0  0  0  0
   23.2913  -18.1991  -15.4947 C   0  0  1  0  0  0  0  0  0  0  0  0
   22.7894  -19.4964  -15.4342 O   0  0  0  0  0  0  0  0  0  0  0  0
   24.6325  -18.1517  -16.1967 C   0  0  2  0  0  0  0  0  0  0  0  0
   24.5012  -18.5111  -17.5950 N   0  0  0  0  0  0  0  0  0  0  0  0
   25.5521  -19.1032  -15.5286 C   0  0  0  0  0  0  0  0  0  0  0  0
   26.3168  -19.8769  -16.1805 O   0  0  0  0  0  0  0  0  0  0  0  0
   28.1191  -19.3216  -15.3346 C   0  0  0  0  0  0  0  0  0  0  0  0
   27.9548  -19.4938  -13.8567 C   0  0  1  0  0  0  0  0  0  0  0  0
   28.2545  -18.2823  -13.2444 O   0  0  0  0  0  0  0  0  0  0  0  0
   26.5888  -20.0046  -13.4527 C   0  0  2  0  0  0  0  0  0  0  0  0
   25.6031  -19.1764  -14.0876 N   0  0  0  0  0  0  0  0  0  0  0  0
   26.4234  -20.0030  -11.9742 C   0  0  0  0  0  0  0  0  0  0  0  0
   25.8332  -19.0078  -11.4924 O   0  0  0  0  0  0  0  0  0  0  0  0
   26.9285  -21.0919  -11.2463 N   0  0  0  0  0  0  0  0  0  0  0  0
   26.4979  -21.2446   -9.8418 C   0  0  1  0  0  0  0  0  0  0  0  0
   27.1253  -20.1360   -9.0825 C   0  0  0  0  0  0  0  0  0  0  0  0
   26.8396  -20.1060   -7.6448 C   0  0  0  0  0  0  0  0  0  0  0  0
   25.5799  -20.3338   -7.0691 C   0  0  0  0  0  0  0  0  0  0  0  0
   25.6810  -20.1975   -5.7544 N   0  0  0  0  0  0  0  0  0  0  0  0
   26.9327  -19.8907   -5.3922 C   0  0  0  0  0  0  0  0  0  0  0  0
   27.5419  -19.6664   -4.1735 C   0  0  0  0  0  0  0  0  0  0  0  0
   28.8919  -19.3830   -4.1323 C   0  0  0  0  0  0  0  0  0  0  0  0
   29.6411  -19.3204   -5.2883 C   0  0  0  0  0  0  0  0  0  0  0  0
   28.9997  -19.5484   -6.4789 C   0  0  0  0  0  0  0  0  0  0  0  0
   27.6518  -19.8337   -6.5597 C   0  0  0  0  0  0  0  0  0  0  0  0
   25.0479  -21.3448   -9.7739 C   0  0  0  0  0  0  0  0  0  0  0  0
   24.2304  -20.9539  -10.8103 O   0  0  0  0  0  0  0  0  0  0  0  0
   24.4855  -21.7940   -8.7463 O   0  0  0  0  0  0  0  0  0  0  0  0
  2  1  1  6
  3  2  1  0
  4  5  1  6
  4  2  1  0
  4  6  1  0
  6  7  2  0
  9 11  1  0
  9  8  1  6
 10  9  1  0
 11 13  1  0
 12  6  1  0
 11 12  1  6
 13 14  2  0
 15 13  1  0
 15 16  1  0
 16 27  1  0
 16 17  1  1
 18 17  1  0
 19 18  2  0
 20 21  1  0
 20 19  1  0
 21 26  2  0
 22 21  1  0
 22 23  2  0
 23 24  1  0
 24 25  2  0
 26 18  1  0
 26 25  1  0
 27 28  1  0
 29 27  2  0
M  END
$$$$
