TTW.pdb
     RDKit          3D

 29 30  0  0  1  0  0  0  0  0999 V2000
   22.5615  -24.4047  -16.7134 C   0  0  0  0  0  0  0  0  0  0  0  0
   23.5993  -23.9573  -15.7388 C   0  0  1  0  0  0  0  0  0  0  0  0
   23.6624  -24.7279  -14.5809 O   0  0  0  0  0  0  0  0  0  0  0  0
   24.9495  -23.8584  -16.4177 C   0  0  2  0  0  0  0  0  0  0  0  0
   25.4350  -25.1686  -16.8043 N   0  0  0  0  0  0  0  0  0  0  0  0
   25.9103  -23.2362  -15.4758 C   0  0  0  0  0  0  0  0  0  0  0  0
   26.8849  -23.8786  -14.9798 O   0  0  0  0  0  0  0  0  0  0  0  0
   28.0333  -19.1857  -13.7735 C   0  0  0  0  0  0  0  0  0  0  0  0
   27.1057  -19.9277  -14.6846 C   0  0  1  0  0  0  0  0  0  0  0  0
   27.7185  -20.0399  -15.9273 O   0  0  0  0  0  0  0  0  0  0  0  0
   26.6748  -21.2750  -14.1470 C   0  0  2  0  0  0  0  0  0  0  0  0
   25.7594  -21.8533  -15.0895 N   0  0  0  0  0  0  0  0  0  0  0  0
   26.0551  -21.1498  -12.8003 C   0  0  0  0  0  0  0  0  0  0  0  0
   24.8264  -20.9026  -12.7861 O   0  0  0  0  0  0  0  0  0  0  0  0
   26.8740  -21.3152  -11.6722 N   0  0  0  0  0  0  0  0  0  0  0  0
   26.2806  -21.0628  -10.3435 C   0  0  1  0  0  0  0  0  0  0  0  0
   27.4014  -21.0556   -9.3724 C   0  0  0  0  0  0  0  0  0  0  0  0
   27.0609  -20.6389   -8.0086 C   0  0  0  0  0  0  0  0  0  0  0  0
   25.7647  -20.3476   -7.5555 C   0  0  0  0  0  0  0  0  0  0  0  0
   25.8309  -19.9753   -6.2850 N   0  0  0  0  0  0  0  0  0  0  0  0
   27.0925  -19.9936   -5.8380 C   0  0  0  0  0  0  0  0  0  0  0  0
   27.6727  -19.7137   -4.6166 C   0  0  0  0  0  0  0  0  0  0  0  0
   29.0377  -19.8510   -4.4669 C   0  0  0  0  0  0  0  0  0  0  0  0
   29.8305  -20.2629   -5.5174 C   0  0  0  0  0  0  0  0  0  0  0  0
   29.2172  -20.5306   -6.7145 C   0  0  0  0  0  0  0  0  0  0  0  0
   27.8557  -20.4041   -6.9022 C   0  0  0  0  0  0  0  0  0  0  0  0
   25.4475  -19.8707  -10.3888 C   0  0  0  0  0  0  0  0  0  0  0  0
   24.1478  -19.8594   -9.9351 O   0  0  0  0  0  0  0  0  0  0  0  0
   25.8940  -18.7960  -10.8573 O   0  0  0  0  0  0  0  0  0  0  0  0
  2  1  1  6
  3  2  1  0
  4  5  1  1
  4  2  1  0
  4  6  1  0
  6  7  2  0
  9 11  1  0
  9  8  1  1
 10  9  1  0
 11 13  1  0
 12  6  1  0
 11 12  1  6
 13 14  2  0
 15 13  1  0
 15 16  1  0
 16 27  1  0
 16 17  1  1
 18 17  1  0
 19 18  2  0
 20 21  1  0
 20 19  1  0
 21 26  2  0
 22 21  1  0
 22 23  2  0
 23 24  1  0
 24 25  2  0
 26 18  1  0
 26 25  1  0
 27 28  1  0
 29 27  2  0
M  END
$$$$
