TTW.pdb
     RDKit          3D

 29 30  0  0  1  0  0  0  0  0999 V2000
   26.0750  -27.5069  -19.0003 C   0  0  0  0  0  0  0  0  0  0  0  0
   26.4615  -27.6381  -17.5648 C   0  0  1  0  0  0  0  0  0  0  0  0
   26.7511  -28.9416  -17.1704 O   0  0  0  0  0  0  0  0  0  0  0  0
   27.5970  -26.6907  -17.2379 C   0  0  2  0  0  0  0  0  0  0  0  0
   28.6196  -27.3548  -16.4536 N   0  0  0  0  0  0  0  0  0  0  0  0
   27.0538  -25.5457  -16.4690 C   0  0  0  0  0  0  0  0  0  0  0  0
   27.0994  -25.4978  -15.2025 O   0  0  0  0  0  0  0  0  0  0  0  0
   27.7496  -21.7070  -17.1995 C   0  0  0  0  0  0  0  0  0  0  0  0
   26.2929  -22.0517  -17.1867 C   0  0  1  0  0  0  0  0  0  0  0  0
   25.8588  -22.1431  -18.5042 O   0  0  0  0  0  0  0  0  0  0  0  0
   25.9719  -23.3048  -16.4014 C   0  0  2  0  0  0  0  0  0  0  0  0
   26.4453  -24.4309  -17.1555 N   0  0  0  0  0  0  0  0  0  0  0  0
   24.5143  -23.4148  -16.1254 C   0  0  0  0  0  0  0  0  0  0  0  0
   23.8344  -23.9927  -17.0056 O   0  0  0  0  0  0  0  0  0  0  0  0
   24.0208  -22.8761  -14.9266 N   0  0  0  0  0  0  0  0  0  0  0  0
   22.5757  -23.0083  -14.6519 C   0  0  1  0  0  0  0  0  0  0  0  0
   22.4459  -23.3418  -13.2127 C   0  0  0  0  0  0  0  0  0  0  0  0
   22.8002  -22.2713  -12.2756 C   0  0  0  0  0  0  0  0  0  0  0  0
   21.9156  -21.2894  -11.8029 C   0  0  0  0  0  0  0  0  0  0  0  0
   22.5789  -20.4685  -11.0008 N   0  0  0  0  0  0  0  0  0  0  0  0
   23.8642  -20.8268  -10.8934 C   0  0  0  0  0  0  0  0  0  0  0  0
   24.9367  -20.3202  -10.1865 C   0  0  0  0  0  0  0  0  0  0  0  0
   26.1633  -20.9466  -10.2738 C   0  0  0  0  0  0  0  0  0  0  0  0
   26.3342  -22.0697  -11.0555 C   0  0  0  0  0  0  0  0  0  0  0  0
   25.2454  -22.5420  -11.7428 C   0  0  0  0  0  0  0  0  0  0  0  0
   24.0040  -21.9422  -11.6808 C   0  0  0  0  0  0  0  0  0  0  0  0
   21.8706  -21.8225  -15.1141 C   0  0  0  0  0  0  0  0  0  0  0  0
   20.5163  -21.8171  -15.3617 O   0  0  0  0  0  0  0  0  0  0  0  0
   22.4875  -20.7480  -15.3112 O   0  0  0  0  0  0  0  0  0  0  0  0
  2  1  1  6
  3  2  1  0
  4  5  1  1
  4  2  1  0
  4  6  1  0
  6  7  2  0
  9 11  1  0
  9  8  1  6
 10  9  1  0
 11 13  1  0
 12  6  1  0
 11 12  1  6
 13 14  2  0
 15 13  1  0
 15 16  1  0
 16 27  1  0
 16 17  1  1
 18 17  1  0
 19 18  2  0
 20 21  1  0
 20 19  1  0
 21 26  2  0
 22 21  1  0
 22 23  2  0
 23 24  1  0
 24 25  2  0
 26 18  1  0
 26 25  1  0
 27 28  1  0
 29 27  2  0
M  END
$$$$
