TTW.pdb
     RDKit          3D

 29 30  0  0  1  0  0  0  0  0999 V2000
   34.8348   -5.0931  -17.9492 C   0  0  0  0  0  0  0  0  0  0  0  0
   33.6903   -5.8532  -18.5318 C   0  0  1  0  0  0  0  0  0  0  0  0
   33.3081   -5.4231  -19.7997 O   0  0  0  0  0  0  0  0  0  0  0  0
   33.9818   -7.3393  -18.5108 C   0  0  2  0  0  0  0  0  0  0  0  0
   35.0706   -7.6689  -19.4095 N   0  0  0  0  0  0  0  0  0  0  0  0
   32.7610   -8.0687  -18.9291 C   0  0  0  0  0  0  0  0  0  0  0  0
   32.6416   -8.5844  -20.0816 O   0  0  0  0  0  0  0  0  0  0  0  0
   31.4049  -11.0988  -17.5121 C   0  0  0  0  0  0  0  0  0  0  0  0
   30.2932  -10.0971  -17.4723 C   0  0  1  0  0  0  0  0  0  0  0  0
   30.1495   -9.6629  -16.1595 O   0  0  0  0  0  0  0  0  0  0  0  0
   30.4834   -8.9401  -18.4289 C   0  0  2  0  0  0  0  0  0  0  0  0
   31.6516   -8.2148  -18.0167 N   0  0  0  0  0  0  0  0  0  0  0  0
   29.2851   -8.0591  -18.4613 C   0  0  0  0  0  0  0  0  0  0  0  0
   29.3885   -6.9744  -17.8417 O   0  0  0  0  0  0  0  0  0  0  0  0
   28.1544   -8.4982  -19.1680 N   0  0  0  0  0  0  0  0  0  0  0  0
   26.9956   -7.5867  -19.2544 C   0  0  1  0  0  0  0  0  0  0  0  0
   27.5047   -6.3026  -19.7940 C   0  0  0  0  0  0  0  0  0  0  0  0
   26.4926   -5.2745  -20.0551 C   0  0  0  0  0  0  0  0  0  0  0  0
   25.6314   -4.7289  -19.0902 C   0  0  0  0  0  0  0  0  0  0  0  0
   24.8299   -3.8535  -19.6804 N   0  0  0  0  0  0  0  0  0  0  0  0
   25.0883   -3.7641  -20.9908 C   0  0  0  0  0  0  0  0  0  0  0  0
   24.5567   -3.0061  -22.0153 C   0  0  0  0  0  0  0  0  0  0  0  0
   25.0694   -3.1341  -23.2901 C   0  0  0  0  0  0  0  0  0  0  0  0
   26.1036   -4.0066  -23.5564 C   0  0  0  0  0  0  0  0  0  0  0  0
   26.6041   -4.7423  -22.5128 C   0  0  0  0  0  0  0  0  0  0  0  0
   26.1168   -4.6420  -21.2255 C   0  0  0  0  0  0  0  0  0  0  0  0
   25.9155   -8.2234  -19.9927 C   0  0  0  0  0  0  0  0  0  0  0  0
   24.5904   -8.0469  -19.6635 O   0  0  0  0  0  0  0  0  0  0  0  0
   26.1626   -8.9728  -20.9681 O   0  0  0  0  0  0  0  0  0  0  0  0
  2  1  1  6
  3  2  1  0
  4  5  1  6
  4  2  1  0
  4  6  1  0
  6  7  2  0
  9 11  1  0
  9  8  1  1
 10  9  1  0
 11 13  1  0
 12  6  1  0
 11 12  1  1
 13 14  2  0
 15 13  1  0
 15 16  1  0
 16 27  1  0
 16 17  1  6
 18 17  1  0
 19 18  2  0
 20 21  1  0
 20 19  1  0
 21 26  2  0
 22 21  1  0
 22 23  2  0
 23 24  1  0
 24 25  2  0
 26 18  1  0
 26 25  1  0
 27 28  1  0
 29 27  2  0
M  END
$$$$
