TTW.pdb
     RDKit          3D

 29 30  0  0  1  0  0  0  0  0999 V2000
   28.1429  -23.9036  -19.4884 C   0  0  0  0  0  0  0  0  0  0  0  0
   28.0464  -23.4102  -18.0832 C   0  0  1  0  0  0  0  0  0  0  0  0
   28.1595  -24.4093  -17.1202 O   0  0  0  0  0  0  0  0  0  0  0  0
   29.0429  -22.2939  -17.8491 C   0  0  2  0  0  0  0  0  0  0  0  0
   30.4037  -22.7708  -17.9993 N   0  0  0  0  0  0  0  0  0  0  0  0
   28.8545  -21.7694  -16.4755 C   0  0  0  0  0  0  0  0  0  0  0  0
   29.6439  -22.0588  -15.5259 O   0  0  0  0  0  0  0  0  0  0  0  0
   28.4123  -18.0948  -15.6366 C   0  0  0  0  0  0  0  0  0  0  0  0
   27.3083  -18.8735  -14.9919 C   0  0  1  0  0  0  0  0  0  0  0  0
   26.1415  -18.6474  -15.7130 O   0  0  0  0  0  0  0  0  0  0  0  0
   27.6066  -20.3507  -14.8548 C   0  0  2  0  0  0  0  0  0  0  0  0
   27.7441  -20.8970  -16.1752 N   0  0  0  0  0  0  0  0  0  0  0  0
   26.5407  -21.0516  -14.0894 C   0  0  0  0  0  0  0  0  0  0  0  0
   25.6882  -21.6626  -14.7757 O   0  0  0  0  0  0  0  0  0  0  0  0
   26.5694  -20.9786  -12.6878 N   0  0  0  0  0  0  0  0  0  0  0  0
   25.5004  -21.6677  -11.9371 C   0  0  1  0  0  0  0  0  0  0  0  0
   26.1251  -22.2025  -10.7031 C   0  0  0  0  0  0  0  0  0  0  0  0
   26.2737  -21.2496   -9.5988 C   0  0  0  0  0  0  0  0  0  0  0  0
   25.3671  -20.2223   -9.2942 C   0  0  0  0  0  0  0  0  0  0  0  0
   25.8307  -19.5378   -8.2579 N   0  0  0  0  0  0  0  0  0  0  0  0
   26.9995  -20.0324   -7.8322 C   0  0  0  0  0  0  0  0  0  0  0  0
   27.8575  -19.6939   -6.8047 C   0  0  0  0  0  0  0  0  0  0  0  0
   29.0062  -20.4332   -6.6089 C   0  0  0  0  0  0  0  0  0  0  0  0
   29.3101  -21.5039   -7.4231 C   0  0  0  0  0  0  0  0  0  0  0  0
   28.4335  -21.8083   -8.4330 C   0  0  0  0  0  0  0  0  0  0  0  0
   27.2759  -21.0918   -8.6598 C   0  0  0  0  0  0  0  0  0  0  0  0
   24.3628  -20.7777  -11.7608 C   0  0  0  0  0  0  0  0  0  0  0  0
   23.0930  -21.2430  -11.5032 O   0  0  0  0  0  0  0  0  0  0  0  0
   24.5049  -19.5341  -11.8454 O   0  0  0  0  0  0  0  0  0  0  0  0
  2  1  1  6
  3  2  1  0
  4  5  1  1
  4  2  1  0
  4  6  1  0
  6  7  2  0
  9 11  1  0
  9  8  1  6
 10  9  1  0
 11 13  1  0
 12  6  1  0
 11 12  1  6
 13 14  2  0
 15 13  1  0
 15 16  1  0
 16 27  1  0
 16 17  1  1
 18 17  1  0
 19 18  2  0
 20 21  1  0
 20 19  1  0
 21 26  2  0
 22 21  1  0
 22 23  2  0
 23 24  1  0
 24 25  2  0
 26 18  1  0
 26 25  1  0
 27 28  1  0
 29 27  2  0
M  END
$$$$
