TTW.pdb
     RDKit          3D

 29 30  0  0  1  0  0  0  0  0999 V2000
   29.1673  -22.5789  -16.9674 C   0  0  0  0  0  0  0  0  0  0  0  0
   28.5520  -21.9690  -15.7523 C   0  0  1  0  0  0  0  0  0  0  0  0
   29.4226  -21.8505  -14.6722 O   0  0  0  0  0  0  0  0  0  0  0  0
   27.9088  -20.6423  -16.0989 C   0  0  2  0  0  0  0  0  0  0  0  0
   28.8738  -19.7336  -16.6861 N   0  0  0  0  0  0  0  0  0  0  0  0
   27.3595  -20.0426  -14.8596 C   0  0  0  0  0  0  0  0  0  0  0  0
   27.7659  -18.9293  -14.4081 O   0  0  0  0  0  0  0  0  0  0  0  0
   23.5248  -21.1733  -13.3477 C   0  0  0  0  0  0  0  0  0  0  0  0
   24.2944  -19.9005  -13.1786 C   0  0  1  0  0  0  0  0  0  0  0  0
   23.7060  -19.1730  -12.1505 O   0  0  0  0  0  0  0  0  0  0  0  0
   25.7739  -20.1120  -12.9418 C   0  0  2  0  0  0  0  0  0  0  0  0
   26.3254  -20.7240  -14.1173 N   0  0  0  0  0  0  0  0  0  0  0  0
   26.0172  -20.9466  -11.7345 C   0  0  0  0  0  0  0  0  0  0  0  0
   26.7718  -21.9341  -11.8970 O   0  0  0  0  0  0  0  0  0  0  0  0
   25.3982  -20.5735  -10.5310 N   0  0  0  0  0  0  0  0  0  0  0  0
   25.6511  -21.4043   -9.3364 C   0  0  1  0  0  0  0  0  0  0  0  0
   27.0751  -21.2044   -8.9739 C   0  0  0  0  0  0  0  0  0  0  0  0
   27.3336  -20.2084   -7.9296 C   0  0  0  0  0  0  0  0  0  0  0  0
   26.8127  -18.9051   -7.9130 C   0  0  0  0  0  0  0  0  0  0  0  0
   27.2764  -18.2742   -6.8434 N   0  0  0  0  0  0  0  0  0  0  0  0
   28.0831  -19.0643   -6.1245 C   0  0  0  0  0  0  0  0  0  0  0  0
   28.7850  -18.8885   -4.9485 C   0  0  0  0  0  0  0  0  0  0  0  0
   29.5312  -19.9328   -4.4415 C   0  0  0  0  0  0  0  0  0  0  0  0
   29.5866  -21.1481   -5.0907 C   0  0  0  0  0  0  0  0  0  0  0  0
   28.8765  -21.2834   -6.2562 C   0  0  0  0  0  0  0  0  0  0  0  0
   28.1201  -20.2618   -6.7939 C   0  0  0  0  0  0  0  0  0  0  0  0
   24.6668  -21.1081   -8.3067 C   0  0  0  0  0  0  0  0  0  0  0  0
   24.5850  -21.8247   -7.1340 O   0  0  0  0  0  0  0  0  0  0  0  0
   23.8415  -20.1757   -8.4603 O   0  0  0  0  0  0  0  0  0  0  0  0
  2  1  1  6
  3  2  1  0
  4  5  1  1
  4  2  1  0
  4  6  1  0
  6  7  2  0
  9 11  1  0
  9  8  1  1
 10  9  1  0
 11 13  1  0
 12  6  1  0
 11 12  1  6
 13 14  2  0
 15 13  1  0
 15 16  1  0
 16 27  1  0
 16 17  1  1
 18 17  1  0
 19 18  2  0
 20 21  1  0
 20 19  1  0
 21 26  2  0
 22 21  1  0
 22 23  2  0
 23 24  1  0
 24 25  2  0
 26 18  1  0
 26 25  1  0
 27 28  1  0
 29 27  2  0
M  END
$$$$
