TTW.pdb
     RDKit          3D

 29 30  0  0  1  0  0  0  0  0999 V2000
   17.5720  -13.4860  -17.3057 C   0  0  0  0  0  0  0  0  0  0  0  0
   18.7225  -14.2047  -17.9278 C   0  0  1  0  0  0  0  0  0  0  0  0
   18.4411  -15.5175  -18.2963 O   0  0  0  0  0  0  0  0  0  0  0  0
   19.2751  -13.4051  -19.0893 C   0  0  2  0  0  0  0  0  0  0  0  0
   20.3146  -14.1420  -19.7808 N   0  0  0  0  0  0  0  0  0  0  0  0
   19.8358  -12.1358  -18.5681 C   0  0  0  0  0  0  0  0  0  0  0  0
   20.9621  -12.0808  -17.9875 O   0  0  0  0  0  0  0  0  0  0  0  0
   19.7203   -8.8310  -20.6466 C   0  0  0  0  0  0  0  0  0  0  0  0
   19.2725   -8.5837  -19.2397 C   0  0  1  0  0  0  0  0  0  0  0  0
   17.8943   -8.4017  -19.2505 O   0  0  0  0  0  0  0  0  0  0  0  0
   19.6881   -9.6687  -18.2702 C   0  0  2  0  0  0  0  0  0  0  0  0
   19.0996  -10.9020  -18.7101 N   0  0  0  0  0  0  0  0  0  0  0  0
   19.2767   -9.3409  -16.8787 C   0  0  0  0  0  0  0  0  0  0  0  0
   18.1480   -9.7602  -16.5303 O   0  0  0  0  0  0  0  0  0  0  0  0
   20.1636   -8.6041  -16.0779 N   0  0  0  0  0  0  0  0  0  0  0  0
   19.7035   -8.1892  -14.7372 C   0  0  1  0  0  0  0  0  0  0  0  0
   20.8843   -8.2586  -13.8428 C   0  0  0  0  0  0  0  0  0  0  0  0
   20.7182   -7.6506  -12.5190 C   0  0  0  0  0  0  0  0  0  0  0  0
   20.3287   -8.3393  -11.3597 C   0  0  0  0  0  0  0  0  0  0  0  0
   20.2499   -7.4758  -10.3570 N   0  0  0  0  0  0  0  0  0  0  0  0
   20.5620   -6.2369  -10.7566 C   0  0  0  0  0  0  0  0  0  0  0  0
   20.6432   -5.0208  -10.1078 C   0  0  0  0  0  0  0  0  0  0  0  0
   21.0232   -3.8986  -10.8155 C   0  0  0  0  0  0  0  0  0  0  0  0
   21.3227   -3.9732  -12.1595 C   0  0  0  0  0  0  0  0  0  0  0  0
   21.2296   -5.1986  -12.7683 C   0  0  0  0  0  0  0  0  0  0  0  0
   20.8525   -6.3421  -12.0937 C   0  0  0  0  0  0  0  0  0  0  0  0
   19.0207   -6.9070  -14.8200 C   0  0  0  0  0  0  0  0  0  0  0  0
   17.9685   -6.5751  -13.9966 O   0  0  0  0  0  0  0  0  0  0  0  0
   19.3724   -6.0487  -15.6648 O   0  0  0  0  0  0  0  0  0  0  0  0
  2  1  1  6
  3  2  1  0
  4  5  1  1
  4  2  1  0
  4  6  1  0
  6  7  2  0
  9 11  1  0
  9  8  1  6
 10  9  1  0
 11 13  1  0
 12  6  1  0
 11 12  1  6
 13 14  2  0
 15 13  1  0
 15 16  1  0
 16 27  1  0
 16 17  1  1
 18 17  1  0
 19 18  2  0
 20 21  1  0
 20 19  1  0
 21 26  2  0
 22 21  1  0
 22 23  2  0
 23 24  1  0
 24 25  2  0
 26 18  1  0
 26 25  1  0
 27 28  1  0
 29 27  2  0
M  END
$$$$
