TTW.pdb
     RDKit          3D

 29 30  0  0  1  0  0  0  0  0999 V2000
   29.1047  -20.8790  -17.8408 C   0  0  0  0  0  0  0  0  0  0  0  0
   29.7555  -19.6486  -18.3792 C   0  0  1  0  0  0  0  0  0  0  0  0
   30.1821  -19.7619  -19.6996 O   0  0  0  0  0  0  0  0  0  0  0  0
   28.8516  -18.4489  -18.1856 C   0  0  2  0  0  0  0  0  0  0  0  0
   29.4983  -17.2319  -18.6356 N   0  0  0  0  0  0  0  0  0  0  0  0
   28.5245  -18.3282  -16.7449 C   0  0  0  0  0  0  0  0  0  0  0  0
   29.3606  -17.8966  -15.8944 O   0  0  0  0  0  0  0  0  0  0  0  0
   26.4435  -16.1376  -15.0683 C   0  0  0  0  0  0  0  0  0  0  0  0
   25.9189  -17.4845  -14.6785 C   0  0  1  0  0  0  0  0  0  0  0  0
   24.7510  -17.7175  -15.3956 O   0  0  0  0  0  0  0  0  0  0  0  0
   26.9220  -18.6029  -14.8598 C   0  0  2  0  0  0  0  0  0  0  0  0
   27.2181  -18.7066  -16.2606 N   0  0  0  0  0  0  0  0  0  0  0  0
   26.4047  -19.8895  -14.3211 C   0  0  0  0  0  0  0  0  0  0  0  0
   25.9745  -20.7035  -15.1717 O   0  0  0  0  0  0  0  0  0  0  0  0
   26.4372  -20.0913  -12.9323 N   0  0  0  0  0  0  0  0  0  0  0  0
   26.0252  -21.4119  -12.4152 C   0  0  1  0  0  0  0  0  0  0  0  0
   26.9289  -21.7250  -11.2819 C   0  0  0  0  0  0  0  0  0  0  0  0
   26.6557  -21.0093  -10.0318 C   0  0  0  0  0  0  0  0  0  0  0  0
   25.4366  -20.3948   -9.7056 C   0  0  0  0  0  0  0  0  0  0  0  0
   25.5545  -19.8177   -8.5180 N   0  0  0  0  0  0  0  0  0  0  0  0
   26.7792  -19.9987   -8.0088 C   0  0  0  0  0  0  0  0  0  0  0  0
   27.3829  -19.6194   -6.8263 C   0  0  0  0  0  0  0  0  0  0  0  0
   28.6900  -19.9893   -6.5831 C   0  0  0  0  0  0  0  0  0  0  0  0
   29.4018  -20.7311   -7.5021 C   0  0  0  0  0  0  0  0  0  0  0  0
   28.7678  -21.0879   -8.6647 C   0  0  0  0  0  0  0  0  0  0  0  0
   27.4626  -20.7360   -8.9431 C   0  0  0  0  0  0  0  0  0  0  0  0
   24.5979  -21.4125  -12.1324 C   0  0  0  0  0  0  0  0  0  0  0  0
   23.8639  -22.5731  -12.0349 O   0  0  0  0  0  0  0  0  0  0  0  0
   23.9776  -20.3339  -11.9711 O   0  0  0  0  0  0  0  0  0  0  0  0
  2  1  1  6
  3  2  1  0
  4  5  1  1
  4  2  1  0
  4  6  1  0
  6  7  2  0
  9 11  1  0
  9  8  1  6
 10  9  1  0
 11 13  1  0
 12  6  1  0
 11 12  1  6
 13 14  2  0
 15 13  1  0
 15 16  1  0
 16 27  1  0
 16 17  1  1
 18 17  1  0
 19 18  2  0
 20 21  1  0
 20 19  1  0
 21 26  2  0
 22 21  1  0
 22 23  2  0
 23 24  1  0
 24 25  2  0
 26 18  1  0
 26 25  1  0
 27 28  1  0
 29 27  2  0
M  END
$$$$
