TTW.pdb
     RDKit          3D

 29 30  0  0  1  0  0  0  0  0999 V2000
   21.1825  -17.2457  -15.2757 C   0  0  0  0  0  0  0  0  0  0  0  0
   21.6597  -18.1026  -14.1509 C   0  0  1  0  0  0  0  0  0  0  0  0
   20.9495  -17.9331  -12.9654 O   0  0  0  0  0  0  0  0  0  0  0  0
   21.6964  -19.5556  -14.5766 C   0  0  2  0  0  0  0  0  0  0  0  0
   20.3564  -20.0871  -14.7299 N   0  0  0  0  0  0  0  0  0  0  0  0
   22.4195  -20.3351  -13.5437 C   0  0  0  0  0  0  0  0  0  0  0  0
   21.8246  -20.8728  -12.5611 O   0  0  0  0  0  0  0  0  0  0  0  0
   24.2276  -23.3521  -14.0652 C   0  0  0  0  0  0  0  0  0  0  0  0
   25.1923  -22.4576  -13.3509 C   0  0  1  0  0  0  0  0  0  0  0  0
   26.1452  -22.0296  -14.2682 O   0  0  0  0  0  0  0  0  0  0  0  0
   24.5323  -21.2946  -12.6426 C   0  0  2  0  0  0  0  0  0  0  0  0
   23.8504  -20.5067  -13.6300 N   0  0  0  0  0  0  0  0  0  0  0  0
   25.5264  -20.4791  -11.8943 C   0  0  0  0  0  0  0  0  0  0  0  0
   25.4404  -19.2381  -12.0479 O   0  0  0  0  0  0  0  0  0  0  0  0
   26.4643  -21.1454  -11.0898 N   0  0  0  0  0  0  0  0  0  0  0  0
   27.4475  -20.3273  -10.3514 C   0  0  1  0  0  0  0  0  0  0  0  0
   26.6719  -19.4484   -9.4431 C   0  0  0  0  0  0  0  0  0  0  0  0
   26.5982  -19.8827   -8.0446 C   0  0  0  0  0  0  0  0  0  0  0  0
   25.5594  -20.6486   -7.4929 C   0  0  0  0  0  0  0  0  0  0  0  0
   25.8015  -20.8284   -6.2021 N   0  0  0  0  0  0  0  0  0  0  0  0
   26.9428  -20.2335   -5.8339 C   0  0  0  0  0  0  0  0  0  0  0  0
   27.6245  -20.1427   -4.6366 C   0  0  0  0  0  0  0  0  0  0  0  0
   28.8198  -19.4548   -4.5872 C   0  0  0  0  0  0  0  0  0  0  0  0
   29.3434  -18.8572   -5.7143 C   0  0  0  0  0  0  0  0  0  0  0  0
   28.6365  -18.9689   -6.8842 C   0  0  0  0  0  0  0  0  0  0  0  0
   27.4381  -19.6478   -6.9720 C   0  0  0  0  0  0  0  0  0  0  0  0
   28.4464  -21.1865   -9.7341 C   0  0  0  0  0  0  0  0  0  0  0  0
   29.7158  -20.7467   -9.4333 O   0  0  0  0  0  0  0  0  0  0  0  0
   28.1791  -22.3804   -9.4562 O   0  0  0  0  0  0  0  0  0  0  0  0
  2  1  1  6
  3  2  1  0
  4  5  1  1
  4  2  1  0
  4  6  1  0
  6  7  2  0
  9 11  1  0
  9  8  1  6
 10  9  1  0
 11 13  1  0
 12  6  1  0
 11 12  1  6
 13 14  2  0
 15 13  1  0
 15 16  1  0
 16 27  1  0
 16 17  1  1
 18 17  1  0
 19 18  2  0
 20 21  1  0
 20 19  1  0
 21 26  2  0
 22 21  1  0
 22 23  2  0
 23 24  1  0
 24 25  2  0
 26 18  1  0
 26 25  1  0
 27 28  1  0
 29 27  2  0
M  END
$$$$
