TTW.pdb
     RDKit          3D

 29 30  0  0  1  0  0  0  0  0999 V2000
   19.6500  -19.1980  -15.0214 C   0  0  0  0  0  0  0  0  0  0  0  0
   20.3692  -19.9510  -13.9524 C   0  0  1  0  0  0  0  0  0  0  0  0
   19.7124  -19.9631  -12.7248 O   0  0  0  0  0  0  0  0  0  0  0  0
   20.6945  -21.3526  -14.4253 C   0  0  2  0  0  0  0  0  0  0  0  0
   19.5029  -22.1773  -14.4676 N   0  0  0  0  0  0  0  0  0  0  0  0
   21.6755  -21.9535  -13.4906 C   0  0  0  0  0  0  0  0  0  0  0  0
   21.3198  -22.6092  -12.4649 O   0  0  0  0  0  0  0  0  0  0  0  0
   24.3383  -24.4424  -14.1688 C   0  0  0  0  0  0  0  0  0  0  0  0
   24.9885  -23.2404  -13.5578 C   0  0  1  0  0  0  0  0  0  0  0  0
   25.6405  -22.5416  -14.5673 O   0  0  0  0  0  0  0  0  0  0  0  0
   24.0303  -22.3555  -12.7906 C   0  0  2  0  0  0  0  0  0  0  0  0
   23.0920  -21.8055  -13.7275 N   0  0  0  0  0  0  0  0  0  0  0  0
   24.7518  -21.2815  -12.0563 C   0  0  0  0  0  0  0  0  0  0  0  0
   24.7073  -20.1413  -12.5750 O   0  0  0  0  0  0  0  0  0  0  0  0
   25.4126  -21.6176  -10.8642 N   0  0  0  0  0  0  0  0  0  0  0  0
   26.1524  -20.5515  -10.1590 C   0  0  1  0  0  0  0  0  0  0  0  0
   26.3227  -21.0081   -8.7584 C   0  0  0  0  0  0  0  0  0  0  0  0
   26.9091  -20.0310   -7.8359 C   0  0  0  0  0  0  0  0  0  0  0  0
   26.8607  -18.6379   -8.0008 C   0  0  0  0  0  0  0  0  0  0  0  0
   27.5166  -18.0671   -7.0002 N   0  0  0  0  0  0  0  0  0  0  0  0
   28.0119  -18.9825   -6.1585 C   0  0  0  0  0  0  0  0  0  0  0  0
   28.7384  -18.9027   -4.9870 C   0  0  0  0  0  0  0  0  0  0  0  0
   29.0895  -20.0623   -4.3263 C   0  0  0  0  0  0  0  0  0  0  0  0
   28.7263  -21.2985   -4.8178 C   0  0  0  0  0  0  0  0  0  0  0  0
   28.0059  -21.3364   -5.9842 C   0  0  0  0  0  0  0  0  0  0  0  0
   27.6374  -20.1985   -6.6728 C   0  0  0  0  0  0  0  0  0  0  0  0
   27.3658  -20.2201  -10.8905 C   0  0  0  0  0  0  0  0  0  0  0  0
   27.6934  -18.9273  -11.2320 O   0  0  0  0  0  0  0  0  0  0  0  0
   28.1646  -21.1202  -11.2451 O   0  0  0  0  0  0  0  0  0  0  0  0
  2  1  1  6
  3  2  1  0
  4  5  1  1
  4  2  1  0
  4  6  1  0
  6  7  2  0
  9 11  1  0
  9  8  1  6
 10  9  1  0
 11 13  1  0
 12  6  1  0
 11 12  1  6
 13 14  2  0
 15 13  1  0
 15 16  1  0
 16 27  1  0
 16 17  1  1
 18 17  1  0
 19 18  2  0
 20 21  1  0
 20 19  1  0
 21 26  2  0
 22 21  1  0
 22 23  2  0
 23 24  1  0
 24 25  2  0
 26 18  1  0
 26 25  1  0
 27 28  1  0
 29 27  2  0
M  END
$$$$
