TTW.pdb
     RDKit          3D

 29 30  0  0  1  0  0  0  0  0999 V2000
   27.2898  -16.3936  -13.2408 C   0  0  0  0  0  0  0  0  0  0  0  0
   26.5977  -16.4757  -14.5604 C   0  0  1  0  0  0  0  0  0  0  0  0
   27.0625  -15.5639  -15.5044 O   0  0  0  0  0  0  0  0  0  0  0  0
   26.6390  -17.8949  -15.0877 C   0  0  2  0  0  0  0  0  0  0  0  0
   25.9604  -17.9956  -16.3649 N   0  0  0  0  0  0  0  0  0  0  0  0
   25.9749  -18.7857  -14.1065 C   0  0  0  0  0  0  0  0  0  0  0  0
   24.7393  -18.6935  -13.8359 O   0  0  0  0  0  0  0  0  0  0  0  0
   25.8806  -23.2964  -12.3723 C   0  0  0  0  0  0  0  0  0  0  0  0
   26.5426  -22.1562  -13.0814 C   0  0  1  0  0  0  0  0  0  0  0  0
   26.3814  -22.3458  -14.4491 O   0  0  0  0  0  0  0  0  0  0  0  0
   26.0465  -20.7963  -12.6404 C   0  0  2  0  0  0  0  0  0  0  0  0
   26.7327  -19.8035  -13.4177 N   0  0  0  0  0  0  0  0  0  0  0  0
   26.2626  -20.5850  -11.1838 C   0  0  0  0  0  0  0  0  0  0  0  0
   27.4484  -20.3824  -10.8319 O   0  0  0  0  0  0  0  0  0  0  0  0
   25.1475  -20.6265  -10.3320 N   0  0  0  0  0  0  0  0  0  0  0  0
   25.3901  -20.7392   -8.8796 C   0  0  1  0  0  0  0  0  0  0  0  0
   25.4415  -19.3553   -8.3491 C   0  0  0  0  0  0  0  0  0  0  0  0
   26.6716  -18.9892   -7.6403 C   0  0  0  0  0  0  0  0  0  0  0  0
   27.4301  -17.8343   -7.8874 C   0  0  0  0  0  0  0  0  0  0  0  0
   28.4882  -17.8402   -7.0889 N   0  0  0  0  0  0  0  0  0  0  0  0
   28.5024  -18.9278   -6.3086 C   0  0  0  0  0  0  0  0  0  0  0  0
   29.3583  -19.3806   -5.3242 C   0  0  0  0  0  0  0  0  0  0  0  0
   29.0773  -20.5647   -4.6733 C   0  0  0  0  0  0  0  0  0  0  0  0
   27.9559  -21.3018   -4.9907 C   0  0  0  0  0  0  0  0  0  0  0  0
   27.1309  -20.8194   -5.9743 C   0  0  0  0  0  0  0  0  0  0  0  0
   27.3795  -19.6404   -6.6473 C   0  0  0  0  0  0  0  0  0  0  0  0
   24.4117  -21.6333   -8.2793 C   0  0  0  0  0  0  0  0  0  0  0  0
   24.5198  -22.0846   -6.9832 O   0  0  0  0  0  0  0  0  0  0  0  0
   23.4222  -22.0336   -8.9386 O   0  0  0  0  0  0  0  0  0  0  0  0
  2  1  1  1
  3  2  1  0
  4  5  1  6
  4  2  1  0
  4  6  1  0
  6  7  2  0
  9 11  1  0
  9  8  1  1
 10  9  1  0
 11 13  1  0
 12  6  1  0
 11 12  1  6
 13 14  2  0
 15 13  1  0
 15 16  1  0
 16 27  1  0
 16 17  1  1
 18 17  1  0
 19 18  2  0
 20 21  1  0
 20 19  1  0
 21 26  2  0
 22 21  1  0
 22 23  2  0
 23 24  1  0
 24 25  2  0
 26 18  1  0
 26 25  1  0
 27 28  1  0
 29 27  2  0
M  END
$$$$
