TTW.pdb
     RDKit          3D

 29 30  0  0  1  0  0  0  0  0999 V2000
   28.4314  -23.6628  -19.4755 C   0  0  0  0  0  0  0  0  0  0  0  0
   28.2481  -23.3214  -18.0344 C   0  0  1  0  0  0  0  0  0  0  0  0
   27.8892  -24.4030  -17.2345 O   0  0  0  0  0  0  0  0  0  0  0  0
   29.4781  -22.6166  -17.5011 C   0  0  2  0  0  0  0  0  0  0  0  0
   30.5952  -23.5335  -17.3876 N   0  0  0  0  0  0  0  0  0  0  0  0
   29.1632  -22.0574  -16.1649 C   0  0  0  0  0  0  0  0  0  0  0  0
   29.9614  -22.1557  -15.1843 O   0  0  0  0  0  0  0  0  0  0  0  0
   28.5990  -18.5040  -15.5538 C   0  0  0  0  0  0  0  0  0  0  0  0
   27.4151  -19.2359  -15.0028 C   0  0  1  0  0  0  0  0  0  0  0  0
   26.3612  -19.0884  -15.8971 O   0  0  0  0  0  0  0  0  0  0  0  0
   27.6905  -20.6916  -14.6943 C   0  0  2  0  0  0  0  0  0  0  0  0
   27.9130  -21.3714  -15.9389 N   0  0  0  0  0  0  0  0  0  0  0  0
   26.5688  -21.3080  -13.9361 C   0  0  0  0  0  0  0  0  0  0  0  0
   25.9490  -22.2234  -14.5268 O   0  0  0  0  0  0  0  0  0  0  0  0
   26.2954  -20.8299  -12.6448 N   0  0  0  0  0  0  0  0  0  0  0  0
   25.2375  -21.5053  -11.8665 C   0  0  1  0  0  0  0  0  0  0  0  0
   25.8994  -22.1080  -10.6842 C   0  0  0  0  0  0  0  0  0  0  0  0
   26.1913  -21.1893   -9.5794 C   0  0  0  0  0  0  0  0  0  0  0  0
   25.3004  -20.2302   -9.0728 C   0  0  0  0  0  0  0  0  0  0  0  0
   25.9040  -19.5580   -8.1028 N   0  0  0  0  0  0  0  0  0  0  0  0
   27.1541  -19.9970   -7.9120 C   0  0  0  0  0  0  0  0  0  0  0  0
   28.1618  -19.6458   -7.0358 C   0  0  0  0  0  0  0  0  0  0  0  0
   29.3643  -20.3217   -7.0791 C   0  0  0  0  0  0  0  0  0  0  0  0
   29.5747  -21.3413   -7.9833 C   0  0  0  0  0  0  0  0  0  0  0  0
   28.5500  -21.6602   -8.8374 C   0  0  0  0  0  0  0  0  0  0  0  0
   27.3345  -21.0065   -8.8240 C   0  0  0  0  0  0  0  0  0  0  0  0
   24.1455  -20.5804  -11.6035 C   0  0  0  0  0  0  0  0  0  0  0  0
   22.9148  -20.9991  -11.1505 O   0  0  0  0  0  0  0  0  0  0  0  0
   24.2921  -19.3485  -11.7903 O   0  0  0  0  0  0  0  0  0  0  0  0
  2  1  1  6
  3  2  1  0
  4  5  1  1
  4  2  1  0
  4  6  1  0
  6  7  2  0
  9 11  1  0
  9  8  1  6
 10  9  1  0
 11 13  1  0
 12  6  1  0
 11 12  1  6
 13 14  2  0
 15 13  1  0
 15 16  1  0
 16 27  1  0
 16 17  1  1
 18 17  1  0
 19 18  2  0
 20 21  1  0
 20 19  1  0
 21 26  2  0
 22 21  1  0
 22 23  2  0
 23 24  1  0
 24 25  2  0
 26 18  1  0
 26 25  1  0
 27 28  1  0
 29 27  2  0
M  END
$$$$
