TTW.pdb
     RDKit          3D

 29 30  0  0  1  0  0  0  0  0999 V2000
   12.6496  -11.4320  -13.2865 C   0  0  0  0  0  0  0  0  0  0  0  0
   13.1930  -12.8055  -13.0735 C   0  0  1  0  0  0  0  0  0  0  0  0
   12.2702  -13.8237  -13.2976 O   0  0  0  0  0  0  0  0  0  0  0  0
   14.4529  -13.0044  -13.8903 C   0  0  2  0  0  0  0  0  0  0  0  0
   15.0061  -14.3278  -13.6801 N   0  0  0  0  0  0  0  0  0  0  0  0
   15.4487  -11.9847  -13.4831 C   0  0  0  0  0  0  0  0  0  0  0  0
   16.1527  -12.1061  -12.4351 O   0  0  0  0  0  0  0  0  0  0  0  0
   18.3757  -11.1638  -15.3696 C   0  0  0  0  0  0  0  0  0  0  0  0
   17.6696   -9.8648  -15.1355 C   0  0  1  0  0  0  0  0  0  0  0  0
   17.0276   -9.5032  -16.3143 O   0  0  0  0  0  0  0  0  0  0  0  0
   16.7143   -9.8953  -13.9622 C   0  0  2  0  0  0  0  0  0  0  0  0
   15.6484  -10.8009  -14.2852 N   0  0  0  0  0  0  0  0  0  0  0  0
   16.1926   -8.5374  -13.6507 C   0  0  0  0  0  0  0  0  0  0  0  0
   15.0481   -8.2784  -14.0912 O   0  0  0  0  0  0  0  0  0  0  0  0
   17.0024   -7.6680  -12.9029 N   0  0  0  0  0  0  0  0  0  0  0  0
   16.5730   -6.2607  -12.7753 C   0  0  1  0  0  0  0  0  0  0  0  0
   15.2479   -6.2799  -12.1097 C   0  0  0  0  0  0  0  0  0  0  0  0
   15.2556   -6.6183  -10.6831 C   0  0  0  0  0  0  0  0  0  0  0  0
   16.2080   -6.1705   -9.7544 C   0  0  0  0  0  0  0  0  0  0  0  0
   15.9272   -6.6942   -8.5695 N   0  0  0  0  0  0  0  0  0  0  0  0
   14.8403   -7.4735   -8.6276 C   0  0  0  0  0  0  0  0  0  0  0  0
   14.1488   -8.2125   -7.6882 C   0  0  0  0  0  0  0  0  0  0  0  0
   13.0226   -8.9122   -8.0709 C   0  0  0  0  0  0  0  0  0  0  0  0
   12.5775   -8.8847   -9.3758 C   0  0  0  0  0  0  0  0  0  0  0  0
   13.2915   -8.1400  -10.2794 C   0  0  0  0  0  0  0  0  0  0  0  0
   14.4224   -7.4282   -9.9341 C   0  0  0  0  0  0  0  0  0  0  0  0
   17.6168   -5.4783  -12.1308 C   0  0  0  0  0  0  0  0  0  0  0  0
   17.5954   -4.1022  -12.0975 O   0  0  0  0  0  0  0  0  0  0  0  0
   18.5914   -6.0439  -11.5791 O   0  0  0  0  0  0  0  0  0  0  0  0
  2  1  1  6
  3  2  1  0
  4  5  1  1
  4  2  1  0
  4  6  1  0
  6  7  2  0
  9 11  1  0
  9  8  1  6
 10  9  1  0
 11 13  1  0
 12  6  1  0
 11 12  1  6
 13 14  2  0
 15 13  1  0
 15 16  1  0
 16 27  1  0
 16 17  1  1
 18 17  1  0
 19 18  2  0
 20 21  1  0
 20 19  1  0
 21 26  2  0
 22 21  1  0
 22 23  2  0
 23 24  1  0
 24 25  2  0
 26 18  1  0
 26 25  1  0
 27 28  1  0
 29 27  2  0
M  END
$$$$
