TTW.pdb
     RDKit          3D

 29 30  0  0  1  0  0  0  0  0999 V2000
   24.5962  -25.3383  -18.8826 C   0  0  0  0  0  0  0  0  0  0  0  0
   24.8743  -24.6063  -17.6121 C   0  0  1  0  0  0  0  0  0  0  0  0
   23.9458  -24.8456  -16.6026 O   0  0  0  0  0  0  0  0  0  0  0  0
   26.2889  -24.8816  -17.1462 C   0  0  2  0  0  0  0  0  0  0  0  0
   26.4542  -26.2743  -16.7791 N   0  0  0  0  0  0  0  0  0  0  0  0
   26.5768  -24.0256  -15.9708 C   0  0  0  0  0  0  0  0  0  0  0  0
   26.7906  -24.5083  -14.8176 O   0  0  0  0  0  0  0  0  0  0  0  0
   27.9160  -19.4716  -14.4941 C   0  0  0  0  0  0  0  0  0  0  0  0
   27.5603  -20.4694  -15.5519 C   0  0  1  0  0  0  0  0  0  0  0  0
   28.6729  -20.6525  -16.3650 O   0  0  0  0  0  0  0  0  0  0  0  0
   27.0452  -21.7813  -15.0010 C   0  0  2  0  0  0  0  0  0  0  0  0
   26.6225  -22.5892  -16.1097 N   0  0  0  0  0  0  0  0  0  0  0  0
   25.9338  -21.5664  -14.0357 C   0  0  0  0  0  0  0  0  0  0  0  0
   24.7995  -21.3916  -14.5396 O   0  0  0  0  0  0  0  0  0  0  0  0
   26.2318  -21.5761  -12.6639 N   0  0  0  0  0  0  0  0  0  0  0  0
   25.1160  -21.4009  -11.7123 C   0  0  1  0  0  0  0  0  0  0  0  0
   25.6173  -21.8345  -10.3857 C   0  0  0  0  0  0  0  0  0  0  0  0
   26.8948  -21.2510   -9.9647 C   0  0  0  0  0  0  0  0  0  0  0  0
   28.0875  -21.3062  -10.7026 C   0  0  0  0  0  0  0  0  0  0  0  0
   29.0454  -20.7062  -10.0102 N   0  0  0  0  0  0  0  0  0  0  0  0
   28.5836  -20.2421   -8.8426 C   0  0  0  0  0  0  0  0  0  0  0  0
   29.1633  -19.5483   -7.7990 C   0  0  0  0  0  0  0  0  0  0  0  0
   28.3919  -19.1876   -6.7130 C   0  0  0  0  0  0  0  0  0  0  0  0
   27.0522  -19.5090   -6.6542 C   0  0  0  0  0  0  0  0  0  0  0  0
   26.5133  -20.1991   -7.7099 C   0  0  0  0  0  0  0  0  0  0  0  0
   27.2531  -20.5774   -8.8119 C   0  0  0  0  0  0  0  0  0  0  0  0
   24.5932  -20.0461  -11.8024 C   0  0  0  0  0  0  0  0  0  0  0  0
   25.2254  -19.0558  -12.5200 O   0  0  0  0  0  0  0  0  0  0  0  0
   23.5319  -19.7297  -11.2127 O   0  0  0  0  0  0  0  0  0  0  0  0
  2  1  1  6
  3  2  1  0
  4  5  1  1
  4  2  1  0
  4  6  1  0
  6  7  2  0
  9 11  1  0
  9  8  1  1
 10  9  1  0
 11 13  1  0
 12  6  1  0
 11 12  1  6
 13 14  2  0
 15 13  1  0
 15 16  1  0
 16 27  1  0
 16 17  1  1
 18 17  1  0
 19 18  2  0
 20 21  1  0
 20 19  1  0
 21 26  2  0
 22 21  1  0
 22 23  2  0
 23 24  1  0
 24 25  2  0
 26 18  1  0
 26 25  1  0
 27 28  1  0
 29 27  2  0
M  END
$$$$
