TTW.pdb
     RDKit          3D

 29 30  0  0  1  0  0  0  0  0999 V2000
   30.9268  -22.6911  -10.1867 C   0  0  0  0  0  0  0  0  0  0  0  0
   29.8766  -22.0041  -10.9945 C   0  0  1  0  0  0  0  0  0  0  0  0
   28.7653  -21.6017  -10.2588 O   0  0  0  0  0  0  0  0  0  0  0  0
   30.4804  -20.8513  -11.7694 C   0  0  2  0  0  0  0  0  0  0  0  0
   31.1194  -19.9031  -10.8781 N   0  0  0  0  0  0  0  0  0  0  0  0
   29.4016  -20.1685  -12.5224 C   0  0  0  0  0  0  0  0  0  0  0  0
   28.7422  -19.2014  -12.0340 O   0  0  0  0  0  0  0  0  0  0  0  0
   27.9503  -21.9255  -16.2051 C   0  0  0  0  0  0  0  0  0  0  0  0
   27.9494  -20.4483  -15.9621 C   0  0  1  0  0  0  0  0  0  0  0  0
   26.8969  -19.8928  -16.6806 O   0  0  0  0  0  0  0  0  0  0  0  0
   27.8890  -20.0736  -14.4972 C   0  0  2  0  0  0  0  0  0  0  0  0
   29.0652  -20.5947  -13.8602 N   0  0  0  0  0  0  0  0  0  0  0  0
   26.6523  -20.5930  -13.8539 C   0  0  0  0  0  0  0  0  0  0  0  0
   26.8237  -21.2973  -12.8314 O   0  0  0  0  0  0  0  0  0  0  0  0
   25.4141  -20.2622  -14.4267 N   0  0  0  0  0  0  0  0  0  0  0  0
   24.1895  -20.6305  -13.6879 C   0  0  1  0  0  0  0  0  0  0  0  0
   24.2848  -19.9817  -12.3578 C   0  0  0  0  0  0  0  0  0  0  0  0
   23.0648  -20.0103  -11.5453 C   0  0  0  0  0  0  0  0  0  0  0  0
   22.8867  -20.7822  -10.3866 C   0  0  0  0  0  0  0  0  0  0  0  0
   21.6580  -20.5874   -9.9291 N   0  0  0  0  0  0  0  0  0  0  0  0
   20.9817  -19.7289  -10.7021 C   0  0  0  0  0  0  0  0  0  0  0  0
   19.7074  -19.2000  -10.6466 C   0  0  0  0  0  0  0  0  0  0  0  0
   19.3050  -18.2980  -11.6104 C   0  0  0  0  0  0  0  0  0  0  0  0
   20.1551  -17.9170  -12.6271 C   0  0  0  0  0  0  0  0  0  0  0  0
   21.4123  -18.4647  -12.6483 C   0  0  0  0  0  0  0  0  0  0  0  0
   21.8498  -19.3699  -11.7027 C   0  0  0  0  0  0  0  0  0  0  0  0
   23.0136  -20.3166  -14.4853 C   0  0  0  0  0  0  0  0  0  0  0  0
   22.9748  -19.2527  -15.3582 O   0  0  0  0  0  0  0  0  0  0  0  0
   21.9757  -21.0156  -14.3967 O   0  0  0  0  0  0  0  0  0  0  0  0
  2  1  1  1
  3  2  1  0
  4  5  1  1
  4  2  1  0
  4  6  1  0
  6  7  2  0
  9 11  1  0
  9  8  1  1
 10  9  1  0
 11 13  1  0
 12  6  1  0
 11 12  1  1
 13 14  2  0
 15 13  1  0
 15 16  1  0
 16 27  1  0
 16 17  1  1
 18 17  1  0
 19 18  2  0
 20 21  1  0
 20 19  1  0
 21 26  2  0
 22 21  1  0
 22 23  2  0
 23 24  1  0
 24 25  2  0
 26 18  1  0
 26 25  1  0
 27 28  1  0
 29 27  2  0
M  END
$$$$
