MVW.pdb
     RDKit          3D

 30 31  0  0  1  0  0  0  0  0999 V2000
   16.5036  -21.4544  -15.9506 C   0  0  0  0  0  0  0  0  0  0  0  0
   18.0211  -21.6889  -14.9682 S   0  0  0  0  0  0  0  0  0  0  0  0
   19.1243  -22.8619  -15.8642 C   0  0  0  0  0  0  0  0  0  0  0  0
   20.4533  -22.8723  -15.1966 C   0  0  0  0  0  0  0  0  0  0  0  0
   21.4463  -23.7233  -15.8995 C   0  0  2  0  0  0  0  0  0  0  0  0
   20.9956  -25.0985  -15.9808 N   0  0  0  0  0  0  0  0  0  0  0  0
   22.8059  -23.7259  -15.2937 C   0  0  0  0  0  0  0  0  0  0  0  0
   23.1676  -24.6367  -14.4916 O   0  0  0  0  0  0  0  0  0  0  0  0
   26.2388  -23.2705  -17.1088 C   0  0  0  0  0  0  0  0  0  0  0  0
   26.0886  -22.2214  -16.0271 C   0  0  2  0  0  0  0  0  0  0  0  0
   27.4259  -22.0049  -15.3490 C   0  0  0  0  0  0  0  0  0  0  0  0
   25.0520  -22.5694  -15.0183 C   0  0  2  0  0  0  0  0  0  0  0  0
   23.7315  -22.7193  -15.5860 N   0  0  0  0  0  0  0  0  0  0  0  0
   25.0709  -21.5387  -13.9402 C   0  0  0  0  0  0  0  0  0  0  0  0
   24.5264  -20.4163  -14.0140 O   0  0  0  0  0  0  0  0  0  0  0  0
   25.7649  -21.8916  -12.7592 N   0  0  0  0  0  0  0  0  0  0  0  0
   25.9095  -20.9328  -11.6578 C   0  0  1  0  0  0  0  0  0  0  0  0
   26.5441  -21.7275  -10.5407 C   0  0  0  0  0  0  0  0  0  0  0  0
   26.7891  -20.8806   -9.3653 C   0  0  0  0  0  0  0  0  0  0  0  0
   25.7764  -20.1128   -8.7770 C   0  0  0  0  0  0  0  0  0  0  0  0
   26.2381  -19.4778   -7.7037 N   0  0  0  0  0  0  0  0  0  0  0  0
   27.5390  -19.8063   -7.5659 C   0  0  0  0  0  0  0  0  0  0  0  0
   28.4812  -19.4176   -6.6316 C   0  0  0  0  0  0  0  0  0  0  0  0
   29.7831  -19.8903   -6.7112 C   0  0  0  0  0  0  0  0  0  0  0  0
   30.0897  -20.7361   -7.7268 C   0  0  0  0  0  0  0  0  0  0  0  0
   29.1758  -21.1513   -8.6843 C   0  0  0  0  0  0  0  0  0  0  0  0
   27.8863  -20.6713   -8.5881 C   0  0  0  0  0  0  0  0  0  0  0  0
   26.7001  -19.8062  -12.1606 C   0  0  0  0  0  0  0  0  0  0  0  0
   26.3484  -18.4720  -11.8763 O   0  0  0  0  0  0  0  0  0  0  0  0
   27.7275  -19.9518  -12.8667 O   0  0  0  0  0  0  0  0  0  0  0  0
  1  2  1  0
  2  3  1  0
  4  3  1  0
  5  6  1  1
  5  4  1  0
  7  5  1  0
  8  7  2  0
 10  9  1  6
 10 12  1  0
 10 11  1  0
 12 13  1  6
 13  7  1  0
 14 15  2  0
 14 12  1  0
 16 14  1  0
 17 16  1  0
 17 18  1  1
 19 18  1  0
 20 19  2  0
 21 22  1  0
 21 20  1  0
 22 27  2  0
 23 22  1  0
 23 24  2  0
 24 25  1  0
 25 26  2  0
 27 19  1  0
 27 26  1  0
 28 29  1  0
 28 17  1  0
 30 28  2  0
M  END
$$$$
