MVW.pdb
     RDKit          3D

 30 31  0  0  1  0  0  0  0  0999 V2000
   29.6000  -21.3916  -13.6897 C   0  0  0  0  0  0  0  0  0  0  0  0
   29.4408  -21.3791  -15.5057 S   0  0  0  0  0  0  0  0  0  0  0  0
   28.7893  -19.7357  -16.0258 C   0  0  0  0  0  0  0  0  0  0  0  0
   27.8749  -19.2280  -14.9683 C   0  0  0  0  0  0  0  0  0  0  0  0
   26.4448  -19.4963  -15.2635 C   0  0  2  0  0  0  0  0  0  0  0  0
   25.9673  -18.6635  -16.3495 N   0  0  0  0  0  0  0  0  0  0  0  0
   25.5237  -19.3098  -14.1093 C   0  0  0  0  0  0  0  0  0  0  0  0
   25.1710  -18.1547  -13.7281 O   0  0  0  0  0  0  0  0  0  0  0  0
   22.1115  -20.2017  -13.1380 C   0  0  0  0  0  0  0  0  0  0  0  0
   22.9905  -20.8936  -12.1173 C   0  0  2  0  0  0  0  0  0  0  0  0
   22.3673  -20.7563  -10.7433 C   0  0  0  0  0  0  0  0  0  0  0  0
   24.3848  -20.3752  -12.1026 C   0  0  2  0  0  0  0  0  0  0  0  0
   25.0178  -20.4047  -13.4014 N   0  0  0  0  0  0  0  0  0  0  0  0
   25.1690  -21.1446  -11.0936 C   0  0  0  0  0  0  0  0  0  0  0  0
   26.0163  -22.0225  -11.3641 O   0  0  0  0  0  0  0  0  0  0  0  0
   24.9100  -20.8309   -9.7389 N   0  0  0  0  0  0  0  0  0  0  0  0
   25.8934  -21.1408   -8.6947 C   0  0  1  0  0  0  0  0  0  0  0  0
   27.0209  -20.1632   -8.9299 C   0  0  0  0  0  0  0  0  0  0  0  0
   28.1039  -20.3645   -7.9577 C   0  0  0  0  0  0  0  0  0  0  0  0
   29.1947  -21.2023   -8.2215 C   0  0  0  0  0  0  0  0  0  0  0  0
   30.0571  -21.1756   -7.2096 N   0  0  0  0  0  0  0  0  0  0  0  0
   29.5618  -20.3375   -6.2760 C   0  0  0  0  0  0  0  0  0  0  0  0
   30.0513  -19.9633   -5.0382 C   0  0  0  0  0  0  0  0  0  0  0  0
   29.3380  -19.0803   -4.2405 C   0  0  0  0  0  0  0  0  0  0  0  0
   28.1591  -18.6063   -4.7165 C   0  0  0  0  0  0  0  0  0  0  0  0
   27.6323  -18.9553   -5.9514 C   0  0  0  0  0  0  0  0  0  0  0  0
   28.3563  -19.8336   -6.7304 C   0  0  0  0  0  0  0  0  0  0  0  0
   25.2115  -21.0207   -7.4033 C   0  0  0  0  0  0  0  0  0  0  0  0
   25.6110  -21.7772   -6.2841 O   0  0  0  0  0  0  0  0  0  0  0  0
   24.2415  -20.2479   -7.2104 O   0  0  0  0  0  0  0  0  0  0  0  0
  1  2  1  0
  2  3  1  0
  4  3  1  0
  5  6  1  6
  5  4  1  0
  7  5  1  0
  8  7  2  0
 10  9  1  6
 10 12  1  0
 10 11  1  0
 12 13  1  6
 13  7  1  0
 14 15  2  0
 14 12  1  0
 16 14  1  0
 17 16  1  0
 17 18  1  1
 19 18  1  0
 20 19  2  0
 21 22  1  0
 21 20  1  0
 22 27  2  0
 23 22  1  0
 23 24  2  0
 24 25  1  0
 25 26  2  0
 27 19  1  0
 27 26  1  0
 28 29  1  0
 28 17  1  0
 30 28  2  0
M  END
$$$$
