MVW.pdb
     RDKit          3D

 30 31  0  0  1  0  0  0  0  0999 V2000
   18.1181  -18.8137  -10.3994 C   0  0  0  0  0  0  0  0  0  0  0  0
   18.0938  -17.7675  -11.8921 S   0  0  0  0  0  0  0  0  0  0  0  0
   19.0911  -18.5933  -13.2032 C   0  0  0  0  0  0  0  0  0  0  0  0
   20.0419  -19.5369  -12.5568 C   0  0  0  0  0  0  0  0  0  0  0  0
   21.0081  -20.1305  -13.5152 C   0  0  2  0  0  0  0  0  0  0  0  0
   20.3361  -20.9718  -14.4854 N   0  0  0  0  0  0  0  0  0  0  0  0
   22.0927  -20.9354  -12.8899 C   0  0  0  0  0  0  0  0  0  0  0  0
   21.8320  -21.9306  -12.1512 O   0  0  0  0  0  0  0  0  0  0  0  0
   24.5880  -23.0078  -14.4389 C   0  0  0  0  0  0  0  0  0  0  0  0
   25.3858  -22.0028  -13.6347 C   0  0  2  0  0  0  0  0  0  0  0  0
   26.5887  -22.6913  -13.0230 C   0  0  0  0  0  0  0  0  0  0  0  0
   24.5827  -21.3354  -12.5753 C   0  0  2  0  0  0  0  0  0  0  0  0
   23.4396  -20.6185  -13.0928 N   0  0  0  0  0  0  0  0  0  0  0  0
   25.4804  -20.4404  -11.7890 C   0  0  0  0  0  0  0  0  0  0  0  0
   26.0393  -19.4160  -12.2362 O   0  0  0  0  0  0  0  0  0  0  0  0
   25.6921  -20.8075  -10.4395 N   0  0  0  0  0  0  0  0  0  0  0  0
   26.6100  -20.0423   -9.5879 C   0  0  1  0  0  0  0  0  0  0  0  0
   26.0680  -20.2172   -8.1886 C   0  0  0  0  0  0  0  0  0  0  0  0
   26.8513  -19.4389   -7.2194 C   0  0  0  0  0  0  0  0  0  0  0  0
   26.8930  -18.0394   -7.2486 C   0  0  0  0  0  0  0  0  0  0  0  0
   27.6269  -17.5749   -6.2416 N   0  0  0  0  0  0  0  0  0  0  0  0
   28.0762  -18.6373   -5.5427 C   0  0  0  0  0  0  0  0  0  0  0  0
   28.8815  -18.7137   -4.4213 C   0  0  0  0  0  0  0  0  0  0  0  0
   29.2221  -19.9476   -3.8862 C   0  0  0  0  0  0  0  0  0  0  0  0
   28.7407  -21.0589   -4.4982 C   0  0  0  0  0  0  0  0  0  0  0  0
   27.9305  -21.0271   -5.6236 C   0  0  0  0  0  0  0  0  0  0  0  0
   27.6020  -19.7912   -6.1405 C   0  0  0  0  0  0  0  0  0  0  0  0
   27.9580  -20.5701   -9.8143 C   0  0  0  0  0  0  0  0  0  0  0  0
   28.1696  -21.8930  -10.2502 O   0  0  0  0  0  0  0  0  0  0  0  0
   28.9982  -19.8901   -9.6383 O   0  0  0  0  0  0  0  0  0  0  0  0
  1  2  1  0
  2  3  1  0
  4  3  1  0
  5  6  1  6
  5  4  1  0
  7  5  1  0
  8  7  2  0
 10  9  1  1
 10 12  1  0
 10 11  1  0
 12 13  1  6
 13  7  1  0
 14 15  2  0
 14 12  1  0
 16 14  1  0
 17 16  1  0
 17 18  1  1
 19 18  1  0
 20 19  2  0
 21 22  1  0
 21 20  1  0
 22 27  2  0
 23 22  1  0
 23 24  2  0
 24 25  1  0
 25 26  2  0
 27 19  1  0
 27 26  1  0
 28 29  1  0
 28 17  1  0
 30 28  2  0
M  END
$$$$
