MVW.pdb
     RDKit          3D

 30 31  0  0  1  0  0  0  0  0999 V2000
   23.9245  -18.3825  -15.4106 C   0  0  0  0  0  0  0  0  0  0  0  0
   22.4030  -19.0237  -14.6379 S   0  0  0  0  0  0  0  0  0  0  0  0
   22.8065  -20.5951  -13.7640 C   0  0  0  0  0  0  0  0  0  0  0  0
   21.5660  -21.1254  -13.1378 C   0  0  0  0  0  0  0  0  0  0  0  0
   20.8712  -22.1247  -13.9880 C   0  0  2  0  0  0  0  0  0  0  0  0
   20.4091  -21.5301  -15.2264 N   0  0  0  0  0  0  0  0  0  0  0  0
   19.7078  -22.7920  -13.3426 C   0  0  0  0  0  0  0  0  0  0  0  0
   18.6068  -22.1869  -13.1829 O   0  0  0  0  0  0  0  0  0  0  0  0
   17.6412  -25.6103  -14.3154 C   0  0  0  0  0  0  0  0  0  0  0  0
   18.2522  -26.0137  -12.9898 C   0  0  2  0  0  0  0  0  0  0  0  0
   17.2314  -26.7886  -12.1821 C   0  0  0  0  0  0  0  0  0  0  0  0
   18.7560  -24.8552  -12.2042 C   0  0  2  0  0  0  0  0  0  0  0  0
   19.7907  -24.1110  -12.8855 N   0  0  0  0  0  0  0  0  0  0  0  0
   19.2201  -25.3465  -10.8744 C   0  0  0  0  0  0  0  0  0  0  0  0
   20.0597  -26.2557  -10.7010 O   0  0  0  0  0  0  0  0  0  0  0  0
   18.6474  -24.7130   -9.7468 N   0  0  0  0  0  0  0  0  0  0  0  0
   18.9881  -25.1476   -8.3872 C   0  0  1  0  0  0  0  0  0  0  0  0
   18.6307  -23.9712   -7.5095 C   0  0  0  0  0  0  0  0  0  0  0  0
   17.1861  -23.9317   -7.2443 C   0  0  0  0  0  0  0  0  0  0  0  0
   16.6469  -24.2951   -6.0040 C   0  0  0  0  0  0  0  0  0  0  0  0
   15.3280  -24.1257   -6.0026 N   0  0  0  0  0  0  0  0  0  0  0  0
   14.9774  -23.6578   -7.2181 C   0  0  0  0  0  0  0  0  0  0  0  0
   13.7419  -23.3278   -7.7440 C   0  0  0  0  0  0  0  0  0  0  0  0
   13.6356  -22.8727   -9.0503 C   0  0  0  0  0  0  0  0  0  0  0  0
   14.7749  -22.7663   -9.7795 C   0  0  0  0  0  0  0  0  0  0  0  0
   16.0332  -23.0862   -9.2911 C   0  0  0  0  0  0  0  0  0  0  0  0
   16.1189  -23.5361   -7.9900 C   0  0  0  0  0  0  0  0  0  0  0  0
   18.2438  -26.3820   -8.1240 C   0  0  0  0  0  0  0  0  0  0  0  0
   18.5734  -27.2277   -7.0466 O   0  0  0  0  0  0  0  0  0  0  0  0
   17.2777  -26.7626   -8.8292 O   0  0  0  0  0  0  0  0  0  0  0  0
  1  2  1  0
  2  3  1  0
  4  3  1  0
  5  6  1  6
  5  4  1  0
  7  5  1  0
  8  7  2  0
 10  9  1  6
 10 12  1  0
 10 11  1  0
 12 13  1  6
 13  7  1  0
 14 15  2  0
 14 12  1  0
 16 14  1  0
 17 16  1  0
 17 18  1  1
 19 18  1  0
 20 19  2  0
 21 22  1  0
 21 20  1  0
 22 27  2  0
 23 22  1  0
 23 24  2  0
 24 25  1  0
 25 26  2  0
 27 19  1  0
 27 26  1  0
 28 29  1  0
 28 17  1  0
 30 28  2  0
M  END
$$$$
