MVW.pdb
     RDKit          3D

 30 31  0  0  1  0  0  0  0  0999 V2000
   28.6696  -23.0178  -20.8405 C   0  0  0  0  0  0  0  0  0  0  0  0
   28.7175  -24.0397  -19.3317 S   0  0  0  0  0  0  0  0  0  0  0  0
   29.9826  -23.3397  -18.1894 C   0  0  0  0  0  0  0  0  0  0  0  0
   29.5399  -21.9870  -17.7576 C   0  0  0  0  0  0  0  0  0  0  0  0
   28.3764  -22.0265  -16.8362 C   0  0  2  0  0  0  0  0  0  0  0  0
   27.1388  -21.7569  -17.5410 N   0  0  0  0  0  0  0  0  0  0  0  0
   28.4586  -21.0851  -15.6864 C   0  0  0  0  0  0  0  0  0  0  0  0
   29.1610  -20.0329  -15.7456 O   0  0  0  0  0  0  0  0  0  0  0  0
   26.2158  -18.2036  -12.9989 C   0  0  0  0  0  0  0  0  0  0  0  0
   26.5711  -19.2426  -14.0417 C   0  0  2  0  0  0  0  0  0  0  0  0
   25.3002  -19.7852  -14.6625 C   0  0  0  0  0  0  0  0  0  0  0  0
   27.3927  -20.3568  -13.4973 C   0  0  2  0  0  0  0  0  0  0  0  0
   27.7657  -21.3315  -14.4969 N   0  0  0  0  0  0  0  0  0  0  0  0
   26.6515  -20.9877  -12.3670 C   0  0  0  0  0  0  0  0  0  0  0  0
   25.6705  -21.7516  -12.4928 O   0  0  0  0  0  0  0  0  0  0  0  0
   27.1215  -20.6776  -11.0694 N   0  0  0  0  0  0  0  0  0  0  0  0
   26.6358  -21.4160   -9.8980 C   0  0  1  0  0  0  0  0  0  0  0  0
   27.8204  -21.4688   -8.9619 C   0  0  0  0  0  0  0  0  0  0  0  0
   27.7430  -20.4026   -7.9540 C   0  0  0  0  0  0  0  0  0  0  0  0
   26.9019  -19.2934   -8.1070 C   0  0  0  0  0  0  0  0  0  0  0  0
   26.9770  -18.5022   -7.0408 N   0  0  0  0  0  0  0  0  0  0  0  0
   27.8526  -19.0617   -6.1808 C   0  0  0  0  0  0  0  0  0  0  0  0
   28.2997  -18.6471   -4.9398 C   0  0  0  0  0  0  0  0  0  0  0  0
   29.2313  -19.4026   -4.2426 C   0  0  0  0  0  0  0  0  0  0  0  0
   29.6790  -20.5466   -4.8186 C   0  0  0  0  0  0  0  0  0  0  0  0
   29.2570  -20.9986   -6.0603 C   0  0  0  0  0  0  0  0  0  0  0  0
   28.3299  -20.2345   -6.7378 C   0  0  0  0  0  0  0  0  0  0  0  0
   25.4599  -20.7045   -9.3902 C   0  0  0  0  0  0  0  0  0  0  0  0
   24.5382  -21.3251   -8.5241 O   0  0  0  0  0  0  0  0  0  0  0  0
   25.1989  -19.5133   -9.6875 O   0  0  0  0  0  0  0  0  0  0  0  0
  1  2  1  0
  2  3  1  0
  4  3  1  0
  5  6  1  6
  5  4  1  0
  7  5  1  0
  8  7  2  0
 10  9  1  1
 10 12  1  0
 10 11  1  0
 12 13  1  6
 13  7  1  0
 14 15  2  0
 14 12  1  0
 16 14  1  0
 17 16  1  0
 17 18  1  1
 19 18  1  0
 20 19  2  0
 21 22  1  0
 21 20  1  0
 22 27  2  0
 23 22  1  0
 23 24  2  0
 24 25  1  0
 25 26  2  0
 27 19  1  0
 27 26  1  0
 28 29  1  0
 28 17  1  0
 30 28  2  0
M  END
$$$$
