MVW.pdb
     RDKit          3D

 30 31  0  0  1  0  0  0  0  0999 V2000
   26.5064  -16.1103  -14.5239 C   0  0  0  0  0  0  0  0  0  0  0  0
   25.7094  -16.0017  -16.1599 S   0  0  0  0  0  0  0  0  0  0  0  0
   23.8827  -16.0703  -15.9278 C   0  0  0  0  0  0  0  0  0  0  0  0
   23.5854  -16.8744  -14.7124 C   0  0  0  0  0  0  0  0  0  0  0  0
   23.0548  -18.2245  -15.0284 C   0  0  2  0  0  0  0  0  0  0  0  0
   21.6431  -18.1713  -15.3531 N   0  0  0  0  0  0  0  0  0  0  0  0
   23.2349  -19.2341  -13.9496 C   0  0  0  0  0  0  0  0  0  0  0  0
   22.4263  -19.3111  -12.9780 O   0  0  0  0  0  0  0  0  0  0  0  0
   23.8924  -23.0640  -14.2087 C   0  0  0  0  0  0  0  0  0  0  0  0
   25.0220  -22.4132  -13.4381 C   0  0  2  0  0  0  0  0  0  0  0  0
   25.4346  -23.3165  -12.2942 C   0  0  0  0  0  0  0  0  0  0  0  0
   24.6735  -21.0612  -12.9246 C   0  0  2  0  0  0  0  0  0  0  0  0
   24.3072  -20.1316  -13.9686 N   0  0  0  0  0  0  0  0  0  0  0  0
   25.8159  -20.5505  -12.1127 C   0  0  0  0  0  0  0  0  0  0  0  0
   26.9056  -20.1558  -12.5800 O   0  0  0  0  0  0  0  0  0  0  0  0
   25.6162  -20.5234  -10.7126 N   0  0  0  0  0  0  0  0  0  0  0  0
   26.6884  -20.0905   -9.8090 C   0  0  1  0  0  0  0  0  0  0  0  0
   25.9898  -19.7910   -8.5034 C   0  0  0  0  0  0  0  0  0  0  0  0
   26.9402  -19.2927   -7.4999 C   0  0  0  0  0  0  0  0  0  0  0  0
   27.4443  -17.9867   -7.5361 C   0  0  0  0  0  0  0  0  0  0  0  0
   28.2425  -17.7672   -6.4954 N   0  0  0  0  0  0  0  0  0  0  0  0
   28.2813  -18.9017   -5.7670 C   0  0  0  0  0  0  0  0  0  0  0  0
   28.9623  -19.2136   -4.6047 C   0  0  0  0  0  0  0  0  0  0  0  0
   28.8495  -20.4778   -4.0445 C   0  0  0  0  0  0  0  0  0  0  0  0
   28.0566  -21.3816   -4.6733 C   0  0  0  0  0  0  0  0  0  0  0  0
   27.3564  -21.1104   -5.8396 C   0  0  0  0  0  0  0  0  0  0  0  0
   27.4804  -19.8478   -6.3811 C   0  0  0  0  0  0  0  0  0  0  0  0
   27.6812  -21.1672   -9.7623 C   0  0  0  0  0  0  0  0  0  0  0  0
   29.0610  -20.9047   -9.8719 O   0  0  0  0  0  0  0  0  0  0  0  0
   27.3741  -22.3762   -9.6234 O   0  0  0  0  0  0  0  0  0  0  0  0
  1  2  1  0
  2  3  1  0
  4  3  1  0
  5  6  1  1
  5  4  1  0
  7  5  1  0
  8  7  2  0
 10  9  1  1
 10 12  1  0
 10 11  1  0
 12 13  1  6
 13  7  1  0
 14 15  2  0
 14 12  1  0
 16 14  1  0
 17 16  1  0
 17 18  1  1
 19 18  1  0
 20 19  2  0
 21 22  1  0
 21 20  1  0
 22 27  2  0
 23 22  1  0
 23 24  2  0
 24 25  1  0
 25 26  2  0
 27 19  1  0
 27 26  1  0
 28 29  1  0
 28 17  1  0
 30 28  2  0
M  END
$$$$
