MVW.pdb
     RDKit          3D

 30 31  0  0  1  0  0  0  0  0999 V2000
   26.3432  -20.8408   -3.6312 C   0  0  0  0  0  0  0  0  0  0  0  0
   27.7834  -19.7618   -3.3403 S   0  0  0  0  0  0  0  0  0  0  0  0
   28.6548  -19.5023   -4.9431 C   0  0  0  0  0  0  0  0  0  0  0  0
   27.6915  -19.7308   -6.0530 C   0  0  0  0  0  0  0  0  0  0  0  0
   28.2978  -19.5346   -7.3940 C   0  0  2  0  0  0  0  0  0  0  0  0
   29.0386  -18.2904   -7.4585 N   0  0  0  0  0  0  0  0  0  0  0  0
   27.3296  -19.5459   -8.5243 C   0  0  0  0  0  0  0  0  0  0  0  0
   26.4959  -18.6065   -8.6868 O   0  0  0  0  0  0  0  0  0  0  0  0
   28.6868  -21.2987  -11.8009 C   0  0  0  0  0  0  0  0  0  0  0  0
   27.1863  -21.4882  -11.7241 C   0  0  2  0  0  0  0  0  0  0  0  0
   26.5733  -21.1914  -13.0773 C   0  0  0  0  0  0  0  0  0  0  0  0
   26.5462  -20.6493  -10.6755 C   0  0  2  0  0  0  0  0  0  0  0  0
   27.3034  -20.5976   -9.4457 N   0  0  0  0  0  0  0  0  0  0  0  0
   25.1602  -21.1498  -10.4446 C   0  0  0  0  0  0  0  0  0  0  0  0
   24.6242  -21.2801   -9.3232 O   0  0  0  0  0  0  0  0  0  0  0  0
   24.4253  -21.4925  -11.6036 N   0  0  0  0  0  0  0  0  0  0  0  0
   23.0347  -21.0538  -11.7685 C   0  0  1  0  0  0  0  0  0  0  0  0
   23.1098  -19.5451  -11.7855 C   0  0  0  0  0  0  0  0  0  0  0  0
   21.7858  -18.9545  -12.0240 C   0  0  0  0  0  0  0  0  0  0  0  0
   20.8507  -18.7838  -10.9956 C   0  0  0  0  0  0  0  0  0  0  0  0
   19.7562  -18.1856  -11.4567 N   0  0  0  0  0  0  0  0  0  0  0  0
   19.9430  -17.9555  -12.7725 C   0  0  0  0  0  0  0  0  0  0  0  0
   19.1201  -17.3752  -13.7201 C   0  0  0  0  0  0  0  0  0  0  0  0
   19.5399  -17.2623  -15.0376 C   0  0  0  0  0  0  0  0  0  0  0  0
   20.7711  -17.7369  -15.3538 C   0  0  0  0  0  0  0  0  0  0  0  0
   21.6277  -18.3253  -14.4350 C   0  0  0  0  0  0  0  0  0  0  0  0
   21.1931  -18.4279  -13.1299 C   0  0  0  0  0  0  0  0  0  0  0  0
   22.5232  -21.6752  -12.9929 C   0  0  0  0  0  0  0  0  0  0  0  0
   21.1853  -22.1031  -13.1006 O   0  0  0  0  0  0  0  0  0  0  0  0
   23.2310  -21.8646  -14.0120 O   0  0  0  0  0  0  0  0  0  0  0  0
  1  2  1  0
  2  3  1  0
  4  3  1  0
  5  6  1  1
  5  4  1  0
  7  5  1  0
  8  7  2  0
 10  9  1  6
 10 12  1  0
 10 11  1  0
 12 13  1  1
 13  7  1  0
 14 15  2  0
 14 12  1  0
 16 14  1  0
 17 16  1  0
 17 18  1  6
 19 18  1  0
 20 19  2  0
 21 22  1  0
 21 20  1  0
 22 27  2  0
 23 22  1  0
 23 24  2  0
 24 25  1  0
 25 26  2  0
 27 19  1  0
 27 26  1  0
 28 29  1  0
 28 17  1  0
 30 28  2  0
M  END
$$$$
