MVW.pdb
     RDKit          3D

 30 31  0  0  1  0  0  0  0  0999 V2000
   32.7052  -21.7927  -11.7985 C   0  0  0  0  0  0  0  0  0  0  0  0
   32.8229  -23.1156  -13.0472 S   0  0  0  0  0  0  0  0  0  0  0  0
   31.4733  -22.8804  -14.2796 C   0  0  0  0  0  0  0  0  0  0  0  0
   30.4327  -21.9989  -13.6860 C   0  0  0  0  0  0  0  0  0  0  0  0
   29.3500  -21.6576  -14.6429 C   0  0  2  0  0  0  0  0  0  0  0  0
   29.8732  -20.9612  -15.8015 N   0  0  0  0  0  0  0  0  0  0  0  0
   28.2517  -20.8302  -14.0733 C   0  0  0  0  0  0  0  0  0  0  0  0
   28.3194  -19.5657  -14.0589 O   0  0  0  0  0  0  0  0  0  0  0  0
   24.7523  -20.3310  -14.9347 C   0  0  0  0  0  0  0  0  0  0  0  0
   24.7237  -20.8556  -13.5144 C   0  0  2  0  0  0  0  0  0  0  0  0
   23.6603  -20.1168  -12.7281 C   0  0  0  0  0  0  0  0  0  0  0  0
   26.0385  -20.7471  -12.8269 C   0  0  2  0  0  0  0  0  0  0  0  0
   27.1066  -21.4208  -13.5296 N   0  0  0  0  0  0  0  0  0  0  0  0
   25.8916  -21.2587  -11.4335 C   0  0  0  0  0  0  0  0  0  0  0  0
   25.6936  -22.4540  -11.1274 O   0  0  0  0  0  0  0  0  0  0  0  0
   25.9904  -20.2915  -10.4060 N   0  0  0  0  0  0  0  0  0  0  0  0
   25.7837  -20.6635   -9.0016 C   0  0  1  0  0  0  0  0  0  0  0  0
   26.4967  -19.5901   -8.2133 C   0  0  0  0  0  0  0  0  0  0  0  0
   27.6139  -20.1555   -7.4446 C   0  0  0  0  0  0  0  0  0  0  0  0
   28.3639  -21.2422   -7.9114 C   0  0  0  0  0  0  0  0  0  0  0  0
   29.3440  -21.5307   -7.0603 N   0  0  0  0  0  0  0  0  0  0  0  0
   29.2612  -20.6585   -6.0348 C   0  0  0  0  0  0  0  0  0  0  0  0
   30.0237  -20.5269   -4.8889 C   0  0  0  0  0  0  0  0  0  0  0  0
   29.7265  -19.5409   -3.9592 C   0  0  0  0  0  0  0  0  0  0  0  0
   28.6740  -18.7240   -4.2157 C   0  0  0  0  0  0  0  0  0  0  0  0
   27.8840  -18.8213   -5.3517 C   0  0  0  0  0  0  0  0  0  0  0  0
   28.1955  -19.8070   -6.2648 C   0  0  0  0  0  0  0  0  0  0  0  0
   24.3377  -20.7538   -8.7823 C   0  0  0  0  0  0  0  0  0  0  0  0
   23.7922  -21.5918   -7.7898 O   0  0  0  0  0  0  0  0  0  0  0  0
   23.5013  -20.1010   -9.4528 O   0  0  0  0  0  0  0  0  0  0  0  0
  1  2  1  0
  2  3  1  0
  4  3  1  0
  5  6  1  6
  5  4  1  0
  7  5  1  0
  8  7  2  0
 10  9  1  6
 10 12  1  0
 10 11  1  0
 12 13  1  6
 13  7  1  0
 14 15  2  0
 14 12  1  0
 16 14  1  0
 17 16  1  0
 17 18  1  1
 19 18  1  0
 20 19  2  0
 21 22  1  0
 21 20  1  0
 22 27  2  0
 23 22  1  0
 23 24  2  0
 24 25  1  0
 25 26  2  0
 27 19  1  0
 27 26  1  0
 28 29  1  0
 28 17  1  0
 30 28  2  0
M  END
$$$$
