MVW.pdb
     RDKit          3D

 30 31  0  0  1  0  0  0  0  0999 V2000
   21.3979  -12.9494  -18.0187 C   0  0  0  0  0  0  0  0  0  0  0  0
   21.8744  -14.5999  -17.4090 S   0  0  0  0  0  0  0  0  0  0  0  0
   23.4086  -15.1274  -18.2828 C   0  0  0  0  0  0  0  0  0  0  0  0
   23.7626  -16.5020  -17.8386 C   0  0  0  0  0  0  0  0  0  0  0  0
   24.9483  -17.0499  -18.5446 C   0  0  2  0  0  0  0  0  0  0  0  0
   24.7427  -17.0696  -19.9793 N   0  0  0  0  0  0  0  0  0  0  0  0
   25.3465  -18.4209  -18.1240 C   0  0  0  0  0  0  0  0  0  0  0  0
   24.6994  -19.4408  -18.5051 O   0  0  0  0  0  0  0  0  0  0  0  0
   28.3602  -20.4296  -18.6555 C   0  0  0  0  0  0  0  0  0  0  0  0
   28.2305  -20.3056  -17.1518 C   0  0  2  0  0  0  0  0  0  0  0  0
   28.6060  -21.6233  -16.5056 C   0  0  0  0  0  0  0  0  0  0  0  0
   26.8700  -19.8899  -16.7169 C   0  0  2  0  0  0  0  0  0  0  0  0
   26.4482  -18.6316  -17.2888 N   0  0  0  0  0  0  0  0  0  0  0  0
   26.8366  -19.8525  -15.2261 C   0  0  0  0  0  0  0  0  0  0  0  0
   27.3563  -18.9611  -14.5211 O   0  0  0  0  0  0  0  0  0  0  0  0
   26.1566  -20.9208  -14.5957 N   0  0  0  0  0  0  0  0  0  0  0  0
   26.1223  -21.0304  -13.1328 C   0  0  1  0  0  0  0  0  0  0  0  0
   25.3501  -19.8146  -12.6768 C   0  0  0  0  0  0  0  0  0  0  0  0
   25.0631  -19.8824  -11.2375 C   0  0  0  0  0  0  0  0  0  0  0  0
   26.0070  -19.5110  -10.2720 C   0  0  0  0  0  0  0  0  0  0  0  0
   25.4895  -19.6150   -9.0515 N   0  0  0  0  0  0  0  0  0  0  0  0
   24.2197  -20.0496   -9.1845 C   0  0  0  0  0  0  0  0  0  0  0  0
   23.2515  -20.3328   -8.2388 C   0  0  0  0  0  0  0  0  0  0  0  0
   22.0012  -20.7886   -8.6311 C   0  0  0  0  0  0  0  0  0  0  0  0
   21.7705  -20.9429   -9.9593 C   0  0  0  0  0  0  0  0  0  0  0  0
   22.7127  -20.6704  -10.9402 C   0  0  0  0  0  0  0  0  0  0  0  0
   23.9495  -20.2174  -10.5308 C   0  0  0  0  0  0  0  0  0  0  0  0
   25.5158  -22.3237  -12.8061 C   0  0  0  0  0  0  0  0  0  0  0  0
   25.8536  -23.0217  -11.6300 O   0  0  0  0  0  0  0  0  0  0  0  0
   24.6679  -22.8874  -13.5401 O   0  0  0  0  0  0  0  0  0  0  0  0
  1  2  1  0
  2  3  1  0
  4  3  1  0
  5  6  1  6
  5  4  1  0
  7  5  1  0
  8  7  2  0
 10  9  1  6
 10 12  1  0
 10 11  1  0
 12 13  1  6
 13  7  1  0
 14 15  2  0
 14 12  1  0
 16 14  1  0
 17 16  1  0
 17 18  1  1
 19 18  1  0
 20 19  2  0
 21 22  1  0
 21 20  1  0
 22 27  2  0
 23 22  1  0
 23 24  2  0
 24 25  1  0
 25 26  2  0
 27 19  1  0
 27 26  1  0
 28 29  1  0
 28 17  1  0
 30 28  2  0
M  END
$$$$
