MVW.pdb
     RDKit          3D

 30 31  0  0  1  0  0  0  0  0999 V2000
   27.7591  -15.0672  -16.9985 C   0  0  0  0  0  0  0  0  0  0  0  0
   29.3404  -15.9697  -16.9091 S   0  0  0  0  0  0  0  0  0  0  0  0
   29.0302  -17.7384  -17.3226 C   0  0  0  0  0  0  0  0  0  0  0  0
   27.8113  -18.1911  -16.6003 C   0  0  0  0  0  0  0  0  0  0  0  0
   27.4376  -19.5921  -16.9193 C   0  0  2  0  0  0  0  0  0  0  0  0
   27.1387  -19.7481  -18.3290 N   0  0  0  0  0  0  0  0  0  0  0  0
   26.2790  -20.1198  -16.1483 C   0  0  0  0  0  0  0  0  0  0  0  0
   25.1175  -19.6355  -16.2909 O   0  0  0  0  0  0  0  0  0  0  0  0
   24.7919  -23.3455  -16.2933 C   0  0  0  0  0  0  0  0  0  0  0  0
   25.1076  -23.1851  -14.8209 C   0  0  2  0  0  0  0  0  0  0  0  0
   23.9564  -23.7276  -13.9991 C   0  0  0  0  0  0  0  0  0  0  0  0
   25.3935  -21.7767  -14.4367 C   0  0  2  0  0  0  0  0  0  0  0  0
   26.4328  -21.1676  -15.2350 N   0  0  0  0  0  0  0  0  0  0  0  0
   25.7255  -21.7370  -12.9830 C   0  0  0  0  0  0  0  0  0  0  0  0
   26.6307  -22.4039  -12.4375 O   0  0  0  0  0  0  0  0  0  0  0  0
   24.9377  -20.8681  -12.1922 N   0  0  0  0  0  0  0  0  0  0  0  0
   25.0023  -20.9199  -10.7271 C   0  0  1  0  0  0  0  0  0  0  0  0
   25.8314  -19.7182  -10.3388 C   0  0  0  0  0  0  0  0  0  0  0  0
   27.0607  -20.1280   -9.6462 C   0  0  0  0  0  0  0  0  0  0  0  0
   27.9993  -20.9820  -10.2385 C   0  0  0  0  0  0  0  0  0  0  0  0
   29.0412  -21.1592   -9.4315 N   0  0  0  0  0  0  0  0  0  0  0  0
   28.8148  -20.4411   -8.3124 C   0  0  0  0  0  0  0  0  0  0  0  0
   29.5679  -20.2862   -7.1632 C   0  0  0  0  0  0  0  0  0  0  0  0
   29.1061  -19.4902   -6.1250 C   0  0  0  0  0  0  0  0  0  0  0  0
   27.9045  -18.8794   -6.2804 C   0  0  0  0  0  0  0  0  0  0  0  0
   27.1179  -19.0076   -7.4158 C   0  0  0  0  0  0  0  0  0  0  0  0
   27.5941  -19.8024   -8.4375 C   0  0  0  0  0  0  0  0  0  0  0  0
   23.6243  -20.9247  -10.2293 C   0  0  0  0  0  0  0  0  0  0  0  0
   22.5221  -20.9356  -11.1066 O   0  0  0  0  0  0  0  0  0  0  0  0
   23.3376  -20.9200   -9.0073 O   0  0  0  0  0  0  0  0  0  0  0  0
  1  2  1  0
  2  3  1  0
  4  3  1  0
  5  6  1  6
  5  4  1  0
  7  5  1  0
  8  7  2  0
 10  9  1  6
 10 12  1  0
 10 11  1  0
 12 13  1  6
 13  7  1  0
 14 15  2  0
 14 12  1  0
 16 14  1  0
 17 16  1  0
 17 18  1  1
 19 18  1  0
 20 19  2  0
 21 22  1  0
 21 20  1  0
 22 27  2  0
 23 22  1  0
 23 24  2  0
 24 25  1  0
 25 26  2  0
 27 19  1  0
 27 26  1  0
 28 29  1  0
 28 17  1  0
 30 28  2  0
M  END
$$$$
