MVW.pdb
     RDKit          3D

 30 31  0  0  1  0  0  0  0  0999 V2000
   26.7475  -20.4734  -19.8191 C   0  0  0  0  0  0  0  0  0  0  0  0
   28.4054  -20.6456  -19.0809 S   0  0  0  0  0  0  0  0  0  0  0  0
   28.3953  -19.8418  -17.4228 C   0  0  0  0  0  0  0  0  0  0  0  0
   27.2893  -20.4239  -16.6166 C   0  0  0  0  0  0  0  0  0  0  0  0
   27.7712  -21.1568  -15.4187 C   0  0  2  0  0  0  0  0  0  0  0  0
   28.5158  -22.3428  -15.7930 N   0  0  0  0  0  0  0  0  0  0  0  0
   26.7027  -21.5721  -14.4695 C   0  0  0  0  0  0  0  0  0  0  0  0
   26.0663  -22.6556  -14.6273 O   0  0  0  0  0  0  0  0  0  0  0  0
   26.9624  -21.0460  -10.4940 C   0  0  0  0  0  0  0  0  0  0  0  0
   25.6505  -20.5232  -11.0406 C   0  0  2  0  0  0  0  0  0  0  0  0
   24.5346  -20.8577  -10.0722 C   0  0  0  0  0  0  0  0  0  0  0  0
   25.3314  -21.0521  -12.3939 C   0  0  2  0  0  0  0  0  0  0  0  0
   26.3605  -20.7776  -13.3707 N   0  0  0  0  0  0  0  0  0  0  0  0
   24.0112  -20.5045  -12.8208 C   0  0  0  0  0  0  0  0  0  0  0  0
   23.6523  -19.3152  -12.6849 O   0  0  0  0  0  0  0  0  0  0  0  0
   23.1238  -21.4276  -13.4219 N   0  0  0  0  0  0  0  0  0  0  0  0
   21.7877  -21.0087  -13.8608 C   0  0  1  0  0  0  0  0  0  0  0  0
   21.5709  -21.7331  -15.1686 C   0  0  0  0  0  0  0  0  0  0  0  0
   20.2322  -21.4576  -15.7077 C   0  0  0  0  0  0  0  0  0  0  0  0
   19.9042  -20.2286  -16.2935 C   0  0  0  0  0  0  0  0  0  0  0  0
   18.6538  -20.2478  -16.7457 N   0  0  0  0  0  0  0  0  0  0  0  0
   18.1416  -21.4651  -16.4715 C   0  0  0  0  0  0  0  0  0  0  0  0
   16.8905  -22.0013  -16.7148 C   0  0  0  0  0  0  0  0  0  0  0  0
   16.5945  -23.2972  -16.3176 C   0  0  0  0  0  0  0  0  0  0  0  0
   17.5667  -24.0060  -15.6905 C   0  0  0  0  0  0  0  0  0  0  0  0
   18.8339  -23.5069  -15.4272 C   0  0  0  0  0  0  0  0  0  0  0  0
   19.1097  -22.2170  -15.8304 C   0  0  0  0  0  0  0  0  0  0  0  0
   20.8495  -21.3473  -12.7874 C   0  0  0  0  0  0  0  0  0  0  0  0
   19.7165  -20.5542  -12.5194 O   0  0  0  0  0  0  0  0  0  0  0  0
   20.9897  -22.3509  -12.0467 O   0  0  0  0  0  0  0  0  0  0  0  0
  1  2  1  0
  2  3  1  0
  4  3  1  0
  5  6  1  6
  5  4  1  0
  7  5  1  0
  8  7  2  0
 10  9  1  1
 10 12  1  0
 10 11  1  0
 12 13  1  6
 13  7  1  0
 14 15  2  0
 14 12  1  0
 16 14  1  0
 17 16  1  0
 17 18  1  6
 19 18  1  0
 20 19  2  0
 21 22  1  0
 21 20  1  0
 22 27  2  0
 23 22  1  0
 23 24  2  0
 24 25  1  0
 25 26  2  0
 27 19  1  0
 27 26  1  0
 28 29  1  0
 28 17  1  0
 30 28  2  0
M  END
$$$$
