MAM.pdb
     RDKit          3D

 22 21  0  0  1  0  0  0  0  0999 V2000
    6.1314  -12.2135   27.0542 C   0  0  0  0  0  0  0  0  0  0  0  0
    7.4536  -12.7954   25.9681 S   0  0  0  0  0  0  0  0  0  0  0  0
    7.4661  -14.6052   25.8512 C   0  0  0  0  0  0  0  0  0  0  0  0
    6.6457  -15.0589   24.6671 C   0  0  0  0  0  0  0  0  0  0  0  0
    6.5814  -16.5705   24.5742 C   0  0  2  0  0  0  0  0  0  0  0  0
    6.6952  -17.1579   25.9036 N   0  0  0  0  0  0  0  0  0  0  0  0
    7.7832  -16.9983   23.8035 C   0  0  0  0  0  0  0  0  0  0  0  0
    7.9510  -18.2012   23.4432 O   0  0  0  0  0  0  0  0  0  0  0  0
   10.4316  -15.3644   21.7966 C   0  0  0  0  0  0  0  0  0  0  0  0
   10.0015  -16.4072   22.8150 C   0  0  2  0  0  0  0  0  0  0  0  0
    8.7761  -16.0343   23.4582 N   0  0  0  0  0  0  0  0  0  0  0  0
   11.0340  -16.6532   23.8247 C   0  0  0  0  0  0  0  0  0  0  0  0
   12.2143  -16.8736   23.4741 O   0  0  0  0  0  0  0  0  0  0  0  0
    9.0262  -12.8641   28.2094 C   0  0  0  0  0  0  0  0  0  0  0  0
   10.0027  -14.3075   28.7515 S   0  0  0  0  0  0  0  0  0  0  0  0
   10.6860  -15.0709   27.2662 C   0  0  0  0  0  0  0  0  0  0  0  0
   11.2538  -16.4480   27.5390 C   0  0  0  0  0  0  0  0  0  0  0  0
   11.7954  -16.9520   26.1922 C   0  0  2  0  0  0  0  0  0  0  0  0
   10.7523  -16.6532   25.2108 N   0  0  0  0  0  0  0  0  0  0  0  0
   12.0835  -18.3872   26.2256 C   0  0  0  0  0  0  0  0  0  0  0  0
   13.1722  -18.7803   26.7281 O   0  0  0  0  0  0  0  0  0  0  0  0
   11.1733  -19.2996   25.7123 O   0  0  0  0  0  0  0  0  0  0  0  0
  2  1  1  0
  3  4  1  0
  3  2  1  0
  4  5  1  0
  5  6  1  1
  7 11  1  0
  7  5  1  0
  8  7  2  0
 10  9  1  6
 10 12  1  0
 10 11  1  0
 12 19  1  0
 13 12  2  0
 15 14  1  0
 16 15  1  0
 17 16  1  0
 18 17  1  1
 19 18  1  0
 20 18  1  0
 20 22  1  0
 21 20  2  0
M  END
$$$$
