MAM.pdb
     RDKit          3D

 22 21  0  0  1  0  0  0  0  0999 V2000
    9.1096  -11.8397   19.4947 C   0  0  0  0  0  0  0  0  0  0  0  0
    8.2385  -12.4773   18.0452 S   0  0  0  0  0  0  0  0  0  0  0  0
    8.4569  -14.2699   17.8769 C   0  0  0  0  0  0  0  0  0  0  0  0
    8.3803  -14.9358   19.2302 C   0  0  0  0  0  0  0  0  0  0  0  0
    8.7198  -16.4110   19.1506 C   0  0  2  0  0  0  0  0  0  0  0  0
    7.6908  -17.1205   18.4003 N   0  0  0  0  0  0  0  0  0  0  0  0
    8.6782  -16.9305   20.5470 C   0  0  0  0  0  0  0  0  0  0  0  0
    7.5831  -17.1657   21.1386 O   0  0  0  0  0  0  0  0  0  0  0  0
   11.1000  -18.5753   22.8370 C   0  0  0  0  0  0  0  0  0  0  0  0
    9.9182  -17.6512   22.5940 C   0  0  2  0  0  0  0  0  0  0  0  0
    9.8994  -17.1722   21.2432 N   0  0  0  0  0  0  0  0  0  0  0  0
    9.9037  -16.5165   23.5204 C   0  0  0  0  0  0  0  0  0  0  0  0
   10.7058  -15.5694   23.3649 O   0  0  0  0  0  0  0  0  0  0  0  0
    6.3670  -11.2283   27.6935 C   0  0  0  0  0  0  0  0  0  0  0  0
    6.1361  -12.6208   26.5365 S   0  0  0  0  0  0  0  0  0  0  0  0
    7.6971  -13.5240   26.4788 C   0  0  0  0  0  0  0  0  0  0  0  0
    7.6696  -14.6520   25.4688 C   0  0  0  0  0  0  0  0  0  0  0  0
    9.0512  -15.3197   25.5490 C   0  0  2  0  0  0  0  0  0  0  0  0
    9.0034  -16.4395   24.6087 N   0  0  0  0  0  0  0  0  0  0  0  0
    9.3496  -15.7892   26.9034 C   0  0  0  0  0  0  0  0  0  0  0  0
    9.2153  -17.0156   27.1683 O   0  0  0  0  0  0  0  0  0  0  0  0
    9.7731  -14.8990   27.8794 O   0  0  0  0  0  0  0  0  0  0  0  0
  2  1  1  0
  3  4  1  0
  3  2  1  0
  4  5  1  0
  5  6  1  6
  7 11  1  0
  7  5  1  0
  8  7  2  0
 10  9  1  6
 10 12  1  0
 10 11  1  0
 12 19  1  0
 13 12  2  0
 15 14  1  0
 16 15  1  0
 17 16  1  0
 18 17  1  1
 19 18  1  0
 20 18  1  0
 20 22  1  0
 21 20  2  0
M  END
$$$$
