MAM.pdb
     RDKit          3D

 22 21  0  0  1  0  0  0  0  0999 V2000
    9.1408  -11.9321   19.3159 C   0  0  0  0  0  0  0  0  0  0  0  0
    7.6504  -12.6237   18.5630 S   0  0  0  0  0  0  0  0  0  0  0  0
    7.2222  -14.2272   19.2943 C   0  0  0  0  0  0  0  0  0  0  0  0
    8.4337  -14.8417   19.9543 C   0  0  0  0  0  0  0  0  0  0  0  0
    8.0800  -16.1059   20.7123 C   0  0  2  0  0  0  0  0  0  0  0  0
    7.0014  -16.8114   20.0310 N   0  0  0  0  0  0  0  0  0  0  0  0
    7.5497  -15.6711   22.0356 C   0  0  0  0  0  0  0  0  0  0  0  0
    7.0336  -14.5265   22.2038 O   0  0  0  0  0  0  0  0  0  0  0  0
    6.5835  -17.1792   25.2673 C   0  0  0  0  0  0  0  0  0  0  0  0
    7.3486  -16.1242   24.4854 C   0  0  2  0  0  0  0  0  0  0  0  0
    7.6210  -16.5612   23.1478 N   0  0  0  0  0  0  0  0  0  0  0  0
    8.6005  -15.7459   25.1457 C   0  0  0  0  0  0  0  0  0  0  0  0
    8.6038  -14.8481   26.0166 O   0  0  0  0  0  0  0  0  0  0  0  0
    9.3679  -12.9495   28.4533 C   0  0  0  0  0  0  0  0  0  0  0  0
   10.2565  -14.3764   29.1643 S   0  0  0  0  0  0  0  0  0  0  0  0
   11.2622  -15.0838   27.8438 C   0  0  0  0  0  0  0  0  0  0  0  0
   10.5460  -16.2008   27.1137 C   0  0  0  0  0  0  0  0  0  0  0  0
   11.0239  -16.1217   25.6555 C   0  0  2  0  0  0  0  0  0  0  0  0
    9.8353  -16.3629   24.8372 N   0  0  0  0  0  0  0  0  0  0  0  0
   12.0627  -17.1133   25.3699 C   0  0  0  0  0  0  0  0  0  0  0  0
   13.2053  -16.9668   25.8851 O   0  0  0  0  0  0  0  0  0  0  0  0
   11.7942  -18.1963   24.5457 O   0  0  0  0  0  0  0  0  0  0  0  0
  2  1  1  0
  3  4  1  0
  3  2  1  0
  4  5  1  0
  5  6  1  6
  7 11  1  0
  7  5  1  0
  8  7  2  0
 10  9  1  1
 10 12  1  0
 10 11  1  0
 12 19  1  0
 13 12  2  0
 15 14  1  0
 16 15  1  0
 17 16  1  0
 18 17  1  1
 19 18  1  0
 20 18  1  0
 20 22  1  0
 21 20  2  0
M  END
$$$$
