MAM.pdb
     RDKit          3D

 22 21  0  0  1  0  0  0  0  0999 V2000
   13.4394  -14.8330   20.4057 C   0  0  0  0  0  0  0  0  0  0  0  0
   13.2188  -14.4986   18.6433 S   0  0  0  0  0  0  0  0  0  0  0  0
   11.4626  -14.4506   18.1932 C   0  0  0  0  0  0  0  0  0  0  0  0
   10.6142  -14.2140   19.4200 C   0  0  0  0  0  0  0  0  0  0  0  0
    9.1338  -14.2722   19.0992 C   0  0  2  0  0  0  0  0  0  0  0  0
    8.6624  -12.9591   18.6764 N   0  0  0  0  0  0  0  0  0  0  0  0
    8.4368  -14.5959   20.3762 C   0  0  0  0  0  0  0  0  0  0  0  0
    8.0650  -13.6909   21.1809 O   0  0  0  0  0  0  0  0  0  0  0  0
    6.9982  -17.7763   21.8297 C   0  0  0  0  0  0  0  0  0  0  0  0
    7.4408  -16.3233   21.8833 C   0  0  2  0  0  0  0  0  0  0  0  0
    8.1773  -15.9583   20.7091 N   0  0  0  0  0  0  0  0  0  0  0  0
    8.2384  -16.0317   23.0769 C   0  0  0  0  0  0  0  0  0  0  0  0
    9.4818  -16.1653   23.0485 O   0  0  0  0  0  0  0  0  0  0  0  0
    5.1385  -12.3576   26.9960 C   0  0  0  0  0  0  0  0  0  0  0  0
    6.8629  -11.7932   26.7987 S   0  0  0  0  0  0  0  0  0  0  0  0
    7.7068  -13.0199   25.7795 C   0  0  0  0  0  0  0  0  0  0  0  0
    7.6159  -14.4130   26.3663 C   0  0  0  0  0  0  0  0  0  0  0  0
    8.4800  -15.3055   25.4620 C   0  0  2  0  0  0  0  0  0  0  0  0
    7.6547  -15.5955   24.2892 N   0  0  0  0  0  0  0  0  0  0  0  0
    8.8765  -16.5421   26.1385 C   0  0  0  0  0  0  0  0  0  0  0  0
    8.1675  -17.5750   25.9881 O   0  0  0  0  0  0  0  0  0  0  0  0
   10.0136  -16.5763   26.9323 O   0  0  0  0  0  0  0  0  0  0  0  0
  2  1  1  0
  3  4  1  0
  3  2  1  0
  4  5  1  0
  5  6  1  1
  7 11  1  0
  7  5  1  0
  8  7  2  0
 10  9  1  6
 10 12  1  0
 10 11  1  0
 12 19  1  0
 13 12  2  0
 15 14  1  0
 16 15  1  0
 17 16  1  0
 18 17  1  1
 19 18  1  0
 20 18  1  0
 20 22  1  0
 21 20  2  0
M  END
$$$$
