MAM.pdb
     RDKit          3D

 22 21  0  0  1  0  0  0  0  0999 V2000
    7.4414  -21.2833   23.3196 C   0  0  0  0  0  0  0  0  0  0  0  0
    7.1088  -22.0895   21.7366 S   0  0  0  0  0  0  0  0  0  0  0  0
    6.5290  -20.8998   20.4966 C   0  0  0  0  0  0  0  0  0  0  0  0
    7.4534  -19.7067   20.4436 C   0  0  0  0  0  0  0  0  0  0  0  0
    7.1974  -18.7462   21.5880 C   0  0  2  0  0  0  0  0  0  0  0  0
    5.8055  -18.3130   21.5745 N   0  0  0  0  0  0  0  0  0  0  0  0
    8.0324  -17.5404   21.3230 C   0  0  0  0  0  0  0  0  0  0  0  0
    9.2792  -17.6252   21.1157 O   0  0  0  0  0  0  0  0  0  0  0  0
    7.3155  -13.9098   20.6291 C   0  0  0  0  0  0  0  0  0  0  0  0
    8.1848  -15.0534   21.1253 C   0  0  2  0  0  0  0  0  0  0  0  0
    7.4195  -16.2527   21.3004 N   0  0  0  0  0  0  0  0  0  0  0  0
    8.8755  -14.7218   22.3739 C   0  0  0  0  0  0  0  0  0  0  0  0
    9.7792  -13.8571   22.3802 O   0  0  0  0  0  0  0  0  0  0  0  0
    5.3115  -11.6811   26.4205 C   0  0  0  0  0  0  0  0  0  0  0  0
    6.3479  -13.0527   27.0335 S   0  0  0  0  0  0  0  0  0  0  0  0
    7.5106  -13.4654   25.7168 C   0  0  0  0  0  0  0  0  0  0  0  0
    8.1129  -14.8434   25.8953 C   0  0  0  0  0  0  0  0  0  0  0  0
    9.2273  -14.9527   24.8432 C   0  0  2  0  0  0  0  0  0  0  0  0
    8.5610  -15.3486   23.6023 N   0  0  0  0  0  0  0  0  0  0  0  0
   10.2415  -15.9368   25.2266 C   0  0  0  0  0  0  0  0  0  0  0  0
   10.9858  -15.6932   26.2160 O   0  0  0  0  0  0  0  0  0  0  0  0
   10.3813  -17.1178   24.5125 O   0  0  0  0  0  0  0  0  0  0  0  0
  2  1  1  0
  3  4  1  0
  3  2  1  0
  4  5  1  0
  5  6  1  6
  7 11  1  0
  7  5  1  0
  8  7  2  0
 10  9  1  1
 10 12  1  0
 10 11  1  0
 12 19  1  0
 13 12  2  0
 15 14  1  0
 16 15  1  0
 17 16  1  0
 18 17  1  1
 19 18  1  0
 20 18  1  0
 20 22  1  0
 21 20  2  0
M  END
$$$$
