MAM.pdb
     RDKit          3D

 22 21  0  0  1  0  0  0  0  0999 V2000
    7.5233  -11.3759   20.7776 C   0  0  0  0  0  0  0  0  0  0  0  0
    8.4459  -12.4759   19.6797 S   0  0  0  0  0  0  0  0  0  0  0  0
    7.9363  -14.2034   19.8924 C   0  0  0  0  0  0  0  0  0  0  0  0
    8.8214  -15.1146   19.0754 C   0  0  0  0  0  0  0  0  0  0  0  0
    8.4393  -16.5714   19.2476 C   0  0  2  0  0  0  0  0  0  0  0  0
    7.0510  -16.7738   18.8514 N   0  0  0  0  0  0  0  0  0  0  0  0
    8.5234  -16.8610   20.7072 C   0  0  0  0  0  0  0  0  0  0  0  0
    7.5042  -16.8072   21.4575 O   0  0  0  0  0  0  0  0  0  0  0  0
   11.0564  -18.6447   22.7872 C   0  0  0  0  0  0  0  0  0  0  0  0
    9.8910  -17.6817   22.6316 C   0  0  2  0  0  0  0  0  0  0  0  0
    9.7811  -17.2089   21.2829 N   0  0  0  0  0  0  0  0  0  0  0  0
    9.9885  -16.5427   23.5476 C   0  0  0  0  0  0  0  0  0  0  0  0
   10.1346  -15.3854   23.0962 O   0  0  0  0  0  0  0  0  0  0  0  0
    6.5843  -11.3440   26.4703 C   0  0  0  0  0  0  0  0  0  0  0  0
    6.4200  -13.1471   26.2403 S   0  0  0  0  0  0  0  0  0  0  0  0
    8.0668  -13.8572   26.4393 C   0  0  0  0  0  0  0  0  0  0  0  0
    8.3077  -15.0186   25.4978 C   0  0  0  0  0  0  0  0  0  0  0  0
    9.7158  -15.5387   25.8262 C   0  0  2  0  0  0  0  0  0  0  0  0
    9.9235  -16.6937   24.9525 N   0  0  0  0  0  0  0  0  0  0  0  0
    9.8385  -15.9218   27.2341 C   0  0  0  0  0  0  0  0  0  0  0  0
    9.5525  -17.1033   27.5728 O   0  0  0  0  0  0  0  0  0  0  0  0
   10.2622  -14.9997   28.1798 O   0  0  0  0  0  0  0  0  0  0  0  0
  2  1  1  0
  3  4  1  0
  3  2  1  0
  4  5  1  0
  5  6  1  1
  7 11  1  0
  7  5  1  0
  8  7  2  0
 10  9  1  6
 10 12  1  0
 10 11  1  0
 12 19  1  0
 13 12  2  0
 15 14  1  0
 16 15  1  0
 17 16  1  0
 18 17  1  1
 19 18  1  0
 20 18  1  0
 20 22  1  0
 21 20  2  0
M  END
$$$$
