MAM.pdb
     RDKit          3D

 22 21  0  0  1  0  0  0  0  0999 V2000
    7.9374  -11.4634   18.2224 C   0  0  0  0  0  0  0  0  0  0  0  0
    8.3155  -12.2358   19.8120 S   0  0  0  0  0  0  0  0  0  0  0  0
    7.6405  -13.9164   19.9087 C   0  0  0  0  0  0  0  0  0  0  0  0
    7.9730  -14.5380   21.2444 C   0  0  0  0  0  0  0  0  0  0  0  0
    7.4847  -15.9701   21.3348 C   0  0  2  0  0  0  0  0  0  0  0  0
    6.1679  -16.0886   20.7206 N   0  0  0  0  0  0  0  0  0  0  0  0
    7.3182  -16.2694   22.7854 C   0  0  0  0  0  0  0  0  0  0  0  0
    6.2942  -15.8950   23.4303 O   0  0  0  0  0  0  0  0  0  0  0  0
    8.2959  -18.7557   25.1631 C   0  0  0  0  0  0  0  0  0  0  0  0
    8.2529  -17.2632   24.8797 C   0  0  2  0  0  0  0  0  0  0  0  0
    8.3341  -16.9963   23.4738 N   0  0  0  0  0  0  0  0  0  0  0  0
    9.3128  -16.5359   25.5823 C   0  0  0  0  0  0  0  0  0  0  0  0
   10.4507  -16.4379   25.0721 O   0  0  0  0  0  0  0  0  0  0  0  0
    6.7177  -11.7906   25.7695 C   0  0  0  0  0  0  0  0  0  0  0  0
    7.3024  -12.5867   27.3042 S   0  0  0  0  0  0  0  0  0  0  0  0
    8.9828  -13.1653   26.9920 C   0  0  0  0  0  0  0  0  0  0  0  0
    9.5358  -13.9708   28.1490 C   0  0  0  0  0  0  0  0  0  0  0  0
   10.1872  -15.2127   27.5211 C   0  0  2  0  0  0  0  0  0  0  0  0
    9.1051  -15.9246   26.8408 N   0  0  0  0  0  0  0  0  0  0  0  0
   10.8169  -16.0652   28.5314 C   0  0  0  0  0  0  0  0  0  0  0  0
   10.2848  -17.1742   28.8126 O   0  0  0  0  0  0  0  0  0  0  0  0
   11.9800  -15.6589   29.1690 O   0  0  0  0  0  0  0  0  0  0  0  0
  2  1  1  0
  3  4  1  0
  3  2  1  0
  4  5  1  0
  5  6  1  6
  7 11  1  0
  7  5  1  0
  8  7  2  0
 10  9  1  6
 10 12  1  0
 10 11  1  0
 12 19  1  0
 13 12  2  0
 15 14  1  0
 16 15  1  0
 17 16  1  0
 18 17  1  1
 19 18  1  0
 20 18  1  0
 20 22  1  0
 21 20  2  0
M  END
$$$$
