MAM.pdb
     RDKit          3D

 22 21  0  0  1  0  0  0  0  0999 V2000
    6.1121  -11.5765   26.8879 C   0  0  0  0  0  0  0  0  0  0  0  0
    6.6550  -12.2096   25.2844 S   0  0  0  0  0  0  0  0  0  0  0  0
    5.7309  -13.6972   24.8127 C   0  0  0  0  0  0  0  0  0  0  0  0
    6.5907  -14.5987   23.9588 C   0  0  0  0  0  0  0  0  0  0  0  0
    7.3169  -15.6363   24.7917 C   0  0  2  0  0  0  0  0  0  0  0  0
    8.0839  -14.9833   25.8456 N   0  0  0  0  0  0  0  0  0  0  0  0
    8.2971  -16.2968   23.8838 C   0  0  0  0  0  0  0  0  0  0  0  0
    7.9315  -17.1206   22.9936 O   0  0  0  0  0  0  0  0  0  0  0  0
   11.5721  -16.1490   22.4740 C   0  0  0  0  0  0  0  0  0  0  0  0
   10.6982  -16.8677   23.4886 C   0  0  2  0  0  0  0  0  0  0  0  0
    9.6860  -15.9994   24.0138 N   0  0  0  0  0  0  0  0  0  0  0  0
   11.4809  -17.4358   24.5890 C   0  0  0  0  0  0  0  0  0  0  0  0
   12.4452  -18.1947   24.3464 O   0  0  0  0  0  0  0  0  0  0  0  0
    9.8344  -13.0903   28.3711 C   0  0  0  0  0  0  0  0  0  0  0  0
   10.9909  -14.3557   28.9974 S   0  0  0  0  0  0  0  0  0  0  0  0
   11.0797  -15.6547   27.7481 C   0  0  0  0  0  0  0  0  0  0  0  0
   11.9708  -16.8018   28.1764 C   0  0  0  0  0  0  0  0  0  0  0  0
   11.9297  -17.8169   27.0236 C   0  0  2  0  0  0  0  0  0  0  0  0
   11.1904  -17.1598   25.9455 N   0  0  0  0  0  0  0  0  0  0  0  0
   11.2727  -19.0636   27.4211 C   0  0  0  0  0  0  0  0  0  0  0  0
   11.8361  -19.8070   28.2709 O   0  0  0  0  0  0  0  0  0  0  0  0
   10.0504  -19.4211   26.8712 O   0  0  0  0  0  0  0  0  0  0  0  0
  2  1  1  0
  3  4  1  0
  3  2  1  0
  4  5  1  0
  5  6  1  1
  7 11  1  0
  7  5  1  0
  8  7  2  0
 10  9  1  6
 10 12  1  0
 10 11  1  0
 12 19  1  0
 13 12  2  0
 15 14  1  0
 16 15  1  0
 17 16  1  0
 18 17  1  1
 19 18  1  0
 20 18  1  0
 20 22  1  0
 21 20  2  0
M  END
$$$$
