MAM.pdb
     RDKit          3D

 22 21  0  0  1  0  0  0  0  0999 V2000
    9.3323  -12.1823   19.5050 C   0  0  0  0  0  0  0  0  0  0  0  0
    7.8163  -12.0290   20.4771 S   0  0  0  0  0  0  0  0  0  0  0  0
    7.1521  -13.6550   20.9287 C   0  0  0  0  0  0  0  0  0  0  0  0
    8.1300  -14.7427   20.5527 C   0  0  0  0  0  0  0  0  0  0  0  0
    7.5722  -16.1230   20.8381 C   0  0  2  0  0  0  0  0  0  0  0  0
    6.1404  -16.1492   20.5654 N   0  0  0  0  0  0  0  0  0  0  0  0
    7.7423  -16.3538   22.3007 C   0  0  0  0  0  0  0  0  0  0  0  0
    6.8625  -15.9963   23.1390 O   0  0  0  0  0  0  0  0  0  0  0  0
    9.9308  -18.5878   24.3262 C   0  0  0  0  0  0  0  0  0  0  0  0
    9.0984  -17.3269   24.1612 C   0  0  2  0  0  0  0  0  0  0  0  0
    8.9243  -16.9938   22.7780 N   0  0  0  0  0  0  0  0  0  0  0  0
    9.6759  -16.1854   24.8750 C   0  0  0  0  0  0  0  0  0  0  0  0
   10.5724  -15.4981   24.3379 O   0  0  0  0  0  0  0  0  0  0  0  0
    6.2203  -11.3521   25.0842 C   0  0  0  0  0  0  0  0  0  0  0  0
    6.8178  -12.0936   26.6412 S   0  0  0  0  0  0  0  0  0  0  0  0
    8.1935  -13.1807   26.2147 C   0  0  0  0  0  0  0  0  0  0  0  0
    8.8068  -13.8347   27.4351 C   0  0  0  0  0  0  0  0  0  0  0  0
    9.9293  -14.7403   26.9052 C   0  0  2  0  0  0  0  0  0  0  0  0
    9.2573  -15.8150   26.1743 N   0  0  0  0  0  0  0  0  0  0  0  0
   10.7482  -15.2821   27.9914 C   0  0  0  0  0  0  0  0  0  0  0  0
   10.5266  -16.4565   28.3963 O   0  0  0  0  0  0  0  0  0  0  0  0
   11.7515  -14.5154   28.5658 O   0  0  0  0  0  0  0  0  0  0  0  0
  2  1  1  0
  3  4  1  0
  3  2  1  0
  4  5  1  0
  5  6  1  1
  7 11  1  0
  7  5  1  0
  8  7  2  0
 10  9  1  6
 10 12  1  0
 10 11  1  0
 12 19  1  0
 13 12  2  0
 15 14  1  0
 16 15  1  0
 17 16  1  0
 18 17  1  1
 19 18  1  0
 20 18  1  0
 20 22  1  0
 21 20  2  0
M  END
$$$$
