MAM.pdb
     RDKit          3D

 22 21  0  0  1  0  0  0  0  0999 V2000
    7.6399  -11.3951   25.7558 C   0  0  0  0  0  0  0  0  0  0  0  0
    6.5024  -12.4347   26.7002 S   0  0  0  0  0  0  0  0  0  0  0  0
    6.7423  -14.1921   26.3216 C   0  0  0  0  0  0  0  0  0  0  0  0
    6.5068  -14.4478   24.8518 C   0  0  0  0  0  0  0  0  0  0  0  0
    6.3714  -15.9278   24.5536 C   0  0  2  0  0  0  0  0  0  0  0  0
    6.0017  -16.6496   25.7650 N   0  0  0  0  0  0  0  0  0  0  0  0
    7.7267  -16.4051   24.1575 C   0  0  0  0  0  0  0  0  0  0  0  0
    8.4380  -17.1108   24.9326 O   0  0  0  0  0  0  0  0  0  0  0  0
    9.8237  -16.0469   21.0143 C   0  0  0  0  0  0  0  0  0  0  0  0
    9.5106  -16.5520   22.4130 C   0  0  2  0  0  0  0  0  0  0  0  0
    8.2444  -16.0628   22.8733 N   0  0  0  0  0  0  0  0  0  0  0  0
   10.5563  -16.1980   23.3760 C   0  0  0  0  0  0  0  0  0  0  0  0
   11.3069  -15.2219   23.1563 O   0  0  0  0  0  0  0  0  0  0  0  0
    9.2725  -13.1734   28.4546 C   0  0  0  0  0  0  0  0  0  0  0  0
   10.1675  -14.7595   28.5744 S   0  0  0  0  0  0  0  0  0  0  0  0
   10.7762  -15.1487   26.9210 C   0  0  0  0  0  0  0  0  0  0  0  0
   11.3848  -16.5334   26.8456 C   0  0  0  0  0  0  0  0  0  0  0  0
   11.9298  -16.6739   25.4159 C   0  0  2  0  0  0  0  0  0  0  0  0
   10.7620  -16.9257   24.5714 N   0  0  0  0  0  0  0  0  0  0  0  0
   12.8962  -17.7687   25.3082 C   0  0  0  0  0  0  0  0  0  0  0  0
   12.5018  -18.8930   24.8927 O   0  0  0  0  0  0  0  0  0  0  0  0
   14.2240  -17.5721   25.6582 O   0  0  0  0  0  0  0  0  0  0  0  0
  2  1  1  0
  3  4  1  0
  3  2  1  0
  4  5  1  0
  5  6  1  1
  7 11  1  0
  7  5  1  0
  8  7  2  0
 10  9  1  6
 10 12  1  0
 10 11  1  0
 12 19  1  0
 13 12  2  0
 15 14  1  0
 16 15  1  0
 17 16  1  0
 18 17  1  1
 19 18  1  0
 20 18  1  0
 20 22  1  0
 21 20  2  0
M  END
$$$$
