RHM.pdb
     RDKit          3D

 30 30  0  0  1  0  0  0  0  0999 V2000
   28.3390  -33.0813   -4.7824 N   0  0  0  0  0  0  0  0  0  0  0  0
   27.3060  -33.2681   -5.7425 C   0  0  0  0  0  0  0  0  0  0  0  0
   27.6606  -33.5693   -6.9494 N   0  0  0  0  0  0  0  0  0  0  0  0
   25.9323  -33.1297   -5.4020 N   0  0  0  0  0  0  0  0  0  0  0  0
   25.5443  -32.9053   -4.0519 C   0  0  0  0  0  0  0  0  0  0  0  0
   25.6925  -34.0599   -3.1232 C   0  0  0  0  0  0  0  0  0  0  0  0
   25.3119  -33.7853   -1.7018 C   0  0  0  0  0  0  0  0  0  0  0  0
   25.6036  -35.0288   -0.8718 C   0  0  2  0  0  0  0  0  0  0  0  0
   24.5689  -35.9560   -0.9983 N   0  0  0  0  0  0  0  0  0  0  0  0
   25.8766  -34.7148    0.5448 C   0  0  0  0  0  0  0  0  0  0  0  0
   24.9431  -34.4675    1.3346 O   0  0  0  0  0  0  0  0  0  0  0  0
   26.9962  -33.6910   -7.7414 N   0  0  0  0  0  0  0  0  0  0  0  0
   27.2112  -34.6941    1.0094 C   0  0  2  0  0  0  0  0  0  0  0  0
   27.6049  -34.2460    2.3306 C   0  0  0  0  0  0  0  0  0  0  0  0
   29.0646  -34.4273    2.5238 C   0  0  0  0  0  0  0  0  0  0  0  0
   29.5634  -34.1492    3.8838 C   0  0  0  0  0  0  0  0  0  0  0  0
   28.7415  -33.7568    4.9091 N   0  0  0  0  0  0  0  0  0  0  0  0
   29.4986  -33.5907    5.9977 C   0  0  0  0  0  0  0  0  0  0  0  0
   30.7618  -33.8752    5.6501 N   0  0  0  0  0  0  0  0  0  0  0  0
   30.8065  -34.2173    4.3579 C   0  0  0  0  0  0  0  0  0  0  0  0
   27.1059  -32.8768    2.6145 O   0  0  0  0  0  0  0  0  0  0  0  0
   27.1905  -31.9926    1.7272 C   0  0  0  0  0  0  0  0  0  0  0  0
   21.3433  -28.1768    4.1127 S   0  0  0  0  0  0  0  0  0  0  0  0
   22.1075  -29.7280    3.6900 C   0  0  0  0  0  0  0  0  0  0  0  0
   23.8329  -29.8552    4.1105 C   0  0  0  0  0  0  0  0  0  0  0  0
   24.5123  -31.1262    3.7689 C   0  0  1  0  0  0  0  0  0  0  0  0
   25.9533  -31.2212    4.1621 N   0  0  0  0  0  0  0  0  0  0  0  0
   26.5278  -32.5200    3.8687 C   0  0  0  0  0  0  0  0  0  0  0  0
   26.2249  -30.9356    5.5887 O   0  0  0  0  0  0  0  0  0  0  0  0
   26.6130  -29.6987    6.0831 O   0  0  0  0  0  0  0  0  0  0  0  0
  2  4  1  0
  2  1  1  0
  3  2  2  0
  5  4  1  0
  6  5  1  0
  7  6  1  0
  8  7  1  0
  8  9  1  1
 10  8  1  0
 10 11  2  0
 12 10  1  0
 13 12  1  0
 13 14  1  6
 15 16  2  0
 15 14  1  0
 17 16  1  0
 18 19  2  0
 18 17  1  0
 19 15  1  0
 20 13  1  0
 21 20  2  0
 23 22  1  0
 23 24  1  0
 24 25  1  0
 26 25  1  6
 26 27  1  0
 27 20  1  0
 28 26  1  0
 28 29  1  0
 30 28  2  0
M  END
$$$$
