RHM.pdb
     RDKit          3D

 30 30  0  0  1  0  0  0  0  0999 V2000
   19.9427  -16.0650  -18.1860 N   0  0  0  0  0  0  0  0  0  0  0  0
   19.2742  -15.7222  -19.3940 C   0  0  0  0  0  0  0  0  0  0  0  0
   18.9143  -16.6906  -20.1722 N   0  0  0  0  0  0  0  0  0  0  0  0
   19.0077  -14.3703  -19.7455 N   0  0  0  0  0  0  0  0  0  0  0  0
   19.3603  -13.3135  -18.8609 C   0  0  0  0  0  0  0  0  0  0  0  0
   20.8057  -12.9606  -18.7988 C   0  0  0  0  0  0  0  0  0  0  0  0
   21.1524  -11.8673  -17.8369 C   0  0  0  0  0  0  0  0  0  0  0  0
   21.9901  -10.8254  -18.5671 C   0  0  2  0  0  0  0  0  0  0  0  0
   23.1009  -11.4214  -19.1649 N   0  0  0  0  0  0  0  0  0  0  0  0
   22.3847   -9.7014  -17.6949 C   0  0  0  0  0  0  0  0  0  0  0  0
   21.5783   -9.2158  -16.8762 O   0  0  0  0  0  0  0  0  0  0  0  0
   18.3959  -16.5616  -21.0657 N   0  0  0  0  0  0  0  0  0  0  0  0
   23.6910   -9.1704  -17.7904 C   0  0  1  0  0  0  0  0  0  0  0  0
   24.1710   -8.0477  -17.0090 C   0  0  0  0  0  0  0  0  0  0  0  0
   25.6462   -8.1111  -16.8661 C   0  0  0  0  0  0  0  0  0  0  0  0
   26.1745   -9.3644  -16.2951 C   0  0  0  0  0  0  0  0  0  0  0  0
   25.3670  -10.4108  -15.9296 N   0  0  0  0  0  0  0  0  0  0  0  0
   26.1505  -11.3838  -15.4550 C   0  0  0  0  0  0  0  0  0  0  0  0
   27.4155  -10.9458  -15.5268 N   0  0  0  0  0  0  0  0  0  0  0  0
   27.4354   -9.7108  -16.0400 C   0  0  0  0  0  0  0  0  0  0  0  0
   23.6520   -6.7579  -17.5295 O   0  0  0  0  0  0  0  0  0  0  0  0
   23.9491   -6.3981  -18.6951 C   0  0  0  0  0  0  0  0  0  0  0  0
   17.2528   -3.2768  -18.0431 S   0  0  0  0  0  0  0  0  0  0  0  0
   18.5532   -3.9457  -19.0583 C   0  0  0  0  0  0  0  0  0  0  0  0
   20.1992   -3.7152  -18.4198 C   0  0  0  0  0  0  0  0  0  0  0  0
   20.8917   -4.9194  -17.9060 C   0  0  1  0  0  0  0  0  0  0  0  0
   22.2145   -4.6797  -17.2480 N   0  0  0  0  0  0  0  0  0  0  0  0
   22.8201   -5.8998  -16.7508 C   0  0  0  0  0  0  0  0  0  0  0  0
   22.1801   -3.7191  -16.1227 O   0  0  0  0  0  0  0  0  0  0  0  0
   22.1805   -2.3391  -16.2664 O   0  0  0  0  0  0  0  0  0  0  0  0
  2  4  1  0
  2  1  1  0
  3  2  2  0
  5  4  1  0
  6  5  1  0
  7  6  1  0
  8  7  1  0
  8  9  1  1
 10  8  1  0
 10 11  2  0
 12 10  1  0
 13 12  1  0
 13 14  1  1
 15 16  2  0
 15 14  1  0
 17 16  1  0
 18 19  2  0
 18 17  1  0
 19 15  1  0
 20 13  1  0
 21 20  2  0
 23 22  1  0
 23 24  1  0
 24 25  1  0
 26 25  1  6
 26 27  1  0
 27 20  1  0
 28 26  1  0
 28 29  1  0
 30 28  2  0
M  END
$$$$
