RHM.pdb
     RDKit          3D

 30 30  0  0  1  0  0  0  0  0999 V2000
   20.0291  -17.4776  -14.8956 N   0  0  0  0  0  0  0  0  0  0  0  0
   18.8413  -17.1321  -15.5981 C   0  0  0  0  0  0  0  0  0  0  0  0
   17.7664  -17.7928  -15.3137 N   0  0  0  0  0  0  0  0  0  0  0  0
   18.8234  -16.1032  -16.5796 N   0  0  0  0  0  0  0  0  0  0  0  0
   19.9729  -15.2931  -16.7944 C   0  0  0  0  0  0  0  0  0  0  0  0
   19.8473  -14.2331  -17.8327 C   0  0  0  0  0  0  0  0  0  0  0  0
   18.4446  -13.8228  -18.1559 C   0  0  0  0  0  0  0  0  0  0  0  0
   18.4879  -12.7642  -19.2505 C   0  0  2  0  0  0  0  0  0  0  0  0
   19.1919  -13.2349  -20.3593 N   0  0  0  0  0  0  0  0  0  0  0  0
   19.0302  -11.4764  -18.7738 C   0  0  0  0  0  0  0  0  0  0  0  0
   19.9966  -10.9385  -19.3511 O   0  0  0  0  0  0  0  0  0  0  0  0
   16.8609  -17.6811  -15.8150 N   0  0  0  0  0  0  0  0  0  0  0  0
   18.4471  -10.8477  -17.6504 C   0  0  2  0  0  0  0  0  0  0  0  0
   18.8853   -9.5746  -17.1131 C   0  0  0  0  0  0  0  0  0  0  0  0
   17.7226   -8.7907  -16.6290 C   0  0  0  0  0  0  0  0  0  0  0  0
   16.9151   -8.1409  -17.6785 C   0  0  0  0  0  0  0  0  0  0  0  0
   17.4505   -7.2719  -18.5944 N   0  0  0  0  0  0  0  0  0  0  0  0
   16.4625   -6.8668  -19.3979 C   0  0  0  0  0  0  0  0  0  0  0  0
   15.3407   -7.4741  -18.9854 N   0  0  0  0  0  0  0  0  0  0  0  0
   15.6125   -8.2545  -17.9337 C   0  0  0  0  0  0  0  0  0  0  0  0
   19.9755   -9.7467  -16.1201 O   0  0  0  0  0  0  0  0  0  0  0  0
   19.7871  -10.4778  -15.1169 C   0  0  0  0  0  0  0  0  0  0  0  0
   27.5852  -10.8758  -14.6931 S   0  0  0  0  0  0  0  0  0  0  0  0
   26.2188  -10.6622  -15.8139 C   0  0  0  0  0  0  0  0  0  0  0  0
   24.7523   -9.9619  -15.0865 C   0  0  0  0  0  0  0  0  0  0  0  0
   23.5597   -9.8545  -15.9581 C   0  0  1  0  0  0  0  0  0  0  0  0
   22.3408   -9.2600  -15.3246 N   0  0  0  0  0  0  0  0  0  0  0  0
   21.2431   -9.1079  -16.2599 C   0  0  0  0  0  0  0  0  0  0  0  0
   22.5563   -7.9424  -14.6860 O   0  0  0  0  0  0  0  0  0  0  0  0
   23.0347   -7.7623  -13.3962 O   0  0  0  0  0  0  0  0  0  0  0  0
  2  4  1  0
  2  1  1  0
  3  2  2  0
  5  4  1  0
  6  5  1  0
  7  6  1  0
  8  7  1  0
  8  9  1  6
 10  8  1  0
 10 11  2  0
 12 10  1  0
 13 12  1  0
 13 14  1  6
 15 16  2  0
 15 14  1  0
 17 16  1  0
 18 19  2  0
 18 17  1  0
 19 15  1  0
 20 13  1  0
 21 20  2  0
 23 22  1  0
 23 24  1  0
 24 25  1  0
 26 25  1  1
 26 27  1  0
 27 20  1  0
 28 26  1  0
 28 29  1  0
 30 28  2  0
M  END
$$$$
