RHM.pdb
     RDKit          3D

 30 30  0  0  1  0  0  0  0  0999 V2000
   15.7003  -15.4890  -10.6578 N   0  0  0  0  0  0  0  0  0  0  0  0
   14.4565  -15.1400  -11.2535 C   0  0  0  0  0  0  0  0  0  0  0  0
   13.7911  -16.0813  -11.8402 N   0  0  0  0  0  0  0  0  0  0  0  0
   13.9536  -13.8104  -11.2146 N   0  0  0  0  0  0  0  0  0  0  0  0
   14.7480  -12.7555  -10.6857 C   0  0  0  0  0  0  0  0  0  0  0  0
   15.9356  -12.3575  -11.4911 C   0  0  0  0  0  0  0  0  0  0  0  0
   16.7761  -11.2736  -10.8915 C   0  0  0  0  0  0  0  0  0  0  0  0
   16.1597   -9.9271  -11.2486 C   0  0  2  0  0  0  0  0  0  0  0  0
   16.0577   -9.7869  -12.6329 N   0  0  0  0  0  0  0  0  0  0  0  0
   16.8847   -8.7924  -10.6431 C   0  0  0  0  0  0  0  0  0  0  0  0
   17.0993   -8.7550   -9.4147 O   0  0  0  0  0  0  0  0  0  0  0  0
   12.8592  -15.9494  -12.2851 N   0  0  0  0  0  0  0  0  0  0  0  0
   17.3395   -7.7372  -11.4660 C   0  0  1  0  0  0  0  0  0  0  0  0
   18.0616   -6.5790  -10.9774 C   0  0  0  0  0  0  0  0  0  0  0  0
   19.1665   -6.2306  -11.9041 C   0  0  0  0  0  0  0  0  0  0  0  0
   20.2210   -7.2522  -12.0457 C   0  0  0  0  0  0  0  0  0  0  0  0
   20.4712   -7.9005  -13.2280 N   0  0  0  0  0  0  0  0  0  0  0  0
   21.4791   -8.7530  -13.0201 C   0  0  0  0  0  0  0  0  0  0  0  0
   21.8428   -8.6322  -11.7354 N   0  0  0  0  0  0  0  0  0  0  0  0
   21.0761   -7.7154  -11.1351 C   0  0  0  0  0  0  0  0  0  0  0  0
   17.1431   -5.4578  -10.6562 O   0  0  0  0  0  0  0  0  0  0  0  0
   16.2641   -5.1222  -11.4875 C   0  0  0  0  0  0  0  0  0  0  0  0
   12.2149   -2.4548   -5.4851 S   0  0  0  0  0  0  0  0  0  0  0  0
   13.3015   -3.7169   -6.1136 C   0  0  0  0  0  0  0  0  0  0  0  0
   14.4158   -3.1799   -7.3943 C   0  0  0  0  0  0  0  0  0  0  0  0
   15.3460   -4.1951   -7.9400 C   0  0  1  0  0  0  0  0  0  0  0  0
   16.2692   -3.7205   -9.0183 N   0  0  0  0  0  0  0  0  0  0  0  0
   17.2190   -4.7370   -9.4277 C   0  0  0  0  0  0  0  0  0  0  0  0
   17.0467   -2.5083   -8.6771 O   0  0  0  0  0  0  0  0  0  0  0  0
   16.5419   -1.2162   -8.7058 O   0  0  0  0  0  0  0  0  0  0  0  0
  2  4  1  0
  2  1  1  0
  3  2  2  0
  5  4  1  0
  6  5  1  0
  7  6  1  0
  8  7  1  0
  8  9  1  6
 10  8  1  0
 10 11  2  0
 12 10  1  0
 13 12  1  0
 13 14  1  1
 15 16  2  0
 15 14  1  0
 17 16  1  0
 18 19  2  0
 18 17  1  0
 19 15  1  0
 20 13  1  0
 21 20  2  0
 23 22  1  0
 23 24  1  0
 24 25  1  0
 26 25  1  6
 26 27  1  0
 27 20  1  0
 28 26  1  0
 28 29  1  0
 30 28  2  0
M  END
$$$$
