RHM.pdb
     RDKit          3D

 30 30  0  0  1  0  0  0  0  0999 V2000
   31.0436  -16.9359  -18.9130 N   0  0  0  0  0  0  0  0  0  0  0  0
   32.1722  -16.2206  -19.4012 C   0  0  0  0  0  0  0  0  0  0  0  0
   33.1562  -16.9118  -19.8776 N   0  0  0  0  0  0  0  0  0  0  0  0
   32.2301  -14.8001  -19.3701 N   0  0  0  0  0  0  0  0  0  0  0  0
   31.0832  -14.0406  -19.0076 C   0  0  0  0  0  0  0  0  0  0  0  0
   29.9455  -14.0659  -19.9681 C   0  0  0  0  0  0  0  0  0  0  0  0
   28.7520  -13.2591  -19.5613 C   0  0  0  0  0  0  0  0  0  0  0  0
   28.9923  -11.8061  -19.9506 C   0  0  2  0  0  0  0  0  0  0  0  0
   30.1494  -11.3206  -19.3409 N   0  0  0  0  0  0  0  0  0  0  0  0
   27.8292  -10.9423  -19.6660 C   0  0  0  0  0  0  0  0  0  0  0  0
   26.6955  -11.2373  -20.0952 O   0  0  0  0  0  0  0  0  0  0  0  0
   34.0513  -16.5006  -20.2143 N   0  0  0  0  0  0  0  0  0  0  0  0
   28.0042   -9.7681  -18.8992 C   0  0  1  0  0  0  0  0  0  0  0  0
   26.9299   -8.8618  -18.5442 C   0  0  0  0  0  0  0  0  0  0  0  0
   26.9131   -8.6297  -17.0790 C   0  0  0  0  0  0  0  0  0  0  0  0
   26.4717   -9.7748  -16.2608 C   0  0  0  0  0  0  0  0  0  0  0  0
   26.1103  -10.9801  -16.8061 N   0  0  0  0  0  0  0  0  0  0  0  0
   25.7675  -11.7946  -15.8037 C   0  0  0  0  0  0  0  0  0  0  0  0
   25.9147  -11.1051  -14.6634 N   0  0  0  0  0  0  0  0  0  0  0  0
   26.3453   -9.8689  -14.9379 C   0  0  0  0  0  0  0  0  0  0  0  0
   26.9613   -7.6275  -19.3685 O   0  0  0  0  0  0  0  0  0  0  0  0
   28.0316   -6.9788  -19.4685 C   0  0  0  0  0  0  0  0  0  0  0  0
   23.9954   -6.4974  -25.4837 S   0  0  0  0  0  0  0  0  0  0  0  0
   25.5502   -5.7251  -25.0901 C   0  0  0  0  0  0  0  0  0  0  0  0
   25.7618   -5.2921  -23.3761 C   0  0  0  0  0  0  0  0  0  0  0  0
   25.6871   -6.3976  -22.3932 C   0  0  2  0  0  0  0  0  0  0  0  0
   25.8202   -6.0019  -20.9559 N   0  0  0  0  0  0  0  0  0  0  0  0
   25.8119   -7.1419  -20.0598 C   0  0  0  0  0  0  0  0  0  0  0  0
   24.7838   -5.0610  -20.4752 O   0  0  0  0  0  0  0  0  0  0  0  0
   24.8098   -3.6893  -20.6825 O   0  0  0  0  0  0  0  0  0  0  0  0
  2  4  1  0
  2  1  1  0
  3  2  2  0
  5  4  1  0
  6  5  1  0
  7  6  1  0
  8  7  1  0
  8  9  1  1
 10  8  1  0
 10 11  2  0
 12 10  1  0
 13 12  1  0
 13 14  1  6
 15 16  2  0
 15 14  1  0
 17 16  1  0
 18 19  2  0
 18 17  1  0
 19 15  1  0
 20 13  1  0
 21 20  2  0
 23 22  1  0
 23 24  1  0
 24 25  1  0
 26 25  1  6
 26 27  1  0
 27 20  1  0
 28 26  1  0
 28 29  1  0
 30 28  2  0
M  END
$$$$
