RHM.pdb
     RDKit          3D

 30 30  0  0  1  0  0  0  0  0999 V2000
   30.0508  -18.7953  -19.6258 N   0  0  0  0  0  0  0  0  0  0  0  0
   28.7040  -18.4043  -19.8646 C   0  0  0  0  0  0  0  0  0  0  0  0
   28.3626  -18.1562  -21.0872 N   0  0  0  0  0  0  0  0  0  0  0  0
   27.7597  -18.2848  -18.8080 N   0  0  0  0  0  0  0  0  0  0  0  0
   28.0988  -18.6967  -17.4893 C   0  0  0  0  0  0  0  0  0  0  0  0
   27.5827  -20.0263  -17.0610 C   0  0  0  0  0  0  0  0  0  0  0  0
   27.8383  -20.3760  -15.6282 C   0  0  0  0  0  0  0  0  0  0  0  0
   27.2498  -21.7536  -15.3519 C   0  0  2  0  0  0  0  0  0  0  0  0
   27.1526  -22.4904  -16.5326 N   0  0  0  0  0  0  0  0  0  0  0  0
   25.9531  -21.6866  -14.6493 C   0  0  0  0  0  0  0  0  0  0  0  0
   24.8808  -21.7972  -15.2774 O   0  0  0  0  0  0  0  0  0  0  0  0
   27.4126  -17.8451  -21.3779 N   0  0  0  0  0  0  0  0  0  0  0  0
   25.9281  -21.4943  -13.2494 C   0  0  2  0  0  0  0  0  0  0  0  0
   24.7138  -21.3552  -12.4698 C   0  0  0  0  0  0  0  0  0  0  0  0
   25.0310  -21.3257  -11.0208 C   0  0  0  0  0  0  0  0  0  0  0  0
   23.8742  -21.1526  -10.1221 C   0  0  0  0  0  0  0  0  0  0  0  0
   22.5932  -20.9928  -10.5850 N   0  0  0  0  0  0  0  0  0  0  0  0
   21.7897  -20.8649   -9.5248 C   0  0  0  0  0  0  0  0  0  0  0  0
   22.5602  -20.9444   -8.4306 N   0  0  0  0  0  0  0  0  0  0  0  0
   23.8362  -21.1203   -8.7909 C   0  0  0  0  0  0  0  0  0  0  0  0
   23.8848  -20.2201  -12.9476 O   0  0  0  0  0  0  0  0  0  0  0  0
   24.3830  -19.0687  -12.9952 C   0  0  0  0  0  0  0  0  0  0  0  0
   19.4511  -16.8460  -18.2391 S   0  0  0  0  0  0  0  0  0  0  0  0
   20.5544  -18.1058  -17.6353 C   0  0  0  0  0  0  0  0  0  0  0  0
   20.6969  -18.1936  -15.8627 C   0  0  0  0  0  0  0  0  0  0  0  0
   21.5728  -19.2547  -15.3143 C   0  0  1  0  0  0  0  0  0  0  0  0
   21.6797  -19.3050  -13.8222 N   0  0  0  0  0  0  0  0  0  0  0  0
   22.5291  -20.3853  -13.3593 C   0  0  0  0  0  0  0  0  0  0  0  0
   20.3865  -19.4319  -13.1137 O   0  0  0  0  0  0  0  0  0  0  0  0
   19.6334  -18.3612  -12.6536 O   0  0  0  0  0  0  0  0  0  0  0  0
  2  4  1  0
  2  1  1  0
  3  2  2  0
  5  4  1  0
  6  5  1  0
  7  6  1  0
  8  7  1  0
  8  9  1  6
 10  8  1  0
 10 11  2  0
 12 10  1  0
 13 12  1  0
 13 14  1  1
 15 16  2  0
 15 14  1  0
 17 16  1  0
 18 19  2  0
 18 17  1  0
 19 15  1  0
 20 13  1  0
 21 20  2  0
 23 22  1  0
 23 24  1  0
 24 25  1  0
 26 25  1  6
 26 27  1  0
 27 20  1  0
 28 26  1  0
 28 29  1  0
 30 28  2  0
M  END
$$$$
