RHM.pdb
     RDKit          3D

 30 30  0  0  1  0  0  0  0  0999 V2000
   23.2095  -29.9279  -16.2429 N   0  0  0  0  0  0  0  0  0  0  0  0
   23.2036  -29.0602  -17.3701 C   0  0  0  0  0  0  0  0  0  0  0  0
   23.1751  -29.6054  -18.5427 N   0  0  0  0  0  0  0  0  0  0  0  0
   23.2303  -27.6455  -17.2271 N   0  0  0  0  0  0  0  0  0  0  0  0
   22.8567  -27.0392  -15.9957 C   0  0  0  0  0  0  0  0  0  0  0  0
   21.4057  -27.0655  -15.6617 C   0  0  0  0  0  0  0  0  0  0  0  0
   21.0447  -26.4478  -14.3469 C   0  0  0  0  0  0  0  0  0  0  0  0
   21.0538  -24.9325  -14.5032 C   0  0  2  0  0  0  0  0  0  0  0  0
   22.2612  -24.5044  -15.0556 N   0  0  0  0  0  0  0  0  0  0  0  0
   20.7595  -24.2296  -13.2386 C   0  0  0  0  0  0  0  0  0  0  0  0
   21.6554  -24.0390  -12.3915 O   0  0  0  0  0  0  0  0  0  0  0  0
   23.2434  -29.0757  -19.4362 N   0  0  0  0  0  0  0  0  0  0  0  0
   19.4476  -23.7686  -12.9864 C   0  0  1  0  0  0  0  0  0  0  0  0
   19.0563  -23.0431  -11.7939 C   0  0  0  0  0  0  0  0  0  0  0  0
   18.4380  -21.7449  -12.1588 C   0  0  0  0  0  0  0  0  0  0  0  0
   19.3731  -20.7100  -12.6385 C   0  0  0  0  0  0  0  0  0  0  0  0
   20.7215  -20.9282  -12.7603 N   0  0  0  0  0  0  0  0  0  0  0  0
   21.2770  -19.8021  -13.2176 C   0  0  0  0  0  0  0  0  0  0  0  0
   20.2906  -18.9078  -13.3745 N   0  0  0  0  0  0  0  0  0  0  0  0
   19.1240  -19.4586  -13.0215 C   0  0  0  0  0  0  0  0  0  0  0  0
   18.2402  -23.8863  -10.8844 O   0  0  0  0  0  0  0  0  0  0  0  0
   17.3013  -24.5735  -11.3562 C   0  0  0  0  0  0  0  0  0  0  0  0
   17.4923  -26.9167   -3.4840 S   0  0  0  0  0  0  0  0  0  0  0  0
   18.3424  -25.8148   -4.5940 C   0  0  0  0  0  0  0  0  0  0  0  0
   17.5779  -25.6184   -6.1900 C   0  0  0  0  0  0  0  0  0  0  0  0
   18.3239  -24.8273   -7.1957 C   0  0  1  0  0  0  0  0  0  0  0  0
   17.6967  -24.7397   -8.5519 N   0  0  0  0  0  0  0  0  0  0  0  0
   18.4811  -23.9484   -9.4799 C   0  0  0  0  0  0  0  0  0  0  0  0
   16.3223  -24.1908   -8.5631 O   0  0  0  0  0  0  0  0  0  0  0  0
   15.1685  -24.9577   -8.4884 O   0  0  0  0  0  0  0  0  0  0  0  0
  2  4  1  0
  2  1  1  0
  3  2  2  0
  5  4  1  0
  6  5  1  0
  7  6  1  0
  8  7  1  0
  8  9  1  1
 10  8  1  0
 10 11  2  0
 12 10  1  0
 13 12  1  0
 13 14  1  1
 15 16  2  0
 15 14  1  0
 17 16  1  0
 18 19  2  0
 18 17  1  0
 19 15  1  0
 20 13  1  0
 21 20  2  0
 23 22  1  0
 23 24  1  0
 24 25  1  0
 26 25  1  6
 26 27  1  0
 27 20  1  0
 28 26  1  0
 28 29  1  0
 30 28  2  0
M  END
$$$$
