RHM.pdb
     RDKit          3D

 30 30  0  0  1  0  0  0  0  0999 V2000
   28.2403  -23.8870  -16.8789 N   0  0  0  0  0  0  0  0  0  0  0  0
   27.5393  -23.0241  -17.7665 C   0  0  0  0  0  0  0  0  0  0  0  0
   27.4205  -23.4032  -18.9974 N   0  0  0  0  0  0  0  0  0  0  0  0
   26.9875  -21.7881  -17.3304 N   0  0  0  0  0  0  0  0  0  0  0  0
   26.8730  -21.5009  -15.9418 C   0  0  0  0  0  0  0  0  0  0  0  0
   25.9468  -22.3692  -15.1635 C   0  0  0  0  0  0  0  0  0  0  0  0
   24.6589  -21.7227  -14.7586 C   0  0  0  0  0  0  0  0  0  0  0  0
   23.7987  -22.7581  -14.0455 C   0  0  2  0  0  0  0  0  0  0  0  0
   23.4426  -23.7850  -14.9201 N   0  0  0  0  0  0  0  0  0  0  0  0
   22.6116  -22.1628  -13.4002 C   0  0  0  0  0  0  0  0  0  0  0  0
   22.7357  -21.2833  -12.5241 O   0  0  0  0  0  0  0  0  0  0  0  0
   26.9858  -22.8273  -19.7477 N   0  0  0  0  0  0  0  0  0  0  0  0
   21.3211  -22.5958  -13.7802 C   0  0  2  0  0  0  0  0  0  0  0  0
   20.0972  -22.1711  -13.1297 C   0  0  0  0  0  0  0  0  0  0  0  0
   19.3150  -21.2868  -14.0280 C   0  0  0  0  0  0  0  0  0  0  0  0
   19.5933  -19.8442  -13.8970 C   0  0  0  0  0  0  0  0  0  0  0  0
   20.4406  -19.3360  -12.9458 N   0  0  0  0  0  0  0  0  0  0  0  0
   20.4740  -18.0087  -13.0971 C   0  0  0  0  0  0  0  0  0  0  0  0
   19.6637  -17.7050  -14.1212 N   0  0  0  0  0  0  0  0  0  0  0  0
   19.1226  -18.8246  -14.6137 C   0  0  0  0  0  0  0  0  0  0  0  0
   19.3411  -23.3250  -12.5812 O   0  0  0  0  0  0  0  0  0  0  0  0
   19.1897  -24.3544  -13.2840 C   0  0  0  0  0  0  0  0  0  0  0  0
   19.4371  -25.6985   -6.3185 S   0  0  0  0  0  0  0  0  0  0  0  0
   17.7203  -25.7806   -6.7817 C   0  0  0  0  0  0  0  0  0  0  0  0
   17.3962  -25.5288   -8.5142 C   0  0  0  0  0  0  0  0  0  0  0  0
   18.1887  -24.4802   -9.1969 C   0  0  1  0  0  0  0  0  0  0  0  0
   18.0514  -24.4256  -10.6864 N   0  0  0  0  0  0  0  0  0  0  0  0
   18.7722  -23.3125  -11.2732 C   0  0  0  0  0  0  0  0  0  0  0  0
   16.6569  -24.3499  -11.1763 O   0  0  0  0  0  0  0  0  0  0  0  0
   15.8757  -25.4504  -11.4984 O   0  0  0  0  0  0  0  0  0  0  0  0
  2  4  1  0
  2  1  1  0
  3  2  2  0
  5  4  1  0
  6  5  1  0
  7  6  1  0
  8  7  1  0
  8  9  1  6
 10  8  1  0
 10 11  2  0
 12 10  1  0
 13 12  1  0
 13 14  1  1
 15 16  2  0
 15 14  1  0
 17 16  1  0
 18 19  2  0
 18 17  1  0
 19 15  1  0
 20 13  1  0
 21 20  2  0
 23 22  1  0
 23 24  1  0
 24 25  1  0
 26 25  1  6
 26 27  1  0
 27 20  1  0
 28 26  1  0
 28 29  1  0
 30 28  2  0
M  END
$$$$
