RHM.pdb
     RDKit          3D

 30 30  0  0  1  0  0  0  0  0999 V2000
    8.5925  -15.2376  -12.3088 N   0  0  0  0  0  0  0  0  0  0  0  0
    7.4226  -15.9514  -11.9277 C   0  0  0  0  0  0  0  0  0  0  0  0
    6.2814  -15.3755  -12.1252 N   0  0  0  0  0  0  0  0  0  0  0  0
    7.4912  -17.2484  -11.3485 N   0  0  0  0  0  0  0  0  0  0  0  0
    8.7362  -17.7728  -10.9027 C   0  0  0  0  0  0  0  0  0  0  0  0
    9.7096  -18.1516  -11.9641 C   0  0  0  0  0  0  0  0  0  0  0  0
   11.0342  -18.6403  -11.4667 C   0  0  0  0  0  0  0  0  0  0  0  0
   11.2448  -20.0643  -11.9650 C   0  0  2  0  0  0  0  0  0  0  0  0
   10.5215  -20.2850  -13.1374 N   0  0  0  0  0  0  0  0  0  0  0  0
   10.9305  -21.0775  -10.9381 C   0  0  0  0  0  0  0  0  0  0  0  0
    9.9124  -21.7917  -11.0375 O   0  0  0  0  0  0  0  0  0  0  0  0
    5.3672  -15.7672  -11.8179 N   0  0  0  0  0  0  0  0  0  0  0  0
   11.7936  -21.2383   -9.8306 C   0  0  1  0  0  0  0  0  0  0  0  0
   11.5909  -22.2135   -8.7773 C   0  0  0  0  0  0  0  0  0  0  0  0
   12.7953  -23.0661   -8.6243 C   0  0  0  0  0  0  0  0  0  0  0  0
   13.0780  -23.9725   -9.7532 C   0  0  0  0  0  0  0  0  0  0  0  0
   12.5282  -25.2248   -9.8540 N   0  0  0  0  0  0  0  0  0  0  0  0
   12.9811  -25.7791  -10.9826 C   0  0  0  0  0  0  0  0  0  0  0  0
   13.7935  -24.8860  -11.5655 N   0  0  0  0  0  0  0  0  0  0  0  0
   13.8560  -23.7793  -10.8172 C   0  0  0  0  0  0  0  0  0  0  0  0
   11.1192  -21.5737   -7.5235 O   0  0  0  0  0  0  0  0  0  0  0  0
   11.7477  -20.5920   -7.0570 C   0  0  0  0  0  0  0  0  0  0  0  0
    4.9134  -20.7164   -2.5171 S   0  0  0  0  0  0  0  0  0  0  0  0
    5.6813  -21.6167   -3.8470 C   0  0  0  0  0  0  0  0  0  0  0  0
    7.3615  -21.1461   -4.2015 C   0  0  0  0  0  0  0  0  0  0  0  0
    7.9910  -21.7618   -5.3925 C   0  0  1  0  0  0  0  0  0  0  0  0
    9.4177  -21.3852   -5.6437 N   0  0  0  0  0  0  0  0  0  0  0  0
    9.9680  -22.0338   -6.8181 C   0  0  0  0  0  0  0  0  0  0  0  0
   10.3380  -21.6646   -4.5188 O   0  0  0  0  0  0  0  0  0  0  0  0
   10.4650  -20.8678   -3.3901 O   0  0  0  0  0  0  0  0  0  0  0  0
  2  4  1  0
  2  1  1  0
  3  2  2  0
  5  4  1  0
  6  5  1  0
  7  6  1  0
  8  7  1  0
  8  9  1  6
 10  8  1  0
 10 11  2  0
 12 10  1  0
 13 12  1  0
 13 14  1  1
 15 16  2  0
 15 14  1  0
 17 16  1  0
 18 19  2  0
 18 17  1  0
 19 15  1  0
 20 13  1  0
 21 20  2  0
 23 22  1  0
 23 24  1  0
 24 25  1  0
 26 25  1  6
 26 27  1  0
 27 20  1  0
 28 26  1  0
 28 29  1  0
 30 28  2  0
M  END
$$$$
