LYF.pdb
     RDKit          3D

 32 33  0  0  1  0  0  0  0  0999 V2000
   28.2318  -16.4321  -19.4945 C   0  0  0  0  0  0  0  0  0  0  0  0
   28.0088  -17.4636  -20.5877 C   0  0  2  0  0  0  0  0  0  0  0  0
   27.0555  -16.9853  -21.6268 C   0  0  0  0  0  0  0  0  0  0  0  0
   27.5226  -18.7208  -19.9476 C   0  0  0  0  0  0  0  0  0  0  0  0
   28.4313  -19.1320  -18.8324 C   0  0  2  0  0  0  0  0  0  0  0  0
   29.6057  -19.8447  -19.2285 N   0  0  0  0  0  0  0  0  0  0  0  0
   27.7303  -19.7575  -17.7043 C   0  0  0  0  0  0  0  0  0  0  0  0
   26.9785  -20.7645  -17.8259 O   0  0  0  0  0  0  0  0  0  0  0  0
   25.2909  -21.1964   -9.3425 O   0  0  0  0  0  0  0  0  0  0  0  0
   25.9659  -20.7716  -10.4917 C   0  0  0  0  0  0  0  0  0  0  0  0
   26.0563  -19.4491  -10.8246 C   0  0  0  0  0  0  0  0  0  0  0  0
   26.7346  -19.0590  -11.9736 C   0  0  0  0  0  0  0  0  0  0  0  0
   27.3435  -19.9524  -12.8270 C   0  0  0  0  0  0  0  0  0  0  0  0
   28.0575  -19.5433  -14.0631 C   0  0  0  0  0  0  0  0  0  0  0  0
   27.1449  -19.8445  -15.2810 C   0  0  2  0  0  0  0  0  0  0  0  0
   27.8794  -19.2298  -16.3917 N   0  0  0  0  0  0  0  0  0  0  0  0
   25.9010  -19.1041  -14.9988 C   0  0  0  0  0  0  0  0  0  0  0  0
   26.0122  -17.8691  -14.7925 O   0  0  0  0  0  0  0  0  0  0  0  0
   27.2444  -21.3071  -12.4725 C   0  0  0  0  0  0  0  0  0  0  0  0
   26.5702  -21.6944  -11.3326 C   0  0  0  0  0  0  0  0  0  0  0  0
   24.6061  -19.6913  -14.9543 N   0  0  0  0  0  0  0  0  0  0  0  0
   23.4396  -18.9669  -14.4829 C   0  0  1  0  0  0  0  0  0  0  0  0
   22.9051  -18.1475  -15.6344 C   0  0  0  0  0  0  0  0  0  0  0  0
   22.2964  -19.0558  -16.6222 C   0  0  0  0  0  0  0  0  0  0  0  0
   20.9463  -19.3311  -16.5207 C   0  0  0  0  0  0  0  0  0  0  0  0
   20.3427  -20.1624  -17.4271 C   0  0  0  0  0  0  0  0  0  0  0  0
   21.1379  -20.7036  -18.4324 C   0  0  0  0  0  0  0  0  0  0  0  0
   22.4706  -20.4393  -18.5416 C   0  0  0  0  0  0  0  0  0  0  0  0
   23.0694  -19.5938  -17.6156 C   0  0  0  0  0  0  0  0  0  0  0  0
   22.4799  -19.7563  -13.7412 C   0  0  0  0  0  0  0  0  0  0  0  0
   22.4768  -21.0097  -13.6809 O   0  0  0  0  0  0  0  0  0  0  0  0
   21.4442  -19.1414  -13.0116 O   0  0  0  0  0  0  0  0  0  0  0  0
  2  1  1  1
  2  3  1  0
  4  2  1  0
  5  4  1  0
  5  6  1  6
  7  8  2  0
  7  5  1  0
  9 10  1  0
 10 20  2  0
 11 12  2  0
 11 10  1  0
 12 13  1  0
 13 19  2  0
 13 14  1  0
 15 14  1  1
 15 16  1  0
 16  7  1  0
 17 15  1  0
 18 17  2  0
 20 19  1  0
 21 17  1  0
 22 21  1  0
 22 23  1  6
 23 24  1  0
 24 29  2  0
 25 26  2  0
 25 24  1  0
 26 27  1  0
 27 28  2  0
 29 28  1  0
 30 32  1  0
 30 22  1  0
 31 30  2  0
M  END
$$$$
