LYF.pdb
     RDKit          3D

 32 33  0  0  1  0  0  0  0  0999 V2000
   13.1074  -11.2366  -16.6329 C   0  0  0  0  0  0  0  0  0  0  0  0
   13.9336  -12.4561  -16.2601 C   0  0  2  0  0  0  0  0  0  0  0  0
   13.5914  -12.9757  -14.9073 C   0  0  0  0  0  0  0  0  0  0  0  0
   15.3760  -12.0835  -16.3456 C   0  0  0  0  0  0  0  0  0  0  0  0
   15.7047  -11.5503  -17.7043 C   0  0  2  0  0  0  0  0  0  0  0  0
   15.7187  -12.5180  -18.7567 N   0  0  0  0  0  0  0  0  0  0  0  0
   16.8755  -10.6647  -17.7199 C   0  0  0  0  0  0  0  0  0  0  0  0
   18.0467  -11.0658  -17.9677 O   0  0  0  0  0  0  0  0  0  0  0  0
   21.7434   -3.4597  -18.5915 O   0  0  0  0  0  0  0  0  0  0  0  0
   20.6694   -4.3497  -18.4850 C   0  0  0  0  0  0  0  0  0  0  0  0
   19.6350   -4.1275  -17.6198 C   0  0  0  0  0  0  0  0  0  0  0  0
   18.5819   -5.0312  -17.5376 C   0  0  0  0  0  0  0  0  0  0  0  0
   18.5121   -6.1758  -18.3008 C   0  0  0  0  0  0  0  0  0  0  0  0
   17.3970   -7.1520  -18.2078 C   0  0  0  0  0  0  0  0  0  0  0  0
   17.9046   -8.4081  -17.4519 C   0  0  2  0  0  0  0  0  0  0  0  0
   16.7232   -9.2772  -17.4451 N   0  0  0  0  0  0  0  0  0  0  0  0
   18.2075   -7.9209  -16.0933 C   0  0  0  0  0  0  0  0  0  0  0  0
   17.2277   -7.5832  -15.3819 O   0  0  0  0  0  0  0  0  0  0  0  0
   19.5800   -6.3908  -19.1863 C   0  0  0  0  0  0  0  0  0  0  0  0
   20.6259   -5.4944  -19.2670 C   0  0  0  0  0  0  0  0  0  0  0  0
   19.5170   -7.8190  -15.5470 N   0  0  0  0  0  0  0  0  0  0  0  0
   19.7631   -7.3249  -14.2042 C   0  0  1  0  0  0  0  0  0  0  0  0
   21.0481   -7.9464  -13.7090 C   0  0  0  0  0  0  0  0  0  0  0  0
   21.2966   -7.4901  -12.3300 C   0  0  0  0  0  0  0  0  0  0  0  0
   20.7755   -8.2306  -11.2865 C   0  0  0  0  0  0  0  0  0  0  0  0
   20.9945   -7.8438   -9.9906 C   0  0  0  0  0  0  0  0  0  0  0  0
   21.7506   -6.6946   -9.7815 C   0  0  0  0  0  0  0  0  0  0  0  0
   22.2689   -5.9564  -10.8034 C   0  0  0  0  0  0  0  0  0  0  0  0
   22.0393   -6.3610  -12.1128 C   0  0  0  0  0  0  0  0  0  0  0  0
   19.6213   -5.8946  -14.0362 C   0  0  0  0  0  0  0  0  0  0  0  0
   20.2472   -5.0300  -14.6961 O   0  0  0  0  0  0  0  0  0  0  0  0
   18.7365   -5.3607  -13.0796 O   0  0  0  0  0  0  0  0  0  0  0  0
  2  1  1  1
  2  3  1  0
  4  2  1  0
  5  4  1  0
  5  6  1  6
  7  8  2  0
  7  5  1  0
  9 10  1  0
 10 20  2  0
 11 12  2  0
 11 10  1  0
 12 13  1  0
 13 19  2  0
 13 14  1  0
 15 14  1  6
 15 16  1  0
 16  7  1  0
 17 15  1  0
 18 17  2  0
 20 19  1  0
 21 17  1  0
 22 21  1  0
 22 23  1  6
 23 24  1  0
 24 29  2  0
 25 26  2  0
 25 24  1  0
 26 27  1  0
 27 28  2  0
 29 28  1  0
 30 32  1  0
 30 22  1  0
 31 30  2  0
M  END
$$$$
