LYF.pdb
     RDKit          3D

 32 33  0  0  1  0  0  0  0  0999 V2000
   28.2032  -13.8637  -15.8748 C   0  0  0  0  0  0  0  0  0  0  0  0
   27.7325  -13.9997  -17.3131 C   0  0  2  0  0  0  0  0  0  0  0  0
   28.8683  -14.1314  -18.2669 C   0  0  0  0  0  0  0  0  0  0  0  0
   26.8889  -12.8129  -17.6397 C   0  0  0  0  0  0  0  0  0  0  0  0
   25.6929  -12.7515  -16.7430 C   0  0  2  0  0  0  0  0  0  0  0  0
   25.0260  -13.9969  -16.5228 N   0  0  0  0  0  0  0  0  0  0  0  0
   24.7728  -11.6542  -17.0661 C   0  0  0  0  0  0  0  0  0  0  0  0
   25.1464  -10.4589  -17.2270 O   0  0  0  0  0  0  0  0  0  0  0  0
   17.4053   -7.5395  -19.5664 O   0  0  0  0  0  0  0  0  0  0  0  0
   18.3354   -8.5214  -19.2092 C   0  0  0  0  0  0  0  0  0  0  0  0
   18.1224   -9.3631  -18.1537 C   0  0  0  0  0  0  0  0  0  0  0  0
   19.0664  -10.3290  -17.8242 C   0  0  0  0  0  0  0  0  0  0  0  0
   20.2433  -10.4980  -18.5197 C   0  0  0  0  0  0  0  0  0  0  0  0
   21.2618  -11.5186  -18.1644 C   0  0  0  0  0  0  0  0  0  0  0  0
   22.4719  -10.7996  -17.5121 C   0  0  2  0  0  0  0  0  0  0  0  0
   23.3811  -11.9106  -17.2120 N   0  0  0  0  0  0  0  0  0  0  0  0
   21.9267  -10.2161  -16.2722 C   0  0  0  0  0  0  0  0  0  0  0  0
   21.5034  -11.0225  -15.4059 O   0  0  0  0  0  0  0  0  0  0  0  0
   20.4485   -9.6282  -19.6022 C   0  0  0  0  0  0  0  0  0  0  0  0
   19.5121   -8.6687  -19.9285 C   0  0  0  0  0  0  0  0  0  0  0  0
   21.8593   -8.8215  -15.9997 N   0  0  0  0  0  0  0  0  0  0  0  0
   21.4150   -8.2999  -14.7197 C   0  0  1  0  0  0  0  0  0  0  0  0
   22.6418   -7.9720  -13.9009 C   0  0  0  0  0  0  0  0  0  0  0  0
   23.3224   -6.8140  -14.5069 C   0  0  0  0  0  0  0  0  0  0  0  0
   24.2742   -7.0444  -15.4815 C   0  0  0  0  0  0  0  0  0  0  0  0
   24.9205   -5.9925  -16.0755 C   0  0  0  0  0  0  0  0  0  0  0  0
   24.5790   -4.7096  -15.6587 C   0  0  0  0  0  0  0  0  0  0  0  0
   23.6421   -4.4710  -14.6979 C   0  0  0  0  0  0  0  0  0  0  0  0
   22.9941   -5.5475  -14.1044 C   0  0  0  0  0  0  0  0  0  0  0  0
   20.3851   -7.2858  -14.7893 C   0  0  0  0  0  0  0  0  0  0  0  0
   20.0894   -6.6342  -15.8202 O   0  0  0  0  0  0  0  0  0  0  0  0
   19.6193   -6.9507  -13.6561 O   0  0  0  0  0  0  0  0  0  0  0  0
  2  1  1  1
  2  3  1  0
  4  2  1  0
  5  4  1  0
  5  6  1  6
  7  8  2  0
  7  5  1  0
  9 10  1  0
 10 20  2  0
 11 12  2  0
 11 10  1  0
 12 13  1  0
 13 19  2  0
 13 14  1  0
 15 14  1  6
 15 16  1  0
 16  7  1  0
 17 15  1  0
 18 17  2  0
 20 19  1  0
 21 17  1  0
 22 21  1  0
 22 23  1  6
 23 24  1  0
 24 29  2  0
 25 26  2  0
 25 24  1  0
 26 27  1  0
 27 28  2  0
 29 28  1  0
 30 32  1  0
 30 22  1  0
 31 30  2  0
M  END
$$$$
