LYF.pdb
     RDKit          3D

 32 33  0  0  1  0  0  0  0  0999 V2000
   28.3569  -21.9725  -20.4166 C   0  0  0  0  0  0  0  0  0  0  0  0
   29.3296  -22.6116  -19.4397 C   0  0  2  0  0  0  0  0  0  0  0  0
   29.9666  -23.8357  -19.9994 C   0  0  0  0  0  0  0  0  0  0  0  0
   28.5896  -22.9166  -18.1804 C   0  0  0  0  0  0  0  0  0  0  0  0
   28.0329  -21.6654  -17.5780 C   0  0  2  0  0  0  0  0  0  0  0  0
   28.9259  -20.5492  -17.5462 N   0  0  0  0  0  0  0  0  0  0  0  0
   27.3400  -21.8857  -16.3027 C   0  0  0  0  0  0  0  0  0  0  0  0
   26.6130  -22.8919  -16.0719 O   0  0  0  0  0  0  0  0  0  0  0  0
   24.9018  -20.5167   -7.9092 O   0  0  0  0  0  0  0  0  0  0  0  0
   25.5433  -20.4659   -9.1513 C   0  0  0  0  0  0  0  0  0  0  0  0
   26.5076  -21.3696   -9.4996 C   0  0  0  0  0  0  0  0  0  0  0  0
   27.1263  -21.2924  -10.7421 C   0  0  0  0  0  0  0  0  0  0  0  0
   26.8171  -20.3296  -11.6774 C   0  0  0  0  0  0  0  0  0  0  0  0
   27.4840  -20.2333  -13.0007 C   0  0  0  0  0  0  0  0  0  0  0  0
   26.7257  -21.1449  -14.0012 C   0  0  2  0  0  0  0  0  0  0  0  0
   27.4685  -20.9387  -15.2489 N   0  0  0  0  0  0  0  0  0  0  0  0
   25.3777  -20.5531  -14.0871 C   0  0  0  0  0  0  0  0  0  0  0  0
   25.2880  -19.4281  -14.6408 O   0  0  0  0  0  0  0  0  0  0  0  0
   25.8240  -19.4090  -11.3075 C   0  0  0  0  0  0  0  0  0  0  0  0
   25.2107  -19.4849  -10.0737 C   0  0  0  0  0  0  0  0  0  0  0  0
   24.1936  -21.1706  -13.5969 N   0  0  0  0  0  0  0  0  0  0  0  0
   22.8696  -20.6433  -13.8739 C   0  0  1  0  0  0  0  0  0  0  0  0
   22.7361  -20.4865  -15.3708 C   0  0  0  0  0  0  0  0  0  0  0  0
   21.3937  -19.9610  -15.6760 C   0  0  0  0  0  0  0  0  0  0  0  0
   21.2040  -18.5925  -15.6691 C   0  0  0  0  0  0  0  0  0  0  0  0
   19.9727  -18.0663  -15.9585 C   0  0  0  0  0  0  0  0  0  0  0  0
   18.9455  -18.9574  -16.2533 C   0  0  0  0  0  0  0  0  0  0  0  0
   19.1214  -20.3090  -16.2625 C   0  0  0  0  0  0  0  0  0  0  0  0
   20.3759  -20.8288  -15.9676 C   0  0  0  0  0  0  0  0  0  0  0  0
   21.7833  -21.3080  -13.1867 C   0  0  0  0  0  0  0  0  0  0  0  0
   20.8388  -20.7221  -12.6041 O   0  0  0  0  0  0  0  0  0  0  0  0
   21.7164  -22.7132  -13.1240 O   0  0  0  0  0  0  0  0  0  0  0  0
  2  1  1  6
  2  3  1  0
  4  2  1  0
  5  4  1  0
  5  6  1  1
  7  8  2  0
  7  5  1  0
  9 10  1  0
 10 20  2  0
 11 12  2  0
 11 10  1  0
 12 13  1  0
 13 19  2  0
 13 14  1  0
 15 14  1  1
 15 16  1  0
 16  7  1  0
 17 15  1  0
 18 17  2  0
 20 19  1  0
 21 17  1  0
 22 21  1  0
 22 23  1  6
 23 24  1  0
 24 29  2  0
 25 26  2  0
 25 24  1  0
 26 27  1  0
 27 28  2  0
 29 28  1  0
 30 32  1  0
 30 22  1  0
 31 30  2  0
M  END
$$$$
