LYF.pdb
     RDKit          3D

 32 33  0  0  1  0  0  0  0  0999 V2000
   30.0136  -18.1921  -14.2967 C   0  0  0  0  0  0  0  0  0  0  0  0
   28.7728  -18.9919  -14.6565 C   0  0  2  0  0  0  0  0  0  0  0  0
   28.6658  -19.2363  -16.1214 C   0  0  0  0  0  0  0  0  0  0  0  0
   27.5807  -18.2550  -14.1443 C   0  0  0  0  0  0  0  0  0  0  0  0
   26.3288  -19.0346  -14.3958 C   0  0  2  0  0  0  0  0  0  0  0  0
   25.6834  -18.7735  -15.6445 N   0  0  0  0  0  0  0  0  0  0  0  0
   25.4017  -19.0395  -13.2576 C   0  0  0  0  0  0  0  0  0  0  0  0
   24.6501  -18.0667  -12.9697 O   0  0  0  0  0  0  0  0  0  0  0  0
   19.9816  -19.9522  -16.0352 O   0  0  0  0  0  0  0  0  0  0  0  0
   20.8170  -20.3113  -14.9722 C   0  0  0  0  0  0  0  0  0  0  0  0
   20.5769  -19.8882  -13.6949 C   0  0  0  0  0  0  0  0  0  0  0  0
   21.4260  -20.2627  -12.6599 C   0  0  0  0  0  0  0  0  0  0  0  0
   22.5320  -21.0623  -12.8468 C   0  0  0  0  0  0  0  0  0  0  0  0
   23.4506  -21.4545  -11.7479 C   0  0  0  0  0  0  0  0  0  0  0  0
   24.3023  -20.2190  -11.3542 C   0  0  2  0  0  0  0  0  0  0  0  0
   25.3181  -20.1799  -12.4114 N   0  0  0  0  0  0  0  0  0  0  0  0
   24.9043  -20.5866  -10.0590 C   0  0  0  0  0  0  0  0  0  0  0  0
   24.1116  -20.8061   -9.1086 O   0  0  0  0  0  0  0  0  0  0  0  0
   22.7658  -21.4910  -14.1629 C   0  0  0  0  0  0  0  0  0  0  0  0
   21.9237  -21.1183  -15.1905 C   0  0  0  0  0  0  0  0  0  0  0  0
   26.3022  -20.7126   -9.8270 N   0  0  0  0  0  0  0  0  0  0  0  0
   26.8584  -20.8686   -8.4950 C   0  0  1  0  0  0  0  0  0  0  0  0
   28.0309  -19.9242   -8.3679 C   0  0  0  0  0  0  0  0  0  0  0  0
   28.4888  -19.9204   -6.9673 C   0  0  0  0  0  0  0  0  0  0  0  0
   28.1459  -18.8496   -6.1644 C   0  0  0  0  0  0  0  0  0  0  0  0
   28.5442  -18.8157   -4.8540 C   0  0  0  0  0  0  0  0  0  0  0  0
   29.2940  -19.8885   -4.3818 C   0  0  0  0  0  0  0  0  0  0  0  0
   29.6383  -20.9496   -5.1651 C   0  0  0  0  0  0  0  0  0  0  0  0
   29.2268  -20.9709   -6.4922 C   0  0  0  0  0  0  0  0  0  0  0  0
   25.8928  -20.8610   -7.4172 C   0  0  0  0  0  0  0  0  0  0  0  0
   24.9404  -20.0503   -7.3140 O   0  0  0  0  0  0  0  0  0  0  0  0
   25.9657  -21.8010   -6.3713 O   0  0  0  0  0  0  0  0  0  0  0  0
  2  1  1  6
  2  3  1  0
  4  2  1  0
  5  4  1  0
  5  6  1  6
  7  8  2  0
  7  5  1  0
  9 10  1  0
 10 20  2  0
 11 12  2  0
 11 10  1  0
 12 13  1  0
 13 19  2  0
 13 14  1  0
 15 14  1  6
 15 16  1  0
 16  7  1  0
 17 15  1  0
 18 17  2  0
 20 19  1  0
 21 17  1  0
 22 21  1  0
 22 23  1  1
 23 24  1  0
 24 29  2  0
 25 26  2  0
 25 24  1  0
 26 27  1  0
 27 28  2  0
 29 28  1  0
 30 32  1  0
 30 22  1  0
 31 30  2  0
M  END
$$$$
