LYF.pdb
     RDKit          3D

 32 33  0  0  1  0  0  0  0  0999 V2000
   17.8505  -10.0309  -20.2962 C   0  0  0  0  0  0  0  0  0  0  0  0
   16.9306  -10.5844  -19.2210 C   0  0  2  0  0  0  0  0  0  0  0  0
   15.5701   -9.9818  -19.2792 C   0  0  0  0  0  0  0  0  0  0  0  0
   17.5701  -10.3447  -17.8943 C   0  0  0  0  0  0  0  0  0  0  0  0
   18.9245  -10.9778  -17.8381 C   0  0  2  0  0  0  0  0  0  0  0  0
   18.9416  -12.4026  -17.9556 N   0  0  0  0  0  0  0  0  0  0  0  0
   19.7601  -10.4800  -16.7385 C   0  0  0  0  0  0  0  0  0  0  0  0
   19.4997  -10.6855  -15.5203 O   0  0  0  0  0  0  0  0  0  0  0  0
   24.0434  -15.2019  -16.5792 O   0  0  0  0  0  0  0  0  0  0  0  0
   23.8490  -13.8175  -16.5307 C   0  0  0  0  0  0  0  0  0  0  0  0
   24.0899  -13.0973  -15.3944 C   0  0  0  0  0  0  0  0  0  0  0  0
   23.8872  -11.7221  -15.3785 C   0  0  0  0  0  0  0  0  0  0  0  0
   23.4445  -11.0147  -16.4743 C   0  0  0  0  0  0  0  0  0  0  0  0
   23.2127   -9.5480  -16.4597 C   0  0  0  0  0  0  0  0  0  0  0  0
   21.7857   -9.2808  -15.9128 C   0  0  2  0  0  0  0  0  0  0  0  0
   20.9305   -9.7219  -17.0196 N   0  0  0  0  0  0  0  0  0  0  0  0
   21.7235   -7.8163  -15.7508 C   0  0  0  0  0  0  0  0  0  0  0  0
   21.4305   -7.1460  -16.7730 O   0  0  0  0  0  0  0  0  0  0  0  0
   23.2026  -11.7663  -17.6350 C   0  0  0  0  0  0  0  0  0  0  0  0
   23.4026  -13.1315  -17.6505 C   0  0  0  0  0  0  0  0  0  0  0  0
   21.9635   -7.1299  -14.5281 N   0  0  0  0  0  0  0  0  0  0  0  0
   21.8428   -5.6880  -14.4093 C   0  0  1  0  0  0  0  0  0  0  0  0
   20.5309   -5.2784  -15.0370 C   0  0  0  0  0  0  0  0  0  0  0  0
   20.3882   -3.8158  -14.9292 C   0  0  0  0  0  0  0  0  0  0  0  0
   19.4623   -3.3074  -14.0387 C   0  0  0  0  0  0  0  0  0  0  0  0
   19.3087   -1.9528  -13.9030 C   0  0  0  0  0  0  0  0  0  0  0  0
   20.1129   -1.1324  -14.6880 C   0  0  0  0  0  0  0  0  0  0  0  0
   21.0290   -1.6232  -15.5699 C   0  0  0  0  0  0  0  0  0  0  0  0
   21.1746   -2.9993  -15.6967 C   0  0  0  0  0  0  0  0  0  0  0  0
   22.1371   -5.1490  -13.0989 C   0  0  0  0  0  0  0  0  0  0  0  0
   22.6639   -4.0301  -12.8860 O   0  0  0  0  0  0  0  0  0  0  0  0
   21.8403   -5.8781  -11.9313 O   0  0  0  0  0  0  0  0  0  0  0  0
  2  1  1  6
  2  3  1  0
  4  2  1  0
  5  4  1  0
  5  6  1  1
  7  8  2  0
  7  5  1  0
  9 10  1  0
 10 20  2  0
 11 12  2  0
 11 10  1  0
 12 13  1  0
 13 19  2  0
 13 14  1  0
 15 14  1  6
 15 16  1  0
 16  7  1  0
 17 15  1  0
 18 17  2  0
 20 19  1  0
 21 17  1  0
 22 21  1  0
 22 23  1  1
 23 24  1  0
 24 29  2  0
 25 26  2  0
 25 24  1  0
 26 27  1  0
 27 28  2  0
 29 28  1  0
 30 32  1  0
 30 22  1  0
 31 30  2  0
M  END
$$$$
