LYF.pdb
     RDKit          3D

 32 33  0  0  1  0  0  0  0  0999 V2000
   29.3930  -18.2594  -16.3291 C   0  0  0  0  0  0  0  0  0  0  0  0
   27.9154  -17.9149  -16.4119 C   0  0  2  0  0  0  0  0  0  0  0  0
   27.6727  -16.6555  -17.1685 C   0  0  0  0  0  0  0  0  0  0  0  0
   27.3822  -17.8199  -15.0215 C   0  0  0  0  0  0  0  0  0  0  0  0
   27.6519  -19.0818  -14.2644 C   0  0  2  0  0  0  0  0  0  0  0  0
   27.5259  -20.2895  -15.0193 N   0  0  0  0  0  0  0  0  0  0  0  0
   26.9746  -19.1419  -12.9633 C   0  0  0  0  0  0  0  0  0  0  0  0
   26.6895  -18.1188  -12.2807 O   0  0  0  0  0  0  0  0  0  0  0  0
   20.5162  -20.5548  -14.9300 O   0  0  0  0  0  0  0  0  0  0  0  0
   21.5816  -20.8365  -14.0683 C   0  0  0  0  0  0  0  0  0  0  0  0
   21.6289  -20.3372  -12.7969 C   0  0  0  0  0  0  0  0  0  0  0  0
   22.7017  -20.6359  -11.9648 C   0  0  0  0  0  0  0  0  0  0  0  0
   23.7561  -21.4322  -12.3539 C   0  0  0  0  0  0  0  0  0  0  0  0
   24.9116  -21.7437  -11.4747 C   0  0  0  0  0  0  0  0  0  0  0  0
   25.7185  -20.4392  -11.2422 C   0  0  2  0  0  0  0  0  0  0  0  0
   26.6060  -20.3992  -12.4092 N   0  0  0  0  0  0  0  0  0  0  0  0
   26.4834  -20.6965  -10.0078 C   0  0  0  0  0  0  0  0  0  0  0  0
   27.2919  -21.6586  -10.0334 O   0  0  0  0  0  0  0  0  0  0  0  0
   23.6940  -21.9396  -13.6613 C   0  0  0  0  0  0  0  0  0  0  0  0
   22.6298  -21.6422  -14.4878 C   0  0  0  0  0  0  0  0  0  0  0  0
   26.3687  -19.9307   -8.8144 N   0  0  0  0  0  0  0  0  0  0  0  0
   27.0097  -20.3251   -7.5729 C   0  0  1  0  0  0  0  0  0  0  0  0
   27.8669  -19.1717   -7.1061 C   0  0  0  0  0  0  0  0  0  0  0  0
   28.4112  -19.4920   -5.7747 C   0  0  0  0  0  0  0  0  0  0  0  0
   29.4717  -20.3735   -5.6906 C   0  0  0  0  0  0  0  0  0  0  0  0
   30.0114  -20.6874   -4.4711 C   0  0  0  0  0  0  0  0  0  0  0  0
   29.4520  -20.0883   -3.3467 C   0  0  0  0  0  0  0  0  0  0  0  0
   28.4055  -19.2179   -3.4182 C   0  0  0  0  0  0  0  0  0  0  0  0
   27.8685  -18.9082   -4.6618 C   0  0  0  0  0  0  0  0  0  0  0  0
   26.1354  -20.9294   -6.5907 C   0  0  0  0  0  0  0  0  0  0  0  0
   24.8845  -20.8294   -6.5867 O   0  0  0  0  0  0  0  0  0  0  0  0
   26.6558  -21.6980   -5.5317 O   0  0  0  0  0  0  0  0  0  0  0  0
  2  1  1  1
  2  3  1  0
  4  2  1  0
  5  4  1  0
  5  6  1  6
  7  8  2  0
  7  5  1  0
  9 10  1  0
 10 20  2  0
 11 12  2  0
 11 10  1  0
 12 13  1  0
 13 19  2  0
 13 14  1  0
 15 14  1  6
 15 16  1  0
 16  7  1  0
 17 15  1  0
 18 17  2  0
 20 19  1  0
 21 17  1  0
 22 21  1  0
 22 23  1  1
 23 24  1  0
 24 29  2  0
 25 26  2  0
 25 24  1  0
 26 27  1  0
 27 28  2  0
 29 28  1  0
 30 32  1  0
 30 22  1  0
 31 30  2  0
M  END
$$$$
