LYF.pdb
     RDKit          3D

 32 33  0  0  1  0  0  0  0  0999 V2000
   29.1906  -17.7527  -18.7262 C   0  0  0  0  0  0  0  0  0  0  0  0
   29.2104  -16.4127  -18.0101 C   0  0  2  0  0  0  0  0  0  0  0  0
   30.5730  -16.0507  -17.5309 C   0  0  0  0  0  0  0  0  0  0  0  0
   28.2401  -16.4767  -16.8783 C   0  0  0  0  0  0  0  0  0  0  0  0
   26.8828  -16.8729  -17.3672 C   0  0  2  0  0  0  0  0  0  0  0  0
   26.2952  -15.9921  -18.3281 N   0  0  0  0  0  0  0  0  0  0  0  0
   25.9586  -17.2514  -16.2913 C   0  0  0  0  0  0  0  0  0  0  0  0
   25.8836  -16.6359  -15.1914 O   0  0  0  0  0  0  0  0  0  0  0  0
   18.9931  -20.8302  -12.3178 O   0  0  0  0  0  0  0  0  0  0  0  0
   19.9654  -20.4784  -13.2600 C   0  0  0  0  0  0  0  0  0  0  0  0
   20.7615  -21.4161  -13.8556 C   0  0  0  0  0  0  0  0  0  0  0  0
   21.7187  -21.0342  -14.7886 C   0  0  0  0  0  0  0  0  0  0  0  0
   21.9216  -19.7247  -15.1646 C   0  0  0  0  0  0  0  0  0  0  0  0
   22.9516  -19.3088  -16.1502 C   0  0  0  0  0  0  0  0  0  0  0  0
   24.1627  -18.7224  -15.3781 C   0  0  2  0  0  0  0  0  0  0  0  0
   25.0881  -18.3641  -16.4581 N   0  0  0  0  0  0  0  0  0  0  0  0
   24.6828  -19.8585  -14.5946 C   0  0  0  0  0  0  0  0  0  0  0  0
   25.2083  -20.7990  -15.2422 O   0  0  0  0  0  0  0  0  0  0  0  0
   21.0962  -18.7723  -14.5465 C   0  0  0  0  0  0  0  0  0  0  0  0
   20.1469  -19.1511  -13.6195 C   0  0  0  0  0  0  0  0  0  0  0  0
   24.6332  -19.9488  -13.1758 N   0  0  0  0  0  0  0  0  0  0  0  0
   24.9107  -21.1840  -12.4651 C   0  0  1  0  0  0  0  0  0  0  0  0
   26.2768  -21.0584  -11.8318 C   0  0  0  0  0  0  0  0  0  0  0  0
   26.1266  -20.4665  -10.4907 C   0  0  0  0  0  0  0  0  0  0  0  0
   26.2135  -19.0937  -10.3623 C   0  0  0  0  0  0  0  0  0  0  0  0
   26.0684  -18.5062   -9.1332 C   0  0  0  0  0  0  0  0  0  0  0  0
   25.8343  -19.3410   -8.0449 C   0  0  0  0  0  0  0  0  0  0  0  0
   25.7472  -20.6963   -8.1601 C   0  0  0  0  0  0  0  0  0  0  0  0
   25.8958  -21.2785   -9.4130 C   0  0  0  0  0  0  0  0  0  0  0  0
   23.8395  -21.6645  -11.6191 C   0  0  0  0  0  0  0  0  0  0  0  0
   23.7676  -22.8231  -11.1424 O   0  0  0  0  0  0  0  0  0  0  0  0
   22.7640  -20.8274  -11.2647 O   0  0  0  0  0  0  0  0  0  0  0  0
  2  1  1  1
  2  3  1  0
  4  2  1  0
  5  4  1  0
  5  6  1  1
  7  8  2  0
  7  5  1  0
  9 10  1  0
 10 20  2  0
 11 12  2  0
 11 10  1  0
 12 13  1  0
 13 19  2  0
 13 14  1  0
 15 14  1  6
 15 16  1  0
 16  7  1  0
 17 15  1  0
 18 17  2  0
 20 19  1  0
 21 17  1  0
 22 21  1  0
 22 23  1  1
 23 24  1  0
 24 29  2  0
 25 26  2  0
 25 24  1  0
 26 27  1  0
 27 28  2  0
 29 28  1  0
 30 32  1  0
 30 22  1  0
 31 30  2  0
M  END
$$$$
