LYF.pdb
     RDKit          3D

 32 33  0  0  1  0  0  0  0  0999 V2000
   29.1691  -18.0407  -15.8187 C   0  0  0  0  0  0  0  0  0  0  0  0
   27.6892  -17.9006  -16.1337 C   0  0  2  0  0  0  0  0  0  0  0  0
   27.3941  -16.6664  -16.9129 C   0  0  0  0  0  0  0  0  0  0  0  0
   26.9367  -17.9178  -14.8454 C   0  0  0  0  0  0  0  0  0  0  0  0
   27.3668  -19.0727  -13.9971 C   0  0  2  0  0  0  0  0  0  0  0  0
   27.4971  -20.3216  -14.6808 N   0  0  0  0  0  0  0  0  0  0  0  0
   26.6264  -19.1813  -12.7342 C   0  0  0  0  0  0  0  0  0  0  0  0
   26.3023  -18.1840  -12.0309 O   0  0  0  0  0  0  0  0  0  0  0  0
   20.4814  -19.7056  -15.1885 O   0  0  0  0  0  0  0  0  0  0  0  0
   21.4241  -20.1885  -14.2747 C   0  0  0  0  0  0  0  0  0  0  0  0
   21.3854  -19.8442  -12.9526 C   0  0  0  0  0  0  0  0  0  0  0  0
   22.3369  -20.3413  -12.0694 C   0  0  0  0  0  0  0  0  0  0  0  0
   23.3510  -21.1895  -12.4560 C   0  0  0  0  0  0  0  0  0  0  0  0
   24.3786  -21.7128  -11.5204 C   0  0  0  0  0  0  0  0  0  0  0  0
   25.3113  -20.5431  -11.1097 C   0  0  2  0  0  0  0  0  0  0  0  0
   26.2377  -20.4588  -12.2435 N   0  0  0  0  0  0  0  0  0  0  0  0
   26.0014  -21.0315   -9.9013 C   0  0  0  0  0  0  0  0  0  0  0  0
   25.6115  -22.1307   -9.4324 O   0  0  0  0  0  0  0  0  0  0  0  0
   23.3781  -21.5363  -13.8160 C   0  0  0  0  0  0  0  0  0  0  0  0
   22.4343  -21.0420  -14.6930 C   0  0  0  0  0  0  0  0  0  0  0  0
   27.0670  -20.3497   -9.2508 N   0  0  0  0  0  0  0  0  0  0  0  0
   27.3960  -20.5735   -7.8546 C   0  0  1  0  0  0  0  0  0  0  0  0
   28.5484  -19.6640   -7.4975 C   0  0  0  0  0  0  0  0  0  0  0  0
   28.7675  -19.7232   -6.0415 C   0  0  0  0  0  0  0  0  0  0  0  0
   28.2768  -18.6960   -5.2585 C   0  0  0  0  0  0  0  0  0  0  0  0
   28.4516  -18.7216   -3.9000 C   0  0  0  0  0  0  0  0  0  0  0  0
   29.1320  -19.8082   -3.3593 C   0  0  0  0  0  0  0  0  0  0  0  0
   29.6206  -20.8265   -4.1223 C   0  0  0  0  0  0  0  0  0  0  0  0
   29.4355  -20.7878   -5.4989 C   0  0  0  0  0  0  0  0  0  0  0  0
   26.2680  -20.5864   -6.9481 C   0  0  0  0  0  0  0  0  0  0  0  0
   25.2808  -19.8152   -7.0216 O   0  0  0  0  0  0  0  0  0  0  0  0
   26.2059  -21.5024   -5.8804 O   0  0  0  0  0  0  0  0  0  0  0  0
  2  1  1  1
  2  3  1  0
  4  2  1  0
  5  4  1  0
  5  6  1  6
  7  8  2  0
  7  5  1  0
  9 10  1  0
 10 20  2  0
 11 12  2  0
 11 10  1  0
 12 13  1  0
 13 19  2  0
 13 14  1  0
 15 14  1  6
 15 16  1  0
 16  7  1  0
 17 15  1  0
 18 17  2  0
 20 19  1  0
 21 17  1  0
 22 21  1  0
 22 23  1  1
 23 24  1  0
 24 29  2  0
 25 26  2  0
 25 24  1  0
 26 27  1  0
 27 28  2  0
 29 28  1  0
 30 32  1  0
 30 22  1  0
 31 30  2  0
M  END
$$$$
