LYF.pdb
     RDKit          3D

 32 33  0  0  1  0  0  0  0  0999 V2000
   23.3279  -20.8819  -17.0672 C   0  0  0  0  0  0  0  0  0  0  0  0
   24.8153  -21.0558  -17.3249 C   0  0  2  0  0  0  0  0  0  0  0  0
   25.0841  -21.8633  -18.5468 C   0  0  0  0  0  0  0  0  0  0  0  0
   25.4251  -21.6857  -16.1174 C   0  0  0  0  0  0  0  0  0  0  0  0
   25.5173  -20.6995  -14.9962 C   0  0  2  0  0  0  0  0  0  0  0  0
   25.9810  -19.3971  -15.3606 N   0  0  0  0  0  0  0  0  0  0  0  0
   26.1781  -21.2324  -13.7985 C   0  0  0  0  0  0  0  0  0  0  0  0
   25.9569  -22.3873  -13.3388 O   0  0  0  0  0  0  0  0  0  0  0  0
   33.4164  -23.9621  -12.3028 O   0  0  0  0  0  0  0  0  0  0  0  0
   32.3584  -23.0512  -12.2148 C   0  0  0  0  0  0  0  0  0  0  0  0
   31.5447  -22.7896  -13.2812 C   0  0  0  0  0  0  0  0  0  0  0  0
   30.5012  -21.8789  -13.1615 C   0  0  0  0  0  0  0  0  0  0  0  0
   30.2253  -21.2008  -11.9947 C   0  0  0  0  0  0  0  0  0  0  0  0
   29.1210  -20.2166  -11.8643 C   0  0  0  0  0  0  0  0  0  0  0  0
   27.7726  -20.9831  -11.8962 C   0  0  2  0  0  0  0  0  0  0  0  0
   27.1213  -20.4363  -13.0911 N   0  0  0  0  0  0  0  0  0  0  0  0
   27.0752  -20.5491  -10.6714 C   0  0  0  0  0  0  0  0  0  0  0  0
   26.5358  -19.4141  -10.6995 O   0  0  0  0  0  0  0  0  0  0  0  0
   31.0676  -21.4801  -10.9070 C   0  0  0  0  0  0  0  0  0  0  0  0
   32.1041  -22.3832  -11.0261 C   0  0  0  0  0  0  0  0  0  0  0  0
   26.9719  -21.3265   -9.4845 N   0  0  0  0  0  0  0  0  0  0  0  0
   26.2228  -20.8786   -8.3244 C   0  0  1  0  0  0  0  0  0  0  0  0
   26.7056  -19.4922   -7.9669 C   0  0  0  0  0  0  0  0  0  0  0  0
   27.3411  -19.5378   -6.6382 C   0  0  0  0  0  0  0  0  0  0  0  0
   27.8190  -18.3607   -6.0951 C   0  0  0  0  0  0  0  0  0  0  0  0
   28.4065  -18.3618   -4.8574 C   0  0  0  0  0  0  0  0  0  0  0  0
   28.4961  -19.5788   -4.1890 C   0  0  0  0  0  0  0  0  0  0  0  0
   28.0285  -20.7458   -4.7156 C   0  0  0  0  0  0  0  0  0  0  0  0
   27.4344  -20.7298   -5.9716 C   0  0  0  0  0  0  0  0  0  0  0  0
   24.7908  -21.0729   -8.4004 C   0  0  0  0  0  0  0  0  0  0  0  0
   24.1281  -21.1099   -9.4655 O   0  0  0  0  0  0  0  0  0  0  0  0
   24.0182  -21.2373   -7.2347 O   0  0  0  0  0  0  0  0  0  0  0  0
  2  1  1  1
  2  3  1  0
  4  2  1  0
  5  4  1  0
  5  6  1  6
  7  8  2  0
  7  5  1  0
  9 10  1  0
 10 20  2  0
 11 12  2  0
 11 10  1  0
 12 13  1  0
 13 19  2  0
 13 14  1  0
 15 14  1  1
 15 16  1  0
 16  7  1  0
 17 15  1  0
 18 17  2  0
 20 19  1  0
 21 17  1  0
 22 21  1  0
 22 23  1  6
 23 24  1  0
 24 29  2  0
 25 26  2  0
 25 24  1  0
 26 27  1  0
 27 28  2  0
 29 28  1  0
 30 32  1  0
 30 22  1  0
 31 30  2  0
M  END
$$$$
