LYF.pdb
     RDKit          3D

 32 33  0  0  1  0  0  0  0  0999 V2000
   23.6588  -11.5440  -20.2729 C   0  0  0  0  0  0  0  0  0  0  0  0
   22.8272  -10.6686  -21.1955 C   0  0  2  0  0  0  0  0  0  0  0  0
   23.6728   -9.8432  -22.1015 C   0  0  0  0  0  0  0  0  0  0  0  0
   21.9451   -9.8110  -20.3512 C   0  0  0  0  0  0  0  0  0  0  0  0
   21.0651  -10.6522  -19.4815 C   0  0  2  0  0  0  0  0  0  0  0  0
   20.2200  -11.5750  -20.1731 N   0  0  0  0  0  0  0  0  0  0  0  0
   20.3584   -9.8873  -18.4469 C   0  0  0  0  0  0  0  0  0  0  0  0
   19.2957   -9.2413  -18.6647 O   0  0  0  0  0  0  0  0  0  0  0  0
   14.7945  -12.3112  -16.4941 O   0  0  0  0  0  0  0  0  0  0  0  0
   16.0289  -11.7535  -16.1449 C   0  0  0  0  0  0  0  0  0  0  0  0
   17.2079  -12.3871  -16.4215 C   0  0  0  0  0  0  0  0  0  0  0  0
   18.4185  -11.8063  -16.0615 C   0  0  0  0  0  0  0  0  0  0  0  0
   18.5080  -10.5894  -15.4224 C   0  0  0  0  0  0  0  0  0  0  0  0
   19.7972   -9.9702  -15.0229 C   0  0  0  0  0  0  0  0  0  0  0  0
   20.2274   -8.9720  -16.1299 C   0  0  2  0  0  0  0  0  0  0  0  0
   20.8667   -9.8463  -17.1188 N   0  0  0  0  0  0  0  0  0  0  0  0
   21.2224   -8.1035  -15.4738 C   0  0  0  0  0  0  0  0  0  0  0  0
   22.4142   -8.5030  -15.4808 O   0  0  0  0  0  0  0  0  0  0  0  0
   17.2899   -9.9488  -15.1458 C   0  0  0  0  0  0  0  0  0  0  0  0
   16.0881  -10.5259  -15.5021 C   0  0  0  0  0  0  0  0  0  0  0  0
   20.9212   -6.8603  -14.8514 N   0  0  0  0  0  0  0  0  0  0  0  0
   21.9522   -5.9852  -14.3231 C   0  0  1  0  0  0  0  0  0  0  0  0
   22.9979   -5.7982  -15.3976 C   0  0  0  0  0  0  0  0  0  0  0  0
   22.7270   -4.5374  -16.1106 C   0  0  0  0  0  0  0  0  0  0  0  0
   23.1012   -3.3489  -15.5138 C   0  0  0  0  0  0  0  0  0  0  0  0
   22.8755   -2.1572  -16.1509 C   0  0  0  0  0  0  0  0  0  0  0  0
   22.2648   -2.2014  -17.4004 C   0  0  0  0  0  0  0  0  0  0  0  0
   21.8912   -3.3680  -17.9980 C   0  0  0  0  0  0  0  0  0  0  0  0
   22.1269   -4.5693  -17.3406 C   0  0  0  0  0  0  0  0  0  0  0  0
   21.4707   -4.7901  -13.6643 C   0  0  0  0  0  0  0  0  0  0  0  0
   20.3653   -4.2417  -13.8929 O   0  0  0  0  0  0  0  0  0  0  0  0
   22.2461   -4.1388  -12.6858 O   0  0  0  0  0  0  0  0  0  0  0  0
  2  1  1  1
  2  3  1  0
  4  2  1  0
  5  4  1  0
  5  6  1  6
  7  8  2  0
  7  5  1  0
  9 10  1  0
 10 20  2  0
 11 12  2  0
 11 10  1  0
 12 13  1  0
 13 19  2  0
 13 14  1  0
 15 14  1  1
 15 16  1  0
 16  7  1  0
 17 15  1  0
 18 17  2  0
 20 19  1  0
 21 17  1  0
 22 21  1  0
 22 23  1  6
 23 24  1  0
 24 29  2  0
 25 26  2  0
 25 24  1  0
 26 27  1  0
 27 28  2  0
 29 28  1  0
 30 32  1  0
 30 22  1  0
 31 30  2  0
M  END
$$$$
