LYF.pdb
     RDKit          3D

 32 33  0  0  1  0  0  0  0  0999 V2000
   28.4381  -21.8786  -18.0190 C   0  0  0  0  0  0  0  0  0  0  0  0
   27.4252  -20.7984  -17.6781 C   0  0  2  0  0  0  0  0  0  0  0  0
   27.0357  -19.9957  -18.8702 C   0  0  0  0  0  0  0  0  0  0  0  0
   28.0105  -19.9328  -16.6129 C   0  0  0  0  0  0  0  0  0  0  0  0
   28.2322  -20.7159  -15.3576 C   0  0  2  0  0  0  0  0  0  0  0  0
   28.2790  -22.1357  -15.5199 N   0  0  0  0  0  0  0  0  0  0  0  0
   27.3778  -20.2911  -14.2420 C   0  0  0  0  0  0  0  0  0  0  0  0
   27.2108  -19.0829  -13.9159 O   0  0  0  0  0  0  0  0  0  0  0  0
   19.6666  -19.2745  -11.2472 O   0  0  0  0  0  0  0  0  0  0  0  0
   20.8769  -19.8929  -11.5781 C   0  0  0  0  0  0  0  0  0  0  0  0
   21.4875  -19.6792  -12.7821 C   0  0  0  0  0  0  0  0  0  0  0  0
   22.6904  -20.3088  -13.0808 C   0  0  0  0  0  0  0  0  0  0  0  0
   23.3286  -21.1632  -12.2090 C   0  0  0  0  0  0  0  0  0  0  0  0
   24.6064  -21.8495  -12.5275 C   0  0  0  0  0  0  0  0  0  0  0  0
   25.7596  -20.8175  -12.4179 C   0  0  2  0  0  0  0  0  0  0  0  0
   26.6871  -21.2612  -13.4637 N   0  0  0  0  0  0  0  0  0  0  0  0
   26.3298  -21.0461  -11.0771 C   0  0  0  0  0  0  0  0  0  0  0  0
   26.9450  -22.1280  -10.9009 O   0  0  0  0  0  0  0  0  0  0  0  0
   22.6915  -21.3724  -10.9757 C   0  0  0  0  0  0  0  0  0  0  0  0
   21.4969  -20.7484  -10.6796 C   0  0  0  0  0  0  0  0  0  0  0  0
   26.2336  -20.1295   -9.9935 N   0  0  0  0  0  0  0  0  0  0  0  0
   26.7239  -20.4434   -8.6635 C   0  0  1  0  0  0  0  0  0  0  0  0
   27.8261  -19.4647   -8.3319 C   0  0  0  0  0  0  0  0  0  0  0  0
   28.1898  -19.6210   -6.9125 C   0  0  0  0  0  0  0  0  0  0  0  0
   29.0219  -20.6647   -6.5561 C   0  0  0  0  0  0  0  0  0  0  0  0
   29.3906  -20.8359   -5.2478 C   0  0  0  0  0  0  0  0  0  0  0  0
   28.8973  -19.9274   -4.3164 C   0  0  0  0  0  0  0  0  0  0  0  0
   28.0756  -18.8946   -4.6569 C   0  0  0  0  0  0  0  0  0  0  0  0
   27.7103  -18.7327   -5.9878 C   0  0  0  0  0  0  0  0  0  0  0  0
   25.7015  -20.6419   -7.6588 C   0  0  0  0  0  0  0  0  0  0  0  0
   25.8225  -21.3767   -6.6487 O   0  0  0  0  0  0  0  0  0  0  0  0
   24.4533  -19.9974   -7.7568 O   0  0  0  0  0  0  0  0  0  0  0  0
  2  1  1  6
  2  3  1  0
  4  2  1  0
  5  4  1  0
  5  6  1  6
  7  8  2  0
  7  5  1  0
  9 10  1  0
 10 20  2  0
 11 12  2  0
 11 10  1  0
 12 13  1  0
 13 19  2  0
 13 14  1  0
 15 14  1  1
 15 16  1  0
 16  7  1  0
 17 15  1  0
 18 17  2  0
 20 19  1  0
 21 17  1  0
 22 21  1  0
 22 23  1  1
 23 24  1  0
 24 29  2  0
 25 26  2  0
 25 24  1  0
 26 27  1  0
 27 28  2  0
 29 28  1  0
 30 32  1  0
 30 22  1  0
 31 30  2  0
M  END
$$$$
