LYF.pdb
     RDKit          3D

 32 33  0  0  1  0  0  0  0  0999 V2000
   29.3627  -18.5373  -16.3775 C   0  0  0  0  0  0  0  0  0  0  0  0
   27.8935  -18.1818  -16.5329 C   0  0  2  0  0  0  0  0  0  0  0  0
   27.6961  -16.9431  -17.3354 C   0  0  0  0  0  0  0  0  0  0  0  0
   27.3032  -18.0410  -15.1698 C   0  0  0  0  0  0  0  0  0  0  0  0
   27.6561  -19.2181  -14.3165 C   0  0  2  0  0  0  0  0  0  0  0  0
   27.5664  -20.4917  -14.9601 N   0  0  0  0  0  0  0  0  0  0  0  0
   27.0214  -19.1951  -12.9930 C   0  0  0  0  0  0  0  0  0  0  0  0
   26.7859  -18.1320  -12.3539 O   0  0  0  0  0  0  0  0  0  0  0  0
   20.4195  -18.8850  -14.0524 O   0  0  0  0  0  0  0  0  0  0  0  0
   21.4924  -19.5098  -13.4077 C   0  0  0  0  0  0  0  0  0  0  0  0
   22.4134  -20.2481  -14.0967 C   0  0  0  0  0  0  0  0  0  0  0  0
   23.4687  -20.8565  -13.4268 C   0  0  0  0  0  0  0  0  0  0  0  0
   23.6516  -20.7578  -12.0651 C   0  0  0  0  0  0  0  0  0  0  0  0
   24.7687  -21.4166  -11.3418 C   0  0  0  0  0  0  0  0  0  0  0  0
   25.8879  -20.3685  -11.1058 C   0  0  2  0  0  0  0  0  0  0  0  0
   26.6391  -20.4129  -12.3647 N   0  0  0  0  0  0  0  0  0  0  0  0
   26.6848  -20.9266   -9.9974 C   0  0  0  0  0  0  0  0  0  0  0  0
   27.3590  -21.9574  -10.2483 O   0  0  0  0  0  0  0  0  0  0  0  0
   22.6995  -19.9954  -11.3702 C   0  0  0  0  0  0  0  0  0  0  0  0
   21.6514  -19.3925  -12.0349 C   0  0  0  0  0  0  0  0  0  0  0  0
   26.7412  -20.3743   -8.6876 N   0  0  0  0  0  0  0  0  0  0  0  0
   27.1948  -21.1392   -7.5401 C   0  0  1  0  0  0  0  0  0  0  0  0
   28.6162  -20.7249   -7.2384 C   0  0  0  0  0  0  0  0  0  0  0  0
   28.6426  -20.0250   -5.9419 C   0  0  0  0  0  0  0  0  0  0  0  0
   28.2546  -18.6996   -5.9002 C   0  0  0  0  0  0  0  0  0  0  0  0
   28.2557  -18.0187   -4.7114 C   0  0  0  0  0  0  0  0  0  0  0  0
   28.6574  -18.7116   -3.5736 C   0  0  0  0  0  0  0  0  0  0  0  0
   29.0426  -20.0187   -3.6035 C   0  0  0  0  0  0  0  0  0  0  0  0
   29.0359  -20.6971   -4.8162 C   0  0  0  0  0  0  0  0  0  0  0  0
   26.2753  -21.1824   -6.4234 C   0  0  0  0  0  0  0  0  0  0  0  0
   25.2178  -20.5121   -6.3396 O   0  0  0  0  0  0  0  0  0  0  0  0
   26.5213  -22.0127   -5.3130 O   0  0  0  0  0  0  0  0  0  0  0  0
  2  1  1  1
  2  3  1  0
  4  2  1  0
  5  4  1  0
  5  6  1  6
  7  8  2  0
  7  5  1  0
  9 10  1  0
 10 20  2  0
 11 12  2  0
 11 10  1  0
 12 13  1  0
 13 19  2  0
 13 14  1  0
 15 14  1  6
 15 16  1  0
 16  7  1  0
 17 15  1  0
 18 17  2  0
 20 19  1  0
 21 17  1  0
 22 21  1  0
 22 23  1  1
 23 24  1  0
 24 29  2  0
 25 26  2  0
 25 24  1  0
 26 27  1  0
 27 28  2  0
 29 28  1  0
 30 32  1  0
 30 22  1  0
 31 30  2  0
M  END
$$$$
