LYF.pdb
     RDKit          3D

 32 33  0  0  1  0  0  0  0  0999 V2000
   29.1123  -17.7027  -16.2016 C   0  0  0  0  0  0  0  0  0  0  0  0
   27.6280  -17.4015  -16.3238 C   0  0  2  0  0  0  0  0  0  0  0  0
   27.3727  -16.0694  -16.9384 C   0  0  0  0  0  0  0  0  0  0  0  0
   27.0222  -17.4927  -14.9632 C   0  0  0  0  0  0  0  0  0  0  0  0
   27.3995  -18.7804  -14.3016 C   0  0  2  0  0  0  0  0  0  0  0  0
   27.3803  -19.9335  -15.1467 N   0  0  0  0  0  0  0  0  0  0  0  0
   26.7280  -18.9978  -13.0144 C   0  0  0  0  0  0  0  0  0  0  0  0
   26.4448  -18.0649  -12.2123 O   0  0  0  0  0  0  0  0  0  0  0  0
   20.2174  -20.9364  -14.9241 O   0  0  0  0  0  0  0  0  0  0  0  0
   21.3576  -21.1751  -14.1496 C   0  0  0  0  0  0  0  0  0  0  0  0
   22.3057  -22.0840  -14.5276 C   0  0  0  0  0  0  0  0  0  0  0  0
   23.4281  -22.2983  -13.7358 C   0  0  0  0  0  0  0  0  0  0  0  0
   23.6533  -21.6281  -12.5537 C   0  0  0  0  0  0  0  0  0  0  0  0
   24.8430  -21.8624  -11.6966 C   0  0  0  0  0  0  0  0  0  0  0  0
   25.5283  -20.4978  -11.4225 C   0  0  2  0  0  0  0  0  0  0  0  0
   26.3630  -20.3133  -12.6143 N   0  0  0  0  0  0  0  0  0  0  0  0
   26.3606  -20.7386  -10.2291 C   0  0  0  0  0  0  0  0  0  0  0  0
   27.3013  -21.5632  -10.3525 O   0  0  0  0  0  0  0  0  0  0  0  0
   22.6726  -20.6965  -12.1783 C   0  0  0  0  0  0  0  0  0  0  0  0
   21.5579  -20.4846  -12.9635 C   0  0  0  0  0  0  0  0  0  0  0  0
   26.1709  -20.1002   -8.9721 N   0  0  0  0  0  0  0  0  0  0  0  0
   26.9421  -20.4564   -7.7948 C   0  0  1  0  0  0  0  0  0  0  0  0
   27.8340  -19.2859   -7.4523 C   0  0  0  0  0  0  0  0  0  0  0  0
   28.4736  -19.5406   -6.1494 C   0  0  0  0  0  0  0  0  0  0  0  0
   29.5782  -20.3694   -6.1080 C   0  0  0  0  0  0  0  0  0  0  0  0
   30.2061  -20.6212   -4.9166 C   0  0  0  0  0  0  0  0  0  0  0  0
   29.6887  -20.0149   -3.7761 C   0  0  0  0  0  0  0  0  0  0  0  0
   28.5994  -19.1961   -3.8055 C   0  0  0  0  0  0  0  0  0  0  0  0
   27.9729  -18.9491   -5.0210 C   0  0  0  0  0  0  0  0  0  0  0  0
   26.1811  -21.0379   -6.7100 C   0  0  0  0  0  0  0  0  0  0  0  0
   24.9412  -20.9169   -6.5590 O   0  0  0  0  0  0  0  0  0  0  0  0
   26.8111  -21.8066   -5.7124 O   0  0  0  0  0  0  0  0  0  0  0  0
  2  1  1  1
  2  3  1  0
  4  2  1  0
  5  4  1  0
  5  6  1  6
  7  8  2  0
  7  5  1  0
  9 10  1  0
 10 20  2  0
 11 12  2  0
 11 10  1  0
 12 13  1  0
 13 19  2  0
 13 14  1  0
 15 14  1  6
 15 16  1  0
 16  7  1  0
 17 15  1  0
 18 17  2  0
 20 19  1  0
 21 17  1  0
 22 21  1  0
 22 23  1  1
 23 24  1  0
 24 29  2  0
 25 26  2  0
 25 24  1  0
 26 27  1  0
 27 28  2  0
 29 28  1  0
 30 32  1  0
 30 22  1  0
 31 30  2  0
M  END
$$$$
