LYF.pdb
     RDKit          3D

 32 33  0  0  1  0  0  0  0  0999 V2000
   29.1482  -18.9879  -16.7414 C   0  0  0  0  0  0  0  0  0  0  0  0
   27.6722  -18.6400  -16.8382 C   0  0  2  0  0  0  0  0  0  0  0  0
   27.4259  -17.4756  -17.7331 C   0  0  0  0  0  0  0  0  0  0  0  0
   27.1658  -18.3771  -15.4594 C   0  0  0  0  0  0  0  0  0  0  0  0
   27.6177  -19.4476  -14.5171 C   0  0  2  0  0  0  0  0  0  0  0  0
   27.5881  -20.7781  -15.0397 N   0  0  0  0  0  0  0  0  0  0  0  0
   27.0237  -19.3406  -13.1788 C   0  0  0  0  0  0  0  0  0  0  0  0
   26.8503  -18.2419  -12.5816 O   0  0  0  0  0  0  0  0  0  0  0  0
   20.4685  -19.9932  -14.9019 O   0  0  0  0  0  0  0  0  0  0  0  0
   21.5296  -20.3934  -14.0829 C   0  0  0  0  0  0  0  0  0  0  0  0
   22.4820  -21.2715  -14.5185 C   0  0  0  0  0  0  0  0  0  0  0  0
   23.5246  -21.6495  -13.6801 C   0  0  0  0  0  0  0  0  0  0  0  0
   23.6636  -21.1774  -12.3936 C   0  0  0  0  0  0  0  0  0  0  0  0
   24.7670  -21.5877  -11.4885 C   0  0  0  0  0  0  0  0  0  0  0  0
   25.7349  -20.3875  -11.3171 C   0  0  2  0  0  0  0  0  0  0  0  0
   26.6111  -20.5129  -12.4864 N   0  0  0  0  0  0  0  0  0  0  0  0
   26.4705  -20.6844  -10.0738 C   0  0  0  0  0  0  0  0  0  0  0  0
   27.2195  -21.6937  -10.0870 O   0  0  0  0  0  0  0  0  0  0  0  0
   22.6796  -20.2751  -11.9597 C   0  0  0  0  0  0  0  0  0  0  0  0
   21.6441  -19.9009  -12.7914 C   0  0  0  0  0  0  0  0  0  0  0  0
   26.3905  -19.9073   -8.8849 N   0  0  0  0  0  0  0  0  0  0  0  0
   27.0244  -20.3163   -7.6445 C   0  0  1  0  0  0  0  0  0  0  0  0
   27.8947  -19.1760   -7.1699 C   0  0  0  0  0  0  0  0  0  0  0  0
   28.4390  -19.5137   -5.8428 C   0  0  0  0  0  0  0  0  0  0  0  0
   27.8136  -18.9995   -4.7233 C   0  0  0  0  0  0  0  0  0  0  0  0
   28.2843  -19.3000   -3.4723 C   0  0  0  0  0  0  0  0  0  0  0  0
   29.3979  -20.1298   -3.3862 C   0  0  0  0  0  0  0  0  0  0  0  0
   30.0228  -20.6420   -4.4839 C   0  0  0  0  0  0  0  0  0  0  0  0
   29.5341  -20.3294   -5.7465 C   0  0  0  0  0  0  0  0  0  0  0  0
   26.1412  -20.9154   -6.6672 C   0  0  0  0  0  0  0  0  0  0  0  0
   24.9073  -20.7007   -6.5896 O   0  0  0  0  0  0  0  0  0  0  0  0
   26.6322  -21.8131   -5.6998 O   0  0  0  0  0  0  0  0  0  0  0  0
  2  1  1  1
  2  3  1  0
  4  2  1  0
  5  4  1  0
  5  6  1  6
  7  8  2  0
  7  5  1  0
  9 10  1  0
 10 20  2  0
 11 12  2  0
 11 10  1  0
 12 13  1  0
 13 19  2  0
 13 14  1  0
 15 14  1  6
 15 16  1  0
 16  7  1  0
 17 15  1  0
 18 17  2  0
 20 19  1  0
 21 17  1  0
 22 21  1  0
 22 23  1  1
 23 24  1  0
 24 29  2  0
 25 26  2  0
 25 24  1  0
 26 27  1  0
 27 28  2  0
 29 28  1  0
 30 32  1  0
 30 22  1  0
 31 30  2  0
M  END
$$$$
