LYF.pdb
     RDKit          3D

 32 33  0  0  1  0  0  0  0  0999 V2000
   20.8424  -18.5432  -19.2140 C   0  0  0  0  0  0  0  0  0  0  0  0
   19.9261  -18.8883  -18.0520 C   0  0  2  0  0  0  0  0  0  0  0  0
   18.5412  -18.3814  -18.2576 C   0  0  0  0  0  0  0  0  0  0  0  0
   20.5259  -18.3284  -16.8057 C   0  0  0  0  0  0  0  0  0  0  0  0
   21.9682  -18.7101  -16.6953 C   0  0  2  0  0  0  0  0  0  0  0  0
   22.3866  -19.7813  -17.5448 N   0  0  0  0  0  0  0  0  0  0  0  0
   22.4319  -18.8580  -15.3103 C   0  0  0  0  0  0  0  0  0  0  0  0
   22.3325  -17.9456  -14.4432 O   0  0  0  0  0  0  0  0  0  0  0  0
   17.2647  -20.5326  -11.9015 O   0  0  0  0  0  0  0  0  0  0  0  0
   18.6143  -20.7828  -12.1708 C   0  0  0  0  0  0  0  0  0  0  0  0
   19.5897  -20.5346  -11.2461 C   0  0  0  0  0  0  0  0  0  0  0  0
   20.9225  -20.7943  -11.5444 C   0  0  0  0  0  0  0  0  0  0  0  0
   21.3363  -21.3049  -12.7549 C   0  0  0  0  0  0  0  0  0  0  0  0
   22.7594  -21.5715  -13.0846 C   0  0  0  0  0  0  0  0  0  0  0  0
   23.4314  -20.2312  -13.4831 C   0  0  2  0  0  0  0  0  0  0  0  0
   23.0309  -20.0764  -14.8855 N   0  0  0  0  0  0  0  0  0  0  0  0
   24.8775  -20.4999  -13.3753 C   0  0  0  0  0  0  0  0  0  0  0  0
   25.4428  -20.9716  -14.3941 O   0  0  0  0  0  0  0  0  0  0  0  0
   20.3243  -21.5567  -13.6946 C   0  0  0  0  0  0  0  0  0  0  0  0
   19.0015  -21.2979  -13.3990 C   0  0  0  0  0  0  0  0  0  0  0  0
   25.6581  -20.2550  -12.2115 N   0  0  0  0  0  0  0  0  0  0  0  0
   27.0797  -20.5437  -12.1538 C   0  0  1  0  0  0  0  0  0  0  0  0
   27.7386  -19.4680  -11.3222 C   0  0  0  0  0  0  0  0  0  0  0  0
   27.3669  -19.6641   -9.9099 C   0  0  0  0  0  0  0  0  0  0  0  0
   26.2715  -18.9825   -9.4155 C   0  0  0  0  0  0  0  0  0  0  0  0
   25.8889  -19.1476   -8.1104 C   0  0  0  0  0  0  0  0  0  0  0  0
   26.6405  -20.0159   -7.3248 C   0  0  0  0  0  0  0  0  0  0  0  0
   27.7230  -20.6928   -7.8020 C   0  0  0  0  0  0  0  0  0  0  0  0
   28.0992  -20.5163   -9.1279 C   0  0  0  0  0  0  0  0  0  0  0  0
   27.4198  -21.9144  -11.8381 C   0  0  0  0  0  0  0  0  0  0  0  0
   26.6083  -22.7767  -11.4226 O   0  0  0  0  0  0  0  0  0  0  0  0
   28.7390  -22.3859  -11.9813 O   0  0  0  0  0  0  0  0  0  0  0  0
  2  1  1  6
  2  3  1  0
  4  2  1  0
  5  4  1  0
  5  6  1  6
  7  8  2  0
  7  5  1  0
  9 10  1  0
 10 20  2  0
 11 12  2  0
 11 10  1  0
 12 13  1  0
 13 19  2  0
 13 14  1  0
 15 14  1  6
 15 16  1  0
 16  7  1  0
 17 15  1  0
 18 17  2  0
 20 19  1  0
 21 17  1  0
 22 21  1  0
 22 23  1  1
 23 24  1  0
 24 29  2  0
 25 26  2  0
 25 24  1  0
 26 27  1  0
 27 28  2  0
 29 28  1  0
 30 32  1  0
 30 22  1  0
 31 30  2  0
M  END
$$$$
