WIT.pdb
     RDKit          3D

 30 31  0  0  1  0  0  0  0  0999 V2000
    7.0222  -19.3842   26.7109 N   0  0  0  0  0  0  0  0  0  0  0  0
    7.6251  -18.0279   26.7601 C   0  0  1  0  0  0  0  0  0  0  0  0
    9.0767  -18.2430   26.9832 C   0  0  0  0  0  0  0  0  0  0  0  0
    9.6752  -17.6707   28.1899 C   0  0  0  0  0  0  0  0  0  0  0  0
   10.0852  -18.4323   29.2853 C   0  0  0  0  0  0  0  0  0  0  0  0
   10.5359  -17.5953   30.2085 N   0  0  0  0  0  0  0  0  0  0  0  0
   10.4543  -16.3250   29.8002 C   0  0  0  0  0  0  0  0  0  0  0  0
   10.8215  -15.1272   30.4238 C   0  0  0  0  0  0  0  0  0  0  0  0
   10.6342  -13.9507   29.7365 C   0  0  0  0  0  0  0  0  0  0  0  0
   10.0981  -13.9763   28.4696 C   0  0  0  0  0  0  0  0  0  0  0  0
    9.7464  -15.1523   27.8800 C   0  0  0  0  0  0  0  0  0  0  0  0
    9.9193  -16.3674   28.5434 C   0  0  0  0  0  0  0  0  0  0  0  0
    7.3356  -17.3212   25.5149 C   0  0  0  0  0  0  0  0  0  0  0  0
    6.9492  -17.9319   24.4924 O   0  0  0  0  0  0  0  0  0  0  0  0
    6.8204  -11.7672   25.6619 C   0  0  0  0  0  0  0  0  0  0  0  0
    6.3778  -13.1868   25.3531 C   0  0  0  0  0  0  0  0  0  0  0  0
    7.3457  -13.7416   24.3273 C   0  0  2  0  0  0  0  0  0  0  0  0
    7.1383  -12.9856   23.0442 C   0  0  0  0  0  0  0  0  0  0  0  0
    7.2021  -15.2240   24.1302 C   0  0  2  0  0  0  0  0  0  0  0  0
    7.4692  -15.8991   25.3608 N   0  0  0  0  0  0  0  0  0  0  0  0
    8.1855  -15.6120   23.0629 C   0  0  0  0  0  0  0  0  0  0  0  0
    7.7994  -15.8265   21.8936 O   0  0  0  0  0  0  0  0  0  0  0  0
   10.6837  -14.9301   20.7412 C   0  0  0  0  0  0  0  0  0  0  0  0
   11.4756  -15.6826   21.7900 C   0  0  1  0  0  0  0  0  0  0  0  0
   12.0784  -14.7268   22.6047 O   0  0  0  0  0  0  0  0  0  0  0  0
   10.4929  -16.5386   22.5566 C   0  0  2  0  0  0  0  0  0  0  0  0
    9.5725  -15.7458   23.3412 N   0  0  0  0  0  0  0  0  0  0  0  0
   11.2798  -17.4039   23.4683 C   0  0  0  0  0  0  0  0  0  0  0  0
   12.2671  -18.2759   22.9644 O   0  0  0  0  0  0  0  0  0  0  0  0
   11.1415  -17.4332   24.7114 O   0  0  0  0  0  0  0  0  0  0  0  0
  2  1  1  6
  2 13  1  0
  3  4  1  0
  3  2  1  0
  4 12  1  0
  5  4  2  0
  5  6  1  0
  6  7  1  0
  7  8  1  0
  8  9  2  0
 10  9  1  0
 11 10  2  0
 12  7  2  0
 12 11  1  0
 13 20  1  0
 13 14  2  0
 16 17  1  0
 16 15  1  0
 17 18  1  6
 19 17  1  0
 19 21  1  0
 19 20  1  1
 21 22  2  0
 24 23  1  6
 24 26  1  0
 25 24  1  0
 26 28  1  0
 26 27  1  1
 27 21  1  0
 28 29  1  0
 30 28  2  0
M  END
$$$$
