WIT.pdb
     RDKit          3D

 30 31  0  0  1  0  0  0  0  0999 V2000
    5.9057  -18.1883   24.6497 N   0  0  0  0  0  0  0  0  0  0  0  0
    6.4176  -16.8207   24.3789 C   0  0  1  0  0  0  0  0  0  0  0  0
    7.0881  -16.3892   25.6309 C   0  0  0  0  0  0  0  0  0  0  0  0
    6.7631  -15.0633   26.1586 C   0  0  0  0  0  0  0  0  0  0  0  0
    5.4913  -14.6988   26.6032 C   0  0  0  0  0  0  0  0  0  0  0  0
    5.5447  -13.4264   26.9691 N   0  0  0  0  0  0  0  0  0  0  0  0
    6.7694  -12.9182   26.7985 C   0  0  0  0  0  0  0  0  0  0  0  0
    7.2876  -11.6448   27.0595 C   0  0  0  0  0  0  0  0  0  0  0  0
    8.6180  -11.4161   26.7966 C   0  0  0  0  0  0  0  0  0  0  0  0
    9.3992  -12.4293   26.2902 C   0  0  0  0  0  0  0  0  0  0  0  0
    8.8763  -13.6618   26.0422 C   0  0  0  0  0  0  0  0  0  0  0  0
    7.5314  -13.9345   26.2943 C   0  0  0  0  0  0  0  0  0  0  0  0
    7.3188  -16.8570   23.2298 C   0  0  0  0  0  0  0  0  0  0  0  0
    7.9507  -17.8952   22.9285 O   0  0  0  0  0  0  0  0  0  0  0  0
    7.2060  -12.6099   19.5871 C   0  0  0  0  0  0  0  0  0  0  0  0
    7.0966  -14.0226   20.1339 C   0  0  0  0  0  0  0  0  0  0  0  0
    8.4841  -14.4345   20.5833 C   0  0  2  0  0  0  0  0  0  0  0  0
    9.3745  -14.4470   19.3716 C   0  0  0  0  0  0  0  0  0  0  0  0
    8.4985  -15.7553   21.2990 C   0  0  2  0  0  0  0  0  0  0  0  0
    7.5527  -15.7303   22.3698 N   0  0  0  0  0  0  0  0  0  0  0  0
    9.8992  -15.9543   21.8042 C   0  0  0  0  0  0  0  0  0  0  0  0
   10.4868  -15.0386   22.4194 O   0  0  0  0  0  0  0  0  0  0  0  0
   11.5453  -19.0077   23.8145 C   0  0  0  0  0  0  0  0  0  0  0  0
   12.1813  -18.8515   22.4491 C   0  0  1  0  0  0  0  0  0  0  0  0
   11.5433  -19.7531   21.6001 O   0  0  0  0  0  0  0  0  0  0  0  0
   11.9604  -17.4188   22.0194 C   0  0  2  0  0  0  0  0  0  0  0  0
   10.5965  -17.1762   21.6041 N   0  0  0  0  0  0  0  0  0  0  0  0
   12.8651  -17.1577   20.8738 C   0  0  0  0  0  0  0  0  0  0  0  0
   14.2647  -17.1429   21.0468 O   0  0  0  0  0  0  0  0  0  0  0  0
   12.4806  -16.9376   19.7038 O   0  0  0  0  0  0  0  0  0  0  0  0
  2  1  1  1
  2 13  1  0
  3  4  1  0
  3  2  1  0
  4 12  1  0
  5  4  2  0
  5  6  1  0
  6  7  1  0
  7  8  1  0
  8  9  2  0
 10  9  1  0
 11 10  2  0
 12  7  2  0
 12 11  1  0
 13 20  1  0
 13 14  2  0
 16 17  1  0
 16 15  1  0
 17 18  1  6
 19 17  1  0
 19 21  1  0
 19 20  1  1
 21 22  2  0
 24 23  1  1
 24 26  1  0
 25 24  1  0
 26 28  1  0
 26 27  1  6
 27 21  1  0
 28 29  1  0
 30 28  2  0
M  END
$$$$
