WIT.pdb
     RDKit          3D

 30 31  0  0  1  0  0  0  0  0999 V2000
    6.9546  -18.4726   25.2343 N   0  0  0  0  0  0  0  0  0  0  0  0
    6.2491  -17.5232   24.3362 C   0  0  1  0  0  0  0  0  0  0  0  0
    5.8050  -16.4050   25.2053 C   0  0  0  0  0  0  0  0  0  0  0  0
    6.8198  -15.7121   26.0002 C   0  0  0  0  0  0  0  0  0  0  0  0
    7.8408  -16.3669   26.6907 C   0  0  0  0  0  0  0  0  0  0  0  0
    8.5447  -15.4458   27.3325 N   0  0  0  0  0  0  0  0  0  0  0  0
    8.0605  -14.2189   27.1147 C   0  0  0  0  0  0  0  0  0  0  0  0
    8.4840  -12.9635   27.5652 C   0  0  0  0  0  0  0  0  0  0  0  0
    7.7867  -11.8530   27.1503 C   0  0  0  0  0  0  0  0  0  0  0  0
    6.7039  -11.9982   26.3138 C   0  0  0  0  0  0  0  0  0  0  0  0
    6.3069  -13.2286   25.8868 C   0  0  0  0  0  0  0  0  0  0  0  0
    6.9865  -14.3801   26.2851 C   0  0  0  0  0  0  0  0  0  0  0  0
    7.1539  -17.0967   23.2717 C   0  0  0  0  0  0  0  0  0  0  0  0
    8.0529  -17.8523   22.8373 O   0  0  0  0  0  0  0  0  0  0  0  0
    7.6349  -12.2787   19.3890 C   0  0  0  0  0  0  0  0  0  0  0  0
    7.9480  -13.7455   19.6279 C   0  0  0  0  0  0  0  0  0  0  0  0
    7.4519  -14.0855   21.0190 C   0  0  2  0  0  0  0  0  0  0  0  0
    8.0678  -13.1053   21.9786 C   0  0  0  0  0  0  0  0  0  0  0  0
    7.7412  -15.5065   21.4115 C   0  0  2  0  0  0  0  0  0  0  0  0
    7.0919  -15.8034   22.6493 N   0  0  0  0  0  0  0  0  0  0  0  0
    9.2342  -15.6235   21.5295 C   0  0  0  0  0  0  0  0  0  0  0  0
    9.9712  -15.3233   20.5656 O   0  0  0  0  0  0  0  0  0  0  0  0
   11.1431  -15.3183   25.2176 C   0  0  0  0  0  0  0  0  0  0  0  0
   11.6394  -16.4680   24.3661 C   0  0  1  0  0  0  0  0  0  0  0  0
   10.9890  -17.6148   24.8161 O   0  0  0  0  0  0  0  0  0  0  0  0
   11.2835  -16.1431   22.9330 C   0  0  2  0  0  0  0  0  0  0  0  0
    9.8538  -16.0728   22.7267 N   0  0  0  0  0  0  0  0  0  0  0  0
   11.8386  -17.2254   22.0848 C   0  0  0  0  0  0  0  0  0  0  0  0
   13.2321  -17.4023   21.9587 O   0  0  0  0  0  0  0  0  0  0  0  0
   11.1472  -18.0411   21.4353 O   0  0  0  0  0  0  0  0  0  0  0  0
  2  1  1  1
  2 13  1  0
  3  4  1  0
  3  2  1  0
  4 12  1  0
  5  4  2  0
  5  6  1  0
  6  7  1  0
  7  8  1  0
  8  9  2  0
 10  9  1  0
 11 10  2  0
 12  7  2  0
 12 11  1  0
 13 20  1  0
 13 14  2  0
 16 17  1  0
 16 15  1  0
 17 18  1  1
 19 17  1  0
 19 21  1  0
 19 20  1  1
 21 22  2  0
 24 23  1  1
 24 26  1  0
 25 24  1  0
 26 28  1  0
 26 27  1  1
 27 21  1  0
 28 29  1  0
 30 28  2  0
M  END
$$$$
