WIT.pdb
     RDKit          3D

 30 31  0  0  1  0  0  0  0  0999 V2000
    6.0323  -17.2930   25.2823 N   0  0  0  0  0  0  0  0  0  0  0  0
    6.8939  -16.1632   24.8503 C   0  0  1  0  0  0  0  0  0  0  0  0
    7.9858  -16.0865   25.8527 C   0  0  0  0  0  0  0  0  0  0  0  0
    8.0048  -14.9354   26.7563 C   0  0  0  0  0  0  0  0  0  0  0  0
    8.6650  -14.9289   27.9860 C   0  0  0  0  0  0  0  0  0  0  0  0
    8.4401  -13.7534   28.5548 N   0  0  0  0  0  0  0  0  0  0  0  0
    7.6738  -12.9746   27.7844 C   0  0  0  0  0  0  0  0  0  0  0  0
    7.2020  -11.6698   27.9668 C   0  0  0  0  0  0  0  0  0  0  0  0
    6.4351  -11.1093   26.9723 C   0  0  0  0  0  0  0  0  0  0  0  0
    6.1525  -11.8326   25.8364 C   0  0  0  0  0  0  0  0  0  0  0  0
    6.6203  -13.1015   25.6778 C   0  0  0  0  0  0  0  0  0  0  0  0
    7.4008  -13.7068   26.6632 C   0  0  0  0  0  0  0  0  0  0  0  0
    7.3776  -16.4108   23.4943 C   0  0  0  0  0  0  0  0  0  0  0  0
    7.4381  -17.5699   23.0244 O   0  0  0  0  0  0  0  0  0  0  0  0
    7.2913  -12.2624   19.8660 C   0  0  0  0  0  0  0  0  0  0  0  0
    7.0538  -13.6042   20.5365 C   0  0  0  0  0  0  0  0  0  0  0  0
    8.3701  -14.3548   20.5088 C   0  0  2  0  0  0  0  0  0  0  0  0
    8.7282  -14.6010   19.0694 C   0  0  0  0  0  0  0  0  0  0  0  0
    8.3316  -15.6315   21.2997 C   0  0  2  0  0  0  0  0  0  0  0  0
    7.8169  -15.3700   22.6069 N   0  0  0  0  0  0  0  0  0  0  0  0
    9.7422  -16.1450   21.3544 C   0  0  0  0  0  0  0  0  0  0  0  0
   10.6479  -15.4553   21.8707 O   0  0  0  0  0  0  0  0  0  0  0  0
   11.1666  -19.6332   22.5791 C   0  0  0  0  0  0  0  0  0  0  0  0
   11.4425  -19.4514   21.1012 C   0  0  1  0  0  0  0  0  0  0  0  0
   10.4264  -20.1133   20.4156 O   0  0  0  0  0  0  0  0  0  0  0  0
   11.4313  -17.9643   20.8286 C   0  0  2  0  0  0  0  0  0  0  0  0
   10.0923  -17.4180   20.8290 N   0  0  0  0  0  0  0  0  0  0  0  0
   12.0344  -17.7571   19.4897 C   0  0  0  0  0  0  0  0  0  0  0  0
   13.4081  -17.9903   19.2717 O   0  0  0  0  0  0  0  0  0  0  0  0
   11.4025  -17.3739   18.4802 O   0  0  0  0  0  0  0  0  0  0  0  0
  2  1  1  1
  2 13  1  0
  3  4  1  0
  3  2  1  0
  4 12  1  0
  5  4  2  0
  5  6  1  0
  6  7  1  0
  7  8  1  0
  8  9  2  0
 10  9  1  0
 11 10  2  0
 12  7  2  0
 12 11  1  0
 13 20  1  0
 13 14  2  0
 16 17  1  0
 16 15  1  0
 17 18  1  6
 19 17  1  0
 19 21  1  0
 19 20  1  1
 21 22  2  0
 24 23  1  1
 24 26  1  0
 25 24  1  0
 26 28  1  0
 26 27  1  6
 27 21  1  0
 28 29  1  0
 30 28  2  0
M  END
$$$$
