WIT.pdb
     RDKit          3D

 30 31  0  0  1  0  0  0  0  0999 V2000
    9.6627  -16.0354   21.4613 N   0  0  0  0  0  0  0  0  0  0  0  0
    9.1479  -15.3529   22.6757 C   0  0  1  0  0  0  0  0  0  0  0  0
    7.7403  -15.8010   22.8203 C   0  0  0  0  0  0  0  0  0  0  0  0
    6.9292  -15.1798   23.8683 C   0  0  0  0  0  0  0  0  0  0  0  0
    6.0551  -15.8902   24.6924 C   0  0  0  0  0  0  0  0  0  0  0  0
    5.4573  -15.0165   25.4893 N   0  0  0  0  0  0  0  0  0  0  0  0
    5.8761  -13.7695   25.2515 C   0  0  0  0  0  0  0  0  0  0  0  0
    5.5391  -12.5501   25.8497 C   0  0  0  0  0  0  0  0  0  0  0  0
    6.1615  -11.4094   25.3995 C   0  0  0  0  0  0  0  0  0  0  0  0
    7.0884  -11.4903   24.3857 C   0  0  0  0  0  0  0  0  0  0  0  0
    7.4025  -12.6864   23.8158 C   0  0  0  0  0  0  0  0  0  0  0  0
    6.7932  -13.8667   24.2429 C   0  0  0  0  0  0  0  0  0  0  0  0
    9.9817  -15.7051   23.8222 C   0  0  0  0  0  0  0  0  0  0  0  0
   10.8240  -16.6294   23.7574 O   0  0  0  0  0  0  0  0  0  0  0  0
   10.7484  -13.9137   29.7162 C   0  0  0  0  0  0  0  0  0  0  0  0
   11.2027  -14.8568   28.6159 C   0  0  0  0  0  0  0  0  0  0  0  0
   10.3501  -14.5630   27.3979 C   0  0  2  0  0  0  0  0  0  0  0  0
    8.9118  -14.7735   27.7824 C   0  0  0  0  0  0  0  0  0  0  0  0
   10.7340  -15.3885   26.2029 C   0  0  2  0  0  0  0  0  0  0  0  0
    9.9059  -15.0381   25.0924 N   0  0  0  0  0  0  0  0  0  0  0  0
   10.5493  -16.8262   26.5973 C   0  0  0  0  0  0  0  0  0  0  0  0
    9.4614  -17.2180   27.0722 O   0  0  0  0  0  0  0  0  0  0  0  0
   11.6440  -20.0204   24.5171 C   0  0  0  0  0  0  0  0  0  0  0  0
   12.2987  -20.0637   25.8819 C   0  0  1  0  0  0  0  0  0  0  0  0
   13.5973  -19.5853   25.7231 O   0  0  0  0  0  0  0  0  0  0  0  0
   11.4791  -19.1791   26.7940 C   0  0  2  0  0  0  0  0  0  0  0  0
   11.5914  -17.7801   26.4450 N   0  0  0  0  0  0  0  0  0  0  0  0
   11.9906  -19.3730   28.1723 C   0  0  0  0  0  0  0  0  0  0  0  0
   11.8667  -20.6193   28.8208 O   0  0  0  0  0  0  0  0  0  0  0  0
   12.5532  -18.4846   28.8503 O   0  0  0  0  0  0  0  0  0  0  0  0
  2  1  1  6
  2 13  1  0
  3  4  1  0
  3  2  1  0
  4 12  1  0
  5  4  2  0
  5  6  1  0
  6  7  1  0
  7  8  1  0
  8  9  2  0
 10  9  1  0
 11 10  2  0
 12  7  2  0
 12 11  1  0
 13 20  1  0
 13 14  2  0
 16 17  1  0
 16 15  1  0
 17 18  1  1
 19 17  1  0
 19 21  1  0
 19 20  1  6
 21 22  2  0
 24 23  1  6
 24 26  1  0
 25 24  1  0
 26 28  1  0
 26 27  1  6
 27 21  1  0
 28 29  1  0
 30 28  2  0
M  END
$$$$
