WIT.pdb
     RDKit          3D

 30 31  0  0  1  0  0  0  0  0999 V2000
    6.0369  -18.0434   24.0754 N   0  0  0  0  0  0  0  0  0  0  0  0
    6.4445  -16.6219   23.9387 C   0  0  1  0  0  0  0  0  0  0  0  0
    7.2355  -16.3136   25.1562 C   0  0  0  0  0  0  0  0  0  0  0  0
    6.7540  -15.2444   26.0320 C   0  0  0  0  0  0  0  0  0  0  0  0
    5.7248  -15.4100   26.9600 C   0  0  0  0  0  0  0  0  0  0  0  0
    5.5204  -14.2384   27.5443 N   0  0  0  0  0  0  0  0  0  0  0  0
    6.3466  -13.3019   27.0673 C   0  0  0  0  0  0  0  0  0  0  0  0
    6.4995  -11.9496   27.3933 C   0  0  0  0  0  0  0  0  0  0  0  0
    7.4668  -11.2262   26.7359 C   0  0  0  0  0  0  0  0  0  0  0  0
    8.2518  -11.8383   25.7860 C   0  0  0  0  0  0  0  0  0  0  0  0
    8.0873  -13.1554   25.4823 C   0  0  0  0  0  0  0  0  0  0  0  0
    7.1169  -13.9243   26.1255 C   0  0  0  0  0  0  0  0  0  0  0  0
    7.2046  -16.4502   22.7032 C   0  0  0  0  0  0  0  0  0  0  0  0
    7.9782  -17.3409   22.2836 O   0  0  0  0  0  0  0  0  0  0  0  0
    7.9612  -14.3349   17.8391 C   0  0  0  0  0  0  0  0  0  0  0  0
    8.5476  -13.4443   18.9206 C   0  0  0  0  0  0  0  0  0  0  0  0
    7.7554  -13.7012   20.1867 C   0  0  2  0  0  0  0  0  0  0  0  0
    8.1960  -12.6974   21.2159 C   0  0  0  0  0  0  0  0  0  0  0  0
    7.8949  -15.1107   20.6875 C   0  0  2  0  0  0  0  0  0  0  0  0
    7.1326  -15.2713   21.8853 N   0  0  0  0  0  0  0  0  0  0  0  0
    9.3600  -15.3364   20.9311 C   0  0  0  0  0  0  0  0  0  0  0  0
   10.0390  -14.4841   21.5434 O   0  0  0  0  0  0  0  0  0  0  0  0
   11.6541  -17.8569   22.6975 C   0  0  0  0  0  0  0  0  0  0  0  0
   11.7907  -18.0516   21.2020 C   0  0  1  0  0  0  0  0  0  0  0  0
   10.8980  -19.0585   20.8418 O   0  0  0  0  0  0  0  0  0  0  0  0
   11.4451  -16.7316   20.5506 C   0  0  2  0  0  0  0  0  0  0  0  0
   10.0172  -16.5131   20.4810 N   0  0  0  0  0  0  0  0  0  0  0  0
   11.9941  -16.7627   19.1733 C   0  0  0  0  0  0  0  0  0  0  0  0
   13.3866  -16.7659   18.9501 O   0  0  0  0  0  0  0  0  0  0  0  0
   11.2980  -16.7882   18.1341 O   0  0  0  0  0  0  0  0  0  0  0  0
  2  1  1  1
  2 13  1  0
  3  4  1  0
  3  2  1  0
  4 12  1  0
  5  4  2  0
  5  6  1  0
  6  7  1  0
  7  8  1  0
  8  9  2  0
 10  9  1  0
 11 10  2  0
 12  7  2  0
 12 11  1  0
 13 20  1  0
 13 14  2  0
 16 17  1  0
 16 15  1  0
 17 18  1  1
 19 17  1  0
 19 21  1  0
 19 20  1  1
 21 22  2  0
 24 23  1  1
 24 26  1  0
 25 24  1  0
 26 28  1  0
 26 27  1  6
 27 21  1  0
 28 29  1  0
 30 28  2  0
M  END
$$$$
