WIT.pdb
     RDKit          3D

 30 31  0  0  1  0  0  0  0  0999 V2000
    5.9698  -17.8789   24.9537 N   0  0  0  0  0  0  0  0  0  0  0  0
    6.6821  -16.6135   24.6426 C   0  0  1  0  0  0  0  0  0  0  0  0
    7.5706  -16.3584   25.8039 C   0  0  0  0  0  0  0  0  0  0  0  0
    7.2560  -15.2203   26.6686 C   0  0  0  0  0  0  0  0  0  0  0  0
    6.6184  -15.3414   27.9042 C   0  0  0  0  0  0  0  0  0  0  0  0
    6.4538  -14.1201   28.3911 N   0  0  0  0  0  0  0  0  0  0  0  0
    6.9408  -13.1919   27.5614 C   0  0  0  0  0  0  0  0  0  0  0  0
    7.0011  -11.7976   27.6655 C   0  0  0  0  0  0  0  0  0  0  0  0
    7.5911  -11.0927   26.6425 C   0  0  0  0  0  0  0  0  0  0  0  0
    8.1017  -11.7635   25.5550 C   0  0  0  0  0  0  0  0  0  0  0  0
    8.0327  -13.1208   25.4718 C   0  0  0  0  0  0  0  0  0  0  0  0
    7.4417  -13.8728   26.4875 C   0  0  0  0  0  0  0  0  0  0  0  0
    7.4111  -16.7617   23.3854 C   0  0  0  0  0  0  0  0  0  0  0  0
    7.9690  -17.8396   23.0775 O   0  0  0  0  0  0  0  0  0  0  0  0
    8.2135  -12.2726   19.9122 C   0  0  0  0  0  0  0  0  0  0  0  0
    8.5733  -13.3727   20.8955 C   0  0  0  0  0  0  0  0  0  0  0  0
    8.0525  -14.6735   20.3181 C   0  0  2  0  0  0  0  0  0  0  0  0
    6.5879  -14.4938   20.0290 C   0  0  0  0  0  0  0  0  0  0  0  0
    8.3029  -15.8526   21.2147 C   0  0  2  0  0  0  0  0  0  0  0  0
    7.5486  -15.7071   22.4196 N   0  0  0  0  0  0  0  0  0  0  0  0
    9.7799  -15.8779   21.4878 C   0  0  0  0  0  0  0  0  0  0  0  0
   10.3546  -14.8721   21.9574 O   0  0  0  0  0  0  0  0  0  0  0  0
   12.1404  -18.4557   23.4011 C   0  0  0  0  0  0  0  0  0  0  0  0
   12.4560  -18.4391   21.9201 C   0  0  1  0  0  0  0  0  0  0  0  0
   11.7517  -19.4942   21.3445 O   0  0  0  0  0  0  0  0  0  0  0  0
   12.0017  -17.0996   21.3859 C   0  0  2  0  0  0  0  0  0  0  0  0
   10.5659  -17.0324   21.2264 N   0  0  0  0  0  0  0  0  0  0  0  0
   12.6416  -16.9134   20.0612 C   0  0  0  0  0  0  0  0  0  0  0  0
   14.0410  -16.7812   19.9465 O   0  0  0  0  0  0  0  0  0  0  0  0
   12.0208  -16.8602   18.9762 O   0  0  0  0  0  0  0  0  0  0  0  0
  2  1  1  1
  2 13  1  0
  3  4  1  0
  3  2  1  0
  4 12  1  0
  5  4  2  0
  5  6  1  0
  6  7  1  0
  7  8  1  0
  8  9  2  0
 10  9  1  0
 11 10  2  0
 12  7  2  0
 12 11  1  0
 13 20  1  0
 13 14  2  0
 16 17  1  0
 16 15  1  0
 17 18  1  1
 19 17  1  0
 19 21  1  0
 19 20  1  1
 21 22  2  0
 24 23  1  1
 24 26  1  0
 25 24  1  0
 26 28  1  0
 26 27  1  6
 27 21  1  0
 28 29  1  0
 30 28  2  0
M  END
$$$$
