DFF.pdb
     RDKit          3D

 31 32  0  0  1  0  0  0  0  0999 V2000
   12.1903  -16.2295   19.7430 N   0  0  0  0  0  0  0  0  0  0  0  0
   11.3944  -17.1638   20.5171 C   0  0  1  0  0  0  0  0  0  0  0  0
   12.2049  -18.3393   20.9640 C   0  0  0  0  0  0  0  0  0  0  0  0
   12.6302  -19.1528   19.8034 C   0  0  0  0  0  0  0  0  0  0  0  0
   11.7528  -19.6528   19.0654 O   0  0  0  0  0  0  0  0  0  0  0  0
   10.9141  -16.4389   21.7368 C   0  0  0  0  0  0  0  0  0  0  0  0
   11.7335  -15.7416   22.3833 O   0  0  0  0  0  0  0  0  0  0  0  0
   13.9694  -19.3681   19.5228 O   0  0  0  0  0  0  0  0  0  0  0  0
    9.5843  -16.5157   22.1749 N   0  0  0  0  0  0  0  0  0  0  0  0
    9.1132  -15.8382   23.4023 C   0  0  1  0  0  0  0  0  0  0  0  0
    7.8143  -15.1650   23.1010 C   0  0  0  0  0  0  0  0  0  0  0  0
    7.2471  -14.2977   24.1276 C   0  0  0  0  0  0  0  0  0  0  0  0
    6.4329  -14.7997   25.1364 C   0  0  0  0  0  0  0  0  0  0  0  0
    5.9232  -14.0011   26.1340 C   0  0  0  0  0  0  0  0  0  0  0  0
    6.2088  -12.6669   26.1612 C   0  0  0  0  0  0  0  0  0  0  0  0
    7.0029  -12.1382   25.1901 C   0  0  0  0  0  0  0  0  0  0  0  0
    7.5213  -12.9511   24.1751 C   0  0  0  0  0  0  0  0  0  0  0  0
    9.0066  -16.9127   24.4074 C   0  0  0  0  0  0  0  0  0  0  0  0
    8.8114  -18.1321   24.0551 O   0  0  0  0  0  0  0  0  0  0  0  0
    9.1176  -16.6745   25.7882 N   0  0  0  0  0  0  0  0  0  0  0  0
    9.0756  -17.8115   26.7081 C   0  0  1  0  0  0  0  0  0  0  0  0
    9.2797  -17.1979   28.1004 C   0  0  0  0  0  0  0  0  0  0  0  0
    9.9623  -15.9037   28.0609 C   0  0  0  0  0  0  0  0  0  0  0  0
    9.1628  -14.7608   28.0162 C   0  0  0  0  0  0  0  0  0  0  0  0
    9.7715  -13.5249   27.9854 C   0  0  0  0  0  0  0  0  0  0  0  0
   11.1480  -13.3793   27.9974 C   0  0  0  0  0  0  0  0  0  0  0  0
   11.9209  -14.5108   28.0415 C   0  0  0  0  0  0  0  0  0  0  0  0
   11.3337  -15.7492   28.0726 C   0  0  0  0  0  0  0  0  0  0  0  0
    7.8184  -18.5676   26.6470 C   0  0  0  0  0  0  0  0  0  0  0  0
    7.6768  -19.7510   27.3452 O   0  0  0  0  0  0  0  0  0  0  0  0
    6.8454  -18.1770   25.9724 O   0  0  0  0  0  0  0  0  0  0  0  0
  2  1  1  6
  2  3  1  0
  3  4  1  0
  4  8  1  0
  5  4  2  0
  6  2  1  0
  6  7  2  0
  9  6  1  0
 10  9  1  0
 10 11  1  6
 12 11  1  0
 12 17  1  0
 13 12  2  0
 14 13  1  0
 14 15  2  0
 15 16  1  0
 16 17  2  0
 18 10  1  0
 19 18  2  0
 20 18  1  0
 21 20  1  0
 21 22  1  1
 22 23  1  0
 23 24  2  0
 24 25  1  0
 26 25  2  0
 27 26  1  0
 28 27  2  0
 28 23  1  0
 29 30  1  0
 29 21  1  0
 31 29  2  0
M  END
$$$$
