DFF.pdb
     RDKit          3D

 31 32  0  0  1  0  0  0  0  0999 V2000
    9.8021  -17.8478   19.2585 N   0  0  0  0  0  0  0  0  0  0  0  0
   10.9199  -17.7902   20.1819 C   0  0  1  0  0  0  0  0  0  0  0  0
   12.1230  -17.1622   19.5519 C   0  0  0  0  0  0  0  0  0  0  0  0
   12.8709  -18.1549   18.7489 C   0  0  0  0  0  0  0  0  0  0  0  0
   12.7990  -19.3626   19.0666 O   0  0  0  0  0  0  0  0  0  0  0  0
   10.5009  -16.9357   21.3387 C   0  0  0  0  0  0  0  0  0  0  0  0
   11.0184  -15.7992   21.4651 O   0  0  0  0  0  0  0  0  0  0  0  0
   13.6414  -17.7741   17.6627 O   0  0  0  0  0  0  0  0  0  0  0  0
    9.5533  -17.3654   22.2788 N   0  0  0  0  0  0  0  0  0  0  0  0
    9.1495  -16.5352   23.4342 C   0  0  1  0  0  0  0  0  0  0  0  0
    7.6581  -16.4550   23.4596 C   0  0  0  0  0  0  0  0  0  0  0  0
    7.0474  -15.4888   24.3659 C   0  0  0  0  0  0  0  0  0  0  0  0
    6.5117  -15.8757   25.5891 C   0  0  0  0  0  0  0  0  0  0  0  0
    5.9684  -14.9708   26.4716 C   0  0  0  0  0  0  0  0  0  0  0  0
    5.9398  -13.6414   26.1642 C   0  0  0  0  0  0  0  0  0  0  0  0
    6.4549  -13.2239   24.9753 C   0  0  0  0  0  0  0  0  0  0  0  0
    7.0076  -14.1449   24.0774 C   0  0  0  0  0  0  0  0  0  0  0  0
    9.7280  -17.2170   24.6076 C   0  0  0  0  0  0  0  0  0  0  0  0
   10.1152  -18.4394   24.5388 O   0  0  0  0  0  0  0  0  0  0  0  0
    9.8954  -16.5804   25.8495 N   0  0  0  0  0  0  0  0  0  0  0  0
   10.4625  -17.3408   26.9635 C   0  0  1  0  0  0  0  0  0  0  0  0
   10.5416  -16.3380   28.1233 C   0  0  0  0  0  0  0  0  0  0  0  0
   10.6562  -14.9500   27.6729 C   0  0  0  0  0  0  0  0  0  0  0  0
   10.1837  -13.9580   28.5332 C   0  0  0  0  0  0  0  0  0  0  0  0
   10.2821  -12.6395   28.1447 C   0  0  0  0  0  0  0  0  0  0  0  0
   10.8334  -12.2666   26.9310 C   0  0  0  0  0  0  0  0  0  0  0  0
   11.2935  -13.2518   26.0960 C   0  0  0  0  0  0  0  0  0  0  0  0
   11.2043  -14.5691   26.4648 C   0  0  0  0  0  0  0  0  0  0  0  0
    9.6633  -18.5142   27.3381 C   0  0  0  0  0  0  0  0  0  0  0  0
    8.4243  -18.7304   26.7671 O   0  0  0  0  0  0  0  0  0  0  0  0
   10.0657  -19.3474   28.1735 O   0  0  0  0  0  0  0  0  0  0  0  0
  2  1  1  6
  2  3  1  0
  3  4  1  0
  4  8  1  0
  5  4  2  0
  6  2  1  0
  6  7  2  0
  9  6  1  0
 10  9  1  0
 10 11  1  1
 12 11  1  0
 12 17  1  0
 13 12  2  0
 14 13  1  0
 14 15  2  0
 15 16  1  0
 16 17  2  0
 18 10  1  0
 19 18  2  0
 20 18  1  0
 21 20  1  0
 21 22  1  1
 22 23  1  0
 23 24  2  0
 24 25  1  0
 26 25  2  0
 27 26  1  0
 28 27  2  0
 28 23  1  0
 29 30  1  0
 29 21  1  0
 31 29  2  0
M  END
$$$$
