DFF.pdb
     RDKit          3D

 31 32  0  0  1  0  0  0  0  0999 V2000
    8.1946  -18.6413   21.0565 N   0  0  0  0  0  0  0  0  0  0  0  0
    9.5427  -18.3224   20.6246 C   0  0  1  0  0  0  0  0  0  0  0  0
    9.6028  -18.0645   19.1521 C   0  0  0  0  0  0  0  0  0  0  0  0
    9.2762  -19.2917   18.3926 C   0  0  0  0  0  0  0  0  0  0  0  0
    8.0788  -19.5294   18.1196 O   0  0  0  0  0  0  0  0  0  0  0  0
    9.9550  -17.0691   21.3339 C   0  0  0  0  0  0  0  0  0  0  0  0
   11.0966  -16.5986   21.1085 O   0  0  0  0  0  0  0  0  0  0  0  0
   10.2631  -20.1730   17.9827 O   0  0  0  0  0  0  0  0  0  0  0  0
    9.1083  -16.4099   22.2366 N   0  0  0  0  0  0  0  0  0  0  0  0
    9.4746  -15.1274   22.8757 C   0  0  1  0  0  0  0  0  0  0  0  0
    8.3116  -14.1965   22.7665 C   0  0  0  0  0  0  0  0  0  0  0  0
    7.8990  -13.7825   21.4300 C   0  0  0  0  0  0  0  0  0  0  0  0
    8.5115  -12.7198   20.7755 C   0  0  0  0  0  0  0  0  0  0  0  0
    8.1605  -12.3430   19.4997 C   0  0  0  0  0  0  0  0  0  0  0  0
    7.1814  -13.0158   18.8280 C   0  0  0  0  0  0  0  0  0  0  0  0
    6.5582  -14.0623   19.4360 C   0  0  0  0  0  0  0  0  0  0  0  0
    6.9155  -14.4455   20.7343 C   0  0  0  0  0  0  0  0  0  0  0  0
    9.8213  -15.4850   24.2643 C   0  0  0  0  0  0  0  0  0  0  0  0
   10.7904  -14.9047   24.8753 O   0  0  0  0  0  0  0  0  0  0  0  0
    9.1206  -16.4602   24.9948 N   0  0  0  0  0  0  0  0  0  0  0  0
    9.3886  -16.6002   26.4264 C   0  0  1  0  0  0  0  0  0  0  0  0
    8.0621  -16.2418   27.1111 C   0  0  0  0  0  0  0  0  0  0  0  0
    7.7471  -14.8143   27.0365 C   0  0  0  0  0  0  0  0  0  0  0  0
    6.5507  -14.4557   26.4141 C   0  0  0  0  0  0  0  0  0  0  0  0
    6.2183  -13.1208   26.3323 C   0  0  0  0  0  0  0  0  0  0  0  0
    7.0307  -12.1249   26.8464 C   0  0  0  0  0  0  0  0  0  0  0  0
    8.2030  -12.4919   27.4551 C   0  0  0  0  0  0  0  0  0  0  0  0
    8.5508  -13.8148   27.5462 C   0  0  0  0  0  0  0  0  0  0  0  0
    9.8301  -17.9469   26.8101 C   0  0  0  0  0  0  0  0  0  0  0  0
   10.3270  -18.1881   28.0762 O   0  0  0  0  0  0  0  0  0  0  0  0
    9.7752  -18.9097   26.0200 O   0  0  0  0  0  0  0  0  0  0  0  0
  2  1  1  1
  2  3  1  0
  3  4  1  0
  4  8  1  0
  5  4  2  0
  6  2  1  0
  6  7  2  0
  9  6  1  0
 10  9  1  0
 10 11  1  1
 12 11  1  0
 12 17  1  0
 13 12  2  0
 14 13  1  0
 14 15  2  0
 15 16  1  0
 16 17  2  0
 18 10  1  0
 19 18  2  0
 20 18  1  0
 21 20  1  0
 21 22  1  1
 22 23  1  0
 23 24  2  0
 24 25  1  0
 26 25  2  0
 27 26  1  0
 28 27  2  0
 28 23  1  0
 29 30  1  0
 29 21  1  0
 31 29  2  0
M  END
$$$$
