DFF.pdb
     RDKit          3D

 31 32  0  0  1  0  0  0  0  0999 V2000
   10.5071  -16.9147   18.4099 N   0  0  0  0  0  0  0  0  0  0  0  0
   10.0248  -17.7033   19.5285 C   0  0  1  0  0  0  0  0  0  0  0  0
   10.9420  -18.8453   19.8334 C   0  0  0  0  0  0  0  0  0  0  0  0
   10.9325  -19.8322   18.7308 C   0  0  0  0  0  0  0  0  0  0  0  0
    9.8571  -20.4028   18.4434 O   0  0  0  0  0  0  0  0  0  0  0  0
    9.9868  -16.8043   20.7261 C   0  0  0  0  0  0  0  0  0  0  0  0
   11.0110  -16.1361   21.0089 O   0  0  0  0  0  0  0  0  0  0  0  0
   12.0820  -20.1322   18.0186 O   0  0  0  0  0  0  0  0  0  0  0  0
    8.8478  -16.6880   21.5358 N   0  0  0  0  0  0  0  0  0  0  0  0
    8.8012  -15.7978   22.7159 C   0  0  1  0  0  0  0  0  0  0  0  0
    7.4019  -15.3007   22.8772 C   0  0  0  0  0  0  0  0  0  0  0  0
    7.0787  -14.5726   24.0992 C   0  0  0  0  0  0  0  0  0  0  0  0
    6.2538  -15.1191   25.0758 C   0  0  0  0  0  0  0  0  0  0  0  0
    5.9721  -14.4612   26.2509 C   0  0  0  0  0  0  0  0  0  0  0  0
    6.5055  -13.2291   26.4950 C   0  0  0  0  0  0  0  0  0  0  0  0
    7.3182  -12.6610   25.5623 C   0  0  0  0  0  0  0  0  0  0  0  0
    7.6047  -13.3305   24.3666 C   0  0  0  0  0  0  0  0  0  0  0  0
    9.2673  -16.6354   23.8373 C   0  0  0  0  0  0  0  0  0  0  0  0
    8.8089  -17.8221   24.0126 O   0  0  0  0  0  0  0  0  0  0  0  0
   10.2304  -16.1977   24.7627 N   0  0  0  0  0  0  0  0  0  0  0  0
   10.6883  -17.1238   25.7988 C   0  0  1  0  0  0  0  0  0  0  0  0
   11.7284  -16.3306   26.6026 C   0  0  0  0  0  0  0  0  0  0  0  0
   11.1365  -15.2557   27.4006 C   0  0  0  0  0  0  0  0  0  0  0  0
   10.9191  -15.5111   28.7553 C   0  0  0  0  0  0  0  0  0  0  0  0
   10.3700  -14.5193   29.5387 C   0  0  0  0  0  0  0  0  0  0  0  0
   10.0273  -13.2795   29.0274 C   0  0  0  0  0  0  0  0  0  0  0  0
   10.2465  -13.0426   27.6949 C   0  0  0  0  0  0  0  0  0  0  0  0
   10.7918  -14.0169   26.8995 C   0  0  0  0  0  0  0  0  0  0  0  0
    9.6097  -17.6075   26.6696 C   0  0  0  0  0  0  0  0  0  0  0  0
    8.3296  -17.1031   26.5472 O   0  0  0  0  0  0  0  0  0  0  0  0
    9.8047  -18.4782   27.5403 O   0  0  0  0  0  0  0  0  0  0  0  0
  2  1  1  6
  2  3  1  0
  3  4  1  0
  4  8  1  0
  5  4  2  0
  6  2  1  0
  6  7  2  0
  9  6  1  0
 10  9  1  0
 10 11  1  1
 12 11  1  0
 12 17  1  0
 13 12  2  0
 14 13  1  0
 14 15  2  0
 15 16  1  0
 16 17  2  0
 18 10  1  0
 19 18  2  0
 20 18  1  0
 21 20  1  0
 21 22  1  1
 22 23  1  0
 23 24  2  0
 24 25  1  0
 26 25  2  0
 27 26  1  0
 28 27  2  0
 28 23  1  0
 29 30  1  0
 29 21  1  0
 31 29  2  0
M  END
$$$$
