DFF.pdb
     RDKit          3D

 31 32  0  0  1  0  0  0  0  0999 V2000
   10.5929  -16.8229   18.4547 N   0  0  0  0  0  0  0  0  0  0  0  0
   10.0432  -17.6498   19.5127 C   0  0  1  0  0  0  0  0  0  0  0  0
   10.9127  -18.8346   19.7939 C   0  0  0  0  0  0  0  0  0  0  0  0
   10.9025  -19.7737   18.6505 C   0  0  0  0  0  0  0  0  0  0  0  0
   11.9950  -20.1595   18.1791 O   0  0  0  0  0  0  0  0  0  0  0  0
    9.9852  -16.8105   20.7521 C   0  0  0  0  0  0  0  0  0  0  0  0
   11.0469  -16.2945   21.1789 O   0  0  0  0  0  0  0  0  0  0  0  0
    9.7163  -20.2285   18.0984 O   0  0  0  0  0  0  0  0  0  0  0  0
    8.7872  -16.5855   21.4453 N   0  0  0  0  0  0  0  0  0  0  0  0
    8.7057  -15.6869   22.6171 C   0  0  1  0  0  0  0  0  0  0  0  0
    7.3027  -15.1874   22.7322 C   0  0  0  0  0  0  0  0  0  0  0  0
    6.9577  -14.4040   23.9134 C   0  0  0  0  0  0  0  0  0  0  0  0
    6.1788  -14.9333   24.9361 C   0  0  0  0  0  0  0  0  0  0  0  0
    5.8784  -14.2206   26.0740 C   0  0  0  0  0  0  0  0  0  0  0  0
    6.3463  -12.9485   26.2331 C   0  0  0  0  0  0  0  0  0  0  0  0
    7.1125  -12.3956   25.2531 C   0  0  0  0  0  0  0  0  0  0  0  0
    7.4180  -13.1211   24.0953 C   0  0  0  0  0  0  0  0  0  0  0  0
    9.1365  -16.5169   23.7580 C   0  0  0  0  0  0  0  0  0  0  0  0
    8.6622  -17.6971   23.9348 O   0  0  0  0  0  0  0  0  0  0  0  0
   10.0817  -16.0787   24.7016 N   0  0  0  0  0  0  0  0  0  0  0  0
   10.5736  -17.0257   25.7026 C   0  0  1  0  0  0  0  0  0  0  0  0
   11.6140  -16.2375   26.5109 C   0  0  0  0  0  0  0  0  0  0  0  0
   11.0110  -15.3103   27.4697 C   0  0  0  0  0  0  0  0  0  0  0  0
   10.8405  -15.7654   28.7778 C   0  0  0  0  0  0  0  0  0  0  0  0
   10.2825  -14.9167   29.7091 C   0  0  0  0  0  0  0  0  0  0  0  0
    9.8860  -13.6292   29.3908 C   0  0  0  0  0  0  0  0  0  0  0  0
   10.0595  -13.1956   28.1018 C   0  0  0  0  0  0  0  0  0  0  0  0
   10.6129  -14.0254   27.1612 C   0  0  0  0  0  0  0  0  0  0  0  0
    9.5190  -17.5529   26.5775 C   0  0  0  0  0  0  0  0  0  0  0  0
    8.2259  -17.0766   26.4832 O   0  0  0  0  0  0  0  0  0  0  0  0
    9.7466  -18.4367   27.4269 O   0  0  0  0  0  0  0  0  0  0  0  0
  2  1  1  6
  2  3  1  0
  3  4  1  0
  4  8  1  0
  5  4  2  0
  6  2  1  0
  6  7  2  0
  9  6  1  0
 10  9  1  0
 10 11  1  1
 12 11  1  0
 12 17  1  0
 13 12  2  0
 14 13  1  0
 14 15  2  0
 15 16  1  0
 16 17  2  0
 18 10  1  0
 19 18  2  0
 20 18  1  0
 21 20  1  0
 21 22  1  1
 22 23  1  0
 23 24  2  0
 24 25  1  0
 26 25  2  0
 27 26  1  0
 28 27  2  0
 28 23  1  0
 29 30  1  0
 29 21  1  0
 31 29  2  0
M  END
$$$$
