DFF.pdb
     RDKit          3D

 31 32  0  0  1  0  0  0  0  0999 V2000
    9.1387  -17.6142   18.8652 N   0  0  0  0  0  0  0  0  0  0  0  0
   10.4473  -17.6157   19.4923 C   0  0  1  0  0  0  0  0  0  0  0  0
   11.4914  -17.0387   18.5893 C   0  0  0  0  0  0  0  0  0  0  0  0
   11.4788  -17.7177   17.2746 C   0  0  0  0  0  0  0  0  0  0  0  0
   11.4435  -18.9677   17.2434 O   0  0  0  0  0  0  0  0  0  0  0  0
   10.3592  -16.7524   20.7132 C   0  0  0  0  0  0  0  0  0  0  0  0
   11.3911  -16.1516   21.1003 O   0  0  0  0  0  0  0  0  0  0  0  0
   11.5050  -17.0006   16.0898 O   0  0  0  0  0  0  0  0  0  0  0  0
    9.1654  -16.5964   21.4321 N   0  0  0  0  0  0  0  0  0  0  0  0
    9.0786  -15.7708   22.6561 C   0  0  1  0  0  0  0  0  0  0  0  0
    7.6713  -15.2925   22.8041 C   0  0  0  0  0  0  0  0  0  0  0  0
    7.3193  -14.5953   24.0361 C   0  0  0  0  0  0  0  0  0  0  0  0
    6.6412  -15.2360   25.0669 C   0  0  0  0  0  0  0  0  0  0  0  0
    6.3374  -14.6033   26.2503 C   0  0  0  0  0  0  0  0  0  0  0  0
    6.7009  -13.3030   26.4487 C   0  0  0  0  0  0  0  0  0  0  0  0
    7.3663  -12.6418   25.4622 C   0  0  0  0  0  0  0  0  0  0  0  0
    7.6752  -13.2858   24.2581 C   0  0  0  0  0  0  0  0  0  0  0  0
    9.5203  -16.6639   23.7440 C   0  0  0  0  0  0  0  0  0  0  0  0
    9.2798  -17.9247   23.7046 O   0  0  0  0  0  0  0  0  0  0  0  0
   10.2258  -16.2001   24.8678 N   0  0  0  0  0  0  0  0  0  0  0  0
   10.7665  -17.1749   25.8156 C   0  0  1  0  0  0  0  0  0  0  0  0
   11.8004  -16.3919   26.6371 C   0  0  0  0  0  0  0  0  0  0  0  0
   11.1986  -15.3510   27.4719 C   0  0  0  0  0  0  0  0  0  0  0  0
   11.0172  -15.6423   28.8245 C   0  0  0  0  0  0  0  0  0  0  0  0
   10.4600  -14.6830   29.6419 C   0  0  0  0  0  0  0  0  0  0  0  0
   10.0745  -13.4414   29.1666 C   0  0  0  0  0  0  0  0  0  0  0  0
   10.2586  -13.1691   27.8356 C   0  0  0  0  0  0  0  0  0  0  0  0
   10.8115  -14.1107   27.0066 C   0  0  0  0  0  0  0  0  0  0  0  0
    9.7467  -17.7716   26.6872 C   0  0  0  0  0  0  0  0  0  0  0  0
    8.4246  -17.3844   26.5872 O   0  0  0  0  0  0  0  0  0  0  0  0
   10.0305  -18.6369   27.5386 O   0  0  0  0  0  0  0  0  0  0  0  0
  2  1  1  6
  2  3  1  0
  3  4  1  0
  4  8  1  0
  5  4  2  0
  6  2  1  0
  6  7  2  0
  9  6  1  0
 10  9  1  0
 10 11  1  1
 12 11  1  0
 12 17  1  0
 13 12  2  0
 14 13  1  0
 14 15  2  0
 15 16  1  0
 16 17  2  0
 18 10  1  0
 19 18  2  0
 20 18  1  0
 21 20  1  0
 21 22  1  1
 22 23  1  0
 23 24  2  0
 24 25  1  0
 26 25  2  0
 27 26  1  0
 28 27  2  0
 28 23  1  0
 29 30  1  0
 29 21  1  0
 31 29  2  0
M  END
$$$$
