DFF.pdb
     RDKit          3D

 31 32  0  0  1  0  0  0  0  0999 V2000
   10.5775  -16.8258   18.4343 N   0  0  0  0  0  0  0  0  0  0  0  0
   10.4468  -17.6980   19.5866 C   0  0  1  0  0  0  0  0  0  0  0  0
   11.6755  -18.5265   19.7924 C   0  0  0  0  0  0  0  0  0  0  0  0
   11.9074  -19.4151   18.6321 C   0  0  0  0  0  0  0  0  0  0  0  0
   13.0627  -19.4988   18.1598 O   0  0  0  0  0  0  0  0  0  0  0  0
   10.2671  -16.8250   20.7905 C   0  0  0  0  0  0  0  0  0  0  0  0
   11.2211  -16.0927   21.1498 O   0  0  0  0  0  0  0  0  0  0  0  0
   10.8780  -20.1485   18.0655 O   0  0  0  0  0  0  0  0  0  0  0  0
    9.0718  -16.8017   21.5233 N   0  0  0  0  0  0  0  0  0  0  0  0
    8.8783  -15.9233   22.6974 C   0  0  1  0  0  0  0  0  0  0  0  0
    7.4456  -15.5033   22.7417 C   0  0  0  0  0  0  0  0  0  0  0  0
    7.0259  -14.6432   23.8426 C   0  0  0  0  0  0  0  0  0  0  0  0
    6.2639  -15.1312   24.8980 C   0  0  0  0  0  0  0  0  0  0  0  0
    5.8942  -14.3422   25.9628 C   0  0  0  0  0  0  0  0  0  0  0  0
    6.2732  -13.0322   26.0132 C   0  0  0  0  0  0  0  0  0  0  0  0
    7.0202  -12.5178   24.9979 C   0  0  0  0  0  0  0  0  0  0  0  0
    7.3961  -13.3208   23.9145 C   0  0  0  0  0  0  0  0  0  0  0  0
    9.2935  -16.7423   23.8521 C   0  0  0  0  0  0  0  0  0  0  0  0
    8.9474  -17.9752   23.9481 O   0  0  0  0  0  0  0  0  0  0  0  0
   10.0857  -16.2355   24.8967 N   0  0  0  0  0  0  0  0  0  0  0  0
   10.6322  -17.1654   25.8853 C   0  0  1  0  0  0  0  0  0  0  0  0
   11.7465  -16.3789   26.5901 C   0  0  0  0  0  0  0  0  0  0  0  0
   11.2360  -15.3983   27.5495 C   0  0  0  0  0  0  0  0  0  0  0  0
   10.9587  -14.1181   27.0683 C   0  0  0  0  0  0  0  0  0  0  0  0
   10.4697  -13.1713   27.9421 C   0  0  0  0  0  0  0  0  0  0  0  0
   10.2447  -13.4473   29.2797 C   0  0  0  0  0  0  0  0  0  0  0  0
   10.5216  -14.7093   29.7385 C   0  0  0  0  0  0  0  0  0  0  0  0
   11.0086  -15.6647   28.8845 C   0  0  0  0  0  0  0  0  0  0  0  0
    9.6360  -17.6442   26.8518 C   0  0  0  0  0  0  0  0  0  0  0  0
    8.3510  -17.1377   26.8440 O   0  0  0  0  0  0  0  0  0  0  0  0
    9.9075  -18.5125   27.7041 O   0  0  0  0  0  0  0  0  0  0  0  0
  2  1  1  6
  2  3  1  0
  3  4  1  0
  4  8  1  0
  5  4  2  0
  6  2  1  0
  6  7  2  0
  9  6  1  0
 10  9  1  0
 10 11  1  1
 12 11  1  0
 12 17  1  0
 13 12  2  0
 14 13  1  0
 14 15  2  0
 15 16  1  0
 16 17  2  0
 18 10  1  0
 19 18  2  0
 20 18  1  0
 21 20  1  0
 21 22  1  1
 22 23  1  0
 23 24  2  0
 24 25  1  0
 26 25  2  0
 27 26  1  0
 28 27  2  0
 28 23  1  0
 29 30  1  0
 29 21  1  0
 31 29  2  0
M  END
$$$$
