DFF.pdb
     RDKit          3D

 31 32  0  0  1  0  0  0  0  0999 V2000
   12.2613  -16.4264   19.8585 N   0  0  0  0  0  0  0  0  0  0  0  0
   11.1011  -17.1194   20.3870 C   0  0  1  0  0  0  0  0  0  0  0  0
   11.4127  -18.5462   20.7125 C   0  0  0  0  0  0  0  0  0  0  0  0
   11.6652  -19.3211   19.4774 C   0  0  0  0  0  0  0  0  0  0  0  0
   10.7997  -19.3123   18.5743 O   0  0  0  0  0  0  0  0  0  0  0  0
   10.7068  -16.4280   21.6560 C   0  0  0  0  0  0  0  0  0  0  0  0
   11.6092  -15.9483   22.3847 O   0  0  0  0  0  0  0  0  0  0  0  0
   12.8312  -20.0487   19.3055 O   0  0  0  0  0  0  0  0  0  0  0  0
    9.3674  -16.3017   22.0515 N   0  0  0  0  0  0  0  0  0  0  0  0
    8.9709  -15.6228   23.3042 C   0  0  1  0  0  0  0  0  0  0  0  0
    7.6861  -14.9001   23.0632 C   0  0  0  0  0  0  0  0  0  0  0  0
    7.1519  -14.0881   24.1509 C   0  0  0  0  0  0  0  0  0  0  0  0
    7.4952  -12.7487   24.2960 C   0  0  0  0  0  0  0  0  0  0  0  0
    6.9688  -11.9599   25.2928 C   0  0  0  0  0  0  0  0  0  0  0  0
    6.0771  -12.4812   26.1847 C   0  0  0  0  0  0  0  0  0  0  0  0
    5.7163  -13.7893   26.0750 C   0  0  0  0  0  0  0  0  0  0  0  0
    6.2521  -14.5918   25.0607 C   0  0  0  0  0  0  0  0  0  0  0  0
    8.8661  -16.7050   24.3013 C   0  0  0  0  0  0  0  0  0  0  0  0
    8.7887  -17.9344   23.9385 O   0  0  0  0  0  0  0  0  0  0  0  0
    8.8523  -16.4630   25.6858 N   0  0  0  0  0  0  0  0  0  0  0  0
    8.7732  -17.6008   26.6022 C   0  0  1  0  0  0  0  0  0  0  0  0
    8.7502  -16.9752   28.0040 C   0  0  0  0  0  0  0  0  0  0  0  0
    9.6753  -15.8494   28.1433 C   0  0  0  0  0  0  0  0  0  0  0  0
    9.1917  -14.5812   27.8188 C   0  0  0  0  0  0  0  0  0  0  0  0
   10.0329  -13.4970   27.9450 C   0  0  0  0  0  0  0  0  0  0  0  0
   11.3401  -13.6237   28.3825 C   0  0  0  0  0  0  0  0  0  0  0  0
   11.8015  -14.8756   28.6978 C   0  0  0  0  0  0  0  0  0  0  0  0
   10.9797  -15.9664   28.5786 C   0  0  0  0  0  0  0  0  0  0  0  0
    7.5922  -18.4459   26.3854 C   0  0  0  0  0  0  0  0  0  0  0  0
    7.4720  -19.6621   27.0293 O   0  0  0  0  0  0  0  0  0  0  0  0
    6.6670  -18.1041   25.6229 O   0  0  0  0  0  0  0  0  0  0  0  0
  2  1  1  1
  2  3  1  0
  3  4  1  0
  4  8  1  0
  5  4  2  0
  6  2  1  0
  6  7  2  0
  9  6  1  0
 10  9  1  0
 10 11  1  6
 12 11  1  0
 12 17  1  0
 13 12  2  0
 14 13  1  0
 14 15  2  0
 15 16  1  0
 16 17  2  0
 18 10  1  0
 19 18  2  0
 20 18  1  0
 21 20  1  0
 21 22  1  1
 22 23  1  0
 23 24  2  0
 24 25  1  0
 26 25  2  0
 27 26  1  0
 28 27  2  0
 28 23  1  0
 29 30  1  0
 29 21  1  0
 31 29  2  0
M  END
$$$$
