DFF.pdb
     RDKit          3D

 31 32  0  0  1  0  0  0  0  0999 V2000
   10.2486  -16.8962   18.4465 N   0  0  0  0  0  0  0  0  0  0  0  0
    9.6269  -17.6063   19.5487 C   0  0  1  0  0  0  0  0  0  0  0  0
   10.3565  -18.8725   19.8697 C   0  0  0  0  0  0  0  0  0  0  0  0
   10.1963  -19.8591   18.7787 C   0  0  0  0  0  0  0  0  0  0  0  0
   11.2215  -20.3361   18.2436 O   0  0  0  0  0  0  0  0  0  0  0  0
    9.6930  -16.7137   20.7499 C   0  0  0  0  0  0  0  0  0  0  0  0
   10.7630  -16.1012   20.9855 O   0  0  0  0  0  0  0  0  0  0  0  0
    8.9438  -20.2599   18.3438 O   0  0  0  0  0  0  0  0  0  0  0  0
    8.6015  -16.5432   21.6136 N   0  0  0  0  0  0  0  0  0  0  0  0
    8.6191  -15.5763   22.7326 C   0  0  1  0  0  0  0  0  0  0  0  0
    7.2154  -15.1446   23.0055 C   0  0  0  0  0  0  0  0  0  0  0  0
    6.9862  -14.2725   24.1521 C   0  0  0  0  0  0  0  0  0  0  0  0
    6.4663  -14.7604   25.3455 C   0  0  0  0  0  0  0  0  0  0  0  0
    6.2817  -13.9584   26.4481 C   0  0  0  0  0  0  0  0  0  0  0  0
    6.6107  -12.6348   26.3994 C   0  0  0  0  0  0  0  0  0  0  0  0
    7.1226  -12.1200   25.2478 C   0  0  0  0  0  0  0  0  0  0  0  0
    7.3102  -12.9363   24.1260 C   0  0  0  0  0  0  0  0  0  0  0  0
    9.2442  -16.3072   23.8512 C   0  0  0  0  0  0  0  0  0  0  0  0
    8.7274  -17.3918   24.3046 O   0  0  0  0  0  0  0  0  0  0  0  0
   10.4273  -15.8740   24.4744 N   0  0  0  0  0  0  0  0  0  0  0  0
   11.0441  -16.7260   25.4914 C   0  0  1  0  0  0  0  0  0  0  0  0
   10.0755  -16.6808   26.6816 C   0  0  0  0  0  0  0  0  0  0  0  0
   10.2954  -15.5269   27.5548 C   0  0  0  0  0  0  0  0  0  0  0  0
   10.2569  -14.2627   26.9650 C   0  0  0  0  0  0  0  0  0  0  0  0
   10.4526  -13.1531   27.7583 C   0  0  0  0  0  0  0  0  0  0  0  0
   10.6858  -13.2504   29.1193 C   0  0  0  0  0  0  0  0  0  0  0  0
   10.7209  -14.4986   29.6852 C   0  0  0  0  0  0  0  0  0  0  0  0
   10.5285  -15.6144   28.9123 C   0  0  0  0  0  0  0  0  0  0  0  0
   11.2617  -18.1075   25.0441 C   0  0  0  0  0  0  0  0  0  0  0  0
   12.1570  -18.9260   25.7047 O   0  0  0  0  0  0  0  0  0  0  0  0
   10.6567  -18.5874   24.0654 O   0  0  0  0  0  0  0  0  0  0  0  0
  2  1  1  6
  2  3  1  0
  3  4  1  0
  4  8  1  0
  5  4  2  0
  6  2  1  0
  6  7  2  0
  9  6  1  0
 10  9  1  0
 10 11  1  1
 12 11  1  0
 12 17  1  0
 13 12  2  0
 14 13  1  0
 14 15  2  0
 15 16  1  0
 16 17  2  0
 18 10  1  0
 19 18  2  0
 20 18  1  0
 21 20  1  0
 21 22  1  1
 22 23  1  0
 23 24  2  0
 24 25  1  0
 26 25  2  0
 27 26  1  0
 28 27  2  0
 28 23  1  0
 29 30  1  0
 29 21  1  0
 31 29  2  0
M  END
$$$$
