DFF.pdb
     RDKit          3D

 31 32  0  0  1  0  0  0  0  0999 V2000
   10.2429  -17.1268   18.5480 N   0  0  0  0  0  0  0  0  0  0  0  0
   10.4060  -17.9659   19.7206 C   0  0  1  0  0  0  0  0  0  0  0  0
   11.7191  -18.6829   19.7065 C   0  0  0  0  0  0  0  0  0  0  0  0
   11.7543  -19.6880   18.6211 C   0  0  0  0  0  0  0  0  0  0  0  0
   10.9427  -20.6393   18.6555 O   0  0  0  0  0  0  0  0  0  0  0  0
   10.3784  -17.0687   20.9199 C   0  0  0  0  0  0  0  0  0  0  0  0
   11.3650  -16.3234   21.1358 O   0  0  0  0  0  0  0  0  0  0  0  0
   12.6610  -19.5950   17.5782 O   0  0  0  0  0  0  0  0  0  0  0  0
    9.2897  -17.0372   21.8030 N   0  0  0  0  0  0  0  0  0  0  0  0
    9.2002  -16.0689   22.9174 C   0  0  1  0  0  0  0  0  0  0  0  0
    7.7653  -15.7005   23.1086 C   0  0  0  0  0  0  0  0  0  0  0  0
    7.4468  -14.7425   24.1614 C   0  0  0  0  0  0  0  0  0  0  0  0
    6.9308  -15.1512   25.3859 C   0  0  0  0  0  0  0  0  0  0  0  0
    6.6628  -14.2637   26.4026 C   0  0  0  0  0  0  0  0  0  0  0  0
    6.9011  -12.9307   26.2334 C   0  0  0  0  0  0  0  0  0  0  0  0
    7.4061  -12.4919   25.0478 C   0  0  0  0  0  0  0  0  0  0  0  0
    7.6786  -13.3952   24.0134 C   0  0  0  0  0  0  0  0  0  0  0  0
    9.7929  -16.7693   24.0725 C   0  0  0  0  0  0  0  0  0  0  0  0
    9.6464  -18.0359   24.2254 O   0  0  0  0  0  0  0  0  0  0  0  0
   10.5478  -16.1074   25.0562 N   0  0  0  0  0  0  0  0  0  0  0  0
   11.2809  -16.9038   26.0406 C   0  0  1  0  0  0  0  0  0  0  0  0
   11.9711  -15.8725   26.9445 C   0  0  0  0  0  0  0  0  0  0  0  0
   11.0412  -15.1844   27.8413 C   0  0  0  0  0  0  0  0  0  0  0  0
   10.2907  -14.1381   27.3032 C   0  0  0  0  0  0  0  0  0  0  0  0
    9.3998  -13.4724   28.1168 C   0  0  0  0  0  0  0  0  0  0  0  0
    9.2245  -13.8064   29.4487 C   0  0  0  0  0  0  0  0  0  0  0  0
    9.9685  -14.8364   29.9638 C   0  0  0  0  0  0  0  0  0  0  0  0
   10.8599  -15.5106   29.1700 C   0  0  0  0  0  0  0  0  0  0  0  0
   10.4219  -17.7986   26.8262 C   0  0  0  0  0  0  0  0  0  0  0  0
    9.0523  -17.7926   26.6467 O   0  0  0  0  0  0  0  0  0  0  0  0
   10.8882  -18.5857   27.6731 O   0  0  0  0  0  0  0  0  0  0  0  0
  2  1  1  6
  2  3  1  0
  3  4  1  0
  4  8  1  0
  5  4  2  0
  6  2  1  0
  6  7  2  0
  9  6  1  0
 10  9  1  0
 10 11  1  1
 12 11  1  0
 12 17  1  0
 13 12  2  0
 14 13  1  0
 14 15  2  0
 15 16  1  0
 16 17  2  0
 18 10  1  0
 19 18  2  0
 20 18  1  0
 21 20  1  0
 21 22  1  1
 22 23  1  0
 23 24  2  0
 24 25  1  0
 26 25  2  0
 27 26  1  0
 28 27  2  0
 28 23  1  0
 29 30  1  0
 29 21  1  0
 31 29  2  0
M  END
$$$$
