DFF.pdb
     RDKit          3D

 31 32  0  0  1  0  0  0  0  0999 V2000
   10.2195  -17.2680   18.3579 N   0  0  0  0  0  0  0  0  0  0  0  0
    9.6970  -17.9630   19.5196 C   0  0  1  0  0  0  0  0  0  0  0  0
   10.5018  -19.1829   19.8398 C   0  0  0  0  0  0  0  0  0  0  0  0
   10.0861  -20.3212   18.9906 C   0  0  0  0  0  0  0  0  0  0  0  0
    9.8194  -20.1081   17.7872 O   0  0  0  0  0  0  0  0  0  0  0  0
    9.7923  -17.0240   20.6829 C   0  0  0  0  0  0  0  0  0  0  0  0
   10.8855  -16.4477   20.9022 O   0  0  0  0  0  0  0  0  0  0  0  0
    9.9882  -21.6057   19.4996 O   0  0  0  0  0  0  0  0  0  0  0  0
    8.7028  -16.7714   21.5288 N   0  0  0  0  0  0  0  0  0  0  0  0
    8.7900  -15.8466   22.6797 C   0  0  1  0  0  0  0  0  0  0  0  0
    7.4289  -15.2902   22.9424 C   0  0  0  0  0  0  0  0  0  0  0  0
    7.2445  -14.4944   24.1508 C   0  0  0  0  0  0  0  0  0  0  0  0
    6.5010  -14.9659   25.2267 C   0  0  0  0  0  0  0  0  0  0  0  0
    6.3513  -14.2438   26.3882 C   0  0  0  0  0  0  0  0  0  0  0  0
    6.9407  -13.0198   26.5187 C   0  0  0  0  0  0  0  0  0  0  0  0
    7.6769  -12.5242   25.4864 C   0  0  0  0  0  0  0  0  0  0  0  0
    7.8289  -13.2592   24.3046 C   0  0  0  0  0  0  0  0  0  0  0  0
    9.3190  -16.6695   23.7839 C   0  0  0  0  0  0  0  0  0  0  0  0
    8.9405  -17.8862   23.9431 O   0  0  0  0  0  0  0  0  0  0  0  0
   10.2589  -16.1843   24.7095 N   0  0  0  0  0  0  0  0  0  0  0  0
   10.8003  -17.1000   25.7141 C   0  0  1  0  0  0  0  0  0  0  0  0
   11.7561  -16.2408   26.5539 C   0  0  0  0  0  0  0  0  0  0  0  0
   11.0596  -15.3738   27.5056 C   0  0  0  0  0  0  0  0  0  0  0  0
   10.5462  -14.1716   27.0173 C   0  0  0  0  0  0  0  0  0  0  0  0
    9.8781  -13.3337   27.8837 C   0  0  0  0  0  0  0  0  0  0  0  0
    9.6994  -13.6445   29.2207 C   0  0  0  0  0  0  0  0  0  0  0  0
   10.2091  -14.8289   29.6865 C   0  0  0  0  0  0  0  0  0  0  0  0
   10.8768  -15.6755   28.8399 C   0  0  0  0  0  0  0  0  0  0  0  0
    9.7703  -17.7175   26.5588 C   0  0  0  0  0  0  0  0  0  0  0  0
   10.0869  -18.7711   27.3940 O   0  0  0  0  0  0  0  0  0  0  0  0
    8.5883  -17.3213   26.5543 O   0  0  0  0  0  0  0  0  0  0  0  0
  2  1  1  6
  2  3  1  0
  3  4  1  0
  4  8  1  0
  5  4  2  0
  6  2  1  0
  6  7  2  0
  9  6  1  0
 10  9  1  0
 10 11  1  1
 12 11  1  0
 12 17  1  0
 13 12  2  0
 14 13  1  0
 14 15  2  0
 15 16  1  0
 16 17  2  0
 18 10  1  0
 19 18  2  0
 20 18  1  0
 21 20  1  0
 21 22  1  1
 22 23  1  0
 23 24  2  0
 24 25  1  0
 26 25  2  0
 27 26  1  0
 28 27  2  0
 28 23  1  0
 29 30  1  0
 29 21  1  0
 31 29  2  0
M  END
$$$$
