DFF.pdb
     RDKit          3D

 31 32  0  0  1  0  0  0  0  0999 V2000
    9.4293  -18.0177   19.1801 N   0  0  0  0  0  0  0  0  0  0  0  0
   10.7264  -17.7896   19.7892 C   0  0  1  0  0  0  0  0  0  0  0  0
   11.6670  -17.1110   18.8440 C   0  0  0  0  0  0  0  0  0  0  0  0
   11.8023  -17.8888   17.5926 C   0  0  0  0  0  0  0  0  0  0  0  0
   11.4202  -19.0799   17.5802 O   0  0  0  0  0  0  0  0  0  0  0  0
   10.5156  -16.8858   20.9650 C   0  0  0  0  0  0  0  0  0  0  0  0
   11.4786  -16.1887   21.3676 O   0  0  0  0  0  0  0  0  0  0  0  0
   12.3393  -17.3269   16.4460 O   0  0  0  0  0  0  0  0  0  0  0  0
    9.2817  -16.7960   21.6252 N   0  0  0  0  0  0  0  0  0  0  0  0
    9.0777  -15.9372   22.8119 C   0  0  1  0  0  0  0  0  0  0  0  0
    7.6440  -15.5200   22.8518 C   0  0  0  0  0  0  0  0  0  0  0  0
    7.2338  -14.6076   23.9134 C   0  0  0  0  0  0  0  0  0  0  0  0
    7.3929  -13.2318   23.7928 C   0  0  0  0  0  0  0  0  0  0  0  0
    6.9748  -12.3562   24.7682 C   0  0  0  0  0  0  0  0  0  0  0  0
    6.3801  -12.8239   25.9041 C   0  0  0  0  0  0  0  0  0  0  0  0
    6.2068  -14.1652   26.0586 C   0  0  0  0  0  0  0  0  0  0  0  0
    6.6325  -15.0560   25.0659 C   0  0  0  0  0  0  0  0  0  0  0  0
    9.4851  -16.7743   23.9562 C   0  0  0  0  0  0  0  0  0  0  0  0
    9.1401  -18.0091   24.0295 O   0  0  0  0  0  0  0  0  0  0  0  0
   10.2686  -16.2836   25.0150 N   0  0  0  0  0  0  0  0  0  0  0  0
   10.8736  -17.2350   25.9475 C   0  0  1  0  0  0  0  0  0  0  0  0
   11.9874  -16.4439   26.6480 C   0  0  0  0  0  0  0  0  0  0  0  0
   11.4757  -15.4442   27.5867 C   0  0  0  0  0  0  0  0  0  0  0  0
   11.1161  -14.2014   27.0635 C   0  0  0  0  0  0  0  0  0  0  0  0
   10.6236  -13.2383   27.9172 C   0  0  0  0  0  0  0  0  0  0  0  0
   10.4737  -13.4621   29.2749 C   0  0  0  0  0  0  0  0  0  0  0  0
   10.8309  -14.6877   29.7750 C   0  0  0  0  0  0  0  0  0  0  0  0
   11.3228  -15.6586   28.9415 C   0  0  0  0  0  0  0  0  0  0  0  0
    9.9237  -17.7813   26.9248 C   0  0  0  0  0  0  0  0  0  0  0  0
    8.6168  -17.3355   26.9576 O   0  0  0  0  0  0  0  0  0  0  0  0
   10.2553  -18.6545   27.7505 O   0  0  0  0  0  0  0  0  0  0  0  0
  2  1  1  6
  2  3  1  0
  3  4  1  0
  4  8  1  0
  5  4  2  0
  6  2  1  0
  6  7  2  0
  9  6  1  0
 10  9  1  0
 10 11  1  1
 12 11  1  0
 12 17  1  0
 13 12  2  0
 14 13  1  0
 14 15  2  0
 15 16  1  0
 16 17  2  0
 18 10  1  0
 19 18  2  0
 20 18  1  0
 21 20  1  0
 21 22  1  1
 22 23  1  0
 23 24  2  0
 24 25  1  0
 26 25  2  0
 27 26  1  0
 28 27  2  0
 28 23  1  0
 29 30  1  0
 29 21  1  0
 31 29  2  0
M  END
$$$$
