DFF.pdb
     RDKit          3D

 31 32  0  0  1  0  0  0  0  0999 V2000
    9.6739  -16.5468   17.9693 N   0  0  0  0  0  0  0  0  0  0  0  0
    9.8632  -17.4768   19.0670 C   0  0  1  0  0  0  0  0  0  0  0  0
   11.1580  -18.2166   18.9449 C   0  0  0  0  0  0  0  0  0  0  0  0
   11.1790  -19.0338   17.7115 C   0  0  0  0  0  0  0  0  0  0  0  0
   10.7996  -20.2242   17.7720 O   0  0  0  0  0  0  0  0  0  0  0  0
    9.9031  -16.6744   20.3312 C   0  0  0  0  0  0  0  0  0  0  0  0
   10.8962  -15.9369   20.5442 O   0  0  0  0  0  0  0  0  0  0  0  0
   11.6071  -18.5090   16.5033 O   0  0  0  0  0  0  0  0  0  0  0  0
    8.8699  -16.7225   21.2781 N   0  0  0  0  0  0  0  0  0  0  0  0
    8.8581  -15.8654   22.4834 C   0  0  1  0  0  0  0  0  0  0  0  0
    7.5029  -15.2507   22.6123 C   0  0  0  0  0  0  0  0  0  0  0  0
    7.2157  -14.4931   23.8253 C   0  0  0  0  0  0  0  0  0  0  0  0
    6.4559  -15.0319   24.8574 C   0  0  0  0  0  0  0  0  0  0  0  0
    6.2100  -14.3449   26.0238 C   0  0  0  0  0  0  0  0  0  0  0  0
    6.7155  -13.0901   26.2033 C   0  0  0  0  0  0  0  0  0  0  0  0
    7.4645  -12.5286   25.2149 C   0  0  0  0  0  0  0  0  0  0  0  0
    7.7145  -13.2279   24.0281 C   0  0  0  0  0  0  0  0  0  0  0  0
    9.2073  -16.7725   23.5932 C   0  0  0  0  0  0  0  0  0  0  0  0
    8.3392  -17.5801   24.0864 O   0  0  0  0  0  0  0  0  0  0  0  0
   10.4907  -16.8140   24.1647 N   0  0  0  0  0  0  0  0  0  0  0  0
   10.6225  -16.6973   25.6172 C   0  0  1  0  0  0  0  0  0  0  0  0
   10.4469  -15.2002   25.9083 C   0  0  0  0  0  0  0  0  0  0  0  0
   10.3991  -14.8973   27.3396 C   0  0  0  0  0  0  0  0  0  0  0  0
    9.5988  -13.8264   27.7397 C   0  0  0  0  0  0  0  0  0  0  0  0
    9.5242  -13.5171   29.0805 C   0  0  0  0  0  0  0  0  0  0  0  0
   10.2159  -14.2325   30.0427 C   0  0  0  0  0  0  0  0  0  0  0  0
   10.9982  -15.2820   29.6352 C   0  0  0  0  0  0  0  0  0  0  0  0
   11.0851  -15.6050   28.3057 C   0  0  0  0  0  0  0  0  0  0  0  0
    9.6390  -17.4952   26.3601 C   0  0  0  0  0  0  0  0  0  0  0  0
   10.0481  -18.3756   27.3426 O   0  0  0  0  0  0  0  0  0  0  0  0
    8.4156  -17.4107   26.1356 O   0  0  0  0  0  0  0  0  0  0  0  0
  2  1  1  6
  2  3  1  0
  3  4  1  0
  4  8  1  0
  5  4  2  0
  6  2  1  0
  6  7  2  0
  9  6  1  0
 10  9  1  0
 10 11  1  1
 12 11  1  0
 12 17  1  0
 13 12  2  0
 14 13  1  0
 14 15  2  0
 15 16  1  0
 16 17  2  0
 18 10  1  0
 19 18  2  0
 20 18  1  0
 21 20  1  0
 21 22  1  6
 22 23  1  0
 23 24  2  0
 24 25  1  0
 26 25  2  0
 27 26  1  0
 28 27  2  0
 28 23  1  0
 29 30  1  0
 29 21  1  0
 31 29  2  0
M  END
$$$$
