IAD.pdb
     RDKit          3D

 22 21  0  0  1  0  0  0  0  0999 V2000
   26.9338  -17.1681  -15.6138 C   0  0  0  0  0  0  0  0  0  0  0  0
   25.6528  -16.5330  -16.1068 C   0  0  0  0  0  0  0  0  0  0  0  0
   25.7200  -15.0079  -16.0218 C   0  0  2  0  0  0  0  0  0  0  0  0
   26.0090  -14.6065  -14.6293 C   0  0  0  0  0  0  0  0  0  0  0  0
   24.4744  -14.4694  -16.6231 C   0  0  2  0  0  0  0  0  0  0  0  0
   24.2118  -15.2043  -17.8481 N   0  0  0  0  0  0  0  0  0  0  0  0
   24.4263  -13.0202  -16.7977 C   0  0  0  0  0  0  0  0  0  0  0  0
   24.3937  -12.2954  -15.7697 O   0  0  0  0  0  0  0  0  0  0  0  0
   24.3513  -10.4770  -19.6386 C   0  0  0  0  0  0  0  0  0  0  0  0
   24.2865  -10.9228  -18.2146 C   0  0  2  0  0  0  0  0  0  0  0  0
   24.4128  -12.3440  -18.0471 N   0  0  0  0  0  0  0  0  0  0  0  0
   23.0428  -10.3862  -17.6005 C   0  0  0  0  0  0  0  0  0  0  0  0
   21.9409  -10.9976  -17.6765 O   0  0  0  0  0  0  0  0  0  0  0  0
   23.0759   -9.1663  -16.9127 N   0  0  0  0  0  0  0  0  0  0  0  0
   21.9659   -8.5065  -16.2718 C   0  0  1  0  0  0  0  0  0  0  0  0
   21.9909   -8.6025  -14.7899 C   0  0  0  0  0  0  0  0  0  0  0  0
   20.8302   -7.9300  -14.1686 C   0  0  0  0  0  0  0  0  0  0  0  0
   20.8958   -6.7428  -13.7891 O   0  0  0  0  0  0  0  0  0  0  0  0
   21.8121   -7.1603  -16.8275 C   0  0  0  0  0  0  0  0  0  0  0  0
   20.6417   -6.4569  -16.6321 O   0  0  0  0  0  0  0  0  0  0  0  0
   19.6161   -8.5852  -13.9786 O   0  0  0  0  0  0  0  0  0  0  0  0
   22.7371   -6.6147  -17.4904 O   0  0  0  0  0  0  0  0  0  0  0  0
  2  3  1  0
  2  1  1  0
  3  5  1  0
  3  4  1  1
  5  6  1  6
  7  5  1  0
  8  7  2  0
 10  9  1  6
 10 12  1  0
 10 11  1  0
 11  7  1  0
 12 14  1  0
 13 12  2  0
 14 15  1  0
 15 16  1  1
 15 19  1  0
 16 17  1  0
 17 21  1  0
 17 18  2  0
 19 22  2  0
 19 20  1  0
M  END
$$$$
