IAD.pdb
     RDKit          3D

 22 21  0  0  1  0  0  0  0  0999 V2000
   21.4617  -20.6241  -16.0040 C   0  0  0  0  0  0  0  0  0  0  0  0
   20.9208  -19.4481  -15.2219 C   0  0  0  0  0  0  0  0  0  0  0  0
   20.6007  -18.2691  -16.1411 C   0  0  2  0  0  0  0  0  0  0  0  0
   21.7759  -17.9734  -16.9868 C   0  0  0  0  0  0  0  0  0  0  0  0
   20.0984  -17.1607  -15.2913 C   0  0  2  0  0  0  0  0  0  0  0  0
   19.1102  -17.7066  -14.3774 N   0  0  0  0  0  0  0  0  0  0  0  0
   19.6328  -15.9733  -16.0030 C   0  0  0  0  0  0  0  0  0  0  0  0
   20.4838  -15.2584  -16.5930 O   0  0  0  0  0  0  0  0  0  0  0  0
   16.3567  -14.3230  -16.9979 C   0  0  0  0  0  0  0  0  0  0  0  0
   17.8318  -14.3616  -16.7678 C   0  0  2  0  0  0  0  0  0  0  0  0
   18.2807  -15.5459  -16.0898 N   0  0  0  0  0  0  0  0  0  0  0  0
   18.2403  -13.1155  -16.0663 C   0  0  0  0  0  0  0  0  0  0  0  0
   18.4573  -13.0875  -14.8229 O   0  0  0  0  0  0  0  0  0  0  0  0
   18.3940  -11.9265  -16.7910 N   0  0  0  0  0  0  0  0  0  0  0  0
   18.8421  -10.6555  -16.2792 C   0  0  1  0  0  0  0  0  0  0  0  0
   19.4322   -9.7706  -17.3157 C   0  0  0  0  0  0  0  0  0  0  0  0
   19.8672   -8.4725  -16.7577 C   0  0  0  0  0  0  0  0  0  0  0  0
   19.8074   -8.2411  -15.5327 O   0  0  0  0  0  0  0  0  0  0  0  0
   17.7884  -10.0644  -15.4516 C   0  0  0  0  0  0  0  0  0  0  0  0
   16.4612  -10.3147  -15.7320 O   0  0  0  0  0  0  0  0  0  0  0  0
   20.3612   -7.4528  -17.5674 O   0  0  0  0  0  0  0  0  0  0  0  0
   18.0649   -9.3207  -14.4701 O   0  0  0  0  0  0  0  0  0  0  0  0
  2  3  1  0
  2  1  1  0
  3  5  1  0
  3  4  1  1
  5  6  1  6
  7  5  1  0
  8  7  2  0
 10  9  1  1
 10 12  1  0
 10 11  1  0
 11  7  1  0
 12 14  1  0
 13 12  2  0
 14 15  1  0
 15 16  1  6
 15 19  1  0
 16 17  1  0
 17 21  1  0
 17 18  2  0
 19 22  2  0
 19 20  1  0
M  END
$$$$
