IAD.pdb
     RDKit          3D

 22 21  0  0  1  0  0  0  0  0999 V2000
   11.4251   -8.6451   -7.5183 C   0  0  0  0  0  0  0  0  0  0  0  0
   11.2923   -9.4402   -8.7980 C   0  0  0  0  0  0  0  0  0  0  0  0
   12.5416   -9.3046   -9.6688 C   0  0  2  0  0  0  0  0  0  0  0  0
   12.8748   -7.8738   -9.8291 C   0  0  0  0  0  0  0  0  0  0  0  0
   12.3057  -10.0750  -10.9154 C   0  0  2  0  0  0  0  0  0  0  0  0
   12.1314  -11.4713  -10.5552 N   0  0  0  0  0  0  0  0  0  0  0  0
   13.2806   -9.8717  -11.9838 C   0  0  0  0  0  0  0  0  0  0  0  0
   14.3468  -10.5393  -11.9545 O   0  0  0  0  0  0  0  0  0  0  0  0
   13.4390   -8.2458  -15.3961 C   0  0  0  0  0  0  0  0  0  0  0  0
   14.0477   -8.8427  -14.1698 C   0  0  2  0  0  0  0  0  0  0  0  0
   13.1296   -8.9714  -13.0724 N   0  0  0  0  0  0  0  0  0  0  0  0
   15.2604   -8.0617  -13.8080 C   0  0  0  0  0  0  0  0  0  0  0  0
   15.2202   -7.1059  -12.9841 O   0  0  0  0  0  0  0  0  0  0  0  0
   16.4943   -8.3820  -14.3890 N   0  0  0  0  0  0  0  0  0  0  0  0
   17.7585   -7.7347  -14.1422 C   0  0  1  0  0  0  0  0  0  0  0  0
   18.9167   -8.6642  -14.1584 C   0  0  0  0  0  0  0  0  0  0  0  0
   20.1914   -7.9706  -13.8761 C   0  0  0  0  0  0  0  0  0  0  0  0
   20.2097   -6.8209  -13.3906 O   0  0  0  0  0  0  0  0  0  0  0  0
   17.8729   -6.5482  -14.9930 C   0  0  0  0  0  0  0  0  0  0  0  0
   18.1963   -5.3258  -14.4418 O   0  0  0  0  0  0  0  0  0  0  0  0
   21.4242   -8.5633  -14.1368 O   0  0  0  0  0  0  0  0  0  0  0  0
   17.6825   -6.6137  -16.2389 O   0  0  0  0  0  0  0  0  0  0  0  0
  2  3  1  0
  2  1  1  0
  3  5  1  0
  3  4  1  6
  5  6  1  1
  7  5  1  0
  8  7  2  0
 10  9  1  6
 10 12  1  0
 10 11  1  0
 11  7  1  0
 12 14  1  0
 13 12  2  0
 14 15  1  0
 15 16  1  6
 15 19  1  0
 16 17  1  0
 17 21  1  0
 17 18  2  0
 19 22  2  0
 19 20  1  0
M  END
$$$$
