IAD.pdb
     RDKit          3D

 22 21  0  0  1  0  0  0  0  0999 V2000
   25.8521  -15.0783  -17.9968 C   0  0  0  0  0  0  0  0  0  0  0  0
   25.1461  -14.3924  -16.8486 C   0  0  0  0  0  0  0  0  0  0  0  0
   24.5506  -13.0529  -17.2829 C   0  0  2  0  0  0  0  0  0  0  0  0
   25.6171  -12.2041  -17.8538 C   0  0  0  0  0  0  0  0  0  0  0  0
   23.8069  -12.4958  -16.1254 C   0  0  2  0  0  0  0  0  0  0  0  0
   23.1029  -13.5874  -15.4754 N   0  0  0  0  0  0  0  0  0  0  0  0
   22.9521  -11.3465  -16.4111 C   0  0  0  0  0  0  0  0  0  0  0  0
   23.5005  -10.2446  -16.6727 O   0  0  0  0  0  0  0  0  0  0  0  0
   19.2383  -10.5290  -16.6827 C   0  0  0  0  0  0  0  0  0  0  0  0
   20.6951  -10.2089  -16.6044 C   0  0  2  0  0  0  0  0  0  0  0  0
   21.5315  -11.3621  -16.4199 N   0  0  0  0  0  0  0  0  0  0  0  0
   20.9038   -9.1806  -15.5504 C   0  0  0  0  0  0  0  0  0  0  0  0
   21.2811   -9.4839  -14.3844 O   0  0  0  0  0  0  0  0  0  0  0  0
   20.6799   -7.8288  -15.8421 N   0  0  0  0  0  0  0  0  0  0  0  0
   20.8338   -6.7144  -14.9406 C   0  0  1  0  0  0  0  0  0  0  0  0
   22.2052   -6.1443  -14.9272 C   0  0  0  0  0  0  0  0  0  0  0  0
   22.3152   -4.9796  -14.0234 C   0  0  0  0  0  0  0  0  0  0  0  0
   21.7715   -4.9776  -12.8999 O   0  0  0  0  0  0  0  0  0  0  0  0
   19.7422   -5.7615  -15.1527 C   0  0  0  0  0  0  0  0  0  0  0  0
   19.1166   -5.1697  -14.0751 O   0  0  0  0  0  0  0  0  0  0  0  0
   23.0261   -3.8366  -14.3805 O   0  0  0  0  0  0  0  0  0  0  0  0
   19.3516   -5.4594  -16.3141 O   0  0  0  0  0  0  0  0  0  0  0  0
  2  3  1  0
  2  1  1  0
  3  5  1  0
  3  4  1  1
  5  6  1  6
  7  5  1  0
  8  7  2  0
 10  9  1  1
 10 12  1  0
 10 11  1  0
 11  7  1  0
 12 14  1  0
 13 12  2  0
 14 15  1  0
 15 16  1  6
 15 19  1  0
 16 17  1  0
 17 21  1  0
 17 18  2  0
 19 22  2  0
 19 20  1  0
M  END
$$$$
