IAD.pdb
     RDKit          3D

 22 21  0  0  1  0  0  0  0  0999 V2000
   28.7486  -12.6425  -16.0061 C   0  0  0  0  0  0  0  0  0  0  0  0
   27.2802  -12.8762  -16.2826 C   0  0  0  0  0  0  0  0  0  0  0  0
   26.5134  -11.5561  -16.3665 C   0  0  2  0  0  0  0  0  0  0  0  0
   26.6867  -10.8072  -15.1045 C   0  0  0  0  0  0  0  0  0  0  0  0
   25.1189  -11.8715  -16.7653 C   0  0  2  0  0  0  0  0  0  0  0  0
   25.1692  -12.7823  -17.8956 N   0  0  0  0  0  0  0  0  0  0  0  0
   24.2449  -10.7227  -16.9880 C   0  0  0  0  0  0  0  0  0  0  0  0
   24.6475   -9.8044  -17.7483 O   0  0  0  0  0  0  0  0  0  0  0  0
   20.6336   -9.7600  -16.4226 C   0  0  0  0  0  0  0  0  0  0  0  0
   22.0695   -9.4543  -16.6972 C   0  0  2  0  0  0  0  0  0  0  0  0
   22.9580  -10.5466  -16.4124 N   0  0  0  0  0  0  0  0  0  0  0  0
   22.4430   -8.2127  -15.9688 C   0  0  0  0  0  0  0  0  0  0  0  0
   23.0466   -8.2426  -14.8603 O   0  0  0  0  0  0  0  0  0  0  0  0
   22.1236   -6.9624  -16.5140 N   0  0  0  0  0  0  0  0  0  0  0  0
   22.3960   -5.6720  -15.9319 C   0  0  1  0  0  0  0  0  0  0  0  0
   22.4039   -4.5628  -16.9195 C   0  0  0  0  0  0  0  0  0  0  0  0
   22.6460   -3.2512  -16.2818 C   0  0  0  0  0  0  0  0  0  0  0  0
   21.7058   -2.4700  -16.0295 O   0  0  0  0  0  0  0  0  0  0  0  0
   21.5473   -5.4796  -14.7541 C   0  0  0  0  0  0  0  0  0  0  0  0
   20.3827   -6.2047  -14.6101 O   0  0  0  0  0  0  0  0  0  0  0  0
   23.9264   -2.8277  -15.9347 O   0  0  0  0  0  0  0  0  0  0  0  0
   21.8574   -4.6558  -13.8496 O   0  0  0  0  0  0  0  0  0  0  0  0
  2  3  1  0
  2  1  1  0
  3  5  1  0
  3  4  1  1
  5  6  1  6
  7  5  1  0
  8  7  2  0
 10  9  1  1
 10 12  1  0
 10 11  1  0
 11  7  1  0
 12 14  1  0
 13 12  2  0
 14 15  1  0
 15 16  1  6
 15 19  1  0
 16 17  1  0
 17 21  1  0
 17 18  2  0
 19 22  2  0
 19 20  1  0
M  END
$$$$
