IAD.pdb
     RDKit          3D

 22 21  0  0  1  0  0  0  0  0999 V2000
   20.5924  -12.2478  -21.6713 C   0  0  0  0  0  0  0  0  0  0  0  0
   20.8637  -12.3835  -20.1896 C   0  0  0  0  0  0  0  0  0  0  0  0
   20.4479  -11.1231  -19.4307 C   0  0  2  0  0  0  0  0  0  0  0  0
   21.1578   -9.9554  -19.9931 C   0  0  0  0  0  0  0  0  0  0  0  0
   20.6443  -11.3855  -17.9830 C   0  0  2  0  0  0  0  0  0  0  0  0
   20.0474  -12.6731  -17.6740 N   0  0  0  0  0  0  0  0  0  0  0  0
   20.2186  -10.3200  -17.0792 C   0  0  0  0  0  0  0  0  0  0  0  0
   19.0288   -9.9166  -17.1498 O   0  0  0  0  0  0  0  0  0  0  0  0
   21.6373   -8.2559  -14.2079 C   0  0  0  0  0  0  0  0  0  0  0  0
   20.6295   -8.6132  -15.2506 C   0  0  2  0  0  0  0  0  0  0  0  0
   21.0428   -9.6874  -16.1103 N   0  0  0  0  0  0  0  0  0  0  0  0
   20.2678   -7.3856  -16.0082 C   0  0  0  0  0  0  0  0  0  0  0  0
   20.9021   -7.0229  -17.0377 O   0  0  0  0  0  0  0  0  0  0  0  0
   19.1931   -6.5949  -15.5812 N   0  0  0  0  0  0  0  0  0  0  0  0
   18.7619   -5.3435  -16.1523 C   0  0  1  0  0  0  0  0  0  0  0  0
   17.2989   -5.2740  -16.3988 C   0  0  0  0  0  0  0  0  0  0  0  0
   16.8895   -3.9669  -16.9552 C   0  0  0  0  0  0  0  0  0  0  0  0
   16.6481   -2.9935  -16.2123 O   0  0  0  0  0  0  0  0  0  0  0  0
   19.3399   -4.2349  -15.3898 C   0  0  0  0  0  0  0  0  0  0  0  0
   19.6632   -3.0513  -16.0202 O   0  0  0  0  0  0  0  0  0  0  0  0
   16.7545   -3.7612  -18.3259 O   0  0  0  0  0  0  0  0  0  0  0  0
   19.5527   -4.3323  -14.1496 O   0  0  0  0  0  0  0  0  0  0  0  0
  2  3  1  0
  2  1  1  0
  3  5  1  0
  3  4  1  6
  5  6  1  1
  7  5  1  0
  8  7  2  0
 10  9  1  1
 10 12  1  0
 10 11  1  0
 11  7  1  0
 12 14  1  0
 13 12  2  0
 14 15  1  0
 15 16  1  1
 15 19  1  0
 16 17  1  0
 17 21  1  0
 17 18  2  0
 19 22  2  0
 19 20  1  0
M  END
$$$$
