IAD.pdb
     RDKit          3D

 22 21  0  0  1  0  0  0  0  0999 V2000
   27.9136  -13.3418  -15.3746 C   0  0  0  0  0  0  0  0  0  0  0  0
   26.4141  -13.4745  -15.5206 C   0  0  0  0  0  0  0  0  0  0  0  0
   25.7558  -12.1142  -15.7526 C   0  0  2  0  0  0  0  0  0  0  0  0
   26.0968  -11.2076  -14.6366 C   0  0  0  0  0  0  0  0  0  0  0  0
   24.3112  -12.3506  -15.9983 C   0  0  2  0  0  0  0  0  0  0  0  0
   24.1895  -13.4284  -16.9644 N   0  0  0  0  0  0  0  0  0  0  0  0
   23.5231  -11.1713  -16.3467 C   0  0  0  0  0  0  0  0  0  0  0  0
   23.7941  -10.5664  -17.4163 O   0  0  0  0  0  0  0  0  0  0  0  0
   20.2145   -9.6482  -15.6542 C   0  0  0  0  0  0  0  0  0  0  0  0
   21.6737   -9.4885  -15.9298 C   0  0  2  0  0  0  0  0  0  0  0  0
   22.4590  -10.6369  -15.5718 N   0  0  0  0  0  0  0  0  0  0  0  0
   22.1525   -8.2443  -15.2708 C   0  0  0  0  0  0  0  0  0  0  0  0
   22.7809   -8.2657  -14.1760 O   0  0  0  0  0  0  0  0  0  0  0  0
   21.9081   -7.0011  -15.8684 N   0  0  0  0  0  0  0  0  0  0  0  0
   22.3907   -5.7185  -15.4209 C   0  0  1  0  0  0  0  0  0  0  0  0
   22.2815   -4.6500  -16.4466 C   0  0  0  0  0  0  0  0  0  0  0  0
   22.7968   -3.3536  -15.9573 C   0  0  0  0  0  0  0  0  0  0  0  0
   22.0713   -2.5704  -15.3108 O   0  0  0  0  0  0  0  0  0  0  0  0
   21.8170   -5.4126  -14.1087 C   0  0  0  0  0  0  0  0  0  0  0  0
   22.5818   -4.7923  -13.1427 O   0  0  0  0  0  0  0  0  0  0  0  0
   24.1078   -2.9474  -16.1931 O   0  0  0  0  0  0  0  0  0  0  0  0
   20.6206   -5.7039  -13.8318 O   0  0  0  0  0  0  0  0  0  0  0  0
  2  3  1  0
  2  1  1  0
  3  5  1  0
  3  4  1  1
  5  6  1  6
  7  5  1  0
  8  7  2  0
 10  9  1  1
 10 12  1  0
 10 11  1  0
 11  7  1  0
 12 14  1  0
 13 12  2  0
 14 15  1  0
 15 16  1  6
 15 19  1  0
 16 17  1  0
 17 21  1  0
 17 18  2  0
 19 22  2  0
 19 20  1  0
M  END
$$$$
