IAD.pdb
     RDKit          3D

 22 21  0  0  1  0  0  0  0  0999 V2000
   28.4376  -13.2225  -15.4594 C   0  0  0  0  0  0  0  0  0  0  0  0
   27.1546  -13.3921  -16.2420 C   0  0  0  0  0  0  0  0  0  0  0  0
   26.3562  -12.0891  -16.2896 C   0  0  2  0  0  0  0  0  0  0  0  0
   26.0672  -11.6404  -14.9116 C   0  0  0  0  0  0  0  0  0  0  0  0
   25.1856  -12.3120  -17.1745 C   0  0  2  0  0  0  0  0  0  0  0  0
   25.6613  -12.9171  -18.4063 N   0  0  0  0  0  0  0  0  0  0  0  0
   24.3246  -11.1531  -17.3956 C   0  0  0  0  0  0  0  0  0  0  0  0
   24.8210  -10.1365  -17.9463 O   0  0  0  0  0  0  0  0  0  0  0  0
   20.7075  -10.3163  -17.6821 C   0  0  0  0  0  0  0  0  0  0  0  0
   22.1000   -9.9421  -17.2930 C   0  0  2  0  0  0  0  0  0  0  0  0
   22.9522  -11.0700  -17.0378 N   0  0  0  0  0  0  0  0  0  0  0  0
   22.0398   -9.0028  -16.1415 C   0  0  0  0  0  0  0  0  0  0  0  0
   22.0672   -9.4069  -14.9458 O   0  0  0  0  0  0  0  0  0  0  0  0
   21.9499   -7.6238  -16.3714 N   0  0  0  0  0  0  0  0  0  0  0  0
   21.8876   -6.5849  -15.3740 C   0  0  1  0  0  0  0  0  0  0  0  0
   22.5564   -5.3240  -15.7847 C   0  0  0  0  0  0  0  0  0  0  0  0
   22.4039   -4.2575  -14.7723 C   0  0  0  0  0  0  0  0  0  0  0  0
   21.5745   -3.3368  -14.9210 O   0  0  0  0  0  0  0  0  0  0  0  0
   20.5115   -6.4558  -14.8899 C   0  0  0  0  0  0  0  0  0  0  0  0
   19.4514   -6.7613  -15.7179 O   0  0  0  0  0  0  0  0  0  0  0  0
   23.1738   -4.2297  -13.6122 O   0  0  0  0  0  0  0  0  0  0  0  0
   20.2631   -6.0679  -13.7148 O   0  0  0  0  0  0  0  0  0  0  0  0
  2  3  1  0
  2  1  1  0
  3  5  1  0
  3  4  1  1
  5  6  1  6
  7  5  1  0
  8  7  2  0
 10  9  1  1
 10 12  1  0
 10 11  1  0
 11  7  1  0
 12 14  1  0
 13 12  2  0
 14 15  1  0
 15 16  1  6
 15 19  1  0
 16 17  1  0
 17 21  1  0
 17 18  2  0
 19 22  2  0
 19 20  1  0
M  END
$$$$
