IAD.pdb
     RDKit          3D

 22 21  0  0  1  0  0  0  0  0999 V2000
   27.2583  -12.2992  -15.0982 C   0  0  0  0  0  0  0  0  0  0  0  0
   26.2562  -12.6292  -16.1819 C   0  0  0  0  0  0  0  0  0  0  0  0
   25.0625  -13.4008  -15.6189 C   0  0  2  0  0  0  0  0  0  0  0  0
   25.5230  -14.7044  -15.0972 C   0  0  0  0  0  0  0  0  0  0  0  0
   24.0159  -13.4388  -16.6708 C   0  0  2  0  0  0  0  0  0  0  0  0
   24.5928  -14.0455  -17.8577 N   0  0  0  0  0  0  0  0  0  0  0  0
   23.3379  -12.1736  -16.9405 C   0  0  0  0  0  0  0  0  0  0  0  0
   23.9570  -11.2904  -17.5886 O   0  0  0  0  0  0  0  0  0  0  0  0
   19.8775  -10.7746  -17.0695 C   0  0  0  0  0  0  0  0  0  0  0  0
   21.3428  -10.6139  -16.8293 C   0  0  2  0  0  0  0  0  0  0  0  0
   22.0182  -11.8456  -16.5291 N   0  0  0  0  0  0  0  0  0  0  0  0
   21.5456   -9.5829  -15.7768 C   0  0  0  0  0  0  0  0  0  0  0  0
   21.7448   -9.8899  -14.5685 O   0  0  0  0  0  0  0  0  0  0  0  0
   21.5182   -8.2245  -16.1178 N   0  0  0  0  0  0  0  0  0  0  0  0
   21.7780   -7.1093  -15.2420 C   0  0  1  0  0  0  0  0  0  0  0  0
   22.0916   -5.8480  -15.9606 C   0  0  0  0  0  0  0  0  0  0  0  0
   22.3779   -4.7342  -15.0316 C   0  0  0  0  0  0  0  0  0  0  0  0
   22.9458   -4.9323  -13.9379 O   0  0  0  0  0  0  0  0  0  0  0  0
   20.7229   -7.0285  -14.2296 C   0  0  0  0  0  0  0  0  0  0  0  0
   21.0393   -6.7510  -12.9160 O   0  0  0  0  0  0  0  0  0  0  0  0
   22.0298   -3.4194  -15.3308 O   0  0  0  0  0  0  0  0  0  0  0  0
   19.5102   -7.2069  -14.5304 O   0  0  0  0  0  0  0  0  0  0  0  0
  2  3  1  0
  2  1  1  0
  3  5  1  0
  3  4  1  6
  5  6  1  6
  7  5  1  0
  8  7  2  0
 10  9  1  1
 10 12  1  0
 10 11  1  0
 11  7  1  0
 12 14  1  0
 13 12  2  0
 14 15  1  0
 15 16  1  6
 15 19  1  0
 16 17  1  0
 17 21  1  0
 17 18  2  0
 19 22  2  0
 19 20  1  0
M  END
$$$$
