IAD.pdb
     RDKit          3D

 22 21  0  0  1  0  0  0  0  0999 V2000
   16.2374  -10.6896  -19.4556 C   0  0  0  0  0  0  0  0  0  0  0  0
   17.3217  -11.1697  -18.5169 C   0  0  0  0  0  0  0  0  0  0  0  0
   17.7516  -10.0640  -17.5525 C   0  0  2  0  0  0  0  0  0  0  0  0
   18.2170   -8.8932  -18.3248 C   0  0  0  0  0  0  0  0  0  0  0  0
   18.7194  -10.6549  -16.5947 C   0  0  2  0  0  0  0  0  0  0  0  0
   18.1401  -11.8775  -16.0663 N   0  0  0  0  0  0  0  0  0  0  0  0
   19.2173   -9.7563  -15.5565 C   0  0  0  0  0  0  0  0  0  0  0  0
   18.3810   -9.1032  -14.8803 O   0  0  0  0  0  0  0  0  0  0  0  0
   22.4260   -8.9422  -13.7310 C   0  0  0  0  0  0  0  0  0  0  0  0
   21.0744   -8.6062  -14.2702 C   0  0  2  0  0  0  0  0  0  0  0  0
   20.5862   -9.5503  -15.2366 N   0  0  0  0  0  0  0  0  0  0  0  0
   21.1005   -7.2156  -14.7968 C   0  0  0  0  0  0  0  0  0  0  0  0
   21.4285   -6.9568  -15.9881 O   0  0  0  0  0  0  0  0  0  0  0  0
   20.7536   -6.1472  -13.9597 N   0  0  0  0  0  0  0  0  0  0  0  0
   20.7645   -4.7462  -14.2991 C   0  0  1  0  0  0  0  0  0  0  0  0
   19.7334   -3.9520  -13.5837 C   0  0  0  0  0  0  0  0  0  0  0  0
   19.7589   -2.5262  -13.9736 C   0  0  0  0  0  0  0  0  0  0  0  0
   19.3596   -2.1542  -15.0961 O   0  0  0  0  0  0  0  0  0  0  0  0
   22.1357   -4.2372  -14.2247 C   0  0  0  0  0  0  0  0  0  0  0  0
   22.6066   -3.3645  -15.1835 O   0  0  0  0  0  0  0  0  0  0  0  0
   20.2267   -1.5368  -13.1124 O   0  0  0  0  0  0  0  0  0  0  0  0
   22.9124   -4.5790  -13.2904 O   0  0  0  0  0  0  0  0  0  0  0  0
  2  3  1  0
  2  1  1  0
  3  5  1  0
  3  4  1  6
  5  6  1  1
  7  5  1  0
  8  7  2  0
 10  9  1  6
 10 12  1  0
 10 11  1  0
 11  7  1  0
 12 14  1  0
 13 12  2  0
 14 15  1  0
 15 16  1  1
 15 19  1  0
 16 17  1  0
 17 21  1  0
 17 18  2  0
 19 22  2  0
 19 20  1  0
M  END
$$$$
