IAD.pdb
     RDKit          3D

 22 21  0  0  1  0  0  0  0  0999 V2000
   28.2752  -12.6385  -15.3874 C   0  0  0  0  0  0  0  0  0  0  0  0
   27.2402  -12.8493  -16.4698 C   0  0  0  0  0  0  0  0  0  0  0  0
   26.1453  -11.7841  -16.4069 C   0  0  2  0  0  0  0  0  0  0  0  0
   25.4653  -11.8564  -15.0969 C   0  0  0  0  0  0  0  0  0  0  0  0
   25.2899  -11.9479  -17.6088 C   0  0  2  0  0  0  0  0  0  0  0  0
   26.1552  -11.9892  -18.7747 N   0  0  0  0  0  0  0  0  0  0  0  0
   24.1884  -10.9979  -17.7408 C   0  0  0  0  0  0  0  0  0  0  0  0
   24.4642   -9.7904  -17.9624 O   0  0  0  0  0  0  0  0  0  0  0  0
   20.3998  -10.9910  -17.9703 C   0  0  0  0  0  0  0  0  0  0  0  0
   21.7321  -10.3725  -17.7003 C   0  0  2  0  0  0  0  0  0  0  0  0
   22.8087  -11.3217  -17.6395 N   0  0  0  0  0  0  0  0  0  0  0  0
   21.6350   -9.5432  -16.4696 C   0  0  0  0  0  0  0  0  0  0  0  0
   21.7997  -10.0328  -15.3176 O   0  0  0  0  0  0  0  0  0  0  0  0
   21.3530   -8.1749  -16.5722 N   0  0  0  0  0  0  0  0  0  0  0  0
   21.2599   -7.2292  -15.4881 C   0  0  1  0  0  0  0  0  0  0  0  0
   22.4451   -6.3423  -15.3680 C   0  0  0  0  0  0  0  0  0  0  0  0
   22.2892   -5.3481  -14.2850 C   0  0  0  0  0  0  0  0  0  0  0  0
   21.4081   -5.4756  -13.4102 O   0  0  0  0  0  0  0  0  0  0  0  0
   19.9576   -6.5611  -15.5344 C   0  0  0  0  0  0  0  0  0  0  0  0
   19.5525   -5.9057  -16.6787 O   0  0  0  0  0  0  0  0  0  0  0  0
   23.1129   -4.2292  -14.1901 O   0  0  0  0  0  0  0  0  0  0  0  0
   19.1802   -6.5695  -14.5402 O   0  0  0  0  0  0  0  0  0  0  0  0
  2  3  1  0
  2  1  1  0
  3  5  1  0
  3  4  1  1
  5  6  1  6
  7  5  1  0
  8  7  2  0
 10  9  1  1
 10 12  1  0
 10 11  1  0
 11  7  1  0
 12 14  1  0
 13 12  2  0
 14 15  1  0
 15 16  1  6
 15 19  1  0
 16 17  1  0
 17 21  1  0
 17 18  2  0
 19 22  2  0
 19 20  1  0
M  END
$$$$
