IAD.pdb
     RDKit          3D

 22 21  0  0  1  0  0  0  0  0999 V2000
   20.0638  -15.8089  -16.4095 C   0  0  0  0  0  0  0  0  0  0  0  0
   18.9302  -14.8832  -16.7904 C   0  0  0  0  0  0  0  0  0  0  0  0
   19.3895  -13.4252  -16.8208 C   0  0  2  0  0  0  0  0  0  0  0  0
   19.9747  -13.0680  -15.5117 C   0  0  0  0  0  0  0  0  0  0  0  0
   18.2432  -12.6029  -17.2822 C   0  0  2  0  0  0  0  0  0  0  0  0
   17.7271  -13.1955  -18.5037 N   0  0  0  0  0  0  0  0  0  0  0  0
   18.4938  -11.1686  -17.3974 C   0  0  0  0  0  0  0  0  0  0  0  0
   19.5720  -10.7911  -17.9248 O   0  0  0  0  0  0  0  0  0  0  0  0
   16.6562   -7.9202  -17.3625 C   0  0  0  0  0  0  0  0  0  0  0  0
   17.8716   -8.7343  -17.0614 C   0  0  2  0  0  0  0  0  0  0  0  0
   17.6130  -10.1437  -16.9591 N   0  0  0  0  0  0  0  0  0  0  0  0
   18.5259   -8.1864  -15.8435 C   0  0  0  0  0  0  0  0  0  0  0  0
   18.3471   -8.6940  -14.7015 O   0  0  0  0  0  0  0  0  0  0  0  0
   19.3699   -7.0731  -15.9472 N   0  0  0  0  0  0  0  0  0  0  0  0
   20.1101   -6.4487  -14.8792 C   0  0  1  0  0  0  0  0  0  0  0  0
   21.4945   -6.0671  -15.2579 C   0  0  0  0  0  0  0  0  0  0  0  0
   22.1955   -5.3590  -14.1656 C   0  0  0  0  0  0  0  0  0  0  0  0
   22.1636   -5.7841  -12.9926 O   0  0  0  0  0  0  0  0  0  0  0  0
   19.2946   -5.3946  -14.2724 C   0  0  0  0  0  0  0  0  0  0  0  0
   18.4657   -4.6187  -15.0558 O   0  0  0  0  0  0  0  0  0  0  0  0
   22.9199   -4.1915  -14.3925 O   0  0  0  0  0  0  0  0  0  0  0  0
   19.3276   -5.1727  -13.0304 O   0  0  0  0  0  0  0  0  0  0  0  0
  2  3  1  0
  2  1  1  0
  3  5  1  0
  3  4  1  1
  5  6  1  6
  7  5  1  0
  8  7  2  0
 10  9  1  1
 10 12  1  0
 10 11  1  0
 11  7  1  0
 12 14  1  0
 13 12  2  0
 14 15  1  0
 15 16  1  6
 15 19  1  0
 16 17  1  0
 17 21  1  0
 17 18  2  0
 19 22  2  0
 19 20  1  0
M  END
$$$$
