IAD.pdb
     RDKit          3D

 22 21  0  0  1  0  0  0  0  0999 V2000
   19.3029  -14.5955  -18.0757 C   0  0  0  0  0  0  0  0  0  0  0  0
   19.3868  -13.6776  -16.8767 C   0  0  0  0  0  0  0  0  0  0  0  0
   18.6253  -12.3744  -17.1200 C   0  0  2  0  0  0  0  0  0  0  0  0
   19.1024  -11.7542  -18.3735 C   0  0  0  0  0  0  0  0  0  0  0  0
   18.7363  -11.5530  -15.8887 C   0  0  2  0  0  0  0  0  0  0  0  0
   18.4603  -12.4105  -14.7493 N   0  0  0  0  0  0  0  0  0  0  0  0
   17.9643  -10.3132  -15.8785 C   0  0  0  0  0  0  0  0  0  0  0  0
   18.1870   -9.4634  -16.7793 O   0  0  0  0  0  0  0  0  0  0  0  0
   15.2363   -8.6539  -13.7928 C   0  0  0  0  0  0  0  0  0  0  0  0
   16.2545   -8.7284  -14.8829 C   0  0  2  0  0  0  0  0  0  0  0  0
   16.9666   -9.9753  -14.9250 N   0  0  0  0  0  0  0  0  0  0  0  0
   17.1645   -7.5575  -14.7696 C   0  0  0  0  0  0  0  0  0  0  0  0
   18.3353   -7.6615  -14.3089 O   0  0  0  0  0  0  0  0  0  0  0  0
   16.7263   -6.2923  -15.1819 N   0  0  0  0  0  0  0  0  0  0  0  0
   17.4933   -5.0718  -15.1841 C   0  0  1  0  0  0  0  0  0  0  0  0
   18.4737   -4.9865  -16.2965 C   0  0  0  0  0  0  0  0  0  0  0  0
   19.0910   -3.6466  -16.3932 C   0  0  0  0  0  0  0  0  0  0  0  0
   19.6493   -3.1179  -15.4101 O   0  0  0  0  0  0  0  0  0  0  0  0
   16.5907   -3.9286  -15.0321 C   0  0  0  0  0  0  0  0  0  0  0  0
   17.0186   -2.7854  -14.3896 O   0  0  0  0  0  0  0  0  0  0  0  0
   19.0787   -2.9155  -17.5784 O   0  0  0  0  0  0  0  0  0  0  0  0
   15.4119   -3.9592  -15.4819 O   0  0  0  0  0  0  0  0  0  0  0  0
  2  3  1  0
  2  1  1  0
  3  5  1  0
  3  4  1  6
  5  6  1  1
  7  5  1  0
  8  7  2  0
 10  9  1  1
 10 12  1  0
 10 11  1  0
 11  7  1  0
 12 14  1  0
 13 12  2  0
 14 15  1  0
 15 16  1  6
 15 19  1  0
 16 17  1  0
 17 21  1  0
 17 18  2  0
 19 22  2  0
 19 20  1  0
M  END
$$$$
