IAD.pdb
     RDKit          3D

 22 21  0  0  1  0  0  0  0  0999 V2000
   17.8150  -12.5008  -20.4674 C   0  0  0  0  0  0  0  0  0  0  0  0
   18.8332  -12.8170  -19.3947 C   0  0  0  0  0  0  0  0  0  0  0  0
   19.0244  -11.6349  -18.4441 C   0  0  2  0  0  0  0  0  0  0  0  0
   19.4324  -10.4441  -19.2182 C   0  0  0  0  0  0  0  0  0  0  0  0
   19.9439  -12.0716  -17.3639 C   0  0  2  0  0  0  0  0  0  0  0  0
   19.4845  -13.3601  -16.8755 N   0  0  0  0  0  0  0  0  0  0  0  0
   20.1809  -11.1014  -16.2982 C   0  0  0  0  0  0  0  0  0  0  0  0
   19.1868  -10.5359  -15.7733 O   0  0  0  0  0  0  0  0  0  0  0  0
   22.9781   -9.9324  -14.0417 C   0  0  0  0  0  0  0  0  0  0  0  0
   21.6854   -9.7523  -14.7678 C   0  0  2  0  0  0  0  0  0  0  0  0
   21.4563  -10.7326  -15.7926 N   0  0  0  0  0  0  0  0  0  0  0  0
   21.6171   -8.3603  -15.2869 C   0  0  0  0  0  0  0  0  0  0  0  0
   22.0333   -8.0542  -16.4388 O   0  0  0  0  0  0  0  0  0  0  0  0
   21.0777   -7.3444  -14.4873 N   0  0  0  0  0  0  0  0  0  0  0  0
   20.9539   -5.9498  -14.8307 C   0  0  1  0  0  0  0  0  0  0  0  0
   19.6230   -5.3735  -14.5110 C   0  0  0  0  0  0  0  0  0  0  0  0
   19.5408   -3.9378  -14.8540 C   0  0  0  0  0  0  0  0  0  0  0  0
   19.5141   -3.5559  -16.0419 O   0  0  0  0  0  0  0  0  0  0  0  0
   22.1132   -5.2167  -14.3176 C   0  0  0  0  0  0  0  0  0  0  0  0
   22.7177   -5.6070  -13.1407 O   0  0  0  0  0  0  0  0  0  0  0  0
   19.4896   -2.9497  -13.8740 O   0  0  0  0  0  0  0  0  0  0  0  0
   22.5849   -4.2212  -14.9335 O   0  0  0  0  0  0  0  0  0  0  0  0
  2  3  1  0
  2  1  1  0
  3  5  1  0
  3  4  1  6
  5  6  1  1
  7  5  1  0
  8  7  2  0
 10  9  1  6
 10 12  1  0
 10 11  1  0
 11  7  1  0
 12 14  1  0
 13 12  2  0
 14 15  1  0
 15 16  1  1
 15 19  1  0
 16 17  1  0
 17 21  1  0
 17 18  2  0
 19 22  2  0
 19 20  1  0
M  END
$$$$
