IAD.pdb
     RDKit          3D

 22 21  0  0  1  0  0  0  0  0999 V2000
   21.9167  -16.2744  -20.9448 C   0  0  0  0  0  0  0  0  0  0  0  0
   22.7443  -16.2097  -19.6805 C   0  0  0  0  0  0  0  0  0  0  0  0
   22.3073  -15.0470  -18.7891 C   0  0  2  0  0  0  0  0  0  0  0  0
   22.3048  -13.7978  -19.5785 C   0  0  0  0  0  0  0  0  0  0  0  0
   23.1632  -15.0645  -17.5766 C   0  0  2  0  0  0  0  0  0  0  0  0
   23.1528  -16.4134  -17.0379 N   0  0  0  0  0  0  0  0  0  0  0  0
   22.8716  -14.0411  -16.5763 C   0  0  0  0  0  0  0  0  0  0  0  0
   21.7010  -13.9677  -16.1205 O   0  0  0  0  0  0  0  0  0  0  0  0
   24.7098  -11.5011  -14.4386 C   0  0  0  0  0  0  0  0  0  0  0  0
   23.5050  -12.0704  -15.1131 C   0  0  2  0  0  0  0  0  0  0  0  0
   23.8084  -13.1044  -16.0631 N   0  0  0  0  0  0  0  0  0  0  0  0
   22.7218  -10.9580  -15.7141 C   0  0  0  0  0  0  0  0  0  0  0  0
   22.8936  -10.5873  -16.9086 O   0  0  0  0  0  0  0  0  0  0  0  0
   21.7595  -10.2894  -14.9463 N   0  0  0  0  0  0  0  0  0  0  0  0
   20.8958   -9.2215  -15.3842 C   0  0  1  0  0  0  0  0  0  0  0  0
   19.5878   -9.1873  -14.6815 C   0  0  0  0  0  0  0  0  0  0  0  0
   18.7160   -8.1025  -15.1802 C   0  0  0  0  0  0  0  0  0  0  0  0
   18.8879   -7.6007  -16.3100 O   0  0  0  0  0  0  0  0  0  0  0  0
   21.6476   -7.9649  -15.4072 C   0  0  0  0  0  0  0  0  0  0  0  0
   21.5786   -7.1334  -16.5056 O   0  0  0  0  0  0  0  0  0  0  0  0
   17.6681   -7.5924  -14.4179 O   0  0  0  0  0  0  0  0  0  0  0  0
   22.3683   -7.6138  -14.4325 O   0  0  0  0  0  0  0  0  0  0  0  0
  2  3  1  0
  2  1  1  0
  3  5  1  0
  3  4  1  6
  5  6  1  1
  7  5  1  0
  8  7  2  0
 10  9  1  6
 10 12  1  0
 10 11  1  0
 11  7  1  0
 12 14  1  0
 13 12  2  0
 14 15  1  0
 15 16  1  1
 15 19  1  0
 16 17  1  0
 17 21  1  0
 17 18  2  0
 19 22  2  0
 19 20  1  0
M  END
$$$$
