SRY.pdb
     RDKit          3D

 30 30  0  0  1  0  0  0  0  0999 V2000
    7.2647  -18.8596   26.7812 O   0  0  0  0  0  0  0  0  0  0  0  0
    6.0157  -18.8836   26.1556 C   0  0  0  0  0  0  0  0  0  0  0  0
    6.0756  -19.6414   24.8480 C   0  0  2  0  0  0  0  0  0  0  0  0
    6.3811  -21.0316   25.1241 N   0  0  0  0  0  0  0  0  0  0  0  0
    7.1245  -19.1128   23.9423 C   0  0  0  0  0  0  0  0  0  0  0  0
    8.2562  -19.6546   23.8822 O   0  0  0  0  0  0  0  0  0  0  0  0
    8.9301  -14.0782   18.7978 N   0  0  0  0  0  0  0  0  0  0  0  0
    8.0407  -13.1289   19.3960 C   0  0  0  0  0  0  0  0  0  0  0  0
    8.4600  -11.9364   19.6562 N   0  0  0  0  0  0  0  0  0  0  0  0
    6.7183  -13.4791   19.7032 N   0  0  0  0  0  0  0  0  0  0  0  0
    6.3441  -14.8670   19.8638 C   0  0  0  0  0  0  0  0  0  0  0  0
    6.8400  -15.4201   21.1774 C   0  0  0  0  0  0  0  0  0  0  0  0
    7.4764  -16.7964   21.0107 C   0  0  0  0  0  0  0  0  0  0  0  0
    7.8934  -17.2955   22.3390 C   0  0  2  0  0  0  0  0  0  0  0  0
    6.9329  -17.9891   23.1013 N   0  0  0  0  0  0  0  0  0  0  0  0
    8.5308  -16.2422   23.1894 C   0  0  0  0  0  0  0  0  0  0  0  0
    7.8788  -15.2542   23.5744 O   0  0  0  0  0  0  0  0  0  0  0  0
    7.8333  -11.2114   20.0831 O   0  0  0  0  0  0  0  0  0  0  0  0
    6.0090  -11.8127   26.6417 C   0  0  0  0  0  0  0  0  0  0  0  0
    6.9763  -12.7805   26.4367 C   0  0  0  0  0  0  0  0  0  0  0  0
    6.9247  -13.5961   25.3290 C   0  0  0  0  0  0  0  0  0  0  0  0
    7.8812  -14.5561   25.1223 C   0  0  0  0  0  0  0  0  0  0  0  0
    8.8923  -14.6839   26.0478 C   0  0  0  0  0  0  0  0  0  0  0  0
    9.9159  -15.7105   25.8279 C   0  0  2  0  0  0  0  0  0  0  0  0
   10.5645  -15.4816   24.4558 N   0  0  0  0  0  0  0  0  0  0  0  0
    9.8738  -16.3861   23.5459 C   0  0  0  0  0  0  0  0  0  0  0  0
   11.9611  -15.9463   24.5787 O   0  0  0  0  0  0  0  0  0  0  0  0
   12.2928  -17.0450   24.0781 C   0  0  0  0  0  0  0  0  0  0  0  0
    8.9515  -13.8750   27.1550 C   0  0  0  0  0  0  0  0  0  0  0  0
    7.9885  -12.9143   27.3557 O   0  0  0  0  0  0  0  0  0  0  0  0
  2  1  1  0
  3  2  1  0
  3  4  1  1
  5  6  2  0
  5  3  1  0
  7  8  1  0
  8  9  2  0
 10 11  1  0
 10  8  1  0
 11 12  1  0
 12 13  1  0
 14 13  1  6
 14 15  1  0
 15  5  1  0
 16 14  1  0
 17 16  2  0
 18 19  1  0
 19 20  2  0
 19 29  1  0
 20 21  1  0
 21 22  2  0
 22 23  1  0
 24 23  1  6
 24 25  1  0
 25 16  1  0
 26 30  1  0
 26 24  1  0
 27 26  2  0
 28 22  1  0
 29 28  2  0
M  END
$$$$
