SRY.pdb
     RDKit          3D

 30 30  0  0  1  0  0  0  0  0999 V2000
    7.4026  -18.8983   24.5592 O   0  0  0  0  0  0  0  0  0  0  0  0
    7.3750  -20.1982   24.0479 C   0  0  0  0  0  0  0  0  0  0  0  0
    7.8069  -20.2232   22.5987 C   0  0  2  0  0  0  0  0  0  0  0  0
    7.9410  -21.6024   22.1719 N   0  0  0  0  0  0  0  0  0  0  0  0
    9.1127  -19.5507   22.3922 C   0  0  0  0  0  0  0  0  0  0  0  0
   10.1837  -20.2071   22.4012 O   0  0  0  0  0  0  0  0  0  0  0  0
    7.6593  -14.0804   17.1186 N   0  0  0  0  0  0  0  0  0  0  0  0
    8.0955  -13.2087   18.1674 C   0  0  0  0  0  0  0  0  0  0  0  0
    7.8562  -11.9431   18.0872 N   0  0  0  0  0  0  0  0  0  0  0  0
    8.7803  -13.7136   19.2818 N   0  0  0  0  0  0  0  0  0  0  0  0
    9.2622  -15.0772   19.2923 C   0  0  0  0  0  0  0  0  0  0  0  0
    9.9085  -15.4203   20.6122 C   0  0  0  0  0  0  0  0  0  0  0  0
   10.5571  -16.8006   20.5858 C   0  0  0  0  0  0  0  0  0  0  0  0
   10.4188  -17.4206   21.9214 C   0  0  2  0  0  0  0  0  0  0  0  0
    9.2449  -18.1570   22.1753 N   0  0  0  0  0  0  0  0  0  0  0  0
   10.6494  -16.4579   23.0433 C   0  0  0  0  0  0  0  0  0  0  0  0
   11.1781  -15.3507   22.8334 O   0  0  0  0  0  0  0  0  0  0  0  0
    8.2540  -11.2608   18.7779 O   0  0  0  0  0  0  0  0  0  0  0  0
    6.0947  -11.5230   27.9491 C   0  0  0  0  0  0  0  0  0  0  0  0
    6.6688  -12.4757   27.1263 C   0  0  0  0  0  0  0  0  0  0  0  0
    7.9811  -12.3557   26.7284 C   0  0  0  0  0  0  0  0  0  0  0  0
    8.5537  -13.2975   25.9132 C   0  0  0  0  0  0  0  0  0  0  0  0
    7.7853  -14.3638   25.5034 C   0  0  0  0  0  0  0  0  0  0  0  0
    8.3965  -15.3718   24.6313 C   0  0  2  0  0  0  0  0  0  0  0  0
    9.6813  -15.8895   25.2923 N   0  0  0  0  0  0  0  0  0  0  0  0
   10.2601  -16.8225   24.3344 C   0  0  0  0  0  0  0  0  0  0  0  0
    9.2519  -16.6654   26.4735 O   0  0  0  0  0  0  0  0  0  0  0  0
    8.8140  -16.0648   27.4812 C   0  0  0  0  0  0  0  0  0  0  0  0
    6.4762  -14.4913   25.8953 C   0  0  0  0  0  0  0  0  0  0  0  0
    5.9087  -13.5427   26.7130 O   0  0  0  0  0  0  0  0  0  0  0  0
  2  1  1  0
  3  2  1  0
  3  4  1  1
  5  6  2  0
  5  3  1  0
  7  8  1  0
  8  9  2  0
 10 11  1  0
 10  8  1  0
 11 12  1  0
 12 13  1  0
 14 13  1  6
 14 15  1  0
 15  5  1  0
 16 14  1  0
 17 16  2  0
 18 19  1  0
 19 20  2  0
 19 29  1  0
 20 21  1  0
 21 22  2  0
 22 23  1  0
 24 23  1  6
 24 25  1  0
 25 16  1  0
 26 30  1  0
 26 24  1  0
 27 26  2  0
 28 22  1  0
 29 28  2  0
M  END
$$$$
