SRY.pdb
     RDKit          3D

 30 30  0  0  1  0  0  0  0  0999 V2000
    8.8258  -12.7360   19.7817 O   0  0  0  0  0  0  0  0  0  0  0  0
    8.5997  -13.3020   21.0389 C   0  0  0  0  0  0  0  0  0  0  0  0
    7.9001  -14.6374   20.9176 C   0  0  2  0  0  0  0  0  0  0  0  0
    6.5439  -14.4171   20.4544 N   0  0  0  0  0  0  0  0  0  0  0  0
    7.8306  -15.3526   22.2151 C   0  0  0  0  0  0  0  0  0  0  0  0
    6.9457  -15.0689   23.0603 O   0  0  0  0  0  0  0  0  0  0  0  0
    9.8693  -20.9158   19.7690 N   0  0  0  0  0  0  0  0  0  0  0  0
    8.5592  -21.3938   20.0929 C   0  0  0  0  0  0  0  0  0  0  0  0
    7.8220  -21.9129   19.1696 N   0  0  0  0  0  0  0  0  0  0  0  0
    8.0663  -21.3047   21.4025 N   0  0  0  0  0  0  0  0  0  0  0  0
    8.8398  -20.6522   22.4359 C   0  0  0  0  0  0  0  0  0  0  0  0
    8.4465  -19.2026   22.5825 C   0  0  0  0  0  0  0  0  0  0  0  0
    9.2002  -18.5214   23.7203 C   0  0  0  0  0  0  0  0  0  0  0  0
    8.7793  -17.1055   23.7938 C   0  0  2  0  0  0  0  0  0  0  0  0
    8.7321  -16.3803   22.5869 N   0  0  0  0  0  0  0  0  0  0  0  0
    9.5408  -16.3178   24.8128 C   0  0  0  0  0  0  0  0  0  0  0  0
   10.6226  -15.7758   24.5202 O   0  0  0  0  0  0  0  0  0  0  0  0
    6.8638  -22.2883   19.3735 O   0  0  0  0  0  0  0  0  0  0  0  0
    6.3730  -10.8595   24.6294 C   0  0  0  0  0  0  0  0  0  0  0  0
    6.9235  -11.8268   25.4515 C   0  0  0  0  0  0  0  0  0  0  0  0
    8.2831  -12.0420   25.4635 C   0  0  0  0  0  0  0  0  0  0  0  0
    8.8324  -12.9994   26.2765 C   0  0  0  0  0  0  0  0  0  0  0  0
    7.9925  -13.7384   27.0788 C   0  0  0  0  0  0  0  0  0  0  0  0
    8.5788  -14.7629   27.9488 C   0  0  2  0  0  0  0  0  0  0  0  0
    9.6911  -15.4909   27.1818 N   0  0  0  0  0  0  0  0  0  0  0  0
    9.0163  -16.1995   26.1021 C   0  0  0  0  0  0  0  0  0  0  0  0
   10.2377  -16.5007   28.1106 O   0  0  0  0  0  0  0  0  0  0  0  0
   10.8654  -16.1285   29.1282 C   0  0  0  0  0  0  0  0  0  0  0  0
    6.6359  -13.5305   27.0732 C   0  0  0  0  0  0  0  0  0  0  0  0
    6.0920  -12.5684   26.2550 O   0  0  0  0  0  0  0  0  0  0  0  0
  2  1  1  0
  3  2  1  0
  3  4  1  1
  5  6  2  0
  5  3  1  0
  7  8  1  0
  8  9  2  0
 10 11  1  0
 10  8  1  0
 11 12  1  0
 12 13  1  0
 14 13  1  6
 14 15  1  0
 15  5  1  0
 16 14  1  0
 17 16  2  0
 18 19  1  0
 19 20  2  0
 19 29  1  0
 20 21  1  0
 21 22  2  0
 22 23  1  0
 24 23  1  6
 24 25  1  0
 25 16  1  0
 26 30  1  0
 26 24  1  0
 27 26  2  0
 28 22  1  0
 29 28  2  0
M  END
$$$$
