SRY.pdb
     RDKit          3D

 30 30  0  0  1  0  0  0  0  0999 V2000
    9.5643  -21.0861   20.0591 O   0  0  0  0  0  0  0  0  0  0  0  0
    8.4058  -20.7530   20.7653 C   0  0  0  0  0  0  0  0  0  0  0  0
    8.7414  -20.1875   22.1274 C   0  0  2  0  0  0  0  0  0  0  0  0
    7.5082  -19.8879   22.8287 N   0  0  0  0  0  0  0  0  0  0  0  0
    9.5315  -18.9358   22.0345 C   0  0  0  0  0  0  0  0  0  0  0  0
   10.7086  -18.9482   21.5958 O   0  0  0  0  0  0  0  0  0  0  0  0
    8.2528  -11.6205   19.9659 N   0  0  0  0  0  0  0  0  0  0  0  0
    8.1994  -12.8723   19.2731 C   0  0  0  0  0  0  0  0  0  0  0  0
    8.6953  -12.9669   18.0854 N   0  0  0  0  0  0  0  0  0  0  0  0
    7.6145  -13.9983   19.8697 N   0  0  0  0  0  0  0  0  0  0  0  0
    7.0857  -13.9262   21.2140 C   0  0  0  0  0  0  0  0  0  0  0  0
    7.8466  -14.8311   22.1518 C   0  0  0  0  0  0  0  0  0  0  0  0
    9.1165  -15.3786   21.5080 C   0  0  0  0  0  0  0  0  0  0  0  0
    9.6873  -16.4225   22.3864 C   0  0  2  0  0  0  0  0  0  0  0  0
    9.0311  -17.6686   22.4227 N   0  0  0  0  0  0  0  0  0  0  0  0
    9.9236  -15.9487   23.7859 C   0  0  0  0  0  0  0  0  0  0  0  0
   10.5335  -14.8856   24.0035 O   0  0  0  0  0  0  0  0  0  0  0  0
    8.6167  -13.8488   17.5225 O   0  0  0  0  0  0  0  0  0  0  0  0
    6.0519  -11.3546   25.6273 C   0  0  0  0  0  0  0  0  0  0  0  0
    6.6070  -12.5831   25.9391 C   0  0  0  0  0  0  0  0  0  0  0  0
    5.9885  -13.7487   25.5470 C   0  0  0  0  0  0  0  0  0  0  0  0
    6.5352  -14.9679   25.8540 C   0  0  0  0  0  0  0  0  0  0  0  0
    7.7153  -14.9973   26.5624 C   0  0  0  0  0  0  0  0  0  0  0  0
    8.3010  -16.3006   26.8915 C   0  0  2  0  0  0  0  0  0  0  0  0
    9.6909  -16.3991   26.2479 N   0  0  0  0  0  0  0  0  0  0  0  0
    9.4467  -16.7208   24.8479 C   0  0  0  0  0  0  0  0  0  0  0  0
   10.3500  -17.5655   26.8696 O   0  0  0  0  0  0  0  0  0  0  0  0
   10.5992  -17.5527   28.0967 C   0  0  0  0  0  0  0  0  0  0  0  0
    8.3386  -13.8400   26.9572 C   0  0  0  0  0  0  0  0  0  0  0  0
    7.7843  -12.6208   26.6457 O   0  0  0  0  0  0  0  0  0  0  0  0
  2  1  1  0
  3  2  1  0
  3  4  1  6
  5  6  2  0
  5  3  1  0
  7  8  1  0
  8  9  2  0
 10 11  1  0
 10  8  1  0
 11 12  1  0
 12 13  1  0
 14 13  1  6
 14 15  1  0
 15  5  1  0
 16 14  1  0
 17 16  2  0
 18 19  1  0
 19 20  2  0
 19 29  1  0
 20 21  1  0
 21 22  2  0
 22 23  1  0
 24 23  1  6
 24 25  1  0
 25 16  1  0
 26 30  1  0
 26 24  1  0
 27 26  2  0
 28 22  1  0
 29 28  2  0
M  END
$$$$
