SRY.pdb
     RDKit          3D

 30 30  0  0  1  0  0  0  0  0999 V2000
    9.7519  -15.3480   18.8281 O   0  0  0  0  0  0  0  0  0  0  0  0
    8.8338  -15.0264   17.8254 C   0  0  0  0  0  0  0  0  0  0  0  0
    7.5389  -14.5144   18.4158 C   0  0  2  0  0  0  0  0  0  0  0  0
    7.4678  -13.0796   18.2196 N   0  0  0  0  0  0  0  0  0  0  0  0
    7.4426  -14.7831   19.8713 C   0  0  0  0  0  0  0  0  0  0  0  0
    7.8935  -13.9625   20.7089 O   0  0  0  0  0  0  0  0  0  0  0  0
    7.6447  -21.5631   21.7635 N   0  0  0  0  0  0  0  0  0  0  0  0
    7.5262  -21.5481   23.1903 C   0  0  0  0  0  0  0  0  0  0  0  0
    8.2636  -22.3335   23.9009 N   0  0  0  0  0  0  0  0  0  0  0  0
    6.6180  -20.6897   23.8259 N   0  0  0  0  0  0  0  0  0  0  0  0
    5.8347  -19.7484   23.0563 C   0  0  0  0  0  0  0  0  0  0  0  0
    6.6022  -18.4737   22.8038 C   0  0  0  0  0  0  0  0  0  0  0  0
    5.7663  -17.4477   22.0452 C   0  0  0  0  0  0  0  0  0  0  0  0
    6.6042  -16.2625   21.7616 C   0  0  2  0  0  0  0  0  0  0  0  0
    6.8515  -15.9525   20.4097 N   0  0  0  0  0  0  0  0  0  0  0  0
    7.8988  -16.2644   22.5118 C   0  0  0  0  0  0  0  0  0  0  0  0
    8.8702  -16.9270   22.1034 O   0  0  0  0  0  0  0  0  0  0  0  0
    8.1742  -22.3803   24.9452 O   0  0  0  0  0  0  0  0  0  0  0  0
    5.2767  -11.5862   27.4569 C   0  0  0  0  0  0  0  0  0  0  0  0
    6.3144  -12.1461   26.7330 C   0  0  0  0  0  0  0  0  0  0  0  0
    6.2890  -12.1399   25.3567 C   0  0  0  0  0  0  0  0  0  0  0  0
    7.3152  -12.6936   24.6359 C   0  0  0  0  0  0  0  0  0  0  0  0
    8.3693  -13.2546   25.3210 C   0  0  0  0  0  0  0  0  0  0  0  0
    9.4675  -13.8473   24.5511 C   0  0  1  0  0  0  0  0  0  0  0  0
    9.2369  -15.3605   24.4381 N   0  0  0  0  0  0  0  0  0  0  0  0
    8.0003  -15.5077   23.6817 C   0  0  0  0  0  0  0  0  0  0  0  0
    8.9846  -15.8414   25.8116 O   0  0  0  0  0  0  0  0  0  0  0  0
    7.8307  -16.2023   26.1375 C   0  0  0  0  0  0  0  0  0  0  0  0
    8.4028  -13.2651   26.6930 C   0  0  0  0  0  0  0  0  0  0  0  0
    7.3698  -12.7078   27.4094 O   0  0  0  0  0  0  0  0  0  0  0  0
  2  1  1  0
  3  2  1  0
  3  4  1  1
  5  6  2  0
  5  3  1  0
  7  8  1  0
  8  9  2  0
 10 11  1  0
 10  8  1  0
 11 12  1  0
 12 13  1  0
 14 13  1  6
 14 15  1  0
 15  5  1  0
 16 14  1  0
 17 16  2  0
 18 19  1  0
 19 20  2  0
 19 29  1  0
 20 21  1  0
 21 22  2  0
 22 23  1  0
 24 23  1  6
 24 25  1  0
 25 16  1  0
 26 30  1  0
 26 24  1  0
 27 26  2  0
 28 22  1  0
 29 28  2  0
M  END
$$$$
