SRY.pdb
     RDKit          3D

 30 30  0  0  1  0  0  0  0  0999 V2000
   10.4788  -13.4483   18.0309 O   0  0  0  0  0  0  0  0  0  0  0  0
    9.8163  -13.4675   19.2607 C   0  0  0  0  0  0  0  0  0  0  0  0
    8.3604  -13.8401   19.0898 C   0  0  2  0  0  0  0  0  0  0  0  0
    7.6575  -12.7245   18.4867 N   0  0  0  0  0  0  0  0  0  0  0  0
    7.7059  -14.1482   20.3846 C   0  0  0  0  0  0  0  0  0  0  0  0
    7.0231  -13.2804   20.9836 O   0  0  0  0  0  0  0  0  0  0  0  0
    6.1622  -20.0067   25.2905 N   0  0  0  0  0  0  0  0  0  0  0  0
    7.0543  -20.7555   24.4578 C   0  0  0  0  0  0  0  0  0  0  0  0
    7.9283  -21.5364   24.9978 N   0  0  0  0  0  0  0  0  0  0  0  0
    6.9901  -20.6508   23.0611 N   0  0  0  0  0  0  0  0  0  0  0  0
    6.3035  -19.5405   22.4382 C   0  0  0  0  0  0  0  0  0  0  0  0
    7.0698  -18.2526   22.6159 C   0  0  0  0  0  0  0  0  0  0  0  0
    6.2941  -17.0517   22.0840 C   0  0  0  0  0  0  0  0  0  0  0  0
    7.1443  -15.8463   22.1918 C   0  0  2  0  0  0  0  0  0  0  0  0
    7.7994  -15.4090   21.0237 N   0  0  0  0  0  0  0  0  0  0  0  0
    8.1328  -15.9223   23.3125 C   0  0  0  0  0  0  0  0  0  0  0  0
    9.3096  -16.2685   23.1009 O   0  0  0  0  0  0  0  0  0  0  0  0
    8.6166  -22.0783   24.4204 O   0  0  0  0  0  0  0  0  0  0  0  0
    6.2042   -9.8204   25.8939 C   0  0  0  0  0  0  0  0  0  0  0  0
    6.5893  -11.1246   26.1489 C   0  0  0  0  0  0  0  0  0  0  0  0
    7.8524  -11.5580   25.8147 C   0  0  0  0  0  0  0  0  0  0  0  0
    8.2378  -12.8495   26.0658 C   0  0  0  0  0  0  0  0  0  0  0  0
    7.3324  -13.7001   26.6591 C   0  0  0  0  0  0  0  0  0  0  0  0
    7.7434  -15.0817   26.9280 C   0  0  2  0  0  0  0  0  0  0  0  0
    8.6018  -15.5828   25.7585 N   0  0  0  0  0  0  0  0  0  0  0  0
    7.7126  -15.5967   24.6043 C   0  0  0  0  0  0  0  0  0  0  0  0
    8.9507  -16.9826   26.0751 O   0  0  0  0  0  0  0  0  0  0  0  0
    8.4085  -17.9137   25.4373 C   0  0  0  0  0  0  0  0  0  0  0  0
    6.0711  -13.2763   26.9955 C   0  0  0  0  0  0  0  0  0  0  0  0
    5.6916  -11.9795   26.7407 O   0  0  0  0  0  0  0  0  0  0  0  0
  2  1  1  0
  3  2  1  0
  3  4  1  1
  5  6  2  0
  5  3  1  0
  7  8  1  0
  8  9  2  0
 10 11  1  0
 10  8  1  0
 11 12  1  0
 12 13  1  0
 14 13  1  6
 14 15  1  0
 15  5  1  0
 16 14  1  0
 17 16  2  0
 18 19  1  0
 19 20  2  0
 19 29  1  0
 20 21  1  0
 21 22  2  0
 22 23  1  0
 24 23  1  6
 24 25  1  0
 25 16  1  0
 26 30  1  0
 26 24  1  0
 27 26  2  0
 28 22  1  0
 29 28  2  0
M  END
$$$$
