SRY.pdb
     RDKit          3D

 30 30  0  0  1  0  0  0  0  0999 V2000
    6.3657  -13.0537   20.5584 O   0  0  0  0  0  0  0  0  0  0  0  0
    7.5169  -12.2769   20.4065 C   0  0  0  0  0  0  0  0  0  0  0  0
    8.5169  -12.9563   19.4976 C   0  0  2  0  0  0  0  0  0  0  0  0
    7.9309  -13.1011   18.1793 N   0  0  0  0  0  0  0  0  0  0  0  0
    8.8885  -14.3070   19.9848 C   0  0  0  0  0  0  0  0  0  0  0  0
    8.5808  -15.3346   19.3310 O   0  0  0  0  0  0  0  0  0  0  0  0
   14.5480  -14.1930   18.5488 N   0  0  0  0  0  0  0  0  0  0  0  0
   13.8987  -15.3350   17.9794 C   0  0  0  0  0  0  0  0  0  0  0  0
   13.8388  -15.4623   16.6966 N   0  0  0  0  0  0  0  0  0  0  0  0
   13.3265  -16.3180   18.7991 N   0  0  0  0  0  0  0  0  0  0  0  0
   13.4191  -16.2191   20.2391 C   0  0  0  0  0  0  0  0  0  0  0  0
   12.2134  -15.5215   20.8196 C   0  0  0  0  0  0  0  0  0  0  0  0
   11.0854  -16.5000   21.1306 C   0  0  0  0  0  0  0  0  0  0  0  0
    9.9724  -15.7619   21.7661 C   0  0  2  0  0  0  0  0  0  0  0  0
    9.5983  -14.5319   21.1899 N   0  0  0  0  0  0  0  0  0  0  0  0
   10.1525  -15.5813   23.2404 C   0  0  0  0  0  0  0  0  0  0  0  0
   10.9825  -14.7672   23.6853 O   0  0  0  0  0  0  0  0  0  0  0  0
   13.4151  -16.3090   16.2446 O   0  0  0  0  0  0  0  0  0  0  0  0
    6.5133  -10.7218   25.9403 C   0  0  0  0  0  0  0  0  0  0  0  0
    6.8800  -12.0556   25.9666 C   0  0  0  0  0  0  0  0  0  0  0  0
    7.5520  -12.5740   27.0504 C   0  0  0  0  0  0  0  0  0  0  0  0
    7.9171  -13.8951   27.0804 C   0  0  0  0  0  0  0  0  0  0  0  0
    7.5957  -14.6885   26.0022 C   0  0  0  0  0  0  0  0  0  0  0  0
    7.9858  -16.1016   26.0329 C   0  0  2  0  0  0  0  0  0  0  0  0
    9.4417  -16.2269   25.5634 N   0  0  0  0  0  0  0  0  0  0  0  0
    9.3714  -16.3432   24.1127 C   0  0  0  0  0  0  0  0  0  0  0  0
    9.9355  -17.5134   26.0949 O   0  0  0  0  0  0  0  0  0  0  0  0
   10.1391  -17.6366   27.3242 C   0  0  0  0  0  0  0  0  0  0  0  0
    6.9259  -14.1799   24.9176 C   0  0  0  0  0  0  0  0  0  0  0  0
    6.5630  -12.8538   24.8946 O   0  0  0  0  0  0  0  0  0  0  0  0
  2  1  1  0
  3  2  1  0
  3  4  1  6
  5  6  2  0
  5  3  1  0
  7  8  1  0
  8  9  2  0
 10 11  1  0
 10  8  1  0
 11 12  1  0
 12 13  1  0
 14 13  1  6
 14 15  1  0
 15  5  1  0
 16 14  1  0
 17 16  2  0
 18 19  1  0
 19 20  2  0
 19 29  1  0
 20 21  1  0
 21 22  2  0
 22 23  1  0
 24 23  1  6
 24 25  1  0
 25 16  1  0
 26 30  1  0
 26 24  1  0
 27 26  2  0
 28 22  1  0
 29 28  2  0
M  END
$$$$
