SRY.pdb
     RDKit          3D

 30 30  0  0  1  0  0  0  0  0999 V2000
    9.9323  -13.3618   20.0276 O   0  0  0  0  0  0  0  0  0  0  0  0
    9.1181  -14.0373   19.1151 C   0  0  0  0  0  0  0  0  0  0  0  0
    7.6593  -13.9226   19.4975 C   0  0  2  0  0  0  0  0  0  0  0  0
    7.2942  -12.5201   19.5428 N   0  0  0  0  0  0  0  0  0  0  0  0
    7.3820  -14.5115   20.8302 C   0  0  0  0  0  0  0  0  0  0  0  0
    7.2229  -13.7784   21.8378 O   0  0  0  0  0  0  0  0  0  0  0  0
    2.4497  -20.1801   22.2760 N   0  0  0  0  0  0  0  0  0  0  0  0
    2.5330  -19.8238   20.8918 C   0  0  0  0  0  0  0  0  0  0  0  0
    1.4509  -19.6513   20.2102 N   0  0  0  0  0  0  0  0  0  0  0  0
    3.7773  -19.6598   20.2668 N   0  0  0  0  0  0  0  0  0  0  0  0
    4.9871  -19.5592   21.0531 C   0  0  0  0  0  0  0  0  0  0  0  0
    5.3465  -18.1190   21.3248 C   0  0  0  0  0  0  0  0  0  0  0  0
    6.6044  -17.9984   22.1791 C   0  0  0  0  0  0  0  0  0  0  0  0
    6.9899  -16.5732   22.2657 C   0  0  2  0  0  0  0  0  0  0  0  0
    7.2790  -15.9057   21.0591 N   0  0  0  0  0  0  0  0  0  0  0  0
    8.0926  -16.3208   23.2452 C   0  0  0  0  0  0  0  0  0  0  0  0
    9.2815  -16.3115   22.8767 O   0  0  0  0  0  0  0  0  0  0  0  0
    1.4722  -19.4608   19.1787 O   0  0  0  0  0  0  0  0  0  0  0  0
    6.9720  -10.0118   25.9370 C   0  0  0  0  0  0  0  0  0  0  0  0
    7.2308  -11.3516   26.1658 C   0  0  0  0  0  0  0  0  0  0  0  0
    8.4269  -11.7472   26.7206 C   0  0  0  0  0  0  0  0  0  0  0  0
    8.6870  -13.0737   26.9488 C   0  0  0  0  0  0  0  0  0  0  0  0
    7.7247  -13.9981   26.6103 C   0  0  0  0  0  0  0  0  0  0  0  0
    8.0018  -15.4172   26.8538 C   0  0  2  0  0  0  0  0  0  0  0  0
    8.7565  -15.9917   25.6471 N   0  0  0  0  0  0  0  0  0  0  0  0
    7.7652  -16.0944   24.5842 C   0  0  0  0  0  0  0  0  0  0  0  0
    9.1542  -17.3627   26.0259 O   0  0  0  0  0  0  0  0  0  0  0  0
   10.0501  -17.5311   26.8844 C   0  0  0  0  0  0  0  0  0  0  0  0
    6.5295  -13.6124   26.0567 C   0  0  0  0  0  0  0  0  0  0  0  0
    6.2755  -12.2801   25.8306 O   0  0  0  0  0  0  0  0  0  0  0  0
  2  1  1  0
  3  2  1  0
  3  4  1  1
  5  6  2  0
  5  3  1  0
  7  8  1  0
  8  9  2  0
 10 11  1  0
 10  8  1  0
 11 12  1  0
 12 13  1  0
 14 13  1  6
 14 15  1  0
 15  5  1  0
 16 14  1  0
 17 16  2  0
 18 19  1  0
 19 20  2  0
 19 29  1  0
 20 21  1  0
 21 22  2  0
 22 23  1  0
 24 23  1  6
 24 25  1  0
 25 16  1  0
 26 30  1  0
 26 24  1  0
 27 26  2  0
 28 22  1  0
 29 28  2  0
M  END
$$$$
