SRY.pdb
     RDKit          3D

 30 30  0  0  1  0  0  0  0  0999 V2000
   12.1751  -19.4978   22.3083 O   0  0  0  0  0  0  0  0  0  0  0  0
   11.8350  -19.2930   20.9688 C   0  0  0  0  0  0  0  0  0  0  0  0
   12.0387  -17.8484   20.5696 C   0  0  2  0  0  0  0  0  0  0  0  0
   13.4494  -17.5280   20.6681 N   0  0  0  0  0  0  0  0  0  0  0  0
   11.2942  -16.9144   21.4489 C   0  0  0  0  0  0  0  0  0  0  0  0
   11.8565  -16.3670   22.4298 O   0  0  0  0  0  0  0  0  0  0  0  0
    9.0594  -13.7004   16.5576 N   0  0  0  0  0  0  0  0  0  0  0  0
    8.2728  -13.2866   17.6801 C   0  0  0  0  0  0  0  0  0  0  0  0
    8.6699  -12.2986   18.4091 N   0  0  0  0  0  0  0  0  0  0  0  0
    7.0748  -13.9422   17.9975 N   0  0  0  0  0  0  0  0  0  0  0  0
    6.8178  -14.3899   19.3486 C   0  0  0  0  0  0  0  0  0  0  0  0
    8.0941  -14.7963   20.0438 C   0  0  0  0  0  0  0  0  0  0  0  0
    7.8350  -15.2958   21.4616 C   0  0  0  0  0  0  0  0  0  0  0  0
    9.1123  -15.7550   22.0487 C   0  0  2  0  0  0  0  0  0  0  0  0
    9.9317  -16.5798   21.2531 N   0  0  0  0  0  0  0  0  0  0  0  0
    8.9484  -16.3783   23.3991 C   0  0  0  0  0  0  0  0  0  0  0  0
    9.1069  -17.6026   23.5585 O   0  0  0  0  0  0  0  0  0  0  0  0
    8.1803  -12.0371   19.2994 O   0  0  0  0  0  0  0  0  0  0  0  0
   11.7521  -14.7450   30.7519 C   0  0  0  0  0  0  0  0  0  0  0  0
   10.8121  -14.7716   29.7369 C   0  0  0  0  0  0  0  0  0  0  0  0
   10.0058  -15.8733   29.5604 C   0  0  0  0  0  0  0  0  0  0  0  0
    9.0733  -15.9036   28.5559 C   0  0  0  0  0  0  0  0  0  0  0  0
    8.9635  -14.8076   27.7302 C   0  0  0  0  0  0  0  0  0  0  0  0
    7.9666  -14.8388   26.6554 C   0  0  2  0  0  0  0  0  0  0  0  0
    8.2124  -16.0780   25.7837 N   0  0  0  0  0  0  0  0  0  0  0  0
    8.6139  -15.5614   24.4818 C   0  0  0  0  0  0  0  0  0  0  0  0
    6.8990  -16.7340   25.6223 O   0  0  0  0  0  0  0  0  0  0  0  0
    6.4463  -17.4459   26.5476 C   0  0  0  0  0  0  0  0  0  0  0  0
    9.7633  -13.7051   27.8991 C   0  0  0  0  0  0  0  0  0  0  0  0
   10.6965  -13.6818   28.9087 O   0  0  0  0  0  0  0  0  0  0  0  0
  2  1  1  0
  3  2  1  0
  3  4  1  1
  5  6  2  0
  5  3  1  0
  7  8  1  0
  8  9  2  0
 10 11  1  0
 10  8  1  0
 11 12  1  0
 12 13  1  0
 14 13  1  6
 14 15  1  0
 15  5  1  0
 16 14  1  0
 17 16  2  0
 18 19  1  0
 19 20  2  0
 19 29  1  0
 20 21  1  0
 21 22  2  0
 22 23  1  0
 24 23  1  1
 24 25  1  0
 25 16  1  0
 26 30  1  0
 26 24  1  0
 27 26  2  0
 28 22  1  0
 29 28  2  0
M  END
$$$$
