SRY.pdb
     RDKit          3D

 30 30  0  0  1  0  0  0  0  0999 V2000
    9.9505  -11.4874   18.3439 O   0  0  0  0  0  0  0  0  0  0  0  0
    9.6807  -12.3632   19.3984 C   0  0  0  0  0  0  0  0  0  0  0  0
    9.0222  -13.6302   18.8997 C   0  0  2  0  0  0  0  0  0  0  0  0
    7.6556  -13.3309   18.5187 N   0  0  0  0  0  0  0  0  0  0  0  0
    8.9870  -14.6887   19.9380 C   0  0  0  0  0  0  0  0  0  0  0  0
    7.9943  -14.8127   20.6979 O   0  0  0  0  0  0  0  0  0  0  0  0
   11.9410  -21.9887   17.6865 N   0  0  0  0  0  0  0  0  0  0  0  0
   10.6705  -21.4501   17.3047 C   0  0  0  0  0  0  0  0  0  0  0  0
   10.0129  -21.9906   16.3347 N   0  0  0  0  0  0  0  0  0  0  0  0
   10.1312  -20.3415   17.9724 N   0  0  0  0  0  0  0  0  0  0  0  0
   10.8463  -19.7237   19.0673 C   0  0  0  0  0  0  0  0  0  0  0  0
   10.1102  -18.5146   19.5903 C   0  0  0  0  0  0  0  0  0  0  0  0
   10.8443  -17.8633   20.7582 C   0  0  0  0  0  0  0  0  0  0  0  0
   10.1430  -16.6150   21.1286 C   0  0  2  0  0  0  0  0  0  0  0  0
   10.0409  -15.6126   20.1440 N   0  0  0  0  0  0  0  0  0  0  0  0
   10.6524  -16.0090   22.3983 C   0  0  0  0  0  0  0  0  0  0  0  0
   11.6576  -15.2748   22.3947 O   0  0  0  0  0  0  0  0  0  0  0  0
    9.1074  -21.5885   15.9896 O   0  0  0  0  0  0  0  0  0  0  0  0
   10.4185  -14.4964   31.0059 C   0  0  0  0  0  0  0  0  0  0  0  0
   10.0897  -14.7980   29.6962 C   0  0  0  0  0  0  0  0  0  0  0  0
    9.9969  -16.1079   29.2832 C   0  0  0  0  0  0  0  0  0  0  0  0
    9.6714  -16.4109   27.9865 C   0  0  0  0  0  0  0  0  0  0  0  0
    9.4402  -15.3751   27.1096 C   0  0  0  0  0  0  0  0  0  0  0  0
    9.0921  -15.6979   25.7222 C   0  0  1  0  0  0  0  0  0  0  0  0
   10.3755  -15.7292   24.8809 N   0  0  0  0  0  0  0  0  0  0  0  0
    9.9793  -16.2809   23.5918 C   0  0  0  0  0  0  0  0  0  0  0  0
   11.2705  -16.7065   25.5330 O   0  0  0  0  0  0  0  0  0  0  0  0
   11.0709  -17.9318   25.3697 C   0  0  0  0  0  0  0  0  0  0  0  0
    9.5306  -14.0663   27.5128 C   0  0  0  0  0  0  0  0  0  0  0  0
    9.8576  -13.7700   28.8151 O   0  0  0  0  0  0  0  0  0  0  0  0
  2  1  1  0
  3  2  1  0
  3  4  1  1
  5  6  2  0
  5  3  1  0
  7  8  1  0
  8  9  2  0
 10 11  1  0
 10  8  1  0
 11 12  1  0
 12 13  1  0
 14 13  1  6
 14 15  1  0
 15  5  1  0
 16 14  1  0
 17 16  2  0
 18 19  1  0
 19 20  2  0
 19 29  1  0
 20 21  1  0
 21 22  2  0
 22 23  1  0
 24 23  1  6
 24 25  1  0
 25 16  1  0
 26 30  1  0
 26 24  1  0
 27 26  2  0
 28 22  1  0
 29 28  2  0
M  END
$$$$
