SRY.pdb
     RDKit          3D

 30 30  0  0  1  0  0  0  0  0999 V2000
    6.5632  -18.6486   24.2967 O   0  0  0  0  0  0  0  0  0  0  0  0
    5.6912  -18.5449   23.2101 C   0  0  0  0  0  0  0  0  0  0  0  0
    6.4516  -18.4980   21.9035 C   0  0  2  0  0  0  0  0  0  0  0  0
    7.0049  -19.8110   21.6345 N   0  0  0  0  0  0  0  0  0  0  0  0
    7.5727  -17.5278   21.9430 C   0  0  0  0  0  0  0  0  0  0  0  0
    8.7622  -17.9214   22.0335 O   0  0  0  0  0  0  0  0  0  0  0  0
    9.6107  -14.7211   17.4665 N   0  0  0  0  0  0  0  0  0  0  0  0
    8.5889  -13.9339   16.8452 C   0  0  0  0  0  0  0  0  0  0  0  0
    8.7968  -13.4228   15.6786 N   0  0  0  0  0  0  0  0  0  0  0  0
    7.3635  -13.7112   17.4892 N   0  0  0  0  0  0  0  0  0  0  0  0
    7.3251  -13.3280   18.8833 C   0  0  0  0  0  0  0  0  0  0  0  0
    8.2503  -14.1840   19.7130 C   0  0  0  0  0  0  0  0  0  0  0  0
    8.1317  -13.8717   21.2014 C   0  0  0  0  0  0  0  0  0  0  0  0
    8.3664  -15.1124   21.9715 C   0  0  2  0  0  0  0  0  0  0  0  0
    7.3901  -16.1242   21.8830 N   0  0  0  0  0  0  0  0  0  0  0  0
    8.6853  -14.8594   23.4113 C   0  0  0  0  0  0  0  0  0  0  0  0
    8.4053  -13.7693   23.9432 O   0  0  0  0  0  0  0  0  0  0  0  0
    8.0992  -12.7857   15.2223 O   0  0  0  0  0  0  0  0  0  0  0  0
    5.6400  -11.0582   26.7589 C   0  0  0  0  0  0  0  0  0  0  0  0
    6.2775  -12.2800   26.6366 C   0  0  0  0  0  0  0  0  0  0  0  0
    7.4706  -12.5130   27.2825 C   0  0  0  0  0  0  0  0  0  0  0  0
    8.1055  -13.7223   27.1639 C   0  0  0  0  0  0  0  0  0  0  0  0
    7.5215  -14.6955   26.3847 C   0  0  0  0  0  0  0  0  0  0  0  0
    8.1996  -15.9893   26.2570 C   0  0  2  0  0  0  0  0  0  0  0  0
    9.5614  -15.7737   25.5827 N   0  0  0  0  0  0  0  0  0  0  0  0
    9.3037  -15.8696   24.1517 C   0  0  0  0  0  0  0  0  0  0  0  0
   10.3981  -16.9281   25.9680 O   0  0  0  0  0  0  0  0  0  0  0  0
   10.7912  -17.0383   27.1517 C   0  0  0  0  0  0  0  0  0  0  0  0
    6.3322  -14.4717   25.7373 C   0  0  0  0  0  0  0  0  0  0  0  0
    5.7012  -13.2562   25.8609 O   0  0  0  0  0  0  0  0  0  0  0  0
  2  1  1  0
  3  2  1  0
  3  4  1  1
  5  6  2  0
  5  3  1  0
  7  8  1  0
  8  9  2  0
 10 11  1  0
 10  8  1  0
 11 12  1  0
 12 13  1  0
 14 13  1  1
 14 15  1  0
 15  5  1  0
 16 14  1  0
 17 16  2  0
 18 19  1  0
 19 20  2  0
 19 29  1  0
 20 21  1  0
 21 22  2  0
 22 23  1  0
 24 23  1  6
 24 25  1  0
 25 16  1  0
 26 30  1  0
 26 24  1  0
 27 26  2  0
 28 22  1  0
 29 28  2  0
M  END
$$$$
