SRY.pdb
     RDKit          3D

 30 30  0  0  1  0  0  0  0  0999 V2000
   10.4239  -14.4159   18.5987 O   0  0  0  0  0  0  0  0  0  0  0  0
    9.3879  -14.7721   17.7317 C   0  0  0  0  0  0  0  0  0  0  0  0
    8.0726  -14.1749   18.1798 C   0  0  2  0  0  0  0  0  0  0  0  0
    8.0796  -12.7538   17.8924 N   0  0  0  0  0  0  0  0  0  0  0  0
    7.8469  -14.3469   19.6356 C   0  0  0  0  0  0  0  0  0  0  0  0
    8.3194  -13.5270   20.4618 O   0  0  0  0  0  0  0  0  0  0  0  0
    7.9898  -20.0948   22.9919 N   0  0  0  0  0  0  0  0  0  0  0  0
    7.4155  -20.8202   21.8993 C   0  0  0  0  0  0  0  0  0  0  0  0
    8.0835  -21.7750   21.3448 N   0  0  0  0  0  0  0  0  0  0  0  0
    6.1346  -20.5058   21.4236 N   0  0  0  0  0  0  0  0  0  0  0  0
    5.5207  -19.2373   21.7492 C   0  0  0  0  0  0  0  0  0  0  0  0
    6.4725  -18.0905   21.5119 C   0  0  0  0  0  0  0  0  0  0  0  0
    5.8325  -16.7442   21.8355 C   0  0  0  0  0  0  0  0  0  0  0  0
    6.8038  -15.6687   21.5407 C   0  0  2  0  0  0  0  0  0  0  0  0
    7.1024  -15.4187   20.1868 N   0  0  0  0  0  0  0  0  0  0  0  0
    8.0799  -15.8015   22.3107 C   0  0  0  0  0  0  0  0  0  0  0  0
    9.1006  -16.2715   21.7750 O   0  0  0  0  0  0  0  0  0  0  0  0
    7.6889  -22.3373   20.5518 O   0  0  0  0  0  0  0  0  0  0  0  0
    4.7804  -12.3817   27.5047 C   0  0  0  0  0  0  0  0  0  0  0  0
    5.9494  -12.7964   26.8917 C   0  0  0  0  0  0  0  0  0  0  0  0
    6.1342  -12.6085   25.5406 C   0  0  0  0  0  0  0  0  0  0  0  0
    7.2910  -13.0180   24.9294 C   0  0  0  0  0  0  0  0  0  0  0  0
    8.2610  -13.6202   25.6987 C   0  0  0  0  0  0  0  0  0  0  0  0
    9.4987  -14.0587   25.0462 C   0  0  1  0  0  0  0  0  0  0  0  0
    9.2932  -15.4734   24.4875 N   0  0  0  0  0  0  0  0  0  0  0  0
    8.1077  -15.3878   23.6447 C   0  0  0  0  0  0  0  0  0  0  0  0
    8.9618  -16.3284   25.6453 O   0  0  0  0  0  0  0  0  0  0  0  0
    7.8063  -16.7980   25.7557 C   0  0  0  0  0  0  0  0  0  0  0  0
    8.0850  -13.8114   27.0463 C   0  0  0  0  0  0  0  0  0  0  0  0
    6.9220  -13.3982   27.6525 O   0  0  0  0  0  0  0  0  0  0  0  0
  2  1  1  0
  3  2  1  0
  3  4  1  1
  5  6  2  0
  5  3  1  0
  7  8  1  0
  8  9  2  0
 10 11  1  0
 10  8  1  0
 11 12  1  0
 12 13  1  0
 14 13  1  6
 14 15  1  0
 15  5  1  0
 16 14  1  0
 17 16  2  0
 18 19  1  0
 19 20  2  0
 19 29  1  0
 20 21  1  0
 21 22  2  0
 22 23  1  0
 24 23  1  6
 24 25  1  0
 25 16  1  0
 26 30  1  0
 26 24  1  0
 27 26  2  0
 28 22  1  0
 29 28  2  0
M  END
$$$$
