SRY.pdb
     RDKit          3D

 30 30  0  0  1  0  0  0  0  0999 V2000
    5.0346  -18.7489   24.6725 O   0  0  0  0  0  0  0  0  0  0  0  0
    4.2676  -18.3583   23.5721 C   0  0  0  0  0  0  0  0  0  0  0  0
    4.9424  -18.7413   22.2738 C   0  0  2  0  0  0  0  0  0  0  0  0
    5.2237  -20.1635   22.2921 N   0  0  0  0  0  0  0  0  0  0  0  0
    6.2250  -18.0230   22.0766 C   0  0  0  0  0  0  0  0  0  0  0  0
    7.3152  -18.5470   22.4154 O   0  0  0  0  0  0  0  0  0  0  0  0
    9.2224  -13.7786   15.9241 N   0  0  0  0  0  0  0  0  0  0  0  0
    8.2035  -13.2027   16.7488 C   0  0  0  0  0  0  0  0  0  0  0  0
    7.4341  -12.2855   16.2669 N   0  0  0  0  0  0  0  0  0  0  0  0
    8.0309  -13.6233   18.0751 N   0  0  0  0  0  0  0  0  0  0  0  0
    9.1662  -13.7347   18.9643 C   0  0  0  0  0  0  0  0  0  0  0  0
    8.7325  -14.0891   20.3656 C   0  0  0  0  0  0  0  0  0  0  0  0
    7.3930  -14.8188   20.3787 C   0  0  0  0  0  0  0  0  0  0  0  0
    7.4503  -15.9075   21.3781 C   0  0  2  0  0  0  0  0  0  0  0  0
    6.3129  -16.7288   21.5073 N   0  0  0  0  0  0  0  0  0  0  0  0
    7.8770  -15.4393   22.7337 C   0  0  0  0  0  0  0  0  0  0  0  0
    7.1443  -14.6935   23.4094 O   0  0  0  0  0  0  0  0  0  0  0  0
    6.6744  -11.8442   16.8403 O   0  0  0  0  0  0  0  0  0  0  0  0
   10.5644  -14.8580   30.6761 C   0  0  0  0  0  0  0  0  0  0  0  0
   10.0911  -15.1412   29.4072 C   0  0  0  0  0  0  0  0  0  0  0  0
    9.5111  -14.1549   28.6418 C   0  0  0  0  0  0  0  0  0  0  0  0
    9.0409  -14.4315   27.3841 C   0  0  0  0  0  0  0  0  0  0  0  0
    9.1628  -15.7170   26.9068 C   0  0  0  0  0  0  0  0  0  0  0  0
    8.6601  -16.0141   25.5618 C   0  0  1  0  0  0  0  0  0  0  0  0
    9.6388  -15.4428   24.5266 N   0  0  0  0  0  0  0  0  0  0  0  0
    9.1147  -15.8544   23.2308 C   0  0  0  0  0  0  0  0  0  0  0  0
   10.9192  -16.1476   24.7390 O   0  0  0  0  0  0  0  0  0  0  0  0
   11.7595  -15.6747   25.5378 C   0  0  0  0  0  0  0  0  0  0  0  0
    9.7396  -16.7064   27.6631 C   0  0  0  0  0  0  0  0  0  0  0  0
   10.2090  -16.4215   28.9238 O   0  0  0  0  0  0  0  0  0  0  0  0
  2  1  1  0
  3  2  1  0
  3  4  1  1
  5  6  2  0
  5  3  1  0
  7  8  1  0
  8  9  2  0
 10 11  1  0
 10  8  1  0
 11 12  1  0
 12 13  1  0
 14 13  1  6
 14 15  1  0
 15  5  1  0
 16 14  1  0
 17 16  2  0
 18 19  1  0
 19 20  2  0
 19 29  1  0
 20 21  1  0
 21 22  2  0
 22 23  1  0
 24 23  1  6
 24 25  1  0
 25 16  1  0
 26 30  1  0
 26 24  1  0
 27 26  2  0
 28 22  1  0
 29 28  2  0
M  END
$$$$
