SRY.pdb
     RDKit          3D

 30 30  0  0  1  0  0  0  0  0999 V2000
    9.6138  -12.3843   20.5210 O   0  0  0  0  0  0  0  0  0  0  0  0
    9.2228  -13.0601   19.3624 C   0  0  0  0  0  0  0  0  0  0  0  0
    7.8087  -13.5822   19.4870 C   0  0  2  0  0  0  0  0  0  0  0  0
    6.9057  -12.4593   19.6484 N   0  0  0  0  0  0  0  0  0  0  0  0
    7.6432  -14.4755   20.6593 C   0  0  0  0  0  0  0  0  0  0  0  0
    7.0466  -14.0797   21.6915 O   0  0  0  0  0  0  0  0  0  0  0  0
    7.2774  -20.2804   18.9815 N   0  0  0  0  0  0  0  0  0  0  0  0
    7.6907  -21.1588   20.0339 C   0  0  0  0  0  0  0  0  0  0  0  0
    7.2511  -22.3717   20.0635 N   0  0  0  0  0  0  0  0  0  0  0  0
    8.5683  -20.7170   21.0342 N   0  0  0  0  0  0  0  0  0  0  0  0
    8.0910  -20.4818   22.3791 C   0  0  0  0  0  0  0  0  0  0  0  0
    7.8866  -19.0094   22.6388 C   0  0  0  0  0  0  0  0  0  0  0  0
    8.2323  -18.1634   21.4175 C   0  0  0  0  0  0  0  0  0  0  0  0
    8.0406  -16.7359   21.7536 C   0  0  2  0  0  0  0  0  0  0  0  0
    8.1322  -15.8045   20.7006 N   0  0  0  0  0  0  0  0  0  0  0  0
    8.8981  -16.2795   22.8916 C   0  0  0  0  0  0  0  0  0  0  0  0
   10.1191  -16.0952   22.7345 O   0  0  0  0  0  0  0  0  0  0  0  0
    7.4894  -23.0268   20.8476 O   0  0  0  0  0  0  0  0  0  0  0  0
    6.3812  -10.1550   25.6487 C   0  0  0  0  0  0  0  0  0  0  0  0
    6.7830  -11.4651   25.8395 C   0  0  0  0  0  0  0  0  0  0  0  0
    5.8700  -12.4303   26.1999 C   0  0  0  0  0  0  0  0  0  0  0  0
    6.2641  -13.7295   26.3899 C   0  0  0  0  0  0  0  0  0  0  0  0
    7.5925  -14.0442   26.2117 C   0  0  0  0  0  0  0  0  0  0  0  0
    8.0153  -15.4335   26.4147 C   0  0  2  0  0  0  0  0  0  0  0  0
    9.0625  -15.7958   25.3528 N   0  0  0  0  0  0  0  0  0  0  0  0
    8.3044  -16.0623   24.1373 C   0  0  0  0  0  0  0  0  0  0  0  0
    9.6703  -17.0681   25.7924 O   0  0  0  0  0  0  0  0  0  0  0  0
   10.3645  -17.0936   26.8342 C   0  0  0  0  0  0  0  0  0  0  0  0
    8.5094  -13.0883   25.8524 C   0  0  0  0  0  0  0  0  0  0  0  0
    8.1067  -11.7871   25.6636 O   0  0  0  0  0  0  0  0  0  0  0  0
  2  1  1  0
  3  2  1  0
  3  4  1  1
  5  6  2  0
  5  3  1  0
  7  8  1  0
  8  9  2  0
 10 11  1  0
 10  8  1  0
 11 12  1  0
 12 13  1  0
 14 13  1  6
 14 15  1  0
 15  5  1  0
 16 14  1  0
 17 16  2  0
 18 19  1  0
 19 20  2  0
 19 29  1  0
 20 21  1  0
 21 22  2  0
 22 23  1  0
 24 23  1  6
 24 25  1  0
 25 16  1  0
 26 30  1  0
 26 24  1  0
 27 26  2  0
 28 22  1  0
 29 28  2  0
M  END
$$$$
