SRY.pdb
     RDKit          3D

 30 30  0  0  1  0  0  0  0  0999 V2000
    7.5734  -19.6424   25.0901 O   0  0  0  0  0  0  0  0  0  0  0  0
    6.3194  -19.4732   24.4979 C   0  0  0  0  0  0  0  0  0  0  0  0
    6.4209  -19.5013   22.9891 C   0  0  2  0  0  0  0  0  0  0  0  0
    6.9193  -20.7986   22.5757 N   0  0  0  0  0  0  0  0  0  0  0  0
    7.3498  -18.4674   22.4714 C   0  0  0  0  0  0  0  0  0  0  0  0
    8.4360  -18.7907   21.9295 O   0  0  0  0  0  0  0  0  0  0  0  0
    7.9406  -12.3883   16.9450 N   0  0  0  0  0  0  0  0  0  0  0  0
    8.0997  -13.7720   17.2766 C   0  0  0  0  0  0  0  0  0  0  0  0
    8.1388  -14.6541   16.3355 N   0  0  0  0  0  0  0  0  0  0  0  0
    8.2136  -14.1812   18.6128 N   0  0  0  0  0  0  0  0  0  0  0  0
    7.9787  -13.2455   19.6904 C   0  0  0  0  0  0  0  0  0  0  0  0
    8.3013  -13.8600   21.0304 C   0  0  0  0  0  0  0  0  0  0  0  0
    7.2393  -14.8649   21.4654 C   0  0  0  0  0  0  0  0  0  0  0  0
    7.9046  -16.0107   22.1226 C   0  0  2  0  0  0  0  0  0  0  0  0
    7.0881  -17.0772   22.5476 N   0  0  0  0  0  0  0  0  0  0  0  0
    8.8062  -15.6025   23.2448 C   0  0  0  0  0  0  0  0  0  0  0  0
    9.6792  -14.7315   23.0754 O   0  0  0  0  0  0  0  0  0  0  0  0
    8.3235  -15.6674   16.5353 O   0  0  0  0  0  0  0  0  0  0  0  0
    6.1669  -10.6708   26.3159 C   0  0  0  0  0  0  0  0  0  0  0  0
    6.7529  -11.9181   26.4395 C   0  0  0  0  0  0  0  0  0  0  0  0
    8.0883  -12.0344   26.7529 C   0  0  0  0  0  0  0  0  0  0  0  0
    8.6727  -13.2684   26.8763 C   0  0  0  0  0  0  0  0  0  0  0  0
    7.8927  -14.3856   26.6796 C   0  0  0  0  0  0  0  0  0  0  0  0
    8.5167  -15.7060   26.8111 C   0  0  2  0  0  0  0  0  0  0  0  0
    9.4902  -15.9156   25.6432 N   0  0  0  0  0  0  0  0  0  0  0  0
    8.6517  -16.2163   24.4902 C   0  0  0  0  0  0  0  0  0  0  0  0
   10.2641  -17.1314   25.9665 O   0  0  0  0  0  0  0  0  0  0  0  0
   10.1188  -18.1601   25.2677 C   0  0  0  0  0  0  0  0  0  0  0  0
    6.5607  -14.2787   26.3669 C   0  0  0  0  0  0  0  0  0  0  0  0
    5.9813  -13.0377   26.2447 O   0  0  0  0  0  0  0  0  0  0  0  0
  2  1  1  0
  3  2  1  0
  3  4  1  1
  5  6  2  0
  5  3  1  0
  7  8  1  0
  8  9  2  0
 10 11  1  0
 10  8  1  0
 11 12  1  0
 12 13  1  0
 14 13  1  1
 14 15  1  0
 15  5  1  0
 16 14  1  0
 17 16  2  0
 18 19  1  0
 19 20  2  0
 19 29  1  0
 20 21  1  0
 21 22  2  0
 22 23  1  0
 24 23  1  6
 24 25  1  0
 25 16  1  0
 26 30  1  0
 26 24  1  0
 27 26  2  0
 28 22  1  0
 29 28  2  0
M  END
$$$$
