SRY.pdb
     RDKit          3D

 30 30  0  0  1  0  0  0  0  0999 V2000
   11.4761  -16.8030   17.6845 O   0  0  0  0  0  0  0  0  0  0  0  0
   10.7805  -16.2902   16.5868 C   0  0  0  0  0  0  0  0  0  0  0  0
    9.2900  -16.4950   16.7419 C   0  0  2  0  0  0  0  0  0  0  0  0
    8.6179  -15.9582   15.5746 N   0  0  0  0  0  0  0  0  0  0  0  0
    8.7517  -15.8039   17.9387 C   0  0  0  0  0  0  0  0  0  0  0  0
    7.8503  -14.9357   17.8301 O   0  0  0  0  0  0  0  0  0  0  0  0
    7.6227  -20.4651   21.8470 N   0  0  0  0  0  0  0  0  0  0  0  0
    7.8327  -21.1730   20.6204 C   0  0  0  0  0  0  0  0  0  0  0  0
    8.4115  -22.3263   20.6393 N   0  0  0  0  0  0  0  0  0  0  0  0
    7.4167  -20.6283   19.3973 N   0  0  0  0  0  0  0  0  0  0  0  0
    7.0780  -19.2259   19.2948 C   0  0  0  0  0  0  0  0  0  0  0  0
    7.6122  -18.4453   20.4707 C   0  0  0  0  0  0  0  0  0  0  0  0
    7.2156  -16.9739   20.4037 C   0  0  0  0  0  0  0  0  0  0  0  0
    8.4402  -16.1455   20.4389 C   0  0  2  0  0  0  0  0  0  0  0  0
    9.2018  -16.0645   19.2565 N   0  0  0  0  0  0  0  0  0  0  0  0
    9.3428  -16.4788   21.5848 C   0  0  0  0  0  0  0  0  0  0  0  0
    9.5569  -17.6631   21.9030 O   0  0  0  0  0  0  0  0  0  0  0  0
    8.5838  -22.8724   19.7602 O   0  0  0  0  0  0  0  0  0  0  0  0
    5.6441  -12.0221   27.6216 C   0  0  0  0  0  0  0  0  0  0  0  0
    6.2095  -12.6554   26.5290 C   0  0  0  0  0  0  0  0  0  0  0  0
    6.0861  -14.0171   26.3699 C   0  0  0  0  0  0  0  0  0  0  0  0
    6.6449  -14.6483   25.2888 C   0  0  0  0  0  0  0  0  0  0  0  0
    7.3307  -13.8883   24.3684 C   0  0  0  0  0  0  0  0  0  0  0  0
    7.9289  -14.5622   23.2117 C   0  0  2  0  0  0  0  0  0  0  0  0
    9.3967  -14.8826   23.5259 N   0  0  0  0  0  0  0  0  0  0  0  0
    9.9438  -15.4361   22.2940 C   0  0  0  0  0  0  0  0  0  0  0  0
    9.3751  -15.9620   24.5338 O   0  0  0  0  0  0  0  0  0  0  0  0
    9.9521  -15.7930   25.6322 C   0  0  0  0  0  0  0  0  0  0  0  0
    7.4586  -12.5301   24.5193 C   0  0  0  0  0  0  0  0  0  0  0  0
    6.8954  -11.9039   25.6062 O   0  0  0  0  0  0  0  0  0  0  0  0
  2  1  1  0
  3  2  1  0
  3  4  1  6
  5  6  2  0
  5  3  1  0
  7  8  1  0
  8  9  2  0
 10 11  1  0
 10  8  1  0
 11 12  1  0
 12 13  1  0
 14 13  1  6
 14 15  1  0
 15  5  1  0
 16 14  1  0
 17 16  2  0
 18 19  1  0
 19 20  2  0
 19 29  1  0
 20 21  1  0
 21 22  2  0
 22 23  1  0
 24 23  1  6
 24 25  1  0
 25 16  1  0
 26 30  1  0
 26 24  1  0
 27 26  2  0
 28 22  1  0
 29 28  2  0
M  END
$$$$
