SRY.pdb
     RDKit          3D

 30 30  0  0  1  0  0  0  0  0999 V2000
    7.7009  -12.3530   22.1355 O   0  0  0  0  0  0  0  0  0  0  0  0
    8.2668  -12.8103   20.9429 C   0  0  0  0  0  0  0  0  0  0  0  0
    7.7365  -14.1788   20.5775 C   0  0  2  0  0  0  0  0  0  0  0  0
    6.3246  -14.0680   20.2665 N   0  0  0  0  0  0  0  0  0  0  0  0
    7.8863  -15.1516   21.6870 C   0  0  0  0  0  0  0  0  0  0  0  0
    6.9085  -15.4530   22.4156 O   0  0  0  0  0  0  0  0  0  0  0  0
   13.8716  -19.9228   19.2044 N   0  0  0  0  0  0  0  0  0  0  0  0
   14.1934  -19.3568   20.4796 C   0  0  0  0  0  0  0  0  0  0  0  0
   15.4012  -19.4355   20.9271 N   0  0  0  0  0  0  0  0  0  0  0  0
   13.2113  -18.7172   21.2492 N   0  0  0  0  0  0  0  0  0  0  0  0
   11.8327  -18.6973   20.8121 C   0  0  0  0  0  0  0  0  0  0  0  0
   11.0868  -17.5263   21.4036 C   0  0  0  0  0  0  0  0  0  0  0  0
   10.1711  -17.9540   22.5461 C   0  0  0  0  0  0  0  0  0  0  0  0
    9.3487  -16.7966   22.9599 C   0  0  2  0  0  0  0  0  0  0  0  0
    9.1093  -15.7951   21.9984 N   0  0  0  0  0  0  0  0  0  0  0  0
    9.8252  -16.1597   24.2272 C   0  0  0  0  0  0  0  0  0  0  0  0
   10.7495  -15.3260   24.2122 O   0  0  0  0  0  0  0  0  0  0  0  0
   15.6828  -18.9966   21.8375 O   0  0  0  0  0  0  0  0  0  0  0  0
    6.1741  -10.9513   25.3586 C   0  0  0  0  0  0  0  0  0  0  0  0
    6.7011  -12.1197   25.8795 C   0  0  0  0  0  0  0  0  0  0  0  0
    5.8909  -13.2076   26.1143 C   0  0  0  0  0  0  0  0  0  0  0  0
    6.4093  -14.3671   26.6303 C   0  0  0  0  0  0  0  0  0  0  0  0
    7.7569  -14.4163   26.9073 C   0  0  0  0  0  0  0  0  0  0  0  0
    8.3125  -15.6559   27.4594 C   0  0  2  0  0  0  0  0  0  0  0  0
    9.6200  -15.9858   26.7264 N   0  0  0  0  0  0  0  0  0  0  0  0
    9.2140  -16.5165   25.4316 C   0  0  0  0  0  0  0  0  0  0  0  0
   10.2508  -17.0844   27.4856 O   0  0  0  0  0  0  0  0  0  0  0  0
   10.6583  -16.8755   28.6510 C   0  0  0  0  0  0  0  0  0  0  0  0
    8.5719  -13.3365   26.6763 C   0  0  0  0  0  0  0  0  0  0  0  0
    8.0449  -12.1767   26.1586 O   0  0  0  0  0  0  0  0  0  0  0  0
  2  1  1  0
  3  2  1  0
  3  4  1  1
  5  6  2  0
  5  3  1  0
  7  8  1  0
  8  9  2  0
 10 11  1  0
 10  8  1  0
 11 12  1  0
 12 13  1  0
 14 13  1  6
 14 15  1  0
 15  5  1  0
 16 14  1  0
 17 16  2  0
 18 19  1  0
 19 20  2  0
 19 29  1  0
 20 21  1  0
 21 22  2  0
 22 23  1  0
 24 23  1  6
 24 25  1  0
 25 16  1  0
 26 30  1  0
 26 24  1  0
 27 26  2  0
 28 22  1  0
 29 28  2  0
M  END
$$$$
