TAK.pdb
     RDKit          3D

 22 21  0  0  1  0  0  0  0  0999 V2000
   22.8546  -32.2989  -10.8215 C   0  0  0  0  0  0  0  0  0  0  0  0
   23.0855  -33.6454  -11.4747 C   0  0  1  0  0  0  0  0  0  0  0  0
   22.7506  -33.5203  -12.8222 O   0  0  0  0  0  0  0  0  0  0  0  0
   24.5545  -33.9617  -11.3279 C   0  0  2  0  0  0  0  0  0  0  0  0
   24.8199  -35.1819  -12.0642 N   0  0  0  0  0  0  0  0  0  0  0  0
   24.9235  -34.1415   -9.8801 C   0  0  0  0  0  0  0  0  0  0  0  0
   24.6625  -35.2228   -9.2914 O   0  0  0  0  0  0  0  0  0  0  0  0
   26.8339  -32.1147   -7.2896 C   0  0  0  0  0  0  0  0  0  0  0  0
   25.8758  -33.1905   -7.7472 C   0  0  2  0  0  0  0  0  0  0  0  0
   25.5682  -33.1042   -9.1535 N   0  0  0  0  0  0  0  0  0  0  0  0
   24.6174  -33.1710   -6.9308 C   0  0  0  0  0  0  0  0  0  0  0  0
   23.7428  -32.2953   -7.1373 O   0  0  0  0  0  0  0  0  0  0  0  0
   24.4070  -34.1294   -5.9312 N   0  0  0  0  0  0  0  0  0  0  0  0
   23.1575  -34.2074   -5.1391 C   0  0  1  0  0  0  0  0  0  0  0  0
   22.0391  -34.7132   -5.9818 C   0  0  0  0  0  0  0  0  0  0  0  0
   20.7584  -34.7813   -5.2362 C   0  0  0  0  0  0  0  0  0  0  0  0
   19.6029  -35.2586   -6.1069 C   0  0  0  0  0  0  0  0  0  0  0  0
   18.3014  -35.2693   -5.3460 C   0  0  0  0  0  0  0  0  0  0  0  0
   17.2831  -35.7583   -6.2741 N   0  0  0  0  0  0  0  0  0  0  0  0
   23.3838  -34.9347   -3.8945 C   0  0  0  0  0  0  0  0  0  0  0  0
   22.5289  -35.1658   -3.0267 O   0  0  0  0  0  0  0  0  0  0  0  0
   24.6839  -35.4220   -3.6456 O   0  0  0  0  0  0  0  0  0  0  0  0
  2  4  1  0
  2  1  1  1
  3  2  1  0
  4  5  1  6
  4  6  1  0
  6  7  2  0
  9  8  1  1
 10  6  1  0
 10  9  1  0
 11  9  1  0
 11 13  1  0
 12 11  2  0
 14 13  1  0
 14 15  1  6
 15 16  1  0
 16 17  1  0
 18 17  1  0
 19 18  1  0
 20 14  1  0
 21 20  2  0
 22 20  1  0
M  END
$$$$
