TAK.pdb
     RDKit          3D

 22 21  0  0  1  0  0  0  0  0999 V2000
   19.7724  -12.3063  -19.1681 C   0  0  0  0  0  0  0  0  0  0  0  0
   19.1743  -13.4248  -18.3410 C   0  0  1  0  0  0  0  0  0  0  0  0
   18.7661  -14.4252  -19.2219 O   0  0  0  0  0  0  0  0  0  0  0  0
   20.2681  -13.9388  -17.4361 C   0  0  2  0  0  0  0  0  0  0  0  0
   19.7746  -15.1339  -16.7806 N   0  0  0  0  0  0  0  0  0  0  0  0
   20.6463  -12.9054  -16.4096 C   0  0  0  0  0  0  0  0  0  0  0  0
   19.7594  -12.3741  -15.6919 O   0  0  0  0  0  0  0  0  0  0  0  0
   23.9039  -11.3107  -15.2362 C   0  0  0  0  0  0  0  0  0  0  0  0
   22.4035  -11.4125  -15.3877 C   0  0  2  0  0  0  0  0  0  0  0  0
   21.9998  -12.5112  -16.2303 N   0  0  0  0  0  0  0  0  0  0  0  0
   21.8261  -10.1229  -15.8915 C   0  0  0  0  0  0  0  0  0  0  0  0
   21.8776   -9.8411  -17.1132 O   0  0  0  0  0  0  0  0  0  0  0  0
   21.2246   -9.2218  -15.0037 N   0  0  0  0  0  0  0  0  0  0  0  0
   20.6744   -7.9144  -15.4314 C   0  0  1  0  0  0  0  0  0  0  0  0
   19.1860   -7.9533  -15.4344 C   0  0  0  0  0  0  0  0  0  0  0  0
   18.5904   -6.6789  -15.9055 C   0  0  0  0  0  0  0  0  0  0  0  0
   17.0696   -6.6783  -15.8135 C   0  0  0  0  0  0  0  0  0  0  0  0
   16.4830   -5.3848  -16.3191 C   0  0  0  0  0  0  0  0  0  0  0  0
   15.0314   -5.5588  -16.3146 N   0  0  0  0  0  0  0  0  0  0  0  0
   21.2721   -6.8295  -14.6601 C   0  0  0  0  0  0  0  0  0  0  0  0
   21.8328   -6.9480  -13.5606 O   0  0  0  0  0  0  0  0  0  0  0  0
   21.2134   -5.5285  -15.2018 O   0  0  0  0  0  0  0  0  0  0  0  0
  2  4  1  0
  2  1  1  6
  3  2  1  0
  4  5  1  1
  4  6  1  0
  6  7  2  0
  9  8  1  6
 10  6  1  0
 10  9  1  0
 11  9  1  0
 11 13  1  0
 12 11  2  0
 14 13  1  0
 14 15  1  1
 15 16  1  0
 16 17  1  0
 18 17  1  0
 19 18  1  0
 20 14  1  0
 21 20  2  0
 22 20  1  0
M  END
$$$$
