TAK.pdb
     RDKit          3D

 22 21  0  0  1  0  0  0  0  0999 V2000
   25.3985  -17.7255  -18.2509 C   0  0  0  0  0  0  0  0  0  0  0  0
   25.4710  -17.3524  -16.7851 C   0  0  1  0  0  0  0  0  0  0  0  0
   25.5154  -18.5378  -16.0528 O   0  0  0  0  0  0  0  0  0  0  0  0
   26.7472  -16.5694  -16.5910 C   0  0  2  0  0  0  0  0  0  0  0  0
   26.9513  -16.4029  -15.1655 N   0  0  0  0  0  0  0  0  0  0  0  0
   26.6598  -15.2246  -17.2608 C   0  0  0  0  0  0  0  0  0  0  0  0
   25.9357  -14.3202  -16.7694 O   0  0  0  0  0  0  0  0  0  0  0  0
   28.4183  -13.5600  -20.1996 C   0  0  0  0  0  0  0  0  0  0  0  0
   27.3742  -13.6681  -19.1122 C   0  0  2  0  0  0  0  0  0  0  0  0
   27.3859  -14.9498  -18.4511 N   0  0  0  0  0  0  0  0  0  0  0  0
   26.0066  -13.3652  -19.6492 C   0  0  0  0  0  0  0  0  0  0  0  0
   25.3073  -14.2783  -20.1507 O   0  0  0  0  0  0  0  0  0  0  0  0
   25.4979  -12.0613  -19.5958 N   0  0  0  0  0  0  0  0  0  0  0  0
   24.1746  -11.6888  -20.1481 C   0  0  1  0  0  0  0  0  0  0  0  0
   23.6730  -10.4454  -19.5009 C   0  0  0  0  0  0  0  0  0  0  0  0
   22.3011  -10.0942  -19.9433 C   0  0  0  0  0  0  0  0  0  0  0  0
   21.8381   -8.7513  -19.3926 C   0  0  0  0  0  0  0  0  0  0  0  0
   20.4002   -8.4708  -19.7487 C   0  0  0  0  0  0  0  0  0  0  0  0
   20.0798   -7.1634  -19.1783 N   0  0  0  0  0  0  0  0  0  0  0  0
   24.2161  -11.6642  -21.6065 C   0  0  0  0  0  0  0  0  0  0  0  0
   25.1078  -11.1471  -22.2956 O   0  0  0  0  0  0  0  0  0  0  0  0
   23.1555  -12.2788  -22.3044 O   0  0  0  0  0  0  0  0  0  0  0  0
  2  4  1  0
  2  1  1  6
  3  2  1  0
  4  5  1  1
  4  6  1  0
  6  7  2  0
  9  8  1  6
 10  6  1  0
 10  9  1  0
 11  9  1  0
 11 13  1  0
 12 11  2  0
 14 13  1  0
 14 15  1  1
 15 16  1  0
 16 17  1  0
 18 17  1  0
 19 18  1  0
 20 14  1  0
 21 20  2  0
 22 20  1  0
M  END
$$$$
