TAK.pdb
     RDKit          3D

 22 21  0  0  1  0  0  0  0  0999 V2000
   16.0747  -11.0068  -10.7471 C   0  0  0  0  0  0  0  0  0  0  0  0
   14.6150  -10.6040  -10.7306 C   0  0  1  0  0  0  0  0  0  0  0  0
   13.8760  -11.7229  -10.3491 O   0  0  0  0  0  0  0  0  0  0  0  0
   14.4710   -9.5069   -9.7035 C   0  0  2  0  0  0  0  0  0  0  0  0
   13.0568   -9.2271   -9.5506 N   0  0  0  0  0  0  0  0  0  0  0  0
   15.1993   -8.2641  -10.1391 C   0  0  0  0  0  0  0  0  0  0  0  0
   15.0974   -7.8552  -11.3250 O   0  0  0  0  0  0  0  0  0  0  0  0
   17.1098   -5.4706   -8.4589 C   0  0  0  0  0  0  0  0  0  0  0  0
   16.8134   -6.3985   -9.6146 C   0  0  2  0  0  0  0  0  0  0  0  0
   16.0097   -7.5324   -9.2294 N   0  0  0  0  0  0  0  0  0  0  0  0
   18.0805   -6.8521  -10.2773 C   0  0  0  0  0  0  0  0  0  0  0  0
   18.8077   -7.7150   -9.7285 O   0  0  0  0  0  0  0  0  0  0  0  0
   18.4635   -6.3171  -11.5138 N   0  0  0  0  0  0  0  0  0  0  0  0
   19.6583   -6.7802  -12.2575 C   0  0  1  0  0  0  0  0  0  0  0  0
   19.2575   -7.3969  -13.5519 C   0  0  0  0  0  0  0  0  0  0  0  0
   20.4248   -7.8715  -14.3350 C   0  0  0  0  0  0  0  0  0  0  0  0
   20.0136   -8.6213  -15.5959 C   0  0  0  0  0  0  0  0  0  0  0  0
   21.2099   -9.1714  -16.3302 C   0  0  0  0  0  0  0  0  0  0  0  0
   20.6857  -10.0249  -17.3950 N   0  0  0  0  0  0  0  0  0  0  0  0
   20.6495   -5.7135  -12.3509 C   0  0  0  0  0  0  0  0  0  0  0  0
   21.8769   -5.8720  -12.4261 O   0  0  0  0  0  0  0  0  0  0  0  0
   20.1833   -4.3822  -12.3572 O   0  0  0  0  0  0  0  0  0  0  0  0
  2  4  1  0
  2  1  1  1
  3  2  1  0
  4  5  1  6
  4  6  1  0
  6  7  2  0
  9  8  1  1
 10  6  1  0
 10  9  1  0
 11  9  1  0
 11 13  1  0
 12 11  2  0
 14 13  1  0
 14 15  1  6
 15 16  1  0
 16 17  1  0
 18 17  1  0
 19 18  1  0
 20 14  1  0
 21 20  2  0
 22 20  1  0
M  END
$$$$
