TAK.pdb
     RDKit          3D

 22 21  0  0  1  0  0  0  0  0999 V2000
   18.4076  -10.3554  -17.9233 C   0  0  0  0  0  0  0  0  0  0  0  0
   19.0005  -11.6460  -17.3981 C   0  0  1  0  0  0  0  0  0  0  0  0
   18.4315  -12.6933  -18.1214 O   0  0  0  0  0  0  0  0  0  0  0  0
   20.4878  -11.5837  -17.6501 C   0  0  2  0  0  0  0  0  0  0  0  0
   21.0415  -12.8905  -17.3546 N   0  0  0  0  0  0  0  0  0  0  0  0
   21.1366  -10.5395  -16.7821 C   0  0  0  0  0  0  0  0  0  0  0  0
   21.0034  -10.5861  -15.5315 O   0  0  0  0  0  0  0  0  0  0  0  0
   23.3022   -7.4632  -17.4086 C   0  0  0  0  0  0  0  0  0  0  0  0
   22.4252   -8.3803  -16.5875 C   0  0  2  0  0  0  0  0  0  0  0  0
   21.9062   -9.4887  -17.3504 N   0  0  0  0  0  0  0  0  0  0  0  0
   21.3073   -7.6168  -15.9410 C   0  0  0  0  0  0  0  0  0  0  0  0
   20.2927   -7.2961  -16.6059 O   0  0  0  0  0  0  0  0  0  0  0  0
   21.3855   -7.2552  -14.5900 N   0  0  0  0  0  0  0  0  0  0  0  0
   20.3254   -6.4849  -13.8988 C   0  0  1  0  0  0  0  0  0  0  0  0
   19.7610   -7.2754  -12.7704 C   0  0  0  0  0  0  0  0  0  0  0  0
   18.6525   -6.5664  -12.0853 C   0  0  0  0  0  0  0  0  0  0  0  0
   18.2447   -7.2446  -10.7834 C   0  0  0  0  0  0  0  0  0  0  0  0
   17.1991   -6.4476  -10.0456 C   0  0  0  0  0  0  0  0  0  0  0  0
   17.0111   -7.1065   -8.7542 N   0  0  0  0  0  0  0  0  0  0  0  0
   20.8040   -5.1507  -13.5527 C   0  0  0  0  0  0  0  0  0  0  0  0
   21.9557   -4.8671  -13.1912 O   0  0  0  0  0  0  0  0  0  0  0  0
   19.8863   -4.0824  -13.6322 O   0  0  0  0  0  0  0  0  0  0  0  0
  2  4  1  0
  2  1  1  6
  3  2  1  0
  4  5  1  1
  4  6  1  0
  6  7  2  0
  9  8  1  6
 10  6  1  0
 10  9  1  0
 11  9  1  0
 11 13  1  0
 12 11  2  0
 14 13  1  0
 14 15  1  1
 15 16  1  0
 16 17  1  0
 18 17  1  0
 19 18  1  0
 20 14  1  0
 21 20  2  0
 22 20  1  0
M  END
$$$$
