TAK.pdb
     RDKit          3D

 22 21  0  0  1  0  0  0  0  0999 V2000
   19.5910  -11.2833  -16.0091 C   0  0  0  0  0  0  0  0  0  0  0  0
   18.1570  -11.2584  -16.4950 C   0  0  1  0  0  0  0  0  0  0  0  0
   17.8831  -12.5049  -17.0562 O   0  0  0  0  0  0  0  0  0  0  0  0
   17.2844  -11.0263  -15.2850 C   0  0  2  0  0  0  0  0  0  0  0  0
   15.9049  -11.2034  -15.6941 N   0  0  0  0  0  0  0  0  0  0  0  0
   17.4861   -9.6402  -14.7349 C   0  0  0  0  0  0  0  0  0  0  0  0
   17.4782   -8.6467  -15.5074 O   0  0  0  0  0  0  0  0  0  0  0  0
   17.9259   -8.1217  -11.2713 C   0  0  0  0  0  0  0  0  0  0  0  0
   18.0291   -8.1433  -12.7791 C   0  0  2  0  0  0  0  0  0  0  0  0
   17.6879   -9.4254  -13.3446 N   0  0  0  0  0  0  0  0  0  0  0  0
   19.3946   -7.7157  -13.2297 C   0  0  0  0  0  0  0  0  0  0  0  0
   20.3376   -8.5427  -13.2634 O   0  0  0  0  0  0  0  0  0  0  0  0
   19.6295   -6.3902  -13.6168 N   0  0  0  0  0  0  0  0  0  0  0  0
   20.9549   -5.9043  -14.0664 C   0  0  1  0  0  0  0  0  0  0  0  0
   20.8197   -5.1108  -15.3189 C   0  0  0  0  0  0  0  0  0  0  0  0
   22.1168   -4.5539  -15.7754 C   0  0  0  0  0  0  0  0  0  0  0  0
   21.9765   -3.7114  -17.0370 C   0  0  0  0  0  0  0  0  0  0  0  0
   23.3077   -3.1730  -17.4964 C   0  0  0  0  0  0  0  0  0  0  0  0
   23.0330   -2.3199  -18.6514 N   0  0  0  0  0  0  0  0  0  0  0  0
   21.6542   -5.2371  -12.9732 C   0  0  0  0  0  0  0  0  0  0  0  0
   22.8828   -5.1000  -12.8781 O   0  0  0  0  0  0  0  0  0  0  0  0
   20.8759   -4.6970  -11.9281 O   0  0  0  0  0  0  0  0  0  0  0  0
  2  4  1  0
  2  1  1  1
  3  2  1  0
  4  5  1  6
  4  6  1  0
  6  7  2  0
  9  8  1  1
 10  6  1  0
 10  9  1  0
 11  9  1  0
 11 13  1  0
 12 11  2  0
 14 13  1  0
 14 15  1  6
 15 16  1  0
 16 17  1  0
 18 17  1  0
 19 18  1  0
 20 14  1  0
 21 20  2  0
 22 20  1  0
M  END
$$$$
