TAK.pdb
     RDKit          3D

 22 21  0  0  1  0  0  0  0  0999 V2000
   22.5624  -14.0855  -18.4146 C   0  0  0  0  0  0  0  0  0  0  0  0
   21.7779  -14.9940  -17.4914 C   0  0  1  0  0  0  0  0  0  0  0  0
   21.6214  -16.2174  -18.1411 O   0  0  0  0  0  0  0  0  0  0  0  0
   22.6019  -15.1687  -16.2384 C   0  0  2  0  0  0  0  0  0  0  0  0
   21.9711  -16.1966  -15.4340 N   0  0  0  0  0  0  0  0  0  0  0  0
   22.6801  -13.8814  -15.4628 C   0  0  0  0  0  0  0  0  0  0  0  0
   21.6465  -13.4026  -14.9278 O   0  0  0  0  0  0  0  0  0  0  0  0
   25.4545  -11.4330  -14.5441 C   0  0  0  0  0  0  0  0  0  0  0  0
   24.0210  -11.8796  -14.7173 C   0  0  2  0  0  0  0  0  0  0  0  0
   23.9109  -13.1856  -15.3193 N   0  0  0  0  0  0  0  0  0  0  0  0
   23.2355  -10.8705  -15.5017 C   0  0  0  0  0  0  0  0  0  0  0  0
   23.3364  -10.8228  -16.7515 O   0  0  0  0  0  0  0  0  0  0  0  0
   22.3828   -9.9728  -14.8468 N   0  0  0  0  0  0  0  0  0  0  0  0
   21.6333   -8.9095  -15.5557 C   0  0  1  0  0  0  0  0  0  0  0  0
   20.2251   -9.3333  -15.7881 C   0  0  0  0  0  0  0  0  0  0  0  0
   19.4372   -8.3005  -16.5047 C   0  0  0  0  0  0  0  0  0  0  0  0
   17.9849   -8.7138  -16.7080 C   0  0  0  0  0  0  0  0  0  0  0  0
   17.2022   -7.6521  -17.4381 C   0  0  0  0  0  0  0  0  0  0  0  0
   15.8198   -8.1239  -17.4973 N   0  0  0  0  0  0  0  0  0  0  0  0
   21.7992   -7.6272  -14.8794 C   0  0  0  0  0  0  0  0  0  0  0  0
   22.1063   -7.4728  -13.6881 O   0  0  0  0  0  0  0  0  0  0  0  0
   21.5953   -6.4543  -15.6359 O   0  0  0  0  0  0  0  0  0  0  0  0
  2  4  1  0
  2  1  1  6
  3  2  1  0
  4  5  1  1
  4  6  1  0
  6  7  2  0
  9  8  1  6
 10  6  1  0
 10  9  1  0
 11  9  1  0
 11 13  1  0
 12 11  2  0
 14 13  1  0
 14 15  1  1
 15 16  1  0
 16 17  1  0
 18 17  1  0
 19 18  1  0
 20 14  1  0
 21 20  2  0
 22 20  1  0
M  END
$$$$
