TAK.pdb
     RDKit          3D

 22 21  0  0  1  0  0  0  0  0999 V2000
   21.6671   -7.8625  -18.6283 C   0  0  0  0  0  0  0  0  0  0  0  0
   21.4901   -9.0770  -17.7413 C   0  0  1  0  0  0  0  0  0  0  0  0
   22.0840  -10.1591  -18.3893 O   0  0  0  0  0  0  0  0  0  0  0  0
   22.2072   -8.7858  -16.4450 C   0  0  2  0  0  0  0  0  0  0  0  0
   22.2999  -10.0273  -15.7023 N   0  0  0  0  0  0  0  0  0  0  0  0
   21.4629   -7.7559  -15.6388 C   0  0  0  0  0  0  0  0  0  0  0  0
   20.2416   -7.9172  -15.3814 O   0  0  0  0  0  0  0  0  0  0  0  0
   22.4187   -4.5690  -13.7851 C   0  0  0  0  0  0  0  0  0  0  0  0
   21.4555   -5.5722  -14.3771 C   0  0  2  0  0  0  0  0  0  0  0  0
   22.1168   -6.5904  -15.1554 N   0  0  0  0  0  0  0  0  0  0  0  0
   20.4013   -4.8861  -15.1947 C   0  0  0  0  0  0  0  0  0  0  0  0
   20.6203   -4.5980  -16.3962 O   0  0  0  0  0  0  0  0  0  0  0  0
   19.1637   -4.5609  -14.6252 N   0  0  0  0  0  0  0  0  0  0  0  0
   18.1200   -3.7960  -15.3467 C   0  0  1  0  0  0  0  0  0  0  0  0
   16.7977   -4.4668  -15.2117 C   0  0  0  0  0  0  0  0  0  0  0  0
   15.7194   -3.7336  -15.9191 C   0  0  0  0  0  0  0  0  0  0  0  0
   14.3541   -4.3831  -15.7315 C   0  0  0  0  0  0  0  0  0  0  0  0
   13.2802   -3.6491  -16.4937 C   0  0  0  0  0  0  0  0  0  0  0  0
   12.0404   -4.3947  -16.2838 N   0  0  0  0  0  0  0  0  0  0  0  0
   18.1531   -2.3902  -14.9572 C   0  0  0  0  0  0  0  0  0  0  0  0
   18.4586   -1.9579  -13.8360 O   0  0  0  0  0  0  0  0  0  0  0  0
   17.8099   -1.4302  -15.9319 O   0  0  0  0  0  0  0  0  0  0  0  0
  2  4  1  0
  2  1  1  6
  3  2  1  0
  4  5  1  1
  4  6  1  0
  6  7  2  0
  9  8  1  6
 10  6  1  0
 10  9  1  0
 11  9  1  0
 11 13  1  0
 12 11  2  0
 14 13  1  0
 14 15  1  1
 15 16  1  0
 16 17  1  0
 18 17  1  0
 19 18  1  0
 20 14  1  0
 21 20  2  0
 22 20  1  0
M  END
$$$$
