TAK.pdb
     RDKit          3D

 22 21  0  0  1  0  0  0  0  0999 V2000
   22.7101  -13.4656  -18.7726 C   0  0  0  0  0  0  0  0  0  0  0  0
   22.1824  -14.4576  -17.7575 C   0  0  1  0  0  0  0  0  0  0  0  0
   22.0573  -15.6884  -18.4002 O   0  0  0  0  0  0  0  0  0  0  0  0
   23.2072  -14.5463  -16.6523 C   0  0  2  0  0  0  0  0  0  0  0  0
   22.8570  -15.6760  -15.8141 N   0  0  0  0  0  0  0  0  0  0  0  0
   23.2266  -13.2829  -15.8348 C   0  0  0  0  0  0  0  0  0  0  0  0
   22.1800  -12.8875  -15.2585 O   0  0  0  0  0  0  0  0  0  0  0  0
   25.8521  -10.6408  -15.0105 C   0  0  0  0  0  0  0  0  0  0  0  0
   24.4544  -11.2108  -15.0868 C   0  0  2  0  0  0  0  0  0  0  0  0
   24.4156  -12.5168  -15.6974 N   0  0  0  0  0  0  0  0  0  0  0  0
   23.5288  -10.2691  -15.7988 C   0  0  0  0  0  0  0  0  0  0  0  0
   23.5489  -10.1880  -17.0508 O   0  0  0  0  0  0  0  0  0  0  0  0
   22.6342   -9.4721  -15.0733 N   0  0  0  0  0  0  0  0  0  0  0  0
   21.7330   -8.4850  -15.7123 C   0  0  1  0  0  0  0  0  0  0  0  0
   20.3320   -8.9889  -15.7188 C   0  0  0  0  0  0  0  0  0  0  0  0
   19.3918   -8.0305  -16.3500 C   0  0  0  0  0  0  0  0  0  0  0  0
   17.9548   -8.5369  -16.3460 C   0  0  0  0  0  0  0  0  0  0  0  0
   17.0508   -7.6495  -17.1633 C   0  0  0  0  0  0  0  0  0  0  0  0
   15.7552   -8.3237  -17.2261 N   0  0  0  0  0  0  0  0  0  0  0  0
   21.9215   -7.1628  -15.1246 C   0  0  0  0  0  0  0  0  0  0  0  0
   22.3329   -6.9336  -13.9776 O   0  0  0  0  0  0  0  0  0  0  0  0
   21.6123   -6.0400  -15.9204 O   0  0  0  0  0  0  0  0  0  0  0  0
  2  4  1  0
  2  1  1  6
  3  2  1  0
  4  5  1  1
  4  6  1  0
  6  7  2  0
  9  8  1  6
 10  6  1  0
 10  9  1  0
 11  9  1  0
 11 13  1  0
 12 11  2  0
 14 13  1  0
 14 15  1  1
 15 16  1  0
 16 17  1  0
 18 17  1  0
 19 18  1  0
 20 14  1  0
 21 20  2  0
 22 20  1  0
M  END
$$$$
