TAK.pdb
     RDKit          3D

 22 21  0  0  1  0  0  0  0  0999 V2000
   17.3621   -7.8333  -15.9796 C   0  0  0  0  0  0  0  0  0  0  0  0
   17.6291   -9.3232  -15.9381 C   0  0  1  0  0  0  0  0  0  0  0  0
   17.6462   -9.7827  -17.2542 O   0  0  0  0  0  0  0  0  0  0  0  0
   18.9847   -9.5115  -15.3006 C   0  0  2  0  0  0  0  0  0  0  0  0
   19.3449  -10.9096  -15.4323 N   0  0  0  0  0  0  0  0  0  0  0  0
   18.9544   -9.1206  -13.8477 C   0  0  0  0  0  0  0  0  0  0  0  0
   18.1852   -9.7163  -13.0494 O   0  0  0  0  0  0  0  0  0  0  0  0
   20.8381   -6.6138  -11.6787 C   0  0  0  0  0  0  0  0  0  0  0  0
   19.7515   -7.6189  -11.9849 C   0  0  2  0  0  0  0  0  0  0  0  0
   19.7855   -8.0804  -13.3509 N   0  0  0  0  0  0  0  0  0  0  0  0
   18.3982   -7.0651  -11.6498 C   0  0  0  0  0  0  0  0  0  0  0  0
   17.8003   -6.3199  -12.4633 O   0  0  0  0  0  0  0  0  0  0  0  0
   17.7898   -7.3743  -10.4267 N   0  0  0  0  0  0  0  0  0  0  0  0
   16.4972   -6.7904   -9.9986 C   0  0  1  0  0  0  0  0  0  0  0  0
   15.6477   -7.8276   -9.3513 C   0  0  0  0  0  0  0  0  0  0  0  0
   14.3158   -7.3024   -8.9624 C   0  0  0  0  0  0  0  0  0  0  0  0
   13.4445   -8.3607   -8.2975 C   0  0  0  0  0  0  0  0  0  0  0  0
   12.1137   -7.7960   -7.8698 C   0  0  0  0  0  0  0  0  0  0  0  0
   11.4079   -8.8753   -7.1812 N   0  0  0  0  0  0  0  0  0  0  0  0
   16.7162   -5.5796   -9.2143 C   0  0  0  0  0  0  0  0  0  0  0  0
   17.6728   -5.3752   -8.4523 O   0  0  0  0  0  0  0  0  0  0  0  0
   15.7641   -4.5447   -9.3239 O   0  0  0  0  0  0  0  0  0  0  0  0
  2  4  1  0
  2  1  1  6
  3  2  1  0
  4  5  1  1
  4  6  1  0
  6  7  2  0
  9  8  1  6
 10  6  1  0
 10  9  1  0
 11  9  1  0
 11 13  1  0
 12 11  2  0
 14 13  1  0
 14 15  1  1
 15 16  1  0
 16 17  1  0
 18 17  1  0
 19 18  1  0
 20 14  1  0
 21 20  2  0
 22 20  1  0
M  END
$$$$
