TAK.pdb
     RDKit          3D

 22 21  0  0  1  0  0  0  0  0999 V2000
   15.7766  -14.2803  -16.5243 C   0  0  0  0  0  0  0  0  0  0  0  0
   16.3888  -13.2226  -15.6302 C   0  0  1  0  0  0  0  0  0  0  0  0
   17.5707  -13.7472  -15.1093 O   0  0  0  0  0  0  0  0  0  0  0  0
   16.6868  -12.0260  -16.5013 C   0  0  2  0  0  0  0  0  0  0  0  0
   17.6922  -12.4220  -17.4677 N   0  0  0  0  0  0  0  0  0  0  0  0
   17.1896  -10.8724  -15.6761 C   0  0  0  0  0  0  0  0  0  0  0  0
   16.4578  -10.3663  -14.7860 O   0  0  0  0  0  0  0  0  0  0  0  0
   20.4717   -8.9696  -15.3727 C   0  0  0  0  0  0  0  0  0  0  0  0
   18.9827   -9.1637  -15.2005 C   0  0  2  0  0  0  0  0  0  0  0  0
   18.4888  -10.3348  -15.8823 N   0  0  0  0  0  0  0  0  0  0  0  0
   18.2282   -7.9429  -15.6373 C   0  0  0  0  0  0  0  0  0  0  0  0
   17.8622   -7.8187  -16.8311 O   0  0  0  0  0  0  0  0  0  0  0  0
   17.9254   -6.9310  -14.7174 N   0  0  0  0  0  0  0  0  0  0  0  0
   17.2140   -5.6867  -15.0926 C   0  0  1  0  0  0  0  0  0  0  0  0
   16.0669   -5.4473  -14.1742 C   0  0  0  0  0  0  0  0  0  0  0  0
   15.3286   -4.2044  -14.5075 C   0  0  0  0  0  0  0  0  0  0  0  0
   14.0984   -4.0057  -13.6310 C   0  0  0  0  0  0  0  0  0  0  0  0
   13.2822   -2.8202  -14.0797 C   0  0  0  0  0  0  0  0  0  0  0  0
   12.0781   -2.8088  -13.2508 N   0  0  0  0  0  0  0  0  0  0  0  0
   18.1540   -4.5785  -15.2244 C   0  0  0  0  0  0  0  0  0  0  0  0
   19.2462   -4.4843  -14.6451 O   0  0  0  0  0  0  0  0  0  0  0  0
   17.8010   -3.5162  -16.0827 O   0  0  0  0  0  0  0  0  0  0  0  0
  2  4  1  0
  2  1  1  6
  3  2  1  0
  4  5  1  6
  4  6  1  0
  6  7  2  0
  9  8  1  6
 10  6  1  0
 10  9  1  0
 11  9  1  0
 11 13  1  0
 12 11  2  0
 14 13  1  0
 14 15  1  1
 15 16  1  0
 16 17  1  0
 18 17  1  0
 19 18  1  0
 20 14  1  0
 21 20  2  0
 22 20  1  0
M  END
$$$$
