TAK.pdb
     RDKit          3D

 22 21  0  0  1  0  0  0  0  0999 V2000
   14.9686  -12.6116  -15.8760 C   0  0  0  0  0  0  0  0  0  0  0  0
   15.4571  -12.1855  -14.5075 C   0  0  1  0  0  0  0  0  0  0  0  0
   16.7013  -12.7802  -14.3029 O   0  0  0  0  0  0  0  0  0  0  0  0
   15.5940  -10.6822  -14.5354 C   0  0  2  0  0  0  0  0  0  0  0  0
   16.6104  -10.3489  -15.5140 N   0  0  0  0  0  0  0  0  0  0  0  0
   15.9863  -10.1530  -13.1824 C   0  0  0  0  0  0  0  0  0  0  0  0
   15.2094  -10.2887  -12.2017 O   0  0  0  0  0  0  0  0  0  0  0  0
   19.0929   -8.4780  -11.7393 C   0  0  0  0  0  0  0  0  0  0  0  0
   17.6761   -9.0035  -11.7046 C   0  0  2  0  0  0  0  0  0  0  0  0
   17.2304   -9.4951  -12.9851 N   0  0  0  0  0  0  0  0  0  0  0  0
   16.7303   -7.9629  -11.1820 C   0  0  0  0  0  0  0  0  0  0  0  0
   16.2438   -7.1039  -11.9566 O   0  0  0  0  0  0  0  0  0  0  0  0
   16.3818   -7.9403   -9.8256 N   0  0  0  0  0  0  0  0  0  0  0  0
   15.4633   -6.9327   -9.2458 C   0  0  1  0  0  0  0  0  0  0  0  0
   14.3436   -7.6024   -8.5285 C   0  0  0  0  0  0  0  0  0  0  0  0
   13.3456   -6.6335   -8.0128 C   0  0  0  0  0  0  0  0  0  0  0  0
   12.1155   -7.3191   -7.4314 C   0  0  0  0  0  0  0  0  0  0  0  0
   11.0169   -6.3304   -7.1341 C   0  0  0  0  0  0  0  0  0  0  0  0
    9.8455   -7.1162   -6.7497 N   0  0  0  0  0  0  0  0  0  0  0  0
   16.2075   -5.9483   -8.4673 C   0  0  0  0  0  0  0  0  0  0  0  0
   15.9230   -4.7462   -8.3606 O   0  0  0  0  0  0  0  0  0  0  0  0
   17.3519   -6.3903   -7.7710 O   0  0  0  0  0  0  0  0  0  0  0  0
  2  4  1  0
  2  1  1  6
  3  2  1  0
  4  5  1  6
  4  6  1  0
  6  7  2  0
  9  8  1  6
 10  6  1  0
 10  9  1  0
 11  9  1  0
 11 13  1  0
 12 11  2  0
 14 13  1  0
 14 15  1  1
 15 16  1  0
 16 17  1  0
 18 17  1  0
 19 18  1  0
 20 14  1  0
 21 20  2  0
 22 20  1  0
M  END
$$$$
