TAK.pdb
     RDKit          3D

 22 21  0  0  1  0  0  0  0  0999 V2000
   19.3813  -10.5266  -18.9107 C   0  0  0  0  0  0  0  0  0  0  0  0
   18.8334  -11.5936  -17.9864 C   0  0  1  0  0  0  0  0  0  0  0  0
   18.1176  -12.4985  -18.7689 O   0  0  0  0  0  0  0  0  0  0  0  0
   20.0190  -12.2770  -17.3486 C   0  0  2  0  0  0  0  0  0  0  0  0
   19.5452  -13.5005  -16.7321 N   0  0  0  0  0  0  0  0  0  0  0  0
   20.6573  -11.3906  -16.3134 C   0  0  0  0  0  0  0  0  0  0  0  0
   19.9401  -10.7501  -15.5015 O   0  0  0  0  0  0  0  0  0  0  0  0
   24.2389  -10.4736  -15.3748 C   0  0  0  0  0  0  0  0  0  0  0  0
   22.7332  -10.3501  -15.3292 C   0  0  2  0  0  0  0  0  0  0  0  0
   22.0699  -11.2591  -16.2313 N   0  0  0  0  0  0  0  0  0  0  0  0
   22.3022   -8.9378  -15.5939 C   0  0  0  0  0  0  0  0  0  0  0  0
   21.9649   -8.5853  -16.7499 O   0  0  0  0  0  0  0  0  0  0  0  0
   22.2724   -8.0000  -14.5539 N   0  0  0  0  0  0  0  0  0  0  0  0
   21.8447   -6.5948  -14.7473 C   0  0  1  0  0  0  0  0  0  0  0  0
   20.4410   -6.5424  -15.2408 C   0  0  0  0  0  0  0  0  0  0  0  0
   19.9293   -5.1532  -15.3368 C   0  0  0  0  0  0  0  0  0  0  0  0
   18.4994   -5.0947  -15.8594 C   0  0  0  0  0  0  0  0  0  0  0  0
   17.9792   -3.6802  -15.8971 C   0  0  0  0  0  0  0  0  0  0  0  0
   16.5893   -3.7619  -16.3431 N   0  0  0  0  0  0  0  0  0  0  0  0
   22.1190   -5.8060  -13.5507 C   0  0  0  0  0  0  0  0  0  0  0  0
   22.3633   -4.5907  -13.5265 O   0  0  0  0  0  0  0  0  0  0  0  0
   22.1079   -6.4726  -12.3076 O   0  0  0  0  0  0  0  0  0  0  0  0
  2  4  1  0
  2  1  1  6
  3  2  1  0
  4  5  1  1
  4  6  1  0
  6  7  2  0
  9  8  1  6
 10  6  1  0
 10  9  1  0
 11  9  1  0
 11 13  1  0
 12 11  2  0
 14 13  1  0
 14 15  1  1
 15 16  1  0
 16 17  1  0
 18 17  1  0
 19 18  1  0
 20 14  1  0
 21 20  2  0
 22 20  1  0
M  END
$$$$
