QFI.pdb
     RDKit          3D

 29 29  0  0  1  0  0  0  0  0999 V2000
   26.5578  -19.7657  -16.3273 N   0  0  0  0  0  0  0  0  0  0  0  0
   27.7403  -18.9785  -16.2375 C   0  0  0  0  0  0  0  0  0  0  0  0
   28.2576  -18.4520  -17.2766 O   0  0  0  0  0  0  0  0  0  0  0  0
   28.4187  -18.7391  -14.9286 C   0  0  0  0  0  0  0  0  0  0  0  0
   27.6441  -19.3678  -13.8092 C   0  0  0  0  0  0  0  0  0  0  0  0
   28.4873  -20.4950  -13.2197 C   0  0  2  0  0  0  0  0  0  0  0  0
   28.4170  -21.5943  -14.1457 N   0  0  0  0  0  0  0  0  0  0  0  0
   27.9416  -20.8986  -11.9234 C   0  0  0  0  0  0  0  0  0  0  0  0
   26.9310  -21.6446  -11.8809 O   0  0  0  0  0  0  0  0  0  0  0  0
   28.4840  -20.4988  -10.6725 N   0  0  0  0  0  0  0  0  0  0  0  0
   27.8575  -20.7585   -9.3885 C   0  0  1  0  0  0  0  0  0  0  0  0
   28.7897  -20.4935   -8.2456 C   0  0  0  0  0  0  0  0  0  0  0  0
   28.1465  -20.3459   -6.9382 C   0  0  0  0  0  0  0  0  0  0  0  0
   27.8982  -19.0904   -6.4301 C   0  0  0  0  0  0  0  0  0  0  0  0
   27.2869  -18.9324   -5.1807 C   0  0  0  0  0  0  0  0  0  0  0  0
   26.9274  -20.0366   -4.4468 C   0  0  0  0  0  0  0  0  0  0  0  0
   27.1688  -21.2929   -4.9407 C   0  0  0  0  0  0  0  0  0  0  0  0
   27.7740  -21.4213   -6.1773 C   0  0  0  0  0  0  0  0  0  0  0  0
   26.5188  -20.1902   -9.2781 C   0  0  0  0  0  0  0  0  0  0  0  0
   26.3605  -18.9389   -9.4364 O   0  0  0  0  0  0  0  0  0  0  0  0
   22.4349  -21.7558  -12.2457 C   0  0  0  0  0  0  0  0  0  0  0  0
   23.1191  -21.7435  -10.8811 C   0  0  0  0  0  0  0  0  0  0  0  0
   23.3830  -20.3463  -10.4019 C   0  0  2  0  0  0  0  0  0  0  0  0
   24.3441  -19.7269  -11.4299 C   0  0  0  0  0  0  0  0  0  0  0  0
   23.9984  -20.3254   -9.0672 C   0  0  2  0  0  0  0  0  0  0  0  0
   25.3323  -20.8915   -9.0098 N   0  0  0  0  0  0  0  0  0  0  0  0
   23.1886  -21.0616   -8.0827 C   0  0  0  0  0  0  0  0  0  0  0  0
   23.6670  -22.1200   -7.3080 O   0  0  0  0  0  0  0  0  0  0  0  0
   21.9694  -20.7809   -7.8675 O   0  0  0  0  0  0  0  0  0  0  0  0
  2  1  1  0
  3  2  2  0
  4  2  1  0
  5  6  1  0
  5  4  1  0
  6  7  1  6
  8  6  1  0
  8  9  2  0
 10  8  1  0
 11 10  1  0
 11 12  1  1
 13 12  1  0
 13 18  2  0
 14 13  1  0
 15 14  2  0
 15 16  1  0
 16 17  2  0
 17 18  1  0
 19 11  1  0
 20 19  2  0
 21 22  1  0
 22 23  1  0
 23 25  1  0
 23 24  1  6
 25 26  1  6
 26 19  1  0
 27 25  1  0
 28 27  1  0
 29 27  2  0
M  END
$$$$
