QFI.pdb
     RDKit          3D

 29 29  0  0  1  0  0  0  0  0999 V2000
   28.1014  -16.4129  -15.8466 N   0  0  0  0  0  0  0  0  0  0  0  0
   28.3901  -16.8796  -17.1600 C   0  0  0  0  0  0  0  0  0  0  0  0
   29.5854  -17.1467  -17.5126 O   0  0  0  0  0  0  0  0  0  0  0  0
   27.3093  -17.0738  -18.1724 C   0  0  0  0  0  0  0  0  0  0  0  0
   26.3558  -18.1427  -17.7288 C   0  0  0  0  0  0  0  0  0  0  0  0
   27.1650  -19.3879  -17.3770 C   0  0  2  0  0  0  0  0  0  0  0  0
   27.1095  -20.2568  -18.5228 N   0  0  0  0  0  0  0  0  0  0  0  0
   26.5734  -20.0539  -16.2162 C   0  0  0  0  0  0  0  0  0  0  0  0
   25.5201  -20.7252  -16.3563 O   0  0  0  0  0  0  0  0  0  0  0  0
   27.1159  -19.9973  -14.9042 N   0  0  0  0  0  0  0  0  0  0  0  0
   26.4020  -20.3999  -13.7056 C   0  0  1  0  0  0  0  0  0  0  0  0
   27.2284  -20.2100  -12.4701 C   0  0  0  0  0  0  0  0  0  0  0  0
   26.5435  -20.5082  -11.2104 C   0  0  0  0  0  0  0  0  0  0  0  0
   26.5021  -19.5647  -10.2083 C   0  0  0  0  0  0  0  0  0  0  0  0
   25.8539  -19.8353   -8.9973 C   0  0  0  0  0  0  0  0  0  0  0  0
   25.2500  -21.0530   -8.7981 C   0  0  0  0  0  0  0  0  0  0  0  0
   25.2836  -22.0018   -9.7875 C   0  0  0  0  0  0  0  0  0  0  0  0
   25.9304  -21.7092  -10.9741 C   0  0  0  0  0  0  0  0  0  0  0  0
   25.0349  -19.8941  -13.6550 C   0  0  0  0  0  0  0  0  0  0  0  0
   24.8328  -18.6418  -13.7370 O   0  0  0  0  0  0  0  0  0  0  0  0
   21.6851  -19.4639  -17.1235 C   0  0  0  0  0  0  0  0  0  0  0  0
   22.3979  -19.3156  -15.7818 C   0  0  0  0  0  0  0  0  0  0  0  0
   21.7746  -20.1744  -14.7209 C   0  0  2  0  0  0  0  0  0  0  0  0
   20.3554  -19.6198  -14.5153 C   0  0  0  0  0  0  0  0  0  0  0  0
   22.5201  -20.1201  -13.4553 C   0  0  2  0  0  0  0  0  0  0  0  0
   23.8648  -20.6590  -13.5245 N   0  0  0  0  0  0  0  0  0  0  0  0
   21.8289  -20.8563  -12.3842 C   0  0  0  0  0  0  0  0  0  0  0  0
   21.0926  -20.2499  -11.3647 O   0  0  0  0  0  0  0  0  0  0  0  0
   21.8579  -22.1233  -12.3095 O   0  0  0  0  0  0  0  0  0  0  0  0
  2  1  1  0
  3  2  2  0
  4  2  1  0
  5  6  1  0
  5  4  1  0
  6  7  1  6
  8  6  1  0
  8  9  2  0
 10  8  1  0
 11 10  1  0
 11 12  1  1
 13 12  1  0
 13 18  2  0
 14 13  1  0
 15 14  2  0
 15 16  1  0
 16 17  2  0
 17 18  1  0
 19 11  1  0
 20 19  2  0
 21 22  1  0
 22 23  1  0
 23 25  1  0
 23 24  1  1
 25 26  1  6
 26 19  1  0
 27 25  1  0
 28 27  1  0
 29 27  2  0
M  END
$$$$
