QFI.pdb
     RDKit          3D

 29 29  0  0  1  0  0  0  0  0999 V2000
   25.9665  -17.6919  -16.5042 N   0  0  0  0  0  0  0  0  0  0  0  0
   27.2615  -17.9506  -17.0356 C   0  0  0  0  0  0  0  0  0  0  0  0
   27.6861  -17.3240  -18.0611 O   0  0  0  0  0  0  0  0  0  0  0  0
   28.1698  -18.9614  -16.4158 C   0  0  0  0  0  0  0  0  0  0  0  0
   27.5158  -19.6012  -15.2278 C   0  0  0  0  0  0  0  0  0  0  0  0
   28.4654  -20.6592  -14.6727 C   0  0  2  0  0  0  0  0  0  0  0  0
   28.3911  -21.7902  -15.5594 N   0  0  0  0  0  0  0  0  0  0  0  0
   28.0423  -21.0506  -13.3278 C   0  0  0  0  0  0  0  0  0  0  0  0
   27.0396  -21.7946  -13.1849 O   0  0  0  0  0  0  0  0  0  0  0  0
   28.6991  -20.6408  -12.1363 N   0  0  0  0  0  0  0  0  0  0  0  0
   28.1078  -20.7074  -10.8118 C   0  0  1  0  0  0  0  0  0  0  0  0
   29.0414  -20.2011   -9.7546 C   0  0  0  0  0  0  0  0  0  0  0  0
   28.4714  -20.1174   -8.4081 C   0  0  0  0  0  0  0  0  0  0  0  0
   28.0432  -18.9050   -7.9151 C   0  0  0  0  0  0  0  0  0  0  0  0
   27.4988  -18.8078   -6.6291 C   0  0  0  0  0  0  0  0  0  0  0  0
   27.3868  -19.9292   -5.8435 C   0  0  0  0  0  0  0  0  0  0  0  0
   27.8093  -21.1429   -6.3218 C   0  0  0  0  0  0  0  0  0  0  0  0
   28.3434  -21.2116   -7.5954 C   0  0  0  0  0  0  0  0  0  0  0  0
   26.7414  -20.1993  -10.7673 C   0  0  0  0  0  0  0  0  0  0  0  0
   26.5105  -19.0057  -11.1387 O   0  0  0  0  0  0  0  0  0  0  0  0
   23.2586  -20.6626  -14.0228 C   0  0  0  0  0  0  0  0  0  0  0  0
   23.9794  -20.1319  -12.7862 C   0  0  0  0  0  0  0  0  0  0  0  0
   23.4497  -20.7475  -11.5245 C   0  0  2  0  0  0  0  0  0  0  0  0
   22.0158  -20.2148  -11.3700 C   0  0  0  0  0  0  0  0  0  0  0  0
   24.2497  -20.3762  -10.3486 C   0  0  2  0  0  0  0  0  0  0  0  0
   25.6009  -20.9029  -10.3483 N   0  0  0  0  0  0  0  0  0  0  0  0
   23.6225  -20.8322   -9.0973 C   0  0  0  0  0  0  0  0  0  0  0  0
   22.6314  -20.1252   -8.4139 O   0  0  0  0  0  0  0  0  0  0  0  0
   23.9496  -21.9238   -8.5380 O   0  0  0  0  0  0  0  0  0  0  0  0
  2  1  1  0
  3  2  2  0
  4  2  1  0
  5  6  1  0
  5  4  1  0
  6  7  1  6
  8  6  1  0
  8  9  2  0
 10  8  1  0
 11 10  1  0
 11 12  1  1
 13 12  1  0
 13 18  2  0
 14 13  1  0
 15 14  2  0
 15 16  1  0
 16 17  2  0
 17 18  1  0
 19 11  1  0
 20 19  2  0
 21 22  1  0
 22 23  1  0
 23 25  1  0
 23 24  1  1
 25 26  1  6
 26 19  1  0
 27 25  1  0
 28 27  1  0
 29 27  2  0
M  END
$$$$
