QFI.pdb
     RDKit          3D

 29 29  0  0  1  0  0  0  0  0999 V2000
   12.0144  -10.1948  -13.8762 N   0  0  0  0  0  0  0  0  0  0  0  0
   12.0778  -10.7034  -15.2042 C   0  0  0  0  0  0  0  0  0  0  0  0
   11.1493  -10.4620  -16.0434 O   0  0  0  0  0  0  0  0  0  0  0  0
   13.2291  -11.5359  -15.6649 C   0  0  0  0  0  0  0  0  0  0  0  0
   14.2405  -11.6915  -14.5690 C   0  0  0  0  0  0  0  0  0  0  0  0
   15.6324  -11.5789  -15.1847 C   0  0  2  0  0  0  0  0  0  0  0  0
   16.0833  -12.9214  -15.4404 N   0  0  0  0  0  0  0  0  0  0  0  0
   16.5395  -10.9179  -14.2459 C   0  0  0  0  0  0  0  0  0  0  0  0
   16.8538  -11.4966  -13.1754 O   0  0  0  0  0  0  0  0  0  0  0  0
   17.1083   -9.6336  -14.4597 N   0  0  0  0  0  0  0  0  0  0  0  0
   17.8636   -8.8970  -13.4620 C   0  0  1  0  0  0  0  0  0  0  0  0
   19.2619   -8.6085  -13.9170 C   0  0  0  0  0  0  0  0  0  0  0  0
   20.0779   -7.8399  -12.9746 C   0  0  0  0  0  0  0  0  0  0  0  0
   20.7033   -8.4765  -11.9259 C   0  0  0  0  0  0  0  0  0  0  0  0
   21.4843   -7.7557  -11.0148 C   0  0  0  0  0  0  0  0  0  0  0  0
   21.6338   -6.3979  -11.1610 C   0  0  0  0  0  0  0  0  0  0  0  0
   21.0166   -5.7512  -12.2008 C   0  0  0  0  0  0  0  0  0  0  0  0
   20.2507   -6.4865  -13.0867 C   0  0  0  0  0  0  0  0  0  0  0  0
   17.1228   -7.7765  -12.8936 C   0  0  0  0  0  0  0  0  0  0  0  0
   16.5221   -6.9707  -13.6718 O   0  0  0  0  0  0  0  0  0  0  0  0
   13.9471   -7.8856   -8.3786 C   0  0  0  0  0  0  0  0  0  0  0  0
   14.4753   -7.5197   -9.7633 C   0  0  0  0  0  0  0  0  0  0  0  0
   15.6354   -6.5712   -9.6852 C   0  0  2  0  0  0  0  0  0  0  0  0
   15.0620   -5.2545   -9.1364 C   0  0  0  0  0  0  0  0  0  0  0  0
   16.2503   -6.3386  -10.9998 C   0  0  2  0  0  0  0  0  0  0  0  0
   16.9854   -7.4707  -11.5301 N   0  0  0  0  0  0  0  0  0  0  0  0
   17.1909   -5.2066  -10.9683 C   0  0  0  0  0  0  0  0  0  0  0  0
   16.8441   -3.8899  -11.2767 O   0  0  0  0  0  0  0  0  0  0  0  0
   18.4122   -5.3534  -10.6546 O   0  0  0  0  0  0  0  0  0  0  0  0
  2  1  1  0
  3  2  2  0
  4  2  1  0
  5  6  1  0
  5  4  1  0
  6  7  1  1
  8  6  1  0
  8  9  2  0
 10  8  1  0
 11 10  1  0
 11 12  1  6
 13 12  1  0
 13 18  2  0
 14 13  1  0
 15 14  2  0
 15 16  1  0
 16 17  2  0
 17 18  1  0
 19 11  1  0
 20 19  2  0
 21 22  1  0
 22 23  1  0
 23 25  1  0
 23 24  1  6
 25 26  1  1
 26 19  1  0
 27 25  1  0
 28 27  1  0
 29 27  2  0
M  END
$$$$
