QFI.pdb
     RDKit          3D

 29 29  0  0  1  0  0  0  0  0999 V2000
   28.7043  -19.6279  -17.6152 N   0  0  0  0  0  0  0  0  0  0  0  0
   28.7300  -20.3699  -18.8297 C   0  0  0  0  0  0  0  0  0  0  0  0
   29.5912  -20.1164  -19.7344 O   0  0  0  0  0  0  0  0  0  0  0  0
   27.7538  -21.4698  -19.0909 C   0  0  0  0  0  0  0  0  0  0  0  0
   26.8435  -21.6587  -17.9145 C   0  0  0  0  0  0  0  0  0  0  0  0
   27.6373  -22.3363  -16.8010 C   0  0  2  0  0  0  0  0  0  0  0  0
   27.8209  -23.7075  -17.1970 N   0  0  0  0  0  0  0  0  0  0  0  0
   26.8861  -22.2751  -15.5468 C   0  0  0  0  0  0  0  0  0  0  0  0
   25.8389  -22.9578  -15.4170 O   0  0  0  0  0  0  0  0  0  0  0  0
   27.2626  -21.4788  -14.4318 N   0  0  0  0  0  0  0  0  0  0  0  0
   26.4781  -21.3493  -13.2168 C   0  0  1  0  0  0  0  0  0  0  0  0
   27.2921  -20.8148  -12.0779 C   0  0  0  0  0  0  0  0  0  0  0  0
   26.5520  -20.5908  -10.8341 C   0  0  0  0  0  0  0  0  0  0  0  0
   26.2493  -21.6529  -10.0115 C   0  0  0  0  0  0  0  0  0  0  0  0
   25.5400  -21.4559   -8.8207 C   0  0  0  0  0  0  0  0  0  0  0  0
   25.1377  -20.1925   -8.4613 C   0  0  0  0  0  0  0  0  0  0  0  0
   25.4324  -19.1259   -9.2711 C   0  0  0  0  0  0  0  0  0  0  0  0
   26.1340  -19.3477  -10.4418 C   0  0  0  0  0  0  0  0  0  0  0  0
   25.1800  -20.7217  -13.4363 C   0  0  0  0  0  0  0  0  0  0  0  0
   25.1280  -19.5836  -14.0003 O   0  0  0  0  0  0  0  0  0  0  0  0
   22.5082  -19.7646  -16.2992 C   0  0  0  0  0  0  0  0  0  0  0  0
   22.5058  -21.1798  -15.7270 C   0  0  0  0  0  0  0  0  0  0  0  0
   21.8399  -21.2373  -14.3836 C   0  0  2  0  0  0  0  0  0  0  0  0
   20.5108  -20.4811  -14.5437 C   0  0  0  0  0  0  0  0  0  0  0  0
   22.6519  -20.6033  -13.3352 C   0  0  2  0  0  0  0  0  0  0  0  0
   23.9265  -21.2492  -13.0870 N   0  0  0  0  0  0  0  0  0  0  0  0
   21.9433  -20.5665  -12.0453 C   0  0  0  0  0  0  0  0  0  0  0  0
   21.3821  -19.4143  -11.4915 O   0  0  0  0  0  0  0  0  0  0  0  0
   21.7931  -21.6035  -11.3288 O   0  0  0  0  0  0  0  0  0  0  0  0
  2  1  1  0
  3  2  2  0
  4  2  1  0
  5  6  1  0
  5  4  1  0
  6  7  1  6
  8  6  1  0
  8  9  2  0
 10  8  1  0
 11 10  1  0
 11 12  1  1
 13 12  1  0
 13 18  2  0
 14 13  1  0
 15 14  2  0
 15 16  1  0
 16 17  2  0
 17 18  1  0
 19 11  1  0
 20 19  2  0
 21 22  1  0
 22 23  1  0
 23 25  1  0
 23 24  1  6
 25 26  1  1
 26 19  1  0
 27 25  1  0
 28 27  1  0
 29 27  2  0
M  END
$$$$
