QFI.pdb
     RDKit          3D

 29 29  0  0  1  0  0  0  0  0999 V2000
   28.4755  -19.0571  -17.6530 N   0  0  0  0  0  0  0  0  0  0  0  0
   28.4922  -19.6814  -18.9322 C   0  0  0  0  0  0  0  0  0  0  0  0
   29.3021  -19.2972  -19.8383 O   0  0  0  0  0  0  0  0  0  0  0  0
   27.5660  -20.8057  -19.2620 C   0  0  0  0  0  0  0  0  0  0  0  0
   26.7005  -21.1400  -18.0841 C   0  0  0  0  0  0  0  0  0  0  0  0
   27.5376  -21.9371  -17.0877 C   0  0  2  0  0  0  0  0  0  0  0  0
   27.6906  -23.2584  -17.6370 N   0  0  0  0  0  0  0  0  0  0  0  0
   26.8447  -22.0086  -15.8010 C   0  0  0  0  0  0  0  0  0  0  0  0
   25.9171  -22.8416  -15.6414 O   0  0  0  0  0  0  0  0  0  0  0  0
   27.1504  -21.1831  -14.6857 N   0  0  0  0  0  0  0  0  0  0  0  0
   26.3842  -21.1572  -13.4525 C   0  0  1  0  0  0  0  0  0  0  0  0
   27.1898  -20.6339  -12.3024 C   0  0  0  0  0  0  0  0  0  0  0  0
   26.4601  -20.5013  -11.0396 C   0  0  0  0  0  0  0  0  0  0  0  0
   26.2832  -21.5991  -10.2273 C   0  0  0  0  0  0  0  0  0  0  0  0
   25.5856  -21.4895   -9.0186 C   0  0  0  0  0  0  0  0  0  0  0  0
   25.0685  -20.2773   -8.6308 C   0  0  0  0  0  0  0  0  0  0  0  0
   25.2372  -19.1759   -9.4301 C   0  0  0  0  0  0  0  0  0  0  0  0
   25.9302  -19.3112  -10.6190 C   0  0  0  0  0  0  0  0  0  0  0  0
   25.0493  -20.5937  -13.6183 C   0  0  0  0  0  0  0  0  0  0  0  0
   24.9232  -19.4341  -14.1238 O   0  0  0  0  0  0  0  0  0  0  0  0
   21.6285  -21.0931  -17.0680 C   0  0  0  0  0  0  0  0  0  0  0  0
   22.4043  -20.5957  -15.8511 C   0  0  0  0  0  0  0  0  0  0  0  0
   21.7529  -21.0130  -14.5654 C   0  0  2  0  0  0  0  0  0  0  0  0
   20.3743  -20.3325  -14.5557 C   0  0  0  0  0  0  0  0  0  0  0  0
   22.5268  -20.5901  -13.3894 C   0  0  2  0  0  0  0  0  0  0  0  0
   23.8341  -21.2074  -13.2745 N   0  0  0  0  0  0  0  0  0  0  0  0
   21.8143  -20.8823  -12.1348 C   0  0  0  0  0  0  0  0  0  0  0  0
   21.0655  -19.9445  -11.4214 O   0  0  0  0  0  0  0  0  0  0  0  0
   21.8347  -22.0336  -11.6003 O   0  0  0  0  0  0  0  0  0  0  0  0
  2  1  1  0
  3  2  2  0
  4  2  1  0
  5  6  1  0
  5  4  1  0
  6  7  1  6
  8  6  1  0
  8  9  2  0
 10  8  1  0
 11 10  1  0
 11 12  1  1
 13 12  1  0
 13 18  2  0
 14 13  1  0
 15 14  2  0
 15 16  1  0
 16 17  2  0
 17 18  1  0
 19 11  1  0
 20 19  2  0
 21 22  1  0
 22 23  1  0
 23 25  1  0
 23 24  1  1
 25 26  1  1
 26 19  1  0
 27 25  1  0
 28 27  1  0
 29 27  2  0
M  END
$$$$
