QFI.pdb
     RDKit          3D

 29 29  0  0  1  0  0  0  0  0999 V2000
   23.0787  -21.7720  -14.6813 N   0  0  0  0  0  0  0  0  0  0  0  0
   23.1297  -20.3499  -14.6480 C   0  0  0  0  0  0  0  0  0  0  0  0
   22.6583  -19.6546  -15.6066 O   0  0  0  0  0  0  0  0  0  0  0  0
   23.7344  -19.6192  -13.4942 C   0  0  0  0  0  0  0  0  0  0  0  0
   24.0647  -20.5691  -12.3820 C   0  0  0  0  0  0  0  0  0  0  0  0
   25.5821  -20.6094  -12.2237 C   0  0  2  0  0  0  0  0  0  0  0  0
   26.0606  -21.6659  -13.0757 N   0  0  0  0  0  0  0  0  0  0  0  0
   25.9295  -20.8949  -10.8313 C   0  0  0  0  0  0  0  0  0  0  0  0
   25.6370  -22.0122  -10.3356 O   0  0  0  0  0  0  0  0  0  0  0  0
   26.5920  -19.9772   -9.9724 N   0  0  0  0  0  0  0  0  0  0  0  0
   26.9132  -20.2441   -8.5817 C   0  0  1  0  0  0  0  0  0  0  0  0
   28.0842  -19.4359   -8.1114 C   0  0  0  0  0  0  0  0  0  0  0  0
   28.4247  -19.5973   -6.6961 C   0  0  0  0  0  0  0  0  0  0  0  0
   28.1175  -18.6020   -5.7955 C   0  0  0  0  0  0  0  0  0  0  0  0
   28.4388  -18.7398   -4.4399 C   0  0  0  0  0  0  0  0  0  0  0  0
   29.0676  -19.8772   -3.9948 C   0  0  0  0  0  0  0  0  0  0  0  0
   29.3794  -20.8763   -4.8808 C   0  0  0  0  0  0  0  0  0  0  0  0
   29.0511  -20.7152   -6.2143 C   0  0  0  0  0  0  0  0  0  0  0  0
   25.7412  -20.2528   -7.7136 C   0  0  0  0  0  0  0  0  0  0  0  0
   24.9118  -19.2918   -7.7806 O   0  0  0  0  0  0  0  0  0  0  0  0
   21.2614  -23.5905   -5.3808 C   0  0  0  0  0  0  0  0  0  0  0  0
   22.1544  -22.3655   -5.2016 C   0  0  0  0  0  0  0  0  0  0  0  0
   23.3885  -22.4457   -6.0513 C   0  0  2  0  0  0  0  0  0  0  0  0
   24.1770  -23.6579   -5.5292 C   0  0  0  0  0  0  0  0  0  0  0  0
   24.2119  -21.2324   -5.9482 C   0  0  2  0  0  0  0  0  0  0  0  0
   25.4035  -21.2408   -6.7748 N   0  0  0  0  0  0  0  0  0  0  0  0
   24.6626  -20.9960   -4.5668 C   0  0  0  0  0  0  0  0  0  0  0  0
   25.9694  -21.2043   -4.1217 O   0  0  0  0  0  0  0  0  0  0  0  0
   23.8748  -20.5800   -3.6624 O   0  0  0  0  0  0  0  0  0  0  0  0
  2  1  1  0
  3  2  2  0
  4  2  1  0
  5  6  1  0
  5  4  1  0
  6  7  1  6
  8  6  1  0
  8  9  2  0
 10  8  1  0
 11 10  1  0
 11 12  1  1
 13 12  1  0
 13 18  2  0
 14 13  1  0
 15 14  2  0
 15 16  1  0
 16 17  2  0
 17 18  1  0
 19 11  1  0
 20 19  2  0
 21 22  1  0
 22 23  1  0
 23 25  1  0
 23 24  1  1
 25 26  1  6
 26 19  1  0
 27 25  1  0
 28 27  1  0
 29 27  2  0
M  END
$$$$
