QFI.pdb
     RDKit          3D

 29 29  0  0  1  0  0  0  0  0999 V2000
   20.3788  -23.5722  -14.2529 N   0  0  0  0  0  0  0  0  0  0  0  0
   19.1787  -23.1755  -13.5981 C   0  0  0  0  0  0  0  0  0  0  0  0
   18.2299  -24.0055  -13.4098 O   0  0  0  0  0  0  0  0  0  0  0  0
   18.9845  -21.7781  -13.1080 C   0  0  0  0  0  0  0  0  0  0  0  0
   20.1889  -20.9389  -13.4137 C   0  0  0  0  0  0  0  0  0  0  0  0
   21.2808  -21.2863  -12.4058 C   0  0  2  0  0  0  0  0  0  0  0  0
   20.8169  -20.8375  -11.1196 N   0  0  0  0  0  0  0  0  0  0  0  0
   22.5212  -20.5947  -12.7582 C   0  0  0  0  0  0  0  0  0  0  0  0
   22.6359  -19.3662  -12.5192 O   0  0  0  0  0  0  0  0  0  0  0  0
   23.6385  -21.2261  -13.3681 N   0  0  0  0  0  0  0  0  0  0  0  0
   24.8805  -20.5502  -13.6985 C   0  0  1  0  0  0  0  0  0  0  0  0
   26.0341  -21.0736  -12.8979 C   0  0  0  0  0  0  0  0  0  0  0  0
   25.9620  -20.8146  -11.4583 C   0  0  0  0  0  0  0  0  0  0  0  0
   26.3981  -19.6105  -10.9519 C   0  0  0  0  0  0  0  0  0  0  0  0
   26.3386  -19.3487   -9.5780 C   0  0  0  0  0  0  0  0  0  0  0  0
   25.8410  -20.2977   -8.7183 C   0  0  0  0  0  0  0  0  0  0  0  0
   25.4033  -21.5010   -9.2090 C   0  0  0  0  0  0  0  0  0  0  0  0
   25.4731  -21.7345  -10.5701 C   0  0  0  0  0  0  0  0  0  0  0  0
   25.0961  -20.4160  -15.1347 C   0  0  0  0  0  0  0  0  0  0  0  0
   24.9140  -21.4245  -15.8867 O   0  0  0  0  0  0  0  0  0  0  0  0
   22.9950  -16.3566  -17.8950 C   0  0  0  0  0  0  0  0  0  0  0  0
   23.5343  -17.7253  -17.4873 C   0  0  0  0  0  0  0  0  0  0  0  0
   25.0016  -17.8544  -17.7730 C   0  0  2  0  0  0  0  0  0  0  0  0
   25.1342  -17.8132  -19.3042 C   0  0  0  0  0  0  0  0  0  0  0  0
   25.5577  -19.1136  -17.2574 C   0  0  2  0  0  0  0  0  0  0  0  0
   25.4946  -19.2544  -15.8154 N   0  0  0  0  0  0  0  0  0  0  0  0
   26.9716  -19.2784  -17.6325 C   0  0  0  0  0  0  0  0  0  0  0  0
   28.0451  -18.8266  -16.8625 O   0  0  0  0  0  0  0  0  0  0  0  0
   27.3210  -19.8532  -18.7091 O   0  0  0  0  0  0  0  0  0  0  0  0
  2  1  1  0
  3  2  2  0
  4  2  1  0
  5  6  1  0
  5  4  1  0
  6  7  1  1
  8  6  1  0
  8  9  2  0
 10  8  1  0
 11 10  1  0
 11 12  1  6
 13 12  1  0
 13 18  2  0
 14 13  1  0
 15 14  2  0
 15 16  1  0
 16 17  2  0
 17 18  1  0
 19 11  1  0
 20 19  2  0
 21 22  1  0
 22 23  1  0
 23 25  1  0
 23 24  1  6
 25 26  1  1
 26 19  1  0
 27 25  1  0
 28 27  1  0
 29 27  2  0
M  END
$$$$
