QFI.pdb
     RDKit          3D

 29 29  0  0  1  0  0  0  0  0999 V2000
   18.5741  -23.3263  -11.4350 N   0  0  0  0  0  0  0  0  0  0  0  0
   18.6227  -23.4971  -12.8474 C   0  0  0  0  0  0  0  0  0  0  0  0
   18.2201  -24.5774  -13.3910 O   0  0  0  0  0  0  0  0  0  0  0  0
   19.1448  -22.4229  -13.7441 C   0  0  0  0  0  0  0  0  0  0  0  0
   19.4625  -21.1863  -12.9577 C   0  0  0  0  0  0  0  0  0  0  0  0
   20.6152  -21.5064  -12.0102 C   0  0  2  0  0  0  0  0  0  0  0  0
   20.3151  -20.8627  -10.7586 N   0  0  0  0  0  0  0  0  0  0  0  0
   21.8673  -20.9802  -12.5547 C   0  0  0  0  0  0  0  0  0  0  0  0
   21.8342  -20.0463  -13.3951 O   0  0  0  0  0  0  0  0  0  0  0  0
   23.1554  -21.4595  -12.1942 N   0  0  0  0  0  0  0  0  0  0  0  0
   24.4024  -20.9144  -12.7004 C   0  0  1  0  0  0  0  0  0  0  0  0
   25.5089  -21.0179  -11.6951 C   0  0  0  0  0  0  0  0  0  0  0  0
   26.8248  -20.5848  -12.1701 C   0  0  0  0  0  0  0  0  0  0  0  0
   27.8115  -21.5150  -12.4097 C   0  0  0  0  0  0  0  0  0  0  0  0
   29.0754  -21.1170  -12.8611 C   0  0  0  0  0  0  0  0  0  0  0  0
   29.3429  -19.7858  -13.0700 C   0  0  0  0  0  0  0  0  0  0  0  0
   28.3695  -18.8488  -12.8354 C   0  0  0  0  0  0  0  0  0  0  0  0
   27.1296  -19.2684  -12.3898 C   0  0  0  0  0  0  0  0  0  0  0  0
   24.7138  -21.3566  -14.0549 C   0  0  0  0  0  0  0  0  0  0  0  0
   24.7405  -22.6014  -14.3109 O   0  0  0  0  0  0  0  0  0  0  0  0
   23.4901  -18.5322  -18.7398 C   0  0  0  0  0  0  0  0  0  0  0  0
   24.3600  -19.0286  -17.5878 C   0  0  0  0  0  0  0  0  0  0  0  0
   24.4335  -20.5268  -17.5495 C   0  0  2  0  0  0  0  0  0  0  0  0
   22.9979  -21.0086  -17.2835 C   0  0  0  0  0  0  0  0  0  0  0  0
   25.3274  -21.0107  -16.4878 C   0  0  2  0  0  0  0  0  0  0  0  0
   24.9963  -20.5354  -15.1582 N   0  0  0  0  0  0  0  0  0  0  0  0
   26.7259  -20.6228  -16.7347 C   0  0  0  0  0  0  0  0  0  0  0  0
   27.4043  -19.6358  -16.0172 O   0  0  0  0  0  0  0  0  0  0  0  0
   27.4272  -21.1693  -17.6407 O   0  0  0  0  0  0  0  0  0  0  0  0
  2  1  1  0
  3  2  2  0
  4  2  1  0
  5  6  1  0
  5  4  1  0
  6  7  1  1
  8  6  1  0
  8  9  2  0
 10  8  1  0
 11 10  1  0
 11 12  1  1
 13 12  1  0
 13 18  2  0
 14 13  1  0
 15 14  2  0
 15 16  1  0
 16 17  2  0
 17 18  1  0
 19 11  1  0
 20 19  2  0
 21 22  1  0
 22 23  1  0
 23 25  1  0
 23 24  1  1
 25 26  1  1
 26 19  1  0
 27 25  1  0
 28 27  1  0
 29 27  2  0
M  END
$$$$
