QFI.pdb
     RDKit          3D

 29 29  0  0  1  0  0  0  0  0999 V2000
   29.4280  -18.2113  -18.6090 N   0  0  0  0  0  0  0  0  0  0  0  0
   28.0317  -18.3155  -18.8658 C   0  0  0  0  0  0  0  0  0  0  0  0
   27.2534  -17.3258  -18.6679 O   0  0  0  0  0  0  0  0  0  0  0  0
   27.4261  -19.5823  -19.3749 C   0  0  0  0  0  0  0  0  0  0  0  0
   26.6677  -20.2803  -18.2859 C   0  0  0  0  0  0  0  0  0  0  0  0
   27.6721  -20.7902  -17.2562 C   0  0  2  0  0  0  0  0  0  0  0  0
   28.2829  -21.9656  -17.8184 N   0  0  0  0  0  0  0  0  0  0  0  0
   26.9798  -21.1330  -16.0135 C   0  0  0  0  0  0  0  0  0  0  0  0
   26.1512  -22.0780  -16.0055 O   0  0  0  0  0  0  0  0  0  0  0  0
   27.1797  -20.4584  -14.7791 N   0  0  0  0  0  0  0  0  0  0  0  0
   26.4142  -20.7162  -13.5725 C   0  0  1  0  0  0  0  0  0  0  0  0
   27.1137  -20.2137  -12.3462 C   0  0  0  0  0  0  0  0  0  0  0  0
   26.3603  -20.3527  -11.0981 C   0  0  0  0  0  0  0  0  0  0  0  0
   26.5967  -21.4241  -10.2660 C   0  0  0  0  0  0  0  0  0  0  0  0
   25.8830  -21.5728   -9.0709 C   0  0  0  0  0  0  0  0  0  0  0  0
   24.9346  -20.6443   -8.7166 C   0  0  0  0  0  0  0  0  0  0  0  0
   24.6890  -19.5724   -9.5358 C   0  0  0  0  0  0  0  0  0  0  0  0
   25.4077  -19.4490  -10.7107 C   0  0  0  0  0  0  0  0  0  0  0  0
   25.0038  -20.3682  -13.7026 C   0  0  0  0  0  0  0  0  0  0  0  0
   24.6859  -19.2086  -14.1151 O   0  0  0  0  0  0  0  0  0  0  0  0
   21.5947  -22.1985  -16.9893 C   0  0  0  0  0  0  0  0  0  0  0  0
   22.2861  -21.3152  -15.9539 C   0  0  0  0  0  0  0  0  0  0  0  0
   21.7697  -21.5708  -14.5684 C   0  0  2  0  0  0  0  0  0  0  0  0
   20.3001  -21.1194  -14.5807 C   0  0  0  0  0  0  0  0  0  0  0  0
   22.5155  -20.8160  -13.5512 C   0  0  2  0  0  0  0  0  0  0  0  0
   23.9080  -21.1985  -13.4176 N   0  0  0  0  0  0  0  0  0  0  0  0
   21.9122  -20.9591  -12.2160 C   0  0  0  0  0  0  0  0  0  0  0  0
   22.2277  -21.9808  -11.3183 O   0  0  0  0  0  0  0  0  0  0  0  0
   21.0402  -20.1464  -11.7795 O   0  0  0  0  0  0  0  0  0  0  0  0
  2  1  1  0
  3  2  2  0
  4  2  1  0
  5  6  1  0
  5  4  1  0
  6  7  1  6
  8  6  1  0
  8  9  2  0
 10  8  1  0
 11 10  1  0
 11 12  1  1
 13 12  1  0
 13 18  2  0
 14 13  1  0
 15 14  2  0
 15 16  1  0
 16 17  2  0
 17 18  1  0
 19 11  1  0
 20 19  2  0
 21 22  1  0
 22 23  1  0
 23 25  1  0
 23 24  1  6
 25 26  1  1
 26 19  1  0
 27 25  1  0
 28 27  1  0
 29 27  2  0
M  END
$$$$
