QFI.pdb
     RDKit          3D

 29 29  0  0  1  0  0  0  0  0999 V2000
   28.1254  -20.5131  -15.8762 N   0  0  0  0  0  0  0  0  0  0  0  0
   28.1693  -19.1029  -15.6873 C   0  0  0  0  0  0  0  0  0  0  0  0
   28.6143  -18.3330  -16.6004 O   0  0  0  0  0  0  0  0  0  0  0  0
   27.6981  -18.4723  -14.4180 C   0  0  0  0  0  0  0  0  0  0  0  0
   27.1309  -19.5071  -13.4928 C   0  0  0  0  0  0  0  0  0  0  0  0
   28.2852  -20.3426  -12.9463 C   0  0  2  0  0  0  0  0  0  0  0  0
   28.3901  -21.5061  -13.7866 N   0  0  0  0  0  0  0  0  0  0  0  0
   27.9991  -20.7456  -11.5691 C   0  0  0  0  0  0  0  0  0  0  0  0
   27.2827  -21.7557  -11.3545 O   0  0  0  0  0  0  0  0  0  0  0  0
   28.4842  -20.0608  -10.4226 N   0  0  0  0  0  0  0  0  0  0  0  0
   28.0571  -20.3375   -9.0626 C   0  0  1  0  0  0  0  0  0  0  0  0
   28.9784  -19.7278   -8.0502 C   0  0  0  0  0  0  0  0  0  0  0  0
   28.5183  -19.8062   -6.6621 C   0  0  0  0  0  0  0  0  0  0  0  0
   28.8198  -20.9110   -5.8974 C   0  0  0  0  0  0  0  0  0  0  0  0
   28.3850  -21.0024   -4.5699 C   0  0  0  0  0  0  0  0  0  0  0  0
   27.6491  -19.9832   -4.0159 C   0  0  0  0  0  0  0  0  0  0  0  0
   27.3417  -18.8772   -4.7660 C   0  0  0  0  0  0  0  0  0  0  0  0
   27.7832  -18.8118   -6.0747 C   0  0  0  0  0  0  0  0  0  0  0  0
   26.6300  -20.1201   -8.8542 C   0  0  0  0  0  0  0  0  0  0  0  0
   26.1503  -18.9534   -9.0107 O   0  0  0  0  0  0  0  0  0  0  0  0
   23.1498  -20.7297  -12.0253 C   0  0  0  0  0  0  0  0  0  0  0  0
   23.8563  -20.3027  -10.7413 C   0  0  0  0  0  0  0  0  0  0  0  0
   23.4828  -21.1782   -9.5813 C   0  0  2  0  0  0  0  0  0  0  0  0
   21.9877  -20.9226   -9.3298 C   0  0  0  0  0  0  0  0  0  0  0  0
   24.2546  -20.8557   -8.3727 C   0  0  2  0  0  0  0  0  0  0  0  0
   25.6813  -21.0887   -8.4889 N   0  0  0  0  0  0  0  0  0  0  0  0
   23.7968  -21.6344   -7.2103 C   0  0  0  0  0  0  0  0  0  0  0  0
   22.8794  -21.1688   -6.2665 O   0  0  0  0  0  0  0  0  0  0  0  0
   24.2169  -22.8097   -6.9783 O   0  0  0  0  0  0  0  0  0  0  0  0
  2  1  1  0
  3  2  2  0
  4  2  1  0
  5  6  1  0
  5  4  1  0
  6  7  1  6
  8  6  1  0
  8  9  2  0
 10  8  1  0
 11 10  1  0
 11 12  1  1
 13 12  1  0
 13 18  2  0
 14 13  1  0
 15 14  2  0
 15 16  1  0
 16 17  2  0
 17 18  1  0
 19 11  1  0
 20 19  2  0
 21 22  1  0
 22 23  1  0
 23 25  1  0
 23 24  1  1
 25 26  1  6
 26 19  1  0
 27 25  1  0
 28 27  1  0
 29 27  2  0
M  END
$$$$
