QFI.pdb
     RDKit          3D

 29 29  0  0  1  0  0  0  0  0999 V2000
   22.8098  -12.1292  -21.7314 N   0  0  0  0  0  0  0  0  0  0  0  0
   22.4634  -13.5099  -21.7375 C   0  0  0  0  0  0  0  0  0  0  0  0
   22.4766  -14.1840  -22.8191 O   0  0  0  0  0  0  0  0  0  0  0  0
   22.0727  -14.2201  -20.4831 C   0  0  0  0  0  0  0  0  0  0  0  0
   22.0498  -13.2701  -19.3233 C   0  0  0  0  0  0  0  0  0  0  0  0
   23.4746  -13.1272  -18.7953 C   0  0  2  0  0  0  0  0  0  0  0  0
   23.8496  -14.4092  -18.2597 N   0  0  0  0  0  0  0  0  0  0  0  0
   23.5148  -12.1142  -17.7403 C   0  0  0  0  0  0  0  0  0  0  0  0
   23.2490  -12.4410  -16.5561 O   0  0  0  0  0  0  0  0  0  0  0  0
   23.8413  -10.7490  -17.9601 N   0  0  0  0  0  0  0  0  0  0  0  0
   23.9052   -9.7443  -16.9137 C   0  0  1  0  0  0  0  0  0  0  0  0
   25.3018   -9.2450  -16.6999 C   0  0  0  0  0  0  0  0  0  0  0  0
   26.2826  -10.2718  -16.3413 C   0  0  0  0  0  0  0  0  0  0  0  0
   27.1027  -10.8091  -17.3082 C   0  0  0  0  0  0  0  0  0  0  0  0
   28.0433  -11.7933  -16.9821 C   0  0  0  0  0  0  0  0  0  0  0  0
   28.1561  -12.2337  -15.6857 C   0  0  0  0  0  0  0  0  0  0  0  0
   27.3457  -11.7073  -14.7129 C   0  0  0  0  0  0  0  0  0  0  0  0
   26.4249  -10.7363  -15.0614 C   0  0  0  0  0  0  0  0  0  0  0  0
   22.8644   -8.7290  -17.0290 C   0  0  0  0  0  0  0  0  0  0  0  0
   22.8030   -8.0196  -18.0820 O   0  0  0  0  0  0  0  0  0  0  0  0
   17.6760   -9.5161  -16.7668 C   0  0  0  0  0  0  0  0  0  0  0  0
   19.0470   -8.9161  -17.0678 C   0  0  0  0  0  0  0  0  0  0  0  0
   19.4717   -7.9378  -16.0123 C   0  0  2  0  0  0  0  0  0  0  0  0
   18.4681   -6.7758  -16.0919 C   0  0  0  0  0  0  0  0  0  0  0  0
   20.8349   -7.4365  -16.2380 C   0  0  2  0  0  0  0  0  0  0  0  0
   21.8774   -8.4315  -16.0757 N   0  0  0  0  0  0  0  0  0  0  0  0
   21.1664   -6.3303  -15.3250 C   0  0  0  0  0  0  0  0  0  0  0  0
   22.0962   -6.4215  -14.2875 O   0  0  0  0  0  0  0  0  0  0  0  0
   20.6141   -5.1910  -15.4176 O   0  0  0  0  0  0  0  0  0  0  0  0
  2  1  1  0
  3  2  2  0
  4  2  1  0
  5  6  1  0
  5  4  1  0
  6  7  1  1
  8  6  1  0
  8  9  2  0
 10  8  1  0
 11 10  1  0
 11 12  1  6
 13 12  1  0
 13 18  2  0
 14 13  1  0
 15 14  2  0
 15 16  1  0
 16 17  2  0
 17 18  1  0
 19 11  1  0
 20 19  2  0
 21 22  1  0
 22 23  1  0
 23 25  1  0
 23 24  1  6
 25 26  1  1
 26 19  1  0
 27 25  1  0
 28 27  1  0
 29 27  2  0
M  END
$$$$
