QFI.pdb
     RDKit          3D

 29 29  0  0  1  0  0  0  0  0999 V2000
   27.1873  -17.0110  -14.4084 N   0  0  0  0  0  0  0  0  0  0  0  0
   28.1753  -17.3235  -15.3844 C   0  0  0  0  0  0  0  0  0  0  0  0
   28.9396  -16.4191  -15.8560 O   0  0  0  0  0  0  0  0  0  0  0  0
   28.3548  -18.7166  -15.8922 C   0  0  0  0  0  0  0  0  0  0  0  0
   27.4392  -19.6626  -15.1745 C   0  0  0  0  0  0  0  0  0  0  0  0
   28.0491  -19.9747  -13.8108 C   0  0  2  0  0  0  0  0  0  0  0  0
   29.1821  -20.8295  -14.0483 N   0  0  0  0  0  0  0  0  0  0  0  0
   27.0684  -20.6666  -12.9740 C   0  0  0  0  0  0  0  0  0  0  0  0
   26.6591  -21.8061  -13.3113 O   0  0  0  0  0  0  0  0  0  0  0  0
   26.5281  -20.1317  -11.7736 N   0  0  0  0  0  0  0  0  0  0  0  0
   25.3826  -20.6855  -11.0740 C   0  0  1  0  0  0  0  0  0  0  0  0
   25.3596  -20.2848   -9.6302 C   0  0  0  0  0  0  0  0  0  0  0  0
   26.6325  -20.4344   -8.9216 C   0  0  0  0  0  0  0  0  0  0  0  0
   27.5141  -21.4260   -9.2902 C   0  0  0  0  0  0  0  0  0  0  0  0
   28.7335  -21.5840   -8.6211 C   0  0  0  0  0  0  0  0  0  0  0  0
   29.0624  -20.7449   -7.5843 C   0  0  0  0  0  0  0  0  0  0  0  0
   28.1939  -19.7532   -7.2068 C   0  0  0  0  0  0  0  0  0  0  0  0
   26.9959  -19.6186   -7.8841 C   0  0  0  0  0  0  0  0  0  0  0  0
   24.1323  -20.5321  -11.8092 C   0  0  0  0  0  0  0  0  0  0  0  0
   23.8739  -19.4207  -12.3695 O   0  0  0  0  0  0  0  0  0  0  0  0
   23.0729  -23.8018  -15.6886 C   0  0  0  0  0  0  0  0  0  0  0  0
   23.1196  -22.5791  -14.7759 C   0  0  0  0  0  0  0  0  0  0  0  0
   21.9270  -22.5151  -13.8676 C   0  0  2  0  0  0  0  0  0  0  0  0
   20.7130  -22.3022  -14.7867 C   0  0  0  0  0  0  0  0  0  0  0  0
   22.0234  -21.4095  -12.9037 C   0  0  2  0  0  0  0  0  0  0  0  0
   23.1388  -21.5091  -11.9822 N   0  0  0  0  0  0  0  0  0  0  0  0
   20.8086  -21.2980  -12.0798 C   0  0  0  0  0  0  0  0  0  0  0  0
   19.7625  -20.4111  -12.3410 O   0  0  0  0  0  0  0  0  0  0  0  0
   20.6253  -22.0150  -11.0483 O   0  0  0  0  0  0  0  0  0  0  0  0
  2  1  1  0
  3  2  2  0
  4  2  1  0
  5  6  1  0
  5  4  1  0
  6  7  1  6
  8  6  1  0
  8  9  2  0
 10  8  1  0
 11 10  1  0
 11 12  1  1
 13 12  1  0
 13 18  2  0
 14 13  1  0
 15 14  2  0
 15 16  1  0
 16 17  2  0
 17 18  1  0
 19 11  1  0
 20 19  2  0
 21 22  1  0
 22 23  1  0
 23 25  1  0
 23 24  1  6
 25 26  1  1
 26 19  1  0
 27 25  1  0
 28 27  1  0
 29 27  2  0
M  END
$$$$
