QFI.pdb
     RDKit          3D

 29 29  0  0  1  0  0  0  0  0999 V2000
   18.7185  -21.6671  -14.0541 N   0  0  0  0  0  0  0  0  0  0  0  0
   19.4986  -22.7544  -14.5393 C   0  0  0  0  0  0  0  0  0  0  0  0
   18.9572  -23.8710  -14.8300 O   0  0  0  0  0  0  0  0  0  0  0  0
   20.9753  -22.6307  -14.7264 C   0  0  0  0  0  0  0  0  0  0  0  0
   21.4245  -21.2236  -14.4681 C   0  0  0  0  0  0  0  0  0  0  0  0
   21.4358  -20.9957  -12.9591 C   0  0  2  0  0  0  0  0  0  0  0  0
   20.4748  -19.9594  -12.6884 N   0  0  0  0  0  0  0  0  0  0  0  0
   22.7673  -20.5660  -12.5310 C   0  0  0  0  0  0  0  0  0  0  0  0
   23.2783  -19.5345  -13.0356 O   0  0  0  0  0  0  0  0  0  0  0  0
   23.5490  -21.2470  -11.5594 N   0  0  0  0  0  0  0  0  0  0  0  0
   24.8942  -20.8595  -11.1736 C   0  0  1  0  0  0  0  0  0  0  0  0
   25.2868  -21.4391   -9.8487 C   0  0  0  0  0  0  0  0  0  0  0  0
   26.5352  -20.9194   -9.2864 C   0  0  0  0  0  0  0  0  0  0  0  0
   27.7453  -21.3233   -9.8048 C   0  0  0  0  0  0  0  0  0  0  0  0
   28.9475  -20.8380   -9.2766 C   0  0  0  0  0  0  0  0  0  0  0  0
   28.9290  -19.9487   -8.2297 C   0  0  0  0  0  0  0  0  0  0  0  0
   27.7310  -19.5381   -7.7038 C   0  0  0  0  0  0  0  0  0  0  0  0
   26.5580  -20.0326   -8.2437 C   0  0  0  0  0  0  0  0  0  0  0  0
   25.8634  -20.9984  -12.2546 C   0  0  0  0  0  0  0  0  0  0  0  0
   25.9434  -22.1030  -12.8786 O   0  0  0  0  0  0  0  0  0  0  0  0
   27.0330  -16.6796  -15.5740 C   0  0  0  0  0  0  0  0  0  0  0  0
   26.6863  -18.0865  -15.0938 C   0  0  0  0  0  0  0  0  0  0  0  0
   27.8804  -18.7897  -14.5184 C   0  0  2  0  0  0  0  0  0  0  0  0
   28.8530  -18.9896  -15.6922 C   0  0  0  0  0  0  0  0  0  0  0  0
   27.5283  -20.0918  -13.9343 C   0  0  2  0  0  0  0  0  0  0  0  0
   26.7547  -20.0137  -12.7101 N   0  0  0  0  0  0  0  0  0  0  0  0
   28.7252  -20.8903  -13.6228 C   0  0  0  0  0  0  0  0  0  0  0  0
   29.2898  -21.8280  -14.4895 O   0  0  0  0  0  0  0  0  0  0  0  0
   29.3392  -20.7816  -12.5170 O   0  0  0  0  0  0  0  0  0  0  0  0
  2  1  1  0
  3  2  2  0
  4  2  1  0
  5  6  1  0
  5  4  1  0
  6  7  1  6
  8  6  1  0
  8  9  2  0
 10  8  1  0
 11 10  1  0
 11 12  1  1
 13 12  1  0
 13 18  2  0
 14 13  1  0
 15 14  2  0
 15 16  1  0
 16 17  2  0
 17 18  1  0
 19 11  1  0
 20 19  2  0
 21 22  1  0
 22 23  1  0
 23 25  1  0
 23 24  1  6
 25 26  1  1
 26 19  1  0
 27 25  1  0
 28 27  1  0
 29 27  2  0
M  END
$$$$
