QFI.pdb
     RDKit          3D

 29 29  0  0  1  0  0  0  0  0999 V2000
   20.9547  -19.7927  -16.3667 N   0  0  0  0  0  0  0  0  0  0  0  0
   21.9560  -19.6795  -17.3721 C   0  0  0  0  0  0  0  0  0  0  0  0
   21.6456  -19.4102  -18.5786 O   0  0  0  0  0  0  0  0  0  0  0  0
   23.4029  -19.8709  -17.0550 C   0  0  0  0  0  0  0  0  0  0  0  0
   23.5918  -20.1430  -15.5926 C   0  0  0  0  0  0  0  0  0  0  0  0
   25.0895  -20.2340  -15.3137 C   0  0  2  0  0  0  0  0  0  0  0  0
   25.6195  -21.2265  -16.2110 N   0  0  0  0  0  0  0  0  0  0  0  0
   25.3131  -20.6442  -13.9271 C   0  0  0  0  0  0  0  0  0  0  0  0
   24.6682  -21.6145  -13.4556 O   0  0  0  0  0  0  0  0  0  0  0  0
   26.2313  -20.0097  -13.0479 N   0  0  0  0  0  0  0  0  0  0  0  0
   26.3185  -20.2776  -11.6234 C   0  0  1  0  0  0  0  0  0  0  0  0
   27.4873  -19.5838  -10.9926 C   0  0  0  0  0  0  0  0  0  0  0  0
   27.6336  -19.7952   -9.5508 C   0  0  0  0  0  0  0  0  0  0  0  0
   28.2124  -20.9522   -9.0791 C   0  0  0  0  0  0  0  0  0  0  0  0
   28.3568  -21.1706   -7.7039 C   0  0  0  0  0  0  0  0  0  0  0  0
   27.9192  -20.2255   -6.8081 C   0  0  0  0  0  0  0  0  0  0  0  0
   27.3409  -19.0688   -7.2641 C   0  0  0  0  0  0  0  0  0  0  0  0
   27.2101  -18.8777   -8.6273 C   0  0  0  0  0  0  0  0  0  0  0  0
   25.0389  -20.1470  -10.9358 C   0  0  0  0  0  0  0  0  0  0  0  0
   24.3506  -19.0910  -11.1005 O   0  0  0  0  0  0  0  0  0  0  0  0
   20.5969  -21.7136  -12.0755 C   0  0  0  0  0  0  0  0  0  0  0  0
   21.6786  -20.9295  -11.3369 C   0  0  0  0  0  0  0  0  0  0  0  0
   22.0414  -21.5739  -10.0313 C   0  0  2  0  0  0  0  0  0  0  0  0
   20.7954  -21.4423   -9.1402 C   0  0  0  0  0  0  0  0  0  0  0  0
   23.1871  -20.9151   -9.3879 C   0  0  2  0  0  0  0  0  0  0  0  0
   24.4497  -21.0909  -10.0795 N   0  0  0  0  0  0  0  0  0  0  0  0
   23.3922  -21.3996   -8.0130 C   0  0  0  0  0  0  0  0  0  0  0  0
   24.2652  -22.4330   -7.6676 O   0  0  0  0  0  0  0  0  0  0  0  0
   22.7721  -20.9021   -7.0233 O   0  0  0  0  0  0  0  0  0  0  0  0
  2  1  1  0
  3  2  2  0
  4  2  1  0
  5  6  1  0
  5  4  1  0
  6  7  1  6
  8  6  1  0
  8  9  2  0
 10  8  1  0
 11 10  1  0
 11 12  1  1
 13 12  1  0
 13 18  2  0
 14 13  1  0
 15 14  2  0
 15 16  1  0
 16 17  2  0
 17 18  1  0
 19 11  1  0
 20 19  2  0
 21 22  1  0
 22 23  1  0
 23 25  1  0
 23 24  1  1
 25 26  1  6
 26 19  1  0
 27 25  1  0
 28 27  1  0
 29 27  2  0
M  END
$$$$
