HQM.pdb
     RDKit          3D

 28 28  0  0  1  0  0  0  0  0999 V2000
   27.0625  -20.4583  -16.7604 N   0  0  0  0  0  0  0  0  0  0  0  0
   26.5524  -19.6763  -15.6769 C   0  0  1  0  0  0  0  0  0  0  0  0
   25.9233  -18.3810  -16.1632 C   0  0  0  0  0  0  0  0  0  0  0  0
   27.0029  -17.5133  -16.7296 C   0  0  0  0  0  0  0  0  0  0  0  0
   28.3489  -17.8520  -16.8068 C   0  0  0  0  0  0  0  0  0  0  0  0
   29.0311  -16.8330  -17.3736 N   0  0  0  0  0  0  0  0  0  0  0  0
   28.1450  -15.8648  -17.6530 C   0  0  0  0  0  0  0  0  0  0  0  0
   26.9103  -16.2821  -17.2595 N   0  0  0  0  0  0  0  0  0  0  0  0
   25.5202  -20.3951  -14.8876 C   0  0  0  0  0  0  0  0  0  0  0  0
   24.8112  -21.2441  -15.4441 O   0  0  0  0  0  0  0  0  0  0  0  0
   25.3058  -20.6051   -8.7243 N   0  0  0  0  0  0  0  0  0  0  0  0
   26.3682  -21.0825   -9.5274 C   0  0  0  0  0  0  0  0  0  0  0  0
   27.4831  -21.2847   -9.0258 O   0  0  0  0  0  0  0  0  0  0  0  0
   26.0739  -21.3237  -10.9842 C   0  0  0  0  0  0  0  0  0  0  0  0
   24.7334  -20.7304  -11.2692 C   0  0  0  0  0  0  0  0  0  0  0  0
   24.3214  -20.7828  -12.7142 C   0  0  2  0  0  0  0  0  0  0  0  0
   25.3502  -20.1097  -13.5091 N   0  0  0  0  0  0  0  0  0  0  0  0
   22.9937  -20.1991  -12.9836 C   0  0  0  0  0  0  0  0  0  0  0  0
   22.8219  -19.0432  -13.4418 O   0  0  0  0  0  0  0  0  0  0  0  0
   18.0813  -17.3620  -16.7843 C   0  0  0  0  0  0  0  0  0  0  0  0
   19.2792  -18.7072  -16.6241 S   0  0  0  0  0  0  0  0  0  0  0  0
   19.4649  -19.0886  -14.8637 C   0  0  0  0  0  0  0  0  0  0  0  0
   20.4755  -20.2151  -14.6548 C   0  0  0  0  0  0  0  0  0  0  0  0
   20.5172  -20.5649  -13.1984 C   0  0  2  0  0  0  0  0  0  0  0  0
   21.8017  -20.9676  -12.7188 N   0  0  0  0  0  0  0  0  0  0  0  0
   19.4517  -21.5594  -12.8797 C   0  0  0  0  0  0  0  0  0  0  0  0
   19.7292  -22.7779  -13.0126 O   0  0  0  0  0  0  0  0  0  0  0  0
   18.1902  -21.2213  -12.4511 O   0  0  0  0  0  0  0  0  0  0  0  0
  2  1  1  6
  2  9  1  0
  3  2  1  0
  4  3  1  0
  5  4  2  0
  6  5  1  0
  7  6  1  0
  7  8  2  0
  8  4  1  0
  9 17  1  0
 10  9  2  0
 12 11  1  0
 13 12  2  0
 14 12  1  0
 15 14  1  0
 16 15  1  1
 17 16  1  0
 18 16  1  0
 18 19  2  0
 21 22  1  0
 21 20  1  0
 22 23  1  0
 24 23  1  6
 24 25  1  0
 24 26  1  0
 25 18  1  0
 26 28  1  0
 27 26  2  0
M  END
$$$$
