HQM.pdb
     RDKit          3D

 28 28  0  0  1  0  0  0  0  0999 V2000
   21.2454  -12.2765  -21.2436 N   0  0  0  0  0  0  0  0  0  0  0  0
   20.9126  -11.8676  -19.9140 C   0  0  1  0  0  0  0  0  0  0  0  0
   21.3535  -12.8924  -18.8818 C   0  0  0  0  0  0  0  0  0  0  0  0
   20.5219  -14.1247  -19.0522 C   0  0  0  0  0  0  0  0  0  0  0  0
   20.9631  -15.3226  -19.6022 C   0  0  0  0  0  0  0  0  0  0  0  0
   19.9478  -16.2137  -19.5975 N   0  0  0  0  0  0  0  0  0  0  0  0
   18.8818  -15.6028  -19.0581 C   0  0  0  0  0  0  0  0  0  0  0  0
   19.2346  -14.3303  -18.7268 N   0  0  0  0  0  0  0  0  0  0  0  0
   21.5358  -10.5729  -19.5397 C   0  0  0  0  0  0  0  0  0  0  0  0
   22.5826  -10.2180  -20.0980 O   0  0  0  0  0  0  0  0  0  0  0  0
   20.9770   -5.1849  -20.3677 N   0  0  0  0  0  0  0  0  0  0  0  0
   19.8932   -6.0694  -20.5795 C   0  0  0  0  0  0  0  0  0  0  0  0
   18.8566   -5.6621  -21.1225 O   0  0  0  0  0  0  0  0  0  0  0  0
   20.0678   -7.4927  -20.1202 C   0  0  0  0  0  0  0  0  0  0  0  0
   21.4192   -7.5929  -19.4926 C   0  0  0  0  0  0  0  0  0  0  0  0
   21.4665   -8.4238  -18.2406 C   0  0  2  0  0  0  0  0  0  0  0  0
   20.9356   -9.7522  -18.5513 N   0  0  0  0  0  0  0  0  0  0  0  0
   20.7461   -7.8320  -17.0973 C   0  0  0  0  0  0  0  0  0  0  0  0
   19.5154   -7.9789  -16.8992 O   0  0  0  0  0  0  0  0  0  0  0  0
   22.2309  -10.6088  -11.8904 C   0  0  0  0  0  0  0  0  0  0  0  0
   22.1389   -8.8032  -11.9315 S   0  0  0  0  0  0  0  0  0  0  0  0
   21.3655   -8.3147  -13.4942 C   0  0  0  0  0  0  0  0  0  0  0  0
   21.4210   -6.7991  -13.6781 C   0  0  0  0  0  0  0  0  0  0  0  0
   20.8102   -6.4487  -15.0007 C   0  0  2  0  0  0  0  0  0  0  0  0
   21.4604   -7.0334  -16.1311 N   0  0  0  0  0  0  0  0  0  0  0  0
   20.6714   -4.9684  -15.1249 C   0  0  0  0  0  0  0  0  0  0  0  0
   21.4597   -4.3693  -15.8988 O   0  0  0  0  0  0  0  0  0  0  0  0
   19.7357   -4.2260  -14.4449 O   0  0  0  0  0  0  0  0  0  0  0  0
  2  1  1  6
  2  9  1  0
  3  2  1  0
  4  3  1  0
  5  4  2  0
  6  5  1  0
  7  6  1  0
  7  8  2  0
  8  4  1  0
  9 17  1  0
 10  9  2  0
 12 11  1  0
 13 12  2  0
 14 12  1  0
 15 14  1  0
 16 15  1  6
 17 16  1  0
 18 16  1  0
 18 19  2  0
 21 22  1  0
 21 20  1  0
 22 23  1  0
 24 23  1  1
 24 25  1  0
 24 26  1  0
 25 18  1  0
 26 28  1  0
 27 26  2  0
M  END
$$$$
