HQM.pdb
     RDKit          3D

 28 28  0  0  1  0  0  0  0  0999 V2000
   27.1701  -22.9104  -18.6832 N   0  0  0  0  0  0  0  0  0  0  0  0
   26.7288  -23.1260  -17.3399 C   0  0  1  0  0  0  0  0  0  0  0  0
   27.8599  -23.6044  -16.4445 C   0  0  0  0  0  0  0  0  0  0  0  0
   28.2582  -24.9800  -16.8782 C   0  0  0  0  0  0  0  0  0  0  0  0
   27.6087  -26.1555  -16.5197 C   0  0  0  0  0  0  0  0  0  0  0  0
   28.2400  -27.2037  -17.0922 N   0  0  0  0  0  0  0  0  0  0  0  0
   29.2688  -26.7130  -17.8003 C   0  0  0  0  0  0  0  0  0  0  0  0
   29.2773  -25.3580  -17.6680 N   0  0  0  0  0  0  0  0  0  0  0  0
   26.1663  -21.9006  -16.7180 C   0  0  0  0  0  0  0  0  0  0  0  0
   26.6576  -20.7980  -16.9942 O   0  0  0  0  0  0  0  0  0  0  0  0
   20.9634  -20.4892  -17.6284 N   0  0  0  0  0  0  0  0  0  0  0  0
   21.6058  -19.2354  -17.4982 C   0  0  0  0  0  0  0  0  0  0  0  0
   21.2507  -18.2799  -18.2025 O   0  0  0  0  0  0  0  0  0  0  0  0
   22.7137  -19.1329  -16.4836 C   0  0  0  0  0  0  0  0  0  0  0  0
   23.6245  -20.2957  -16.7035 C   0  0  0  0  0  0  0  0  0  0  0  0
   24.2820  -20.8188  -15.4568 C   0  0  2  0  0  0  0  0  0  0  0  0
   25.0762  -21.9950  -15.8161 N   0  0  0  0  0  0  0  0  0  0  0  0
   23.3395  -21.1423  -14.3690 C   0  0  0  0  0  0  0  0  0  0  0  0
   22.3408  -21.8890  -14.5129 O   0  0  0  0  0  0  0  0  0  0  0  0
   26.9654  -20.3670   -8.7368 C   0  0  0  0  0  0  0  0  0  0  0  0
   25.1972  -20.0084   -8.8602 S   0  0  0  0  0  0  0  0  0  0  0  0
   24.5878  -20.7109  -10.4139 C   0  0  0  0  0  0  0  0  0  0  0  0
   23.1203  -20.3487  -10.6359 C   0  0  0  0  0  0  0  0  0  0  0  0
   22.6790  -20.9019  -11.9568 C   0  0  2  0  0  0  0  0  0  0  0  0
   23.5421  -20.5892  -13.0521 N   0  0  0  0  0  0  0  0  0  0  0  0
   21.2604  -20.5239  -12.2223 C   0  0  0  0  0  0  0  0  0  0  0  0
   21.0452  -19.5947  -13.0405 O   0  0  0  0  0  0  0  0  0  0  0  0
   20.1806  -21.1307  -11.6264 O   0  0  0  0  0  0  0  0  0  0  0  0
  2  1  1  6
  2  9  1  0
  3  2  1  0
  4  3  1  0
  5  4  2  0
  6  5  1  0
  7  6  1  0
  7  8  2  0
  8  4  1  0
  9 17  1  0
 10  9  2  0
 12 11  1  0
 13 12  2  0
 14 12  1  0
 15 14  1  0
 16 15  1  6
 17 16  1  0
 18 16  1  0
 18 19  2  0
 21 22  1  0
 21 20  1  0
 22 23  1  0
 24 23  1  1
 24 25  1  0
 24 26  1  0
 25 18  1  0
 26 28  1  0
 27 26  2  0
M  END
$$$$
