HQM.pdb
     RDKit          3D

 28 28  0  0  1  0  0  0  0  0999 V2000
   17.9362  -24.6220  -10.3741 N   0  0  0  0  0  0  0  0  0  0  0  0
   18.0336  -23.8482   -9.1752 C   0  0  1  0  0  0  0  0  0  0  0  0
   17.6079  -22.4063   -9.3984 C   0  0  0  0  0  0  0  0  0  0  0  0
   18.4968  -21.8058  -10.4416 C   0  0  0  0  0  0  0  0  0  0  0  0
   18.2710  -21.8500  -11.8125 C   0  0  0  0  0  0  0  0  0  0  0  0
   19.2747  -21.2073  -12.4486 N   0  0  0  0  0  0  0  0  0  0  0  0
   20.1232  -20.7620  -11.5093 C   0  0  0  0  0  0  0  0  0  0  0  0
   19.6467  -21.1281  -10.2877 N   0  0  0  0  0  0  0  0  0  0  0  0
   17.1942  -24.3874   -8.0754 C   0  0  0  0  0  0  0  0  0  0  0  0
   15.9616  -24.3840   -8.1935 O   0  0  0  0  0  0  0  0  0  0  0  0
   14.9409  -30.3045   -6.4036 N   0  0  0  0  0  0  0  0  0  0  0  0
   15.7532  -29.2542   -6.8922 C   0  0  0  0  0  0  0  0  0  0  0  0
   16.3065  -29.3593   -7.9959 O   0  0  0  0  0  0  0  0  0  0  0  0
   15.9018  -28.0369   -6.0185 C   0  0  0  0  0  0  0  0  0  0  0  0
   16.6966  -27.0339   -6.7882 C   0  0  0  0  0  0  0  0  0  0  0  0
   17.0806  -25.8083   -6.0067 C   0  0  2  0  0  0  0  0  0  0  0  0
   17.8014  -24.9010   -6.9014 N   0  0  0  0  0  0  0  0  0  0  0  0
   17.8804  -26.0896   -4.7995 C   0  0  0  0  0  0  0  0  0  0  0  0
   19.1189  -26.2933   -4.8173 O   0  0  0  0  0  0  0  0  0  0  0  0
   16.2493  -24.8135    1.4278 C   0  0  0  0  0  0  0  0  0  0  0  0
   17.3430  -26.2260    1.7085 S   0  0  0  0  0  0  0  0  0  0  0  0
   18.1025  -26.6725    0.1265 C   0  0  0  0  0  0  0  0  0  0  0  0
   17.2672  -26.1547   -1.0432 C   0  0  0  0  0  0  0  0  0  0  0  0
   17.9469  -26.5260   -2.3260 C   0  0  2  0  0  0  0  0  0  0  0  0
   17.2405  -26.1423   -3.5075 N   0  0  0  0  0  0  0  0  0  0  0  0
   18.3000  -27.9755   -2.3178 C   0  0  0  0  0  0  0  0  0  0  0  0
   17.4372  -28.7908   -2.7301 O   0  0  0  0  0  0  0  0  0  0  0  0
   19.5089  -28.4681   -1.8871 O   0  0  0  0  0  0  0  0  0  0  0  0
  2  1  1  6
  2  9  1  0
  3  2  1  0
  4  3  1  0
  5  4  2  0
  6  5  1  0
  7  6  1  0
  7  8  2  0
  8  4  1  0
  9 17  1  0
 10  9  2  0
 12 11  1  0
 13 12  2  0
 14 12  1  0
 15 14  1  0
 16 15  1  6
 17 16  1  0
 18 16  1  0
 18 19  2  0
 21 22  1  0
 21 20  1  0
 22 23  1  0
 24 23  1  1
 24 25  1  0
 24 26  1  0
 25 18  1  0
 26 28  1  0
 27 26  2  0
M  END
$$$$
