HQM.pdb
     RDKit          3D

 28 28  0  0  1  0  0  0  0  0999 V2000
   17.0343  -12.3764  -14.5940 N   0  0  0  0  0  0  0  0  0  0  0  0
   16.8453  -10.9638  -14.7138 C   0  0  1  0  0  0  0  0  0  0  0  0
   15.3770  -10.6021  -14.8670 C   0  0  0  0  0  0  0  0  0  0  0  0
   14.9365  -10.9824  -16.2455 C   0  0  0  0  0  0  0  0  0  0  0  0
   14.8661  -10.1200  -17.3335 C   0  0  0  0  0  0  0  0  0  0  0  0
   14.4295  -10.8035  -18.4139 N   0  0  0  0  0  0  0  0  0  0  0  0
   14.2250  -12.0725  -18.0288 C   0  0  0  0  0  0  0  0  0  0  0  0
   14.5347  -12.1784  -16.7073 N   0  0  0  0  0  0  0  0  0  0  0  0
   17.3605  -10.2151  -13.5396 C   0  0  0  0  0  0  0  0  0  0  0  0
   17.0770  -10.6036  -12.3986 O   0  0  0  0  0  0  0  0  0  0  0  0
   21.9338   -6.2267  -13.9317 N   0  0  0  0  0  0  0  0  0  0  0  0
   21.5975   -5.8826  -12.6013 C   0  0  0  0  0  0  0  0  0  0  0  0
   22.2717   -5.0431  -11.9880 O   0  0  0  0  0  0  0  0  0  0  0  0
   20.4077   -6.5754  -11.9918 C   0  0  0  0  0  0  0  0  0  0  0  0
   19.8531   -7.4967  -13.0280 C   0  0  0  0  0  0  0  0  0  0  0  0
   18.6464   -8.2780  -12.5879 C   0  0  2  0  0  0  0  0  0  0  0  0
   18.1699   -9.0658  -13.7261 N   0  0  0  0  0  0  0  0  0  0  0  0
   17.5575   -7.4470  -12.0404 C   0  0  0  0  0  0  0  0  0  0  0  0
   16.7811   -6.7620  -12.7499 O   0  0  0  0  0  0  0  0  0  0  0  0
   12.9989   -5.2991   -5.9854 C   0  0  0  0  0  0  0  0  0  0  0  0
   14.2969   -6.4563   -6.4817 S   0  0  0  0  0  0  0  0  0  0  0  0
   14.8318   -6.0177   -8.1552 C   0  0  0  0  0  0  0  0  0  0  0  0
   15.9020   -6.9865   -8.6554 C   0  0  0  0  0  0  0  0  0  0  0  0
   16.3216   -6.5753  -10.0339 C   0  0  2  0  0  0  0  0  0  0  0  0
   17.3403   -7.3918  -10.6152 N   0  0  0  0  0  0  0  0  0  0  0  0
   16.6732   -5.1255  -10.0514 C   0  0  0  0  0  0  0  0  0  0  0  0
   17.8712   -4.8108   -9.8392 O   0  0  0  0  0  0  0  0  0  0  0  0
   15.7665   -4.1192  -10.2851 O   0  0  0  0  0  0  0  0  0  0  0  0
  2  1  1  1
  2  9  1  0
  3  2  1  0
  4  3  1  0
  5  4  2  0
  6  5  1  0
  7  6  1  0
  7  8  2  0
  8  4  1  0
  9 17  1  0
 10  9  2  0
 12 11  1  0
 13 12  2  0
 14 12  1  0
 15 14  1  0
 16 15  1  6
 17 16  1  0
 18 16  1  0
 18 19  2  0
 21 22  1  0
 21 20  1  0
 22 23  1  0
 24 23  1  1
 24 25  1  0
 24 26  1  0
 25 18  1  0
 26 28  1  0
 27 26  2  0
M  END
$$$$
