HQM.pdb
     RDKit          3D

 28 28  0  0  1  0  0  0  0  0999 V2000
   26.1765  -18.2245  -16.9359 N   0  0  0  0  0  0  0  0  0  0  0  0
   26.9310  -18.4347  -15.7392 C   0  0  1  0  0  0  0  0  0  0  0  0
   27.4818  -17.1317  -15.1834 C   0  0  0  0  0  0  0  0  0  0  0  0
   28.4026  -16.5344  -16.2005 C   0  0  0  0  0  0  0  0  0  0  0  0
   28.6648  -17.0658  -17.4579 C   0  0  0  0  0  0  0  0  0  0  0  0
   29.5400  -16.2651  -18.1044 N   0  0  0  0  0  0  0  0  0  0  0  0
   29.8320  -15.2455  -17.2824 C   0  0  0  0  0  0  0  0  0  0  0  0
   29.1376  -15.4123  -16.1232 N   0  0  0  0  0  0  0  0  0  0  0  0
   26.1301  -19.0671  -14.6604 C   0  0  0  0  0  0  0  0  0  0  0  0
   25.0786  -18.5290  -14.2887 O   0  0  0  0  0  0  0  0  0  0  0  0
   24.2457  -24.6399  -13.4752 N   0  0  0  0  0  0  0  0  0  0  0  0
   23.7655  -23.7682  -14.4807 C   0  0  0  0  0  0  0  0  0  0  0  0
   22.8411  -24.1271  -15.2238 O   0  0  0  0  0  0  0  0  0  0  0  0
   24.4238  -22.4186  -14.5922 C   0  0  0  0  0  0  0  0  0  0  0  0
   25.4658  -22.3448  -13.5251 C   0  0  0  0  0  0  0  0  0  0  0  0
   25.7673  -20.9535  -13.0415 C   0  0  2  0  0  0  0  0  0  0  0  0
   26.5679  -20.2763  -14.0630 N   0  0  0  0  0  0  0  0  0  0  0  0
   26.4472  -20.9046  -11.7332 C   0  0  0  0  0  0  0  0  0  0  0  0
   27.5458  -21.4647  -11.4988 O   0  0  0  0  0  0  0  0  0  0  0  0
   29.3519  -19.6500   -5.7408 C   0  0  0  0  0  0  0  0  0  0  0  0
   27.6387  -19.0836   -5.8615 S   0  0  0  0  0  0  0  0  0  0  0  0
   26.7530  -20.2037   -6.9748 C   0  0  0  0  0  0  0  0  0  0  0  0
   26.7437  -19.6575   -8.4016 C   0  0  0  0  0  0  0  0  0  0  0  0
   25.9907  -20.6096   -9.2802 C   0  0  2  0  0  0  0  0  0  0  0  0
   25.8484  -20.1831  -10.6367 N   0  0  0  0  0  0  0  0  0  0  0  0
   24.6837  -20.9612   -8.6526 C   0  0  0  0  0  0  0  0  0  0  0  0
   23.6349  -20.5839   -9.2331 O   0  0  0  0  0  0  0  0  0  0  0  0
   24.5613  -21.6706   -7.4817 O   0  0  0  0  0  0  0  0  0  0  0  0
  2  1  1  6
  2  9  1  0
  3  2  1  0
  4  3  1  0
  5  4  2  0
  6  5  1  0
  7  6  1  0
  7  8  2  0
  8  4  1  0
  9 17  1  0
 10  9  2  0
 12 11  1  0
 13 12  2  0
 14 12  1  0
 15 14  1  0
 16 15  1  6
 17 16  1  0
 18 16  1  0
 18 19  2  0
 21 22  1  0
 21 20  1  0
 22 23  1  0
 24 23  1  1
 24 25  1  0
 24 26  1  0
 25 18  1  0
 26 28  1  0
 27 26  2  0
M  END
$$$$
