HQM.pdb
     RDKit          3D

 28 28  0  0  1  0  0  0  0  0999 V2000
   20.6114  -21.6985  -13.4158 N   0  0  0  0  0  0  0  0  0  0  0  0
   21.3992  -20.6922  -12.7738 C   0  0  1  0  0  0  0  0  0  0  0  0
   20.5989  -19.9293  -11.7309 C   0  0  0  0  0  0  0  0  0  0  0  0
   19.6838  -18.9793  -12.4374 C   0  0  0  0  0  0  0  0  0  0  0  0
   19.5665  -18.8518  -13.8166 C   0  0  0  0  0  0  0  0  0  0  0  0
   18.6485  -17.9014  -14.0979 N   0  0  0  0  0  0  0  0  0  0  0  0
   18.1885  -17.4309  -12.9285 C   0  0  0  0  0  0  0  0  0  0  0  0
   18.8210  -18.0895  -11.9187 N   0  0  0  0  0  0  0  0  0  0  0  0
   22.5928  -21.2495  -12.0884 C   0  0  0  0  0  0  0  0  0  0  0  0
   22.4763  -22.2716  -11.3993 O   0  0  0  0  0  0  0  0  0  0  0  0
   28.1196  -20.8589  -14.2218 N   0  0  0  0  0  0  0  0  0  0  0  0
   28.5449  -21.3711  -12.9735 C   0  0  0  0  0  0  0  0  0  0  0  0
   29.7353  -21.6662  -12.7966 O   0  0  0  0  0  0  0  0  0  0  0  0
   27.4975  -21.5322  -11.9037 C   0  0  0  0  0  0  0  0  0  0  0  0
   26.1977  -21.0828  -12.4855 C   0  0  0  0  0  0  0  0  0  0  0  0
   25.0385  -21.1210  -11.5288 C   0  0  2  0  0  0  0  0  0  0  0  0
   23.8536  -20.6147  -12.2236 N   0  0  0  0  0  0  0  0  0  0  0  0
   25.2651  -20.3728  -10.2778 C   0  0  0  0  0  0  0  0  0  0  0  0
   24.8147  -19.2206  -10.0650 O   0  0  0  0  0  0  0  0  0  0  0  0
   28.3374  -22.4615   -4.4454 C   0  0  0  0  0  0  0  0  0  0  0  0
   28.9542  -20.8208   -4.8903 S   0  0  0  0  0  0  0  0  0  0  0  0
   27.7352  -20.0368   -5.9758 C   0  0  0  0  0  0  0  0  0  0  0  0
   27.4770  -20.8950   -7.2130 C   0  0  0  0  0  0  0  0  0  0  0  0
   26.4500  -20.2166   -8.0677 C   0  0  2  0  0  0  0  0  0  0  0  0
   26.0424  -20.9637   -9.2158 N   0  0  0  0  0  0  0  0  0  0  0  0
   26.9022  -18.8380   -8.4151 C   0  0  0  0  0  0  0  0  0  0  0  0
   27.6329  -18.6992   -9.4281 O   0  0  0  0  0  0  0  0  0  0  0  0
   26.5674  -17.7165   -7.6944 O   0  0  0  0  0  0  0  0  0  0  0  0
  2  1  1  1
  2  9  1  0
  3  2  1  0
  4  3  1  0
  5  4  2  0
  6  5  1  0
  7  6  1  0
  7  8  2  0
  8  4  1  0
  9 17  1  0
 10  9  2  0
 12 11  1  0
 13 12  2  0
 14 12  1  0
 15 14  1  0
 16 15  1  6
 17 16  1  0
 18 16  1  0
 18 19  2  0
 21 22  1  0
 21 20  1  0
 22 23  1  0
 24 23  1  6
 24 25  1  0
 24 26  1  0
 25 18  1  0
 26 28  1  0
 27 26  2  0
M  END
$$$$
