HQM.pdb
     RDKit          3D

 28 28  0  0  1  0  0  0  0  0999 V2000
   19.9814  -12.4711  -20.3512 N   0  0  0  0  0  0  0  0  0  0  0  0
   19.1158  -11.6019  -19.6158 C   0  0  1  0  0  0  0  0  0  0  0  0
   18.5451  -12.2844  -18.3835 C   0  0  0  0  0  0  0  0  0  0  0  0
   17.6857  -13.4254  -18.8291 C   0  0  0  0  0  0  0  0  0  0  0  0
   16.3385  -13.3358  -19.1597 C   0  0  0  0  0  0  0  0  0  0  0  0
   15.8868  -14.5580  -19.5163 N   0  0  0  0  0  0  0  0  0  0  0  0
   16.9183  -15.4105  -19.4169 C   0  0  0  0  0  0  0  0  0  0  0  0
   18.0129  -14.7175  -18.9981 N   0  0  0  0  0  0  0  0  0  0  0  0
   19.8002  -10.3672  -19.1552 C   0  0  0  0  0  0  0  0  0  0  0  0
   20.9567  -10.4399  -18.7188 O   0  0  0  0  0  0  0  0  0  0  0  0
   18.3076   -4.9898  -21.3217 N   0  0  0  0  0  0  0  0  0  0  0  0
   19.2039   -4.4537  -20.3674 C   0  0  0  0  0  0  0  0  0  0  0  0
   19.5117   -3.2542  -20.4101 O   0  0  0  0  0  0  0  0  0  0  0  0
   19.7461   -5.3978  -19.3273 C   0  0  0  0  0  0  0  0  0  0  0  0
   19.1655   -6.7451  -19.6066 C   0  0  0  0  0  0  0  0  0  0  0  0
   19.8141   -7.8732  -18.8537 C   0  0  2  0  0  0  0  0  0  0  0  0
   19.1330   -9.1175  -19.2155 N   0  0  0  0  0  0  0  0  0  0  0  0
   19.8227   -7.6938  -17.3894 C   0  0  0  0  0  0  0  0  0  0  0  0
   18.8404   -7.9503  -16.6513 O   0  0  0  0  0  0  0  0  0  0  0  0
   22.9114   -8.8768  -10.5500 C   0  0  0  0  0  0  0  0  0  0  0  0
   22.9820   -9.1826  -12.3309 S   0  0  0  0  0  0  0  0  0  0  0  0
   21.9195   -7.9683  -13.1528 C   0  0  0  0  0  0  0  0  0  0  0  0
   21.8954   -8.2002  -14.6626 C   0  0  0  0  0  0  0  0  0  0  0  0
   21.1019   -7.1053  -15.3085 C   0  0  2  0  0  0  0  0  0  0  0  0
   21.0070   -7.1979  -16.7314 N   0  0  0  0  0  0  0  0  0  0  0  0
   21.6018   -5.7746  -14.8554 C   0  0  0  0  0  0  0  0  0  0  0  0
   22.2842   -5.0985  -15.6656 O   0  0  0  0  0  0  0  0  0  0  0  0
   21.3600   -5.2483  -13.6089 O   0  0  0  0  0  0  0  0  0  0  0  0
  2  1  1  1
  2  9  1  0
  3  2  1  0
  4  3  1  0
  5  4  2  0
  6  5  1  0
  7  6  1  0
  7  8  2  0
  8  4  1  0
  9 17  1  0
 10  9  2  0
 12 11  1  0
 13 12  2  0
 14 12  1  0
 15 14  1  0
 16 15  1  6
 17 16  1  0
 18 16  1  0
 18 19  2  0
 21 22  1  0
 21 20  1  0
 22 23  1  0
 24 23  1  6
 24 25  1  0
 24 26  1  0
 25 18  1  0
 26 28  1  0
 27 26  2  0
M  END
$$$$
