HQM.pdb
     RDKit          3D

 28 28  0  0  1  0  0  0  0  0999 V2000
   13.1738  -12.2734  -12.7407 N   0  0  0  0  0  0  0  0  0  0  0  0
   12.8930  -11.1597  -13.5929 C   0  0  1  0  0  0  0  0  0  0  0  0
   12.3517   -9.9738  -12.8115 C   0  0  0  0  0  0  0  0  0  0  0  0
   13.0010   -9.9584  -11.4634 C   0  0  0  0  0  0  0  0  0  0  0  0
   13.9352   -9.0241  -11.0316 C   0  0  0  0  0  0  0  0  0  0  0  0
   14.3038   -9.3175   -9.7655 N   0  0  0  0  0  0  0  0  0  0  0  0
   13.6231  -10.4126   -9.3942 C   0  0  0  0  0  0  0  0  0  0  0  0
   12.8302  -10.8008  -10.4307 N   0  0  0  0  0  0  0  0  0  0  0  0
   14.0912  -10.6872  -14.3318 C   0  0  0  0  0  0  0  0  0  0  0  0
   15.1451  -11.3331  -14.2578 O   0  0  0  0  0  0  0  0  0  0  0  0
   13.7375   -7.8423  -19.3512 N   0  0  0  0  0  0  0  0  0  0  0  0
   15.0908   -7.4475  -19.2321 C   0  0  0  0  0  0  0  0  0  0  0  0
   15.6989   -7.0098  -20.2191 O   0  0  0  0  0  0  0  0  0  0  0  0
   15.7304   -7.5862  -17.8761 C   0  0  0  0  0  0  0  0  0  0  0  0
   14.6789   -8.0829  -16.9393 C   0  0  0  0  0  0  0  0  0  0  0  0
   15.1739   -9.0514  -15.9013 C   0  0  2  0  0  0  0  0  0  0  0  0
   14.0265   -9.5064  -15.1143 N   0  0  0  0  0  0  0  0  0  0  0  0
   16.2234   -8.5056  -15.0199 C   0  0  0  0  0  0  0  0  0  0  0  0
   15.9860   -7.9217  -13.9345 O   0  0  0  0  0  0  0  0  0  0  0  0
   23.4582   -8.9292  -12.1673 C   0  0  0  0  0  0  0  0  0  0  0  0
   22.3280   -9.6275  -13.3942 S   0  0  0  0  0  0  0  0  0  0  0  0
   20.8622   -8.5675  -13.4766 C   0  0  0  0  0  0  0  0  0  0  0  0
   19.8303   -9.1406  -14.4465 C   0  0  0  0  0  0  0  0  0  0  0  0
   18.6687   -8.1979  -14.5311 C   0  0  2  0  0  0  0  0  0  0  0  0
   17.6121   -8.6297  -15.3909 N   0  0  0  0  0  0  0  0  0  0  0  0
   19.1471   -6.8237  -14.8609 C   0  0  0  0  0  0  0  0  0  0  0  0
   19.1087   -6.4633  -16.0641 O   0  0  0  0  0  0  0  0  0  0  0  0
   19.6252   -5.9338  -13.9288 O   0  0  0  0  0  0  0  0  0  0  0  0
  2  1  1  1
  2  9  1  0
  3  2  1  0
  4  3  1  0
  5  4  2  0
  6  5  1  0
  7  6  1  0
  7  8  2  0
  8  4  1  0
  9 17  1  0
 10  9  2  0
 12 11  1  0
 13 12  2  0
 14 12  1  0
 15 14  1  0
 16 15  1  6
 17 16  1  0
 18 16  1  0
 18 19  2  0
 21 22  1  0
 21 20  1  0
 22 23  1  0
 24 23  1  6
 24 25  1  0
 24 26  1  0
 25 18  1  0
 26 28  1  0
 27 26  2  0
M  END
$$$$
