HQM.pdb
     RDKit          3D

 28 28  0  0  1  0  0  0  0  0999 V2000
   29.3310  -32.7653  -15.4242 N   0  0  0  0  0  0  0  0  0  0  0  0
   27.9937  -32.4719  -15.0106 C   0  0  1  0  0  0  0  0  0  0  0  0
   27.0123  -32.5646  -16.1676 C   0  0  0  0  0  0  0  0  0  0  0  0
   27.2863  -31.4375  -17.1129 C   0  0  0  0  0  0  0  0  0  0  0  0
   26.9137  -30.1131  -16.9143 C   0  0  0  0  0  0  0  0  0  0  0  0
   27.3240  -29.3739  -17.9680 N   0  0  0  0  0  0  0  0  0  0  0  0
   27.9443  -30.2032  -18.8212 C   0  0  0  0  0  0  0  0  0  0  0  0
   27.9197  -31.4597  -18.2976 N   0  0  0  0  0  0  0  0  0  0  0  0
   27.5076  -33.3898  -13.9495 C   0  0  0  0  0  0  0  0  0  0  0  0
   27.6945  -34.6082  -14.0669 O   0  0  0  0  0  0  0  0  0  0  0  0
   26.0125  -31.3870   -8.4107 N   0  0  0  0  0  0  0  0  0  0  0  0
   25.5929  -32.7161   -8.1672 C   0  0  0  0  0  0  0  0  0  0  0  0
   25.2059  -33.0478   -7.0377 O   0  0  0  0  0  0  0  0  0  0  0  0
   25.6424  -33.6758   -9.3264 C   0  0  0  0  0  0  0  0  0  0  0  0
   26.1562  -32.9185  -10.5065 C   0  0  0  0  0  0  0  0  0  0  0  0
   26.3702  -33.7525  -11.7390 C   0  0  2  0  0  0  0  0  0  0  0  0
   26.8357  -32.8729  -12.8127 N   0  0  0  0  0  0  0  0  0  0  0  0
   25.1791  -34.5093  -12.1686 C   0  0  0  0  0  0  0  0  0  0  0  0
   24.6550  -34.3964  -13.3035 O   0  0  0  0  0  0  0  0  0  0  0  0
   21.1076  -39.6329  -15.1633 C   0  0  0  0  0  0  0  0  0  0  0  0
   22.6644  -38.7935  -14.7861 S   0  0  0  0  0  0  0  0  0  0  0  0
   22.4244  -37.8113  -13.2839 C   0  0  0  0  0  0  0  0  0  0  0  0
   23.6734  -36.9914  -12.9648 C   0  0  0  0  0  0  0  0  0  0  0  0
   23.4641  -36.2753  -11.6653 C   0  0  2  0  0  0  0  0  0  0  0  0
   24.5522  -35.4409  -11.2627 N   0  0  0  0  0  0  0  0  0  0  0  0
   23.0659  -37.2454  -10.6041 C   0  0  0  0  0  0  0  0  0  0  0  0
   21.8385  -37.4022  -10.3845 O   0  0  0  0  0  0  0  0  0  0  0  0
   23.9600  -37.9739   -9.8563 O   0  0  0  0  0  0  0  0  0  0  0  0
  2  1  1  6
  2  9  1  0
  3  2  1  0
  4  3  1  0
  5  4  2  0
  6  5  1  0
  7  6  1  0
  7  8  2  0
  8  4  1  0
  9 17  1  0
 10  9  2  0
 12 11  1  0
 13 12  2  0
 14 12  1  0
 15 14  1  0
 16 15  1  1
 17 16  1  0
 18 16  1  0
 18 19  2  0
 21 22  1  0
 21 20  1  0
 22 23  1  0
 24 23  1  6
 24 25  1  0
 24 26  1  0
 25 18  1  0
 26 28  1  0
 27 26  2  0
M  END
$$$$
