HQM.pdb
     RDKit          3D

 28 28  0  0  1  0  0  0  0  0999 V2000
   24.6233  -12.7090  -17.7083 N   0  0  0  0  0  0  0  0  0  0  0  0
   24.7592  -11.6231  -16.7875 C   0  0  1  0  0  0  0  0  0  0  0  0
   26.1331  -10.9790  -16.8738 C   0  0  0  0  0  0  0  0  0  0  0  0
   27.1646  -12.0209  -16.5751 C   0  0  0  0  0  0  0  0  0  0  0  0
   27.2181  -12.7911  -15.4190 C   0  0  0  0  0  0  0  0  0  0  0  0
   28.2783  -13.6253  -15.4901 N   0  0  0  0  0  0  0  0  0  0  0  0
   28.8898  -13.3961  -16.6624 C   0  0  0  0  0  0  0  0  0  0  0  0
   28.2090  -12.4183  -17.3211 N   0  0  0  0  0  0  0  0  0  0  0  0
   23.7576  -10.5506  -17.0145 C   0  0  0  0  0  0  0  0  0  0  0  0
   23.6171  -10.0806  -18.1514 O   0  0  0  0  0  0  0  0  0  0  0  0
   18.5640  -10.5133  -14.3004 N   0  0  0  0  0  0  0  0  0  0  0  0
   18.3619   -9.2240  -14.8467 C   0  0  0  0  0  0  0  0  0  0  0  0
   17.2461   -8.6892  -14.7792 O   0  0  0  0  0  0  0  0  0  0  0  0
   19.5467   -8.5590  -15.4957 C   0  0  0  0  0  0  0  0  0  0  0  0
   20.6655   -9.5481  -15.4939 C   0  0  0  0  0  0  0  0  0  0  0  0
   21.9303   -9.0618  -16.1451 C   0  0  2  0  0  0  0  0  0  0  0  0
   22.9705  -10.0707  -15.9370 N   0  0  0  0  0  0  0  0  0  0  0  0
   22.3851   -7.7423  -15.6674 C   0  0  0  0  0  0  0  0  0  0  0  0
   23.1335   -7.5827  -14.6724 O   0  0  0  0  0  0  0  0  0  0  0  0
   23.2707   -0.0049  -16.8069 C   0  0  0  0  0  0  0  0  0  0  0  0
   22.7447   -1.5390  -17.6071 S   0  0  0  0  0  0  0  0  0  0  0  0
   22.7600   -2.8558  -16.3642 C   0  0  0  0  0  0  0  0  0  0  0  0
   22.3283   -4.1870  -16.9769 C   0  0  0  0  0  0  0  0  0  0  0  0
   22.3563   -5.2419  -15.9130 C   0  0  2  0  0  0  0  0  0  0  0  0
   21.9682   -6.5444  -16.3549 N   0  0  0  0  0  0  0  0  0  0  0  0
   21.5805   -4.7888  -14.7219 C   0  0  0  0  0  0  0  0  0  0  0  0
   20.3352   -4.9564  -14.7356 O   0  0  0  0  0  0  0  0  0  0  0  0
   22.1469   -4.2015  -13.6157 O   0  0  0  0  0  0  0  0  0  0  0  0
  2  1  1  6
  2  9  1  0
  3  2  1  0
  4  3  1  0
  5  4  2  0
  6  5  1  0
  7  6  1  0
  7  8  2  0
  8  4  1  0
  9 17  1  0
 10  9  2  0
 12 11  1  0
 13 12  2  0
 14 12  1  0
 15 14  1  0
 16 15  1  1
 17 16  1  0
 18 16  1  0
 18 19  2  0
 21 22  1  0
 21 20  1  0
 22 23  1  0
 24 23  1  6
 24 25  1  0
 24 26  1  0
 25 18  1  0
 26 28  1  0
 27 26  2  0
M  END
$$$$
