HDL.pdb
     RDKit          3D

 27 27  0  0  1  0  0  0  0  0999 V2000
    9.4259  -15.3683   20.2219 N   0  0  0  0  0  0  0  0  0  0  0  0
    8.0808  -14.9899   20.5753 C   0  0  1  0  0  0  0  0  0  0  0  0
    7.1572  -14.9779   19.4002 C   0  0  0  0  0  0  0  0  0  0  0  0
    7.8056  -14.4162   18.1989 C   0  0  0  0  0  0  0  0  0  0  0  0
    8.5835  -13.2411   18.1666 C   0  0  0  0  0  0  0  0  0  0  0  0
    9.0199  -13.0165   16.9251 N   0  0  0  0  0  0  0  0  0  0  0  0
    8.5468  -14.0087   16.1667 C   0  0  0  0  0  0  0  0  0  0  0  0
    7.8275  -14.8353   16.9320 N   0  0  0  0  0  0  0  0  0  0  0  0
    7.5284  -15.6841   21.7375 C   0  0  0  0  0  0  0  0  0  0  0  0
    6.2910  -15.5651   22.0416 O   0  0  0  0  0  0  0  0  0  0  0  0
    8.2628  -16.5148   22.6128 N   0  0  0  0  0  0  0  0  0  0  0  0
    7.7111  -17.1364   23.7753 C   0  0  1  0  0  0  0  0  0  0  0  0
    8.3174  -18.4071   24.2280 C   0  0  0  0  0  0  0  0  0  0  0  0
    7.6967  -19.0483   25.4050 C   0  0  0  0  0  0  0  0  0  0  0  0
    6.4535  -19.1010   25.4821 O   0  0  0  0  0  0  0  0  0  0  0  0
    7.7344  -16.2025   24.9451 C   0  0  0  0  0  0  0  0  0  0  0  0
    6.6980  -15.7895   25.4991 O   0  0  0  0  0  0  0  0  0  0  0  0
    8.5055  -19.5645   26.3771 O   0  0  0  0  0  0  0  0  0  0  0  0
    5.6907  -12.8078   26.4155 C   0  0  0  0  0  0  0  0  0  0  0  0
    7.0723  -13.2456   26.1511 C   0  0  1  0  0  0  0  0  0  0  0  0
    8.0877  -12.1221   26.3949 C   0  0  0  0  0  0  0  0  0  0  0  0
    7.6100  -14.4547   26.7836 C   0  0  0  0  0  0  0  0  0  0  0  0
    9.0276  -14.8447   26.6115 C   0  0  2  0  0  0  0  0  0  0  0  0
    8.9884  -15.7798   25.4314 N   0  0  0  0  0  0  0  0  0  0  0  0
    9.5154  -15.6900   27.7039 C   0  0  0  0  0  0  0  0  0  0  0  0
    9.6132  -17.0708   27.5567 O   0  0  0  0  0  0  0  0  0  0  0  0
    9.8687  -15.2532   28.8210 O   0  0  0  0  0  0  0  0  0  0  0  0
  2  1  1  6
  3  2  1  0
  4  8  1  0
  4  3  1  0
  5  4  2  0
  6  5  1  0
  6  7  1  0
  7  8  2  0
  9  2  1  0
 10  9  2  0
 11  9  1  0
 12 13  1  1
 12 11  1  0
 13 14  1  0
 14 15  2  0
 16 12  1  0
 17 16  2  0
 18 14  1  0
 20 19  1  1
 20 21  1  0
 22 20  1  0
 23 22  1  1
 23 24  1  0
 24 16  1  0
 25 26  1  0
 25 23  1  0
 27 25  2  0
M  END
$$$$
