HDL.pdb
     RDKit          3D

 27 27  0  0  1  0  0  0  0  0999 V2000
    7.5213  -17.0453   20.1872 N   0  0  0  0  0  0  0  0  0  0  0  0
    8.1827  -16.1473   21.1004 C   0  0  1  0  0  0  0  0  0  0  0  0
    7.5622  -14.7878   21.1234 C   0  0  0  0  0  0  0  0  0  0  0  0
    7.9128  -14.0045   19.9223 C   0  0  0  0  0  0  0  0  0  0  0  0
    8.7240  -14.4572   18.8621 C   0  0  0  0  0  0  0  0  0  0  0  0
    8.8403  -13.5023   17.9365 N   0  0  0  0  0  0  0  0  0  0  0  0
    8.1305  -12.4579   18.3711 C   0  0  0  0  0  0  0  0  0  0  0  0
    7.5828  -12.7658   19.5508 N   0  0  0  0  0  0  0  0  0  0  0  0
    8.4290  -16.6929   22.4343 C   0  0  0  0  0  0  0  0  0  0  0  0
    7.4775  -17.2166   23.1113 O   0  0  0  0  0  0  0  0  0  0  0  0
    9.6786  -16.6960   23.0931 N   0  0  0  0  0  0  0  0  0  0  0  0
    9.8779  -17.1710   24.4261 C   0  0  1  0  0  0  0  0  0  0  0  0
   10.9338  -18.1833   24.6439 C   0  0  0  0  0  0  0  0  0  0  0  0
   11.0960  -18.6760   26.0270 C   0  0  0  0  0  0  0  0  0  0  0  0
   10.0803  -18.8990   26.7146 O   0  0  0  0  0  0  0  0  0  0  0  0
   10.1623  -16.0378   25.3623 C   0  0  0  0  0  0  0  0  0  0  0  0
   11.1882  -15.3361   25.2796 O   0  0  0  0  0  0  0  0  0  0  0  0
   12.3574  -18.8716   26.5129 O   0  0  0  0  0  0  0  0  0  0  0  0
    6.3010  -12.6991   26.1053 C   0  0  0  0  0  0  0  0  0  0  0  0
    7.6652  -13.2549   26.1257 C   0  0  1  0  0  0  0  0  0  0  0  0
    8.7088  -12.2337   25.6556 C   0  0  0  0  0  0  0  0  0  0  0  0
    8.1991  -13.8879   27.3362 C   0  0  0  0  0  0  0  0  0  0  0  0
    9.4875  -14.6167   27.3161 C   0  0  2  0  0  0  0  0  0  0  0  0
    9.2219  -15.7630   26.3759 N   0  0  0  0  0  0  0  0  0  0  0  0
    9.7801  -15.2777   28.5902 C   0  0  0  0  0  0  0  0  0  0  0  0
   10.3524  -14.5782   29.6490 O   0  0  0  0  0  0  0  0  0  0  0  0
    9.5497  -16.4851   28.8200 O   0  0  0  0  0  0  0  0  0  0  0  0
  2  1  1  6
  3  2  1  0
  4  8  1  0
  4  3  1  0
  5  4  2  0
  6  5  1  0
  6  7  1  0
  7  8  2  0
  9  2  1  0
 10  9  2  0
 11  9  1  0
 12 13  1  6
 12 11  1  0
 13 14  1  0
 14 15  2  0
 16 12  1  0
 17 16  2  0
 18 14  1  0
 20 19  1  1
 20 21  1  0
 22 20  1  0
 23 22  1  1
 23 24  1  0
 24 16  1  0
 25 26  1  0
 25 23  1  0
 27 25  2  0
M  END
$$$$
