HDL.pdb
     RDKit          3D

 27 27  0  0  1  0  0  0  0  0999 V2000
    9.2922  -16.4580   19.6449 N   0  0  0  0  0  0  0  0  0  0  0  0
    8.7147  -15.8868   20.8356 C   0  0  1  0  0  0  0  0  0  0  0  0
    7.4085  -15.2087   20.5751 C   0  0  0  0  0  0  0  0  0  0  0  0
    7.4851  -14.2978   19.4160 C   0  0  0  0  0  0  0  0  0  0  0  0
    8.0586  -13.0102   19.4276 C   0  0  0  0  0  0  0  0  0  0  0  0
    7.9621  -12.4566   18.2168 N   0  0  0  0  0  0  0  0  0  0  0  0
    7.3474  -13.3479   17.4350 C   0  0  0  0  0  0  0  0  0  0  0  0
    7.0686  -14.4384   18.1558 N   0  0  0  0  0  0  0  0  0  0  0  0
    8.6828  -16.7766   21.9954 C   0  0  0  0  0  0  0  0  0  0  0  0
    8.3522  -18.0062   21.8659 O   0  0  0  0  0  0  0  0  0  0  0  0
    8.9907  -16.3959   23.3205 N   0  0  0  0  0  0  0  0  0  0  0  0
   10.2377  -16.6715   23.9617 C   0  0  1  0  0  0  0  0  0  0  0  0
   11.4763  -16.3066   23.2406 C   0  0  0  0  0  0  0  0  0  0  0  0
   12.7491  -16.6763   23.8927 C   0  0  0  0  0  0  0  0  0  0  0  0
   12.9437  -17.8652   24.2131 O   0  0  0  0  0  0  0  0  0  0  0  0
   10.3070  -16.0140   25.3049 C   0  0  0  0  0  0  0  0  0  0  0  0
   11.2816  -16.1438   26.0697 O   0  0  0  0  0  0  0  0  0  0  0  0
   13.6766  -15.7013   24.1271 O   0  0  0  0  0  0  0  0  0  0  0  0
    6.1282  -12.4859   25.9656 C   0  0  0  0  0  0  0  0  0  0  0  0
    7.5058  -13.0082   25.9767 C   0  0  1  0  0  0  0  0  0  0  0  0
    8.5393  -11.9086   25.7016 C   0  0  0  0  0  0  0  0  0  0  0  0
    8.0027  -13.7893   27.1142 C   0  0  0  0  0  0  0  0  0  0  0  0
    9.2901  -14.5164   27.0414 C   0  0  2  0  0  0  0  0  0  0  0  0
    9.2172  -15.2166   25.7100 N   0  0  0  0  0  0  0  0  0  0  0  0
    9.3702  -15.6169   28.0049 C   0  0  0  0  0  0  0  0  0  0  0  0
    9.0607  -16.9223   27.6334 O   0  0  0  0  0  0  0  0  0  0  0  0
    9.7089  -15.4758   29.2002 O   0  0  0  0  0  0  0  0  0  0  0  0
  2  1  1  6
  3  2  1  0
  4  8  1  0
  4  3  1  0
  5  4  2  0
  6  5  1  0
  6  7  1  0
  7  8  2  0
  9  2  1  0
 10  9  2  0
 11  9  1  0
 12 13  1  6
 12 11  1  0
 13 14  1  0
 14 15  2  0
 16 12  1  0
 17 16  2  0
 18 14  1  0
 20 19  1  1
 20 21  1  0
 22 20  1  0
 23 22  1  1
 23 24  1  0
 24 16  1  0
 25 26  1  0
 25 23  1  0
 27 25  2  0
M  END
$$$$
