HDL.pdb
     RDKit          3D

 27 27  0  0  1  0  0  0  0  0999 V2000
    8.1354  -17.1370   18.5815 N   0  0  0  0  0  0  0  0  0  0  0  0
    9.2812  -16.9229   19.4294 C   0  0  1  0  0  0  0  0  0  0  0  0
   10.0129  -15.6613   19.1027 C   0  0  0  0  0  0  0  0  0  0  0  0
    9.0893  -14.5264   18.9076 C   0  0  0  0  0  0  0  0  0  0  0  0
    8.7721  -13.5571   19.8806 C   0  0  0  0  0  0  0  0  0  0  0  0
    7.9073  -12.6726   19.3788 N   0  0  0  0  0  0  0  0  0  0  0  0
    7.6638  -13.0457   18.1198 C   0  0  0  0  0  0  0  0  0  0  0  0
    8.3708  -14.1471   17.8488 N   0  0  0  0  0  0  0  0  0  0  0  0
    9.0318  -17.0926   20.8601 C   0  0  0  0  0  0  0  0  0  0  0  0
    7.8451  -17.0033   21.3309 O   0  0  0  0  0  0  0  0  0  0  0  0
   10.0228  -17.3533   21.8324 N   0  0  0  0  0  0  0  0  0  0  0  0
    9.7399  -17.6629   23.1985 C   0  0  1  0  0  0  0  0  0  0  0  0
   10.5228  -18.7446   23.8342 C   0  0  0  0  0  0  0  0  0  0  0  0
   10.1513  -19.0973   25.2196 C   0  0  0  0  0  0  0  0  0  0  0  0
    8.9474  -19.1002   25.5429 O   0  0  0  0  0  0  0  0  0  0  0  0
    9.8893  -16.4512   24.0650 C   0  0  0  0  0  0  0  0  0  0  0  0
   10.9472  -15.7969   24.1327 O   0  0  0  0  0  0  0  0  0  0  0  0
   11.1410  -19.4091   26.1079 O   0  0  0  0  0  0  0  0  0  0  0  0
    7.9927  -11.7600   26.1848 C   0  0  0  0  0  0  0  0  0  0  0  0
    7.2211  -12.9998   26.3798 C   0  0  1  0  0  0  0  0  0  0  0  0
    5.7130  -12.7689   26.2209 C   0  0  0  0  0  0  0  0  0  0  0  0
    7.5509  -14.2147   25.6274 C   0  0  0  0  0  0  0  0  0  0  0  0
    8.9054  -14.8093   25.6863 C   0  0  2  0  0  0  0  0  0  0  0  0
    8.7790  -16.0432   24.8320 N   0  0  0  0  0  0  0  0  0  0  0  0
    9.2296  -15.3408   27.0123 C   0  0  0  0  0  0  0  0  0  0  0  0
    8.6339  -16.5066   27.4855 O   0  0  0  0  0  0  0  0  0  0  0  0
   10.0388  -14.8053   27.8009 O   0  0  0  0  0  0  0  0  0  0  0  0
  2  1  1  6
  3  2  1  0
  4  8  1  0
  4  3  1  0
  5  4  2  0
  6  5  1  0
  6  7  1  0
  7  8  2  0
  9  2  1  0
 10  9  2  0
 11  9  1  0
 12 13  1  1
 12 11  1  0
 13 14  1  0
 14 15  2  0
 16 12  1  0
 17 16  2  0
 18 14  1  0
 20 19  1  6
 20 21  1  0
 22 20  1  0
 23 22  1  1
 23 24  1  0
 24 16  1  0
 25 26  1  0
 25 23  1  0
 27 25  2  0
M  END
$$$$
