HDL.pdb
     RDKit          3D

 27 27  0  0  1  0  0  0  0  0999 V2000
    7.2699  -16.6549   19.5234 N   0  0  0  0  0  0  0  0  0  0  0  0
    7.9376  -15.7564   20.4313 C   0  0  1  0  0  0  0  0  0  0  0  0
    7.4520  -14.3480   20.3105 C   0  0  0  0  0  0  0  0  0  0  0  0
    7.7565  -13.7747   18.9847 C   0  0  0  0  0  0  0  0  0  0  0  0
    6.8723  -13.7441   17.8873 C   0  0  0  0  0  0  0  0  0  0  0  0
    7.4609  -13.1566   16.8431 N   0  0  0  0  0  0  0  0  0  0  0  0
    8.6890  -12.8117   17.2387 C   0  0  0  0  0  0  0  0  0  0  0  0
    8.8551  -13.1822   18.5121 N   0  0  0  0  0  0  0  0  0  0  0  0
    8.0193  -16.2229   21.8145 C   0  0  0  0  0  0  0  0  0  0  0  0
    6.9945  -16.1788   22.5799 O   0  0  0  0  0  0  0  0  0  0  0  0
    9.1804  -16.7410   22.4303 N   0  0  0  0  0  0  0  0  0  0  0  0
    9.2566  -17.1106   23.8086 C   0  0  1  0  0  0  0  0  0  0  0  0
    9.9598  -18.3675   24.1448 C   0  0  0  0  0  0  0  0  0  0  0  0
   10.0783  -18.6896   25.5815 C   0  0  0  0  0  0  0  0  0  0  0  0
   11.1268  -18.3904   26.1858 O   0  0  0  0  0  0  0  0  0  0  0  0
    9.8932  -16.0257   24.6204 C   0  0  0  0  0  0  0  0  0  0  0  0
   11.0350  -15.5878   24.3833 O   0  0  0  0  0  0  0  0  0  0  0  0
    9.0332  -19.3087   26.2062 O   0  0  0  0  0  0  0  0  0  0  0  0
    6.5484  -12.8041   27.5807 C   0  0  0  0  0  0  0  0  0  0  0  0
    7.3353  -13.5614   26.5917 C   0  0  1  0  0  0  0  0  0  0  0  0
    6.6842  -13.5420   25.2030 C   0  0  0  0  0  0  0  0  0  0  0  0
    8.7632  -13.2867   26.4002 C   0  0  0  0  0  0  0  0  0  0  0  0
    9.7716  -14.3661   26.4975 C   0  0  2  0  0  0  0  0  0  0  0  0
    9.1596  -15.4847   25.6958 N   0  0  0  0  0  0  0  0  0  0  0  0
    9.8695  -14.9248   27.8481 C   0  0  0  0  0  0  0  0  0  0  0  0
    9.5089  -16.2438   28.1091 O   0  0  0  0  0  0  0  0  0  0  0  0
   10.2689  -14.2813   28.8431 O   0  0  0  0  0  0  0  0  0  0  0  0
  2  1  1  6
  3  2  1  0
  4  8  1  0
  4  3  1  0
  5  4  2  0
  6  5  1  0
  6  7  1  0
  7  8  2  0
  9  2  1  0
 10  9  2  0
 11  9  1  0
 12 13  1  6
 12 11  1  0
 13 14  1  0
 14 15  2  0
 16 12  1  0
 17 16  2  0
 18 14  1  0
 20 19  1  1
 20 21  1  0
 22 20  1  0
 23 22  1  1
 23 24  1  0
 24 16  1  0
 25 26  1  0
 25 23  1  0
 27 25  2  0
M  END
$$$$
