HDL.pdb
     RDKit          3D

 27 27  0  0  1  0  0  0  0  0999 V2000
    9.9521  -15.0925   19.7219 N   0  0  0  0  0  0  0  0  0  0  0  0
    8.7363  -15.0167   20.4923 C   0  0  1  0  0  0  0  0  0  0  0  0
    7.5212  -15.3450   19.6862 C   0  0  0  0  0  0  0  0  0  0  0  0
    7.4543  -14.5477   18.4456 C   0  0  0  0  0  0  0  0  0  0  0  0
    8.3261  -13.4934   18.1062 C   0  0  0  0  0  0  0  0  0  0  0  0
    7.9887  -12.9865   16.9183 N   0  0  0  0  0  0  0  0  0  0  0  0
    6.9324  -13.6825   16.4900 C   0  0  0  0  0  0  0  0  0  0  0  0
    6.6228  -14.6079   17.4033 N   0  0  0  0  0  0  0  0  0  0  0  0
    8.7775  -15.7045   21.7819 C   0  0  0  0  0  0  0  0  0  0  0  0
    7.7313  -15.7803   22.5150 O   0  0  0  0  0  0  0  0  0  0  0  0
    9.9197  -16.3237   22.3365 N   0  0  0  0  0  0  0  0  0  0  0  0
    9.9227  -17.0263   23.5808 C   0  0  1  0  0  0  0  0  0  0  0  0
   10.9265  -18.0970   23.7628 C   0  0  0  0  0  0  0  0  0  0  0  0
   10.9281  -19.1744   22.7523 C   0  0  0  0  0  0  0  0  0  0  0  0
    9.8398  -19.6249   22.3441 O   0  0  0  0  0  0  0  0  0  0  0  0
   10.0826  -16.0806   24.7304 C   0  0  0  0  0  0  0  0  0  0  0  0
   11.0840  -15.3532   24.8708 O   0  0  0  0  0  0  0  0  0  0  0  0
   12.1253  -19.6472   22.2954 O   0  0  0  0  0  0  0  0  0  0  0  0
    6.2955  -12.7090   26.2622 C   0  0  0  0  0  0  0  0  0  0  0  0
    7.6326  -13.3252   26.2071 C   0  0  1  0  0  0  0  0  0  0  0  0
    8.7504  -12.2888   26.3785 C   0  0  0  0  0  0  0  0  0  0  0  0
    7.9690  -14.4652   27.0663 C   0  0  0  0  0  0  0  0  0  0  0  0
    9.2566  -15.1811   26.9215 C   0  0  2  0  0  0  0  0  0  0  0  0
    9.0495  -16.0196   25.6877 N   0  0  0  0  0  0  0  0  0  0  0  0
    9.4716  -16.1721   27.9786 C   0  0  0  0  0  0  0  0  0  0  0  0
   10.0665  -15.8183   29.1864 O   0  0  0  0  0  0  0  0  0  0  0  0
    9.1511  -17.3770   27.8825 O   0  0  0  0  0  0  0  0  0  0  0  0
  2  1  1  6
  3  2  1  0
  4  8  1  0
  4  3  1  0
  5  4  2  0
  6  5  1  0
  6  7  1  0
  7  8  2  0
  9  2  1  0
 10  9  2  0
 11  9  1  0
 12 13  1  6
 12 11  1  0
 13 14  1  0
 14 15  2  0
 16 12  1  0
 17 16  2  0
 18 14  1  0
 20 19  1  1
 20 21  1  0
 22 20  1  0
 23 22  1  1
 23 24  1  0
 24 16  1  0
 25 26  1  0
 25 23  1  0
 27 25  2  0
M  END
$$$$
