HDL.pdb
     RDKit          3D

 27 27  0  0  1  0  0  0  0  0999 V2000
   10.0809  -15.1230   19.8584 N   0  0  0  0  0  0  0  0  0  0  0  0
    8.8514  -14.8701   20.5669 C   0  0  1  0  0  0  0  0  0  0  0  0
    7.6419  -15.0611   19.7099 C   0  0  0  0  0  0  0  0  0  0  0  0
    7.7630  -14.3470   18.4235 C   0  0  0  0  0  0  0  0  0  0  0  0
    8.8947  -13.6233   17.9964 C   0  0  0  0  0  0  0  0  0  0  0  0
    8.6734  -13.1015   16.7878 N   0  0  0  0  0  0  0  0  0  0  0  0
    7.4400  -13.4690   16.4310 C   0  0  0  0  0  0  0  0  0  0  0  0
    6.9076  -14.2090   17.4084 N   0  0  0  0  0  0  0  0  0  0  0  0
    8.7442  -15.5218   21.8714 C   0  0  0  0  0  0  0  0  0  0  0  0
    7.6430  -15.5005   22.5232 O   0  0  0  0  0  0  0  0  0  0  0  0
    9.7921  -16.2061   22.5265 N   0  0  0  0  0  0  0  0  0  0  0  0
    9.6818  -16.7727   23.8338 C   0  0  1  0  0  0  0  0  0  0  0  0
   10.5246  -17.9469   24.1469 C   0  0  0  0  0  0  0  0  0  0  0  0
   10.3048  -19.1520   23.3214 C   0  0  0  0  0  0  0  0  0  0  0  0
    9.1815  -19.3448   22.8164 O   0  0  0  0  0  0  0  0  0  0  0  0
    9.9575  -15.7462   24.8882 C   0  0  0  0  0  0  0  0  0  0  0  0
   10.9836  -15.0399   24.8897 O   0  0  0  0  0  0  0  0  0  0  0  0
   11.3415  -20.0220   23.1367 O   0  0  0  0  0  0  0  0  0  0  0  0
    6.1013  -12.6458   26.2283 C   0  0  0  0  0  0  0  0  0  0  0  0
    7.4950  -13.1176   26.1535 C   0  0  1  0  0  0  0  0  0  0  0  0
    8.4708  -11.9782   25.8332 C   0  0  0  0  0  0  0  0  0  0  0  0
    8.0846  -13.8919   27.2507 C   0  0  0  0  0  0  0  0  0  0  0  0
    9.3368  -14.6587   27.0618 C   0  0  2  0  0  0  0  0  0  0  0  0
    9.0083  -15.5811   25.9174 N   0  0  0  0  0  0  0  0  0  0  0  0
    9.6098  -15.5732   28.1731 C   0  0  0  0  0  0  0  0  0  0  0  0
   10.1970  -15.1193   29.3508 O   0  0  0  0  0  0  0  0  0  0  0  0
    9.3486  -16.7959   28.1521 O   0  0  0  0  0  0  0  0  0  0  0  0
  2  1  1  6
  3  2  1  0
  4  8  1  0
  4  3  1  0
  5  4  2  0
  6  5  1  0
  6  7  1  0
  7  8  2  0
  9  2  1  0
 10  9  2  0
 11  9  1  0
 12 13  1  6
 12 11  1  0
 13 14  1  0
 14 15  2  0
 16 12  1  0
 17 16  2  0
 18 14  1  0
 20 19  1  1
 20 21  1  0
 22 20  1  0
 23 22  1  1
 23 24  1  0
 24 16  1  0
 25 26  1  0
 25 23  1  0
 27 25  2  0
M  END
$$$$
