HDL.pdb
     RDKit          3D

 27 27  0  0  1  0  0  0  0  0999 V2000
    9.7979  -15.4587   19.4502 N   0  0  0  0  0  0  0  0  0  0  0  0
    8.5181  -15.1333   20.0279 C   0  0  1  0  0  0  0  0  0  0  0  0
    7.3793  -15.4103   19.1003 C   0  0  0  0  0  0  0  0  0  0  0  0
    7.6558  -14.9275   17.7330 C   0  0  0  0  0  0  0  0  0  0  0  0
    7.9890  -15.7429   16.6325 C   0  0  0  0  0  0  0  0  0  0  0  0
    8.1750  -14.9897   15.5461 N   0  0  0  0  0  0  0  0  0  0  0  0
    7.9710  -13.7232   15.9175 C   0  0  0  0  0  0  0  0  0  0  0  0
    7.6626  -13.6963   17.2177 N   0  0  0  0  0  0  0  0  0  0  0  0
    8.3010  -15.6476   21.3792 C   0  0  0  0  0  0  0  0  0  0  0  0
    7.1441  -15.5864   21.9229 O   0  0  0  0  0  0  0  0  0  0  0  0
    9.2946  -16.2325   22.1955 N   0  0  0  0  0  0  0  0  0  0  0  0
    9.0419  -16.7880   23.4877 C   0  0  1  0  0  0  0  0  0  0  0  0
    9.6336  -18.1080   23.7956 C   0  0  0  0  0  0  0  0  0  0  0  0
    9.3607  -18.6522   25.1415 C   0  0  0  0  0  0  0  0  0  0  0  0
    8.1992  -18.6037   25.5915 O   0  0  0  0  0  0  0  0  0  0  0  0
    9.4819  -15.8513   24.5695 C   0  0  0  0  0  0  0  0  0  0  0  0
   10.6355  -15.3853   24.6299 O   0  0  0  0  0  0  0  0  0  0  0  0
   10.3925  -19.1923   25.8552 O   0  0  0  0  0  0  0  0  0  0  0  0
    5.7496  -12.4587   26.5190 C   0  0  0  0  0  0  0  0  0  0  0  0
    7.0731  -13.0125   26.1839 C   0  0  1  0  0  0  0  0  0  0  0  0
    8.0741  -11.9159   25.7989 C   0  0  0  0  0  0  0  0  0  0  0  0
    7.7631  -13.9181   27.1084 C   0  0  0  0  0  0  0  0  0  0  0  0
    8.9971  -14.6303   26.7065 C   0  0  2  0  0  0  0  0  0  0  0  0
    8.5419  -15.4887   25.5556 N   0  0  0  0  0  0  0  0  0  0  0  0
    9.4369  -15.6040   27.7087 C   0  0  0  0  0  0  0  0  0  0  0  0
   10.1680  -15.2073   28.8249 O   0  0  0  0  0  0  0  0  0  0  0  0
    9.2010  -16.8302   27.6422 O   0  0  0  0  0  0  0  0  0  0  0  0
  2  1  1  6
  3  2  1  0
  4  8  1  0
  4  3  1  0
  5  4  2  0
  6  5  1  0
  6  7  1  0
  7  8  2  0
  9  2  1  0
 10  9  2  0
 11  9  1  0
 12 13  1  6
 12 11  1  0
 13 14  1  0
 14 15  2  0
 16 12  1  0
 17 16  2  0
 18 14  1  0
 20 19  1  1
 20 21  1  0
 22 20  1  0
 23 22  1  1
 23 24  1  0
 24 16  1  0
 25 26  1  0
 25 23  1  0
 27 25  2  0
M  END
$$$$
