HDL.pdb
     RDKit          3D

 27 27  0  0  1  0  0  0  0  0999 V2000
    6.9170  -14.8782   20.8798 N   0  0  0  0  0  0  0  0  0  0  0  0
    7.3369  -16.2377   20.6497 C   0  0  1  0  0  0  0  0  0  0  0  0
    7.4801  -16.5593   19.1971 C   0  0  0  0  0  0  0  0  0  0  0  0
    7.8446  -15.3681   18.4051 C   0  0  0  0  0  0  0  0  0  0  0  0
    7.7716  -14.0350   18.8572 C   0  0  0  0  0  0  0  0  0  0  0  0
    8.1735  -13.2034   17.8933 N   0  0  0  0  0  0  0  0  0  0  0  0
    8.5003  -13.9618   16.8437 C   0  0  0  0  0  0  0  0  0  0  0  0
    8.3023  -15.2459   17.1573 N   0  0  0  0  0  0  0  0  0  0  0  0
    8.4761  -16.6773   21.4540 C   0  0  0  0  0  0  0  0  0  0  0  0
    8.8577  -17.8987   21.4325 O   0  0  0  0  0  0  0  0  0  0  0  0
    9.2382  -15.8472   22.3057 N   0  0  0  0  0  0  0  0  0  0  0  0
   10.2597  -16.3256   23.1832 C   0  0  1  0  0  0  0  0  0  0  0  0
   11.5816  -15.6652   23.1232 C   0  0  0  0  0  0  0  0  0  0  0  0
   12.3678  -15.8799   21.8913 C   0  0  0  0  0  0  0  0  0  0  0  0
   12.3707  -17.0088   21.3624 O   0  0  0  0  0  0  0  0  0  0  0  0
    9.8103  -16.2700   24.6102 C   0  0  0  0  0  0  0  0  0  0  0  0
   10.5720  -16.5078   25.5667 O   0  0  0  0  0  0  0  0  0  0  0  0
   13.0711  -14.8326   21.3678 O   0  0  0  0  0  0  0  0  0  0  0  0
    6.3889  -12.3945   25.9857 C   0  0  0  0  0  0  0  0  0  0  0  0
    7.3929  -13.4553   26.1788 C   0  0  1  0  0  0  0  0  0  0  0  0
    8.3470  -13.1392   27.3375 C   0  0  0  0  0  0  0  0  0  0  0  0
    6.9847  -14.8560   26.3288 C   0  0  0  0  0  0  0  0  0  0  0  0
    7.9787  -15.9524   26.2945 C   0  0  2  0  0  0  0  0  0  0  0  0
    8.4662  -15.9330   24.8696 N   0  0  0  0  0  0  0  0  0  0  0  0
    7.3631  -17.2747   26.4294 C   0  0  0  0  0  0  0  0  0  0  0  0
    7.0344  -17.7913   27.6796 O   0  0  0  0  0  0  0  0  0  0  0  0
    7.0951  -18.0224   25.4636 O   0  0  0  0  0  0  0  0  0  0  0  0
  2  1  1  6
  3  2  1  0
  4  8  1  0
  4  3  1  0
  5  4  2  0
  6  5  1  0
  6  7  1  0
  7  8  2  0
  9  2  1  0
 10  9  2  0
 11  9  1  0
 12 13  1  1
 12 11  1  0
 13 14  1  0
 14 15  2  0
 16 12  1  0
 17 16  2  0
 18 14  1  0
 20 19  1  1
 20 21  1  0
 22 20  1  0
 23 22  1  6
 23 24  1  0
 24 16  1  0
 25 26  1  0
 25 23  1  0
 27 25  2  0
M  END
$$$$
