HDL.pdb
     RDKit          3D

 27 27  0  0  1  0  0  0  0  0999 V2000
    8.8839  -16.7688   19.2928 N   0  0  0  0  0  0  0  0  0  0  0  0
    8.7822  -15.7427   20.3000 C   0  0  1  0  0  0  0  0  0  0  0  0
    7.6777  -14.7736   20.0266 C   0  0  0  0  0  0  0  0  0  0  0  0
    7.7900  -14.1798   18.6798 C   0  0  0  0  0  0  0  0  0  0  0  0
    8.4525  -12.9739   18.3733 C   0  0  0  0  0  0  0  0  0  0  0  0
    8.3659  -12.7255   17.0646 N   0  0  0  0  0  0  0  0  0  0  0  0
    7.6716  -13.7321   16.5279 C   0  0  0  0  0  0  0  0  0  0  0  0
    7.3345  -14.5912   17.4947 N   0  0  0  0  0  0  0  0  0  0  0  0
    8.7980  -16.2269   21.6796 C   0  0  0  0  0  0  0  0  0  0  0  0
    7.7644  -16.7849   22.1874 O   0  0  0  0  0  0  0  0  0  0  0  0
    9.8971  -16.1310   22.5619 N   0  0  0  0  0  0  0  0  0  0  0  0
    9.9277  -16.7140   23.8662 C   0  0  1  0  0  0  0  0  0  0  0  0
   10.9361  -17.7642   24.1257 C   0  0  0  0  0  0  0  0  0  0  0  0
   10.9098  -18.9364   23.2272 C   0  0  0  0  0  0  0  0  0  0  0  0
   10.0326  -19.8069   23.3911 O   0  0  0  0  0  0  0  0  0  0  0  0
   10.1120  -15.6650   24.9184 C   0  0  0  0  0  0  0  0  0  0  0  0
   11.0741  -14.8737   24.9205 O   0  0  0  0  0  0  0  0  0  0  0  0
   11.8507  -19.0323   22.2418 O   0  0  0  0  0  0  0  0  0  0  0  0
    5.9918  -12.7348   26.4390 C   0  0  0  0  0  0  0  0  0  0  0  0
    7.3854  -13.1830   26.2725 C   0  0  1  0  0  0  0  0  0  0  0  0
    8.3352  -12.0127   25.9878 C   0  0  0  0  0  0  0  0  0  0  0  0
    8.0300  -14.0215   27.2886 C   0  0  0  0  0  0  0  0  0  0  0  0
    9.3749  -14.5989   27.0660 C   0  0  2  0  0  0  0  0  0  0  0  0
    9.1494  -15.5788   25.9448 N   0  0  0  0  0  0  0  0  0  0  0  0
    9.8155  -15.4443   28.1782 C   0  0  0  0  0  0  0  0  0  0  0  0
   10.4490  -14.8974   29.2907 O   0  0  0  0  0  0  0  0  0  0  0  0
    9.6657  -16.6851   28.2146 O   0  0  0  0  0  0  0  0  0  0  0  0
  2  1  1  6
  3  2  1  0
  4  8  1  0
  4  3  1  0
  5  4  2  0
  6  5  1  0
  6  7  1  0
  7  8  2  0
  9  2  1  0
 10  9  2  0
 11  9  1  0
 12 13  1  6
 12 11  1  0
 13 14  1  0
 14 15  2  0
 16 12  1  0
 17 16  2  0
 18 14  1  0
 20 19  1  1
 20 21  1  0
 22 20  1  0
 23 22  1  1
 23 24  1  0
 24 16  1  0
 25 26  1  0
 25 23  1  0
 27 25  2  0
M  END
$$$$
