HDL.pdb
     RDKit          3D

 27 27  0  0  1  0  0  0  0  0999 V2000
    7.9677  -16.8770   19.6451 N   0  0  0  0  0  0  0  0  0  0  0  0
    8.2722  -15.8528   20.6125 C   0  0  1  0  0  0  0  0  0  0  0  0
    7.4741  -14.6065   20.4037 C   0  0  0  0  0  0  0  0  0  0  0  0
    7.7580  -13.9864   19.0945 C   0  0  0  0  0  0  0  0  0  0  0  0
    8.5819  -12.8617   18.8868 C   0  0  0  0  0  0  0  0  0  0  0  0
    8.6246  -12.5609   17.5869 N   0  0  0  0  0  0  0  0  0  0  0  0
    7.8565  -13.4560   16.9604 C   0  0  0  0  0  0  0  0  0  0  0  0
    7.3468  -14.2988   17.8638 N   0  0  0  0  0  0  0  0  0  0  0  0
    8.2891  -16.3020   22.0039 C   0  0  0  0  0  0  0  0  0  0  0  0
    7.2176  -16.7129   22.5702 O   0  0  0  0  0  0  0  0  0  0  0  0
    9.4299  -16.3243   22.8368 N   0  0  0  0  0  0  0  0  0  0  0  0
    9.4349  -16.8355   24.1712 C   0  0  1  0  0  0  0  0  0  0  0  0
   10.2782  -18.0178   24.4508 C   0  0  0  0  0  0  0  0  0  0  0  0
   10.1851  -18.5839   25.8120 C   0  0  0  0  0  0  0  0  0  0  0  0
   10.0767  -17.8113   26.7843 O   0  0  0  0  0  0  0  0  0  0  0  0
    9.8342  -15.7755   25.1501 C   0  0  0  0  0  0  0  0  0  0  0  0
   10.9318  -15.1887   25.0982 O   0  0  0  0  0  0  0  0  0  0  0  0
   10.2220  -19.9407   25.9651 O   0  0  0  0  0  0  0  0  0  0  0  0
    5.8566  -12.5564   26.8694 C   0  0  0  0  0  0  0  0  0  0  0  0
    7.2014  -13.0534   26.5299 C   0  0  1  0  0  0  0  0  0  0  0  0
    8.0841  -11.9546   25.9246 C   0  0  0  0  0  0  0  0  0  0  0  0
    8.0149  -13.7567   27.5272 C   0  0  0  0  0  0  0  0  0  0  0  0
    9.3105  -14.3734   27.1632 C   0  0  2  0  0  0  0  0  0  0  0  0
    8.9210  -15.4355   26.1689 N   0  0  0  0  0  0  0  0  0  0  0  0
    9.9009  -15.1352   28.2664 C   0  0  0  0  0  0  0  0  0  0  0  0
    9.8314  -16.5251   28.2993 O   0  0  0  0  0  0  0  0  0  0  0  0
   10.4926  -14.6144   29.2371 O   0  0  0  0  0  0  0  0  0  0  0  0
  2  1  1  6
  3  2  1  0
  4  8  1  0
  4  3  1  0
  5  4  2  0
  6  5  1  0
  6  7  1  0
  7  8  2  0
  9  2  1  0
 10  9  2  0
 11  9  1  0
 12 13  1  6
 12 11  1  0
 13 14  1  0
 14 15  2  0
 16 12  1  0
 17 16  2  0
 18 14  1  0
 20 19  1  1
 20 21  1  0
 22 20  1  0
 23 22  1  1
 23 24  1  0
 24 16  1  0
 25 26  1  0
 25 23  1  0
 27 25  2  0
M  END
$$$$
