HDL.pdb
     RDKit          3D

 27 27  0  0  1  0  0  0  0  0999 V2000
    9.8709  -15.4365   19.4619 N   0  0  0  0  0  0  0  0  0  0  0  0
    8.8418  -14.9247   20.3318 C   0  0  1  0  0  0  0  0  0  0  0  0
    7.5244  -14.7760   19.6417 C   0  0  0  0  0  0  0  0  0  0  0  0
    7.6797  -14.2523   18.2703 C   0  0  0  0  0  0  0  0  0  0  0  0
    8.1468  -12.9646   17.9376 C   0  0  0  0  0  0  0  0  0  0  0  0
    8.1650  -12.8141   16.6114 N   0  0  0  0  0  0  0  0  0  0  0  0
    7.7261  -13.9621   16.0888 C   0  0  0  0  0  0  0  0  0  0  0  0
    7.4410  -14.8103   17.0817 N   0  0  0  0  0  0  0  0  0  0  0  0
    8.7424  -15.5899   21.6300 C   0  0  0  0  0  0  0  0  0  0  0  0
    7.6734  -15.5023   22.3282 O   0  0  0  0  0  0  0  0  0  0  0  0
    9.7651  -16.3576   22.2302 N   0  0  0  0  0  0  0  0  0  0  0  0
    9.6496  -16.9801   23.5114 C   0  0  1  0  0  0  0  0  0  0  0  0
   10.5015  -18.1583   23.7820 C   0  0  0  0  0  0  0  0  0  0  0  0
   10.3201  -18.8126   25.0938 C   0  0  0  0  0  0  0  0  0  0  0  0
   11.1684  -18.6249   25.9878 O   0  0  0  0  0  0  0  0  0  0  0  0
    9.9061  -15.9966   24.6106 C   0  0  0  0  0  0  0  0  0  0  0  0
   10.9094  -15.2587   24.6346 O   0  0  0  0  0  0  0  0  0  0  0  0
    9.2260  -19.6070   25.2881 O   0  0  0  0  0  0  0  0  0  0  0  0
    6.0817  -12.7106   26.3433 C   0  0  0  0  0  0  0  0  0  0  0  0
    7.4412  -13.2535   26.1766 C   0  0  1  0  0  0  0  0  0  0  0  0
    8.5063  -12.1497   26.1908 C   0  0  0  0  0  0  0  0  0  0  0  0
    7.9294  -14.3322   27.0421 C   0  0  0  0  0  0  0  0  0  0  0  0
    9.2420  -14.9732   26.8024 C   0  0  2  0  0  0  0  0  0  0  0  0
    8.9651  -15.9109   25.6569 N   0  0  0  0  0  0  0  0  0  0  0  0
    9.6383  -15.8688   27.8918 C   0  0  0  0  0  0  0  0  0  0  0  0
   10.2888  -15.3826   29.0225 O   0  0  0  0  0  0  0  0  0  0  0  0
    9.4335  -17.1024   27.8917 O   0  0  0  0  0  0  0  0  0  0  0  0
  2  1  1  6
  3  2  1  0
  4  8  1  0
  4  3  1  0
  5  4  2  0
  6  5  1  0
  6  7  1  0
  7  8  2  0
  9  2  1  0
 10  9  2  0
 11  9  1  0
 12 13  1  6
 12 11  1  0
 13 14  1  0
 14 15  2  0
 16 12  1  0
 17 16  2  0
 18 14  1  0
 20 19  1  1
 20 21  1  0
 22 20  1  0
 23 22  1  1
 23 24  1  0
 24 16  1  0
 25 26  1  0
 25 23  1  0
 27 25  2  0
M  END
$$$$
