QLY.pdb
     RDKit          3D

 30 30  0  0  1  0  0  0  0  0999 V2000
   10.4533  -18.8612   15.3057 N   0  0  0  0  0  0  0  0  0  0  0  0
    9.6279  -19.8239   15.9894 C   0  0  0  0  0  0  0  0  0  0  0  0
    9.1521  -20.7524   15.3256 O   0  0  0  0  0  0  0  0  0  0  0  0
    9.3559  -19.7179   17.4343 C   0  0  0  0  0  0  0  0  0  0  0  0
    9.9028  -18.4884   18.0442 C   0  0  0  0  0  0  0  0  0  0  0  0
    9.8433  -18.3600   19.5231 C   0  0  2  0  0  0  0  0  0  0  0  0
    8.6174  -18.7604   20.1537 N   0  0  0  0  0  0  0  0  0  0  0  0
   10.1965  -16.9842   19.9912 C   0  0  0  0  0  0  0  0  0  0  0  0
   11.3165  -16.5202   19.6749 O   0  0  0  0  0  0  0  0  0  0  0  0
    8.2514  -13.0400   19.2079 C   0  0  0  0  0  0  0  0  0  0  0  0
    7.5295  -13.9244   20.1869 C   0  0  2  0  0  0  0  0  0  0  0  0
    6.2096  -13.2686   20.5648 C   0  0  0  0  0  0  0  0  0  0  0  0
    8.3039  -14.1156   21.4661 C   0  0  0  0  0  0  0  0  0  0  0  0
    9.6136  -14.8518   21.2177 C   0  0  2  0  0  0  0  0  0  0  0  0
    9.3360  -16.1811   20.7697 N   0  0  0  0  0  0  0  0  0  0  0  0
   10.3784  -14.8156   22.4848 C   0  0  0  0  0  0  0  0  0  0  0  0
   10.7816  -13.7111   22.9118 O   0  0  0  0  0  0  0  0  0  0  0  0
   10.4116  -15.1951   30.9866 O   0  0  0  0  0  0  0  0  0  0  0  0
   10.2383  -15.3194   29.6271 C   0  0  0  0  0  0  0  0  0  0  0  0
    9.9564  -14.2138   28.8761 C   0  0  0  0  0  0  0  0  0  0  0  0
    9.7722  -14.2631   27.5232 C   0  0  0  0  0  0  0  0  0  0  0  0
    9.8671  -15.4731   26.8398 C   0  0  0  0  0  0  0  0  0  0  0  0
    9.6423  -15.5229   25.3897 C   0  0  0  0  0  0  0  0  0  0  0  0
   10.8811  -15.9748   24.6821 C   0  0  2  0  0  0  0  0  0  0  0  0
   10.6685  -15.9821   23.2272 N   0  0  0  0  0  0  0  0  0  0  0  0
   11.2701  -17.3151   25.1214 C   0  0  0  0  0  0  0  0  0  0  0  0
   10.8221  -18.4965   24.5585 O   0  0  0  0  0  0  0  0  0  0  0  0
   10.1504  -16.5842   27.5972 C   0  0  0  0  0  0  0  0  0  0  0  0
   10.3337  -16.5230   28.9561 C   0  0  0  0  0  0  0  0  0  0  0  0
   12.0831  -17.4395   26.0998 O   0  0  0  0  0  0  0  0  0  0  0  0
  1  2  1  0
  2  4  1  0
  3  2  2  0
  4  5  1  0
  5  6  1  0
  6  7  1  6
  6  8  1  0
  8  9  2  0
 11 10  1  6
 12 11  1  0
 13 11  1  0
 14 13  1  1
 15  8  1  0
 15 14  1  0
 16 25  1  0
 16 14  1  0
 17 16  2  0
 19 18  1  0
 20 19  2  0
 21 20  1  0
 22 21  2  0
 22 28  1  0
 23 22  1  0
 24 23  1  1
 24 26  1  0
 24 25  1  0
 26 27  1  0
 28 29  2  0
 29 19  1  0
 30 26  2  0
M  END
$$$$
