QLY.pdb
     RDKit          3D

 30 30  0  0  1  0  0  0  0  0999 V2000
    8.9462  -16.2465   16.3951 N   0  0  0  0  0  0  0  0  0  0  0  0
    7.9322  -17.1744   16.8268 C   0  0  0  0  0  0  0  0  0  0  0  0
    7.2434  -17.7231   15.9588 O   0  0  0  0  0  0  0  0  0  0  0  0
    7.7166  -17.4711   18.2546 C   0  0  0  0  0  0  0  0  0  0  0  0
    8.5388  -16.6379   19.1561 C   0  0  0  0  0  0  0  0  0  0  0  0
    8.5224  -16.9584   20.6067 C   0  0  2  0  0  0  0  0  0  0  0  0
    7.3718  -17.6641   21.0956 N   0  0  0  0  0  0  0  0  0  0  0  0
    8.7428  -15.7505   21.4607 C   0  0  0  0  0  0  0  0  0  0  0  0
    9.7108  -15.0024   21.1901 O   0  0  0  0  0  0  0  0  0  0  0  0
    6.1222  -13.1021   26.5010 C   0  0  0  0  0  0  0  0  0  0  0  0
    7.1746  -13.1138   25.4267 C   0  0  2  0  0  0  0  0  0  0  0  0
    7.0746  -11.8257   24.6231 C   0  0  0  0  0  0  0  0  0  0  0  0
    6.9884  -14.2505   24.4540 C   0  0  0  0  0  0  0  0  0  0  0  0
    8.1121  -14.2925   23.4272 C   0  0  2  0  0  0  0  0  0  0  0  0
    7.9192  -15.4084   22.5543 N   0  0  0  0  0  0  0  0  0  0  0  0
    9.3851  -14.3594   24.1800 C   0  0  0  0  0  0  0  0  0  0  0  0
    9.9126  -13.2922   24.5644 O   0  0  0  0  0  0  0  0  0  0  0  0
   11.8834  -16.2579   32.0098 O   0  0  0  0  0  0  0  0  0  0  0  0
   11.3215  -16.1933   30.7552 C   0  0  0  0  0  0  0  0  0  0  0  0
   11.1804  -14.9832   30.1375 C   0  0  0  0  0  0  0  0  0  0  0  0
   10.6322  -14.8444   28.8938 C   0  0  0  0  0  0  0  0  0  0  0  0
   10.1845  -15.9597   28.1895 C   0  0  0  0  0  0  0  0  0  0  0  0
    9.5726  -15.8006   26.8644 C   0  0  0  0  0  0  0  0  0  0  0  0
   10.6141  -15.8804   25.7927 C   0  0  2  0  0  0  0  0  0  0  0  0
   10.0240  -15.5835   24.4790 N   0  0  0  0  0  0  0  0  0  0  0  0
   11.2244  -17.2097   25.7601 C   0  0  0  0  0  0  0  0  0  0  0  0
   12.4271  -17.5462   26.3547 O   0  0  0  0  0  0  0  0  0  0  0  0
   10.3271  -17.1760   28.8128 C   0  0  0  0  0  0  0  0  0  0  0  0
   10.8796  -17.3037   30.0628 C   0  0  0  0  0  0  0  0  0  0  0  0
   10.6275  -18.1552   25.1407 O   0  0  0  0  0  0  0  0  0  0  0  0
  1  2  1  0
  2  4  1  0
  3  2  2  0
  4  5  1  0
  5  6  1  0
  6  7  1  1
  6  8  1  0
  8  9  2  0
 11 10  1  1
 12 11  1  0
 13 11  1  0
 14 13  1  1
 15  8  1  0
 15 14  1  0
 16 25  1  0
 16 14  1  0
 17 16  2  0
 19 18  1  0
 20 19  2  0
 21 20  1  0
 22 21  2  0
 22 28  1  0
 23 22  1  0
 24 23  1  1
 24 26  1  0
 24 25  1  0
 26 27  1  0
 28 29  2  0
 29 19  1  0
 30 26  2  0
M  END
$$$$
