QLY.pdb
     RDKit          3D

 30 30  0  0  1  0  0  0  0  0999 V2000
   14.8401  -17.7322   13.9390 N   0  0  0  0  0  0  0  0  0  0  0  0
   14.0367  -17.1554   12.8914 C   0  0  0  0  0  0  0  0  0  0  0  0
   14.5156  -17.1139   11.7521 O   0  0  0  0  0  0  0  0  0  0  0  0
   12.6844  -16.6322   13.1567 C   0  0  0  0  0  0  0  0  0  0  0  0
   12.1231  -17.0873   14.4454 C   0  0  0  0  0  0  0  0  0  0  0  0
   10.7423  -16.6618   14.7914 C   0  0  2  0  0  0  0  0  0  0  0  0
    9.9851  -16.0289   13.7489 N   0  0  0  0  0  0  0  0  0  0  0  0
   10.7008  -15.7941   16.0089 C   0  0  0  0  0  0  0  0  0  0  0  0
   11.7102  -15.1024   16.2780 O   0  0  0  0  0  0  0  0  0  0  0  0
    6.5504  -13.9739   20.3172 C   0  0  0  0  0  0  0  0  0  0  0  0
    7.9332  -13.9326   19.7272 C   0  0  2  0  0  0  0  0  0  0  0  0
    8.2354  -12.5113   19.2759 C   0  0  0  0  0  0  0  0  0  0  0  0
    8.0642  -14.8138   18.5110 C   0  0  0  0  0  0  0  0  0  0  0  0
    9.5175  -14.9482   18.0765 C   0  0  2  0  0  0  0  0  0  0  0  0
    9.5860  -15.7130   16.8703 N   0  0  0  0  0  0  0  0  0  0  0  0
   10.2502  -15.5731   19.2009 C   0  0  0  0  0  0  0  0  0  0  0  0
   10.0884  -16.7943   19.4187 O   0  0  0  0  0  0  0  0  0  0  0  0
   16.7575  -15.1289   16.9477 O   0  0  0  0  0  0  0  0  0  0  0  0
   15.9129  -15.0509   18.0313 C   0  0  0  0  0  0  0  0  0  0  0  0
   14.8122  -14.2439   17.9757 C   0  0  0  0  0  0  0  0  0  0  0  0
   13.9314  -14.1179   19.0125 C   0  0  0  0  0  0  0  0  0  0  0  0
   14.1263  -14.8254   20.1965 C   0  0  0  0  0  0  0  0  0  0  0  0
   13.1902  -14.6653   21.3161 C   0  0  0  0  0  0  0  0  0  0  0  0
   11.9481  -15.4661   21.0799 C   0  0  2  0  0  0  0  0  0  0  0  0
   11.1241  -14.8405   20.0350 N   0  0  0  0  0  0  0  0  0  0  0  0
   11.1642  -15.5829   22.3096 C   0  0  0  0  0  0  0  0  0  0  0  0
   11.5779  -16.2369   23.4561 O   0  0  0  0  0  0  0  0  0  0  0  0
   15.2343  -15.6365   20.2505 C   0  0  0  0  0  0  0  0  0  0  0  0
   16.1128  -15.7555   19.2024 C   0  0  0  0  0  0  0  0  0  0  0  0
   10.0021  -15.0531   22.3614 O   0  0  0  0  0  0  0  0  0  0  0  0
  1  2  1  0
  2  4  1  0
  3  2  2  0
  4  5  1  0
  5  6  1  0
  6  7  1  6
  6  8  1  0
  8  9  2  0
 11 10  1  6
 12 11  1  0
 13 11  1  0
 14 13  1  1
 15  8  1  0
 15 14  1  0
 16 25  1  0
 16 14  1  0
 17 16  2  0
 19 18  1  0
 20 19  2  0
 21 20  1  0
 22 21  2  0
 22 28  1  0
 23 22  1  0
 24 23  1  1
 24 26  1  0
 24 25  1  0
 26 27  1  0
 28 29  2  0
 29 19  1  0
 30 26  2  0
M  END
$$$$
