QLY.pdb
     RDKit          3D

 30 30  0  0  1  0  0  0  0  0999 V2000
   11.8460  -18.4760   16.5653 N   0  0  0  0  0  0  0  0  0  0  0  0
   10.7797  -19.4264   16.7529 C   0  0  0  0  0  0  0  0  0  0  0  0
   10.7356  -20.4028   15.9955 O   0  0  0  0  0  0  0  0  0  0  0  0
    9.7703  -19.2528   17.8131 C   0  0  0  0  0  0  0  0  0  0  0  0
    9.9950  -18.0521   18.6443 C   0  0  0  0  0  0  0  0  0  0  0  0
    9.8343  -18.1847   20.1152 C   0  0  2  0  0  0  0  0  0  0  0  0
    8.5800  -18.7058   20.5799 N   0  0  0  0  0  0  0  0  0  0  0  0
   10.1201  -16.9069   20.8380 C   0  0  0  0  0  0  0  0  0  0  0  0
   11.3165  -16.5675   20.9906 O   0  0  0  0  0  0  0  0  0  0  0  0
    9.0367  -12.6616   19.8750 C   0  0  0  0  0  0  0  0  0  0  0  0
    7.9058  -13.5162   20.3774 C   0  0  2  0  0  0  0  0  0  0  0  0
    6.6144  -12.7143   20.3133 C   0  0  0  0  0  0  0  0  0  0  0  0
    8.0931  -13.9276   21.8156 C   0  0  0  0  0  0  0  0  0  0  0  0
    9.3305  -14.7984   21.9876 C   0  0  2  0  0  0  0  0  0  0  0  0
    9.1148  -16.0635   21.3571 N   0  0  0  0  0  0  0  0  0  0  0  0
    9.5823  -14.9116   23.4420 C   0  0  0  0  0  0  0  0  0  0  0  0
    9.8932  -13.8814   24.0799 O   0  0  0  0  0  0  0  0  0  0  0  0
    5.8021  -11.3276   26.7341 O   0  0  0  0  0  0  0  0  0  0  0  0
    6.4610  -12.5321   26.6394 C   0  0  0  0  0  0  0  0  0  0  0  0
    5.8462  -13.5956   26.0419 C   0  0  0  0  0  0  0  0  0  0  0  0
    6.4398  -14.8194   25.9130 C   0  0  0  0  0  0  0  0  0  0  0  0
    7.7275  -15.0358   26.3980 C   0  0  0  0  0  0  0  0  0  0  0  0
    8.3492  -16.3605   26.2794 C   0  0  0  0  0  0  0  0  0  0  0  0
    9.6722  -16.2589   25.5871 C   0  0  2  0  0  0  0  0  0  0  0  0
    9.4841  -16.1396   24.1337 N   0  0  0  0  0  0  0  0  0  0  0  0
   10.4993  -17.4311   25.8738 C   0  0  0  0  0  0  0  0  0  0  0  0
   11.0489  -18.2679   24.9193 O   0  0  0  0  0  0  0  0  0  0  0  0
    8.3441  -13.9648   26.9990 C   0  0  0  0  0  0  0  0  0  0  0  0
    7.7381  -12.7394   27.1229 C   0  0  0  0  0  0  0  0  0  0  0  0
   10.7507  -17.7351   27.0896 O   0  0  0  0  0  0  0  0  0  0  0  0
  1  2  1  0
  2  4  1  0
  3  2  2  0
  4  5  1  0
  5  6  1  0
  6  7  1  6
  6  8  1  0
  8  9  2  0
 11 10  1  1
 12 11  1  0
 13 11  1  0
 14 13  1  1
 15  8  1  0
 15 14  1  0
 16 25  1  0
 16 14  1  0
 17 16  2  0
 19 18  1  0
 20 19  2  0
 21 20  1  0
 22 21  2  0
 22 28  1  0
 23 22  1  0
 24 23  1  1
 24 26  1  0
 24 25  1  0
 26 27  1  0
 28 29  2  0
 29 19  1  0
 30 26  2  0
M  END
$$$$
