QLY.pdb
     RDKit          3D

 30 30  0  0  1  0  0  0  0  0999 V2000
   12.3334  -18.1328   16.4271 N   0  0  0  0  0  0  0  0  0  0  0  0
   11.0534  -18.7771   16.5757 C   0  0  0  0  0  0  0  0  0  0  0  0
   10.5441  -19.2894   15.5721 O   0  0  0  0  0  0  0  0  0  0  0  0
   10.3656  -18.8335   17.8783 C   0  0  0  0  0  0  0  0  0  0  0  0
   11.0845  -18.1161   18.9514 C   0  0  0  0  0  0  0  0  0  0  0  0
   10.4615  -18.0765   20.2995 C   0  0  2  0  0  0  0  0  0  0  0  0
    9.1117  -18.5551   20.3976 N   0  0  0  0  0  0  0  0  0  0  0  0
   10.5356  -16.7189   20.9227 C   0  0  0  0  0  0  0  0  0  0  0  0
   11.6587  -16.1718   21.0189 O   0  0  0  0  0  0  0  0  0  0  0  0
    9.1157  -12.8371   19.7970 C   0  0  0  0  0  0  0  0  0  0  0  0
    8.0056  -13.7087   20.3162 C   0  0  2  0  0  0  0  0  0  0  0  0
    6.6814  -12.9811   20.1375 C   0  0  0  0  0  0  0  0  0  0  0  0
    8.1474  -14.0016   21.7883 C   0  0  0  0  0  0  0  0  0  0  0  0
    9.4343  -14.7609   22.0821 C   0  0  2  0  0  0  0  0  0  0  0  0
    9.4088  -16.0217   21.4080 N   0  0  0  0  0  0  0  0  0  0  0  0
    9.5337  -14.8927   23.5533 C   0  0  0  0  0  0  0  0  0  0  0  0
    9.7318  -13.8638   24.2366 O   0  0  0  0  0  0  0  0  0  0  0  0
    5.6953  -11.3005   26.6190 O   0  0  0  0  0  0  0  0  0  0  0  0
    6.2337  -12.5615   26.5022 C   0  0  0  0  0  0  0  0  0  0  0  0
    7.4220  -12.8499   27.1110 C   0  0  0  0  0  0  0  0  0  0  0  0
    8.0142  -14.0790   27.0377 C   0  0  0  0  0  0  0  0  0  0  0  0
    7.4143  -15.1118   26.3211 C   0  0  0  0  0  0  0  0  0  0  0  0
    8.0691  -16.4224   26.2247 C   0  0  0  0  0  0  0  0  0  0  0  0
    9.4534  -16.2778   25.6745 C   0  0  2  0  0  0  0  0  0  0  0  0
    9.4130  -16.1370   24.2114 N   0  0  0  0  0  0  0  0  0  0  0  0
   10.2755  -17.4355   26.0271 C   0  0  0  0  0  0  0  0  0  0  0  0
   10.5931  -17.8208   27.3170 O   0  0  0  0  0  0  0  0  0  0  0  0
    6.2191  -14.8196   25.7091 C   0  0  0  0  0  0  0  0  0  0  0  0
    5.6330  -13.5809   25.7896 C   0  0  0  0  0  0  0  0  0  0  0  0
   10.7549  -18.1673   25.0951 O   0  0  0  0  0  0  0  0  0  0  0  0
  1  2  1  0
  2  4  1  0
  3  2  2  0
  4  5  1  0
  5  6  1  0
  6  7  1  6
  6  8  1  0
  8  9  2  0
 11 10  1  1
 12 11  1  0
 13 11  1  0
 14 13  1  1
 15  8  1  0
 15 14  1  0
 16 25  1  0
 16 14  1  0
 17 16  2  0
 19 18  1  0
 20 19  2  0
 21 20  1  0
 22 21  2  0
 22 28  1  0
 23 22  1  0
 24 23  1  6
 24 26  1  0
 24 25  1  0
 26 27  1  0
 28 29  2  0
 29 19  1  0
 30 26  2  0
M  END
$$$$
