QLY.pdb
     RDKit          3D

 30 30  0  0  1  0  0  0  0  0999 V2000
    9.6521  -12.8589   16.9832 N   0  0  0  0  0  0  0  0  0  0  0  0
    8.3363  -13.3483   16.6594 C   0  0  0  0  0  0  0  0  0  0  0  0
    8.0754  -13.5615   15.4696 O   0  0  0  0  0  0  0  0  0  0  0  0
    7.3268  -13.5945   17.7050 C   0  0  0  0  0  0  0  0  0  0  0  0
    7.8722  -13.5140   19.0757 C   0  0  0  0  0  0  0  0  0  0  0  0
    7.9903  -14.7750   19.8522 C   0  0  2  0  0  0  0  0  0  0  0  0
    6.7808  -15.5221   20.0517 N   0  0  0  0  0  0  0  0  0  0  0  0
    8.6511  -14.5692   21.1780 C   0  0  0  0  0  0  0  0  0  0  0  0
    9.8147  -14.1047   21.1941 O   0  0  0  0  0  0  0  0  0  0  0  0
    7.5642  -12.1052   24.8817 C   0  0  0  0  0  0  0  0  0  0  0  0
    6.7028  -13.3183   24.6621 C   0  0  2  0  0  0  0  0  0  0  0  0
    5.6454  -13.3778   25.7545 C   0  0  0  0  0  0  0  0  0  0  0  0
    7.4887  -14.6022   24.7450 C   0  0  0  0  0  0  0  0  0  0  0  0
    8.5999  -14.6414   23.7045 C   0  0  2  0  0  0  0  0  0  0  0  0
    8.0344  -14.8699   22.4112 N   0  0  0  0  0  0  0  0  0  0  0  0
    9.5449  -15.7028   24.1192 C   0  0  0  0  0  0  0  0  0  0  0  0
    9.4555  -16.8297   23.5836 O   0  0  0  0  0  0  0  0  0  0  0  0
    9.9896  -15.1742   31.4512 O   0  0  0  0  0  0  0  0  0  0  0  0
   10.5855  -15.3215   30.2195 C   0  0  0  0  0  0  0  0  0  0  0  0
   11.2439  -16.4801   29.9195 C   0  0  0  0  0  0  0  0  0  0  0  0
   11.8575  -16.6950   28.7179 C   0  0  0  0  0  0  0  0  0  0  0  0
   11.8352  -15.7164   27.7269 C   0  0  0  0  0  0  0  0  0  0  0  0
   12.5190  -15.9438   26.4478 C   0  0  0  0  0  0  0  0  0  0  0  0
   11.5646  -16.4903   25.4327 C   0  0  2  0  0  0  0  0  0  0  0  0
   10.5423  -15.4883   25.0966 N   0  0  0  0  0  0  0  0  0  0  0  0
   10.9111  -17.6998   25.9332 C   0  0  0  0  0  0  0  0  0  0  0  0
    9.5722  -17.7995   26.2655 O   0  0  0  0  0  0  0  0  0  0  0  0
   11.1726  -14.5515   28.0308 C   0  0  0  0  0  0  0  0  0  0  0  0
   10.5593  -14.3464   29.2415 C   0  0  0  0  0  0  0  0  0  0  0  0
   11.6027  -18.7634   26.0893 O   0  0  0  0  0  0  0  0  0  0  0  0
  1  2  1  0
  2  4  1  0
  3  2  2  0
  4  5  1  0
  5  6  1  0
  6  7  1  1
  6  8  1  0
  8  9  2  0
 11 10  1  1
 12 11  1  0
 13 11  1  0
 14 13  1  1
 15  8  1  0
 15 14  1  0
 16 25  1  0
 16 14  1  0
 17 16  2  0
 19 18  1  0
 20 19  2  0
 21 20  1  0
 22 21  2  0
 22 28  1  0
 23 22  1  0
 24 23  1  1
 24 26  1  0
 24 25  1  0
 26 27  1  0
 28 29  2  0
 29 19  1  0
 30 26  2  0
M  END
$$$$
