QLY.pdb
     RDKit          3D

 30 30  0  0  1  0  0  0  0  0999 V2000
    9.0074  -17.1862   16.6335 N   0  0  0  0  0  0  0  0  0  0  0  0
    8.4800  -18.3825   17.2387 C   0  0  0  0  0  0  0  0  0  0  0  0
    8.0108  -19.2494   16.4921 O   0  0  0  0  0  0  0  0  0  0  0  0
    8.4974  -18.5794   18.6994 C   0  0  0  0  0  0  0  0  0  0  0  0
    9.0297  -17.4172   19.4404 C   0  0  0  0  0  0  0  0  0  0  0  0
    9.1273  -17.5208   20.9192 C   0  0  2  0  0  0  0  0  0  0  0  0
    8.1476  -18.3428   21.5715 N   0  0  0  0  0  0  0  0  0  0  0  0
    9.1499  -16.1817   21.5849 C   0  0  0  0  0  0  0  0  0  0  0  0
   10.0079  -15.3488   21.2110 O   0  0  0  0  0  0  0  0  0  0  0  0
    5.9991  -13.2057   26.1062 C   0  0  0  0  0  0  0  0  0  0  0  0
    7.1102  -13.2389   25.0932 C   0  0  2  0  0  0  0  0  0  0  0  0
    6.9579  -12.0520   24.1536 C   0  0  0  0  0  0  0  0  0  0  0  0
    7.0700  -14.4802   24.2386 C   0  0  0  0  0  0  0  0  0  0  0  0
    8.3048  -14.5854   23.3536 C   0  0  2  0  0  0  0  0  0  0  0  0
    8.2569  -15.8064   22.6110 N   0  0  0  0  0  0  0  0  0  0  0  0
    9.4848  -14.4944   24.2431 C   0  0  0  0  0  0  0  0  0  0  0  0
    9.7894  -13.3810   24.7251 O   0  0  0  0  0  0  0  0  0  0  0  0
   11.8289  -16.4571   32.1311 O   0  0  0  0  0  0  0  0  0  0  0  0
   11.3136  -16.2638   30.8698 C   0  0  0  0  0  0  0  0  0  0  0  0
   10.8454  -17.3315   30.1581 C   0  0  0  0  0  0  0  0  0  0  0  0
   10.3209  -17.2136   28.9021 C   0  0  0  0  0  0  0  0  0  0  0  0
   10.2411  -15.9685   28.2827 C   0  0  0  0  0  0  0  0  0  0  0  0
    9.7004  -15.8526   26.9226 C   0  0  0  0  0  0  0  0  0  0  0  0
   10.8072  -15.8653   25.9153 C   0  0  2  0  0  0  0  0  0  0  0  0
   10.2773  -15.6185   24.5661 N   0  0  0  0  0  0  0  0  0  0  0  0
   11.5097  -17.1486   25.9324 C   0  0  0  0  0  0  0  0  0  0  0  0
   10.9653  -18.3573   25.5375 O   0  0  0  0  0  0  0  0  0  0  0  0
   10.7129  -14.8957   29.0002 C   0  0  0  0  0  0  0  0  0  0  0  0
   11.2378  -15.0258   30.2618 C   0  0  0  0  0  0  0  0  0  0  0  0
   12.7203  -17.1917   26.3402 O   0  0  0  0  0  0  0  0  0  0  0  0
  1  2  1  0
  2  4  1  0
  3  2  2  0
  4  5  1  0
  5  6  1  0
  6  7  1  1
  6  8  1  0
  8  9  2  0
 11 10  1  1
 12 11  1  0
 13 11  1  0
 14 13  1  1
 15  8  1  0
 15 14  1  0
 16 25  1  0
 16 14  1  0
 17 16  2  0
 19 18  1  0
 20 19  2  0
 21 20  1  0
 22 21  2  0
 22 28  1  0
 23 22  1  0
 24 23  1  1
 24 26  1  0
 24 25  1  0
 26 27  1  0
 28 29  2  0
 29 19  1  0
 30 26  2  0
M  END
$$$$
