QLY.pdb
     RDKit          3D

 30 30  0  0  1  0  0  0  0  0999 V2000
   11.7458  -17.8819   15.0554 N   0  0  0  0  0  0  0  0  0  0  0  0
   10.6629  -18.8315   15.0913 C   0  0  0  0  0  0  0  0  0  0  0  0
   10.6566  -19.7334   14.2454 O   0  0  0  0  0  0  0  0  0  0  0  0
    9.5935  -18.7431   16.1021 C   0  0  0  0  0  0  0  0  0  0  0  0
    9.7975  -17.6507   17.0758 C   0  0  0  0  0  0  0  0  0  0  0  0
    9.7863  -17.9963   18.5207 C   0  0  2  0  0  0  0  0  0  0  0  0
    8.6028  -18.6384   19.0184 N   0  0  0  0  0  0  0  0  0  0  0  0
   10.0961  -16.8202   19.3912 C   0  0  0  0  0  0  0  0  0  0  0  0
   11.2680  -16.3768   19.3927 O   0  0  0  0  0  0  0  0  0  0  0  0
    8.4602  -12.6354   19.6917 C   0  0  0  0  0  0  0  0  0  0  0  0
    7.5619  -13.7236   20.2119 C   0  0  2  0  0  0  0  0  0  0  0  0
    6.2230  -13.1150   20.6014 C   0  0  0  0  0  0  0  0  0  0  0  0
    8.1175  -14.3837   21.4482 C   0  0  0  0  0  0  0  0  0  0  0  0
    9.4070  -15.1348   21.1449 C   0  0  2  0  0  0  0  0  0  0  0  0
    9.1396  -16.1837   20.2105 N   0  0  0  0  0  0  0  0  0  0  0  0
    9.9342  -15.6303   22.4365 C   0  0  0  0  0  0  0  0  0  0  0  0
    9.1462  -15.7509   23.4005 O   0  0  0  0  0  0  0  0  0  0  0  0
   10.8594  -19.7693   29.2709 O   0  0  0  0  0  0  0  0  0  0  0  0
   11.0723  -19.3236   27.9865 C   0  0  0  0  0  0  0  0  0  0  0  0
   10.0487  -19.3480   27.0824 C   0  0  0  0  0  0  0  0  0  0  0  0
   10.1882  -18.9215   25.7919 C   0  0  0  0  0  0  0  0  0  0  0  0
   11.4105  -18.4329   25.3364 C   0  0  0  0  0  0  0  0  0  0  0  0
   11.5603  -18.0008   23.9413 C   0  0  0  0  0  0  0  0  0  0  0  0
   11.8194  -16.5283   23.8733 C   0  0  2  0  0  0  0  0  0  0  0  0
   11.2932  -15.9711   22.6184 N   0  0  0  0  0  0  0  0  0  0  0  0
   13.2527  -16.2489   23.9638 C   0  0  0  0  0  0  0  0  0  0  0  0
   13.9437  -16.0156   25.1391 O   0  0  0  0  0  0  0  0  0  0  0  0
   12.4391  -18.4096   26.2474 C   0  0  0  0  0  0  0  0  0  0  0  0
   12.2875  -18.8405   27.5418 C   0  0  0  0  0  0  0  0  0  0  0  0
   13.9490  -16.2074   22.8927 O   0  0  0  0  0  0  0  0  0  0  0  0
  1  2  1  0
  2  4  1  0
  3  2  2  0
  4  5  1  0
  5  6  1  0
  6  7  1  1
  6  8  1  0
  8  9  2  0
 11 10  1  1
 12 11  1  0
 13 11  1  0
 14 13  1  1
 15  8  1  0
 15 14  1  0
 16 25  1  0
 16 14  1  0
 17 16  2  0
 19 18  1  0
 20 19  2  0
 21 20  1  0
 22 21  2  0
 22 28  1  0
 23 22  1  0
 24 23  1  6
 24 26  1  0
 24 25  1  0
 26 27  1  0
 28 29  2  0
 29 19  1  0
 30 26  2  0
M  END
$$$$
