QLY.pdb
     RDKit          3D

 30 30  0  0  1  0  0  0  0  0999 V2000
   12.3127  -20.2085   16.2539 N   0  0  0  0  0  0  0  0  0  0  0  0
   11.0956  -19.4967   16.5502 C   0  0  0  0  0  0  0  0  0  0  0  0
   10.6099  -18.7872   15.6615 O   0  0  0  0  0  0  0  0  0  0  0  0
   10.4394  -19.6064   17.8656 C   0  0  0  0  0  0  0  0  0  0  0  0
   10.5031  -18.3605   18.6572 C   0  0  0  0  0  0  0  0  0  0  0  0
    9.9027  -18.3686   20.0160 C   0  0  2  0  0  0  0  0  0  0  0  0
    8.5107  -18.7093   20.1012 N   0  0  0  0  0  0  0  0  0  0  0  0
   10.1275  -17.0833   20.7471 C   0  0  0  0  0  0  0  0  0  0  0  0
   11.3075  -16.7373   20.9876 O   0  0  0  0  0  0  0  0  0  0  0  0
    8.6972  -13.4597   19.2648 C   0  0  0  0  0  0  0  0  0  0  0  0
    7.6356  -14.0970   20.1184 C   0  0  2  0  0  0  0  0  0  0  0  0
    6.3547  -13.2841   20.0027 C   0  0  0  0  0  0  0  0  0  0  0  0
    8.0095  -14.1171   21.5787 C   0  0  0  0  0  0  0  0  0  0  0  0
    9.2444  -14.9737   21.8241 C   0  0  2  0  0  0  0  0  0  0  0  0
    9.0823  -16.2400   21.1801 N   0  0  0  0  0  0  0  0  0  0  0  0
    9.4090  -15.0869   23.2911 C   0  0  0  0  0  0  0  0  0  0  0  0
    9.8179  -14.0912   23.9284 O   0  0  0  0  0  0  0  0  0  0  0  0
    6.7856  -10.7680   26.9976 O   0  0  0  0  0  0  0  0  0  0  0  0
    7.1253  -12.0877   26.8057 C   0  0  0  0  0  0  0  0  0  0  0  0
    6.2186  -12.9474   26.2538 C   0  0  0  0  0  0  0  0  0  0  0  0
    6.4873  -14.2689   26.0344 C   0  0  0  0  0  0  0  0  0  0  0  0
    7.7275  -14.8045   26.3736 C   0  0  0  0  0  0  0  0  0  0  0  0
    8.0004  -16.2311   26.1592 C   0  0  0  0  0  0  0  0  0  0  0  0
    9.3042  -16.4146   25.4477 C   0  0  2  0  0  0  0  0  0  0  0  0
    9.1210  -16.2774   23.9952 N   0  0  0  0  0  0  0  0  0  0  0  0
    9.8754  -17.7290   25.7416 C   0  0  0  0  0  0  0  0  0  0  0  0
   10.2080  -18.1861   27.0041 O   0  0  0  0  0  0  0  0  0  0  0  0
    8.6382  -13.9381   26.9290 C   0  0  0  0  0  0  0  0  0  0  0  0
    8.3574  -12.6119   27.1448 C   0  0  0  0  0  0  0  0  0  0  0  0
   10.0992  -18.5412   24.7803 O   0  0  0  0  0  0  0  0  0  0  0  0
  1  2  1  0
  2  4  1  0
  3  2  2  0
  4  5  1  0
  5  6  1  0
  6  7  1  6
  6  8  1  0
  8  9  2  0
 11 10  1  6
 12 11  1  0
 13 11  1  0
 14 13  1  1
 15  8  1  0
 15 14  1  0
 16 25  1  0
 16 14  1  0
 17 16  2  0
 19 18  1  0
 20 19  2  0
 21 20  1  0
 22 21  2  0
 22 28  1  0
 23 22  1  0
 24 23  1  1
 24 26  1  0
 24 25  1  0
 26 27  1  0
 28 29  2  0
 29 19  1  0
 30 26  2  0
M  END
$$$$
