QLY.pdb
     RDKit          3D

 30 30  0  0  1  0  0  0  0  0999 V2000
    8.0635  -18.6354   16.4527 N   0  0  0  0  0  0  0  0  0  0  0  0
    7.4582  -19.2316   17.6162 C   0  0  0  0  0  0  0  0  0  0  0  0
    7.1606  -20.4307   17.5627 O   0  0  0  0  0  0  0  0  0  0  0  0
    7.2010  -18.4482   18.8381 C   0  0  0  0  0  0  0  0  0  0  0  0
    8.4274  -17.8920   19.4458 C   0  0  0  0  0  0  0  0  0  0  0  0
    8.4873  -17.7956   20.9271 C   0  0  2  0  0  0  0  0  0  0  0  0
    7.2678  -18.0581   21.6376 N   0  0  0  0  0  0  0  0  0  0  0  0
    9.0410  -16.4864   21.3919 C   0  0  0  0  0  0  0  0  0  0  0  0
   10.0397  -16.0205   20.7958 O   0  0  0  0  0  0  0  0  0  0  0  0
    7.0388  -12.5006   22.0750 C   0  0  0  0  0  0  0  0  0  0  0  0
    6.7517  -13.4777   23.1816 C   0  0  2  0  0  0  0  0  0  0  0  0
    5.8358  -12.8155   24.2001 C   0  0  0  0  0  0  0  0  0  0  0  0
    7.9996  -13.8904   23.9200 C   0  0  0  0  0  0  0  0  0  0  0  0
    9.0190  -14.5194   22.9798 C   0  0  2  0  0  0  0  0  0  0  0  0
    8.4990  -15.7481   22.4655 N   0  0  0  0  0  0  0  0  0  0  0  0
   10.2691  -14.6979   23.7525 C   0  0  0  0  0  0  0  0  0  0  0  0
   10.9978  -13.7015   23.9549 O   0  0  0  0  0  0  0  0  0  0  0  0
   11.2898  -16.3739   32.0298 O   0  0  0  0  0  0  0  0  0  0  0  0
   10.9494  -16.2859   30.6993 C   0  0  0  0  0  0  0  0  0  0  0  0
   10.9334  -15.0668   30.0832 C   0  0  0  0  0  0  0  0  0  0  0  0
   10.6057  -14.9050   28.7668 C   0  0  0  0  0  0  0  0  0  0  0  0
   10.2666  -16.0045   27.9818 C   0  0  0  0  0  0  0  0  0  0  0  0
    9.8901  -15.8204   26.5746 C   0  0  0  0  0  0  0  0  0  0  0  0
   11.0382  -16.1584   25.6760 C   0  0  2  0  0  0  0  0  0  0  0  0
   10.6675  -15.9514   24.2683 N   0  0  0  0  0  0  0  0  0  0  0  0
   11.4557  -17.5475   25.8676 C   0  0  0  0  0  0  0  0  0  0  0  0
   10.7760  -18.6540   25.3913 O   0  0  0  0  0  0  0  0  0  0  0  0
   10.2829  -17.2299   28.6035 C   0  0  0  0  0  0  0  0  0  0  0  0
   10.6140  -17.3808   29.9270 C   0  0  0  0  0  0  0  0  0  0  0  0
   12.5252  -17.7927   26.5233 O   0  0  0  0  0  0  0  0  0  0  0  0
  1  2  1  0
  2  4  1  0
  3  2  2  0
  4  5  1  0
  5  6  1  0
  6  7  1  1
  6  8  1  0
  8  9  2  0
 11 10  1  6
 12 11  1  0
 13 11  1  0
 14 13  1  1
 15  8  1  0
 15 14  1  0
 16 25  1  0
 16 14  1  0
 17 16  2  0
 19 18  1  0
 20 19  2  0
 21 20  1  0
 22 21  2  0
 22 28  1  0
 23 22  1  0
 24 23  1  1
 24 26  1  0
 24 25  1  0
 26 27  1  0
 28 29  2  0
 29 19  1  0
 30 26  2  0
M  END
$$$$
