QLY.pdb
     RDKit          3D

 30 30  0  0  1  0  0  0  0  0999 V2000
    8.7858  -17.7572   17.5127 N   0  0  0  0  0  0  0  0  0  0  0  0
    7.5390  -17.5723   18.2106 C   0  0  0  0  0  0  0  0  0  0  0  0
    6.5175  -17.4036   17.5343 O   0  0  0  0  0  0  0  0  0  0  0  0
    7.4705  -17.5859   19.6830 C   0  0  0  0  0  0  0  0  0  0  0  0
    8.7942  -17.6995   20.3294 C   0  0  0  0  0  0  0  0  0  0  0  0
    8.8447  -17.7051   21.8142 C   0  0  2  0  0  0  0  0  0  0  0  0
    7.7993  -18.4204   22.4897 N   0  0  0  0  0  0  0  0  0  0  0  0
    8.9304  -16.3264   22.3875 C   0  0  0  0  0  0  0  0  0  0  0  0
    9.8363  -15.5673   21.9717 O   0  0  0  0  0  0  0  0  0  0  0  0
    5.8139  -12.8450   26.5661 C   0  0  0  0  0  0  0  0  0  0  0  0
    6.9122  -13.0004   25.5506 C   0  0  2  0  0  0  0  0  0  0  0  0
    6.7044  -11.9830   24.4385 C   0  0  0  0  0  0  0  0  0  0  0  0
    6.9062  -14.3618   24.9032 C   0  0  0  0  0  0  0  0  0  0  0  0
    8.0643  -14.5177   23.9267 C   0  0  2  0  0  0  0  0  0  0  0  0
    8.0459  -15.8351   23.3712 N   0  0  0  0  0  0  0  0  0  0  0  0
    9.3063  -14.2226   24.6765 C   0  0  0  0  0  0  0  0  0  0  0  0
    9.6728  -13.0317   24.7871 O   0  0  0  0  0  0  0  0  0  0  0  0
    9.7137  -18.5602   31.1048 O   0  0  0  0  0  0  0  0  0  0  0  0
    9.9692  -17.5743   30.1793 C   0  0  0  0  0  0  0  0  0  0  0  0
   10.9191  -16.6284   30.4417 C   0  0  0  0  0  0  0  0  0  0  0  0
   11.2247  -15.6219   29.5698 C   0  0  0  0  0  0  0  0  0  0  0  0
   10.5629  -15.5186   28.3484 C   0  0  0  0  0  0  0  0  0  0  0  0
   10.8780  -14.4194   27.4275 C   0  0  0  0  0  0  0  0  0  0  0  0
   11.2793  -14.9553   26.0890 C   0  0  2  0  0  0  0  0  0  0  0  0
   10.0907  -15.2366   25.2704 N   0  0  0  0  0  0  0  0  0  0  0  0
   12.0673  -16.1793   26.2351 C   0  0  0  0  0  0  0  0  0  0  0  0
   11.7169  -17.4154   25.7227 O   0  0  0  0  0  0  0  0  0  0  0  0
    9.6075  -16.4710   28.0865 C   0  0  0  0  0  0  0  0  0  0  0  0
    9.3087  -17.4781   28.9701 C   0  0  0  0  0  0  0  0  0  0  0  0
   13.1687  -16.1386   26.8826 O   0  0  0  0  0  0  0  0  0  0  0  0
  1  2  1  0
  2  4  1  0
  3  2  2  0
  4  5  1  0
  5  6  1  0
  6  7  1  1
  6  8  1  0
  8  9  2  0
 11 10  1  1
 12 11  1  0
 13 11  1  0
 14 13  1  1
 15  8  1  0
 15 14  1  0
 16 25  1  0
 16 14  1  0
 17 16  2  0
 19 18  1  0
 20 19  2  0
 21 20  1  0
 22 21  2  0
 22 28  1  0
 23 22  1  0
 24 23  1  1
 24 26  1  0
 24 25  1  0
 26 27  1  0
 28 29  2  0
 29 19  1  0
 30 26  2  0
M  END
$$$$
