QLY.pdb
     RDKit          3D

 30 30  0  0  1  0  0  0  0  0999 V2000
   13.5487  -18.0443   15.2004 N   0  0  0  0  0  0  0  0  0  0  0  0
   12.1937  -17.7341   15.5792 C   0  0  0  0  0  0  0  0  0  0  0  0
   11.5596  -16.9480   14.8659 O   0  0  0  0  0  0  0  0  0  0  0  0
   11.5716  -18.3320   16.7744 C   0  0  0  0  0  0  0  0  0  0  0  0
   11.2420  -17.3416   17.8201 C   0  0  0  0  0  0  0  0  0  0  0  0
   10.5458  -17.8246   19.0405 C   0  0  2  0  0  0  0  0  0  0  0  0
    9.2304  -18.3692   18.8564 N   0  0  0  0  0  0  0  0  0  0  0  0
   10.4886  -16.7849   20.1141 C   0  0  0  0  0  0  0  0  0  0  0  0
   11.5607  -16.4420   20.6643 O   0  0  0  0  0  0  0  0  0  0  0  0
    8.9192  -12.6527   19.8116 C   0  0  0  0  0  0  0  0  0  0  0  0
    7.8738  -13.7229   19.9652 C   0  0  2  0  0  0  0  0  0  0  0  0
    6.4971  -13.0956   19.8034 C   0  0  0  0  0  0  0  0  0  0  0  0
    7.9042  -14.3625   21.3300 C   0  0  0  0  0  0  0  0  0  0  0  0
    9.1864  -15.1560   21.5430 C   0  0  2  0  0  0  0  0  0  0  0  0
    9.2922  -16.1698   20.5402 N   0  0  0  0  0  0  0  0  0  0  0  0
    9.1339  -15.7039   22.9173 C   0  0  0  0  0  0  0  0  0  0  0  0
    8.3874  -16.6812   23.1463 O   0  0  0  0  0  0  0  0  0  0  0  0
    5.8526  -10.7827   26.5617 O   0  0  0  0  0  0  0  0  0  0  0  0
    6.5041  -11.9814   26.3814 C   0  0  0  0  0  0  0  0  0  0  0  0
    5.8435  -13.0326   25.8117 C   0  0  0  0  0  0  0  0  0  0  0  0
    6.4272  -14.2501   25.6023 C   0  0  0  0  0  0  0  0  0  0  0  0
    7.7519  -14.4724   25.9709 C   0  0  0  0  0  0  0  0  0  0  0  0
    8.3648  -15.7909   25.7669 C   0  0  0  0  0  0  0  0  0  0  0  0
    9.7985  -15.6459   25.3627 C   0  0  2  0  0  0  0  0  0  0  0  0
    9.8957  -15.1632   23.9772 N   0  0  0  0  0  0  0  0  0  0  0  0
   10.5027  -16.9228   25.4811 C   0  0  0  0  0  0  0  0  0  0  0  0
   11.1720  -17.5592   24.4514 O   0  0  0  0  0  0  0  0  0  0  0  0
    8.4146  -13.4137   26.5441 C   0  0  0  0  0  0  0  0  0  0  0  0
    7.8182  -12.1946   26.7496 C   0  0  0  0  0  0  0  0  0  0  0  0
   10.5180  -17.5246   26.6087 O   0  0  0  0  0  0  0  0  0  0  0  0
  1  2  1  0
  2  4  1  0
  3  2  2  0
  4  5  1  0
  5  6  1  0
  6  7  1  6
  6  8  1  0
  8  9  2  0
 11 10  1  1
 12 11  1  0
 13 11  1  0
 14 13  1  6
 15  8  1  0
 15 14  1  0
 16 25  1  0
 16 14  1  0
 17 16  2  0
 19 18  1  0
 20 19  2  0
 21 20  1  0
 22 21  2  0
 22 28  1  0
 23 22  1  0
 24 23  1  6
 24 26  1  0
 24 25  1  0
 26 27  1  0
 28 29  2  0
 29 19  1  0
 30 26  2  0
M  END
$$$$
