QLY.pdb
     RDKit          3D

 30 30  0  0  1  0  0  0  0  0999 V2000
   12.3752  -16.0449   14.6014 N   0  0  0  0  0  0  0  0  0  0  0  0
   11.8362  -17.3665   14.7977 C   0  0  0  0  0  0  0  0  0  0  0  0
   12.0506  -18.2140   13.9231 O   0  0  0  0  0  0  0  0  0  0  0  0
   11.0560  -17.7098   16.0003 C   0  0  0  0  0  0  0  0  0  0  0  0
   11.8879  -17.8758   17.2100 C   0  0  0  0  0  0  0  0  0  0  0  0
   11.1996  -18.1810   18.4907 C   0  0  2  0  0  0  0  0  0  0  0  0
    9.9976  -18.9611   18.4038 N   0  0  0  0  0  0  0  0  0  0  0  0
   10.9164  -16.9514   19.2936 C   0  0  0  0  0  0  0  0  0  0  0  0
   11.8786  -16.2101   19.6011 O   0  0  0  0  0  0  0  0  0  0  0  0
    8.3073  -12.8881   21.5949 C   0  0  0  0  0  0  0  0  0  0  0  0
    7.9808  -13.3517   20.2019 C   0  0  2  0  0  0  0  0  0  0  0  0
    6.5802  -12.8802   19.8399 C   0  0  0  0  0  0  0  0  0  0  0  0
    7.9797  -14.8545   20.0833 C   0  0  0  0  0  0  0  0  0  0  0  0
    9.3072  -15.4483   20.5354 C   0  0  2  0  0  0  0  0  0  0  0  0
    9.6240  -16.5817   19.7232 N   0  0  0  0  0  0  0  0  0  0  0  0
    9.1652  -15.7854   21.9700 C   0  0  0  0  0  0  0  0  0  0  0  0
    8.2488  -16.5630   22.3166 O   0  0  0  0  0  0  0  0  0  0  0  0
   10.5821  -15.7168   30.6742 O   0  0  0  0  0  0  0  0  0  0  0  0
   10.4492  -15.3417   29.3569 C   0  0  0  0  0  0  0  0  0  0  0  0
   10.9149  -16.1617   28.3686 C   0  0  0  0  0  0  0  0  0  0  0  0
   10.8166  -15.8536   27.0412 C   0  0  0  0  0  0  0  0  0  0  0  0
   10.2228  -14.6614   26.6336 C   0  0  0  0  0  0  0  0  0  0  0  0
   10.1441  -14.3246   25.2067 C   0  0  0  0  0  0  0  0  0  0  0  0
    9.8726  -15.5508   24.3926 C   0  0  2  0  0  0  0  0  0  0  0  0
   10.0266  -15.2609   22.9593 N   0  0  0  0  0  0  0  0  0  0  0  0
    8.5207  -16.0510   24.6429 C   0  0  0  0  0  0  0  0  0  0  0  0
    8.2150  -17.1724   25.3927 O   0  0  0  0  0  0  0  0  0  0  0  0
    9.7553  -13.8377   27.6293 C   0  0  0  0  0  0  0  0  0  0  0  0
    9.8592  -14.1575   28.9601 C   0  0  0  0  0  0  0  0  0  0  0  0
    7.5226  -15.4286   24.1426 O   0  0  0  0  0  0  0  0  0  0  0  0
  1  2  1  0
  2  4  1  0
  3  2  2  0
  4  5  1  0
  5  6  1  0
  6  7  1  6
  6  8  1  0
  8  9  2  0
 11 10  1  1
 12 11  1  0
 13 11  1  0
 14 13  1  6
 15  8  1  0
 15 14  1  0
 16 25  1  0
 16 14  1  0
 17 16  2  0
 19 18  1  0
 20 19  2  0
 21 20  1  0
 22 21  2  0
 22 28  1  0
 23 22  1  0
 24 23  1  1
 24 26  1  0
 24 25  1  0
 26 27  1  0
 28 29  2  0
 29 19  1  0
 30 26  2  0
M  END
$$$$
