QLY.pdb
     RDKit          3D

 30 30  0  0  1  0  0  0  0  0999 V2000
   11.1264  -16.4739   14.0174 N   0  0  0  0  0  0  0  0  0  0  0  0
   11.9099  -16.2469   15.2049 C   0  0  0  0  0  0  0  0  0  0  0  0
   13.1332  -16.1213   15.0751 O   0  0  0  0  0  0  0  0  0  0  0  0
   11.2838  -16.1611   16.5366 C   0  0  0  0  0  0  0  0  0  0  0  0
   11.6502  -17.2803   17.4289 C   0  0  0  0  0  0  0  0  0  0  0  0
   10.6729  -17.6870   18.4713 C   0  0  2  0  0  0  0  0  0  0  0  0
    9.3558  -18.0326   18.0170 N   0  0  0  0  0  0  0  0  0  0  0  0
   10.5525  -16.6756   19.5665 C   0  0  0  0  0  0  0  0  0  0  0  0
   11.5988  -16.3036   20.1468 O   0  0  0  0  0  0  0  0  0  0  0  0
    8.5717  -12.4786   19.7224 C   0  0  0  0  0  0  0  0  0  0  0  0
    7.6252  -13.6468   19.6897 C   0  0  2  0  0  0  0  0  0  0  0  0
    6.1961  -13.1248   19.6832 C   0  0  0  0  0  0  0  0  0  0  0  0
    7.7619  -14.5297   20.9040 C   0  0  0  0  0  0  0  0  0  0  0  0
    9.1583  -15.1294   21.0004 C   0  0  2  0  0  0  0  0  0  0  0  0
    9.3242  -16.1181   19.9808 N   0  0  0  0  0  0  0  0  0  0  0  0
    9.3011  -15.6781   22.3679 C   0  0  0  0  0  0  0  0  0  0  0  0
    9.1780  -16.9115   22.5363 O   0  0  0  0  0  0  0  0  0  0  0  0
   10.3519  -16.2626   31.1042 O   0  0  0  0  0  0  0  0  0  0  0  0
   10.3405  -15.8245   29.7997 C   0  0  0  0  0  0  0  0  0  0  0  0
    9.6502  -14.6926   29.4712 C   0  0  0  0  0  0  0  0  0  0  0  0
    9.5955  -14.2001   28.1980 C   0  0  0  0  0  0  0  0  0  0  0  0
   10.2583  -14.8494   27.1591 C   0  0  0  0  0  0  0  0  0  0  0  0
   10.1738  -14.3293   25.7887 C   0  0  0  0  0  0  0  0  0  0  0  0
    9.6459  -15.3784   24.8611 C   0  0  2  0  0  0  0  0  0  0  0  0
    9.5710  -14.8596   23.4874 N   0  0  0  0  0  0  0  0  0  0  0  0
    8.3179  -15.8239   25.2835 C   0  0  0  0  0  0  0  0  0  0  0  0
    8.0705  -16.8759   26.1470 O   0  0  0  0  0  0  0  0  0  0  0  0
   10.9520  -15.9882   27.4916 C   0  0  0  0  0  0  0  0  0  0  0  0
   11.0002  -16.4739   28.7745 C   0  0  0  0  0  0  0  0  0  0  0  0
    7.2851  -15.2176   24.8369 O   0  0  0  0  0  0  0  0  0  0  0  0
  1  2  1  0
  2  4  1  0
  3  2  2  0
  4  5  1  0
  5  6  1  0
  6  7  1  6
  6  8  1  0
  8  9  2  0
 11 10  1  1
 12 11  1  0
 13 11  1  0
 14 13  1  1
 15  8  1  0
 15 14  1  0
 16 25  1  0
 16 14  1  0
 17 16  2  0
 19 18  1  0
 20 19  2  0
 21 20  1  0
 22 21  2  0
 22 28  1  0
 23 22  1  0
 24 23  1  1
 24 26  1  0
 24 25  1  0
 26 27  1  0
 28 29  2  0
 29 19  1  0
 30 26  2  0
M  END
$$$$
