QLY.pdb
     RDKit          3D

 30 30  0  0  1  0  0  0  0  0999 V2000
    8.9725  -14.6482   16.7027 N   0  0  0  0  0  0  0  0  0  0  0  0
    7.7975  -15.4236   17.0091 C   0  0  0  0  0  0  0  0  0  0  0  0
    6.9238  -15.5174   16.1391 O   0  0  0  0  0  0  0  0  0  0  0  0
    7.6332  -16.0914   18.3129 C   0  0  0  0  0  0  0  0  0  0  0  0
    8.7171  -15.7839   19.2687 C   0  0  0  0  0  0  0  0  0  0  0  0
    8.5701  -16.2676   20.6657 C   0  0  2  0  0  0  0  0  0  0  0  0
    7.3338  -16.9197   20.9929 N   0  0  0  0  0  0  0  0  0  0  0  0
    8.8256  -15.1911   21.6722 C   0  0  0  0  0  0  0  0  0  0  0  0
    9.8597  -14.4952   21.5455 O   0  0  0  0  0  0  0  0  0  0  0  0
    7.9807  -12.4359   26.2166 C   0  0  0  0  0  0  0  0  0  0  0  0
    6.8157  -12.3798   25.2672 C   0  0  2  0  0  0  0  0  0  0  0  0
    5.5237  -12.3692   26.0707 C   0  0  0  0  0  0  0  0  0  0  0  0
    6.7562  -13.5831   24.3610 C   0  0  0  0  0  0  0  0  0  0  0  0
    8.0896  -13.8206   23.6648 C   0  0  2  0  0  0  0  0  0  0  0  0
    7.9646  -14.9177   22.7563 N   0  0  0  0  0  0  0  0  0  0  0  0
    9.0957  -14.0579   24.7246 C   0  0  0  0  0  0  0  0  0  0  0  0
    9.2848  -13.1685   25.5836 O   0  0  0  0  0  0  0  0  0  0  0  0
   11.9048  -17.1536   32.0697 O   0  0  0  0  0  0  0  0  0  0  0  0
   11.3153  -16.8811   30.8564 C   0  0  0  0  0  0  0  0  0  0  0  0
   11.0812  -15.5854   30.4926 C   0  0  0  0  0  0  0  0  0  0  0  0
   10.5005  -15.2416   29.3047 C   0  0  0  0  0  0  0  0  0  0  0  0
   10.1149  -16.2237   28.3952 C   0  0  0  0  0  0  0  0  0  0  0  0
    9.4677  -15.8484   27.1320 C   0  0  0  0  0  0  0  0  0  0  0  0
   10.4830  -15.7225   26.0396 C   0  0  2  0  0  0  0  0  0  0  0  0
    9.8484  -15.2512   24.7998 N   0  0  0  0  0  0  0  0  0  0  0  0
   11.1388  -17.0064   25.7902 C   0  0  0  0  0  0  0  0  0  0  0  0
   12.3976  -17.3565   26.2439 O   0  0  0  0  0  0  0  0  0  0  0  0
   10.3510  -17.5265   28.7632 C   0  0  0  0  0  0  0  0  0  0  0  0
   10.9354  -17.8604   29.9595 C   0  0  0  0  0  0  0  0  0  0  0  0
   10.5300  -17.8945   25.1013 O   0  0  0  0  0  0  0  0  0  0  0  0
  1  2  1  0
  2  4  1  0
  3  2  2  0
  4  5  1  0
  5  6  1  0
  6  7  1  6
  6  8  1  0
  8  9  2  0
 11 10  1  1
 12 11  1  0
 13 11  1  0
 14 13  1  1
 15  8  1  0
 15 14  1  0
 16 25  1  0
 16 14  1  0
 17 16  2  0
 19 18  1  0
 20 19  2  0
 21 20  1  0
 22 21  2  0
 22 28  1  0
 23 22  1  0
 24 23  1  1
 24 26  1  0
 24 25  1  0
 26 27  1  0
 28 29  2  0
 29 19  1  0
 30 26  2  0
M  END
$$$$
