WTS.pdb
     RDKit          3D

 28 29  0  0  1  0  0  0  0  0999 V2000
    6.3349  -17.5445   24.3655 N   0  0  0  0  0  0  0  0  0  0  0  0
    6.9481  -16.3284   23.8645 C   0  0  1  0  0  0  0  0  0  0  0  0
    7.9358  -15.8329   24.8972 C   0  0  0  0  0  0  0  0  0  0  0  0
    7.2476  -15.0134   25.9336 C   0  0  0  0  0  0  0  0  0  0  0  0
    6.4551  -15.4518   26.9614 C   0  0  0  0  0  0  0  0  0  0  0  0
    6.0509  -14.3753   27.6436 N   0  0  0  0  0  0  0  0  0  0  0  0
    6.5577  -13.2639   27.0874 C   0  0  0  0  0  0  0  0  0  0  0  0
    6.4591  -11.9038   27.3875 C   0  0  0  0  0  0  0  0  0  0  0  0
    7.1036  -10.9548   26.6246 C   0  0  0  0  0  0  0  0  0  0  0  0
    7.8694  -11.3183   25.5359 C   0  0  0  0  0  0  0  0  0  0  0  0
    7.9529  -12.6657   25.2576 C   0  0  0  0  0  0  0  0  0  0  0  0
    7.3060  -13.6396   26.0211 C   0  0  0  0  0  0  0  0  0  0  0  0
    7.6040  -16.6590   22.5796 C   0  0  0  0  0  0  0  0  0  0  0  0
    8.0096  -17.8383   22.4164 O   0  0  0  0  0  0  0  0  0  0  0  0
    6.7276  -14.4900   19.2392 C   0  0  0  0  0  0  0  0  0  0  0  0
    8.1093  -15.0275   19.2241 C   0  0  1  0  0  0  0  0  0  0  0  0
    8.9608  -13.9019   19.3996 O   0  0  0  0  0  0  0  0  0  0  0  0
    8.4318  -16.0748   20.2510 C   0  0  2  0  0  0  0  0  0  0  0  0
    7.7956  -15.7196   21.5335 N   0  0  0  0  0  0  0  0  0  0  0  0
    9.8756  -16.3065   20.4655 C   0  0  0  0  0  0  0  0  0  0  0  0
   10.5565  -15.5446   21.2351 O   0  0  0  0  0  0  0  0  0  0  0  0
   11.2770  -19.6447   20.2029 O   0  0  0  0  0  0  0  0  0  0  0  0
   12.3314  -18.8245   20.6242 C   0  0  0  0  0  0  0  0  0  0  0  0
   12.0651  -17.4449   20.0041 C   0  0  2  0  0  0  0  0  0  0  0  0
   10.6227  -17.3504   19.8716 N   0  0  0  0  0  0  0  0  0  0  0  0
   12.6630  -17.3709   18.6622 C   0  0  0  0  0  0  0  0  0  0  0  0
   14.0253  -17.5229   18.5053 O   0  0  0  0  0  0  0  0  0  0  0  0
   11.9472  -17.1718   17.6649 O   0  0  0  0  0  0  0  0  0  0  0  0
  2  1  1  1
  2  3  1  0
  2 13  1  0
  4 12  1  0
  4  3  1  0
  5  4  2  0
  6  5  1  0
  6  7  1  0
  7  8  1  0
  7 12  2  0
  8  9  2  0
  9 10  1  0
 11 10  2  0
 12 11  1  0
 13 14  2  0
 16 18  1  0
 16 15  1  1
 17 16  1  0
 19 13  1  0
 18 19  1  1
 20 25  1  0
 20 18  1  0
 21 20  2  0
 23 22  1  0
 24 25  1  0
 24 23  1  6
 26 27  1  0
 26 24  1  0
 28 26  2  0
M  END
$$$$
