WTS.pdb
     RDKit          3D

 28 29  0  0  1  0  0  0  0  0999 V2000
    7.2766  -17.1279   22.9381 N   0  0  0  0  0  0  0  0  0  0  0  0
    8.4861  -16.3646   23.1839 C   0  0  1  0  0  0  0  0  0  0  0  0
    8.6514  -16.2028   24.6786 C   0  0  0  0  0  0  0  0  0  0  0  0
    7.4801  -15.4923   25.2641 C   0  0  0  0  0  0  0  0  0  0  0  0
    6.2549  -16.0148   25.5842 C   0  0  0  0  0  0  0  0  0  0  0  0
    5.5126  -15.0206   26.0824 N   0  0  0  0  0  0  0  0  0  0  0  0
    6.2209  -13.8806   26.0917 C   0  0  0  0  0  0  0  0  0  0  0  0
    5.9406  -12.5739   26.4961 C   0  0  0  0  0  0  0  0  0  0  0  0
    6.8829  -11.5746   26.3890 C   0  0  0  0  0  0  0  0  0  0  0  0
    8.1379  -11.8330   25.8771 C   0  0  0  0  0  0  0  0  0  0  0  0
    8.3932  -13.1293   25.4839 C   0  0  0  0  0  0  0  0  0  0  0  0
    7.4491  -14.1531   25.5861 C   0  0  0  0  0  0  0  0  0  0  0  0
    9.6118  -17.1091   22.5762 C   0  0  0  0  0  0  0  0  0  0  0  0
    9.3399  -17.9607   21.6915 O   0  0  0  0  0  0  0  0  0  0  0  0
   10.5475  -16.7998   20.1194 C   0  0  0  0  0  0  0  0  0  0  0  0
   11.9057  -16.7013   20.7058 C   0  0  1  0  0  0  0  0  0  0  0  0
   12.2054  -15.3116   20.7485 O   0  0  0  0  0  0  0  0  0  0  0  0
   12.0923  -17.3045   22.0684 C   0  0  2  0  0  0  0  0  0  0  0  0
   10.9690  -16.9106   22.9395 N   0  0  0  0  0  0  0  0  0  0  0  0
   13.3697  -16.9606   22.7272 C   0  0  0  0  0  0  0  0  0  0  0  0
   13.6122  -15.7632   23.1069 O   0  0  0  0  0  0  0  0  0  0  0  0
   15.8648  -19.7916   23.2500 O   0  0  0  0  0  0  0  0  0  0  0  0
   16.0820  -18.9254   24.3291 C   0  0  0  0  0  0  0  0  0  0  0  0
   15.5034  -17.5682   23.9025 C   0  0  2  0  0  0  0  0  0  0  0  0
   14.4112  -17.8785   22.9982 N   0  0  0  0  0  0  0  0  0  0  0  0
   16.5158  -16.7975   23.1646 C   0  0  0  0  0  0  0  0  0  0  0  0
   17.6298  -16.3166   23.8213 O   0  0  0  0  0  0  0  0  0  0  0  0
   16.3745  -16.5755   21.9490 O   0  0  0  0  0  0  0  0  0  0  0  0
  2  1  1  1
  2  3  1  0
  2 13  1  0
  4 12  1  0
  4  3  1  0
  5  4  2  0
  6  5  1  0
  6  7  1  0
  7  8  1  0
  7 12  2  0
  8  9  2  0
  9 10  1  0
 11 10  2  0
 12 11  1  0
 13 14  2  0
 16 18  1  0
 16 15  1  1
 17 16  1  0
 19 13  1  0
 18 19  1  1
 20 25  1  0
 20 18  1  0
 21 20  2  0
 23 22  1  0
 24 25  1  0
 24 23  1  6
 26 27  1  0
 26 24  1  0
 28 26  2  0
M  END
$$$$
