WTS.pdb
     RDKit          3D

 28 29  0  0  1  0  0  0  0  0999 V2000
    6.2335  -17.2423   24.7178 N   0  0  0  0  0  0  0  0  0  0  0  0
    6.9987  -16.1600   24.1272 C   0  0  1  0  0  0  0  0  0  0  0  0
    8.1130  -15.7893   25.0804 C   0  0  0  0  0  0  0  0  0  0  0  0
    7.5864  -14.9864   26.2195 C   0  0  0  0  0  0  0  0  0  0  0  0
    7.0911  -15.4444   27.4118 C   0  0  0  0  0  0  0  0  0  0  0  0
    6.7344  -14.3775   28.1343 N   0  0  0  0  0  0  0  0  0  0  0  0
    6.9846  -13.2533   27.4451 C   0  0  0  0  0  0  0  0  0  0  0  0
    6.8099  -11.8953   27.7183 C   0  0  0  0  0  0  0  0  0  0  0  0
    7.1654  -10.9301   26.8017 C   0  0  0  0  0  0  0  0  0  0  0  0
    7.7071  -11.2749   25.5804 C   0  0  0  0  0  0  0  0  0  0  0  0
    7.8706  -12.6208   25.3315 C   0  0  0  0  0  0  0  0  0  0  0  0
    7.5155  -13.6109   26.2499 C   0  0  0  0  0  0  0  0  0  0  0  0
    7.5152  -16.6402   22.8260 C   0  0  0  0  0  0  0  0  0  0  0  0
    7.6699  -17.8799   22.6797 O   0  0  0  0  0  0  0  0  0  0  0  0
    6.7240  -14.6446   19.3775 C   0  0  0  0  0  0  0  0  0  0  0  0
    8.0737  -15.2581   19.3832 C   0  0  1  0  0  0  0  0  0  0  0  0
    8.9869  -14.1752   19.5114 O   0  0  0  0  0  0  0  0  0  0  0  0
    8.3410  -16.2787   20.4519 C   0  0  2  0  0  0  0  0  0  0  0  0
    7.8411  -15.7789   21.7465 N   0  0  0  0  0  0  0  0  0  0  0  0
    9.7589  -16.6719   20.5906 C   0  0  0  0  0  0  0  0  0  0  0  0
   10.5062  -16.1349   21.4792 O   0  0  0  0  0  0  0  0  0  0  0  0
   10.6592  -19.8489   19.1560 O   0  0  0  0  0  0  0  0  0  0  0  0
   11.9535  -19.4254   19.4840 C   0  0  0  0  0  0  0  0  0  0  0  0
   11.8123  -17.9733   19.9639 C   0  0  2  0  0  0  0  0  0  0  0  0
   10.4093  -17.6425   19.7933 N   0  0  0  0  0  0  0  0  0  0  0  0
   12.6097  -17.0799   19.1098 C   0  0  0  0  0  0  0  0  0  0  0  0
   13.9871  -17.1581   19.1269 O   0  0  0  0  0  0  0  0  0  0  0  0
   12.0497  -16.2520   18.3698 O   0  0  0  0  0  0  0  0  0  0  0  0
  2  1  1  1
  2  3  1  0
  2 13  1  0
  4 12  1  0
  4  3  1  0
  5  4  2  0
  6  5  1  0
  6  7  1  0
  7  8  1  0
  7 12  2  0
  8  9  2  0
  9 10  1  0
 11 10  2  0
 12 11  1  0
 13 14  2  0
 16 18  1  0
 16 15  1  1
 17 16  1  0
 19 13  1  0
 18 19  1  1
 20 25  1  0
 20 18  1  0
 21 20  2  0
 23 22  1  0
 24 25  1  0
 24 23  1  6
 26 27  1  0
 26 24  1  0
 28 26  2  0
M  END
$$$$
