WTS.pdb
     RDKit          3D

 28 29  0  0  1  0  0  0  0  0999 V2000
    7.3157  -16.7701   24.9949 N   0  0  0  0  0  0  0  0  0  0  0  0
    6.6772  -15.9260   24.0021 C   0  0  1  0  0  0  0  0  0  0  0  0
    6.9816  -14.4830   24.3375 C   0  0  0  0  0  0  0  0  0  0  0  0
    7.2676  -14.3292   25.7915 C   0  0  0  0  0  0  0  0  0  0  0  0
    7.7586  -15.2723   26.6552 C   0  0  0  0  0  0  0  0  0  0  0  0
    7.8587  -14.7000   27.8594 N   0  0  0  0  0  0  0  0  0  0  0  0
    7.4486  -13.4236   27.7952 C   0  0  0  0  0  0  0  0  0  0  0  0
    7.3463  -12.3949   28.7338 C   0  0  0  0  0  0  0  0  0  0  0  0
    6.8791  -11.1481   28.3799 C   0  0  0  0  0  0  0  0  0  0  0  0
    6.4958  -10.8745   27.0829 C   0  0  0  0  0  0  0  0  0  0  0  0
    6.6048  -11.9041   26.1730 C   0  0  0  0  0  0  0  0  0  0  0  0
    7.0764  -13.1730   26.5159 C   0  0  0  0  0  0  0  0  0  0  0  0
    7.2125  -16.3153   22.6783 C   0  0  0  0  0  0  0  0  0  0  0  0
    7.1605  -17.5313   22.3609 O   0  0  0  0  0  0  0  0  0  0  0  0
    8.3215  -13.2636   19.8876 C   0  0  0  0  0  0  0  0  0  0  0  0
    7.7636  -14.5724   19.4704 C   0  0  1  0  0  0  0  0  0  0  0  0
    8.2747  -14.8088   18.1645 O   0  0  0  0  0  0  0  0  0  0  0  0
    8.0708  -15.7447   20.3574 C   0  0  2  0  0  0  0  0  0  0  0  0
    7.7757  -15.3927   21.7590 N   0  0  0  0  0  0  0  0  0  0  0  0
    9.4566  -16.2487   20.2580 C   0  0  0  0  0  0  0  0  0  0  0  0
   10.4027  -15.7074   20.9277 O   0  0  0  0  0  0  0  0  0  0  0  0
   10.0121  -19.3070   18.1056 O   0  0  0  0  0  0  0  0  0  0  0  0
   11.2027  -19.2045   18.8364 C   0  0  0  0  0  0  0  0  0  0  0  0
   11.2489  -17.7634   19.3657 C   0  0  2  0  0  0  0  0  0  0  0  0
    9.8642  -17.3361   19.4506 N   0  0  0  0  0  0  0  0  0  0  0  0
   11.9472  -16.8953   18.4054 C   0  0  0  0  0  0  0  0  0  0  0  0
   13.3066  -17.0329   18.2138 O   0  0  0  0  0  0  0  0  0  0  0  0
   11.3192  -16.0355   17.7626 O   0  0  0  0  0  0  0  0  0  0  0  0
  2  1  1  1
  2  3  1  0
  2 13  1  0
  4 12  1  0
  4  3  1  0
  5  4  2  0
  6  5  1  0
  6  7  1  0
  7  8  1  0
  7 12  2  0
  8  9  2  0
  9 10  1  0
 11 10  2  0
 12 11  1  0
 13 14  2  0
 16 18  1  0
 16 15  1  1
 17 16  1  0
 19 13  1  0
 18 19  1  1
 20 25  1  0
 20 18  1  0
 21 20  2  0
 23 22  1  0
 24 25  1  0
 24 23  1  6
 26 27  1  0
 26 24  1  0
 28 26  2  0
M  END
$$$$
