WTS.pdb
     RDKit          3D

 28 29  0  0  1  0  0  0  0  0999 V2000
    6.4690  -17.4520   24.3289 N   0  0  0  0  0  0  0  0  0  0  0  0
    6.8366  -16.1382   23.8344 C   0  0  1  0  0  0  0  0  0  0  0  0
    7.8300  -15.5277   24.7977 C   0  0  0  0  0  0  0  0  0  0  0  0
    7.1251  -14.8169   25.9010 C   0  0  0  0  0  0  0  0  0  0  0  0
    6.4063  -15.3661   26.9298 C   0  0  0  0  0  0  0  0  0  0  0  0
    5.9523  -14.3598   27.6840 N   0  0  0  0  0  0  0  0  0  0  0  0
    6.3560  -13.1862   27.1729 C   0  0  0  0  0  0  0  0  0  0  0  0
    6.1715  -11.8549   27.5509 C   0  0  0  0  0  0  0  0  0  0  0  0
    6.7162  -10.8220   26.8196 C   0  0  0  0  0  0  0  0  0  0  0  0
    7.4637  -11.0702   25.6867 C   0  0  0  0  0  0  0  0  0  0  0  0
    7.6331  -12.3913   25.3317 C   0  0  0  0  0  0  0  0  0  0  0  0
    7.0878  -13.4491   26.0622 C   0  0  0  0  0  0  0  0  0  0  0  0
    7.4102  -16.3177   22.4818 C   0  0  0  0  0  0  0  0  0  0  0  0
    7.9160  -17.4354   22.2047 O   0  0  0  0  0  0  0  0  0  0  0  0
    8.2757  -12.9096   19.9944 C   0  0  0  0  0  0  0  0  0  0  0  0
    7.9188  -14.2101   19.3783 C   0  0  1  0  0  0  0  0  0  0  0  0
    8.6881  -14.2935   18.1851 O   0  0  0  0  0  0  0  0  0  0  0  0
    8.1471  -15.4341   20.2179 C   0  0  2  0  0  0  0  0  0  0  0  0
    7.4172  -15.3004   21.4927 N   0  0  0  0  0  0  0  0  0  0  0  0
    9.5668  -15.7387   20.4935 C   0  0  0  0  0  0  0  0  0  0  0  0
   10.2101  -15.1086   21.4023 O   0  0  0  0  0  0  0  0  0  0  0  0
   10.9713  -19.1234   20.0090 O   0  0  0  0  0  0  0  0  0  0  0  0
   11.8634  -18.3006   20.7083 C   0  0  0  0  0  0  0  0  0  0  0  0
   11.7457  -16.9104   20.0661 C   0  0  2  0  0  0  0  0  0  0  0  0
   10.3292  -16.7175   19.8143 N   0  0  0  0  0  0  0  0  0  0  0  0
   12.4560  -16.8878   18.7782 C   0  0  0  0  0  0  0  0  0  0  0  0
   11.7530  -16.6958   17.6067 O   0  0  0  0  0  0  0  0  0  0  0  0
   13.6895  -17.0406   18.7376 O   0  0  0  0  0  0  0  0  0  0  0  0
  2  1  1  1
  2  3  1  0
  2 13  1  0
  4 12  1  0
  4  3  1  0
  5  4  2  0
  6  5  1  0
  6  7  1  0
  7  8  1  0
  7 12  2  0
  8  9  2  0
  9 10  1  0
 11 10  2  0
 12 11  1  0
 13 14  2  0
 16 18  1  0
 16 15  1  1
 17 16  1  0
 19 13  1  0
 18 19  1  1
 20 25  1  0
 20 18  1  0
 21 20  2  0
 23 22  1  0
 24 25  1  0
 24 23  1  6
 26 27  1  0
 26 24  1  0
 28 26  2  0
M  END
$$$$
