WTS.pdb
     RDKit          3D

 28 29  0  0  1  0  0  0  0  0999 V2000
    6.3813  -17.6787   24.7417 N   0  0  0  0  0  0  0  0  0  0  0  0
    7.2587  -16.7037   24.1210 C   0  0  1  0  0  0  0  0  0  0  0  0
    8.0240  -15.9890   25.2124 C   0  0  0  0  0  0  0  0  0  0  0  0
    7.1570  -14.9878   25.8946 C   0  0  0  0  0  0  0  0  0  0  0  0
    6.1383  -15.2233   26.7797 C   0  0  0  0  0  0  0  0  0  0  0  0
    5.6373  -14.0370   27.1396 N   0  0  0  0  0  0  0  0  0  0  0  0
    6.3006  -13.0514   26.5151 C   0  0  0  0  0  0  0  0  0  0  0  0
    6.1940  -11.6593   26.5258 C   0  0  0  0  0  0  0  0  0  0  0  0
    7.0306  -10.8723   25.7650 C   0  0  0  0  0  0  0  0  0  0  0  0
    8.0037  -11.4356   24.9653 C   0  0  0  0  0  0  0  0  0  0  0  0
    8.0913  -12.8112   24.9697 C   0  0  0  0  0  0  0  0  0  0  0  0
    7.2511  -13.6226   25.7351 C   0  0  0  0  0  0  0  0  0  0  0  0
    8.1558  -17.4368   23.1999 C   0  0  0  0  0  0  0  0  0  0  0  0
    8.5106  -18.5975   23.5296 O   0  0  0  0  0  0  0  0  0  0  0  0
    7.9634  -17.0405   19.1772 C   0  0  0  0  0  0  0  0  0  0  0  0
    9.3578  -17.1496   19.6692 C   0  0  1  0  0  0  0  0  0  0  0  0
    9.9133  -15.8467   19.5402 O   0  0  0  0  0  0  0  0  0  0  0  0
    9.5345  -17.6413   21.0771 C   0  0  2  0  0  0  0  0  0  0  0  0
    8.6301  -16.8992   21.9754 N   0  0  0  0  0  0  0  0  0  0  0  0
   10.9172  -17.5577   21.5923 C   0  0  0  0  0  0  0  0  0  0  0  0
   11.3141  -16.5327   22.2469 O   0  0  0  0  0  0  0  0  0  0  0  0
   12.7917  -20.6858   21.5602 O   0  0  0  0  0  0  0  0  0  0  0  0
   13.7959  -19.8497   22.0649 C   0  0  0  0  0  0  0  0  0  0  0  0
   13.2472  -18.4194   21.9553 C   0  0  2  0  0  0  0  0  0  0  0  0
   11.9028  -18.5586   21.4260 N   0  0  0  0  0  0  0  0  0  0  0  0
   14.0484  -17.6436   20.9964 C   0  0  0  0  0  0  0  0  0  0  0  0
   15.3714  -17.3642   21.2707 O   0  0  0  0  0  0  0  0  0  0  0  0
   13.5405  -17.2366   19.9366 O   0  0  0  0  0  0  0  0  0  0  0  0
  2  1  1  1
  2  3  1  0
  2 13  1  0
  4 12  1  0
  4  3  1  0
  5  4  2  0
  6  5  1  0
  6  7  1  0
  7  8  1  0
  7 12  2  0
  8  9  2  0
  9 10  1  0
 11 10  2  0
 12 11  1  0
 13 14  2  0
 16 18  1  0
 16 15  1  1
 17 16  1  0
 19 13  1  0
 18 19  1  1
 20 25  1  0
 20 18  1  0
 21 20  2  0
 23 22  1  0
 24 25  1  0
 24 23  1  6
 26 27  1  0
 26 24  1  0
 28 26  2  0
M  END
$$$$
