WTS.pdb
     RDKit          3D

 28 29  0  0  1  0  0  0  0  0999 V2000
    6.4425  -17.6077   23.9661 N   0  0  0  0  0  0  0  0  0  0  0  0
    6.8961  -16.3042   23.5180 C   0  0  1  0  0  0  0  0  0  0  0  0
    7.8780  -15.7662   24.5349 C   0  0  0  0  0  0  0  0  0  0  0  0
    7.1641  -15.0479   25.6275 C   0  0  0  0  0  0  0  0  0  0  0  0
    6.2988  -15.5715   26.5515 C   0  0  0  0  0  0  0  0  0  0  0  0
    5.8980  -14.5683   27.3393 N   0  0  0  0  0  0  0  0  0  0  0  0
    6.4771  -13.4216   26.9508 C   0  0  0  0  0  0  0  0  0  0  0  0
    6.4135  -12.1047   27.4104 C   0  0  0  0  0  0  0  0  0  0  0  0
    7.1355  -11.1001   26.8039 C   0  0  0  0  0  0  0  0  0  0  0  0
    7.9471  -11.3633   25.7196 C   0  0  0  0  0  0  0  0  0  0  0  0
    7.9949  -12.6696   25.2824 C   0  0  0  0  0  0  0  0  0  0  0  0
    7.2695  -13.6988   25.8861 C   0  0  0  0  0  0  0  0  0  0  0  0
    7.5158  -16.4838   22.1859 C   0  0  0  0  0  0  0  0  0  0  0  0
    7.9547  -17.6259   21.8943 O   0  0  0  0  0  0  0  0  0  0  0  0
    8.3890  -13.1351   19.5084 C   0  0  0  0  0  0  0  0  0  0  0  0
    7.9532  -14.4677   19.0261 C   0  0  1  0  0  0  0  0  0  0  0  0
    8.5773  -14.6405   17.7598 O   0  0  0  0  0  0  0  0  0  0  0  0
    8.2695  -15.6373   19.9134 C   0  0  2  0  0  0  0  0  0  0  0  0
    7.6375  -15.4408   21.2316 N   0  0  0  0  0  0  0  0  0  0  0  0
    9.7118  -15.9041   20.0942 C   0  0  0  0  0  0  0  0  0  0  0  0
   10.3955  -15.2609   20.9633 O   0  0  0  0  0  0  0  0  0  0  0  0
   11.3275  -19.1819   20.4854 O   0  0  0  0  0  0  0  0  0  0  0  0
   12.0728  -18.5995   19.4523 C   0  0  0  0  0  0  0  0  0  0  0  0
   11.8701  -17.0834   19.5901 C   0  0  2  0  0  0  0  0  0  0  0  0
   10.4547  -16.8582   19.3604 N   0  0  0  0  0  0  0  0  0  0  0  0
   12.6304  -16.3759   18.5485 C   0  0  0  0  0  0  0  0  0  0  0  0
   11.9645  -15.7423   17.5195 O   0  0  0  0  0  0  0  0  0  0  0  0
   13.8730  -16.3444   18.5887 O   0  0  0  0  0  0  0  0  0  0  0  0
  2  1  1  1
  2  3  1  0
  2 13  1  0
  4 12  1  0
  4  3  1  0
  5  4  2  0
  6  5  1  0
  6  7  1  0
  7  8  1  0
  7 12  2  0
  8  9  2  0
  9 10  1  0
 11 10  2  0
 12 11  1  0
 13 14  2  0
 16 18  1  0
 16 15  1  1
 17 16  1  0
 19 13  1  0
 18 19  1  1
 20 25  1  0
 20 18  1  0
 21 20  2  0
 23 22  1  0
 24 25  1  0
 24 23  1  6
 26 27  1  0
 26 24  1  0
 28 26  2  0
M  END
$$$$
