WTS.pdb
     RDKit          3D

 28 29  0  0  1  0  0  0  0  0999 V2000
    6.5851  -16.8253   25.3640 N   0  0  0  0  0  0  0  0  0  0  0  0
    7.2315  -15.7640   24.6145 C   0  0  1  0  0  0  0  0  0  0  0  0
    8.5297  -15.4145   25.3073 C   0  0  0  0  0  0  0  0  0  0  0  0
    8.2697  -14.6441   26.5557 C   0  0  0  0  0  0  0  0  0  0  0  0
    8.7078  -14.9254   27.8228 C   0  0  0  0  0  0  0  0  0  0  0  0
    8.2387  -13.9690   28.6309 N   0  0  0  0  0  0  0  0  0  0  0  0
    7.5159  -13.0862   27.9241 C   0  0  0  0  0  0  0  0  0  0  0  0
    6.8171  -11.9244   28.2581 C   0  0  0  0  0  0  0  0  0  0  0  0
    6.1457  -11.1943   27.3020 C   0  0  0  0  0  0  0  0  0  0  0  0
    6.1417  -11.5883   25.9797 C   0  0  0  0  0  0  0  0  0  0  0  0
    6.8375  -12.7378   25.6723 C   0  0  0  0  0  0  0  0  0  0  0  0
    7.5230  -13.4887   26.6295 C   0  0  0  0  0  0  0  0  0  0  0  0
    7.4510  -16.2628   23.2384 C   0  0  0  0  0  0  0  0  0  0  0  0
    7.1116  -17.4470   22.9844 O   0  0  0  0  0  0  0  0  0  0  0  0
    6.6947  -13.9236   20.1908 C   0  0  0  0  0  0  0  0  0  0  0  0
    7.8571  -14.7887   19.8765 C   0  0  1  0  0  0  0  0  0  0  0  0
    8.9874  -13.9255   19.8703 O   0  0  0  0  0  0  0  0  0  0  0  0
    8.1031  -15.9431   20.8050 C   0  0  2  0  0  0  0  0  0  0  0  0
    8.0200  -15.4779   22.2023 N   0  0  0  0  0  0  0  0  0  0  0  0
    9.3881  -16.6425   20.5950 C   0  0  0  0  0  0  0  0  0  0  0  0
   10.4098  -16.3712   21.3154 O   0  0  0  0  0  0  0  0  0  0  0  0
    9.2351  -19.7943   18.8297 O   0  0  0  0  0  0  0  0  0  0  0  0
   10.6130  -19.7311   19.0736 C   0  0  0  0  0  0  0  0  0  0  0  0
   10.9097  -18.2682   19.4354 C   0  0  2  0  0  0  0  0  0  0  0  0
    9.6128  -17.6432   19.6209 N   0  0  0  0  0  0  0  0  0  0  0  0
   11.5939  -17.6007   18.3174 C   0  0  0  0  0  0  0  0  0  0  0  0
   12.8491  -18.0207   17.9280 O   0  0  0  0  0  0  0  0  0  0  0  0
   11.0474  -16.6576   17.7186 O   0  0  0  0  0  0  0  0  0  0  0  0
  2  1  1  1
  2  3  1  0
  2 13  1  0
  4 12  1  0
  4  3  1  0
  5  4  2  0
  6  5  1  0
  6  7  1  0
  7  8  1  0
  7 12  2  0
  8  9  2  0
  9 10  1  0
 11 10  2  0
 12 11  1  0
 13 14  2  0
 16 18  1  0
 16 15  1  1
 17 16  1  0
 19 13  1  0
 18 19  1  1
 20 25  1  0
 20 18  1  0
 21 20  2  0
 23 22  1  0
 24 25  1  0
 24 23  1  6
 26 27  1  0
 26 24  1  0
 28 26  2  0
M  END
$$$$
