WTS.pdb
     RDKit          3D

 28 29  0  0  1  0  0  0  0  0999 V2000
    6.2588  -17.7468   24.3677 N   0  0  0  0  0  0  0  0  0  0  0  0
    7.1262  -16.7193   23.8222 C   0  0  1  0  0  0  0  0  0  0  0  0
    7.9745  -16.1665   24.9458 C   0  0  0  0  0  0  0  0  0  0  0  0
    7.2151  -15.1518   25.7288 C   0  0  0  0  0  0  0  0  0  0  0  0
    6.1751  -15.3650   26.5945 C   0  0  0  0  0  0  0  0  0  0  0  0
    5.7999  -14.1739   27.0720 N   0  0  0  0  0  0  0  0  0  0  0  0
    6.5642  -13.2065   26.5413 C   0  0  0  0  0  0  0  0  0  0  0  0
    6.6037  -11.8186   26.6884 C   0  0  0  0  0  0  0  0  0  0  0  0
    7.5200  -11.0527   26.0016 C   0  0  0  0  0  0  0  0  0  0  0  0
    8.4310  -11.6337   25.1434 C   0  0  0  0  0  0  0  0  0  0  0  0
    8.3743  -13.0047   25.0131 C   0  0  0  0  0  0  0  0  0  0  0  0
    7.4519  -13.7948   25.7022 C   0  0  0  0  0  0  0  0  0  0  0  0
    7.9462  -17.3476   22.7622 C   0  0  0  0  0  0  0  0  0  0  0  0
    8.3425  -18.5263   22.9507 O   0  0  0  0  0  0  0  0  0  0  0  0
    9.8272  -17.1167   18.1019 C   0  0  0  0  0  0  0  0  0  0  0  0
    8.9628  -16.6586   19.2160 C   0  0  1  0  0  0  0  0  0  0  0  0
    7.6277  -16.9050   18.7923 O   0  0  0  0  0  0  0  0  0  0  0  0
    9.1989  -17.2992   20.5537 C   0  0  2  0  0  0  0  0  0  0  0  0
    8.3034  -16.6913   21.5559 N   0  0  0  0  0  0  0  0  0  0  0  0
   10.5946  -17.2299   21.0347 C   0  0  0  0  0  0  0  0  0  0  0  0
   11.0595  -16.1559   21.5513 O   0  0  0  0  0  0  0  0  0  0  0  0
   12.4965  -19.9585   22.8876 O   0  0  0  0  0  0  0  0  0  0  0  0
   13.3373  -19.5735   21.8356 C   0  0  0  0  0  0  0  0  0  0  0  0
   12.8921  -18.1587   21.4369 C   0  0  2  0  0  0  0  0  0  0  0  0
   11.5213  -18.2971   20.9801 N   0  0  0  0  0  0  0  0  0  0  0  0
   13.7102  -17.6690   20.3169 C   0  0  0  0  0  0  0  0  0  0  0  0
   14.9873  -17.2014   20.5490 O   0  0  0  0  0  0  0  0  0  0  0  0
   13.2578  -17.6736   19.1585 O   0  0  0  0  0  0  0  0  0  0  0  0
  2  1  1  1
  2  3  1  0
  2 13  1  0
  4 12  1  0
  4  3  1  0
  5  4  2  0
  6  5  1  0
  6  7  1  0
  7  8  1  0
  7 12  2  0
  8  9  2  0
  9 10  1  0
 11 10  2  0
 12 11  1  0
 13 14  2  0
 16 18  1  0
 16 15  1  6
 17 16  1  0
 19 13  1  0
 18 19  1  1
 20 25  1  0
 20 18  1  0
 21 20  2  0
 23 22  1  0
 24 25  1  0
 24 23  1  6
 26 27  1  0
 26 24  1  0
 28 26  2  0
M  END
$$$$
