WTS.pdb
     RDKit          3D

 28 29  0  0  1  0  0  0  0  0999 V2000
    6.4490  -17.9433   24.9631 N   0  0  0  0  0  0  0  0  0  0  0  0
    7.1546  -16.9305   24.2001 C   0  0  1  0  0  0  0  0  0  0  0  0
    7.8556  -16.0058   25.1703 C   0  0  0  0  0  0  0  0  0  0  0  0
    6.9134  -14.9755   25.6900 C   0  0  0  0  0  0  0  0  0  0  0  0
    5.6285  -15.1574   26.1290 C   0  0  0  0  0  0  0  0  0  0  0  0
    5.1601  -13.9628   26.5048 N   0  0  0  0  0  0  0  0  0  0  0  0
    6.1011  -13.0235   26.3210 C   0  0  0  0  0  0  0  0  0  0  0  0
    6.1444  -11.6454   26.5410 C   0  0  0  0  0  0  0  0  0  0  0  0
    7.2738  -10.9107   26.2538 C   0  0  0  0  0  0  0  0  0  0  0  0
    8.4022  -11.5143   25.7378 C   0  0  0  0  0  0  0  0  0  0  0  0
    8.3376  -12.8752   25.5284 C   0  0  0  0  0  0  0  0  0  0  0  0
    7.2007  -13.6338   25.8144 C   0  0  0  0  0  0  0  0  0  0  0  0
    8.1076  -17.6297   23.3093 C   0  0  0  0  0  0  0  0  0  0  0  0
    8.4157  -18.8147   23.5973 O   0  0  0  0  0  0  0  0  0  0  0  0
    8.0735  -17.1565   19.3338 C   0  0  0  0  0  0  0  0  0  0  0  0
    9.4562  -17.2425   19.8618 C   0  0  1  0  0  0  0  0  0  0  0  0
    9.9829  -15.9242   19.7748 O   0  0  0  0  0  0  0  0  0  0  0  0
    9.6068  -17.7594   21.2638 C   0  0  2  0  0  0  0  0  0  0  0  0
    8.6847  -17.0342   22.1579 N   0  0  0  0  0  0  0  0  0  0  0  0
   10.9794  -17.6840   21.8064 C   0  0  0  0  0  0  0  0  0  0  0  0
   11.4058  -16.6177   22.3702 O   0  0  0  0  0  0  0  0  0  0  0  0
   13.1268  -20.5272   23.5466 O   0  0  0  0  0  0  0  0  0  0  0  0
   13.8164  -20.0068   22.4441 C   0  0  0  0  0  0  0  0  0  0  0  0
   13.2825  -18.5799   22.2490 C   0  0  2  0  0  0  0  0  0  0  0  0
   11.9232  -18.7367   21.7646 N   0  0  0  0  0  0  0  0  0  0  0  0
   14.0680  -17.8839   21.2183 C   0  0  0  0  0  0  0  0  0  0  0  0
   15.3550  -17.4705   21.4946 O   0  0  0  0  0  0  0  0  0  0  0  0
   13.5789  -17.6647   20.0961 O   0  0  0  0  0  0  0  0  0  0  0  0
  2  1  1  1
  2  3  1  0
  2 13  1  0
  4 12  1  0
  4  3  1  0
  5  4  2  0
  6  5  1  0
  6  7  1  0
  7  8  1  0
  7 12  2  0
  8  9  2  0
  9 10  1  0
 11 10  2  0
 12 11  1  0
 13 14  2  0
 16 18  1  0
 16 15  1  1
 17 16  1  0
 19 13  1  0
 18 19  1  1
 20 25  1  0
 20 18  1  0
 21 20  2  0
 23 22  1  0
 24 25  1  0
 24 23  1  6
 26 27  1  0
 26 24  1  0
 28 26  2  0
M  END
$$$$
