WTS.pdb
     RDKit          3D

 28 29  0  0  1  0  0  0  0  0999 V2000
    6.9048  -17.5384   23.5371 N   0  0  0  0  0  0  0  0  0  0  0  0
    8.1394  -16.7846   23.6527 C   0  0  1  0  0  0  0  0  0  0  0  0
    8.3146  -16.3769   25.0986 C   0  0  0  0  0  0  0  0  0  0  0  0
    7.2533  -15.4144   25.5067 C   0  0  0  0  0  0  0  0  0  0  0  0
    5.9654  -15.6932   25.8812 C   0  0  0  0  0  0  0  0  0  0  0  0
    5.3691  -14.5303   26.1637 N   0  0  0  0  0  0  0  0  0  0  0  0
    6.2313  -13.5178   25.9827 C   0  0  0  0  0  0  0  0  0  0  0  0
    6.1368  -12.1325   26.1292 C   0  0  0  0  0  0  0  0  0  0  0  0
    7.2112  -11.3109   25.8670 C   0  0  0  0  0  0  0  0  0  0  0  0
    8.4190  -11.8316   25.4499 C   0  0  0  0  0  0  0  0  0  0  0  0
    8.4901  -13.2012   25.3118 C   0  0  0  0  0  0  0  0  0  0  0  0
    7.4105  -14.0473   25.5737 C   0  0  0  0  0  0  0  0  0  0  0  0
    9.2382  -17.6579   23.1830 C   0  0  0  0  0  0  0  0  0  0  0  0
    8.9264  -18.7340   22.6113 O   0  0  0  0  0  0  0  0  0  0  0  0
    9.9624  -17.7903   20.4985 C   0  0  0  0  0  0  0  0  0  0  0  0
   11.2824  -17.3467   21.0076 C   0  0  1  0  0  0  0  0  0  0  0  0
   11.2598  -15.9260   20.9458 O   0  0  0  0  0  0  0  0  0  0  0  0
   11.6486  -17.7902   22.3948 C   0  0  2  0  0  0  0  0  0  0  0  0
   10.6124  -17.3433   23.3446 N   0  0  0  0  0  0  0  0  0  0  0  0
   12.9740  -17.3313   22.8609 C   0  0  0  0  0  0  0  0  0  0  0  0
   13.2795  -16.0891   22.8539 O   0  0  0  0  0  0  0  0  0  0  0  0
   15.1357  -19.3186   25.5839 O   0  0  0  0  0  0  0  0  0  0  0  0
   15.9406  -18.8812   24.5243 C   0  0  0  0  0  0  0  0  0  0  0  0
   15.2232  -17.6620   23.9261 C   0  0  2  0  0  0  0  0  0  0  0  0
   13.9975  -18.1790   23.3452 N   0  0  0  0  0  0  0  0  0  0  0  0
   16.0375  -17.0745   22.8513 C   0  0  0  0  0  0  0  0  0  0  0  0
   17.1904  -16.3822   23.1600 O   0  0  0  0  0  0  0  0  0  0  0  0
   15.6935  -17.1977   21.6626 O   0  0  0  0  0  0  0  0  0  0  0  0
  2  1  1  1
  2  3  1  0
  2 13  1  0
  4 12  1  0
  4  3  1  0
  5  4  2  0
  6  5  1  0
  6  7  1  0
  7  8  1  0
  7 12  2  0
  8  9  2  0
  9 10  1  0
 11 10  2  0
 12 11  1  0
 13 14  2  0
 16 18  1  0
 16 15  1  1
 17 16  1  0
 19 13  1  0
 18 19  1  1
 20 25  1  0
 20 18  1  0
 21 20  2  0
 23 22  1  0
 24 25  1  0
 24 23  1  6
 26 27  1  0
 26 24  1  0
 28 26  2  0
M  END
$$$$
