WTS.pdb
     RDKit          3D

 28 29  0  0  1  0  0  0  0  0999 V2000
    6.3608  -17.6852   24.4678 N   0  0  0  0  0  0  0  0  0  0  0  0
    7.3011  -16.6737   24.0223 C   0  0  1  0  0  0  0  0  0  0  0  0
    7.8760  -15.9881   25.2418 C   0  0  0  0  0  0  0  0  0  0  0  0
    6.8969  -15.0212   25.8129 C   0  0  0  0  0  0  0  0  0  0  0  0
    5.6786  -15.2938   26.3767 C   0  0  0  0  0  0  0  0  0  0  0  0
    5.1417  -14.1291   26.7545 N   0  0  0  0  0  0  0  0  0  0  0  0
    5.9749  -13.1213   26.4516 C   0  0  0  0  0  0  0  0  0  0  0  0
    5.9152  -11.7366   26.6202 C   0  0  0  0  0  0  0  0  0  0  0  0
    6.9441  -10.9206   26.2035 C   0  0  0  0  0  0  0  0  0  0  0  0
    8.0702  -11.4466   25.6042 C   0  0  0  0  0  0  0  0  0  0  0  0
    8.1082  -12.8155   25.4476 C   0  0  0  0  0  0  0  0  0  0  0  0
    7.0739  -13.6559   25.8646 C   0  0  0  0  0  0  0  0  0  0  0  0
    8.3434  -17.3574   23.2243 C   0  0  0  0  0  0  0  0  0  0  0  0
    8.6667  -18.5250   23.5623 O   0  0  0  0  0  0  0  0  0  0  0  0
    8.9607  -16.6141   19.2523 C   0  0  0  0  0  0  0  0  0  0  0  0
   10.2178  -16.8204   20.0108 C   0  0  1  0  0  0  0  0  0  0  0  0
   10.8189  -15.5356   20.1141 O   0  0  0  0  0  0  0  0  0  0  0  0
   10.0835  -17.4310   21.3762 C   0  0  2  0  0  0  0  0  0  0  0  0
    8.9892  -16.7657   22.1080 N   0  0  0  0  0  0  0  0  0  0  0  0
   11.3146  -17.3953   22.1932 C   0  0  0  0  0  0  0  0  0  0  0  0
   11.5232  -16.4477   23.0269 O   0  0  0  0  0  0  0  0  0  0  0  0
   13.6047  -20.4726   22.1859 O   0  0  0  0  0  0  0  0  0  0  0  0
   13.9403  -19.6951   23.3016 C   0  0  0  0  0  0  0  0  0  0  0  0
   13.5520  -18.2533   22.9421 C   0  0  2  0  0  0  0  0  0  0  0  0
   12.3445  -18.3636   22.1442 N   0  0  0  0  0  0  0  0  0  0  0  0
   14.6026  -17.6387   22.1162 C   0  0  0  0  0  0  0  0  0  0  0  0
   15.8298  -17.3405   22.6717 O   0  0  0  0  0  0  0  0  0  0  0  0
   14.3922  -17.3853   20.9169 O   0  0  0  0  0  0  0  0  0  0  0  0
  2  1  1  1
  2  3  1  0
  2 13  1  0
  4 12  1  0
  4  3  1  0
  5  4  2  0
  6  5  1  0
  6  7  1  0
  7  8  1  0
  7 12  2  0
  8  9  2  0
  9 10  1  0
 11 10  2  0
 12 11  1  0
 13 14  2  0
 16 18  1  0
 16 15  1  1
 17 16  1  0
 19 13  1  0
 18 19  1  1
 20 25  1  0
 20 18  1  0
 21 20  2  0
 23 22  1  0
 24 25  1  0
 24 23  1  6
 26 27  1  0
 26 24  1  0
 28 26  2  0
M  END
$$$$
