WTS.pdb
     RDKit          3D

 28 29  0  0  1  0  0  0  0  0999 V2000
    5.6294  -18.0684   25.4281 N   0  0  0  0  0  0  0  0  0  0  0  0
    6.4410  -16.8821   25.2283 C   0  0  1  0  0  0  0  0  0  0  0  0
    7.1952  -16.6001   26.5086 C   0  0  0  0  0  0  0  0  0  0  0  0
    7.8802  -15.2791   26.4361 C   0  0  0  0  0  0  0  0  0  0  0  0
    9.2076  -15.0330   26.2036 C   0  0  0  0  0  0  0  0  0  0  0  0
    9.3793  -13.7072   26.2238 N   0  0  0  0  0  0  0  0  0  0  0  0
    8.2075  -13.0973   26.4613 C   0  0  0  0  0  0  0  0  0  0  0  0
    7.8230  -11.7606   26.5831 C   0  0  0  0  0  0  0  0  0  0  0  0
    6.5138  -11.4134   26.8350 C   0  0  0  0  0  0  0  0  0  0  0  0
    5.5371  -12.3779   26.9755 C   0  0  0  0  0  0  0  0  0  0  0  0
    5.9386  -13.6907   26.8516 C   0  0  0  0  0  0  0  0  0  0  0  0
    7.2612  -14.0588   26.5964 C   0  0  0  0  0  0  0  0  0  0  0  0
    7.3515  -17.1534   24.0933 C   0  0  0  0  0  0  0  0  0  0  0  0
    7.8998  -18.2841   24.0408 O   0  0  0  0  0  0  0  0  0  0  0  0
    6.6143  -15.6578   20.4182 C   0  0  0  0  0  0  0  0  0  0  0  0
    8.0617  -15.6771   20.7390 C   0  0  1  0  0  0  0  0  0  0  0  0
    8.4201  -14.3216   20.9775 O   0  0  0  0  0  0  0  0  0  0  0  0
    8.4779  -16.5266   21.9054 C   0  0  2  0  0  0  0  0  0  0  0  0
    7.6331  -16.2094   23.0721 N   0  0  0  0  0  0  0  0  0  0  0  0
    9.9020  -16.4055   22.2816 C   0  0  0  0  0  0  0  0  0  0  0  0
   10.3079  -15.4406   23.0169 O   0  0  0  0  0  0  0  0  0  0  0  0
   12.0113  -19.3893   21.8128 O   0  0  0  0  0  0  0  0  0  0  0  0
   12.8894  -18.5111   22.4606 C   0  0  0  0  0  0  0  0  0  0  0  0
   12.3131  -17.1040   22.2441 C   0  0  2  0  0  0  0  0  0  0  0  0
   10.9202  -17.3051   21.8886 N   0  0  0  0  0  0  0  0  0  0  0  0
   12.9927  -16.4483   21.1164 C   0  0  0  0  0  0  0  0  0  0  0  0
   14.3210  -16.0914   21.2254 O   0  0  0  0  0  0  0  0  0  0  0  0
   12.3769  -16.2127   20.0619 O   0  0  0  0  0  0  0  0  0  0  0  0
  2  1  1  1
  2  3  1  0
  2 13  1  0
  4 12  1  0
  4  3  1  0
  5  4  2  0
  6  5  1  0
  6  7  1  0
  7  8  1  0
  7 12  2  0
  8  9  2  0
  9 10  1  0
 11 10  2  0
 12 11  1  0
 13 14  2  0
 16 18  1  0
 16 15  1  1
 17 16  1  0
 19 13  1  0
 18 19  1  1
 20 25  1  0
 20 18  1  0
 21 20  2  0
 23 22  1  0
 24 25  1  0
 24 23  1  6
 26 27  1  0
 26 24  1  0
 28 26  2  0
M  END
$$$$
