WTS.pdb
     RDKit          3D

 28 29  0  0  1  0  0  0  0  0999 V2000
    7.9361  -15.5411   20.3339 N   0  0  0  0  0  0  0  0  0  0  0  0
    8.0247  -15.2821   21.7590 C   0  0  1  0  0  0  0  0  0  0  0  0
    6.6296  -15.0259   22.2839 C   0  0  0  0  0  0  0  0  0  0  0  0
    6.6450  -14.8680   23.7653 C   0  0  0  0  0  0  0  0  0  0  0  0
    6.2970  -15.7946   24.7124 C   0  0  0  0  0  0  0  0  0  0  0  0
    6.4645  -15.2257   25.9107 N   0  0  0  0  0  0  0  0  0  0  0  0
    6.9074  -13.9675   25.7623 C   0  0  0  0  0  0  0  0  0  0  0  0
    7.2396  -12.9497   26.6586 C   0  0  0  0  0  0  0  0  0  0  0  0
    7.6800  -11.7220   26.2150 C   0  0  0  0  0  0  0  0  0  0  0  0
    7.8075  -11.4572   24.8669 C   0  0  0  0  0  0  0  0  0  0  0  0
    7.4742  -12.4757   23.9999 C   0  0  0  0  0  0  0  0  0  0  0  0
    7.0265  -13.7253   24.4336 C   0  0  0  0  0  0  0  0  0  0  0  0
    8.6476  -16.4684   22.3878 C   0  0  0  0  0  0  0  0  0  0  0  0
    8.1320  -17.5919   22.1554 O   0  0  0  0  0  0  0  0  0  0  0  0
   11.7327  -18.0084   21.7031 C   0  0  0  0  0  0  0  0  0  0  0  0
   11.7376  -17.8499   23.1772 C   0  0  1  0  0  0  0  0  0  0  0  0
   12.6182  -16.7653   23.4436 O   0  0  0  0  0  0  0  0  0  0  0  0
   10.4079  -17.5978   23.8281 C   0  0  2  0  0  0  0  0  0  0  0  0
    9.7864  -16.4005   23.2315 N   0  0  0  0  0  0  0  0  0  0  0  0
   10.4576  -17.4459   25.2974 C   0  0  0  0  0  0  0  0  0  0  0  0
   10.9072  -16.3746   25.8328 O   0  0  0  0  0  0  0  0  0  0  0  0
    8.9639  -20.2471   27.5944 O   0  0  0  0  0  0  0  0  0  0  0  0
    9.1139  -19.0621   28.3260 C   0  0  0  0  0  0  0  0  0  0  0  0
   10.2604  -18.2937   27.6522 C   0  0  2  0  0  0  0  0  0  0  0  0
   10.0295  -18.4241   26.2251 N   0  0  0  0  0  0  0  0  0  0  0  0
   11.5492  -18.9242   27.9761 C   0  0  0  0  0  0  0  0  0  0  0  0
   12.0543  -18.8416   29.2573 O   0  0  0  0  0  0  0  0  0  0  0  0
   12.1890  -19.5334   27.1006 O   0  0  0  0  0  0  0  0  0  0  0  0
  2  1  1  6
  2  3  1  0
  2 13  1  0
  4 12  1  0
  4  3  1  0
  5  4  2  0
  6  5  1  0
  6  7  1  0
  7  8  1  0
  7 12  2  0
  8  9  2  0
  9 10  1  0
 11 10  2  0
 12 11  1  0
 13 14  2  0
 16 18  1  0
 16 15  1  6
 17 16  1  0
 19 13  1  0
 18 19  1  6
 20 25  1  0
 20 18  1  0
 21 20  2  0
 23 22  1  0
 24 25  1  0
 24 23  1  1
 26 27  1  0
 26 24  1  0
 28 26  2  0
M  END
$$$$
