WTS.pdb
     RDKit          3D

 28 29  0  0  1  0  0  0  0  0999 V2000
    6.1094  -18.2492   24.6177 N   0  0  0  0  0  0  0  0  0  0  0  0
    6.8955  -17.0804   24.2688 C   0  0  1  0  0  0  0  0  0  0  0  0
    7.5391  -16.5461   25.5289 C   0  0  0  0  0  0  0  0  0  0  0  0
    6.7917  -15.3636   26.0413 C   0  0  0  0  0  0  0  0  0  0  0  0
    5.5686  -15.3459   26.6582 C   0  0  0  0  0  0  0  0  0  0  0  0
    5.2847  -14.0723   26.9496 N   0  0  0  0  0  0  0  0  0  0  0  0
    6.2841  -13.2752   26.5402 C   0  0  0  0  0  0  0  0  0  0  0  0
    6.5016  -11.8970   26.5919 C   0  0  0  0  0  0  0  0  0  0  0  0
    7.6507  -11.3349   26.0803 C   0  0  0  0  0  0  0  0  0  0  0  0
    8.6267  -12.1177   25.4984 C   0  0  0  0  0  0  0  0  0  0  0  0
    8.3914  -13.4752   25.4579 C   0  0  0  0  0  0  0  0  0  0  0  0
    7.2323  -14.0601   25.9720 C   0  0  0  0  0  0  0  0  0  0  0  0
    7.8993  -17.5038   23.2668 C   0  0  0  0  0  0  0  0  0  0  0  0
    8.1044  -18.7371   23.1295 O   0  0  0  0  0  0  0  0  0  0  0  0
    7.9165  -16.2907   19.6656 C   0  0  0  0  0  0  0  0  0  0  0  0
    9.3183  -16.2943   20.1485 C   0  0  1  0  0  0  0  0  0  0  0  0
    9.6738  -14.9262   20.3050 O   0  0  0  0  0  0  0  0  0  0  0  0
    9.5848  -17.0388   21.4252 C   0  0  2  0  0  0  0  0  0  0  0  0
    8.6341  -16.5951   22.4620 N   0  0  0  0  0  0  0  0  0  0  0  0
   10.9654  -16.9132   21.9375 C   0  0  0  0  0  0  0  0  0  0  0  0
   11.3015  -15.9334   22.6883 O   0  0  0  0  0  0  0  0  0  0  0  0
   13.0914  -19.4733   23.6971 O   0  0  0  0  0  0  0  0  0  0  0  0
   13.8190  -19.0853   22.5648 C   0  0  0  0  0  0  0  0  0  0  0  0
   13.3434  -17.6650   22.2252 C   0  0  2  0  0  0  0  0  0  0  0  0
   12.0132  -17.8239   21.6665 N   0  0  0  0  0  0  0  0  0  0  0  0
   14.2138  -17.0737   21.1974 C   0  0  0  0  0  0  0  0  0  0  0  0
   15.5015  -16.6966   21.5184 O   0  0  0  0  0  0  0  0  0  0  0  0
   13.7961  -16.9108   20.0373 O   0  0  0  0  0  0  0  0  0  0  0  0
  2  1  1  1
  2  3  1  0
  2 13  1  0
  4 12  1  0
  4  3  1  0
  5  4  2  0
  6  5  1  0
  6  7  1  0
  7  8  1  0
  7 12  2  0
  8  9  2  0
  9 10  1  0
 11 10  2  0
 12 11  1  0
 13 14  2  0
 16 18  1  0
 16 15  1  1
 17 16  1  0
 19 13  1  0
 18 19  1  1
 20 25  1  0
 20 18  1  0
 21 20  2  0
 23 22  1  0
 24 25  1  0
 24 23  1  6
 26 27  1  0
 26 24  1  0
 28 26  2  0
M  END
$$$$
