WTS.pdb
     RDKit          3D

 28 29  0  0  1  0  0  0  0  0999 V2000
    6.9222  -17.4587   23.1086 N   0  0  0  0  0  0  0  0  0  0  0  0
    7.2899  -16.0619   22.9693 C   0  0  1  0  0  0  0  0  0  0  0  0
    8.1144  -15.6642   24.1733 C   0  0  0  0  0  0  0  0  0  0  0  0
    7.2454  -15.0983   25.2430 C   0  0  0  0  0  0  0  0  0  0  0  0
    6.2563  -15.7343   25.9457 C   0  0  0  0  0  0  0  0  0  0  0  0
    5.7406  -14.8481   26.8038 N   0  0  0  0  0  0  0  0  0  0  0  0
    6.3657  -13.6676   26.6737 C   0  0  0  0  0  0  0  0  0  0  0  0
    6.2303  -12.4296   27.3051 C   0  0  0  0  0  0  0  0  0  0  0  0
    7.0292  -11.3609   26.9620 C   0  0  0  0  0  0  0  0  0  0  0  0
    7.9918  -11.4793   25.9805 C   0  0  0  0  0  0  0  0  0  0  0  0
    8.1083  -12.7098   25.3704 C   0  0  0  0  0  0  0  0  0  0  0  0
    7.3065  -13.8025   25.7068 C   0  0  0  0  0  0  0  0  0  0  0  0
    8.0482  -15.9266   21.7054 C   0  0  0  0  0  0  0  0  0  0  0  0
    8.6169  -16.9527   21.2519 O   0  0  0  0  0  0  0  0  0  0  0  0
    9.2020  -13.0187   17.7526 C   0  0  0  0  0  0  0  0  0  0  0  0
    8.4344  -13.3823   18.9679 C   0  0  1  0  0  0  0  0  0  0  0  0
    7.0923  -13.5643   18.5340 O   0  0  0  0  0  0  0  0  0  0  0  0
    8.8982  -14.6008   19.7133 C   0  0  2  0  0  0  0  0  0  0  0  0
    8.1636  -14.7079   20.9878 N   0  0  0  0  0  0  0  0  0  0  0  0
   10.3515  -14.6479   19.9776 C   0  0  0  0  0  0  0  0  0  0  0  0
   10.8640  -13.9964   20.9521 O   0  0  0  0  0  0  0  0  0  0  0  0
   12.4552  -17.2468   18.1460 O   0  0  0  0  0  0  0  0  0  0  0  0
   13.2382  -16.7483   19.1951 C   0  0  0  0  0  0  0  0  0  0  0  0
   12.7143  -15.3320   19.4752 C   0  0  2  0  0  0  0  0  0  0  0  0
   11.2869  -15.3878   19.2171 N   0  0  0  0  0  0  0  0  0  0  0  0
   13.3211  -14.3749   18.5375 C   0  0  0  0  0  0  0  0  0  0  0  0
   14.5985  -13.9049   18.7629 O   0  0  0  0  0  0  0  0  0  0  0  0
   12.6891  -13.9851   17.5399 O   0  0  0  0  0  0  0  0  0  0  0  0
  2  1  1  1
  2  3  1  0
  2 13  1  0
  4 12  1  0
  4  3  1  0
  5  4  2  0
  6  5  1  0
  6  7  1  0
  7  8  1  0
  7 12  2  0
  8  9  2  0
  9 10  1  0
 11 10  2  0
 12 11  1  0
 13 14  2  0
 16 18  1  0
 16 15  1  6
 17 16  1  0
 19 13  1  0
 18 19  1  1
 20 25  1  0
 20 18  1  0
 21 20  2  0
 23 22  1  0
 24 25  1  0
 24 23  1  6
 26 27  1  0
 26 24  1  0
 28 26  2  0
M  END
$$$$
