WTS.pdb
     RDKit          3D

 28 29  0  0  1  0  0  0  0  0999 V2000
    6.1106  -17.8923   24.2925 N   0  0  0  0  0  0  0  0  0  0  0  0
    6.5882  -16.5526   24.0043 C   0  0  1  0  0  0  0  0  0  0  0  0
    7.4465  -16.0939   25.1621 C   0  0  0  0  0  0  0  0  0  0  0  0
    6.7315  -15.0701   25.9745 C   0  0  0  0  0  0  0  0  0  0  0  0
    5.5360  -15.2029   26.6300 C   0  0  0  0  0  0  0  0  0  0  0  0
    5.2756  -14.0367   27.2297 N   0  0  0  0  0  0  0  0  0  0  0  0
    6.2633  -13.1629   26.9802 C   0  0  0  0  0  0  0  0  0  0  0  0
    6.4945  -11.8367   27.3507 C   0  0  0  0  0  0  0  0  0  0  0  0
    7.6256  -11.1663   26.9394 C   0  0  0  0  0  0  0  0  0  0  0  0
    8.5693  -11.7850   26.1454 C   0  0  0  0  0  0  0  0  0  0  0  0
    8.3211  -13.0938   25.7913 C   0  0  0  0  0  0  0  0  0  0  0  0
    7.1799  -13.7870   26.2001 C   0  0  0  0  0  0  0  0  0  0  0  0
    7.3500  -16.6162   22.7369 C   0  0  0  0  0  0  0  0  0  0  0  0
    7.9181  -17.7010   22.4497 O   0  0  0  0  0  0  0  0  0  0  0  0
    8.4502  -13.1181   20.3894 C   0  0  0  0  0  0  0  0  0  0  0  0
    7.9571  -14.3656   19.7579 C   0  0  1  0  0  0  0  0  0  0  0  0
    8.6325  -14.4569   18.5097 O   0  0  0  0  0  0  0  0  0  0  0  0
    8.1543  -15.6340   20.5375 C   0  0  2  0  0  0  0  0  0  0  0  0
    7.4693  -15.5238   21.8391 N   0  0  0  0  0  0  0  0  0  0  0  0
    9.5661  -16.0129   20.7550 C   0  0  0  0  0  0  0  0  0  0  0  0
   10.2361  -15.5222   21.7281 O   0  0  0  0  0  0  0  0  0  0  0  0
   10.9288  -18.9491   18.8094 O   0  0  0  0  0  0  0  0  0  0  0  0
   11.8871  -18.6782   19.7944 C   0  0  0  0  0  0  0  0  0  0  0  0
   11.6990  -17.2008   20.1696 C   0  0  2  0  0  0  0  0  0  0  0  0
   10.2922  -16.9199   19.9483 N   0  0  0  0  0  0  0  0  0  0  0  0
   12.4923  -16.3472   19.2721 C   0  0  0  0  0  0  0  0  0  0  0  0
   13.8705  -16.3974   19.3130 O   0  0  0  0  0  0  0  0  0  0  0  0
   11.9280  -15.5783   18.4740 O   0  0  0  0  0  0  0  0  0  0  0  0
  2  1  1  1
  2  3  1  0
  2 13  1  0
  4 12  1  0
  4  3  1  0
  5  4  2  0
  6  5  1  0
  6  7  1  0
  7  8  1  0
  7 12  2  0
  8  9  2  0
  9 10  1  0
 11 10  2  0
 12 11  1  0
 13 14  2  0
 16 18  1  0
 16 15  1  1
 17 16  1  0
 19 13  1  0
 18 19  1  1
 20 25  1  0
 20 18  1  0
 21 20  2  0
 23 22  1  0
 24 25  1  0
 24 23  1  6
 26 27  1  0
 26 24  1  0
 28 26  2  0
M  END
$$$$
