VMN.pdb
     RDKit          3D

 24 23  0  0  1  0  0  0  0  0999 V2000
    7.8531  -12.1270   20.2038 C   0  0  0  0  0  0  0  0  0  0  0  0
    8.5054  -13.2038   19.3501 C   0  0  2  0  0  0  0  0  0  0  0  0
    7.6350  -13.3206   18.0989 C   0  0  0  0  0  0  0  0  0  0  0  0
    8.4649  -14.5359   20.0342 C   0  0  2  0  0  0  0  0  0  0  0  0
    7.1030  -15.0313   19.9753 N   0  0  0  0  0  0  0  0  0  0  0  0
    8.9178  -14.4647   21.4491 C   0  0  0  0  0  0  0  0  0  0  0  0
   10.1475  -14.4109   21.6983 O   0  0  0  0  0  0  0  0  0  0  0  0
    6.4817  -11.0763   26.8170 C   0  0  0  0  0  0  0  0  0  0  0  0
    6.3759  -12.8707   27.1219 S   0  0  0  0  0  0  0  0  0  0  0  0
    7.7308  -13.7384   26.2514 C   0  0  0  0  0  0  0  0  0  0  0  0
    7.2920  -13.8120   24.7827 C   0  0  0  0  0  0  0  0  0  0  0  0
    8.4291  -14.3852   23.9271 C   0  0  2  0  0  0  0  0  0  0  0  0
    8.0164  -14.4551   22.5358 N   0  0  0  0  0  0  0  0  0  0  0  0
    8.7430  -15.7273   24.4698 C   0  0  0  0  0  0  0  0  0  0  0  0
    7.8709  -16.6291   24.4080 O   0  0  0  0  0  0  0  0  0  0  0  0
   12.0401  -20.1713   24.1278 N   0  0  0  0  0  0  0  0  0  0  0  0
   12.3383  -19.0128   24.8877 C   0  0  0  0  0  0  0  0  0  0  0  0
   13.1039  -19.1316   25.8727 O   0  0  0  0  0  0  0  0  0  0  0  0
   11.7814  -17.6930   24.5569 C   0  0  0  0  0  0  0  0  0  0  0  0
   10.4669  -17.4118   25.1967 C   0  0  2  0  0  0  0  0  0  0  0  0
    9.9931  -16.0678   25.0685 N   0  0  0  0  0  0  0  0  0  0  0  0
   10.5807  -17.7483   26.6547 C   0  0  0  0  0  0  0  0  0  0  0  0
   10.9114  -18.9064   27.0139 O   0  0  0  0  0  0  0  0  0  0  0  0
   10.3318  -16.8171   27.6535 O   0  0  0  0  0  0  0  0  0  0  0  0
  2  1  1  1
  2  3  1  0
  4  2  1  0
  4  6  1  0
  4  5  1  1
  6 13  1  0
  6  7  2  0
  9  8  1  0
 10  9  1  0
 11 10  1  0
 12 11  1  1
 13 12  1  0
 14 12  1  0
 14 15  2  0
 16 17  1  0
 17 19  1  0
 18 17  2  0
 20 19  1  1
 20 21  1  0
 21 14  1  0
 22 20  1  0
 23 22  2  0
 24 22  1  0
M  END
$$$$
