VMN.pdb
     RDKit          3D

 24 23  0  0  1  0  0  0  0  0999 V2000
    7.3773  -12.6721   20.2336 C   0  0  0  0  0  0  0  0  0  0  0  0
    8.4005  -13.6466   19.6706 C   0  0  2  0  0  0  0  0  0  0  0  0
    7.8629  -14.0629   18.3016 C   0  0  0  0  0  0  0  0  0  0  0  0
    8.4800  -14.8895   20.5032 C   0  0  2  0  0  0  0  0  0  0  0  0
    7.2140  -15.5883   20.3912 N   0  0  0  0  0  0  0  0  0  0  0  0
    8.7754  -14.6013   21.9321 C   0  0  0  0  0  0  0  0  0  0  0  0
    9.9268  -14.2183   22.2559 O   0  0  0  0  0  0  0  0  0  0  0  0
    6.7059  -10.6232   27.1047 C   0  0  0  0  0  0  0  0  0  0  0  0
    5.8081  -12.1869   26.8351 S   0  0  0  0  0  0  0  0  0  0  0  0
    6.9874  -13.5324   26.4533 C   0  0  0  0  0  0  0  0  0  0  0  0
    6.7418  -13.8854   24.9802 C   0  0  0  0  0  0  0  0  0  0  0  0
    8.0424  -14.3888   24.3410 C   0  0  2  0  0  0  0  0  0  0  0  0
    7.8082  -14.7413   22.9511 N   0  0  0  0  0  0  0  0  0  0  0  0
    8.4866  -15.5599   25.1319 C   0  0  0  0  0  0  0  0  0  0  0  0
    8.7189  -15.4149   26.3577 O   0  0  0  0  0  0  0  0  0  0  0  0
    6.3264  -19.3704   23.4408 N   0  0  0  0  0  0  0  0  0  0  0  0
    6.9013  -19.1598   24.7189 C   0  0  0  0  0  0  0  0  0  0  0  0
    6.1406  -18.8582   25.6681 O   0  0  0  0  0  0  0  0  0  0  0  0
    8.3465  -19.2836   24.9589 C   0  0  0  0  0  0  0  0  0  0  0  0
    9.0043  -18.0123   25.3682 C   0  0  2  0  0  0  0  0  0  0  0  0
    8.6710  -16.8641   24.5821 N   0  0  0  0  0  0  0  0  0  0  0  0
   10.4893  -18.2217   25.3145 C   0  0  0  0  0  0  0  0  0  0  0  0
   11.2094  -17.4740   24.6060 O   0  0  0  0  0  0  0  0  0  0  0  0
   11.1236  -19.2287   26.0287 O   0  0  0  0  0  0  0  0  0  0  0  0
  2  1  1  1
  2  3  1  0
  4  2  1  0
  4  6  1  0
  4  5  1  1
  6 13  1  0
  6  7  2  0
  9  8  1  0
 10  9  1  0
 11 10  1  0
 12 11  1  1
 13 12  1  0
 14 12  1  0
 14 15  2  0
 16 17  1  0
 17 19  1  0
 18 17  2  0
 20 19  1  6
 20 21  1  0
 21 14  1  0
 22 20  1  0
 23 22  2  0
 24 22  1  0
M  END
$$$$
