VMN.pdb
     RDKit          3D

 24 23  0  0  1  0  0  0  0  0999 V2000
    7.4472  -12.3787   20.6541 C   0  0  0  0  0  0  0  0  0  0  0  0
    8.3164  -13.3085   19.8213 C   0  0  2  0  0  0  0  0  0  0  0  0
    7.5926  -13.4605   18.4835 C   0  0  0  0  0  0  0  0  0  0  0  0
    8.3905  -14.6738   20.4335 C   0  0  2  0  0  0  0  0  0  0  0  0
    7.0740  -15.2768   20.3501 N   0  0  0  0  0  0  0  0  0  0  0  0
    8.8441  -14.6403   21.8495 C   0  0  0  0  0  0  0  0  0  0  0  0
   10.0501  -14.3979   22.1024 O   0  0  0  0  0  0  0  0  0  0  0  0
    5.9806  -10.7910   27.0027 C   0  0  0  0  0  0  0  0  0  0  0  0
    6.1725  -12.5938   26.8106 S   0  0  0  0  0  0  0  0  0  0  0  0
    7.0296  -12.9721   25.2393 C   0  0  0  0  0  0  0  0  0  0  0  0
    7.2098  -14.4960   25.2286 C   0  0  0  0  0  0  0  0  0  0  0  0
    8.3894  -14.8752   24.3240 C   0  0  2  0  0  0  0  0  0  0  0  0
    7.9693  -14.8719   22.9333 N   0  0  0  0  0  0  0  0  0  0  0  0
    8.8464  -16.2179   24.7513 C   0  0  0  0  0  0  0  0  0  0  0  0
    8.0399  -17.1797   24.7048 O   0  0  0  0  0  0  0  0  0  0  0  0
   10.9972  -18.5364   23.0443 N   0  0  0  0  0  0  0  0  0  0  0  0
   12.0947  -18.5238   23.9408 C   0  0  0  0  0  0  0  0  0  0  0  0
   13.2320  -18.7925   23.4882 O   0  0  0  0  0  0  0  0  0  0  0  0
   11.9380  -18.2084   25.3681 C   0  0  0  0  0  0  0  0  0  0  0  0
   10.5679  -17.7636   25.7439 C   0  0  2  0  0  0  0  0  0  0  0  0
   10.1658  -16.4942   25.2203 N   0  0  0  0  0  0  0  0  0  0  0  0
   10.4916  -17.7159   27.2419 C   0  0  0  0  0  0  0  0  0  0  0  0
   10.6517  -18.7631   27.9182 O   0  0  0  0  0  0  0  0  0  0  0  0
   10.2462  -16.5392   27.9359 O   0  0  0  0  0  0  0  0  0  0  0  0
  2  1  1  1
  2  3  1  0
  4  2  1  0
  4  6  1  0
  4  5  1  1
  6 13  1  0
  6  7  2  0
  9  8  1  0
 10  9  1  0
 11 10  1  0
 12 11  1  1
 13 12  1  0
 14 12  1  0
 14 15  2  0
 16 17  1  0
 17 19  1  0
 18 17  2  0
 20 19  1  1
 20 21  1  0
 21 14  1  0
 22 20  1  0
 23 22  2  0
 24 22  1  0
M  END
$$$$
