VMN.pdb
     RDKit          3D

 24 23  0  0  1  0  0  0  0  0999 V2000
    7.3753  -12.4558   20.6730 C   0  0  0  0  0  0  0  0  0  0  0  0
    8.3777  -13.2743   19.8737 C   0  0  2  0  0  0  0  0  0  0  0  0
    7.7601  -13.4401   18.4853 C   0  0  0  0  0  0  0  0  0  0  0  0
    8.5343  -14.6494   20.4474 C   0  0  2  0  0  0  0  0  0  0  0  0
    7.2570  -15.3287   20.3438 N   0  0  0  0  0  0  0  0  0  0  0  0
    8.9841  -14.6285   21.8649 C   0  0  0  0  0  0  0  0  0  0  0  0
   10.1558  -14.2640   22.1320 O   0  0  0  0  0  0  0  0  0  0  0  0
    6.4284  -10.7917   26.2637 C   0  0  0  0  0  0  0  0  0  0  0  0
    7.2568  -12.4156   26.2837 S   0  0  0  0  0  0  0  0  0  0  0  0
    6.4726  -13.5377   25.0702 C   0  0  0  0  0  0  0  0  0  0  0  0
    7.2251  -14.8690   25.1987 C   0  0  0  0  0  0  0  0  0  0  0  0
    8.4924  -14.8369   24.3347 C   0  0  2  0  0  0  0  0  0  0  0  0
    8.1428  -15.0047   22.9346 N   0  0  0  0  0  0  0  0  0  0  0  0
    9.3677  -15.9325   24.8121 C   0  0  0  0  0  0  0  0  0  0  0  0
   10.0011  -15.7825   25.8863 O   0  0  0  0  0  0  0  0  0  0  0  0
   13.5274  -18.6758   26.0545 N   0  0  0  0  0  0  0  0  0  0  0  0
   12.9327  -18.6920   24.7682 C   0  0  0  0  0  0  0  0  0  0  0  0
   13.2694  -19.5989   23.9716 O   0  0  0  0  0  0  0  0  0  0  0  0
   11.9448  -17.6876   24.3482 C   0  0  0  0  0  0  0  0  0  0  0  0
   10.5314  -18.1387   24.4712 C   0  0  2  0  0  0  0  0  0  0  0  0
    9.5409  -17.1681   24.1189 N   0  0  0  0  0  0  0  0  0  0  0  0
   10.3050  -18.5686   25.8910 C   0  0  0  0  0  0  0  0  0  0  0  0
    9.3461  -18.0951   26.5512 O   0  0  0  0  0  0  0  0  0  0  0  0
   11.1257  -19.4889   26.5283 O   0  0  0  0  0  0  0  0  0  0  0  0
  2  1  1  1
  2  3  1  0
  4  2  1  0
  4  6  1  0
  4  5  1  1
  6 13  1  0
  6  7  2  0
  9  8  1  0
 10  9  1  0
 11 10  1  0
 12 11  1  1
 13 12  1  0
 14 12  1  0
 14 15  2  0
 16 17  1  0
 17 19  1  0
 18 17  2  0
 20 19  1  1
 20 21  1  0
 21 14  1  0
 22 20  1  0
 23 22  2  0
 24 22  1  0
M  END
$$$$
