VMN.pdb
     RDKit          3D

 24 23  0  0  1  0  0  0  0  0999 V2000
    7.1652  -12.5221   20.5413 C   0  0  0  0  0  0  0  0  0  0  0  0
    8.1362  -13.4279   19.7995 C   0  0  2  0  0  0  0  0  0  0  0  0
    7.4670  -13.7408   18.4613 C   0  0  0  0  0  0  0  0  0  0  0  0
    8.3126  -14.7330   20.5134 C   0  0  2  0  0  0  0  0  0  0  0  0
    7.0537  -15.4510   20.4572 N   0  0  0  0  0  0  0  0  0  0  0  0
    8.7330  -14.5567   21.9292 C   0  0  0  0  0  0  0  0  0  0  0  0
    9.8707  -14.0867   22.1779 O   0  0  0  0  0  0  0  0  0  0  0  0
    7.1890  -11.6490   27.5321 C   0  0  0  0  0  0  0  0  0  0  0  0
    5.9018  -12.5558   26.6130 S   0  0  0  0  0  0  0  0  0  0  0  0
    6.5708  -13.1574   25.0202 C   0  0  0  0  0  0  0  0  0  0  0  0
    7.1195  -14.5607   25.3112 C   0  0  0  0  0  0  0  0  0  0  0  0
    8.3243  -14.8475   24.4058 C   0  0  2  0  0  0  0  0  0  0  0  0
    7.9004  -14.8985   23.0171 N   0  0  0  0  0  0  0  0  0  0  0  0
    8.8979  -16.1398   24.8476 C   0  0  0  0  0  0  0  0  0  0  0  0
    8.1829  -17.1715   24.8018 O   0  0  0  0  0  0  0  0  0  0  0  0
   13.4968  -16.3107   23.6690 N   0  0  0  0  0  0  0  0  0  0  0  0
   12.5805  -17.3500   23.9667 C   0  0  0  0  0  0  0  0  0  0  0  0
   12.0470  -17.9608   23.0113 O   0  0  0  0  0  0  0  0  0  0  0  0
   12.2429  -17.7263   25.3472 C   0  0  0  0  0  0  0  0  0  0  0  0
   10.8042  -17.5530   25.6884 C   0  0  2  0  0  0  0  0  0  0  0  0
   10.2327  -16.2912   25.3300 N   0  0  0  0  0  0  0  0  0  0  0  0
   10.6526  -17.7506   27.1682 C   0  0  0  0  0  0  0  0  0  0  0  0
   10.1078  -16.8644   27.8733 O   0  0  0  0  0  0  0  0  0  0  0  0
   11.0972  -18.8961   27.8139 O   0  0  0  0  0  0  0  0  0  0  0  0
  2  1  1  1
  2  3  1  0
  4  2  1  0
  4  6  1  0
  4  5  1  1
  6 13  1  0
  6  7  2  0
  9  8  1  0
 10  9  1  0
 11 10  1  0
 12 11  1  1
 13 12  1  0
 14 12  1  0
 14 15  2  0
 16 17  1  0
 17 19  1  0
 18 17  2  0
 20 19  1  1
 20 21  1  0
 21 14  1  0
 22 20  1  0
 23 22  2  0
 24 22  1  0
M  END
$$$$
