VMN.pdb
     RDKit          3D

 24 23  0  0  1  0  0  0  0  0999 V2000
    7.3445  -12.9012   20.3658 C   0  0  0  0  0  0  0  0  0  0  0  0
    8.4415  -13.8207   19.8512 C   0  0  2  0  0  0  0  0  0  0  0  0
    7.9157  -14.3923   18.5345 C   0  0  0  0  0  0  0  0  0  0  0  0
    8.6536  -14.9807   20.7751 C   0  0  2  0  0  0  0  0  0  0  0  0
    7.4718  -15.8199   20.7231 N   0  0  0  0  0  0  0  0  0  0  0  0
    8.9114  -14.5543   22.1765 C   0  0  0  0  0  0  0  0  0  0  0  0
   10.0462  -14.1140   22.4855 O   0  0  0  0  0  0  0  0  0  0  0  0
    5.7436  -10.9043   26.6163 C   0  0  0  0  0  0  0  0  0  0  0  0
    7.3302  -11.7470   26.9270 S   0  0  0  0  0  0  0  0  0  0  0  0
    7.1306  -13.5555   26.7372 C   0  0  0  0  0  0  0  0  0  0  0  0
    6.8928  -13.7855   25.2387 C   0  0  0  0  0  0  0  0  0  0  0  0
    8.1760  -14.3100   24.5816 C   0  0  2  0  0  0  0  0  0  0  0  0
    7.9260  -14.6238   23.1853 N   0  0  0  0  0  0  0  0  0  0  0  0
    8.5909  -15.5107   25.3435 C   0  0  0  0  0  0  0  0  0  0  0  0
    8.8732  -15.3924   26.5616 O   0  0  0  0  0  0  0  0  0  0  0  0
    6.3598  -20.0364   26.2124 N   0  0  0  0  0  0  0  0  0  0  0  0
    7.0245  -19.2796   25.2154 C   0  0  0  0  0  0  0  0  0  0  0  0
    6.3276  -18.6126   24.4154 O   0  0  0  0  0  0  0  0  0  0  0  0
    8.4895  -19.2559   25.0952 C   0  0  0  0  0  0  0  0  0  0  0  0
    9.1112  -17.9683   25.5100 C   0  0  2  0  0  0  0  0  0  0  0  0
    8.6925  -16.8153   24.7734 N   0  0  0  0  0  0  0  0  0  0  0  0
   10.5995  -18.1109   25.3820 C   0  0  0  0  0  0  0  0  0  0  0  0
   11.2079  -19.0048   26.0225 O   0  0  0  0  0  0  0  0  0  0  0  0
   11.3579  -17.2806   24.5683 O   0  0  0  0  0  0  0  0  0  0  0  0
  2  1  1  1
  2  3  1  0
  4  2  1  0
  4  6  1  0
  4  5  1  1
  6 13  1  0
  6  7  2  0
  9  8  1  0
 10  9  1  0
 11 10  1  0
 12 11  1  1
 13 12  1  0
 14 12  1  0
 14 15  2  0
 16 17  1  0
 17 19  1  0
 18 17  2  0
 20 19  1  6
 20 21  1  0
 21 14  1  0
 22 20  1  0
 23 22  2  0
 24 22  1  0
M  END
$$$$
