VMN.pdb
     RDKit          3D

 24 23  0  0  1  0  0  0  0  0999 V2000
    7.3983  -12.5875   20.5733 C   0  0  0  0  0  0  0  0  0  0  0  0
    8.3386  -13.4824   19.7804 C   0  0  2  0  0  0  0  0  0  0  0  0
    7.6234  -13.7627   18.4588 C   0  0  0  0  0  0  0  0  0  0  0  0
    8.5305  -14.8035   20.4601 C   0  0  2  0  0  0  0  0  0  0  0  0
    7.2753  -15.5277   20.3996 N   0  0  0  0  0  0  0  0  0  0  0  0
    8.9651  -14.6594   21.8752 C   0  0  0  0  0  0  0  0  0  0  0  0
   10.1213  -14.2362   22.1224 O   0  0  0  0  0  0  0  0  0  0  0  0
    6.0900  -11.8925   27.5207 C   0  0  0  0  0  0  0  0  0  0  0  0
    7.5771  -11.8885   26.4659 S   0  0  0  0  0  0  0  0  0  0  0  0
    7.2183  -12.7048   24.8685 C   0  0  0  0  0  0  0  0  0  0  0  0
    7.3281  -14.2102   25.1450 C   0  0  0  0  0  0  0  0  0  0  0  0
    8.5034  -14.8010   24.3555 C   0  0  2  0  0  0  0  0  0  0  0  0
    8.1260  -14.9812   22.9642 N   0  0  0  0  0  0  0  0  0  0  0  0
    8.8492  -16.0906   24.9971 C   0  0  0  0  0  0  0  0  0  0  0  0
    9.1187  -16.1083   26.2238 O   0  0  0  0  0  0  0  0  0  0  0  0
   13.7470  -17.8319   23.7049 N   0  0  0  0  0  0  0  0  0  0  0  0
   12.4512  -18.3983   23.6122 C   0  0  0  0  0  0  0  0  0  0  0  0
   12.3513  -19.6472   23.5869 O   0  0  0  0  0  0  0  0  0  0  0  0
   11.2370  -17.5721   23.5457 C   0  0  0  0  0  0  0  0  0  0  0  0
   10.0620  -18.1638   24.2427 C   0  0  2  0  0  0  0  0  0  0  0  0
    8.8969  -17.3352   24.3000 N   0  0  0  0  0  0  0  0  0  0  0  0
   10.4800  -18.5093   25.6420 C   0  0  0  0  0  0  0  0  0  0  0  0
   10.4734  -19.7052   26.0282 O   0  0  0  0  0  0  0  0  0  0  0  0
   10.8847  -17.5458   26.5555 O   0  0  0  0  0  0  0  0  0  0  0  0
  2  1  1  1
  2  3  1  0
  4  2  1  0
  4  6  1  0
  4  5  1  1
  6 13  1  0
  6  7  2  0
  9  8  1  0
 10  9  1  0
 11 10  1  0
 12 11  1  1
 13 12  1  0
 14 12  1  0
 14 15  2  0
 16 17  1  0
 17 19  1  0
 18 17  2  0
 20 19  1  1
 20 21  1  0
 21 14  1  0
 22 20  1  0
 23 22  2  0
 24 22  1  0
M  END
$$$$
