VMN.pdb
     RDKit          3D

 24 23  0  0  1  0  0  0  0  0999 V2000
    7.9542  -18.3879   20.9157 C   0  0  0  0  0  0  0  0  0  0  0  0
    6.7727  -17.4802   20.6097 C   0  0  2  0  0  0  0  0  0  0  0  0
    6.1029  -18.0790   19.3729 C   0  0  0  0  0  0  0  0  0  0  0  0
    7.2301  -16.1041   20.2335 C   0  0  2  0  0  0  0  0  0  0  0  0
    8.1006  -16.2187   19.0790 N   0  0  0  0  0  0  0  0  0  0  0  0
    7.9457  -15.4178   21.3420 C   0  0  0  0  0  0  0  0  0  0  0  0
    9.2012  -15.4358   21.3665 O   0  0  0  0  0  0  0  0  0  0  0  0
    5.9230  -12.1923   27.8899 C   0  0  0  0  0  0  0  0  0  0  0  0
    6.3729  -11.5135   26.2587 S   0  0  0  0  0  0  0  0  0  0  0  0
    7.6419  -12.5664   25.4666 C   0  0  0  0  0  0  0  0  0  0  0  0
    6.9471  -13.2026   24.2551 C   0  0  0  0  0  0  0  0  0  0  0  0
    7.9389  -14.0898   23.4918 C   0  0  2  0  0  0  0  0  0  0  0  0
    7.2684  -14.7400   22.3790 N   0  0  0  0  0  0  0  0  0  0  0  0
    8.4681  -15.0775   24.4606 C   0  0  0  0  0  0  0  0  0  0  0  0
    7.6610  -15.7332   25.1651 O   0  0  0  0  0  0  0  0  0  0  0  0
    8.8274  -18.5512   26.4895 N   0  0  0  0  0  0  0  0  0  0  0  0
    9.1901  -18.7521   25.1343 C   0  0  0  0  0  0  0  0  0  0  0  0
    8.7862  -19.7906   24.5609 O   0  0  0  0  0  0  0  0  0  0  0  0
   10.0162  -17.7885   24.3923 C   0  0  0  0  0  0  0  0  0  0  0  0
   10.3693  -16.5683   25.1687 C   0  0  2  0  0  0  0  0  0  0  0  0
    9.8591  -15.3368   24.6486 N   0  0  0  0  0  0  0  0  0  0  0  0
   11.8658  -16.4816   25.2387 C   0  0  0  0  0  0  0  0  0  0  0  0
   12.5292  -17.4014   25.7803 O   0  0  0  0  0  0  0  0  0  0  0  0
   12.5724  -15.4052   24.7202 O   0  0  0  0  0  0  0  0  0  0  0  0
  2  1  1  6
  2  3  1  0
  4  2  1  0
  4  6  1  0
  4  5  1  6
  6 13  1  0
  6  7  2  0
  9  8  1  0
 10  9  1  0
 11 10  1  0
 12 11  1  1
 13 12  1  0
 14 12  1  0
 14 15  2  0
 16 17  1  0
 17 19  1  0
 18 17  2  0
 20 19  1  6
 20 21  1  0
 21 14  1  0
 22 20  1  0
 23 22  2  0
 24 22  1  0
M  END
$$$$
