VMN.pdb
     RDKit          3D

 24 23  0  0  1  0  0  0  0  0999 V2000
    7.2021  -12.8869   20.0988 C   0  0  0  0  0  0  0  0  0  0  0  0
    8.3699  -13.6931   19.5512 C   0  0  2  0  0  0  0  0  0  0  0  0
    7.8630  -14.3233   18.2541 C   0  0  0  0  0  0  0  0  0  0  0  0
    8.7288  -14.8198   20.4710 C   0  0  2  0  0  0  0  0  0  0  0  0
    7.6408  -15.7788   20.4545 N   0  0  0  0  0  0  0  0  0  0  0  0
    8.9799  -14.3617   21.8636 C   0  0  0  0  0  0  0  0  0  0  0  0
    9.9772  -13.6363   22.1010 O   0  0  0  0  0  0  0  0  0  0  0  0
    6.8723  -11.0128   27.1537 C   0  0  0  0  0  0  0  0  0  0  0  0
    6.1429  -12.6828   27.0997 S   0  0  0  0  0  0  0  0  0  0  0  0
    7.4010  -13.9029   26.5750 C   0  0  0  0  0  0  0  0  0  0  0  0
    7.1035  -14.1867   25.0965 C   0  0  0  0  0  0  0  0  0  0  0  0
    8.4174  -14.3742   24.3270 C   0  0  2  0  0  0  0  0  0  0  0  0
    8.1375  -14.7105   22.9417 N   0  0  0  0  0  0  0  0  0  0  0  0
    9.1660  -15.4554   25.0089 C   0  0  0  0  0  0  0  0  0  0  0  0
    9.5712  -15.2695   26.1832 O   0  0  0  0  0  0  0  0  0  0  0  0
   11.6588  -18.1180   22.5718 N   0  0  0  0  0  0  0  0  0  0  0  0
   12.3874  -17.6602   23.6979 C   0  0  0  0  0  0  0  0  0  0  0  0
   13.6154  -17.4499   23.5630 O   0  0  0  0  0  0  0  0  0  0  0  0
   11.7508  -17.4283   25.0026 C   0  0  0  0  0  0  0  0  0  0  0  0
   10.2889  -17.7086   25.0224 C   0  0  2  0  0  0  0  0  0  0  0  0
    9.4618  -16.7158   24.4079 N   0  0  0  0  0  0  0  0  0  0  0  0
    9.8684  -17.8712   26.4537 C   0  0  0  0  0  0  0  0  0  0  0  0
    8.9995  -17.1102   26.9493 O   0  0  0  0  0  0  0  0  0  0  0  0
   10.4072  -18.8479   27.2798 O   0  0  0  0  0  0  0  0  0  0  0  0
  2  1  1  1
  2  3  1  0
  4  2  1  0
  4  6  1  0
  4  5  1  1
  6 13  1  0
  6  7  2  0
  9  8  1  0
 10  9  1  0
 11 10  1  0
 12 11  1  1
 13 12  1  0
 14 12  1  0
 14 15  2  0
 16 17  1  0
 17 19  1  0
 18 17  2  0
 20 19  1  1
 20 21  1  0
 21 14  1  0
 22 20  1  0
 23 22  2  0
 24 22  1  0
M  END
$$$$
