VMN.pdb
     RDKit          3D

 24 23  0  0  1  0  0  0  0  0999 V2000
    8.8192  -12.4006   19.7454 C   0  0  0  0  0  0  0  0  0  0  0  0
    7.8179  -13.5378   19.6112 C   0  0  2  0  0  0  0  0  0  0  0  0
    6.6138  -13.1283   20.4592 C   0  0  0  0  0  0  0  0  0  0  0  0
    8.3553  -14.8052   20.2020 C   0  0  2  0  0  0  0  0  0  0  0  0
    7.3296  -15.8246   20.0904 N   0  0  0  0  0  0  0  0  0  0  0  0
    8.7587  -14.6455   21.6247 C   0  0  0  0  0  0  0  0  0  0  0  0
    9.9110  -14.2239   21.8926 O   0  0  0  0  0  0  0  0  0  0  0  0
    6.2429  -11.6936   26.5746 C   0  0  0  0  0  0  0  0  0  0  0  0
    7.7613  -12.6821   26.7776 S   0  0  0  0  0  0  0  0  0  0  0  0
    7.4169  -14.4445   26.4283 C   0  0  0  0  0  0  0  0  0  0  0  0
    7.0325  -14.4994   24.9436 C   0  0  0  0  0  0  0  0  0  0  0  0
    8.2686  -14.8286   24.0968 C   0  0  2  0  0  0  0  0  0  0  0  0
    7.8941  -14.9505   22.6984 N   0  0  0  0  0  0  0  0  0  0  0  0
    8.8270  -16.0957   24.6231 C   0  0  0  0  0  0  0  0  0  0  0  0
    8.1054  -17.1238   24.6293 O   0  0  0  0  0  0  0  0  0  0  0  0
   13.1553  -16.8119   22.9464 N   0  0  0  0  0  0  0  0  0  0  0  0
   12.3072  -17.7246   23.6218 C   0  0  0  0  0  0  0  0  0  0  0  0
   11.6894  -18.5749   22.9394 O   0  0  0  0  0  0  0  0  0  0  0  0
   12.1344  -17.7016   25.0816 C   0  0  0  0  0  0  0  0  0  0  0  0
   10.7304  -17.4764   25.5225 C   0  0  2  0  0  0  0  0  0  0  0  0
   10.1540  -16.2263   25.1322 N   0  0  0  0  0  0  0  0  0  0  0  0
   10.6931  -17.5808   27.0190 C   0  0  0  0  0  0  0  0  0  0  0  0
   11.1564  -18.5972   27.5950 O   0  0  0  0  0  0  0  0  0  0  0  0
   10.1571  -16.5820   27.8201 O   0  0  0  0  0  0  0  0  0  0  0  0
  2  1  1  1
  2  3  1  0
  4  2  1  0
  4  6  1  0
  4  5  1  1
  6 13  1  0
  6  7  2  0
  9  8  1  0
 10  9  1  0
 11 10  1  0
 12 11  1  1
 13 12  1  0
 14 12  1  0
 14 15  2  0
 16 17  1  0
 17 19  1  0
 18 17  2  0
 20 19  1  1
 20 21  1  0
 21 14  1  0
 22 20  1  0
 23 22  2  0
 24 22  1  0
M  END
$$$$
