VMN.pdb
     RDKit          3D

 24 23  0  0  1  0  0  0  0  0999 V2000
    7.1754  -17.9133   18.5937 C   0  0  0  0  0  0  0  0  0  0  0  0
    7.8434  -17.4562   19.8815 C   0  0  2  0  0  0  0  0  0  0  0  0
    7.0544  -18.1173   21.0117 C   0  0  0  0  0  0  0  0  0  0  0  0
    7.7090  -15.9756   20.0654 C   0  0  2  0  0  0  0  0  0  0  0  0
    8.3266  -15.3225   18.9271 N   0  0  0  0  0  0  0  0  0  0  0  0
    8.3369  -15.4979   21.3263 C   0  0  0  0  0  0  0  0  0  0  0  0
    9.5763  -15.6272   21.4824 O   0  0  0  0  0  0  0  0  0  0  0  0
    7.0732  -11.7100   28.2456 C   0  0  0  0  0  0  0  0  0  0  0  0
    6.4963  -12.2128   26.5908 S   0  0  0  0  0  0  0  0  0  0  0  0
    7.6777  -13.3927   25.8435 C   0  0  0  0  0  0  0  0  0  0  0  0
    7.1329  -13.6820   24.4383 C   0  0  0  0  0  0  0  0  0  0  0  0
    8.1690  -14.4740   23.6303 C   0  0  2  0  0  0  0  0  0  0  0  0
    7.5928  -14.8995   22.3664 N   0  0  0  0  0  0  0  0  0  0  0  0
    8.5714  -15.6317   24.4622 C   0  0  0  0  0  0  0  0  0  0  0  0
    7.7034  -16.4787   24.7889 O   0  0  0  0  0  0  0  0  0  0  0  0
   12.9980  -17.3880   23.2279 N   0  0  0  0  0  0  0  0  0  0  0  0
   11.9073  -17.8887   23.9817 C   0  0  0  0  0  0  0  0  0  0  0  0
   11.1172  -18.6849   23.4229 O   0  0  0  0  0  0  0  0  0  0  0  0
   11.6802  -17.5049   25.3826 C   0  0  0  0  0  0  0  0  0  0  0  0
   10.3035  -17.0109   25.6604 C   0  0  2  0  0  0  0  0  0  0  0  0
    9.9040  -15.8508   24.9243 N   0  0  0  0  0  0  0  0  0  0  0  0
   10.2071  -16.7108   27.1275 C   0  0  0  0  0  0  0  0  0  0  0  0
   10.5121  -17.5873   27.9750 O   0  0  0  0  0  0  0  0  0  0  0  0
    9.7857  -15.4784   27.6074 O   0  0  0  0  0  0  0  0  0  0  0  0
  2  1  1  6
  2  3  1  0
  4  2  1  0
  4  6  1  0
  4  5  1  6
  6 13  1  0
  6  7  2  0
  9  8  1  0
 10  9  1  0
 11 10  1  0
 12 11  1  1
 13 12  1  0
 14 12  1  0
 14 15  2  0
 16 17  1  0
 17 19  1  0
 18 17  2  0
 20 19  1  6
 20 21  1  0
 21 14  1  0
 22 20  1  0
 23 22  2  0
 24 22  1  0
M  END
$$$$
