VMN.pdb
     RDKit          3D

 24 23  0  0  1  0  0  0  0  0999 V2000
    7.5586  -12.9438   19.9379 C   0  0  0  0  0  0  0  0  0  0  0  0
    8.5008  -14.0488   19.4851 C   0  0  2  0  0  0  0  0  0  0  0  0
    7.9092  -14.5863   18.1822 C   0  0  0  0  0  0  0  0  0  0  0  0
    8.5104  -15.1859   20.4604 C   0  0  2  0  0  0  0  0  0  0  0  0
    7.1837  -15.7717   20.4822 N   0  0  0  0  0  0  0  0  0  0  0  0
    8.8986  -14.7587   21.8312 C   0  0  0  0  0  0  0  0  0  0  0  0
   10.1156  -14.7076   22.1368 O   0  0  0  0  0  0  0  0  0  0  0  0
    6.2258  -11.0365   28.3550 C   0  0  0  0  0  0  0  0  0  0  0  0
    5.9010  -11.9758   26.8265 S   0  0  0  0  0  0  0  0  0  0  0  0
    7.4787  -12.4417   26.0263 C   0  0  0  0  0  0  0  0  0  0  0  0
    7.0836  -13.1166   24.7059 C   0  0  0  0  0  0  0  0  0  0  0  0
    8.2966  -13.8401   24.1069 C   0  0  2  0  0  0  0  0  0  0  0  0
    7.9489  -14.4048   22.8142 N   0  0  0  0  0  0  0  0  0  0  0  0
    8.6913  -14.8921   25.0721 C   0  0  0  0  0  0  0  0  0  0  0  0
    8.9641  -14.5643   26.2534 O   0  0  0  0  0  0  0  0  0  0  0  0
    6.8563  -19.5595   27.4562 N   0  0  0  0  0  0  0  0  0  0  0  0
    7.6407  -19.5268   26.2763 C   0  0  0  0  0  0  0  0  0  0  0  0
    8.3582  -20.5204   26.0145 O   0  0  0  0  0  0  0  0  0  0  0  0
    7.6361  -18.3747   25.3631 C   0  0  0  0  0  0  0  0  0  0  0  0
    8.6411  -17.3295   25.7004 C   0  0  2  0  0  0  0  0  0  0  0  0
    8.7832  -16.2775   24.7410 N   0  0  0  0  0  0  0  0  0  0  0  0
    9.9691  -18.0052   25.8787 C   0  0  0  0  0  0  0  0  0  0  0  0
   10.8080  -18.0106   24.9429 O   0  0  0  0  0  0  0  0  0  0  0  0
   10.3259  -18.6420   27.0593 O   0  0  0  0  0  0  0  0  0  0  0  0
  2  1  1  1
  2  3  1  0
  4  2  1  0
  4  6  1  0
  4  5  1  1
  6 13  1  0
  6  7  2  0
  9  8  1  0
 10  9  1  0
 11 10  1  0
 12 11  1  1
 13 12  1  0
 14 12  1  0
 14 15  2  0
 16 17  1  0
 17 19  1  0
 18 17  2  0
 20 19  1  6
 20 21  1  0
 21 14  1  0
 22 20  1  0
 23 22  2  0
 24 22  1  0
M  END
$$$$
