EFE.pdb
     RDKit          3D

 30 30  0  0  1  0  0  0  0  0999 V2000
    8.6184  -17.6969   19.9491 N   0  0  0  0  0  0  0  0  0  0  0  0
    9.9707  -17.7621   20.5298 C   0  0  1  0  0  0  0  0  0  0  0  0
   10.9875  -17.3654   19.5154 C   0  0  0  0  0  0  0  0  0  0  0  0
   10.4743  -17.5680   18.1207 C   0  0  0  0  0  0  0  0  0  0  0  0
   11.4646  -18.2352   17.2703 C   0  0  0  0  0  0  0  0  0  0  0  0
   12.6051  -18.5215   17.6873 O   0  0  0  0  0  0  0  0  0  0  0  0
    9.9746  -16.7950   21.6495 C   0  0  0  0  0  0  0  0  0  0  0  0
   11.0148  -16.3840   22.1938 O   0  0  0  0  0  0  0  0  0  0  0  0
   11.1401  -18.5625   15.9643 O   0  0  0  0  0  0  0  0  0  0  0  0
    8.7688  -16.2619   22.1868 N   0  0  0  0  0  0  0  0  0  0  0  0
    8.6505  -15.4820   23.3636 C   0  0  1  0  0  0  0  0  0  0  0  0
    7.5577  -14.5018   23.4398 C   0  0  0  0  0  0  0  0  0  0  0  0
    7.5244  -13.6587   24.6422 C   0  0  0  0  0  0  0  0  0  0  0  0
    8.2933  -12.5332   24.8205 C   0  0  0  0  0  0  0  0  0  0  0  0
    8.1458  -11.8284   26.0113 C   0  0  0  0  0  0  0  0  0  0  0  0
    7.2489  -12.2475   26.9922 C   0  0  0  0  0  0  0  0  0  0  0  0
    6.4847  -13.3771   26.7983 C   0  0  0  0  0  0  0  0  0  0  0  0
    6.6218  -14.0813   25.6257 C   0  0  0  0  0  0  0  0  0  0  0  0
    8.8402  -16.3093   24.6054 C   0  0  0  0  0  0  0  0  0  0  0  0
    8.0648  -17.2690   24.7994 O   0  0  0  0  0  0  0  0  0  0  0  0
    9.8514  -16.0401   25.5350 N   0  0  0  0  0  0  0  0  0  0  0  0
   10.2404  -16.9597   26.6386 C   0  0  1  0  0  0  0  0  0  0  0  0
   11.6226  -17.4223   26.4293 C   0  0  0  0  0  0  0  0  0  0  0  0
   11.8967  -18.3917   25.3471 C   0  0  0  0  0  0  0  0  0  0  0  0
   13.2692  -18.8511   25.1353 C   0  0  0  0  0  0  0  0  0  0  0  0
   13.5971  -20.0922   25.1680 O   0  0  0  0  0  0  0  0  0  0  0  0
    9.9882  -16.1830   27.8587 C   0  0  0  0  0  0  0  0  0  0  0  0
    9.7928  -14.9559   27.8350 O   0  0  0  0  0  0  0  0  0  0  0  0
   14.3426  -17.9750   24.8765 O   0  0  0  0  0  0  0  0  0  0  0  0
    9.9500  -16.7653   29.1313 O   0  0  0  0  0  0  0  0  0  0  0  0
  2  7  1  0
  2  1  1  6
  3  4  1  0
  3  2  1  0
  4  5  1  0
  5  6  2  0
  5  9  1  0
  7  8  2  0
 10  7  1  0
 10 11  1  0
 11 12  1  1
 12 13  1  0
 13 18  2  0
 14 13  1  0
 14 15  2  0
 15 16  1  0
 16 17  2  0
 18 17  1  0
 19 21  1  0
 19 11  1  0
 20 19  2  0
 22 23  1  6
 22 27  1  0
 22 21  1  0
 24 25  1  0
 24 23  1  0
 25 29  1  0
 26 25  2  0
 27 30  1  0
 28 27  2  0
M  END
$$$$
