EFE.pdb
     RDKit          3D

 30 30  0  0  1  0  0  0  0  0999 V2000
   10.4942  -16.1255   19.4571 N   0  0  0  0  0  0  0  0  0  0  0  0
    9.1472  -16.2645   20.0372 C   0  0  1  0  0  0  0  0  0  0  0  0
    8.7146  -17.6899   20.0019 C   0  0  0  0  0  0  0  0  0  0  0  0
    9.6675  -18.5677   20.7577 C   0  0  0  0  0  0  0  0  0  0  0  0
    9.3033  -19.9836   20.6481 C   0  0  0  0  0  0  0  0  0  0  0  0
    9.1953  -20.5524   19.5429 O   0  0  0  0  0  0  0  0  0  0  0  0
    9.2649  -15.8101   21.4404 C   0  0  0  0  0  0  0  0  0  0  0  0
   10.3013  -15.9400   22.1160 O   0  0  0  0  0  0  0  0  0  0  0  0
    9.0684  -20.7236   21.7948 O   0  0  0  0  0  0  0  0  0  0  0  0
    8.1828  -15.1840   22.1213 N   0  0  0  0  0  0  0  0  0  0  0  0
    8.2127  -14.6628   23.4383 C   0  0  1  0  0  0  0  0  0  0  0  0
    7.2474  -13.6118   23.7911 C   0  0  0  0  0  0  0  0  0  0  0  0
    7.3184  -13.1001   25.1661 C   0  0  0  0  0  0  0  0  0  0  0  0
    8.2591  -12.2015   25.6105 C   0  0  0  0  0  0  0  0  0  0  0  0
    8.1947  -11.7994   26.9411 C   0  0  0  0  0  0  0  0  0  0  0  0
    7.2101  -12.2897   27.7971 C   0  0  0  0  0  0  0  0  0  0  0  0
    6.2739  -13.1891   27.3365 C   0  0  0  0  0  0  0  0  0  0  0  0
    6.3275  -13.5935   26.0237 C   0  0  0  0  0  0  0  0  0  0  0  0
    8.3625  -15.7495   24.4676 C   0  0  0  0  0  0  0  0  0  0  0  0
    7.4480  -16.5935   24.5721 O   0  0  0  0  0  0  0  0  0  0  0  0
    9.4860  -15.8426   25.2973 N   0  0  0  0  0  0  0  0  0  0  0  0
    9.7493  -16.9755   26.2257 C   0  0  1  0  0  0  0  0  0  0  0  0
   10.7487  -17.8779   25.6297 C   0  0  0  0  0  0  0  0  0  0  0  0
   12.0084  -17.3060   25.1079 C   0  0  0  0  0  0  0  0  0  0  0  0
   12.9630  -18.1860   24.4344 C   0  0  0  0  0  0  0  0  0  0  0  0
   13.2039  -18.1125   23.1752 O   0  0  0  0  0  0  0  0  0  0  0  0
   10.1249  -16.3256   27.4875 C   0  0  0  0  0  0  0  0  0  0  0  0
   10.3339  -15.1031   27.5671 O   0  0  0  0  0  0  0  0  0  0  0  0
   13.6977  -19.1831   25.1074 O   0  0  0  0  0  0  0  0  0  0  0  0
   10.2745  -17.0323   28.6868 O   0  0  0  0  0  0  0  0  0  0  0  0
  2  7  1  0
  2  1  1  1
  3  4  1  0
  3  2  1  0
  4  5  1  0
  5  6  2  0
  5  9  1  0
  7  8  2  0
 10  7  1  0
 10 11  1  0
 11 12  1  1
 12 13  1  0
 13 18  2  0
 14 13  1  0
 14 15  2  0
 15 16  1  0
 16 17  2  0
 18 17  1  0
 19 21  1  0
 19 11  1  0
 20 19  2  0
 22 23  1  6
 22 27  1  0
 22 21  1  0
 24 25  1  0
 24 23  1  0
 25 29  1  0
 26 25  2  0
 27 30  1  0
 28 27  2  0
M  END
$$$$
