EFE.pdb
     RDKit          3D

 30 30  0  0  1  0  0  0  0  0999 V2000
    7.8158  -15.4002   19.8803 N   0  0  0  0  0  0  0  0  0  0  0  0
    7.0814  -16.2383   20.8439 C   0  0  1  0  0  0  0  0  0  0  0  0
    7.1878  -17.6752   20.4643 C   0  0  0  0  0  0  0  0  0  0  0  0
    6.6833  -17.9100   19.0715 C   0  0  0  0  0  0  0  0  0  0  0  0
    6.7541  -19.3266   18.7009 C   0  0  0  0  0  0  0  0  0  0  0  0
    7.2687  -19.7020   17.6281 O   0  0  0  0  0  0  0  0  0  0  0  0
    7.7359  -16.0147   22.1519 C   0  0  0  0  0  0  0  0  0  0  0  0
    8.9577  -15.8191   22.2800 O   0  0  0  0  0  0  0  0  0  0  0  0
    6.2384  -20.2871   19.5549 O   0  0  0  0  0  0  0  0  0  0  0  0
    6.9994  -16.0085   23.3701 N   0  0  0  0  0  0  0  0  0  0  0  0
    7.5273  -15.7848   24.6656 C   0  0  1  0  0  0  0  0  0  0  0  0
    6.6407  -15.2078   25.6863 C   0  0  0  0  0  0  0  0  0  0  0  0
    6.7794  -13.7653   25.9263 C   0  0  0  0  0  0  0  0  0  0  0  0
    5.7228  -12.8913   26.0238 C   0  0  0  0  0  0  0  0  0  0  0  0
    6.0094  -11.5508   26.2635 C   0  0  0  0  0  0  0  0  0  0  0  0
    7.3232  -11.1064   26.4008 C   0  0  0  0  0  0  0  0  0  0  0  0
    8.3713  -11.9948   26.3013 C   0  0  0  0  0  0  0  0  0  0  0  0
    8.1002  -13.3216   26.0648 C   0  0  0  0  0  0  0  0  0  0  0  0
    8.3597  -16.9446   25.1394 C   0  0  0  0  0  0  0  0  0  0  0  0
    7.8093  -18.0604   25.2487 O   0  0  0  0  0  0  0  0  0  0  0  0
    9.7174  -16.8110   25.4524 N   0  0  0  0  0  0  0  0  0  0  0  0
   10.6204  -17.9517   25.7656 C   0  0  1  0  0  0  0  0  0  0  0  0
   11.8854  -17.7946   25.0284 C   0  0  0  0  0  0  0  0  0  0  0  0
   12.9765  -18.7641   25.2644 C   0  0  0  0  0  0  0  0  0  0  0  0
   14.2519  -18.5809   24.5723 C   0  0  0  0  0  0  0  0  0  0  0  0
   15.2799  -19.3134   24.8088 O   0  0  0  0  0  0  0  0  0  0  0  0
   10.7121  -17.9450   27.2309 C   0  0  0  0  0  0  0  0  0  0  0  0
   10.3671  -16.9646   27.9124 O   0  0  0  0  0  0  0  0  0  0  0  0
   14.4594  -17.5912   23.5903 O   0  0  0  0  0  0  0  0  0  0  0  0
   11.1928  -19.0370   27.9635 O   0  0  0  0  0  0  0  0  0  0  0  0
  2  7  1  0
  2  1  1  6
  3  4  1  0
  3  2  1  0
  4  5  1  0
  5  6  2  0
  5  9  1  0
  7  8  2  0
 10  7  1  0
 10 11  1  0
 11 12  1  1
 12 13  1  0
 13 18  2  0
 14 13  1  0
 14 15  2  0
 15 16  1  0
 16 17  2  0
 18 17  1  0
 19 21  1  0
 19 11  1  0
 20 19  2  0
 22 23  1  6
 22 27  1  0
 22 21  1  0
 24 25  1  0
 24 23  1  0
 25 29  1  0
 26 25  2  0
 27 30  1  0
 28 27  2  0
M  END
$$$$
