EFE.pdb
     RDKit          3D

 30 30  0  0  1  0  0  0  0  0999 V2000
   10.0336  -16.6139   21.1878 N   0  0  0  0  0  0  0  0  0  0  0  0
    9.2955  -15.3604   20.9543 C   0  0  1  0  0  0  0  0  0  0  0  0
    8.4309  -15.4879   19.7475 C   0  0  0  0  0  0  0  0  0  0  0  0
    8.1480  -16.9260   19.4288 C   0  0  0  0  0  0  0  0  0  0  0  0
    7.4202  -17.0679   18.1641 C   0  0  0  0  0  0  0  0  0  0  0  0
    6.1788  -17.1868   18.1283 O   0  0  0  0  0  0  0  0  0  0  0  0
    8.4550  -15.1591   22.1552 C   0  0  0  0  0  0  0  0  0  0  0  0
    7.7956  -14.1248   22.3621 O   0  0  0  0  0  0  0  0  0  0  0  0
    8.1167  -17.0731   16.9672 O   0  0  0  0  0  0  0  0  0  0  0  0
    8.3432  -16.1514   23.1698 N   0  0  0  0  0  0  0  0  0  0  0  0
    8.1175  -15.9163   24.5485 C   0  0  1  0  0  0  0  0  0  0  0  0
    6.8162  -15.3666   24.9550 C   0  0  0  0  0  0  0  0  0  0  0  0
    6.7995  -13.9459   25.3280 C   0  0  0  0  0  0  0  0  0  0  0  0
    7.2035  -12.9236   24.5026 C   0  0  0  0  0  0  0  0  0  0  0  0
    7.1213  -11.6235   24.9917 C   0  0  0  0  0  0  0  0  0  0  0  0
    6.6452  -11.3635   26.2755 C   0  0  0  0  0  0  0  0  0  0  0  0
    6.2432  -12.3988   27.0905 C   0  0  0  0  0  0  0  0  0  0  0  0
    6.3198  -13.6874   26.6179 C   0  0  0  0  0  0  0  0  0  0  0  0
    8.6125  -17.0538   25.3992 C   0  0  0  0  0  0  0  0  0  0  0  0
    8.2446  -17.1025   26.5916 O   0  0  0  0  0  0  0  0  0  0  0  0
    9.4590  -18.0489   24.8967 N   0  0  0  0  0  0  0  0  0  0  0  0
   10.9177  -18.1285   25.1801 C   0  0  1  0  0  0  0  0  0  0  0  0
   11.6533  -17.3001   24.2100 C   0  0  0  0  0  0  0  0  0  0  0  0
   13.1078  -17.1067   24.3917 C   0  0  0  0  0  0  0  0  0  0  0  0
   13.9741  -17.0823   23.2134 C   0  0  0  0  0  0  0  0  0  0  0  0
   15.1363  -16.5359   23.2192 O   0  0  0  0  0  0  0  0  0  0  0  0
   11.0310  -17.7392   26.5912 C   0  0  0  0  0  0  0  0  0  0  0  0
   11.6767  -18.4100   27.4144 O   0  0  0  0  0  0  0  0  0  0  0  0
   13.6097  -17.6555   21.9783 O   0  0  0  0  0  0  0  0  0  0  0  0
   10.4226  -16.5897   27.1097 O   0  0  0  0  0  0  0  0  0  0  0  0
  2  7  1  0
  2  1  1  1
  3  4  1  0
  3  2  1  0
  4  5  1  0
  5  6  2  0
  5  9  1  0
  7  8  2  0
 10  7  1  0
 10 11  1  0
 11 12  1  6
 12 13  1  0
 13 18  2  0
 14 13  1  0
 14 15  2  0
 15 16  1  0
 16 17  2  0
 18 17  1  0
 19 21  1  0
 19 11  1  0
 20 19  2  0
 22 23  1  6
 22 27  1  0
 22 21  1  0
 24 25  1  0
 24 23  1  0
 25 29  1  0
 26 25  2  0
 27 30  1  0
 28 27  2  0
M  END
$$$$
