EFE.pdb
     RDKit          3D

 30 30  0  0  1  0  0  0  0  0999 V2000
   10.9516  -15.1672   19.3850 N   0  0  0  0  0  0  0  0  0  0  0  0
    9.8470  -15.8964   20.0319 C   0  0  1  0  0  0  0  0  0  0  0  0
   10.0363  -17.3659   19.8738 C   0  0  0  0  0  0  0  0  0  0  0  0
   11.4914  -17.7258   19.8218 C   0  0  0  0  0  0  0  0  0  0  0  0
   11.6873  -19.1559   19.5658 C   0  0  0  0  0  0  0  0  0  0  0  0
   11.3205  -19.6907   18.4999 O   0  0  0  0  0  0  0  0  0  0  0  0
    9.9104  -15.5333   21.4649 C   0  0  0  0  0  0  0  0  0  0  0  0
   10.9517  -15.1501   22.0272 O   0  0  0  0  0  0  0  0  0  0  0  0
   12.2941  -19.9491   20.5252 O   0  0  0  0  0  0  0  0  0  0  0  0
    8.7658  -15.5995   22.3088 N   0  0  0  0  0  0  0  0  0  0  0  0
    8.5668  -14.8705   23.5070 C   0  0  1  0  0  0  0  0  0  0  0  0
    7.3304  -14.0877   23.6461 C   0  0  0  0  0  0  0  0  0  0  0  0
    7.2056  -13.2828   24.8685 C   0  0  0  0  0  0  0  0  0  0  0  0
    8.0790  -12.2853   25.2316 C   0  0  0  0  0  0  0  0  0  0  0  0
    7.8259  -11.6004   26.4162 C   0  0  0  0  0  0  0  0  0  0  0  0
    6.7240  -11.9133   27.2101 C   0  0  0  0  0  0  0  0  0  0  0  0
    5.8573  -12.9152   26.8322 C   0  0  0  0  0  0  0  0  0  0  0  0
    6.0972  -13.5985   25.6638 C   0  0  0  0  0  0  0  0  0  0  0  0
    8.9406  -15.6757   24.7213 C   0  0  0  0  0  0  0  0  0  0  0  0
    8.3935  -15.3935   25.8080 O   0  0  0  0  0  0  0  0  0  0  0  0
    9.8688  -16.7220   24.6670 N   0  0  0  0  0  0  0  0  0  0  0  0
   10.0406  -17.7448   25.7343 C   0  0  1  0  0  0  0  0  0  0  0  0
   10.6594  -18.9527   25.1630 C   0  0  0  0  0  0  0  0  0  0  0  0
    9.9237  -19.7139   24.1308 C   0  0  0  0  0  0  0  0  0  0  0  0
   10.5482  -20.8976   23.5407 C   0  0  0  0  0  0  0  0  0  0  0  0
   10.5614  -22.0395   24.1282 O   0  0  0  0  0  0  0  0  0  0  0  0
   10.8044  -17.0497   26.7779 C   0  0  0  0  0  0  0  0  0  0  0  0
   11.3063  -15.9274   26.5959 O   0  0  0  0  0  0  0  0  0  0  0  0
   11.1834  -20.8862   22.2825 O   0  0  0  0  0  0  0  0  0  0  0  0
   11.0221  -17.5980   28.0476 O   0  0  0  0  0  0  0  0  0  0  0  0
  2  7  1  0
  2  1  1  6
  3  4  1  0
  3  2  1  0
  4  5  1  0
  5  6  2  0
  5  9  1  0
  7  8  2  0
 10  7  1  0
 10 11  1  0
 11 12  1  1
 12 13  1  0
 13 18  2  0
 14 13  1  0
 14 15  2  0
 15 16  1  0
 16 17  2  0
 18 17  1  0
 19 21  1  0
 19 11  1  0
 20 19  2  0
 22 23  1  6
 22 27  1  0
 22 21  1  0
 24 25  1  0
 24 23  1  0
 25 29  1  0
 26 25  2  0
 27 30  1  0
 28 27  2  0
M  END
$$$$
