EFE.pdb
     RDKit          3D

 30 30  0  0  1  0  0  0  0  0999 V2000
    8.8632  -17.9384   19.9416 N   0  0  0  0  0  0  0  0  0  0  0  0
    9.7326  -16.8188   19.5404 C   0  0  1  0  0  0  0  0  0  0  0  0
    9.3082  -16.2850   18.2157 C   0  0  0  0  0  0  0  0  0  0  0  0
    9.3263  -17.3554   17.1652 C   0  0  0  0  0  0  0  0  0  0  0  0
    8.9748  -16.8249   15.8445 C   0  0  0  0  0  0  0  0  0  0  0  0
    9.8100  -16.2389   15.1263 O   0  0  0  0  0  0  0  0  0  0  0  0
    9.5567  -15.7807   20.5799 C   0  0  0  0  0  0  0  0  0  0  0  0
   10.1357  -14.6800   20.5513 O   0  0  0  0  0  0  0  0  0  0  0  0
    7.6828  -16.9695   15.3673 O   0  0  0  0  0  0  0  0  0  0  0  0
    8.6994  -15.9754   21.6996 N   0  0  0  0  0  0  0  0  0  0  0  0
    8.6349  -15.1591   22.8556 C   0  0  1  0  0  0  0  0  0  0  0  0
    7.3394  -15.0204   23.5362 C   0  0  0  0  0  0  0  0  0  0  0  0
    7.2681  -14.0061   24.5962 C   0  0  0  0  0  0  0  0  0  0  0  0
    7.6415  -12.6927   24.4378 C   0  0  0  0  0  0  0  0  0  0  0  0
    7.5081  -11.8435   25.5321 C   0  0  0  0  0  0  0  0  0  0  0  0
    7.0126  -12.3067   26.7496 C   0  0  0  0  0  0  0  0  0  0  0  0
    6.6419  -13.6257   26.8924 C   0  0  0  0  0  0  0  0  0  0  0  0
    6.7690  -14.4738   25.8181 C   0  0  0  0  0  0  0  0  0  0  0  0
    9.8044  -15.3926   23.7723 C   0  0  0  0  0  0  0  0  0  0  0  0
   10.8341  -14.7068   23.6019 O   0  0  0  0  0  0  0  0  0  0  0  0
    9.7694  -16.3414   24.8008 N   0  0  0  0  0  0  0  0  0  0  0  0
   10.8631  -16.5452   25.7893 C   0  0  1  0  0  0  0  0  0  0  0  0
   10.3000  -17.0691   27.0450 C   0  0  0  0  0  0  0  0  0  0  0  0
   11.2208  -17.4617   28.1333 C   0  0  0  0  0  0  0  0  0  0  0  0
   10.6736  -18.0929   29.3339 C   0  0  0  0  0  0  0  0  0  0  0  0
    9.4217  -18.3402   29.4774 O   0  0  0  0  0  0  0  0  0  0  0  0
   11.8214  -17.4108   25.0908 C   0  0  0  0  0  0  0  0  0  0  0  0
   11.4652  -18.2414   24.2377 O   0  0  0  0  0  0  0  0  0  0  0  0
   11.4704  -18.4836   30.4291 O   0  0  0  0  0  0  0  0  0  0  0  0
   13.1994  -17.3639   25.3339 O   0  0  0  0  0  0  0  0  0  0  0  0
  2  7  1  0
  2  1  1  1
  3  4  1  0
  3  2  1  0
  4  5  1  0
  5  6  2  0
  5  9  1  0
  7  8  2  0
 10  7  1  0
 10 11  1  0
 11 12  1  1
 12 13  1  0
 13 18  2  0
 14 13  1  0
 14 15  2  0
 15 16  1  0
 16 17  2  0
 18 17  1  0
 19 21  1  0
 19 11  1  0
 20 19  2  0
 22 23  1  1
 22 27  1  0
 22 21  1  0
 24 25  1  0
 24 23  1  0
 25 29  1  0
 26 25  2  0
 27 30  1  0
 28 27  2  0
M  END
$$$$
