EFE.pdb
     RDKit          3D

 30 30  0  0  1  0  0  0  0  0999 V2000
   10.1935  -16.0115   19.2807 N   0  0  0  0  0  0  0  0  0  0  0  0
    9.4974  -16.8189   20.2975 C   0  0  1  0  0  0  0  0  0  0  0  0
   10.2202  -18.1026   20.5207 C   0  0  0  0  0  0  0  0  0  0  0  0
   11.4724  -18.1734   19.6982 C   0  0  0  0  0  0  0  0  0  0  0  0
   12.1527  -19.4624   19.8564 C   0  0  0  0  0  0  0  0  0  0  0  0
   13.3944  -19.5645   19.7900 O   0  0  0  0  0  0  0  0  0  0  0  0
    9.5170  -16.0096   21.5360 C   0  0  0  0  0  0  0  0  0  0  0  0
   10.5132  -15.3705   21.9189 O   0  0  0  0  0  0  0  0  0  0  0  0
   11.4095  -20.6083   20.0853 O   0  0  0  0  0  0  0  0  0  0  0  0
    8.3791  -15.9069   22.3853 N   0  0  0  0  0  0  0  0  0  0  0  0
    8.2872  -15.1374   23.5711 C   0  0  1  0  0  0  0  0  0  0  0  0
    7.1090  -14.2770   23.7508 C   0  0  0  0  0  0  0  0  0  0  0  0
    7.0264  -13.5464   25.0224 C   0  0  0  0  0  0  0  0  0  0  0  0
    6.3451  -13.9933   26.1296 C   0  0  0  0  0  0  0  0  0  0  0  0
    6.3640  -13.1950   27.2692 C   0  0  0  0  0  0  0  0  0  0  0  0
    7.0503  -11.9821   27.2902 C   0  0  0  0  0  0  0  0  0  0  0  0
    7.7290  -11.5483   26.1728 C   0  0  0  0  0  0  0  0  0  0  0  0
    7.7176  -12.3288   25.0412 C   0  0  0  0  0  0  0  0  0  0  0  0
    8.6752  -15.9334   24.7870 C   0  0  0  0  0  0  0  0  0  0  0  0
    8.0380  -16.9781   25.0365 O   0  0  0  0  0  0  0  0  0  0  0  0
    9.7200  -15.5436   25.6329 N   0  0  0  0  0  0  0  0  0  0  0  0
   10.3067  -16.4088   26.6922 C   0  0  1  0  0  0  0  0  0  0  0  0
   11.7665  -16.4834   26.5140 C   0  0  0  0  0  0  0  0  0  0  0  0
   12.3080  -16.8377   25.1846 C   0  0  0  0  0  0  0  0  0  0  0  0
   13.7559  -16.9581   25.0161 C   0  0  0  0  0  0  0  0  0  0  0  0
   14.3867  -18.0597   25.2106 O   0  0  0  0  0  0  0  0  0  0  0  0
    9.8305  -15.8129   27.9467 C   0  0  0  0  0  0  0  0  0  0  0  0
    9.3944  -14.6506   28.0052 O   0  0  0  0  0  0  0  0  0  0  0  0
   14.5775  -15.8813   24.6259 O   0  0  0  0  0  0  0  0  0  0  0  0
    9.8333  -16.5073   29.1624 O   0  0  0  0  0  0  0  0  0  0  0  0
  2  7  1  0
  2  1  1  6
  3  4  1  0
  3  2  1  0
  4  5  1  0
  5  6  2  0
  5  9  1  0
  7  8  2  0
 10  7  1  0
 10 11  1  0
 11 12  1  1
 12 13  1  0
 13 18  2  0
 14 13  1  0
 14 15  2  0
 15 16  1  0
 16 17  2  0
 18 17  1  0
 19 21  1  0
 19 11  1  0
 20 19  2  0
 22 23  1  1
 22 27  1  0
 22 21  1  0
 24 25  1  0
 24 23  1  0
 25 29  1  0
 26 25  2  0
 27 30  1  0
 28 27  2  0
M  END
$$$$
