EFE.pdb
     RDKit          3D

 30 30  0  0  1  0  0  0  0  0999 V2000
    7.8468  -17.6483   20.4591 N   0  0  0  0  0  0  0  0  0  0  0  0
    9.2959  -17.4477   20.6335 C   0  0  1  0  0  0  0  0  0  0  0  0
    9.9225  -17.0589   19.3388 C   0  0  0  0  0  0  0  0  0  0  0  0
   10.8160  -18.1450   18.8174 C   0  0  0  0  0  0  0  0  0  0  0  0
   11.1743  -17.9248   17.4131 C   0  0  0  0  0  0  0  0  0  0  0  0
   10.7809  -18.6855   16.5057 O   0  0  0  0  0  0  0  0  0  0  0  0
    9.4345  -16.3446   21.6097 C   0  0  0  0  0  0  0  0  0  0  0  0
   10.5323  -15.8762   21.9602 O   0  0  0  0  0  0  0  0  0  0  0  0
   11.9723  -16.8468   17.0682 O   0  0  0  0  0  0  0  0  0  0  0  0
    8.3027  -15.7360   22.2224 N   0  0  0  0  0  0  0  0  0  0  0  0
    8.3042  -14.9876   23.4253 C   0  0  1  0  0  0  0  0  0  0  0  0
    7.1814  -14.0722   23.6747 C   0  0  0  0  0  0  0  0  0  0  0  0
    7.2307  -13.3113   24.9302 C   0  0  0  0  0  0  0  0  0  0  0  0
    8.1316  -12.3066   25.1921 C   0  0  0  0  0  0  0  0  0  0  0  0
    8.0504  -11.6673   26.4254 C   0  0  0  0  0  0  0  0  0  0  0  0
    7.0884  -12.0315   27.3658 C   0  0  0  0  0  0  0  0  0  0  0  0
    6.1921  -13.0400   27.0882 C   0  0  0  0  0  0  0  0  0  0  0  0
    6.2626  -13.6785   25.8729 C   0  0  0  0  0  0  0  0  0  0  0  0
    8.7046  -15.8275   24.6072 C   0  0  0  0  0  0  0  0  0  0  0  0
    8.0301  -16.8471   24.8623 O   0  0  0  0  0  0  0  0  0  0  0  0
    9.8009  -15.5050   25.4156 N   0  0  0  0  0  0  0  0  0  0  0  0
   10.5933  -16.5005   26.1875 C   0  0  1  0  0  0  0  0  0  0  0  0
   11.9736  -16.5342   25.6755 C   0  0  0  0  0  0  0  0  0  0  0  0
   12.9652  -17.4007   26.3477 C   0  0  0  0  0  0  0  0  0  0  0  0
   14.3473  -17.4030   25.8689 C   0  0  0  0  0  0  0  0  0  0  0  0
   15.2777  -18.0780   26.4415 O   0  0  0  0  0  0  0  0  0  0  0  0
   10.4244  -16.0869   27.5861 C   0  0  0  0  0  0  0  0  0  0  0  0
   10.3974  -16.9054   28.5209 O   0  0  0  0  0  0  0  0  0  0  0  0
   14.7728  -16.6700   24.7426 O   0  0  0  0  0  0  0  0  0  0  0  0
   10.2820  -14.7471   27.9664 O   0  0  0  0  0  0  0  0  0  0  0  0
  2  7  1  0
  2  1  1  6
  3  4  1  0
  3  2  1  0
  4  5  1  0
  5  6  2  0
  5  9  1  0
  7  8  2  0
 10  7  1  0
 10 11  1  0
 11 12  1  1
 12 13  1  0
 13 18  2  0
 14 13  1  0
 14 15  2  0
 15 16  1  0
 16 17  2  0
 18 17  1  0
 19 21  1  0
 19 11  1  0
 20 19  2  0
 22 23  1  6
 22 27  1  0
 22 21  1  0
 24 25  1  0
 24 23  1  0
 25 29  1  0
 26 25  2  0
 27 30  1  0
 28 27  2  0
M  END
$$$$
