TAD.pdb
     RDKit          3D

 21 20  0  0  1  0  0  0  0  0999 V2000
   17.4460  -10.5798  -17.9733 C   0  0  0  0  0  0  0  0  0  0  0  0
   18.4788  -11.6318  -17.6897 C   0  0  1  0  0  0  0  0  0  0  0  0
   18.3882  -12.6356  -18.6681 O   0  0  0  0  0  0  0  0  0  0  0  0
   19.8699  -11.0155  -17.6854 C   0  0  2  0  0  0  0  0  0  0  0  0
   20.8369  -12.0809  -17.8517 N   0  0  0  0  0  0  0  0  0  0  0  0
   20.1184  -10.2514  -16.4447 C   0  0  0  0  0  0  0  0  0  0  0  0
   19.1957   -9.5696  -15.9303 O   0  0  0  0  0  0  0  0  0  0  0  0
   23.0214   -9.8398  -14.0439 C   0  0  0  0  0  0  0  0  0  0  0  0
   21.6956   -9.4403  -14.6577 C   0  0  2  0  0  0  0  0  0  0  0  0
   21.3846  -10.2571  -15.7972 N   0  0  0  0  0  0  0  0  0  0  0  0
   21.6542   -7.9888  -14.9790 C   0  0  0  0  0  0  0  0  0  0  0  0
   22.2053   -7.5469  -16.0241 O   0  0  0  0  0  0  0  0  0  0  0  0
   21.0091   -7.0336  -14.1524 N   0  0  0  0  0  0  0  0  0  0  0  0
   21.0170   -5.6109  -14.4496 C   0  0  1  0  0  0  0  0  0  0  0  0
   19.6388   -5.0736  -14.1391 C   0  0  0  0  0  0  0  0  0  0  0  0
   19.5787   -3.6231  -14.4344 C   0  0  0  0  0  0  0  0  0  0  0  0
   20.3876   -3.1231  -15.2483 O   0  0  0  0  0  0  0  0  0  0  0  0
   22.0059   -4.8977  -13.5883 C   0  0  0  0  0  0  0  0  0  0  0  0
   22.3072   -3.7245  -13.8785 O   0  0  0  0  0  0  0  0  0  0  0  0
   18.6364   -2.8034  -13.8215 O   0  0  0  0  0  0  0  0  0  0  0  0
   22.5817   -5.5028  -12.4968 O   0  0  0  0  0  0  0  0  0  0  0  0
  2  1  1  6
  3  2  1  0
  4  5  1  1
  4  2  1  0
  6  4  1  0
  6  7  2  0
  9  8  1  6
  9 10  1  0
  9 11  1  0
 10  6  1  0
 11 12  2  0
 13 11  1  0
 13 14  1  0
 14 15  1  1
 15 16  1  0
 16 20  1  0
 16 17  2  0
 18 21  1  0
 18 14  1  0
 19 18  2  0
M  END
$$$$
