TAD.pdb
     RDKit          3D

 21 20  0  0  1  0  0  0  0  0999 V2000
   18.1912  -12.2249  -18.9108 C   0  0  0  0  0  0  0  0  0  0  0  0
   18.7691  -11.2222  -17.9546 C   0  0  1  0  0  0  0  0  0  0  0  0
   17.7506  -10.3493  -17.5380 O   0  0  0  0  0  0  0  0  0  0  0  0
   19.3860  -11.9312  -16.7581 C   0  0  2  0  0  0  0  0  0  0  0  0
   18.3494  -12.7061  -16.1080 N   0  0  0  0  0  0  0  0  0  0  0  0
   20.0074  -10.9706  -15.8222 C   0  0  0  0  0  0  0  0  0  0  0  0
   19.2862  -10.2843  -15.0541 O   0  0  0  0  0  0  0  0  0  0  0  0
   23.5412  -10.1122  -14.7779 C   0  0  0  0  0  0  0  0  0  0  0  0
   22.0526   -9.8498  -14.8737 C   0  0  2  0  0  0  0  0  0  0  0  0
   21.4162  -10.7882  -15.7550 N   0  0  0  0  0  0  0  0  0  0  0  0
   21.7665   -8.4404  -15.2526 C   0  0  0  0  0  0  0  0  0  0  0  0
   21.6237   -8.1179  -16.4637 O   0  0  0  0  0  0  0  0  0  0  0  0
   21.6391   -7.3961  -14.3012 N   0  0  0  0  0  0  0  0  0  0  0  0
   21.3788   -6.0183  -14.6835 C   0  0  1  0  0  0  0  0  0  0  0  0
   19.9245   -5.7313  -14.3885 C   0  0  0  0  0  0  0  0  0  0  0  0
   19.6030   -4.3259  -14.7293 C   0  0  0  0  0  0  0  0  0  0  0  0
   19.5348   -3.4685  -13.8199 O   0  0  0  0  0  0  0  0  0  0  0  0
   22.2167   -5.0806  -13.8791 C   0  0  0  0  0  0  0  0  0  0  0  0
   22.7177   -5.4957  -12.8170 O   0  0  0  0  0  0  0  0  0  0  0  0
   19.3746   -3.9399  -16.0462 O   0  0  0  0  0  0  0  0  0  0  0  0
   22.4423   -3.7863  -14.2829 O   0  0  0  0  0  0  0  0  0  0  0  0
  2  1  1  6
  3  2  1  0
  4  5  1  1
  4  2  1  0
  6  4  1  0
  6  7  2  0
  9  8  1  6
  9 10  1  0
  9 11  1  0
 10  6  1  0
 11 12  2  0
 13 11  1  0
 13 14  1  0
 14 15  1  1
 15 16  1  0
 16 20  1  0
 16 17  2  0
 18 21  1  0
 18 14  1  0
 19 18  2  0
M  END
$$$$
