TAD.pdb
     RDKit          3D

 21 20  0  0  1  0  0  0  0  0999 V2000
   20.2536  -14.6637  -16.4403 C   0  0  0  0  0  0  0  0  0  0  0  0
   19.4013  -13.8158  -17.3394 C   0  0  1  0  0  0  0  0  0  0  0  0
   18.3837  -14.6133  -17.8885 O   0  0  0  0  0  0  0  0  0  0  0  0
   18.8053  -12.6546  -16.5577 C   0  0  2  0  0  0  0  0  0  0  0  0
   17.3941  -12.5741  -16.8733 N   0  0  0  0  0  0  0  0  0  0  0  0
   19.4988  -11.3854  -16.8629 C   0  0  0  0  0  0  0  0  0  0  0  0
   20.7164  -11.2500  -16.5801 O   0  0  0  0  0  0  0  0  0  0  0  0
   18.6905   -8.2480  -18.7941 C   0  0  0  0  0  0  0  0  0  0  0  0
   19.4614   -9.0297  -17.7507 C   0  0  2  0  0  0  0  0  0  0  0  0
   18.8301  -10.2900  -17.4756 N   0  0  0  0  0  0  0  0  0  0  0  0
   19.6806   -8.2301  -16.5161 C   0  0  0  0  0  0  0  0  0  0  0  0
   18.8773   -8.3127  -15.5470 O   0  0  0  0  0  0  0  0  0  0  0  0
   20.7782   -7.3466  -16.3536 N   0  0  0  0  0  0  0  0  0  0  0  0
   20.9330   -6.4998  -15.1825 C   0  0  1  0  0  0  0  0  0  0  0  0
   22.4003   -6.1593  -15.0579 C   0  0  0  0  0  0  0  0  0  0  0  0
   22.6141   -5.2338  -13.9211 C   0  0  0  0  0  0  0  0  0  0  0  0
   22.8754   -4.0300  -14.1436 O   0  0  0  0  0  0  0  0  0  0  0  0
   20.1666   -5.2292  -15.3455 C   0  0  0  0  0  0  0  0  0  0  0  0
   19.7375   -4.6606  -14.3237 O   0  0  0  0  0  0  0  0  0  0  0  0
   22.5295   -5.6795  -12.6059 O   0  0  0  0  0  0  0  0  0  0  0  0
   19.9290   -4.6830  -16.5841 O   0  0  0  0  0  0  0  0  0  0  0  0
  2  1  1  1
  3  2  1  0
  4  5  1  6
  4  2  1  0
  6  4  1  0
  6  7  2  0
  9  8  1  6
  9 10  1  0
  9 11  1  0
 10  6  1  0
 11 12  2  0
 13 11  1  0
 13 14  1  0
 14 15  1  6
 15 16  1  0
 16 20  1  0
 16 17  2  0
 18 21  1  0
 18 14  1  0
 19 18  2  0
M  END
$$$$
