TAD.pdb
     RDKit          3D

 21 20  0  0  1  0  0  0  0  0999 V2000
   19.8660   -8.9791  -16.1362 C   0  0  0  0  0  0  0  0  0  0  0  0
   20.6393   -9.7879  -15.1354 C   0  0  1  0  0  0  0  0  0  0  0  0
   20.1969  -11.1201  -15.1858 O   0  0  0  0  0  0  0  0  0  0  0  0
   22.1292   -9.7093  -15.4342 C   0  0  2  0  0  0  0  0  0  0  0  0
   22.8179  -10.6174  -14.5406 N   0  0  0  0  0  0  0  0  0  0  0  0
   22.6360   -8.3279  -15.2941 C   0  0  0  0  0  0  0  0  0  0  0  0
   22.5242   -7.7250  -14.1964 O   0  0  0  0  0  0  0  0  0  0  0  0
   24.5028   -5.8840  -17.5092 C   0  0  0  0  0  0  0  0  0  0  0  0
   23.6657   -6.2651  -16.3059 C   0  0  2  0  0  0  0  0  0  0  0  0
   23.2573   -7.6403  -16.3729 N   0  0  0  0  0  0  0  0  0  0  0  0
   22.5115   -5.3447  -16.1258 C   0  0  0  0  0  0  0  0  0  0  0  0
   21.4056   -5.5857  -16.6826 O   0  0  0  0  0  0  0  0  0  0  0  0
   22.5789   -4.1678  -15.3370 N   0  0  0  0  0  0  0  0  0  0  0  0
   21.4504   -3.2650  -15.1827 C   0  0  1  0  0  0  0  0  0  0  0  0
   21.6072   -2.5637  -13.8530 C   0  0  0  0  0  0  0  0  0  0  0  0
   20.4905   -1.6132  -13.6432 C   0  0  0  0  0  0  0  0  0  0  0  0
   20.4277   -0.5700  -14.3321 O   0  0  0  0  0  0  0  0  0  0  0  0
   21.4486   -2.2337  -16.2620 C   0  0  0  0  0  0  0  0  0  0  0  0
   20.3644   -1.7081  -16.5778 O   0  0  0  0  0  0  0  0  0  0  0  0
   19.5065   -1.8594  -12.6910 O   0  0  0  0  0  0  0  0  0  0  0  0
   22.6044   -1.8588  -16.9044 O   0  0  0  0  0  0  0  0  0  0  0  0
  2  1  1  6
  3  2  1  0
  4  5  1  1
  4  2  1  0
  6  4  1  0
  6  7  2  0
  9  8  1  6
  9 10  1  0
  9 11  1  0
 10  6  1  0
 11 12  2  0
 13 11  1  0
 13 14  1  0
 14 15  1  1
 15 16  1  0
 16 20  1  0
 16 17  2  0
 18 21  1  0
 18 14  1  0
 19 18  2  0
M  END
$$$$
