TAD.pdb
     RDKit          3D

 21 20  0  0  1  0  0  0  0  0999 V2000
   17.1440  -10.0898  -17.4553 C   0  0  0  0  0  0  0  0  0  0  0  0
   17.0373  -11.0338  -16.2928 C   0  0  1  0  0  0  0  0  0  0  0  0
   15.9718  -11.9201  -16.5211 O   0  0  0  0  0  0  0  0  0  0  0  0
   18.3399  -11.8002  -16.1164 C   0  0  2  0  0  0  0  0  0  0  0  0
   18.1300  -12.8234  -15.1131 N   0  0  0  0  0  0  0  0  0  0  0  0
   19.4504  -10.8991  -15.7427 C   0  0  0  0  0  0  0  0  0  0  0  0
   19.3701  -10.2001  -14.7007 O   0  0  0  0  0  0  0  0  0  0  0  0
   22.9262  -10.1945  -17.0760 C   0  0  0  0  0  0  0  0  0  0  0  0
   21.7159   -9.9061  -16.2124 C   0  0  2  0  0  0  0  0  0  0  0  0
   20.6293  -10.7894  -16.5307 N   0  0  0  0  0  0  0  0  0  0  0  0
   21.3166   -8.4753  -16.2863 C   0  0  0  0  0  0  0  0  0  0  0  0
   20.5097   -8.0792  -17.1712 O   0  0  0  0  0  0  0  0  0  0  0  0
   21.8049   -7.4906  -15.3898 N   0  0  0  0  0  0  0  0  0  0  0  0
   21.4623   -6.0835  -15.5126 C   0  0  1  0  0  0  0  0  0  0  0  0
   21.6688   -5.4450  -14.1583 C   0  0  0  0  0  0  0  0  0  0  0  0
   21.2759   -4.0174  -14.2025 C   0  0  0  0  0  0  0  0  0  0  0  0
   20.7351   -3.5558  -15.2327 O   0  0  0  0  0  0  0  0  0  0  0  0
   22.3595   -5.4060  -16.4947 C   0  0  0  0  0  0  0  0  0  0  0  0
   21.9609   -4.3579  -17.0368 O   0  0  0  0  0  0  0  0  0  0  0  0
   21.4976   -3.1771  -13.1162 O   0  0  0  0  0  0  0  0  0  0  0  0
   23.5994   -5.9101  -16.8073 O   0  0  0  0  0  0  0  0  0  0  0  0
  2  1  1  6
  3  2  1  0
  4  5  1  1
  4  2  1  0
  6  4  1  0
  6  7  2  0
  9  8  1  6
  9 10  1  0
  9 11  1  0
 10  6  1  0
 11 12  2  0
 13 11  1  0
 13 14  1  0
 14 15  1  1
 15 16  1  0
 16 20  1  0
 16 17  2  0
 18 21  1  0
 18 14  1  0
 19 18  2  0
M  END
$$$$
