TAD.pdb
     RDKit          3D

 21 20  0  0  1  0  0  0  0  0999 V2000
   16.9291   -9.3404  -18.4306 C   0  0  0  0  0  0  0  0  0  0  0  0
   16.6265  -10.5740  -17.6304 C   0  0  1  0  0  0  0  0  0  0  0  0
   15.4237  -11.1336  -18.0920 O   0  0  0  0  0  0  0  0  0  0  0  0
   17.7643  -11.5760  -17.7581 C   0  0  2  0  0  0  0  0  0  0  0  0
   17.3602  -12.8044  -17.1059 N   0  0  0  0  0  0  0  0  0  0  0  0
   19.0177  -11.0466  -17.1805 C   0  0  0  0  0  0  0  0  0  0  0  0
   19.0816  -10.7799  -15.9534 O   0  0  0  0  0  0  0  0  0  0  0  0
   22.4995  -10.3014  -18.4847 C   0  0  0  0  0  0  0  0  0  0  0  0
   21.3814  -10.2278  -17.4656 C   0  0  2  0  0  0  0  0  0  0  0  0
   20.1769  -10.8226  -17.9733 N   0  0  0  0  0  0  0  0  0  0  0  0
   21.1630   -8.8360  -16.9892 C   0  0  0  0  0  0  0  0  0  0  0  0
   20.3417   -8.0787  -17.5751 O   0  0  0  0  0  0  0  0  0  0  0  0
   21.8463   -8.2856  -15.8747 N   0  0  0  0  0  0  0  0  0  0  0  0
   21.6750   -6.9039  -15.4577 C   0  0  1  0  0  0  0  0  0  0  0  0
   22.1714   -6.7932  -14.0344 C   0  0  0  0  0  0  0  0  0  0  0  0
   22.0755   -5.3902  -13.5687 C   0  0  0  0  0  0  0  0  0  0  0  0
   23.1087   -4.6864  -13.5072 O   0  0  0  0  0  0  0  0  0  0  0  0
   22.4887   -5.9902  -16.3129 C   0  0  0  0  0  0  0  0  0  0  0  0
   23.5483   -6.4243  -16.8032 O   0  0  0  0  0  0  0  0  0  0  0  0
   20.8537   -4.8384  -13.1969 O   0  0  0  0  0  0  0  0  0  0  0  0
   22.0962   -4.6975  -16.5658 O   0  0  0  0  0  0  0  0  0  0  0  0
  2  1  1  6
  3  2  1  0
  4  5  1  1
  4  2  1  0
  6  4  1  0
  6  7  2  0
  9  8  1  6
  9 10  1  0
  9 11  1  0
 10  6  1  0
 11 12  2  0
 13 11  1  0
 13 14  1  0
 14 15  1  1
 15 16  1  0
 16 20  1  0
 16 17  2  0
 18 21  1  0
 18 14  1  0
 19 18  2  0
M  END
$$$$
