TAD.pdb
     RDKit          3D

 21 20  0  0  1  0  0  0  0  0999 V2000
   27.7063  -12.0607  -15.8723 C   0  0  0  0  0  0  0  0  0  0  0  0
   26.7176  -10.9342  -15.9581 C   0  0  1  0  0  0  0  0  0  0  0  0
   27.2728   -9.7930  -15.3562 O   0  0  0  0  0  0  0  0  0  0  0  0
   26.3657  -10.6528  -17.4113 C   0  0  2  0  0  0  0  0  0  0  0  0
   27.5767  -10.2598  -18.1017 N   0  0  0  0  0  0  0  0  0  0  0  0
   25.3208   -9.6133  -17.5225 C   0  0  0  0  0  0  0  0  0  0  0  0
   25.6275   -8.4492  -17.8855 O   0  0  0  0  0  0  0  0  0  0  0  0
   21.5419   -9.5652  -17.2597 C   0  0  0  0  0  0  0  0  0  0  0  0
   22.9048   -8.9173  -17.3896 C   0  0  2  0  0  0  0  0  0  0  0  0
   23.9555   -9.8831  -17.2294 N   0  0  0  0  0  0  0  0  0  0  0  0
   23.0556   -7.7643  -16.4624 C   0  0  0  0  0  0  0  0  0  0  0  0
   23.5663   -7.9223  -15.3198 O   0  0  0  0  0  0  0  0  0  0  0  0
   22.6456   -6.4478  -16.7949 N   0  0  0  0  0  0  0  0  0  0  0  0
   22.7978   -5.3278  -15.8812 C   0  0  1  0  0  0  0  0  0  0  0  0
   22.4613   -4.0681  -16.6456 C   0  0  0  0  0  0  0  0  0  0  0  0
   23.4955   -3.8035  -17.6728 C   0  0  0  0  0  0  0  0  0  0  0  0
   24.7029   -3.9848  -17.3967 O   0  0  0  0  0  0  0  0  0  0  0  0
   21.8501   -5.4504  -14.7344 C   0  0  0  0  0  0  0  0  0  0  0  0
   20.8369   -6.1608  -14.8760 O   0  0  0  0  0  0  0  0  0  0  0  0
   23.1483   -3.3557  -18.9434 O   0  0  0  0  0  0  0  0  0  0  0  0
   22.0716   -4.8032  -13.5423 O   0  0  0  0  0  0  0  0  0  0  0  0
  2  1  1  6
  3  2  1  0
  4  5  1  6
  4  2  1  0
  6  4  1  0
  6  7  2  0
  9  8  1  1
  9 10  1  0
  9 11  1  0
 10  6  1  0
 11 12  2  0
 13 11  1  0
 13 14  1  0
 14 15  1  6
 15 16  1  0
 16 20  1  0
 16 17  2  0
 18 21  1  0
 18 14  1  0
 19 18  2  0
M  END
$$$$
