TAD.pdb
     RDKit          3D

 21 20  0  0  1  0  0  0  0  0999 V2000
   18.5866   -7.0890  -17.9376 C   0  0  0  0  0  0  0  0  0  0  0  0
   17.9863   -7.9455  -16.8605 C   0  0  1  0  0  0  0  0  0  0  0  0
   17.0724   -8.8384  -17.4440 O   0  0  0  0  0  0  0  0  0  0  0  0
   19.0786   -8.7063  -16.1237 C   0  0  2  0  0  0  0  0  0  0  0  0
   18.4453   -9.6361  -15.2115 N   0  0  0  0  0  0  0  0  0  0  0  0
   19.9896   -7.7871  -15.4095 C   0  0  0  0  0  0  0  0  0  0  0  0
   19.5892   -7.1716  -14.3888 O   0  0  0  0  0  0  0  0  0  0  0  0
   23.6362   -6.8129  -15.6747 C   0  0  0  0  0  0  0  0  0  0  0  0
   22.2000   -6.5927  -15.2470 C   0  0  2  0  0  0  0  0  0  0  0  0
   21.3272   -7.5670  -15.8396 N   0  0  0  0  0  0  0  0  0  0  0  0
   21.7534   -5.2002  -15.5180 C   0  0  0  0  0  0  0  0  0  0  0  0
   21.2796   -4.8859  -16.6440 O   0  0  0  0  0  0  0  0  0  0  0  0
   21.8299   -4.1637  -14.5528 N   0  0  0  0  0  0  0  0  0  0  0  0
   21.4573   -2.7906  -14.8496 C   0  0  1  0  0  0  0  0  0  0  0  0
   21.0629   -2.1342  -13.5465 C   0  0  0  0  0  0  0  0  0  0  0  0
   20.5179   -0.7806  -13.8020 C   0  0  0  0  0  0  0  0  0  0  0  0
   20.3862   -0.3785  -14.9800 O   0  0  0  0  0  0  0  0  0  0  0  0
   22.6148   -2.0422  -15.4227 C   0  0  0  0  0  0  0  0  0  0  0  0
   23.7484   -2.2523  -14.9514 O   0  0  0  0  0  0  0  0  0  0  0  0
   20.1483    0.0550  -12.7529 O   0  0  0  0  0  0  0  0  0  0  0  0
   22.4552   -1.1386  -16.4460 O   0  0  0  0  0  0  0  0  0  0  0  0
  2  1  1  6
  3  2  1  0
  4  5  1  1
  4  2  1  0
  6  4  1  0
  6  7  2  0
  9  8  1  6
  9 10  1  0
  9 11  1  0
 10  6  1  0
 11 12  2  0
 13 11  1  0
 13 14  1  0
 14 15  1  1
 15 16  1  0
 16 20  1  0
 16 17  2  0
 18 21  1  0
 18 14  1  0
 19 18  2  0
M  END
$$$$
