TAD.pdb
     RDKit          3D

 21 20  0  0  1  0  0  0  0  0999 V2000
   15.6660  -10.6318  -15.7854 C   0  0  0  0  0  0  0  0  0  0  0  0
   16.0508  -11.9233  -15.1238 C   0  0  1  0  0  0  0  0  0  0  0  0
   14.9154  -12.7453  -15.0328 O   0  0  0  0  0  0  0  0  0  0  0  0
   17.1477  -12.6154  -15.9194 C   0  0  2  0  0  0  0  0  0  0  0  0
   17.4061  -13.9026  -15.3079 N   0  0  0  0  0  0  0  0  0  0  0  0
   18.3735  -11.7916  -15.9792 C   0  0  0  0  0  0  0  0  0  0  0  0
   19.1058  -11.6787  -14.9633 O   0  0  0  0  0  0  0  0  0  0  0  0
   20.2868   -9.9896  -18.6996 C   0  0  0  0  0  0  0  0  0  0  0  0
   19.9456  -10.2960  -17.2561 C   0  0  2  0  0  0  0  0  0  0  0  0
   18.7649  -11.1081  -17.1633 N   0  0  0  0  0  0  0  0  0  0  0  0
   19.8399   -9.0562  -16.4415 C   0  0  0  0  0  0  0  0  0  0  0  0
   18.7241   -8.4926  -16.2726 O   0  0  0  0  0  0  0  0  0  0  0  0
   20.9578   -8.4444  -15.8187 N   0  0  0  0  0  0  0  0  0  0  0  0
   20.8499   -7.2114  -15.0567 C   0  0  1  0  0  0  0  0  0  0  0  0
   22.1382   -7.0390  -14.2854 C   0  0  0  0  0  0  0  0  0  0  0  0
   22.0881   -5.7961  -13.4808 C   0  0  0  0  0  0  0  0  0  0  0  0
   21.1249   -5.5985  -12.7062 O   0  0  0  0  0  0  0  0  0  0  0  0
   20.6861   -6.0407  -15.9683 C   0  0  0  0  0  0  0  0  0  0  0  0
   21.2645   -6.0629  -17.0712 O   0  0  0  0  0  0  0  0  0  0  0  0
   23.0955   -4.8408  -13.5706 O   0  0  0  0  0  0  0  0  0  0  0  0
   19.9201   -4.9546  -15.6183 O   0  0  0  0  0  0  0  0  0  0  0  0
  2  1  1  6
  3  2  1  0
  4  5  1  1
  4  2  1  0
  6  4  1  0
  6  7  2  0
  9  8  1  6
  9 10  1  0
  9 11  1  0
 10  6  1  0
 11 12  2  0
 13 11  1  0
 13 14  1  0
 14 15  1  6
 15 16  1  0
 16 20  1  0
 16 17  2  0
 18 21  1  0
 18 14  1  0
 19 18  2  0
M  END
$$$$
