TAD.pdb
     RDKit          3D

 21 20  0  0  1  0  0  0  0  0999 V2000
   26.6534  -11.1075  -15.1288 C   0  0  0  0  0  0  0  0  0  0  0  0
   27.1322  -11.1427  -16.5512 C   0  0  1  0  0  0  0  0  0  0  0  0
   28.2352  -12.0079  -16.6401 O   0  0  0  0  0  0  0  0  0  0  0  0
   26.0136  -11.6086  -17.4713 C   0  0  2  0  0  0  0  0  0  0  0  0
   26.5704  -11.8120  -18.7928 N   0  0  0  0  0  0  0  0  0  0  0  0
   24.8985  -10.6387  -17.5001 C   0  0  0  0  0  0  0  0  0  0  0  0
   25.0509   -9.5211  -18.0557 O   0  0  0  0  0  0  0  0  0  0  0  0
   21.2100  -10.7963  -16.7455 C   0  0  0  0  0  0  0  0  0  0  0  0
   22.5016  -10.0488  -17.0046 C   0  0  2  0  0  0  0  0  0  0  0  0
   23.6355  -10.9253  -16.9127 N   0  0  0  0  0  0  0  0  0  0  0  0
   22.6363   -8.8615  -16.1192 C   0  0  0  0  0  0  0  0  0  0  0  0
   23.2388   -8.9499  -15.0145 O   0  0  0  0  0  0  0  0  0  0  0  0
   22.1096   -7.5872  -16.4518 N   0  0  0  0  0  0  0  0  0  0  0  0
   22.2287   -6.4381  -15.5698 C   0  0  1  0  0  0  0  0  0  0  0  0
   22.5085   -5.2292  -16.4327 C   0  0  0  0  0  0  0  0  0  0  0  0
   22.5561   -4.0067  -15.5974 C   0  0  0  0  0  0  0  0  0  0  0  0
   22.9724   -4.0779  -14.4191 O   0  0  0  0  0  0  0  0  0  0  0  0
   20.9521   -6.2051  -14.8320 C   0  0  0  0  0  0  0  0  0  0  0  0
   19.8914   -6.6179  -15.3377 O   0  0  0  0  0  0  0  0  0  0  0  0
   22.1452   -2.7763  -16.1003 O   0  0  0  0  0  0  0  0  0  0  0  0
   20.9259   -5.5530  -13.6224 O   0  0  0  0  0  0  0  0  0  0  0  0
  2  1  1  1
  3  2  1  0
  4  5  1  6
  4  2  1  0
  6  4  1  0
  6  7  2  0
  9  8  1  1
  9 10  1  0
  9 11  1  0
 10  6  1  0
 11 12  2  0
 13 11  1  0
 13 14  1  0
 14 15  1  6
 15 16  1  0
 16 20  1  0
 16 17  2  0
 18 21  1  0
 18 14  1  0
 19 18  2  0
M  END
$$$$
