TAD.pdb
     RDKit          3D

 21 20  0  0  1  0  0  0  0  0999 V2000
   17.0717   -9.7119  -16.1943 C   0  0  0  0  0  0  0  0  0  0  0  0
   17.4255  -11.1189  -15.8083 C   0  0  1  0  0  0  0  0  0  0  0  0
   16.5742  -12.0061  -16.4873 O   0  0  0  0  0  0  0  0  0  0  0  0
   18.8796  -11.4083  -16.1502 C   0  0  2  0  0  0  0  0  0  0  0  0
   19.1389  -12.8066  -15.8760 N   0  0  0  0  0  0  0  0  0  0  0  0
   19.7975  -10.5316  -15.3928 C   0  0  0  0  0  0  0  0  0  0  0  0
   19.7941  -10.5534  -14.1356 O   0  0  0  0  0  0  0  0  0  0  0  0
   22.4804   -8.0022  -16.2851 C   0  0  0  0  0  0  0  0  0  0  0  0
   21.5111   -8.6877  -15.3446 C   0  0  2  0  0  0  0  0  0  0  0  0
   20.7020   -9.6471  -16.0425 N   0  0  0  0  0  0  0  0  0  0  0  0
   20.6901   -7.7042  -14.5891 C   0  0  0  0  0  0  0  0  0  0  0  0
   19.6615   -7.1925  -15.1099 O   0  0  0  0  0  0  0  0  0  0  0  0
   21.0032   -7.2898  -13.2693 N   0  0  0  0  0  0  0  0  0  0  0  0
   20.2292   -6.2831  -12.5622 C   0  0  1  0  0  0  0  0  0  0  0  0
   19.9692   -6.8054  -11.1679 C   0  0  0  0  0  0  0  0  0  0  0  0
   19.1597   -5.8302  -10.4009 C   0  0  0  0  0  0  0  0  0  0  0  0
   18.4907   -4.9657  -11.0106 O   0  0  0  0  0  0  0  0  0  0  0  0
   20.9977   -5.0081  -12.4520 C   0  0  0  0  0  0  0  0  0  0  0  0
   20.3810   -3.9683  -12.1524 O   0  0  0  0  0  0  0  0  0  0  0  0
   19.1291   -5.8577   -9.0103 O   0  0  0  0  0  0  0  0  0  0  0  0
   22.3536   -4.9610  -12.6720 O   0  0  0  0  0  0  0  0  0  0  0  0
  2  1  1  6
  3  2  1  0
  4  5  1  1
  4  2  1  0
  6  4  1  0
  6  7  2  0
  9  8  1  6
  9 10  1  0
  9 11  1  0
 10  6  1  0
 11 12  2  0
 13 11  1  0
 13 14  1  0
 14 15  1  1
 15 16  1  0
 16 20  1  0
 16 17  2  0
 18 21  1  0
 18 14  1  0
 19 18  2  0
M  END
$$$$
