TAD.pdb
     RDKit          3D

 21 20  0  0  1  0  0  0  0  0999 V2000
   21.5387  -14.4434  -19.0413 C   0  0  0  0  0  0  0  0  0  0  0  0
   20.8958  -15.4602  -18.1433 C   0  0  1  0  0  0  0  0  0  0  0  0
   20.6161  -16.6166  -18.8901 O   0  0  0  0  0  0  0  0  0  0  0  0
   21.8160  -15.7884  -16.9769 C   0  0  2  0  0  0  0  0  0  0  0  0
   21.2547  -16.9158  -16.2616 N   0  0  0  0  0  0  0  0  0  0  0  0
   21.9973  -14.6221  -16.0871 C   0  0  0  0  0  0  0  0  0  0  0  0
   20.9979  -14.0750  -15.5554 O   0  0  0  0  0  0  0  0  0  0  0  0
   24.9620  -12.6266  -14.8113 C   0  0  0  0  0  0  0  0  0  0  0  0
   23.4880  -12.8749  -15.0556 C   0  0  2  0  0  0  0  0  0  0  0  0
   23.2827  -14.0837  -15.8031 N   0  0  0  0  0  0  0  0  0  0  0  0
   22.8316  -11.7022  -15.6927 C   0  0  0  0  0  0  0  0  0  0  0  0
   22.9208  -11.5144  -16.9369 O   0  0  0  0  0  0  0  0  0  0  0  0
   22.0828  -10.7452  -14.9611 N   0  0  0  0  0  0  0  0  0  0  0  0
   21.4829   -9.5784  -15.5865 C   0  0  1  0  0  0  0  0  0  0  0  0
   19.9861   -9.6844  -15.4059 C   0  0  0  0  0  0  0  0  0  0  0  0
   19.3192   -8.4845  -15.9627 C   0  0  0  0  0  0  0  0  0  0  0  0
   19.5829   -8.1150  -17.1292 O   0  0  0  0  0  0  0  0  0  0  0  0
   21.9501   -8.3256  -14.9228 C   0  0  0  0  0  0  0  0  0  0  0  0
   22.4988   -8.4144  -13.8082 O   0  0  0  0  0  0  0  0  0  0  0  0
   18.4019   -7.7579  -15.2103 O   0  0  0  0  0  0  0  0  0  0  0  0
   21.7883   -7.0936  -15.5103 O   0  0  0  0  0  0  0  0  0  0  0  0
  2  1  1  6
  3  2  1  0
  4  5  1  1
  4  2  1  0
  6  4  1  0
  6  7  2  0
  9  8  1  6
  9 10  1  0
  9 11  1  0
 10  6  1  0
 11 12  2  0
 13 11  1  0
 13 14  1  0
 14 15  1  1
 15 16  1  0
 16 20  1  0
 16 17  2  0
 18 21  1  0
 18 14  1  0
 19 18  2  0
M  END
$$$$
