TAD.pdb
     RDKit          3D

 21 20  0  0  1  0  0  0  0  0999 V2000
   18.0209  -10.4373  -15.0876 C   0  0  0  0  0  0  0  0  0  0  0  0
   19.3739  -10.9920  -15.4275 C   0  0  1  0  0  0  0  0  0  0  0  0
   19.3299  -12.3927  -15.3320 O   0  0  0  0  0  0  0  0  0  0  0  0
   19.7798  -10.5658  -16.8305 C   0  0  2  0  0  0  0  0  0  0  0  0
   20.9648  -11.3100  -17.2040 N   0  0  0  0  0  0  0  0  0  0  0  0
   20.0132   -9.1081  -16.9059 C   0  0  0  0  0  0  0  0  0  0  0  0
   21.0608   -8.6126  -16.4181 O   0  0  0  0  0  0  0  0  0  0  0  0
   18.3037   -6.1996  -18.6218 C   0  0  0  0  0  0  0  0  0  0  0  0
   19.3009   -6.8147  -17.6619 C   0  0  2  0  0  0  0  0  0  0  0  0
   19.0814   -8.2268  -17.5205 N   0  0  0  0  0  0  0  0  0  0  0  0
   19.3059   -6.1130  -16.3506 C   0  0  0  0  0  0  0  0  0  0  0  0
   18.5163   -6.4644  -15.4318 O   0  0  0  0  0  0  0  0  0  0  0  0
   20.1762   -5.0321  -16.0571 N   0  0  0  0  0  0  0  0  0  0  0  0
   20.1968   -4.3755  -14.7607 C   0  0  1  0  0  0  0  0  0  0  0  0
   21.5846   -3.8122  -14.5580 C   0  0  0  0  0  0  0  0  0  0  0  0
   22.5480   -4.9087  -14.3050 C   0  0  0  0  0  0  0  0  0  0  0  0
   22.2209   -5.8608  -13.5610 O   0  0  0  0  0  0  0  0  0  0  0  0
   19.2204   -3.2469  -14.7256 C   0  0  0  0  0  0  0  0  0  0  0  0
   18.7677   -2.8210  -15.8050 O   0  0  0  0  0  0  0  0  0  0  0  0
   23.8143   -4.9000  -14.8811 O   0  0  0  0  0  0  0  0  0  0  0  0
   18.8175   -2.6772  -13.5415 O   0  0  0  0  0  0  0  0  0  0  0  0
  2  1  1  6
  3  2  1  0
  4  5  1  1
  4  2  1  0
  6  4  1  0
  6  7  2  0
  9  8  1  6
  9 10  1  0
  9 11  1  0
 10  6  1  0
 11 12  2  0
 13 11  1  0
 13 14  1  0
 14 15  1  6
 15 16  1  0
 16 20  1  0
 16 17  2  0
 18 21  1  0
 18 14  1  0
 19 18  2  0
M  END
$$$$
