TAD.pdb
     RDKit          3D

 21 20  0  0  1  0  0  0  0  0999 V2000
   18.6524  -10.3604  -12.2112 C   0  0  0  0  0  0  0  0  0  0  0  0
   17.7906   -9.2091  -11.7803 C   0  0  1  0  0  0  0  0  0  0  0  0
   17.2280   -8.6092  -12.9190 O   0  0  0  0  0  0  0  0  0  0  0  0
   16.6984   -9.6934  -10.8382 C   0  0  2  0  0  0  0  0  0  0  0  0
   15.9167  -10.6971  -11.5303 N   0  0  0  0  0  0  0  0  0  0  0  0
   15.8502   -8.5752  -10.3744 C   0  0  0  0  0  0  0  0  0  0  0  0
   15.0632   -8.0085  -11.1748 O   0  0  0  0  0  0  0  0  0  0  0  0
   14.9056   -6.9919   -7.1043 C   0  0  0  0  0  0  0  0  0  0  0  0
   15.2094   -6.9224   -8.5865 C   0  0  2  0  0  0  0  0  0  0  0  0
   15.8898   -8.1058   -9.0325 N   0  0  0  0  0  0  0  0  0  0  0  0
   15.9510   -5.6821   -8.9378 C   0  0  0  0  0  0  0  0  0  0  0  0
   17.1739   -5.5631   -8.6521 O   0  0  0  0  0  0  0  0  0  0  0  0
   15.3465   -4.5826   -9.5991 N   0  0  0  0  0  0  0  0  0  0  0  0
   16.0874   -3.3866   -9.9637 C   0  0  1  0  0  0  0  0  0  0  0  0
   16.0063   -3.2413  -11.4659 C   0  0  0  0  0  0  0  0  0  0  0  0
   16.6939   -2.0016  -11.8961 C   0  0  0  0  0  0  0  0  0  0  0  0
   17.3285   -1.3229  -11.0574 O   0  0  0  0  0  0  0  0  0  0  0  0
   15.4755   -2.1764   -9.3396 C   0  0  0  0  0  0  0  0  0  0  0  0
   14.2881   -2.2370   -8.9685 O   0  0  0  0  0  0  0  0  0  0  0  0
   16.6471   -1.5763  -13.2199 O   0  0  0  0  0  0  0  0  0  0  0  0
   16.1878   -1.0134   -9.1693 O   0  0  0  0  0  0  0  0  0  0  0  0
  2  1  1  6
  3  2  1  0
  4  5  1  6
  4  2  1  0
  6  4  1  0
  6  7  2  0
  9  8  1  1
  9 10  1  0
  9 11  1  0
 10  6  1  0
 11 12  2  0
 13 11  1  0
 13 14  1  0
 14 15  1  6
 15 16  1  0
 16 20  1  0
 16 17  2  0
 18 21  1  0
 18 14  1  0
 19 18  2  0
M  END
$$$$
