KIL.pdb
     RDKit          3D

 26 25  0  0  1  0  0  0  0  0999 V2000
   22.5063  -21.4967  -10.5640 N   0  0  0  0  0  0  0  0  0  0  0  0
   22.3169  -21.1995  -11.9470 C   0  0  1  0  0  0  0  0  0  0  0  0
   21.3609  -20.0445  -12.1756 C   0  0  0  0  0  0  0  0  0  0  0  0
   20.1810  -20.5258  -13.0105 C   0  0  0  0  0  0  0  0  0  0  0  0
   19.2028  -21.1593  -12.0131 C   0  0  0  0  0  0  0  0  0  0  0  0
   17.9825  -21.6431  -12.7608 C   0  0  0  0  0  0  0  0  0  0  0  0
   17.1714  -22.3919  -11.7896 N   0  0  0  0  0  0  0  0  0  0  0  0
   23.5799  -20.8679  -12.6474 C   0  0  0  0  0  0  0  0  0  0  0  0
   24.5621  -20.3819  -12.0350 O   0  0  0  0  0  0  0  0  0  0  0  0
   26.0894  -24.5256  -15.2165 C   0  0  0  0  0  0  0  0  0  0  0  0
   25.7438  -23.2229  -14.4784 C   0  0  0  0  0  0  0  0  0  0  0  0
   25.3575  -22.1546  -15.4539 C   0  0  2  0  0  0  0  0  0  0  0  0
   26.5290  -21.9676  -16.4024 C   0  0  0  0  0  0  0  0  0  0  0  0
   24.9406  -20.9041  -14.7858 C   0  0  2  0  0  0  0  0  0  0  0  0
   23.6855  -21.1027  -14.0379 N   0  0  0  0  0  0  0  0  0  0  0  0
   24.6627  -19.8121  -15.7471 C   0  0  0  0  0  0  0  0  0  0  0  0
   23.6159  -19.9192  -16.4626 O   0  0  0  0  0  0  0  0  0  0  0  0
   27.3054  -15.5858  -15.8391 C   0  0  0  0  0  0  0  0  0  0  0  0
   25.8385  -15.2516  -16.0126 C   0  0  2  0  0  0  0  0  0  0  0  0
   25.3789  -14.0755  -15.2006 C   0  0  0  0  0  0  0  0  0  0  0  0
   24.9441  -16.4223  -16.0466 C   0  0  0  0  0  0  0  0  0  0  0  0
   25.2790  -17.6093  -16.8348 C   0  0  2  0  0  0  0  0  0  0  0  0
   25.5155  -18.6806  -15.8847 N   0  0  0  0  0  0  0  0  0  0  0  0
   26.2812  -17.5312  -17.8838 C   0  0  0  0  0  0  0  0  0  0  0  0
   27.5043  -18.1779  -17.8627 O   0  0  0  0  0  0  0  0  0  0  0  0
   26.0722  -16.8364  -18.9064 O   0  0  0  0  0  0  0  0  0  0  0  0
  2  3  1  0
  2  1  1  1
  4  3  1  0
  5  4  1  0
  5  6  1  0
  7  6  1  0
  8  9  2  0
  8  2  1  0
 11 10  1  0
 12 11  1  0
 12 14  1  0
 12 13  1  6
 14 15  1  6
 15  8  1  0
 16 14  1  0
 17 16  2  0
 19 18  1  1
 19 21  1  0
 20 19  1  0
 22 21  1  1
 22 23  1  0
 22 24  1  0
 23 16  1  0
 24 25  1  0
 26 24  2  0
M  END
$$$$
