KIL.pdb
     RDKit          3D

 26 25  0  0  1  0  0  0  0  0999 V2000
   22.7399  -16.6675  -18.0102 N   0  0  0  0  0  0  0  0  0  0  0  0
   23.1800  -16.7127  -16.6534 C   0  0  1  0  0  0  0  0  0  0  0  0
   22.0624  -16.4486  -15.6626 C   0  0  0  0  0  0  0  0  0  0  0  0
   20.7348  -16.3843  -16.4071 C   0  0  0  0  0  0  0  0  0  0  0  0
   20.1912  -17.8186  -16.4031 C   0  0  0  0  0  0  0  0  0  0  0  0
   18.8217  -17.8273  -17.0406 C   0  0  0  0  0  0  0  0  0  0  0  0
   18.4842  -19.2386  -17.2782 N   0  0  0  0  0  0  0  0  0  0  0  0
   23.7940  -18.0101  -16.2855 C   0  0  0  0  0  0  0  0  0  0  0  0
   23.2123  -19.0993  -16.5117 O   0  0  0  0  0  0  0  0  0  0  0  0
   28.7723  -18.7283  -17.7892 C   0  0  0  0  0  0  0  0  0  0  0  0
   27.3124  -18.9614  -17.3702 C   0  0  0  0  0  0  0  0  0  0  0  0
   27.2148  -19.1374  -15.8864 C   0  0  2  0  0  0  0  0  0  0  0  0
   28.0863  -20.3253  -15.5167 C   0  0  0  0  0  0  0  0  0  0  0  0
   25.8175  -19.2711  -15.4245 C   0  0  2  0  0  0  0  0  0  0  0  0
   25.0646  -18.0263  -15.6649 N   0  0  0  0  0  0  0  0  0  0  0  0
   25.7223  -19.5188  -13.9673 C   0  0  0  0  0  0  0  0  0  0  0  0
   25.5019  -18.5132  -13.2193 O   0  0  0  0  0  0  0  0  0  0  0  0
   24.4084  -20.0090   -9.5503 C   0  0  0  0  0  0  0  0  0  0  0  0
   23.6631  -19.7553  -10.8441 C   0  0  2  0  0  0  0  0  0  0  0  0
   22.1960  -19.4931  -10.6635 C   0  0  0  0  0  0  0  0  0  0  0  0
   24.0445  -20.6458  -11.9546 C   0  0  0  0  0  0  0  0  0  0  0  0
   25.4062  -21.1697  -12.0727 C   0  0  2  0  0  0  0  0  0  0  0  0
   25.8685  -20.8172  -13.4024 N   0  0  0  0  0  0  0  0  0  0  0  0
   25.6950  -22.5445  -11.7025 C   0  0  0  0  0  0  0  0  0  0  0  0
   26.1103  -22.9585  -10.4492 O   0  0  0  0  0  0  0  0  0  0  0  0
   25.5769  -23.4641  -12.5467 O   0  0  0  0  0  0  0  0  0  0  0  0
  2  3  1  0
  2  1  1  6
  4  3  1  0
  5  4  1  0
  5  6  1  0
  7  6  1  0
  8  9  2  0
  8  2  1  0
 11 10  1  0
 12 11  1  0
 12 14  1  0
 12 13  1  6
 14 15  1  1
 15  8  1  0
 16 14  1  0
 17 16  2  0
 19 18  1  1
 19 21  1  0
 20 19  1  0
 22 21  1  6
 22 23  1  0
 22 24  1  0
 23 16  1  0
 24 25  1  0
 26 24  2  0
M  END
$$$$
