KIL.pdb
     RDKit          3D

 26 25  0  0  1  0  0  0  0  0999 V2000
   14.2329  -12.0572  -14.2678 N   0  0  0  0  0  0  0  0  0  0  0  0
   15.3184  -11.4629  -13.5568 C   0  0  1  0  0  0  0  0  0  0  0  0
   16.5122  -11.1673  -14.4444 C   0  0  0  0  0  0  0  0  0  0  0  0
   16.9679  -12.4545  -15.1199 C   0  0  0  0  0  0  0  0  0  0  0  0
   18.2854  -12.1053  -15.8237 C   0  0  0  0  0  0  0  0  0  0  0  0
   18.8577  -13.3574  -16.4455 C   0  0  0  0  0  0  0  0  0  0  0  0
   20.1031  -12.9552  -17.1158 N   0  0  0  0  0  0  0  0  0  0  0  0
   14.9473  -10.1953  -12.8852 C   0  0  0  0  0  0  0  0  0  0  0  0
   14.3131   -9.2946  -13.4872 O   0  0  0  0  0  0  0  0  0  0  0  0
   12.0733   -9.8057   -8.7058 C   0  0  0  0  0  0  0  0  0  0  0  0
   12.8477   -9.4231   -9.9767 C   0  0  0  0  0  0  0  0  0  0  0  0
   14.2248   -8.9491   -9.6285 C   0  0  2  0  0  0  0  0  0  0  0  0
   14.0681   -7.7112   -8.7624 C   0  0  0  0  0  0  0  0  0  0  0  0
   15.0633   -8.7239  -10.8243 C   0  0  2  0  0  0  0  0  0  0  0  0
   15.3143   -9.9913  -11.5348 N   0  0  0  0  0  0  0  0  0  0  0  0
   16.4011   -8.1853  -10.4864 C   0  0  0  0  0  0  0  0  0  0  0  0
   17.3493   -9.0234  -10.3538 O   0  0  0  0  0  0  0  0  0  0  0  0
   20.8899   -6.4499  -11.1322 C   0  0  0  0  0  0  0  0  0  0  0  0
   19.8091   -7.1770  -11.9047 C   0  0  2  0  0  0  0  0  0  0  0  0
   20.2207   -7.5947  -13.2867 C   0  0  0  0  0  0  0  0  0  0  0  0
   18.4610   -6.5991  -11.7621 C   0  0  0  0  0  0  0  0  0  0  0  0
   17.9497   -6.1813  -10.4558 C   0  0  2  0  0  0  0  0  0  0  0  0
   16.6417   -6.7932  -10.3112 N   0  0  0  0  0  0  0  0  0  0  0  0
   17.9814   -4.7803  -10.0726 C   0  0  0  0  0  0  0  0  0  0  0  0
   19.0060   -4.1730   -9.3682 O   0  0  0  0  0  0  0  0  0  0  0  0
   17.0313   -4.0206  -10.3767 O   0  0  0  0  0  0  0  0  0  0  0  0
  2  3  1  0
  2  1  1  6
  4  3  1  0
  5  4  1  0
  5  6  1  0
  7  6  1  0
  8  9  2  0
  8  2  1  0
 11 10  1  0
 12 11  1  0
 12 14  1  0
 12 13  1  6
 14 15  1  1
 15  8  1  0
 16 14  1  0
 17 16  2  0
 19 18  1  6
 19 21  1  0
 20 19  1  0
 22 21  1  6
 22 23  1  0
 22 24  1  0
 23 16  1  0
 24 25  1  0
 26 24  2  0
M  END
$$$$
