KIL.pdb
     RDKit          3D

 26 25  0  0  1  0  0  0  0  0999 V2000
   22.3656  -20.8508  -18.1390 N   0  0  0  0  0  0  0  0  0  0  0  0
   22.9442  -19.9478  -17.1974 C   0  0  1  0  0  0  0  0  0  0  0  0
   21.9077  -19.1227  -16.4591 C   0  0  0  0  0  0  0  0  0  0  0  0
   21.0906  -18.3234  -17.4662 C   0  0  0  0  0  0  0  0  0  0  0  0
   20.1619  -17.4345  -16.6292 C   0  0  0  0  0  0  0  0  0  0  0  0
   20.8958  -16.1669  -16.2597 C   0  0  0  0  0  0  0  0  0  0  0  0
   19.9238  -15.3146  -15.5591 N   0  0  0  0  0  0  0  0  0  0  0  0
   23.7722  -20.6283  -16.1741 C   0  0  0  0  0  0  0  0  0  0  0  0
   23.4095  -21.7093  -15.6489 O   0  0  0  0  0  0  0  0  0  0  0  0
   28.8500  -19.8507  -16.8333 C   0  0  0  0  0  0  0  0  0  0  0  0
   27.8565  -20.8347  -16.1961 C   0  0  0  0  0  0  0  0  0  0  0  0
   27.2743  -20.2547  -14.9445 C   0  0  2  0  0  0  0  0  0  0  0  0
   28.1819  -20.6616  -13.7965 C   0  0  0  0  0  0  0  0  0  0  0  0
   25.8643  -20.6481  -14.7428 C   0  0  2  0  0  0  0  0  0  0  0  0
   25.0002  -20.0501  -15.7771 N   0  0  0  0  0  0  0  0  0  0  0  0
   25.3221  -20.1743  -13.4485 C   0  0  0  0  0  0  0  0  0  0  0  0
   25.1912  -18.9176  -13.2975 O   0  0  0  0  0  0  0  0  0  0  0  0
   20.9411  -20.9001   -9.7672 C   0  0  0  0  0  0  0  0  0  0  0  0
   22.2914  -20.2299   -9.9133 C   0  0  2  0  0  0  0  0  0  0  0  0
   22.2771  -18.7564   -9.6264 C   0  0  0  0  0  0  0  0  0  0  0  0
   23.0682  -20.6681  -11.0865 C   0  0  0  0  0  0  0  0  0  0  0  0
   24.5313  -20.6267  -11.0852 C   0  0  2  0  0  0  0  0  0  0  0  0
   24.9564  -21.0665  -12.4012 N   0  0  0  0  0  0  0  0  0  0  0  0
   25.2787  -21.2371   -9.9991 C   0  0  0  0  0  0  0  0  0  0  0  0
   25.5819  -20.6191   -8.7987 O   0  0  0  0  0  0  0  0  0  0  0  0
   25.7062  -22.4108  -10.1080 O   0  0  0  0  0  0  0  0  0  0  0  0
  2  3  1  0
  2  1  1  6
  4  3  1  0
  5  4  1  0
  5  6  1  0
  7  6  1  0
  8  9  2  0
  8  2  1  0
 11 10  1  0
 12 11  1  0
 12 14  1  0
 12 13  1  1
 14 15  1  6
 15  8  1  0
 16 14  1  0
 17 16  2  0
 19 18  1  6
 19 21  1  0
 20 19  1  0
 22 21  1  1
 22 23  1  0
 22 24  1  0
 23 16  1  0
 24 25  1  0
 26 24  2  0
M  END
$$$$
