KIL.pdb
     RDKit          3D

 26 25  0  0  1  0  0  0  0  0999 V2000
   24.5725  -25.4098  -16.3966 N   0  0  0  0  0  0  0  0  0  0  0  0
   23.1567  -25.5894  -16.4014 C   0  0  1  0  0  0  0  0  0  0  0  0
   22.7459  -27.0358  -16.2025 C   0  0  0  0  0  0  0  0  0  0  0  0
   23.4469  -27.9050  -17.2388 C   0  0  0  0  0  0  0  0  0  0  0  0
   22.9356  -29.3303  -16.9938 C   0  0  0  0  0  0  0  0  0  0  0  0
   23.5866  -30.2639  -17.9870 C   0  0  0  0  0  0  0  0  0  0  0  0
   23.1623  -31.6226  -17.6182 N   0  0  0  0  0  0  0  0  0  0  0  0
   22.4669  -24.7912  -15.3609 C   0  0  0  0  0  0  0  0  0  0  0  0
   23.0311  -24.4950  -14.2793 O   0  0  0  0  0  0  0  0  0  0  0  0
   19.9269  -20.3392  -16.6407 C   0  0  0  0  0  0  0  0  0  0  0  0
   20.6804  -21.4585  -15.9053 C   0  0  0  0  0  0  0  0  0  0  0  0
   19.7149  -22.4097  -15.2689 C   0  0  2  0  0  0  0  0  0  0  0  0
   18.8409  -21.5995  -14.3272 C   0  0  0  0  0  0  0  0  0  0  0  0
   20.3930  -23.5437  -14.6071 C   0  0  2  0  0  0  0  0  0  0  0  0
   21.1423  -24.3508  -15.5874 N   0  0  0  0  0  0  0  0  0  0  0  0
   19.4403  -24.4793  -13.9662 C   0  0  0  0  0  0  0  0  0  0  0  0
   19.2611  -25.6052  -14.5314 O   0  0  0  0  0  0  0  0  0  0  0  0
   18.7527  -28.1056  -12.0332 C   0  0  0  0  0  0  0  0  0  0  0  0
   19.8047  -27.0896  -11.6401 C   0  0  2  0  0  0  0  0  0  0  0  0
   20.9398  -27.6621  -10.8416 C   0  0  0  0  0  0  0  0  0  0  0  0
   19.2659  -25.7941  -11.1894 C   0  0  0  0  0  0  0  0  0  0  0  0
   18.1536  -25.1507  -11.8904 C   0  0  2  0  0  0  0  0  0  0  0  0
   18.7412  -24.1562  -12.7689 N   0  0  0  0  0  0  0  0  0  0  0  0
   17.0052  -24.6627  -11.1462 C   0  0  0  0  0  0  0  0  0  0  0  0
   16.8683  -23.3782  -10.6502 O   0  0  0  0  0  0  0  0  0  0  0  0
   16.0384  -25.4241  -10.9059 O   0  0  0  0  0  0  0  0  0  0  0  0
  2  3  1  0
  2  1  1  1
  4  3  1  0
  5  4  1  0
  5  6  1  0
  7  6  1  0
  8  9  2  0
  8  2  1  0
 11 10  1  0
 12 11  1  0
 12 14  1  0
 12 13  1  1
 14 15  1  6
 15  8  1  0
 16 14  1  0
 17 16  2  0
 19 18  1  1
 19 21  1  0
 20 19  1  0
 22 21  1  1
 22 23  1  0
 22 24  1  0
 23 16  1  0
 24 25  1  0
 26 24  2  0
M  END
$$$$
